LIG(A-4000)
  -OEChem-07272002233D

 40 42  0     1  0  0  0  0  0999 V2000
    6.6320    0.5940   17.2520 N   0  0  0  0  0  0  0  0  0  0  0  0
    5.0980    0.9060   21.2740 C   0  0  0  0  0  0  0  0  0  0  0  0
    9.0150    1.2120   20.8220 O   0  0  0  0  0  0  0  0  0  0  0  0
   14.1940   -1.9100   21.6990 Cl  0  0  0  0  0  0  0  0  0  0  0  0
    5.6260    0.7590   19.8690 C   0  0  0  0  0  0  0  0  0  0  0  0
    7.5630   -0.5230   20.6330 N   0  0  0  0  0  0  0  0  0  0  0  0
   12.7170    2.6360   23.4450 O   0  0  0  0  0  0  0  0  0  0  0  0
    5.0000    1.4070   18.8080 C   0  0  0  0  0  0  0  0  0  0  0  0
   12.0750    4.6580   22.1930 N   0  0  0  0  0  0  0  0  0  0  0  0
   13.2020    6.6930   21.8710 O   0  0  0  0  0  0  0  0  0  0  0  0
    5.5330    1.3060   17.5390 C   0  0  0  0  0  0  0  0  0  0  0  0
    7.2400   -0.0390   18.2610 C   0  0  0  0  0  0  0  0  0  0  0  0
    6.7930    0.0210   19.5790 C   0  0  0  0  0  0  0  0  0  0  0  0
    8.6020    0.1230   21.2070 C   0  0  0  0  0  0  0  0  0  0  0  0
    9.2100   -0.5900   22.3990 C   0  0  0  0  0  0  0  0  0  0  0  0
   10.6720   -0.2500   22.5660 C   0  0  0  0  0  0  0  0  0  0  0  0
   11.6520   -1.1420   22.1450 C   0  0  0  0  0  0  0  0  0  0  0  0
   12.9770   -0.7640   22.1810 C   0  0  0  0  0  0  0  0  0  0  0  0
   13.3680    0.4840   22.6240 C   0  0  0  0  0  0  0  0  0  0  0  0
   12.3850    1.3610   23.0530 C   0  0  0  0  0  0  0  0  0  0  0  0
   12.9780    3.4700   22.3070 C   0  0  1  0  0  0  0  0  0  0  0  0
   14.0670    4.4610   22.7270 C   0  0  0  0  0  0  0  0  0  0  0  0
   13.1090    5.5190   22.2110 C   0  0  0  0  0  0  0  0  0  0  0  0
   11.0490    1.0010   23.0460 C   0  0  0  0  0  0  0  0  0  0  0  0
    4.2146    1.5614   21.2676 H   0  0  0  0  0  0  0  0  0  0  0  0
    4.8178   -0.0830   21.6656 H   0  0  0  0  0  0  0  0  0  0  0  0
    5.8767    1.3466   21.9140 H   0  0  0  0  0  0  0  0  0  0  0  0
    7.3262   -1.4337   20.9714 H   0  0  0  0  0  0  0  0  0  0  0  0
    4.1033    1.9849   18.9767 H   0  0  0  0  0  0  0  0  0  0  0  0
   11.0833    4.7693   22.1283 H   0  0  0  0  0  0  0  0  0  0  0  0
    5.0381    1.8287   16.7338 H   0  0  0  0  0  0  0  0  0  0  0  0
    8.1205   -0.6253   18.0434 H   0  0  0  0  0  0  0  0  0  0  0  0
    8.6681   -0.2905   23.3082 H   0  0  0  0  0  0  0  0  0  0  0  0
    9.1107   -1.6758   22.2538 H   0  0  0  0  0  0  0  0  0  0  0  0
   11.3767   -2.1249   21.7920 H   0  0  0  0  0  0  0  0  0  0  0  0
   14.4099    0.7682   22.6357 H   0  0  0  0  0  0  0  0  0  0  0  0
   13.1802    2.9479   21.3601 H   0  0  0  0  0  0  0  0  0  0  0  0
   14.2732    4.5015   23.8067 H   0  0  0  0  0  0  0  0  0  0  0  0
   15.0151    4.3776   22.1755 H   0  0  0  0  0  0  0  0  0  0  0  0
   10.3009    1.6886   23.4119 H   0  0  0  0  0  0  0  0  0  0  0  0
  1 11  2  0  0  0  0
  1 12  1  0  0  0  0
  2  5  1  0  0  0  0
  3 14  2  0  0  0  0
  4 18  1  0  0  0  0
  5  8  2  0  0  0  0
  5 13  1  0  0  0  0
  6 13  1  0  0  0  0
  6 14  1  0  0  0  0
  7 20  1  0  0  0  0
  7 21  1  0  0  0  0
  8 11  1  0  0  0  0
  9 21  1  0  0  0  0
  9 23  1  0  0  0  0
 10 23  2  0  0  0  0
 12 13  2  0  0  0  0
 14 15  1  0  0  0  0
 15 16  1  0  0  0  0
 16 17  2  0  0  0  0
 16 24  1  0  0  0  0
 17 18  1  0  0  0  0
 18 19  2  0  0  0  0
 19 20  1  0  0  0  0
 20 24  2  0  0  0  0
 21 22  1  0  0  0  0
 22 23  1  0  0  0  0
  2 25  1  0  0  0  0
  2 26  1  0  0  0  0
  2 27  1  0  0  0  0
  6 28  1  0  0  0  0
  8 29  1  0  0  0  0
  9 30  1  0  0  0  0
 11 31  1  0  0  0  0
 12 32  1  0  0  0  0
 15 33  1  0  0  0  0
 15 34  1  0  0  0  0
 17 35  1  0  0  0  0
 19 36  1  0  0  0  0
 21 37  1  0  0  0  0
 22 38  1  0  0  0  0
 22 39  1  0  0  0  0
 24 40  1  0  0  0  0
M  END
$$$$
EN300-80322
  -OEChem-07272002233D

 40 42  0     0  0  0  0  0  0999 V2000
    5.0000    1.4070   18.8080 C   0  0  0  0  0  0  0  0  0  0  0  0
   11.0490    1.0010   23.0460 C   0  0  0  0  0  0  0  0  0  0  0  0
   12.0162    3.3529   24.4852 C   0  0  0  0  0  0  0  0  0  0  0  0
   13.3680    0.4840   22.6240 C   0  0  0  0  0  0  0  0  0  0  0  0
   11.6520   -1.1420   22.1450 C   0  0  0  0  0  0  0  0  0  0  0  0
    5.5330    1.3060   17.5390 C   0  0  0  0  0  0  0  0  0  0  0  0
   13.8878    3.3293   23.0177 C   0  0  0  0  0  0  0  0  0  0  0  0
    7.2400   -0.0390   18.2610 C   0  0  0  0  0  0  0  0  0  0  0  0
   13.5427    5.1714   24.3465 C   0  0  0  0  0  0  0  0  0  0  0  0
   12.3850    1.3610   23.0530 C   0  0  0  0  0  0  0  0  0  0  0  0
   12.7664    2.6894   23.5206 C   0  0  0  0  0  0  0  0  0  0  0  0
    5.6260    0.7590   19.8690 C   0  0  0  0  0  0  0  0  0  0  0  0
   10.6720   -0.2500   22.5660 C   0  0  0  0  0  0  0  0  0  0  0  0
    6.7930    0.0210   19.5790 C   0  0  0  0  0  0  0  0  0  0  0  0
   12.4050    4.6180   24.9114 C   0  0  0  0  0  0  0  0  0  0  0  0
   12.9770   -0.7640   22.1810 C   0  0  0  0  0  0  0  0  0  0  0  0
    8.6020    0.1230   21.2070 C   0  0  0  0  0  0  0  0  0  0  0  0
    5.0980    0.9060   21.2740 C   0  0  0  0  0  0  0  0  0  0  0  0
    9.2100   -0.5900   22.3990 C   0  0  0  0  0  0  0  0  0  0  0  0
    6.6320    0.5940   17.2520 N   0  0  0  0  0  0  0  0  0  0  0  0
   14.2967    4.5575   23.4072 N   0  0  0  0  0  0  0  0  0  0  0  0
    7.5630   -0.5230   20.6330 N   0  0  0  0  0  0  0  0  0  0  0  0
    9.0150    1.2120   20.8220 O   0  0  0  0  0  0  0  0  0  0  0  0
   11.7026    5.2793   25.8379 F   0  0  0  0  0  0  0  0  0  0  0  0
   14.1940   -1.9100   21.6990 Cl  0  0  0  0  0  0  0  0  0  0  0  0
    4.0894    1.9955   18.9731 H   0  0  0  0  0  0  0  0  0  0  0  0
   10.2869    1.6872   23.4130 H   0  0  0  0  0  0  0  0  0  0  0  0
   11.1270    2.8971   24.9135 H   0  0  0  0  0  0  0  0  0  0  0  0
   14.4085    0.7689   22.6365 H   0  0  0  0  0  0  0  0  0  0  0  0
   11.3634   -2.1298   21.7910 H   0  0  0  0  0  0  0  0  0  0  0  0
    5.0712    1.8129   16.6995 H   0  0  0  0  0  0  0  0  0  0  0  0
   14.5156    2.8653   22.2624 H   0  0  0  0  0  0  0  0  0  0  0  0
    8.1159   -0.6122   17.9919 H   0  0  0  0  0  0  0  0  0  0  0  0
   13.8877    6.1559   24.6447 H   0  0  0  0  0  0  0  0  0  0  0  0
    4.4456    1.7840   21.3446 H   0  0  0  0  0  0  0  0  0  0  0  0
    4.5263    0.0203   21.5772 H   0  0  0  0  0  0  0  0  0  0  0  0
    5.9169    1.0197   21.9952 H   0  0  0  0  0  0  0  0  0  0  0  0
    9.0901   -1.6664   22.2639 H   0  0  0  0  0  0  0  0  0  0  0  0
    8.6579   -0.3097   23.2977 H   0  0  0  0  0  0  0  0  0  0  0  0
    7.3129   -1.4300   20.9567 H   0  0  0  0  0  0  0  0  0  0  0  0
  1  6  2  0  0  0  0
  1 12  1  0  0  0  0
  2 10  1  0  0  0  0
  2 13  2  0  0  0  0
  3 11  2  0  0  0  0
  3 15  1  0  0  0  0
  4 10  2  0  0  0  0
  4 16  1  0  0  0  0
  5 13  1  0  0  0  0
  5 16  2  0  0  0  0
  6 20  1  0  0  0  0
  7 11  1  0  0  0  0
  7 21  2  0  0  0  0
  8 14  1  0  0  0  0
  8 20  2  0  0  0  0
  9 15  2  0  0  0  0
  9 21  1  0  0  0  0
 10 11  1  0  0  0  0
 12 14  2  0  0  0  0
 12 18  1  0  0  0  0
 13 19  1  0  0  0  0
 14 22  1  0  0  0  0
 15 24  1  0  0  0  0
 16 25  1  0  0  0  0
 17 19  1  0  0  0  0
 17 22  1  0  0  0  0
 17 23  2  0  0  0  0
  1 26  1  0  0  0  0
  2 27  1  0  0  0  0
  3 28  1  0  0  0  0
  4 29  1  0  0  0  0
  5 30  1  0  0  0  0
  6 31  1  0  0  0  0
  7 32  1  0  0  0  0
  8 33  1  0  0  0  0
  9 34  1  0  0  0  0
 18 35  1  0  0  0  0
 18 36  1  0  0  0  0
 18 37  1  0  0  0  0
 19 38  1  0  0  0  0
 19 39  1  0  0  0  0
 22 40  1  0  0  0  0
M  END
> <BB_SMILES>
OB(O)c1cncc(F)c1

> <scaffold_SMILES>
Cc1ccncc1NC(=O)Cc1cc(Cl)cc(Br)c1

$$$$
EN300-129678
  -OEChem-07272002233D

 49 51  0     0  0  0  0  0  0999 V2000
    5.0000    1.4070   18.8080 C   0  0  0  0  0  0  0  0  0  0  0  0
   12.0165    3.3532   24.4851 C   0  0  0  0  0  0  0  0  0  0  0  0
   11.0490    1.0010   23.0460 C   0  0  0  0  0  0  0  0  0  0  0  0
   13.3680    0.4840   22.6240 C   0  0  0  0  0  0  0  0  0  0  0  0
   11.6520   -1.1420   22.1450 C   0  0  0  0  0  0  0  0  0  0  0  0
    5.5330    1.3060   17.5390 C   0  0  0  0  0  0  0  0  0  0  0  0
   13.8878    3.3289   23.0174 C   0  0  0  0  0  0  0  0  0  0  0  0
   13.5433    5.1714   24.3458 C   0  0  0  0  0  0  0  0  0  0  0  0
    7.2400   -0.0390   18.2610 C   0  0  0  0  0  0  0  0  0  0  0  0
   12.7664    2.6894   23.5206 C   0  0  0  0  0  0  0  0  0  0  0  0
   12.3850    1.3610   23.0530 C   0  0  0  0  0  0  0  0  0  0  0  0
   12.4056    4.6184   24.9111 C   0  0  0  0  0  0  0  0  0  0  0  0
    5.6260    0.7590   19.8690 C   0  0  0  0  0  0  0  0  0  0  0  0
   10.6720   -0.2500   22.5660 C   0  0  0  0  0  0  0  0  0  0  0  0
    6.7930    0.0210   19.5790 C   0  0  0  0  0  0  0  0  0  0  0  0
   12.9770   -0.7640   22.1810 C   0  0  0  0  0  0  0  0  0  0  0  0
   11.6435    5.3378   25.9167 C   0  0  0  0  0  0  0  0  0  0  0  0
    8.6020    0.1230   21.2070 C   0  0  0  0  0  0  0  0  0  0  0  0
    5.0980    0.9060   21.2740 C   0  0  0  0  0  0  0  0  0  0  0  0
    8.5922    4.2775   27.6699 C   0  0  0  0  0  0  0  0  0  0  0  0
    9.2100   -0.5900   22.3990 C   0  0  0  0  0  0  0  0  0  0  0  0
    9.7265    5.2225   27.3349 C   0  0  0  0  0  0  0  0  0  0  0  0
    6.6320    0.5940   17.2520 N   0  0  0  0  0  0  0  0  0  0  0  0
   14.2971    4.5572   23.4066 N   0  0  0  0  0  0  0  0  0  0  0  0
    7.5630   -0.5230   20.6330 N   0  0  0  0  0  0  0  0  0  0  0  0
   11.9314    6.4655   26.3422 O   0  0  0  0  0  0  0  0  0  0  0  0
    9.0150    1.2120   20.8220 O   0  0  0  0  0  0  0  0  0  0  0  0
   10.5601    4.6166   26.3410 O   0  0  0  0  0  0  0  0  0  0  0  0
   14.1940   -1.9100   21.6990 Cl  0  0  0  0  0  0  0  0  0  0  0  0
    4.0894    1.9955   18.9731 H   0  0  0  0  0  0  0  0  0  0  0  0
   11.1285    2.8878   24.9076 H   0  0  0  0  0  0  0  0  0  0  0  0
   10.2869    1.6872   23.4130 H   0  0  0  0  0  0  0  0  0  0  0  0
   14.4085    0.7689   22.6365 H   0  0  0  0  0  0  0  0  0  0  0  0
   11.3634   -2.1298   21.7910 H   0  0  0  0  0  0  0  0  0  0  0  0
    5.0712    1.8129   16.6995 H   0  0  0  0  0  0  0  0  0  0  0  0
   14.5144    2.8653   22.2607 H   0  0  0  0  0  0  0  0  0  0  0  0
   13.8979    6.1551   24.6388 H   0  0  0  0  0  0  0  0  0  0  0  0
    8.1159   -0.6122   17.9919 H   0  0  0  0  0  0  0  0  0  0  0  0
    4.4456    1.7840   21.3446 H   0  0  0  0  0  0  0  0  0  0  0  0
    4.5263    0.0203   21.5772 H   0  0  0  0  0  0  0  0  0  0  0  0
    5.9169    1.0197   21.9952 H   0  0  0  0  0  0  0  0  0  0  0  0
    7.9846    4.0682   26.7852 H   0  0  0  0  0  0  0  0  0  0  0  0
    8.9806    3.3326   28.0638 H   0  0  0  0  0  0  0  0  0  0  0  0
    7.9498    4.7059   28.4464 H   0  0  0  0  0  0  0  0  0  0  0  0
    9.0901   -1.6664   22.2639 H   0  0  0  0  0  0  0  0  0  0  0  0
    8.6579   -0.3097   23.2977 H   0  0  0  0  0  0  0  0  0  0  0  0
   10.3303    5.4277   28.2239 H   0  0  0  0  0  0  0  0  0  0  0  0
    9.3367    6.1658   26.9407 H   0  0  0  0  0  0  0  0  0  0  0  0
    7.3129   -1.4300   20.9567 H   0  0  0  0  0  0  0  0  0  0  0  0
  1  6  2  0  0  0  0
  1 13  1  0  0  0  0
  2 10  1  0  0  0  0
  2 12  2  0  0  0  0
  3 11  2  0  0  0  0
  3 14  1  0  0  0  0
  4 11  1  0  0  0  0
  4 16  2  0  0  0  0
  5 14  2  0  0  0  0
  5 16  1  0  0  0  0
  6 23  1  0  0  0  0
  7 10  2  0  0  0  0
  7 24  1  0  0  0  0
  8 12  1  0  0  0  0
  8 24  2  0  0  0  0
  9 15  1  0  0  0  0
  9 23  2  0  0  0  0
 10 11  1  0  0  0  0
 12 17  1  0  0  0  0
 13 15  2  0  0  0  0
 13 19  1  0  0  0  0
 14 21  1  0  0  0  0
 15 25  1  0  0  0  0
 16 29  1  0  0  0  0
 17 26  2  0  0  0  0
 17 28  1  0  0  0  0
 18 21  1  0  0  0  0
 18 25  1  0  0  0  0
 18 27  2  0  0  0  0
 20 22  1  0  0  0  0
 22 28  1  0  0  0  0
  1 30  1  0  0  0  0
  2 31  1  0  0  0  0
  3 32  1  0  0  0  0
  4 33  1  0  0  0  0
  5 34  1  0  0  0  0
  6 35  1  0  0  0  0
  7 36  1  0  0  0  0
  8 37  1  0  0  0  0
  9 38  1  0  0  0  0
 19 39  1  0  0  0  0
 19 40  1  0  0  0  0
 19 41  1  0  0  0  0
 20 42  1  0  0  0  0
 20 43  1  0  0  0  0
 20 44  1  0  0  0  0
 21 45  1  0  0  0  0
 21 46  1  0  0  0  0
 22 47  1  0  0  0  0
 22 48  1  0  0  0  0
 25 49  1  0  0  0  0
M  END
> <BB_SMILES>
CCOC(=O)c1cncc(B2OC(C)(C)C(C)(C)O2)c1

> <scaffold_SMILES>
Cc1ccncc1NC(=O)Cc1cc(Cl)cc(Br)c1

$$$$
EN300-125762
  -OEChem-07272002233D

 40 42  0     0  0  0  0  0  0999 V2000
    5.0000    1.4070   18.8080 C   0  0  0  0  0  0  0  0  0  0  0  0
   11.0490    1.0010   23.0460 C   0  0  0  0  0  0  0  0  0  0  0  0
   13.3680    0.4840   22.6240 C   0  0  0  0  0  0  0  0  0  0  0  0
   11.6520   -1.1420   22.1450 C   0  0  0  0  0  0  0  0  0  0  0  0
    5.5330    1.3060   17.5390 C   0  0  0  0  0  0  0  0  0  0  0  0
    7.2400   -0.0390   18.2610 C   0  0  0  0  0  0  0  0  0  0  0  0
   13.8246    3.4906   23.1582 C   0  0  0  0  0  0  0  0  0  0  0  0
   12.3850    1.3610   23.0530 C   0  0  0  0  0  0  0  0  0  0  0  0
    5.6260    0.7590   19.8690 C   0  0  0  0  0  0  0  0  0  0  0  0
   10.6720   -0.2500   22.5660 C   0  0  0  0  0  0  0  0  0  0  0  0
    6.7930    0.0210   19.5790 C   0  0  0  0  0  0  0  0  0  0  0  0
   12.9770   -0.7640   22.1810 C   0  0  0  0  0  0  0  0  0  0  0  0
   12.7645    2.6858   23.5197 C   0  0  0  0  0  0  0  0  0  0  0  0
   12.8960    4.8143   24.6399 C   0  0  0  0  0  0  0  0  0  0  0  0
    8.6020    0.1230   21.2070 C   0  0  0  0  0  0  0  0  0  0  0  0
    5.0980    0.9060   21.2740 C   0  0  0  0  0  0  0  0  0  0  0  0
   12.6462    5.9864   25.5069 C   0  0  0  0  0  0  0  0  0  0  0  0
    9.2100   -0.5900   22.3990 C   0  0  0  0  0  0  0  0  0  0  0  0
    6.6320    0.5940   17.2520 N   0  0  0  0  0  0  0  0  0  0  0  0
   13.9014    4.7117   23.7992 N   0  0  0  0  0  0  0  0  0  0  0  0
    7.5630   -0.5230   20.6330 N   0  0  0  0  0  0  0  0  0  0  0  0
    9.0150    1.2120   20.8220 O   0  0  0  0  0  0  0  0  0  0  0  0
   11.8200    3.4793   24.7113 S   0  0  0  0  0  0  0  0  0  0  0  0
   14.1940   -1.9100   21.6990 Cl  0  0  0  0  0  0  0  0  0  0  0  0
    4.0894    1.9955   18.9731 H   0  0  0  0  0  0  0  0  0  0  0  0
   10.2872    1.6875   23.4133 H   0  0  0  0  0  0  0  0  0  0  0  0
   14.4086    0.7688   22.6369 H   0  0  0  0  0  0  0  0  0  0  0  0
   11.3634   -2.1302   21.7918 H   0  0  0  0  0  0  0  0  0  0  0  0
    5.0712    1.8129   16.6995 H   0  0  0  0  0  0  0  0  0  0  0  0
    8.1159   -0.6122   17.9919 H   0  0  0  0  0  0  0  0  0  0  0  0
   14.5797    3.2369   22.4254 H   0  0  0  0  0  0  0  0  0  0  0  0
    4.4460    1.7843   21.3447 H   0  0  0  0  0  0  0  0  0  0  0  0
    4.5259    0.0205   21.5771 H   0  0  0  0  0  0  0  0  0  0  0  0
    5.9169    1.0193   21.9952 H   0  0  0  0  0  0  0  0  0  0  0  0
   12.0047    6.7231   24.9986 H   0  0  0  0  0  0  0  0  0  0  0  0
   12.1518    5.7018   26.4500 H   0  0  0  0  0  0  0  0  0  0  0  0
   13.5827    6.4935   25.7917 H   0  0  0  0  0  0  0  0  0  0  0  0
    9.0901   -1.6664   22.2639 H   0  0  0  0  0  0  0  0  0  0  0  0
    8.6579   -0.3097   23.2977 H   0  0  0  0  0  0  0  0  0  0  0  0
    7.3129   -1.4300   20.9567 H   0  0  0  0  0  0  0  0  0  0  0  0
  1  5  2  0  0  0  0
  1  9  1  0  0  0  0
  2  8  2  0  0  0  0
  2 10  1  0  0  0  0
  3  8  1  0  0  0  0
  3 12  2  0  0  0  0
  4 10  2  0  0  0  0
  4 12  1  0  0  0  0
  5 19  1  0  0  0  0
  6 11  1  0  0  0  0
  6 19  2  0  0  0  0
  7 13  2  0  0  0  0
  7 20  1  0  0  0  0
  8 13  1  0  0  0  0
  9 11  2  0  0  0  0
  9 16  1  0  0  0  0
 10 18  1  0  0  0  0
 11 21  1  0  0  0  0
 12 24  1  0  0  0  0
 13 23  1  0  0  0  0
 14 17  1  0  0  0  0
 14 20  2  0  0  0  0
 14 23  1  0  0  0  0
 15 18  1  0  0  0  0
 15 21  1  0  0  0  0
 15 22  2  0  0  0  0
  1 25  1  0  0  0  0
  2 26  1  0  0  0  0
  3 27  1  0  0  0  0
  4 28  1  0  0  0  0
  5 29  1  0  0  0  0
  6 30  1  0  0  0  0
  7 31  1  0  0  0  0
 16 32  1  0  0  0  0
 16 33  1  0  0  0  0
 16 34  1  0  0  0  0
 17 35  1  0  0  0  0
 17 36  1  0  0  0  0
 17 37  1  0  0  0  0
 18 38  1  0  0  0  0
 18 39  1  0  0  0  0
 21 40  1  0  0  0  0
M  END
> <BB_SMILES>
Cc1ncc(B2OC(C)(C)C(C)(C)O2)s1

> <scaffold_SMILES>
Cc1ccncc1NC(=O)Cc1cc(Cl)cc(Br)c1

$$$$
EN300-152345
  -OEChem-07272002233D

 39 41  0     0  0  0  0  0  0999 V2000
    5.0000    1.4070   18.8080 C   0  0  0  0  0  0  0  0  0  0  0  0
   11.0490    1.0010   23.0460 C   0  0  0  0  0  0  0  0  0  0  0  0
   13.3680    0.4840   22.6240 C   0  0  0  0  0  0  0  0  0  0  0  0
   11.6520   -1.1420   22.1450 C   0  0  0  0  0  0  0  0  0  0  0  0
    5.5330    1.3060   17.5390 C   0  0  0  0  0  0  0  0  0  0  0  0
   11.9335    3.7819   23.3891 C   0  0  0  0  0  0  0  0  0  0  0  0
   13.9833    2.9356   24.1227 C   0  0  0  0  0  0  0  0  0  0  0  0
    7.2400   -0.0390   18.2610 C   0  0  0  0  0  0  0  0  0  0  0  0
   13.4680    5.1344   24.3807 C   0  0  0  0  0  0  0  0  0  0  0  0
   12.3850    1.3610   23.0530 C   0  0  0  0  0  0  0  0  0  0  0  0
   12.7664    2.6894   23.5206 C   0  0  0  0  0  0  0  0  0  0  0  0
    5.6260    0.7590   19.8690 C   0  0  0  0  0  0  0  0  0  0  0  0
   10.6720   -0.2500   22.5660 C   0  0  0  0  0  0  0  0  0  0  0  0
    6.7930    0.0210   19.5790 C   0  0  0  0  0  0  0  0  0  0  0  0
   12.9770   -0.7640   22.1810 C   0  0  0  0  0  0  0  0  0  0  0  0
    8.6020    0.1230   21.2070 C   0  0  0  0  0  0  0  0  0  0  0  0
    5.0980    0.9060   21.2740 C   0  0  0  0  0  0  0  0  0  0  0  0
    9.2100   -0.5900   22.3990 C   0  0  0  0  0  0  0  0  0  0  0  0
    6.6320    0.5940   17.2520 N   0  0  0  0  0  0  0  0  0  0  0  0
   12.2535    5.0233   23.8095 N   0  0  0  0  0  0  0  0  0  0  0  0
   14.3683    4.1502   24.5662 N   0  0  0  0  0  0  0  0  0  0  0  0
    7.5630   -0.5230   20.6330 N   0  0  0  0  0  0  0  0  0  0  0  0
    9.0150    1.2120   20.8220 O   0  0  0  0  0  0  0  0  0  0  0  0
   14.1940   -1.9100   21.6990 Cl  0  0  0  0  0  0  0  0  0  0  0  0
    4.0894    1.9955   18.9731 H   0  0  0  0  0  0  0  0  0  0  0  0
   10.2869    1.6872   23.4130 H   0  0  0  0  0  0  0  0  0  0  0  0
   14.4085    0.7689   22.6365 H   0  0  0  0  0  0  0  0  0  0  0  0
   11.3634   -2.1298   21.7910 H   0  0  0  0  0  0  0  0  0  0  0  0
    5.0712    1.8129   16.6995 H   0  0  0  0  0  0  0  0  0  0  0  0
   10.9518    3.6979   22.9325 H   0  0  0  0  0  0  0  0  0  0  0  0
   14.7127    2.1456   24.2761 H   0  0  0  0  0  0  0  0  0  0  0  0
    8.1159   -0.6122   17.9919 H   0  0  0  0  0  0  0  0  0  0  0  0
   13.7514    6.1206   24.7275 H   0  0  0  0  0  0  0  0  0  0  0  0
    4.4456    1.7840   21.3446 H   0  0  0  0  0  0  0  0  0  0  0  0
    4.5263    0.0203   21.5772 H   0  0  0  0  0  0  0  0  0  0  0  0
    5.9169    1.0197   21.9952 H   0  0  0  0  0  0  0  0  0  0  0  0
    9.0901   -1.6664   22.2639 H   0  0  0  0  0  0  0  0  0  0  0  0
    8.6579   -0.3097   23.2977 H   0  0  0  0  0  0  0  0  0  0  0  0
    7.3129   -1.4300   20.9567 H   0  0  0  0  0  0  0  0  0  0  0  0
  1  5  2  0  0  0  0
  1 12  1  0  0  0  0
  2 10  1  0  0  0  0
  2 13  2  0  0  0  0
  3 10  2  0  0  0  0
  3 15  1  0  0  0  0
  4 13  1  0  0  0  0
  4 15  2  0  0  0  0
  5 19  1  0  0  0  0
  6 11  1  0  0  0  0
  6 20  2  0  0  0  0
  7 11  2  0  0  0  0
  7 21  1  0  0  0  0
  8 14  1  0  0  0  0
  8 19  2  0  0  0  0
  9 20  1  0  0  0  0
  9 21  2  0  0  0  0
 10 11  1  0  0  0  0
 12 14  2  0  0  0  0
 12 17  1  0  0  0  0
 13 18  1  0  0  0  0
 14 22  1  0  0  0  0
 15 24  1  0  0  0  0
 16 18  1  0  0  0  0
 16 22  1  0  0  0  0
 16 23  2  0  0  0  0
  1 25  1  0  0  0  0
  2 26  1  0  0  0  0
  3 27  1  0  0  0  0
  4 28  1  0  0  0  0
  5 29  1  0  0  0  0
  6 30  1  0  0  0  0
  7 31  1  0  0  0  0
  8 32  1  0  0  0  0
  9 33  1  0  0  0  0
 17 34  1  0  0  0  0
 17 35  1  0  0  0  0
 17 36  1  0  0  0  0
 18 37  1  0  0  0  0
 18 38  1  0  0  0  0
 22 39  1  0  0  0  0
M  END
> <BB_SMILES>
OB(O)c1cncnc1

> <scaffold_SMILES>
Cc1ccncc1NC(=O)Cc1cc(Cl)cc(Br)c1

$$$$
EN300-152536
  -OEChem-07272002233D

 41 43  0     0  0  0  0  0  0999 V2000
    5.0000    1.4070   18.8080 C   0  0  0  0  0  0  0  0  0  0  0  0
   12.5730    3.2825   24.7419 C   0  0  0  0  0  0  0  0  0  0  0  0
   11.0490    1.0010   23.0460 C   0  0  0  0  0  0  0  0  0  0  0  0
   13.3680    0.4840   22.6240 C   0  0  0  0  0  0  0  0  0  0  0  0
   11.6520   -1.1420   22.1450 C   0  0  0  0  0  0  0  0  0  0  0  0
    5.5330    1.3060   17.5390 C   0  0  0  0  0  0  0  0  0  0  0  0
   13.1489    4.5596   24.6042 C   0  0  0  0  0  0  0  0  0  0  0  0
    7.2400   -0.0390   18.2610 C   0  0  0  0  0  0  0  0  0  0  0  0
   12.3850    1.3610   23.0530 C   0  0  0  0  0  0  0  0  0  0  0  0
    5.6260    0.7590   19.8690 C   0  0  0  0  0  0  0  0  0  0  0  0
   10.6720   -0.2500   22.5660 C   0  0  0  0  0  0  0  0  0  0  0  0
    6.7930    0.0210   19.5790 C   0  0  0  0  0  0  0  0  0  0  0  0
   12.9770   -0.7640   22.1810 C   0  0  0  0  0  0  0  0  0  0  0  0
   12.7645    2.6858   23.5197 C   0  0  0  0  0  0  0  0  0  0  0  0
    8.6020    0.1230   21.2070 C   0  0  0  0  0  0  0  0  0  0  0  0
    5.0980    0.9060   21.2740 C   0  0  0  0  0  0  0  0  0  0  0  0
   13.8475    3.4554   21.3821 C   0  0  0  0  0  0  0  0  0  0  0  0
    9.2100   -0.5900   22.3990 C   0  0  0  0  0  0  0  0  0  0  0  0
    6.6320    0.5940   17.2520 N   0  0  0  0  0  0  0  0  0  0  0  0
   13.6675    4.7632   23.3903 N   0  0  0  0  0  0  0  0  0  0  0  0
   13.4183    3.6060   22.7541 N   0  0  0  0  0  0  0  0  0  0  0  0
    7.5630   -0.5230   20.6330 N   0  0  0  0  0  0  0  0  0  0  0  0
    9.0150    1.2120   20.8220 O   0  0  0  0  0  0  0  0  0  0  0  0
   14.1940   -1.9100   21.6990 Cl  0  0  0  0  0  0  0  0  0  0  0  0
    4.0894    1.9955   18.9731 H   0  0  0  0  0  0  0  0  0  0  0  0
   12.0878    2.8595   25.6100 H   0  0  0  0  0  0  0  0  0  0  0  0
   10.2872    1.6875   23.4133 H   0  0  0  0  0  0  0  0  0  0  0  0
   14.4086    0.7688   22.6369 H   0  0  0  0  0  0  0  0  0  0  0  0
   11.3634   -2.1302   21.7918 H   0  0  0  0  0  0  0  0  0  0  0  0
    5.0712    1.8129   16.6995 H   0  0  0  0  0  0  0  0  0  0  0  0
   13.2122    5.3503   25.3379 H   0  0  0  0  0  0  0  0  0  0  0  0
    8.1159   -0.6122   17.9919 H   0  0  0  0  0  0  0  0  0  0  0  0
    4.4460    1.7843   21.3447 H   0  0  0  0  0  0  0  0  0  0  0  0
    4.5259    0.0205   21.5771 H   0  0  0  0  0  0  0  0  0  0  0  0
    5.9169    1.0193   21.9952 H   0  0  0  0  0  0  0  0  0  0  0  0
   13.0351    3.7968   20.7352 H   0  0  0  0  0  0  0  0  0  0  0  0
   14.7472    4.0540   21.2143 H   0  0  0  0  0  0  0  0  0  0  0  0
   14.0759    2.4037   21.1883 H   0  0  0  0  0  0  0  0  0  0  0  0
    9.0901   -1.6664   22.2639 H   0  0  0  0  0  0  0  0  0  0  0  0
    8.6579   -0.3097   23.2977 H   0  0  0  0  0  0  0  0  0  0  0  0
    7.3129   -1.4300   20.9567 H   0  0  0  0  0  0  0  0  0  0  0  0
  1  6  2  0  0  0  0
  1 10  1  0  0  0  0
  2  7  1  0  0  0  0
  2 14  2  0  0  0  0
  3  9  1  0  0  0  0
  3 11  2  0  0  0  0
  4  9  2  0  0  0  0
  4 13  1  0  0  0  0
  5 11  1  0  0  0  0
  5 13  2  0  0  0  0
  6 19  1  0  0  0  0
  7 20  2  0  0  0  0
  8 12  1  0  0  0  0
  8 19  2  0  0  0  0
  9 14  1  0  0  0  0
 10 12  2  0  0  0  0
 10 16  1  0  0  0  0
 11 18  1  0  0  0  0
 12 22  1  0  0  0  0
 13 24  1  0  0  0  0
 14 21  1  0  0  0  0
 15 18  1  0  0  0  0
 15 22  1  0  0  0  0
 15 23  2  0  0  0  0
 17 21  1  0  0  0  0
 20 21  1  0  0  0  0
  1 25  1  0  0  0  0
  2 26  1  0  0  0  0
  3 27  1  0  0  0  0
  4 28  1  0  0  0  0
  5 29  1  0  0  0  0
  6 30  1  0  0  0  0
  7 31  1  0  0  0  0
  8 32  1  0  0  0  0
 16 33  1  0  0  0  0
 16 34  1  0  0  0  0
 16 35  1  0  0  0  0
 17 36  1  0  0  0  0
 17 37  1  0  0  0  0
 17 38  1  0  0  0  0
 18 39  1  0  0  0  0
 18 40  1  0  0  0  0
 22 41  1  0  0  0  0
M  END
> <BB_SMILES>
Cn1nccc1B1OC(C)(C)C(C)(C)O1

> <scaffold_SMILES>
Cc1ccncc1NC(=O)Cc1cc(Cl)cc(Br)c1

$$$$
EN300-135148
  -OEChem-07272002233D

 43 45  0     0  0  0  0  0  0999 V2000
   13.0529    2.8755   24.8684 C   0  0  0  0  0  0  0  0  0  0  0  0
    5.0000    1.4070   18.8080 C   0  0  0  0  0  0  0  0  0  0  0  0
   11.0490    1.0010   23.0460 C   0  0  0  0  0  0  0  0  0  0  0  0
   13.3680    0.4840   22.6240 C   0  0  0  0  0  0  0  0  0  0  0  0
   11.6520   -1.1420   22.1450 C   0  0  0  0  0  0  0  0  0  0  0  0
   13.4127    4.1468   25.2855 C   0  0  0  0  0  0  0  0  0  0  0  0
    5.5330    1.3060   17.5390 C   0  0  0  0  0  0  0  0  0  0  0  0
   13.2160    4.9969   23.1602 C   0  0  0  0  0  0  0  0  0  0  0  0
    7.2400   -0.0390   18.2610 C   0  0  0  0  0  0  0  0  0  0  0  0
   12.7664    2.6894   23.5206 C   0  0  0  0  0  0  0  0  0  0  0  0
   12.3850    1.3610   23.0530 C   0  0  0  0  0  0  0  0  0  0  0  0
    5.6260    0.7590   19.8690 C   0  0  0  0  0  0  0  0  0  0  0  0
   10.6720   -0.2500   22.5660 C   0  0  0  0  0  0  0  0  0  0  0  0
   12.8472    3.7653   22.6434 C   0  0  0  0  0  0  0  0  0  0  0  0
    6.7930    0.0210   19.5790 C   0  0  0  0  0  0  0  0  0  0  0  0
   12.9770   -0.7640   22.1810 C   0  0  0  0  0  0  0  0  0  0  0  0
    8.6020    0.1230   21.2070 C   0  0  0  0  0  0  0  0  0  0  0  0
    5.0980    0.9060   21.2740 C   0  0  0  0  0  0  0  0  0  0  0  0
   12.5537    3.6347   21.1876 C   0  0  0  0  0  0  0  0  0  0  0  0
    9.2100   -0.5900   22.3990 C   0  0  0  0  0  0  0  0  0  0  0  0
   13.5020    5.2161   24.4632 N   0  0  0  0  0  0  0  0  0  0  0  0
    6.6320    0.5940   17.2520 N   0  0  0  0  0  0  0  0  0  0  0  0
    7.5630   -0.5230   20.6330 N   0  0  0  0  0  0  0  0  0  0  0  0
    9.0150    1.2120   20.8220 O   0  0  0  0  0  0  0  0  0  0  0  0
   14.1940   -1.9100   21.6990 Cl  0  0  0  0  0  0  0  0  0  0  0  0
   13.0009    2.0612   25.5842 H   0  0  0  0  0  0  0  0  0  0  0  0
    4.0894    1.9955   18.9731 H   0  0  0  0  0  0  0  0  0  0  0  0
   10.2869    1.6872   23.4130 H   0  0  0  0  0  0  0  0  0  0  0  0
   14.4085    0.7689   22.6365 H   0  0  0  0  0  0  0  0  0  0  0  0
   11.3634   -2.1298   21.7910 H   0  0  0  0  0  0  0  0  0  0  0  0
   13.6453    4.3448   26.3266 H   0  0  0  0  0  0  0  0  0  0  0  0
    5.0712    1.8129   16.6995 H   0  0  0  0  0  0  0  0  0  0  0  0
   13.2968    5.8737   22.5250 H   0  0  0  0  0  0  0  0  0  0  0  0
    8.1159   -0.6122   17.9919 H   0  0  0  0  0  0  0  0  0  0  0  0
    4.4456    1.7840   21.3446 H   0  0  0  0  0  0  0  0  0  0  0  0
    4.5263    0.0203   21.5772 H   0  0  0  0  0  0  0  0  0  0  0  0
    5.9169    1.0197   21.9952 H   0  0  0  0  0  0  0  0  0  0  0  0
   13.4665    3.3805   20.6347 H   0  0  0  0  0  0  0  0  0  0  0  0
   11.8051    2.8538   20.9999 H   0  0  0  0  0  0  0  0  0  0  0  0
   12.1474    4.5686   20.7772 H   0  0  0  0  0  0  0  0  0  0  0  0
    9.0901   -1.6664   22.2639 H   0  0  0  0  0  0  0  0  0  0  0  0
    8.6579   -0.3097   23.2977 H   0  0  0  0  0  0  0  0  0  0  0  0
    7.3129   -1.4300   20.9567 H   0  0  0  0  0  0  0  0  0  0  0  0
  1  6  2  0  0  0  0
  1 10  1  0  0  0  0
  2  7  2  0  0  0  0
  2 12  1  0  0  0  0
  3 11  1  0  0  0  0
  3 13  2  0  0  0  0
  4 11  2  0  0  0  0
  4 16  1  0  0  0  0
  5 13  1  0  0  0  0
  5 16  2  0  0  0  0
  6 21  1  0  0  0  0
  7 22  1  0  0  0  0
  8 14  1  0  0  0  0
  8 21  2  0  0  0  0
  9 15  1  0  0  0  0
  9 22  2  0  0  0  0
 10 11  1  0  0  0  0
 10 14  2  0  0  0  0
 12 15  2  0  0  0  0
 12 18  1  0  0  0  0
 13 20  1  0  0  0  0
 14 19  1  0  0  0  0
 15 23  1  0  0  0  0
 16 25  1  0  0  0  0
 17 20  1  0  0  0  0
 17 23  1  0  0  0  0
 17 24  2  0  0  0  0
  1 26  1  0  0  0  0
  2 27  1  0  0  0  0
  3 28  1  0  0  0  0
  4 29  1  0  0  0  0
  5 30  1  0  0  0  0
  6 31  1  0  0  0  0
  7 32  1  0  0  0  0
  8 33  1  0  0  0  0
  9 34  1  0  0  0  0
 18 35  1  0  0  0  0
 18 36  1  0  0  0  0
 18 37  1  0  0  0  0
 19 38  1  0  0  0  0
 19 39  1  0  0  0  0
 19 40  1  0  0  0  0
 20 41  1  0  0  0  0
 20 42  1  0  0  0  0
 23 43  1  0  0  0  0
M  END
> <BB_SMILES>
Cc1cnccc1B1OC(C)(C)C(C)(C)O1

> <scaffold_SMILES>
Cc1ccncc1NC(=O)Cc1cc(Cl)cc(Br)c1

$$$$
EN300-157477
  -OEChem-07272002233D

 32 33  0     0  0  0  0  0  0999 V2000
    5.0000    1.4070   18.8080 C   0  0  0  0  0  0  0  0  0  0  0  0
   11.0490    1.0010   23.0460 C   0  0  0  0  0  0  0  0  0  0  0  0
   11.6520   -1.1420   22.1450 C   0  0  0  0  0  0  0  0  0  0  0  0
   13.3680    0.4840   22.6240 C   0  0  0  0  0  0  0  0  0  0  0  0
    5.5330    1.3060   17.5390 C   0  0  0  0  0  0  0  0  0  0  0  0
    7.2400   -0.0390   18.2610 C   0  0  0  0  0  0  0  0  0  0  0  0
    5.6260    0.7590   19.8690 C   0  0  0  0  0  0  0  0  0  0  0  0
   10.6720   -0.2500   22.5660 C   0  0  0  0  0  0  0  0  0  0  0  0
    6.7930    0.0210   19.5790 C   0  0  0  0  0  0  0  0  0  0  0  0
   12.3850    1.3610   23.0530 C   0  0  0  0  0  0  0  0  0  0  0  0
   12.9770   -0.7640   22.1810 C   0  0  0  0  0  0  0  0  0  0  0  0
    8.6020    0.1230   21.2070 C   0  0  0  0  0  0  0  0  0  0  0  0
    5.0980    0.9060   21.2740 C   0  0  0  0  0  0  0  0  0  0  0  0
    9.2100   -0.5900   22.3990 C   0  0  0  0  0  0  0  0  0  0  0  0
    6.6320    0.5940   17.2520 N   0  0  0  0  0  0  0  0  0  0  0  0
    7.5630   -0.5230   20.6330 N   0  0  0  0  0  0  0  0  0  0  0  0
    9.0150    1.2120   20.8220 O   0  0  0  0  0  0  0  0  0  0  0  0
   12.7446    2.6111   23.4933 O   0  0  0  0  0  0  0  0  0  0  0  0
   14.1940   -1.9100   21.6990 Cl  0  0  0  0  0  0  0  0  0  0  0  0
    4.0894    1.9955   18.9731 H   0  0  0  0  0  0  0  0  0  0  0  0
   10.2940    1.6937   23.4123 H   0  0  0  0  0  0  0  0  0  0  0  0
   11.3634   -2.1301   21.7911 H   0  0  0  0  0  0  0  0  0  0  0  0
   14.4053    0.7775   22.6398 H   0  0  0  0  0  0  0  0  0  0  0  0
    5.0712    1.8129   16.6995 H   0  0  0  0  0  0  0  0  0  0  0  0
    8.1159   -0.6122   17.9919 H   0  0  0  0  0  0  0  0  0  0  0  0
    4.7838   -0.0684   21.6655 H   0  0  0  0  0  0  0  0  0  0  0  0
    5.8615    1.3219   21.9428 H   0  0  0  0  0  0  0  0  0  0  0  0
    4.2399    1.5888   21.3054 H   0  0  0  0  0  0  0  0  0  0  0  0
    9.0901   -1.6664   22.2639 H   0  0  0  0  0  0  0  0  0  0  0  0
    8.6578   -0.3097   23.2977 H   0  0  0  0  0  0  0  0  0  0  0  0
    7.3129   -1.4300   20.9567 H   0  0  0  0  0  0  0  0  0  0  0  0
   11.9577    3.1124   23.7604 H   0  0  0  0  0  0  0  0  0  0  0  0
  1  5  2  0  0  0  0
  1  7  1  0  0  0  0
  2  8  1  0  0  0  0
  2 10  2  0  0  0  0
  3  8  2  0  0  0  0
  3 11  1  0  0  0  0
  4 10  1  0  0  0  0
  4 11  2  0  0  0  0
  5 15  1  0  0  0  0
  6  9  1  0  0  0  0
  6 15  2  0  0  0  0
  7  9  2  0  0  0  0
  7 13  1  0  0  0  0
  8 14  1  0  0  0  0
  9 16  1  0  0  0  0
 10 18  1  0  0  0  0
 11 19  1  0  0  0  0
 12 14  1  0  0  0  0
 12 16  1  0  0  0  0
 12 17  2  0  0  0  0
  1 20  1  0  0  0  0
  2 21  1  0  0  0  0
  3 22  1  0  0  0  0
  4 23  1  0  0  0  0
  5 24  1  0  0  0  0
  6 25  1  0  0  0  0
 13 26  1  0  0  0  0
 13 27  1  0  0  0  0
 13 28  1  0  0  0  0
 14 29  1  0  0  0  0
 14 30  1  0  0  0  0
 16 31  1  0  0  0  0
 18 32  1  0  0  0  0
M  END
> <BB_SMILES>
O[B-](O)(O)c1cnccn1

> <scaffold_SMILES>
Cc1ccncc1NC(=O)Cc1cc(Cl)cc(Br)c1

$$$$
EN300-172191
  -OEChem-07272002233D

 41 43  0     0  0  0  0  0  0999 V2000
    5.0000    1.4070   18.8080 C   0  0  0  0  0  0  0  0  0  0  0  0
   11.0490    1.0010   23.0460 C   0  0  0  0  0  0  0  0  0  0  0  0
   13.3680    0.4840   22.6240 C   0  0  0  0  0  0  0  0  0  0  0  0
   11.6520   -1.1420   22.1450 C   0  0  0  0  0  0  0  0  0  0  0  0
    5.5330    1.3060   17.5390 C   0  0  0  0  0  0  0  0  0  0  0  0
    7.2400   -0.0390   18.2610 C   0  0  0  0  0  0  0  0  0  0  0  0
   13.4975    4.7346   23.8361 C   0  0  0  0  0  0  0  0  0  0  0  0
   12.3850    1.3610   23.0530 C   0  0  0  0  0  0  0  0  0  0  0  0
    5.6260    0.7590   19.8690 C   0  0  0  0  0  0  0  0  0  0  0  0
   10.6720   -0.2500   22.5660 C   0  0  0  0  0  0  0  0  0  0  0  0
    6.7930    0.0210   19.5790 C   0  0  0  0  0  0  0  0  0  0  0  0
   12.9770   -0.7640   22.1810 C   0  0  0  0  0  0  0  0  0  0  0  0
   13.4170    3.7086   22.8757 C   0  0  0  0  0  0  0  0  0  0  0  0
   12.7645    2.6858   23.5197 C   0  0  0  0  0  0  0  0  0  0  0  0
    8.6020    0.1230   21.2070 C   0  0  0  0  0  0  0  0  0  0  0  0
    5.0980    0.9060   21.2740 C   0  0  0  0  0  0  0  0  0  0  0  0
   11.8306    2.4369   25.8437 C   0  0  0  0  0  0  0  0  0  0  0  0
    9.2100   -0.5900   22.3990 C   0  0  0  0  0  0  0  0  0  0  0  0
    6.6320    0.5940   17.2520 N   0  0  0  0  0  0  0  0  0  0  0  0
   12.9406    4.3948   25.0016 N   0  0  0  0  0  0  0  0  0  0  0  0
   12.5037    3.1438   24.7777 N   0  0  0  0  0  0  0  0  0  0  0  0
    7.5630   -0.5230   20.6330 N   0  0  0  0  0  0  0  0  0  0  0  0
    9.0150    1.2120   20.8220 O   0  0  0  0  0  0  0  0  0  0  0  0
   14.1940   -1.9100   21.6990 Cl  0  0  0  0  0  0  0  0  0  0  0  0
   14.0118    3.7776   21.2930 Cl  0  0  0  0  0  0  0  0  0  0  0  0
    4.0894    1.9955   18.9731 H   0  0  0  0  0  0  0  0  0  0  0  0
   10.2872    1.6875   23.4133 H   0  0  0  0  0  0  0  0  0  0  0  0
   14.4086    0.7688   22.6369 H   0  0  0  0  0  0  0  0  0  0  0  0
   11.3634   -2.1302   21.7918 H   0  0  0  0  0  0  0  0  0  0  0  0
    5.0712    1.8129   16.6995 H   0  0  0  0  0  0  0  0  0  0  0  0
    8.1159   -0.6122   17.9919 H   0  0  0  0  0  0  0  0  0  0  0  0
   13.9381    5.7174   23.7398 H   0  0  0  0  0  0  0  0  0  0  0  0
    4.4460    1.7843   21.3447 H   0  0  0  0  0  0  0  0  0  0  0  0
    4.5259    0.0205   21.5771 H   0  0  0  0  0  0  0  0  0  0  0  0
    5.9169    1.0193   21.9952 H   0  0  0  0  0  0  0  0  0  0  0  0
   12.5862    1.8951   26.4188 H   0  0  0  0  0  0  0  0  0  0  0  0
   11.3060    3.1537   26.4816 H   0  0  0  0  0  0  0  0  0  0  0  0
   11.1043    1.7414   25.4140 H   0  0  0  0  0  0  0  0  0  0  0  0
    9.0901   -1.6664   22.2639 H   0  0  0  0  0  0  0  0  0  0  0  0
    8.6579   -0.3097   23.2977 H   0  0  0  0  0  0  0  0  0  0  0  0
    7.3129   -1.4300   20.9567 H   0  0  0  0  0  0  0  0  0  0  0  0
  1  5  2  0  0  0  0
  1  9  1  0  0  0  0
  2  8  1  0  0  0  0
  2 10  2  0  0  0  0
  3  8  2  0  0  0  0
  3 12  1  0  0  0  0
  4 10  1  0  0  0  0
  4 12  2  0  0  0  0
  5 19  1  0  0  0  0
  6 11  1  0  0  0  0
  6 19  2  0  0  0  0
  7 13  1  0  0  0  0
  7 20  2  0  0  0  0
  8 14  1  0  0  0  0
  9 11  2  0  0  0  0
  9 16  1  0  0  0  0
 10 18  1  0  0  0  0
 11 22  1  0  0  0  0
 12 24  1  0  0  0  0
 13 14  2  0  0  0  0
 13 25  1  0  0  0  0
 14 21  1  0  0  0  0
 15 18  1  0  0  0  0
 15 22  1  0  0  0  0
 15 23  2  0  0  0  0
 17 21  1  0  0  0  0
 20 21  1  0  0  0  0
  1 26  1  0  0  0  0
  2 27  1  0  0  0  0
  3 28  1  0  0  0  0
  4 29  1  0  0  0  0
  5 30  1  0  0  0  0
  6 31  1  0  0  0  0
  7 32  1  0  0  0  0
 16 33  1  0  0  0  0
 16 34  1  0  0  0  0
 16 35  1  0  0  0  0
 17 36  1  0  0  0  0
 17 37  1  0  0  0  0
 17 38  1  0  0  0  0
 18 39  1  0  0  0  0
 18 40  1  0  0  0  0
 22 41  1  0  0  0  0
M  END
> <BB_SMILES>
Cn1ncc(Cl)c1B1OC(C)(C)C(C)(C)O1

> <scaffold_SMILES>
Cc1ccncc1NC(=O)Cc1cc(Cl)cc(Br)c1

$$$$
EN300-148395
  -OEChem-07272002233D

 41 43  0     0  0  0  0  0  0999 V2000
   14.0188    3.2478   23.6114 C   0  0  0  0  0  0  0  0  0  0  0  0
   13.9737    4.5772   24.1220 C   0  0  0  0  0  0  0  0  0  0  0  0
    5.0000    1.4070   18.8080 C   0  0  0  0  0  0  0  0  0  0  0  0
   11.0490    1.0010   23.0460 C   0  0  0  0  0  0  0  0  0  0  0  0
   13.3680    0.4840   22.6240 C   0  0  0  0  0  0  0  0  0  0  0  0
   11.6520   -1.1420   22.1450 C   0  0  0  0  0  0  0  0  0  0  0  0
    5.5330    1.3060   17.5390 C   0  0  0  0  0  0  0  0  0  0  0  0
    7.2400   -0.0390   18.2610 C   0  0  0  0  0  0  0  0  0  0  0  0
   12.3850    1.3610   23.0530 C   0  0  0  0  0  0  0  0  0  0  0  0
    5.6260    0.7590   19.8690 C   0  0  0  0  0  0  0  0  0  0  0  0
   10.6720   -0.2500   22.5660 C   0  0  0  0  0  0  0  0  0  0  0  0
    6.7930    0.0210   19.5790 C   0  0  0  0  0  0  0  0  0  0  0  0
   12.9770   -0.7640   22.1810 C   0  0  0  0  0  0  0  0  0  0  0  0
   12.7645    2.6859   23.5197 C   0  0  0  0  0  0  0  0  0  0  0  0
   12.6864    4.9808   24.4010 C   0  0  0  0  0  0  0  0  0  0  0  0
    8.6020    0.1230   21.2070 C   0  0  0  0  0  0  0  0  0  0  0  0
    5.0980    0.9060   21.2740 C   0  0  0  0  0  0  0  0  0  0  0  0
    9.2100   -0.5900   22.3990 C   0  0  0  0  0  0  0  0  0  0  0  0
   12.2248    6.2787   24.9394 C   0  0  0  0  0  0  0  0  0  0  0  0
    6.6320    0.5940   17.2520 N   0  0  0  0  0  0  0  0  0  0  0  0
    7.5630   -0.5230   20.6330 N   0  0  0  0  0  0  0  0  0  0  0  0
    9.0150    1.2120   20.8220 O   0  0  0  0  0  0  0  0  0  0  0  0
   13.2336    7.1750   25.1819 F   0  0  0  0  0  0  0  0  0  0  0  0
   11.3584    6.9496   24.1156 F   0  0  0  0  0  0  0  0  0  0  0  0
   11.5611    6.1605   26.1318 F   0  0  0  0  0  0  0  0  0  0  0  0
   11.5394    3.7594   24.0478 S   0  0  0  0  0  0  0  0  0  0  0  0
   14.1940   -1.9100   21.6990 Cl  0  0  0  0  0  0  0  0  0  0  0  0
   14.9301    2.7359   23.3280 H   0  0  0  0  0  0  0  0  0  0  0  0
   14.8441    5.2026   24.2754 H   0  0  0  0  0  0  0  0  0  0  0  0
    4.0894    1.9955   18.9731 H   0  0  0  0  0  0  0  0  0  0  0  0
   10.2872    1.6875   23.4133 H   0  0  0  0  0  0  0  0  0  0  0  0
   14.4086    0.7688   22.6369 H   0  0  0  0  0  0  0  0  0  0  0  0
   11.3634   -2.1302   21.7918 H   0  0  0  0  0  0  0  0  0  0  0  0
    5.0712    1.8129   16.6995 H   0  0  0  0  0  0  0  0  0  0  0  0
    8.1159   -0.6122   17.9919 H   0  0  0  0  0  0  0  0  0  0  0  0
    4.4460    1.7843   21.3447 H   0  0  0  0  0  0  0  0  0  0  0  0
    4.5259    0.0205   21.5771 H   0  0  0  0  0  0  0  0  0  0  0  0
    5.9169    1.0193   21.9952 H   0  0  0  0  0  0  0  0  0  0  0  0
    9.0901   -1.6664   22.2639 H   0  0  0  0  0  0  0  0  0  0  0  0
    8.6579   -0.3097   23.2977 H   0  0  0  0  0  0  0  0  0  0  0  0
    7.3129   -1.4300   20.9567 H   0  0  0  0  0  0  0  0  0  0  0  0
  1  2  1  0  0  0  0
  1 14  2  0  0  0  0
  2 15  2  0  0  0  0
  3  7  2  0  0  0  0
  3 10  1  0  0  0  0
  4  9  1  0  0  0  0
  4 11  2  0  0  0  0
  5  9  2  0  0  0  0
  5 13  1  0  0  0  0
  6 11  1  0  0  0  0
  6 13  2  0  0  0  0
  7 20  1  0  0  0  0
  8 12  1  0  0  0  0
  8 20  2  0  0  0  0
  9 14  1  0  0  0  0
 10 12  2  0  0  0  0
 10 17  1  0  0  0  0
 11 18  1  0  0  0  0
 12 21  1  0  0  0  0
 13 27  1  0  0  0  0
 14 26  1  0  0  0  0
 15 19  1  0  0  0  0
 15 26  1  0  0  0  0
 16 18  1  0  0  0  0
 16 21  1  0  0  0  0
 16 22  2  0  0  0  0
 19 23  1  0  0  0  0
 19 24  1  0  0  0  0
 19 25  1  0  0  0  0
  1 28  1  0  0  0  0
  2 29  1  0  0  0  0
  3 30  1  0  0  0  0
  4 31  1  0  0  0  0
  5 32  1  0  0  0  0
  6 33  1  0  0  0  0
  7 34  1  0  0  0  0
  8 35  1  0  0  0  0
 17 36  1  0  0  0  0
 17 37  1  0  0  0  0
 17 38  1  0  0  0  0
 18 39  1  0  0  0  0
 18 40  1  0  0  0  0
 21 41  1  0  0  0  0
M  END
> <BB_SMILES>
OB(O)c1ccc(C(F)(F)F)s1

> <scaffold_SMILES>
Cc1ccncc1NC(=O)Cc1cc(Cl)cc(Br)c1

$$$$
EN300-183836
  -OEChem-07272002233D

 44 46  0     1  0  0  0  0  0999 V2000
    5.0000    1.4070   18.8080 C   0  0  0  0  0  0  0  0  0  0  0  0
   11.0490    1.0010   23.0460 C   0  0  0  0  0  0  0  0  0  0  0  0
   13.3680    0.4840   22.6240 C   0  0  0  0  0  0  0  0  0  0  0  0
   11.6520   -1.1420   22.1450 C   0  0  0  0  0  0  0  0  0  0  0  0
    5.5330    1.3060   17.5390 C   0  0  0  0  0  0  0  0  0  0  0  0
    7.2400   -0.0390   18.2610 C   0  0  0  0  0  0  0  0  0  0  0  0
   12.3850    1.3610   23.0530 C   0  0  0  0  0  0  0  0  0  0  0  0
    5.6260    0.7590   19.8690 C   0  0  0  0  0  0  0  0  0  0  0  0
   10.6720   -0.2500   22.5660 C   0  0  0  0  0  0  0  0  0  0  0  0
    6.7930    0.0210   19.5790 C   0  0  0  0  0  0  0  0  0  0  0  0
   12.9770   -0.7640   22.1810 C   0  0  0  0  0  0  0  0  0  0  0  0
    8.6020    0.1230   21.2070 C   0  0  0  0  0  0  0  0  0  0  0  0
   12.3624    3.1361   24.9613 C   0  0  0  0  0  0  0  0  0  0  0  0
   12.5985    4.6319   25.0017 C   0  0  0  0  0  0  0  0  0  0  0  0
   12.1719    3.8889   22.7207 C   0  0  0  0  0  0  0  0  0  0  0  0
   12.7832    2.7506   23.5408 C   0  0  2  0  0  0  0  0  0  0  0  0
    5.0980    0.9060   21.2740 C   0  0  0  0  0  0  0  0  0  0  0  0
    9.2100   -0.5900   22.3990 C   0  0  0  0  0  0  0  0  0  0  0  0
    6.6320    0.5940   17.2520 N   0  0  0  0  0  0  0  0  0  0  0  0
    7.5630   -0.5230   20.6330 N   0  0  0  0  0  0  0  0  0  0  0  0
   12.2530    5.0905   23.6183 N   0  3  0  0  0  0  0  0  0  0  0  0
    9.0150    1.2120   20.8220 O   0  0  0  0  0  0  0  0  0  0  0  0
   14.1940   -1.9100   21.6990 Cl  0  0  0  0  0  0  0  0  0  0  0  0
    4.0894    1.9955   18.9731 H   0  0  0  0  0  0  0  0  0  0  0  0
   10.2922    1.6915   23.4141 H   0  0  0  0  0  0  0  0  0  0  0  0
   14.4065    0.7745   22.6386 H   0  0  0  0  0  0  0  0  0  0  0  0
   11.3638   -2.1301   21.7911 H   0  0  0  0  0  0  0  0  0  0  0  0
    5.0712    1.8129   16.6995 H   0  0  0  0  0  0  0  0  0  0  0  0
    8.1159   -0.6122   17.9919 H   0  0  0  0  0  0  0  0  0  0  0  0
   12.9455    2.6074   25.7222 H   0  0  0  0  0  0  0  0  0  0  0  0
   11.3019    2.9133   25.1374 H   0  0  0  0  0  0  0  0  0  0  0  0
   11.9634    5.1615   25.7161 H   0  0  0  0  0  0  0  0  0  0  0  0
   13.6523    4.8778   25.1651 H   0  0  0  0  0  0  0  0  0  0  0  0
   12.7239    4.1069   21.8018 H   0  0  0  0  0  0  0  0  0  0  0  0
   11.1111    3.7351   22.4940 H   0  0  0  0  0  0  0  0  0  0  0  0
   13.9065    2.8229   23.4594 H   0  0  0  0  0  0  0  0  0  0  0  0
    4.2586    1.6106   21.2925 H   0  0  0  0  0  0  0  0  0  0  0  0
    4.7548   -0.0572   21.6712 H   0  0  0  0  0  0  0  0  0  0  0  0
    5.8772    1.2724   21.9538 H   0  0  0  0  0  0  0  0  0  0  0  0
    9.0902   -1.6664   22.2639 H   0  0  0  0  0  0  0  0  0  0  0  0
    8.6579   -0.3097   23.2977 H   0  0  0  0  0  0  0  0  0  0  0  0
    7.3129   -1.4300   20.9567 H   0  0  0  0  0  0  0  0  0  0  0  0
   11.3555    5.5944   23.6162 H   0  0  0  0  0  0  0  0  0  0  0  0
   12.9608    5.7546   23.2759 H   0  0  0  0  0  0  0  0  0  0  0  0
  1  5  2  0  0  0  0
  1  8  1  0  0  0  0
  2  7  1  0  0  0  0
  2  9  2  0  0  0  0
  3  7  2  0  0  0  0
  3 11  1  0  0  0  0
  4  9  1  0  0  0  0
  4 11  2  0  0  0  0
  5 19  1  0  0  0  0
  6 10  1  0  0  0  0
  6 19  2  0  0  0  0
  7 16  1  1  0  0  0
  8 10  2  0  0  0  0
  8 17  1  0  0  0  0
  9 18  1  0  0  0  0
 10 20  1  0  0  0  0
 11 23  1  0  0  0  0
 12 18  1  0  0  0  0
 12 20  1  0  0  0  0
 12 22  2  0  0  0  0
 13 14  1  0  0  0  0
 13 16  1  0  0  0  0
 14 21  1  0  0  0  0
 15 16  1  0  0  0  0
 15 21  1  0  0  0  0
  1 24  1  0  0  0  0
  2 25  1  0  0  0  0
  3 26  1  0  0  0  0
  4 27  1  0  0  0  0
  5 28  1  0  0  0  0
  6 29  1  0  0  0  0
 13 30  1  0  0  0  0
 13 31  1  0  0  0  0
 14 32  1  0  0  0  0
 14 33  1  0  0  0  0
 15 34  1  0  0  0  0
 15 35  1  0  0  0  0
 16 36  1  0  0  0  0
 17 37  1  0  0  0  0
 17 38  1  0  0  0  0
 17 39  1  0  0  0  0
 18 40  1  0  0  0  0
 18 41  1  0  0  0  0
 20 42  1  0  0  0  0
 21 43  1  0  0  0  0
 21 44  1  0  0  0  0
M  CHG  1  21   1
M  END
> <BB_SMILES>
CC1(C)OB(C2CCNC2)OC1(C)C

> <scaffold_SMILES>
Cc1ccncc1NC(=O)Cc1cc(Cl)cc(Br)c1

$$$$
EN300-183836
  -OEChem-07272002233D

 44 46  0     1  0  0  0  0  0999 V2000
    5.0000    1.4070   18.8080 C   0  0  0  0  0  0  0  0  0  0  0  0
   11.0490    1.0010   23.0460 C   0  0  0  0  0  0  0  0  0  0  0  0
   13.3680    0.4840   22.6240 C   0  0  0  0  0  0  0  0  0  0  0  0
   11.6520   -1.1420   22.1450 C   0  0  0  0  0  0  0  0  0  0  0  0
    5.5330    1.3060   17.5390 C   0  0  0  0  0  0  0  0  0  0  0  0
    7.2400   -0.0390   18.2610 C   0  0  0  0  0  0  0  0  0  0  0  0
   12.3850    1.3610   23.0530 C   0  0  0  0  0  0  0  0  0  0  0  0
    5.6260    0.7590   19.8690 C   0  0  0  0  0  0  0  0  0  0  0  0
   10.6720   -0.2500   22.5660 C   0  0  0  0  0  0  0  0  0  0  0  0
    6.7930    0.0210   19.5790 C   0  0  0  0  0  0  0  0  0  0  0  0
   12.9770   -0.7640   22.1810 C   0  0  0  0  0  0  0  0  0  0  0  0
    8.6020    0.1230   21.2070 C   0  0  0  0  0  0  0  0  0  0  0  0
   12.1558    3.9465   22.8200 C   0  0  0  0  0  0  0  0  0  0  0  0
   12.4758    5.1125   23.7326 C   0  0  0  0  0  0  0  0  0  0  0  0
   12.3919    3.0294   24.9937 C   0  0  0  0  0  0  0  0  0  0  0  0
   12.7832    2.7506   23.5408 C   0  0  1  0  0  0  0  0  0  0  0  0
    5.0980    0.9060   21.2740 C   0  0  0  0  0  0  0  0  0  0  0  0
    9.2100   -0.5900   22.3990 C   0  0  0  0  0  0  0  0  0  0  0  0
    6.6320    0.5940   17.2520 N   0  0  0  0  0  0  0  0  0  0  0  0
    7.5630   -0.5230   20.6330 N   0  0  0  0  0  0  0  0  0  0  0  0
   12.4011    4.5268   25.1090 N   0  3  0  0  0  0  0  0  0  0  0  0
    9.0150    1.2120   20.8220 O   0  0  0  0  0  0  0  0  0  0  0  0
   14.1940   -1.9100   21.6990 Cl  0  0  0  0  0  0  0  0  0  0  0  0
    4.0894    1.9955   18.9731 H   0  0  0  0  0  0  0  0  0  0  0  0
   10.2922    1.6915   23.4141 H   0  0  0  0  0  0  0  0  0  0  0  0
   14.4065    0.7745   22.6386 H   0  0  0  0  0  0  0  0  0  0  0  0
   11.3638   -2.1301   21.7911 H   0  0  0  0  0  0  0  0  0  0  0  0
    5.0712    1.8129   16.6995 H   0  0  0  0  0  0  0  0  0  0  0  0
    8.1159   -0.6122   17.9919 H   0  0  0  0  0  0  0  0  0  0  0  0
   11.0690    3.8271   22.7214 H   0  0  0  0  0  0  0  0  0  0  0  0
   12.5689    4.0854   21.8157 H   0  0  0  0  0  0  0  0  0  0  0  0
   13.4996    5.4739   23.5953 H   0  0  0  0  0  0  0  0  0  0  0  0
   11.7629    5.9378   23.6631 H   0  0  0  0  0  0  0  0  0  0  0  0
   11.3756    2.7001   25.2366 H   0  0  0  0  0  0  0  0  0  0  0  0
   13.1016    2.6230   25.7201 H   0  0  0  0  0  0  0  0  0  0  0  0
   13.9064    2.8222   23.4592 H   0  0  0  0  0  0  0  0  0  0  0  0
    5.9279    1.0065   21.9830 H   0  0  0  0  0  0  0  0  0  0  0  0
    4.4521    1.7880   21.3644 H   0  0  0  0  0  0  0  0  0  0  0  0
    4.4941    0.0370   21.5633 H   0  0  0  0  0  0  0  0  0  0  0  0
    9.0902   -1.6664   22.2639 H   0  0  0  0  0  0  0  0  0  0  0  0
    8.6579   -0.3097   23.2977 H   0  0  0  0  0  0  0  0  0  0  0  0
    7.3129   -1.4300   20.9567 H   0  0  0  0  0  0  0  0  0  0  0  0
   13.2001    4.8442   25.6749 H   0  0  0  0  0  0  0  0  0  0  0  0
   11.5533    4.8489   25.5958 H   0  0  0  0  0  0  0  0  0  0  0  0
  1  5  2  0  0  0  0
  1  8  1  0  0  0  0
  2  7  1  0  0  0  0
  2  9  2  0  0  0  0
  3  7  2  0  0  0  0
  3 11  1  0  0  0  0
  4  9  1  0  0  0  0
  4 11  2  0  0  0  0
  5 19  1  0  0  0  0
  6 10  1  0  0  0  0
  6 19  2  0  0  0  0
  7 16  1  6  0  0  0
  8 10  2  0  0  0  0
  8 17  1  0  0  0  0
  9 18  1  0  0  0  0
 10 20  1  0  0  0  0
 11 23  1  0  0  0  0
 12 18  1  0  0  0  0
 12 20  1  0  0  0  0
 12 22  2  0  0  0  0
 13 14  1  0  0  0  0
 13 16  1  0  0  0  0
 14 21  1  0  0  0  0
 15 16  1  0  0  0  0
 15 21  1  0  0  0  0
  1 24  1  0  0  0  0
  2 25  1  0  0  0  0
  3 26  1  0  0  0  0
  4 27  1  0  0  0  0
  5 28  1  0  0  0  0
  6 29  1  0  0  0  0
 13 30  1  0  0  0  0
 13 31  1  0  0  0  0
 14 32  1  0  0  0  0
 14 33  1  0  0  0  0
 15 34  1  0  0  0  0
 15 35  1  0  0  0  0
 16 36  1  0  0  0  0
 17 37  1  0  0  0  0
 17 38  1  0  0  0  0
 17 39  1  0  0  0  0
 18 40  1  0  0  0  0
 18 41  1  0  0  0  0
 20 42  1  0  0  0  0
 21 43  1  0  0  0  0
 21 44  1  0  0  0  0
M  CHG  1  21   1
M  END
> <BB_SMILES>
CC1(C)OB(C2CCNC2)OC1(C)C

> <scaffold_SMILES>
Cc1ccncc1NC(=O)Cc1cc(Cl)cc(Br)c1

$$$$
EN300-190794
  -OEChem-07272002233D

 40 42  0     0  0  0  0  0  0999 V2000
    5.0000    1.4070   18.8080 C   0  0  0  0  0  0  0  0  0  0  0  0
   11.0490    1.0010   23.0460 C   0  0  0  0  0  0  0  0  0  0  0  0
   13.3680    0.4840   22.6240 C   0  0  0  0  0  0  0  0  0  0  0  0
   11.6520   -1.1420   22.1450 C   0  0  0  0  0  0  0  0  0  0  0  0
    5.5330    1.3060   17.5390 C   0  0  0  0  0  0  0  0  0  0  0  0
   12.5823    3.3128   24.7598 C   0  0  0  0  0  0  0  0  0  0  0  0
    7.2400   -0.0390   18.2610 C   0  0  0  0  0  0  0  0  0  0  0  0
   12.3850    1.3610   23.0530 C   0  0  0  0  0  0  0  0  0  0  0  0
   12.7637    2.6791   23.5184 C   0  0  0  0  0  0  0  0  0  0  0  0
    5.6260    0.7590   19.8690 C   0  0  0  0  0  0  0  0  0  0  0  0
   10.6720   -0.2500   22.5660 C   0  0  0  0  0  0  0  0  0  0  0  0
    6.7930    0.0210   19.5790 C   0  0  0  0  0  0  0  0  0  0  0  0
   12.9770   -0.7640   22.1810 C   0  0  0  0  0  0  0  0  0  0  0  0
   13.4193    3.6176   22.7664 C   0  0  0  0  0  0  0  0  0  0  0  0
    8.6020    0.1230   21.2070 C   0  0  0  0  0  0  0  0  0  0  0  0
    5.0980    0.9060   21.2740 C   0  0  0  0  0  0  0  0  0  0  0  0
   13.9271    3.6556   21.3872 C   0  0  0  0  0  0  0  0  0  0  0  0
    9.2100   -0.5900   22.3990 C   0  0  0  0  0  0  0  0  0  0  0  0
    6.6320    0.5940   17.2520 N   0  0  0  0  0  0  0  0  0  0  0  0
   13.0867    4.5498   24.7765 N   0  0  0  0  0  0  0  0  0  0  0  0
    7.5630   -0.5230   20.6330 N   0  0  0  0  0  0  0  0  0  0  0  0
    9.0150    1.2120   20.8220 O   0  0  0  0  0  0  0  0  0  0  0  0
   13.6178    4.7385   23.5062 O   0  0  0  0  0  0  0  0  0  0  0  0
   14.1940   -1.9100   21.6990 Cl  0  0  0  0  0  0  0  0  0  0  0  0
    4.0894    1.9955   18.9731 H   0  0  0  0  0  0  0  0  0  0  0  0
   10.2867    1.6869   23.4134 H   0  0  0  0  0  0  0  0  0  0  0  0
   14.4087    0.7684   22.6364 H   0  0  0  0  0  0  0  0  0  0  0  0
   11.3634   -2.1302   21.7917 H   0  0  0  0  0  0  0  0  0  0  0  0
    5.0712    1.8129   16.6995 H   0  0  0  0  0  0  0  0  0  0  0  0
   12.1069    2.9331   25.6527 H   0  0  0  0  0  0  0  0  0  0  0  0
    8.1159   -0.6122   17.9919 H   0  0  0  0  0  0  0  0  0  0  0  0
    4.4452    1.7837   21.3445 H   0  0  0  0  0  0  0  0  0  0  0  0
    4.5267    0.0201   21.5774 H   0  0  0  0  0  0  0  0  0  0  0  0
    5.9169    1.0203   21.9951 H   0  0  0  0  0  0  0  0  0  0  0  0
   13.1636    4.0386   20.6870 H   0  0  0  0  0  0  0  0  0  0  0  0
   14.8201    4.2995   21.2864 H   0  0  0  0  0  0  0  0  0  0  0  0
   14.2353    2.6571   21.0259 H   0  0  0  0  0  0  0  0  0  0  0  0
    9.0901   -1.6664   22.2639 H   0  0  0  0  0  0  0  0  0  0  0  0
    8.6579   -0.3097   23.2977 H   0  0  0  0  0  0  0  0  0  0  0  0
    7.3129   -1.4300   20.9567 H   0  0  0  0  0  0  0  0  0  0  0  0
  1  5  2  0  0  0  0
  1 10  1  0  0  0  0
  2  8  1  0  0  0  0
  2 11  2  0  0  0  0
  3  8  2  0  0  0  0
  3 13  1  0  0  0  0
  4 11  1  0  0  0  0
  4 13  2  0  0  0  0
  5 19  1  0  0  0  0
  6  9  1  0  0  0  0
  6 20  2  0  0  0  0
  7 12  1  0  0  0  0
  7 19  2  0  0  0  0
  8  9  1  0  0  0  0
  9 14  2  0  0  0  0
 10 12  2  0  0  0  0
 10 16  1  0  0  0  0
 11 18  1  0  0  0  0
 12 21  1  0  0  0  0
 13 24  1  0  0  0  0
 14 17  1  0  0  0  0
 14 23  1  0  0  0  0
 15 18  1  0  0  0  0
 15 21  1  0  0  0  0
 15 22  2  0  0  0  0
 20 23  1  0  0  0  0
  1 25  1  0  0  0  0
  2 26  1  0  0  0  0
  3 27  1  0  0  0  0
  4 28  1  0  0  0  0
  5 29  1  0  0  0  0
  6 30  1  0  0  0  0
  7 31  1  0  0  0  0
 16 32  1  0  0  0  0
 16 33  1  0  0  0  0
 16 34  1  0  0  0  0
 17 35  1  0  0  0  0
 17 36  1  0  0  0  0
 17 37  1  0  0  0  0
 18 38  1  0  0  0  0
 18 39  1  0  0  0  0
 21 40  1  0  0  0  0
M  END
> <BB_SMILES>
Cc1oncc1B1OC(C)(C)C(C)(C)O1

> <scaffold_SMILES>
Cc1ccncc1NC(=O)Cc1cc(Cl)cc(Br)c1

$$$$
EN300-212615
  -OEChem-07272002233D

 44 46  0     0  0  0  0  0  0999 V2000
    5.0000    1.4070   18.8080 C   0  0  0  0  0  0  0  0  0  0  0  0
   11.0490    1.0010   23.0460 C   0  0  0  0  0  0  0  0  0  0  0  0
   13.3680    0.4840   22.6240 C   0  0  0  0  0  0  0  0  0  0  0  0
   11.6520   -1.1420   22.1450 C   0  0  0  0  0  0  0  0  0  0  0  0
   12.5730    3.2825   24.7419 C   0  0  0  0  0  0  0  0  0  0  0  0
    5.5330    1.3060   17.5390 C   0  0  0  0  0  0  0  0  0  0  0  0
    7.2400   -0.0390   18.2610 C   0  0  0  0  0  0  0  0  0  0  0  0
   12.3850    1.3610   23.0530 C   0  0  0  0  0  0  0  0  0  0  0  0
    5.6260    0.7590   19.8690 C   0  0  0  0  0  0  0  0  0  0  0  0
   10.6720   -0.2500   22.5660 C   0  0  0  0  0  0  0  0  0  0  0  0
    6.7930    0.0210   19.5790 C   0  0  0  0  0  0  0  0  0  0  0  0
   12.9770   -0.7640   22.1810 C   0  0  0  0  0  0  0  0  0  0  0  0
   12.7645    2.6858   23.5197 C   0  0  0  0  0  0  0  0  0  0  0  0
   13.1494    4.5594   24.6044 C   0  0  0  0  0  0  0  0  0  0  0  0
    8.6020    0.1230   21.2070 C   0  0  0  0  0  0  0  0  0  0  0  0
    5.0980    0.9060   21.2740 C   0  0  0  0  0  0  0  0  0  0  0  0
   13.8487    3.4549   21.3826 C   0  0  0  0  0  0  0  0  0  0  0  0
    9.2100   -0.5900   22.3990 C   0  0  0  0  0  0  0  0  0  0  0  0
   13.2250    5.6234   25.6197 C   0  0  0  0  0  0  0  0  0  0  0  0
    6.6320    0.5940   17.2520 N   0  0  0  0  0  0  0  0  0  0  0  0
   13.6683    4.7629   23.3906 N   0  0  0  0  0  0  0  0  0  0  0  0
   13.4187    3.6058   22.7543 N   0  0  0  0  0  0  0  0  0  0  0  0
    7.5630   -0.5230   20.6330 N   0  0  0  0  0  0  0  0  0  0  0  0
    9.0150    1.2120   20.8220 O   0  0  0  0  0  0  0  0  0  0  0  0
   12.6574    5.2956   26.8269 F   0  0  0  0  0  0  0  0  0  0  0  0
   14.5036    6.0094   25.9403 F   0  0  0  0  0  0  0  0  0  0  0  0
   12.5950    6.7822   25.2411 F   0  0  0  0  0  0  0  0  0  0  0  0
   14.1940   -1.9100   21.6990 Cl  0  0  0  0  0  0  0  0  0  0  0  0
    4.0894    1.9955   18.9731 H   0  0  0  0  0  0  0  0  0  0  0  0
   10.2872    1.6875   23.4133 H   0  0  0  0  0  0  0  0  0  0  0  0
   14.4086    0.7688   22.6369 H   0  0  0  0  0  0  0  0  0  0  0  0
   11.3634   -2.1302   21.7918 H   0  0  0  0  0  0  0  0  0  0  0  0
   12.0868    2.8565   25.6084 H   0  0  0  0  0  0  0  0  0  0  0  0
    5.0712    1.8129   16.6995 H   0  0  0  0  0  0  0  0  0  0  0  0
    8.1159   -0.6122   17.9919 H   0  0  0  0  0  0  0  0  0  0  0  0
    4.4460    1.7843   21.3447 H   0  0  0  0  0  0  0  0  0  0  0  0
    4.5259    0.0205   21.5771 H   0  0  0  0  0  0  0  0  0  0  0  0
    5.9169    1.0193   21.9952 H   0  0  0  0  0  0  0  0  0  0  0  0
   13.0367    3.7962   20.7351 H   0  0  0  0  0  0  0  0  0  0  0  0
   14.7484    4.0535   21.2151 H   0  0  0  0  0  0  0  0  0  0  0  0
   14.0771    2.4031   21.1891 H   0  0  0  0  0  0  0  0  0  0  0  0
    9.0901   -1.6664   22.2639 H   0  0  0  0  0  0  0  0  0  0  0  0
    8.6579   -0.3097   23.2977 H   0  0  0  0  0  0  0  0  0  0  0  0
    7.3129   -1.4300   20.9567 H   0  0  0  0  0  0  0  0  0  0  0  0
  1  6  2  0  0  0  0
  1  9  1  0  0  0  0
  2  8  1  0  0  0  0
  2 10  2  0  0  0  0
  3  8  2  0  0  0  0
  3 12  1  0  0  0  0
  4 10  1  0  0  0  0
  4 12  2  0  0  0  0
  5 13  2  0  0  0  0
  5 14  1  0  0  0  0
  6 20  1  0  0  0  0
  7 11  1  0  0  0  0
  7 20  2  0  0  0  0
  8 13  1  0  0  0  0
  9 11  2  0  0  0  0
  9 16  1  0  0  0  0
 10 18  1  0  0  0  0
 11 23  1  0  0  0  0
 12 28  1  0  0  0  0
 13 22  1  0  0  0  0
 14 19  1  0  0  0  0
 14 21  2  0  0  0  0
 15 18  1  0  0  0  0
 15 23  1  0  0  0  0
 15 24  2  0  0  0  0
 17 22  1  0  0  0  0
 19 25  1  0  0  0  0
 19 26  1  0  0  0  0
 19 27  1  0  0  0  0
 21 22  1  0  0  0  0
  1 29  1  0  0  0  0
  2 30  1  0  0  0  0
  3 31  1  0  0  0  0
  4 32  1  0  0  0  0
  5 33  1  0  0  0  0
  6 34  1  0  0  0  0
  7 35  1  0  0  0  0
 16 36  1  0  0  0  0
 16 37  1  0  0  0  0
 16 38  1  0  0  0  0
 17 39  1  0  0  0  0
 17 40  1  0  0  0  0
 17 41  1  0  0  0  0
 18 42  1  0  0  0  0
 18 43  1  0  0  0  0
 23 44  1  0  0  0  0
M  END
> <BB_SMILES>
Cn1nc(C(F)(F)F)cc1B(O)O

> <scaffold_SMILES>
Cc1ccncc1NC(=O)Cc1cc(Cl)cc(Br)c1

$$$$
EN300-122703
  -OEChem-07272002233D

 41 43  0     0  0  0  0  0  0999 V2000
   13.9645    3.3447   23.6535 C   0  0  0  0  0  0  0  0  0  0  0  0
   13.6541    4.6260   24.1683 C   0  0  0  0  0  0  0  0  0  0  0  0
    5.0000    1.4070   18.8080 C   0  0  0  0  0  0  0  0  0  0  0  0
   11.0490    1.0010   23.0460 C   0  0  0  0  0  0  0  0  0  0  0  0
   13.3680    0.4840   22.6240 C   0  0  0  0  0  0  0  0  0  0  0  0
   11.6520   -1.1420   22.1450 C   0  0  0  0  0  0  0  0  0  0  0  0
    5.5330    1.3060   17.5390 C   0  0  0  0  0  0  0  0  0  0  0  0
    7.2400   -0.0390   18.2610 C   0  0  0  0  0  0  0  0  0  0  0  0
   12.3850    1.3610   23.0530 C   0  0  0  0  0  0  0  0  0  0  0  0
    5.6260    0.7590   19.8690 C   0  0  0  0  0  0  0  0  0  0  0  0
   10.6720   -0.2500   22.5660 C   0  0  0  0  0  0  0  0  0  0  0  0
    6.7930    0.0210   19.5790 C   0  0  0  0  0  0  0  0  0  0  0  0
   12.9770   -0.7640   22.1810 C   0  0  0  0  0  0  0  0  0  0  0  0
   12.7645    2.6858   23.5197 C   0  0  0  0  0  0  0  0  0  0  0  0
   12.2865    4.6589   24.3122 C   0  0  0  0  0  0  0  0  0  0  0  0
    8.6020    0.1230   21.2070 C   0  0  0  0  0  0  0  0  0  0  0  0
    5.0980    0.9060   21.2740 C   0  0  0  0  0  0  0  0  0  0  0  0
   11.3507    5.6852   24.7930 C   0  0  0  0  0  0  0  0  0  0  0  0
    9.2100   -0.5900   22.3990 C   0  0  0  0  0  0  0  0  0  0  0  0
    6.6320    0.5940   17.2520 N   0  0  0  0  0  0  0  0  0  0  0  0
    7.5630   -0.5230   20.6330 N   0  0  0  0  0  0  0  0  0  0  0  0
    9.0150    1.2120   20.8220 O   0  0  0  0  0  0  0  0  0  0  0  0
   11.7367    3.4801   23.9189 O   0  0  0  0  0  0  0  0  0  0  0  0
   14.1940   -1.9100   21.6990 Cl  0  0  0  0  0  0  0  0  0  0  0  0
   14.9432    2.9546   23.4122 H   0  0  0  0  0  0  0  0  0  0  0  0
   14.3437    5.4240   24.4038 H   0  0  0  0  0  0  0  0  0  0  0  0
    4.0894    1.9955   18.9731 H   0  0  0  0  0  0  0  0  0  0  0  0
   10.2872    1.6875   23.4133 H   0  0  0  0  0  0  0  0  0  0  0  0
   14.4086    0.7688   22.6369 H   0  0  0  0  0  0  0  0  0  0  0  0
   11.3634   -2.1302   21.7918 H   0  0  0  0  0  0  0  0  0  0  0  0
    5.0712    1.8129   16.6995 H   0  0  0  0  0  0  0  0  0  0  0  0
    8.1159   -0.6122   17.9919 H   0  0  0  0  0  0  0  0  0  0  0  0
    4.4460    1.7843   21.3447 H   0  0  0  0  0  0  0  0  0  0  0  0
    4.5259    0.0205   21.5771 H   0  0  0  0  0  0  0  0  0  0  0  0
    5.9169    1.0193   21.9952 H   0  0  0  0  0  0  0  0  0  0  0  0
   11.0018    6.3316   23.9680 H   0  0  0  0  0  0  0  0  0  0  0  0
   10.4546    5.2464   25.2696 H   0  0  0  0  0  0  0  0  0  0  0  0
   11.8047    6.3425   25.5577 H   0  0  0  0  0  0  0  0  0  0  0  0
    9.0901   -1.6664   22.2639 H   0  0  0  0  0  0  0  0  0  0  0  0
    8.6579   -0.3097   23.2977 H   0  0  0  0  0  0  0  0  0  0  0  0
    7.3129   -1.4300   20.9567 H   0  0  0  0  0  0  0  0  0  0  0  0
  1  2  1  0  0  0  0
  1 14  2  0  0  0  0
  2 15  2  0  0  0  0
  3  7  2  0  0  0  0
  3 10  1  0  0  0  0
  4  9  2  0  0  0  0
  4 11  1  0  0  0  0
  5  9  1  0  0  0  0
  5 13  2  0  0  0  0
  6 11  2  0  0  0  0
  6 13  1  0  0  0  0
  7 20  1  0  0  0  0
  8 12  1  0  0  0  0
  8 20  2  0  0  0  0
  9 14  1  0  0  0  0
 10 12  2  0  0  0  0
 10 17  1  0  0  0  0
 11 19  1  0  0  0  0
 12 21  1  0  0  0  0
 13 24  1  0  0  0  0
 14 23  1  0  0  0  0
 15 18  1  0  0  0  0
 15 23  1  0  0  0  0
 16 19  1  0  0  0  0
 16 21  1  0  0  0  0
 16 22  2  0  0  0  0
  1 25  1  0  0  0  0
  2 26  1  0  0  0  0
  3 27  1  0  0  0  0
  4 28  1  0  0  0  0
  5 29  1  0  0  0  0
  6 30  1  0  0  0  0
  7 31  1  0  0  0  0
  8 32  1  0  0  0  0
 17 33  1  0  0  0  0
 17 34  1  0  0  0  0
 17 35  1  0  0  0  0
 18 36  1  0  0  0  0
 18 37  1  0  0  0  0
 18 38  1  0  0  0  0
 19 39  1  0  0  0  0
 19 40  1  0  0  0  0
 21 41  1  0  0  0  0
M  END
> <BB_SMILES>
Cc1ccc(B(O)O)o1

> <scaffold_SMILES>
Cc1ccncc1NC(=O)Cc1cc(Cl)cc(Br)c1

$$$$
EN300-194952
  -OEChem-07272002233D

 32 33  0     0  0  0  0  0  0999 V2000
    5.0000    1.4070   18.8080 C   0  0  0  0  0  0  0  0  0  0  0  0
   11.0490    1.0010   23.0460 C   0  0  0  0  0  0  0  0  0  0  0  0
   11.6520   -1.1420   22.1450 C   0  0  0  0  0  0  0  0  0  0  0  0
   13.3680    0.4840   22.6240 C   0  0  0  0  0  0  0  0  0  0  0  0
    5.5330    1.3060   17.5390 C   0  0  0  0  0  0  0  0  0  0  0  0
    7.2400   -0.0390   18.2610 C   0  0  0  0  0  0  0  0  0  0  0  0
    5.6260    0.7590   19.8690 C   0  0  0  0  0  0  0  0  0  0  0  0
   10.6720   -0.2500   22.5660 C   0  0  0  0  0  0  0  0  0  0  0  0
    6.7930    0.0210   19.5790 C   0  0  0  0  0  0  0  0  0  0  0  0
   12.3850    1.3610   23.0530 C   0  0  0  0  0  0  0  0  0  0  0  0
   12.9770   -0.7640   22.1810 C   0  0  0  0  0  0  0  0  0  0  0  0
    8.6020    0.1230   21.2070 C   0  0  0  0  0  0  0  0  0  0  0  0
    5.0980    0.9060   21.2740 C   0  0  0  0  0  0  0  0  0  0  0  0
    9.2100   -0.5900   22.3990 C   0  0  0  0  0  0  0  0  0  0  0  0
    6.6320    0.5940   17.2520 N   0  0  0  0  0  0  0  0  0  0  0  0
    7.5630   -0.5230   20.6330 N   0  0  0  0  0  0  0  0  0  0  0  0
    9.0150    1.2120   20.8220 O   0  0  0  0  0  0  0  0  0  0  0  0
   12.7446    2.6111   23.4933 O   0  0  0  0  0  0  0  0  0  0  0  0
   14.1940   -1.9100   21.6990 Cl  0  0  0  0  0  0  0  0  0  0  0  0
    4.0894    1.9955   18.9731 H   0  0  0  0  0  0  0  0  0  0  0  0
   10.2940    1.6937   23.4123 H   0  0  0  0  0  0  0  0  0  0  0  0
   11.3634   -2.1301   21.7911 H   0  0  0  0  0  0  0  0  0  0  0  0
   14.4053    0.7775   22.6398 H   0  0  0  0  0  0  0  0  0  0  0  0
    5.0712    1.8129   16.6995 H   0  0  0  0  0  0  0  0  0  0  0  0
    8.1159   -0.6122   17.9919 H   0  0  0  0  0  0  0  0  0  0  0  0
    4.7838   -0.0684   21.6655 H   0  0  0  0  0  0  0  0  0  0  0  0
    5.8615    1.3219   21.9428 H   0  0  0  0  0  0  0  0  0  0  0  0
    4.2399    1.5888   21.3054 H   0  0  0  0  0  0  0  0  0  0  0  0
    9.0901   -1.6664   22.2639 H   0  0  0  0  0  0  0  0  0  0  0  0
    8.6578   -0.3097   23.2977 H   0  0  0  0  0  0  0  0  0  0  0  0
    7.3129   -1.4300   20.9567 H   0  0  0  0  0  0  0  0  0  0  0  0
   11.9577    3.1124   23.7604 H   0  0  0  0  0  0  0  0  0  0  0  0
  1  5  2  0  0  0  0
  1  7  1  0  0  0  0
  2  8  1  0  0  0  0
  2 10  2  0  0  0  0
  3  8  2  0  0  0  0
  3 11  1  0  0  0  0
  4 10  1  0  0  0  0
  4 11  2  0  0  0  0
  5 15  1  0  0  0  0
  6  9  1  0  0  0  0
  6 15  2  0  0  0  0
  7  9  2  0  0  0  0
  7 13  1  0  0  0  0
  8 14  1  0  0  0  0
  9 16  1  0  0  0  0
 10 18  1  0  0  0  0
 11 19  1  0  0  0  0
 12 14  1  0  0  0  0
 12 16  1  0  0  0  0
 12 17  2  0  0  0  0
  1 20  1  0  0  0  0
  2 21  1  0  0  0  0
  3 22  1  0  0  0  0
  4 23  1  0  0  0  0
  5 24  1  0  0  0  0
  6 25  1  0  0  0  0
 13 26  1  0  0  0  0
 13 27  1  0  0  0  0
 13 28  1  0  0  0  0
 14 29  1  0  0  0  0
 14 30  1  0  0  0  0
 16 31  1  0  0  0  0
 18 32  1  0  0  0  0
M  END
> <BB_SMILES>
O[B-](O)(O)c1cc(F)ccn1

> <scaffold_SMILES>
Cc1ccncc1NC(=O)Cc1cc(Cl)cc(Br)c1

$$$$
EN300-207813
  -OEChem-07272002233D

 40 41  0     0  0  0  0  0  0999 V2000
    5.0000    1.4070   18.8080 C   0  0  0  0  0  0  0  0  0  0  0  0
   11.0490    1.0010   23.0460 C   0  0  0  0  0  0  0  0  0  0  0  0
   11.6520   -1.1420   22.1450 C   0  0  0  0  0  0  0  0  0  0  0  0
   13.3680    0.4840   22.6240 C   0  0  0  0  0  0  0  0  0  0  0  0
    5.5330    1.3060   17.5390 C   0  0  0  0  0  0  0  0  0  0  0  0
    7.2400   -0.0390   18.2610 C   0  0  0  0  0  0  0  0  0  0  0  0
    5.6260    0.7590   19.8690 C   0  0  0  0  0  0  0  0  0  0  0  0
   10.6720   -0.2500   22.5660 C   0  0  0  0  0  0  0  0  0  0  0  0
   12.3850    1.3610   23.0530 C   0  0  0  0  0  0  0  0  0  0  0  0
    6.7930    0.0210   19.5790 C   0  0  0  0  0  0  0  0  0  0  0  0
   12.9770   -0.7640   22.1810 C   0  0  0  0  0  0  0  0  0  0  0  0
    8.6020    0.1230   21.2070 C   0  0  0  0  0  0  0  0  0  0  0  0
    5.0980    0.9060   21.2740 C   0  0  0  0  0  0  0  0  0  0  0  0
    9.2100   -0.5900   22.3990 C   0  0  0  0  0  0  0  0  0  0  0  0
   12.7773    2.7295   23.5372 C   0  0  0  0  0  0  0  0  0  0  0  0
   12.8015    3.7633   22.4001 C   0  0  0  0  0  0  0  0  0  0  0  0
   13.1573    5.1576   22.9150 C   0  0  0  0  0  0  0  0  0  0  0  0
    6.6320    0.5940   17.2520 N   0  0  0  0  0  0  0  0  0  0  0  0
    7.5630   -0.5230   20.6330 N   0  0  0  0  0  0  0  0  0  0  0  0
    9.0150    1.2120   20.8220 O   0  0  0  0  0  0  0  0  0  0  0  0
   14.1940   -1.9100   21.6990 Cl  0  0  0  0  0  0  0  0  0  0  0  0
   13.1503    6.5769   21.3163 I   0  0  0  0  0  0  0  0  0  0  0  0
    4.0894    1.9955   18.9731 H   0  0  0  0  0  0  0  0  0  0  0  0
   10.2920    1.6914   23.4138 H   0  0  0  0  0  0  0  0  0  0  0  0
   11.3638   -2.1302   21.7909 H   0  0  0  0  0  0  0  0  0  0  0  0
   14.4063    0.7746   22.6384 H   0  0  0  0  0  0  0  0  0  0  0  0
    5.0712    1.8129   16.6995 H   0  0  0  0  0  0  0  0  0  0  0  0
    8.1159   -0.6122   17.9919 H   0  0  0  0  0  0  0  0  0  0  0  0
    4.7841   -0.0685   21.6656 H   0  0  0  0  0  0  0  0  0  0  0  0
    5.8614    1.3222   21.9428 H   0  0  0  0  0  0  0  0  0  0  0  0
    4.2397    1.5885   21.3053 H   0  0  0  0  0  0  0  0  0  0  0  0
    9.0902   -1.6664   22.2639 H   0  0  0  0  0  0  0  0  0  0  0  0
    8.6579   -0.3097   23.2977 H   0  0  0  0  0  0  0  0  0  0  0  0
   13.7679    2.6918   24.0204 H   0  0  0  0  0  0  0  0  0  0  0  0
   12.0837    3.0669   24.3254 H   0  0  0  0  0  0  0  0  0  0  0  0
   13.5270    3.4493   21.6381 H   0  0  0  0  0  0  0  0  0  0  0  0
   11.8209    3.7849   21.9067 H   0  0  0  0  0  0  0  0  0  0  0  0
   14.1477    5.1435   23.3833 H   0  0  0  0  0  0  0  0  0  0  0  0
   12.4384    5.4703   23.6805 H   0  0  0  0  0  0  0  0  0  0  0  0
    7.3129   -1.4300   20.9567 H   0  0  0  0  0  0  0  0  0  0  0  0
  1  5  2  0  0  0  0
  1  7  1  0  0  0  0
  2  8  2  0  0  0  0
  2  9  1  0  0  0  0
  3  8  1  0  0  0  0
  3 11  2  0  0  0  0
  4  9  2  0  0  0  0
  4 11  1  0  0  0  0
  5 18  1  0  0  0  0
  6 10  1  0  0  0  0
  6 18  2  0  0  0  0
  7 10  2  0  0  0  0
  7 13  1  0  0  0  0
  8 14  1  0  0  0  0
  9 15  1  0  0  0  0
 10 19  1  0  0  0  0
 11 21  1  0  0  0  0
 12 14  1  0  0  0  0
 12 19  1  0  0  0  0
 12 20  2  0  0  0  0
 15 16  1  0  0  0  0
 16 17  1  0  0  0  0
 17 22  1  0  0  0  0
  1 23  1  0  0  0  0
  2 24  1  0  0  0  0
  3 25  1  0  0  0  0
  4 26  1  0  0  0  0
  5 27  1  0  0  0  0
  6 28  1  0  0  0  0
 13 29  1  0  0  0  0
 13 30  1  0  0  0  0
 13 31  1  0  0  0  0
 14 32  1  0  0  0  0
 14 33  1  0  0  0  0
 15 34  1  0  0  0  0
 15 35  1  0  0  0  0
 16 36  1  0  0  0  0
 16 37  1  0  0  0  0
 17 38  1  0  0  0  0
 17 39  1  0  0  0  0
 19 40  1  0  0  0  0
M  END
> <BB_SMILES>
CC1(C)OB(CCCI)OC1(C)C

> <scaffold_SMILES>
Cc1ccncc1NC(=O)Cc1cc(Cl)cc(Br)c1

$$$$
EN300-200134
  -OEChem-07272002233D

 39 40  0     0  0  0  0  0  0999 V2000
    5.0000    1.4070   18.8080 C   0  0  0  0  0  0  0  0  0  0  0  0
   11.0490    1.0010   23.0460 C   0  0  0  0  0  0  0  0  0  0  0  0
   11.6520   -1.1420   22.1450 C   0  0  0  0  0  0  0  0  0  0  0  0
   13.3680    0.4840   22.6240 C   0  0  0  0  0  0  0  0  0  0  0  0
    5.5330    1.3060   17.5390 C   0  0  0  0  0  0  0  0  0  0  0  0
    7.2400   -0.0390   18.2610 C   0  0  0  0  0  0  0  0  0  0  0  0
    5.6260    0.7590   19.8690 C   0  0  0  0  0  0  0  0  0  0  0  0
   10.6720   -0.2500   22.5660 C   0  0  0  0  0  0  0  0  0  0  0  0
   12.3850    1.3610   23.0530 C   0  0  0  0  0  0  0  0  0  0  0  0
    6.7930    0.0210   19.5790 C   0  0  0  0  0  0  0  0  0  0  0  0
   12.9770   -0.7640   22.1810 C   0  0  0  0  0  0  0  0  0  0  0  0
    8.6020    0.1230   21.2070 C   0  0  0  0  0  0  0  0  0  0  0  0
   13.2331    5.1800   22.8263 C   0  0  0  0  0  0  0  0  0  0  0  0
    5.0980    0.9060   21.2740 C   0  0  0  0  0  0  0  0  0  0  0  0
    9.2100   -0.5900   22.3990 C   0  0  0  0  0  0  0  0  0  0  0  0
   12.7773    2.7295   23.5372 C   0  0  0  0  0  0  0  0  0  0  0  0
   12.8049    3.7681   22.4129 C   0  0  0  0  0  0  0  0  0  0  0  0
    6.6320    0.5940   17.2520 N   0  0  0  0  0  0  0  0  0  0  0  0
    7.5630   -0.5230   20.6330 N   0  0  0  0  0  0  0  0  0  0  0  0
   13.2961    6.0010   21.8656 O   0  5  0  0  0  0  0  0  0  0  0  0
    9.0150    1.2120   20.8220 O   0  0  0  0  0  0  0  0  0  0  0  0
   13.4689    5.3646   24.0515 O   0  0  0  0  0  0  0  0  0  0  0  0
   14.1940   -1.9100   21.6990 Cl  0  0  0  0  0  0  0  0  0  0  0  0
    4.0894    1.9955   18.9731 H   0  0  0  0  0  0  0  0  0  0  0  0
   10.2920    1.6914   23.4138 H   0  0  0  0  0  0  0  0  0  0  0  0
   11.3638   -2.1302   21.7909 H   0  0  0  0  0  0  0  0  0  0  0  0
   14.4063    0.7746   22.6384 H   0  0  0  0  0  0  0  0  0  0  0  0
    5.0712    1.8129   16.6995 H   0  0  0  0  0  0  0  0  0  0  0  0
    8.1159   -0.6122   17.9919 H   0  0  0  0  0  0  0  0  0  0  0  0
    4.7841   -0.0685   21.6656 H   0  0  0  0  0  0  0  0  0  0  0  0
    5.8614    1.3222   21.9428 H   0  0  0  0  0  0  0  0  0  0  0  0
    4.2397    1.5885   21.3053 H   0  0  0  0  0  0  0  0  0  0  0  0
    9.0902   -1.6664   22.2639 H   0  0  0  0  0  0  0  0  0  0  0  0
    8.6579   -0.3097   23.2977 H   0  0  0  0  0  0  0  0  0  0  0  0
   12.0838    3.0635   24.3244 H   0  0  0  0  0  0  0  0  0  0  0  0
   13.7658    2.6895   24.0203 H   0  0  0  0  0  0  0  0  0  0  0  0
   11.8078    3.8449   21.9602 H   0  0  0  0  0  0  0  0  0  0  0  0
   13.4878    3.4339   21.6212 H   0  0  0  0  0  0  0  0  0  0  0  0
    7.3129   -1.4300   20.9567 H   0  0  0  0  0  0  0  0  0  0  0  0
  1  5  2  0  0  0  0
  1  7  1  0  0  0  0
  2  8  2  0  0  0  0
  2  9  1  0  0  0  0
  3  8  1  0  0  0  0
  3 11  2  0  0  0  0
  4  9  2  0  0  0  0
  4 11  1  0  0  0  0
  5 18  1  0  0  0  0
  6 10  1  0  0  0  0
  6 18  2  0  0  0  0
  7 10  2  0  0  0  0
  7 14  1  0  0  0  0
  8 15  1  0  0  0  0
  9 16  1  0  0  0  0
 10 19  1  0  0  0  0
 11 23  1  0  0  0  0
 12 15  1  0  0  0  0
 12 19  1  0  0  0  0
 12 21  2  0  0  0  0
 13 17  1  0  0  0  0
 13 20  1  0  0  0  0
 13 22  2  0  0  0  0
 16 17  1  0  0  0  0
  1 24  1  0  0  0  0
  2 25  1  0  0  0  0
  3 26  1  0  0  0  0
  4 27  1  0  0  0  0
  5 28  1  0  0  0  0
  6 29  1  0  0  0  0
 14 30  1  0  0  0  0
 14 31  1  0  0  0  0
 14 32  1  0  0  0  0
 15 33  1  0  0  0  0
 15 34  1  0  0  0  0
 16 35  1  0  0  0  0
 16 36  1  0  0  0  0
 17 37  1  0  0  0  0
 17 38  1  0  0  0  0
 19 39  1  0  0  0  0
M  CHG  1  20  -1
M  END
> <BB_SMILES>
O=C(O)CCB(O)O

> <scaffold_SMILES>
Cc1ccncc1NC(=O)Cc1cc(Cl)cc(Br)c1

$$$$
EN300-138961
  -OEChem-07272002233D

 46 49  0     0  0  0  0  0  0999 V2000
   13.9121    3.3101   22.9869 C   0  0  0  0  0  0  0  0  0  0  0  0
   14.3022    4.5803   23.4153 C   0  0  0  0  0  0  0  0  0  0  0  0
    5.0000    1.4070   18.8080 C   0  0  0  0  0  0  0  0  0  0  0  0
   11.9908    3.3305   24.4927 C   0  0  0  0  0  0  0  0  0  0  0  0
   11.0490    1.0010   23.0460 C   0  0  0  0  0  0  0  0  0  0  0  0
   13.3680    0.4840   22.6240 C   0  0  0  0  0  0  0  0  0  0  0  0
   11.6520   -1.1420   22.1450 C   0  0  0  0  0  0  0  0  0  0  0  0
    5.5330    1.3060   17.5390 C   0  0  0  0  0  0  0  0  0  0  0  0
    7.2400   -0.0390   18.2610 C   0  0  0  0  0  0  0  0  0  0  0  0
   12.7666    2.6903   23.5208 C   0  0  0  0  0  0  0  0  0  0  0  0
   12.3850    1.3610   23.0530 C   0  0  0  0  0  0  0  0  0  0  0  0
   12.3843    4.5868   24.9108 C   0  0  0  0  0  0  0  0  0  0  0  0
    5.6260    0.7590   19.8690 C   0  0  0  0  0  0  0  0  0  0  0  0
   10.6720   -0.2500   22.5660 C   0  0  0  0  0  0  0  0  0  0  0  0
   13.5195    5.1894   24.3749 C   0  0  0  0  0  0  0  0  0  0  0  0
    6.7930    0.0210   19.5790 C   0  0  0  0  0  0  0  0  0  0  0  0
   12.9770   -0.7640   22.1810 C   0  0  0  0  0  0  0  0  0  0  0  0
   12.7001    6.7121   25.8923 C   0  0  0  0  0  0  0  0  0  0  0  0
    8.6020    0.1230   21.2070 C   0  0  0  0  0  0  0  0  0  0  0  0
   11.7636    5.4989   25.9205 C   0  0  0  0  0  0  0  0  0  0  0  0
    5.0980    0.9060   21.2740 C   0  0  0  0  0  0  0  0  0  0  0  0
    9.2100   -0.5900   22.3990 C   0  0  0  0  0  0  0  0  0  0  0  0
    6.6320    0.5940   17.2520 N   0  0  0  0  0  0  0  0  0  0  0  0
   13.7023    6.4399   24.9544 N   0  0  0  0  0  0  0  0  0  0  0  0
    7.5630   -0.5230   20.6330 N   0  0  0  0  0  0  0  0  0  0  0  0
   12.5732    7.7186   26.5724 O   0  0  0  0  0  0  0  0  0  0  0  0
    9.0150    1.2120   20.8220 O   0  0  0  0  0  0  0  0  0  0  0  0
   14.1940   -1.9100   21.6990 Cl  0  0  0  0  0  0  0  0  0  0  0  0
   14.5094    2.8038   22.2311 H   0  0  0  0  0  0  0  0  0  0  0  0
   15.1844    5.0598   23.0076 H   0  0  0  0  0  0  0  0  0  0  0  0
    4.0894    1.9955   18.9731 H   0  0  0  0  0  0  0  0  0  0  0  0
   11.1051    2.8623   24.9107 H   0  0  0  0  0  0  0  0  0  0  0  0
   10.2869    1.6872   23.4130 H   0  0  0  0  0  0  0  0  0  0  0  0
   14.4085    0.7689   22.6365 H   0  0  0  0  0  0  0  0  0  0  0  0
   11.3634   -2.1298   21.7910 H   0  0  0  0  0  0  0  0  0  0  0  0
    5.0712    1.8129   16.6995 H   0  0  0  0  0  0  0  0  0  0  0  0
    8.1159   -0.6122   17.9919 H   0  0  0  0  0  0  0  0  0  0  0  0
   10.7588    5.8053   25.6196 H   0  0  0  0  0  0  0  0  0  0  0  0
   11.7709    5.0542   26.9187 H   0  0  0  0  0  0  0  0  0  0  0  0
    4.0244    1.1263   21.2552 H   0  0  0  0  0  0  0  0  0  0  0  0
    5.2567   -0.0108   21.8550 H   0  0  0  0  0  0  0  0  0  0  0  0
    5.6118    1.7151   21.8077 H   0  0  0  0  0  0  0  0  0  0  0  0
    9.0901   -1.6664   22.2639 H   0  0  0  0  0  0  0  0  0  0  0  0
    8.6579   -0.3097   23.2977 H   0  0  0  0  0  0  0  0  0  0  0  0
   14.4661    7.0625   24.7195 H   0  0  0  0  0  0  0  0  0  0  0  0
    7.3129   -1.4300   20.9567 H   0  0  0  0  0  0  0  0  0  0  0  0
  1  2  2  0  0  0  0
  1 10  1  0  0  0  0
  2 15  1  0  0  0  0
  3  8  2  0  0  0  0
  3 13  1  0  0  0  0
  4 10  2  0  0  0  0
  4 12  1  0  0  0  0
  5 11  1  0  0  0  0
  5 14  2  0  0  0  0
  6 11  2  0  0  0  0
  6 17  1  0  0  0  0
  7 14  1  0  0  0  0
  7 17  2  0  0  0  0
  8 23  1  0  0  0  0
  9 16  1  0  0  0  0
  9 23  2  0  0  0  0
 10 11  1  0  0  0  0
 12 15  2  0  0  0  0
 12 20  1  0  0  0  0
 13 16  2  0  0  0  0
 13 21  1  0  0  0  0
 14 22  1  0  0  0  0
 15 24  1  0  0  0  0
 16 25  1  0  0  0  0
 17 28  1  0  0  0  0
 18 20  1  0  0  0  0
 18 24  1  0  0  0  0
 18 26  2  0  0  0  0
 19 22  1  0  0  0  0
 19 25  1  0  0  0  0
 19 27  2  0  0  0  0
  1 29  1  0  0  0  0
  2 30  1  0  0  0  0
  3 31  1  0  0  0  0
  4 32  1  0  0  0  0
  5 33  1  0  0  0  0
  6 34  1  0  0  0  0
  7 35  1  0  0  0  0
  8 36  1  0  0  0  0
  9 37  1  0  0  0  0
 20 38  1  0  0  0  0
 20 39  1  0  0  0  0
 21 40  1  0  0  0  0
 21 41  1  0  0  0  0
 21 42  1  0  0  0  0
 22 43  1  0  0  0  0
 22 44  1  0  0  0  0
 24 45  1  0  0  0  0
 25 46  1  0  0  0  0
M  END
> <BB_SMILES>
CC1(C)OB(c2ccc3c(c2)CC(=O)N3)OC1(C)C

> <scaffold_SMILES>
Cc1ccncc1NC(=O)Cc1cc(Cl)cc(Br)c1

$$$$
EN300-214510
  -OEChem-07272002233D

 38 39  0     0  0  0  0  0  0999 V2000
    5.0000    1.4070   18.8080 C   0  0  0  0  0  0  0  0  0  0  0  0
   11.0490    1.0010   23.0460 C   0  0  0  0  0  0  0  0  0  0  0  0
   13.3680    0.4840   22.6240 C   0  0  0  0  0  0  0  0  0  0  0  0
   11.6520   -1.1420   22.1450 C   0  0  0  0  0  0  0  0  0  0  0  0
    5.5330    1.3060   17.5390 C   0  0  0  0  0  0  0  0  0  0  0  0
    7.2400   -0.0390   18.2610 C   0  0  0  0  0  0  0  0  0  0  0  0
   12.3850    1.3610   23.0530 C   0  0  0  0  0  0  0  0  0  0  0  0
    5.6260    0.7590   19.8690 C   0  0  0  0  0  0  0  0  0  0  0  0
   10.6720   -0.2500   22.5660 C   0  0  0  0  0  0  0  0  0  0  0  0
    6.7930    0.0210   19.5790 C   0  0  0  0  0  0  0  0  0  0  0  0
   12.9770   -0.7640   22.1810 C   0  0  0  0  0  0  0  0  0  0  0  0
   12.4915    3.1154   24.7873 C   0  0  0  0  0  0  0  0  0  0  0  0
   12.7686    2.6957   23.5248 C   0  0  0  0  0  0  0  0  0  0  0  0
    8.6020    0.1230   21.2070 C   0  0  0  0  0  0  0  0  0  0  0  0
    5.0980    0.9060   21.2740 C   0  0  0  0  0  0  0  0  0  0  0  0
    9.2100   -0.5900   22.3990 C   0  0  0  0  0  0  0  0  0  0  0  0
   13.4999    3.6299   22.5831 C   0  0  0  0  0  0  0  0  0  0  0  0
    6.6320    0.5940   17.2520 N   0  0  0  0  0  0  0  0  0  0  0  0
    7.5630   -0.5230   20.6330 N   0  0  0  0  0  0  0  0  0  0  0  0
    9.0150    1.2120   20.8220 O   0  0  0  0  0  0  0  0  0  0  0  0
   13.7016    3.0532   21.3694 F   0  0  0  0  0  0  0  0  0  0  0  0
   12.8385    4.7936   22.3427 F   0  0  0  0  0  0  0  0  0  0  0  0
   14.7211    3.9793   23.0635 F   0  0  0  0  0  0  0  0  0  0  0  0
   14.1940   -1.9100   21.6990 Cl  0  0  0  0  0  0  0  0  0  0  0  0
    4.0894    1.9955   18.9731 H   0  0  0  0  0  0  0  0  0  0  0  0
   10.2871    1.6869   23.4136 H   0  0  0  0  0  0  0  0  0  0  0  0
   14.4083    0.7693   22.6351 H   0  0  0  0  0  0  0  0  0  0  0  0
   11.3638   -2.1297   21.7903 H   0  0  0  0  0  0  0  0  0  0  0  0
    5.0712    1.8129   16.6995 H   0  0  0  0  0  0  0  0  0  0  0  0
    8.1159   -0.6122   17.9919 H   0  0  0  0  0  0  0  0  0  0  0  0
   12.7770    4.1040   25.1318 H   0  0  0  0  0  0  0  0  0  0  0  0
   11.9592    2.4935   25.5001 H   0  0  0  0  0  0  0  0  0  0  0  0
    5.6398    0.2395   21.9550 H   0  0  0  0  0  0  0  0  0  0  0  0
    5.2076    1.9368   21.6327 H   0  0  0  0  0  0  0  0  0  0  0  0
    4.0294    0.6628   21.3232 H   0  0  0  0  0  0  0  0  0  0  0  0
    9.0900   -1.6664   22.2639 H   0  0  0  0  0  0  0  0  0  0  0  0
    8.6578   -0.3097   23.2977 H   0  0  0  0  0  0  0  0  0  0  0  0
    7.3129   -1.4300   20.9567 H   0  0  0  0  0  0  0  0  0  0  0  0
  1  5  2  0  0  0  0
  1  8  1  0  0  0  0
  2  7  2  0  0  0  0
  2  9  1  0  0  0  0
  3  7  1  0  0  0  0
  3 11  2  0  0  0  0
  4  9  2  0  0  0  0
  4 11  1  0  0  0  0
  5 18  1  0  0  0  0
  6 10  1  0  0  0  0
  6 18  2  0  0  0  0
  7 13  1  0  0  0  0
  8 10  2  0  0  0  0
  8 15  1  0  0  0  0
  9 16  1  0  0  0  0
 10 19  1  0  0  0  0
 11 24  1  0  0  0  0
 12 13  2  0  0  0  0
 13 17  1  0  0  0  0
 14 16  1  0  0  0  0
 14 19  1  0  0  0  0
 14 20  2  0  0  0  0
 17 21  1  0  0  0  0
 17 22  1  0  0  0  0
 17 23  1  0  0  0  0
  1 25  1  0  0  0  0
  2 26  1  0  0  0  0
  3 27  1  0  0  0  0
  4 28  1  0  0  0  0
  5 29  1  0  0  0  0
  6 30  1  0  0  0  0
 12 31  1  0  0  0  0
 12 32  1  0  0  0  0
 15 33  1  0  0  0  0
 15 34  1  0  0  0  0
 15 35  1  0  0  0  0
 16 36  1  0  0  0  0
 16 37  1  0  0  0  0
 19 38  1  0  0  0  0
M  END
> <BB_SMILES>
C=C(B1OC(C)(C)C(C)(C)O1)C(F)(F)F

> <scaffold_SMILES>
Cc1ccncc1NC(=O)Cc1cc(Cl)cc(Br)c1

$$$$
EN300-217048
  -OEChem-07272002233D

 43 45  0     0  0  0  0  0  0999 V2000
    5.0000    1.4070   18.8080 C   0  0  0  0  0  0  0  0  0  0  0  0
   11.0490    1.0010   23.0460 C   0  0  0  0  0  0  0  0  0  0  0  0
   12.0165    3.3532   24.4851 C   0  0  0  0  0  0  0  0  0  0  0  0
   13.3680    0.4840   22.6240 C   0  0  0  0  0  0  0  0  0  0  0  0
   11.6520   -1.1420   22.1450 C   0  0  0  0  0  0  0  0  0  0  0  0
    5.5330    1.3060   17.5390 C   0  0  0  0  0  0  0  0  0  0  0  0
   13.8859    3.3303   23.0150 C   0  0  0  0  0  0  0  0  0  0  0  0
   13.5396    5.1741   24.3412 C   0  0  0  0  0  0  0  0  0  0  0  0
    7.2400   -0.0390   18.2610 C   0  0  0  0  0  0  0  0  0  0  0  0
   12.3850    1.3610   23.0530 C   0  0  0  0  0  0  0  0  0  0  0  0
   12.7664    2.6894   23.5206 C   0  0  0  0  0  0  0  0  0  0  0  0
    5.6260    0.7590   19.8690 C   0  0  0  0  0  0  0  0  0  0  0  0
   10.6720   -0.2500   22.5660 C   0  0  0  0  0  0  0  0  0  0  0  0
   12.4037    4.6197   24.9087 C   0  0  0  0  0  0  0  0  0  0  0  0
    6.7930    0.0210   19.5790 C   0  0  0  0  0  0  0  0  0  0  0  0
   12.9770   -0.7640   22.1810 C   0  0  0  0  0  0  0  0  0  0  0  0
    8.6020    0.1230   21.2070 C   0  0  0  0  0  0  0  0  0  0  0  0
    5.0980    0.9060   21.2740 C   0  0  0  0  0  0  0  0  0  0  0  0
    9.2100   -0.5900   22.3990 C   0  0  0  0  0  0  0  0  0  0  0  0
   11.6232    5.3562   25.9386 C   0  0  0  0  0  0  0  0  0  0  0  0
    6.6320    0.5940   17.2520 N   0  0  0  0  0  0  0  0  0  0  0  0
   14.2933    4.5600   23.4018 N   0  0  0  0  0  0  0  0  0  0  0  0
    7.5630   -0.5230   20.6330 N   0  0  0  0  0  0  0  0  0  0  0  0
    9.0150    1.2120   20.8220 O   0  0  0  0  0  0  0  0  0  0  0  0
   10.3031    5.0345   25.8726 F   0  0  0  0  0  0  0  0  0  0  0  0
   11.6992    6.6997   25.7388 F   0  0  0  0  0  0  0  0  0  0  0  0
   14.1940   -1.9100   21.6990 Cl  0  0  0  0  0  0  0  0  0  0  0  0
    4.0894    1.9955   18.9731 H   0  0  0  0  0  0  0  0  0  0  0  0
   10.2869    1.6872   23.4130 H   0  0  0  0  0  0  0  0  0  0  0  0
   11.1282    2.8901   24.9091 H   0  0  0  0  0  0  0  0  0  0  0  0
   14.4085    0.7689   22.6365 H   0  0  0  0  0  0  0  0  0  0  0  0
   11.3634   -2.1298   21.7910 H   0  0  0  0  0  0  0  0  0  0  0  0
    5.0712    1.8129   16.6995 H   0  0  0  0  0  0  0  0  0  0  0  0
   14.5136    2.8663   22.2596 H   0  0  0  0  0  0  0  0  0  0  0  0
   13.8902    6.1591   24.6336 H   0  0  0  0  0  0  0  0  0  0  0  0
    8.1159   -0.6122   17.9919 H   0  0  0  0  0  0  0  0  0  0  0  0
    4.4456    1.7840   21.3446 H   0  0  0  0  0  0  0  0  0  0  0  0
    4.5263    0.0203   21.5772 H   0  0  0  0  0  0  0  0  0  0  0  0
    5.9169    1.0197   21.9952 H   0  0  0  0  0  0  0  0  0  0  0  0
    9.0901   -1.6664   22.2639 H   0  0  0  0  0  0  0  0  0  0  0  0
    8.6579   -0.3097   23.2977 H   0  0  0  0  0  0  0  0  0  0  0  0
   11.9657    5.1509   26.9563 H   0  0  0  0  0  0  0  0  0  0  0  0
    7.3129   -1.4300   20.9567 H   0  0  0  0  0  0  0  0  0  0  0  0
  1  6  2  0  0  0  0
  1 12  1  0  0  0  0
  2 10  1  0  0  0  0
  2 13  2  0  0  0  0
  3 11  2  0  0  0  0
  3 14  1  0  0  0  0
  4 10  2  0  0  0  0
  4 16  1  0  0  0  0
  5 13  1  0  0  0  0
  5 16  2  0  0  0  0
  6 21  1  0  0  0  0
  7 11  1  0  0  0  0
  7 22  2  0  0  0  0
  8 14  2  0  0  0  0
  8 22  1  0  0  0  0
  9 15  1  0  0  0  0
  9 21  2  0  0  0  0
 10 11  1  0  0  0  0
 12 15  2  0  0  0  0
 12 18  1  0  0  0  0
 13 19  1  0  0  0  0
 14 20  1  0  0  0  0
 15 23  1  0  0  0  0
 16 27  1  0  0  0  0
 17 19  1  0  0  0  0
 17 23  1  0  0  0  0
 17 24  2  0  0  0  0
 20 25  1  0  0  0  0
 20 26  1  0  0  0  0
  1 28  1  0  0  0  0
  2 29  1  0  0  0  0
  3 30  1  0  0  0  0
  4 31  1  0  0  0  0
  5 32  1  0  0  0  0
  6 33  1  0  0  0  0
  7 34  1  0  0  0  0
  8 35  1  0  0  0  0
  9 36  1  0  0  0  0
 18 37  1  0  0  0  0
 18 38  1  0  0  0  0
 18 39  1  0  0  0  0
 19 40  1  0  0  0  0
 19 41  1  0  0  0  0
 20 42  1  0  0  0  0
 23 43  1  0  0  0  0
M  END
> <BB_SMILES>
CC1(C)OB(c2cncc(C(F)F)c2)OC1(C)C

> <scaffold_SMILES>
Cc1ccncc1NC(=O)Cc1cc(Cl)cc(Br)c1

$$$$
EN300-218797
  -OEChem-07272002233D

 44 46  0     0  0  0  0  0  0999 V2000
    5.0000    1.4070   18.8080 C   0  0  0  0  0  0  0  0  0  0  0  0
   11.0490    1.0010   23.0460 C   0  0  0  0  0  0  0  0  0  0  0  0
   12.0164    3.3531   24.4852 C   0  0  0  0  0  0  0  0  0  0  0  0
   13.3680    0.4840   22.6240 C   0  0  0  0  0  0  0  0  0  0  0  0
   11.6520   -1.1420   22.1450 C   0  0  0  0  0  0  0  0  0  0  0  0
    5.5330    1.3060   17.5390 C   0  0  0  0  0  0  0  0  0  0  0  0
   13.8869    3.3297   23.0164 C   0  0  0  0  0  0  0  0  0  0  0  0
    7.2400   -0.0390   18.2610 C   0  0  0  0  0  0  0  0  0  0  0  0
   13.5413    5.1727   24.3438 C   0  0  0  0  0  0  0  0  0  0  0  0
   12.3850    1.3610   23.0530 C   0  0  0  0  0  0  0  0  0  0  0  0
   12.7664    2.6894   23.5206 C   0  0  0  0  0  0  0  0  0  0  0  0
    5.6260    0.7590   19.8690 C   0  0  0  0  0  0  0  0  0  0  0  0
   10.6720   -0.2500   22.5660 C   0  0  0  0  0  0  0  0  0  0  0  0
    6.7930    0.0210   19.5790 C   0  0  0  0  0  0  0  0  0  0  0  0
   12.4045    4.6189   24.9101 C   0  0  0  0  0  0  0  0  0  0  0  0
   12.9770   -0.7640   22.1810 C   0  0  0  0  0  0  0  0  0  0  0  0
    8.6020    0.1230   21.2070 C   0  0  0  0  0  0  0  0  0  0  0  0
    5.0980    0.9060   21.2740 C   0  0  0  0  0  0  0  0  0  0  0  0
    9.2100   -0.5900   22.3990 C   0  0  0  0  0  0  0  0  0  0  0  0
   11.6954    6.7134   25.7859 C   0  0  0  0  0  0  0  0  0  0  0  0
    6.6320    0.5940   17.2520 N   0  0  0  0  0  0  0  0  0  0  0  0
   14.2952    4.5586   23.4045 N   0  0  0  0  0  0  0  0  0  0  0  0
    7.5630   -0.5230   20.6330 N   0  0  0  0  0  0  0  0  0  0  0  0
    9.0150    1.2120   20.8220 O   0  0  0  0  0  0  0  0  0  0  0  0
   11.6928    5.2898   25.8491 O   0  0  0  0  0  0  0  0  0  0  0  0
   10.5127    7.1521   26.2892 F   0  0  0  0  0  0  0  0  0  0  0  0
   12.6640    7.1919   26.6049 F   0  0  0  0  0  0  0  0  0  0  0  0
   14.1940   -1.9100   21.6990 Cl  0  0  0  0  0  0  0  0  0  0  0  0
    4.0894    1.9955   18.9731 H   0  0  0  0  0  0  0  0  0  0  0  0
   10.2869    1.6872   23.4130 H   0  0  0  0  0  0  0  0  0  0  0  0
   11.1280    2.8916   24.9105 H   0  0  0  0  0  0  0  0  0  0  0  0
   14.4085    0.7689   22.6365 H   0  0  0  0  0  0  0  0  0  0  0  0
   11.3634   -2.1298   21.7910 H   0  0  0  0  0  0  0  0  0  0  0  0
    5.0712    1.8129   16.6995 H   0  0  0  0  0  0  0  0  0  0  0  0
   14.5148    2.8656   22.2611 H   0  0  0  0  0  0  0  0  0  0  0  0
    8.1159   -0.6122   17.9919 H   0  0  0  0  0  0  0  0  0  0  0  0
   13.8902    6.1577   24.6377 H   0  0  0  0  0  0  0  0  0  0  0  0
    4.4456    1.7840   21.3446 H   0  0  0  0  0  0  0  0  0  0  0  0
    4.5263    0.0203   21.5772 H   0  0  0  0  0  0  0  0  0  0  0  0
    5.9169    1.0197   21.9952 H   0  0  0  0  0  0  0  0  0  0  0  0
    9.0901   -1.6664   22.2639 H   0  0  0  0  0  0  0  0  0  0  0  0
    8.6579   -0.3097   23.2977 H   0  0  0  0  0  0  0  0  0  0  0  0
   11.8077    7.1022   24.7681 H   0  0  0  0  0  0  0  0  0  0  0  0
    7.3129   -1.4300   20.9567 H   0  0  0  0  0  0  0  0  0  0  0  0
  1  6  2  0  0  0  0
  1 12  1  0  0  0  0
  2 10  1  0  0  0  0
  2 13  2  0  0  0  0
  3 11  2  0  0  0  0
  3 15  1  0  0  0  0
  4 10  2  0  0  0  0
  4 16  1  0  0  0  0
  5 13  1  0  0  0  0
  5 16  2  0  0  0  0
  6 21  1  0  0  0  0
  7 11  1  0  0  0  0
  7 22  2  0  0  0  0
  8 14  1  0  0  0  0
  8 21  2  0  0  0  0
  9 15  2  0  0  0  0
  9 22  1  0  0  0  0
 10 11  1  0  0  0  0
 12 14  2  0  0  0  0
 12 18  1  0  0  0  0
 13 19  1  0  0  0  0
 14 23  1  0  0  0  0
 15 25  1  0  0  0  0
 16 28  1  0  0  0  0
 17 19  1  0  0  0  0
 17 23  1  0  0  0  0
 17 24  2  0  0  0  0
 20 25  1  0  0  0  0
 20 26  1  0  0  0  0
 20 27  1  0  0  0  0
  1 29  1  0  0  0  0
  2 30  1  0  0  0  0
  3 31  1  0  0  0  0
  4 32  1  0  0  0  0
  5 33  1  0  0  0  0
  6 34  1  0  0  0  0
  7 35  1  0  0  0  0
  8 36  1  0  0  0  0
  9 37  1  0  0  0  0
 18 38  1  0  0  0  0
 18 39  1  0  0  0  0
 18 40  1  0  0  0  0
 19 41  1  0  0  0  0
 19 42  1  0  0  0  0
 20 43  1  0  0  0  0
 23 44  1  0  0  0  0
M  END
> <BB_SMILES>
CC1(C)OB(c2cncc(OC(F)F)c2)OC1(C)C

> <scaffold_SMILES>
Cc1ccncc1NC(=O)Cc1cc(Cl)cc(Br)c1

$$$$
EN300-247430
  -OEChem-07272002233D

 43 46  0     0  0  0  0  0  0999 V2000
    5.0000    1.4070   18.8080 C   0  0  0  0  0  0  0  0  0  0  0  0
   11.0490    1.0010   23.0460 C   0  0  0  0  0  0  0  0  0  0  0  0
   13.3680    0.4840   22.6240 C   0  0  0  0  0  0  0  0  0  0  0  0
   11.6520   -1.1420   22.1450 C   0  0  0  0  0  0  0  0  0  0  0  0
    5.5330    1.3060   17.5390 C   0  0  0  0  0  0  0  0  0  0  0  0
   12.5744    3.2941   24.7602 C   0  0  0  0  0  0  0  0  0  0  0  0
    7.2400   -0.0390   18.2610 C   0  0  0  0  0  0  0  0  0  0  0  0
   12.3850    1.3610   23.0530 C   0  0  0  0  0  0  0  0  0  0  0  0
   12.7626    2.6751   23.5170 C   0  0  0  0  0  0  0  0  0  0  0  0
    5.6260    0.7590   19.8690 C   0  0  0  0  0  0  0  0  0  0  0  0
   10.6720   -0.2500   22.5660 C   0  0  0  0  0  0  0  0  0  0  0  0
    6.7930    0.0210   19.5790 C   0  0  0  0  0  0  0  0  0  0  0  0
   12.9770   -0.7640   22.1810 C   0  0  0  0  0  0  0  0  0  0  0  0
   13.4212    3.6112   22.7527 C   0  0  0  0  0  0  0  0  0  0  0  0
   14.6959    5.9103   21.8354 C   0  0  0  0  0  0  0  0  0  0  0  0
   14.2332    5.8718   23.0889 C   0  0  0  0  0  0  0  0  0  0  0  0
   14.4636    4.6698   21.0531 C   0  0  0  0  0  0  0  0  0  0  0  0
    8.6020    0.1230   21.2070 C   0  0  0  0  0  0  0  0  0  0  0  0
    5.0980    0.9060   21.2740 C   0  0  0  0  0  0  0  0  0  0  0  0
    9.2100   -0.5900   22.3990 C   0  0  0  0  0  0  0  0  0  0  0  0
    6.6320    0.5940   17.2520 N   0  0  0  0  0  0  0  0  0  0  0  0
   13.0686    4.5309   24.8043 N   0  0  0  0  0  0  0  0  0  0  0  0
   13.8716    3.5901   21.4655 N   0  0  0  0  0  0  0  0  0  0  0  0
   13.5928    4.7318   23.5670 N   0  0  0  0  0  0  0  0  0  0  0  0
    7.5630   -0.5230   20.6330 N   0  0  0  0  0  0  0  0  0  0  0  0
    9.0150    1.2120   20.8220 O   0  0  0  0  0  0  0  0  0  0  0  0
   14.1940   -1.9100   21.6990 Cl  0  0  0  0  0  0  0  0  0  0  0  0
    4.0894    1.9955   18.9731 H   0  0  0  0  0  0  0  0  0  0  0  0
   10.2867    1.6869   23.4134 H   0  0  0  0  0  0  0  0  0  0  0  0
   14.4087    0.7684   22.6364 H   0  0  0  0  0  0  0  0  0  0  0  0
   11.3634   -2.1302   21.7917 H   0  0  0  0  0  0  0  0  0  0  0  0
    5.0712    1.8129   16.6995 H   0  0  0  0  0  0  0  0  0  0  0  0
   12.0956    2.9001   25.6455 H   0  0  0  0  0  0  0  0  0  0  0  0
    8.1159   -0.6122   17.9919 H   0  0  0  0  0  0  0  0  0  0  0  0
   15.2020    6.7563   21.3944 H   0  0  0  0  0  0  0  0  0  0  0  0
   14.3342    6.7070   23.7715 H   0  0  0  0  0  0  0  0  0  0  0  0
   14.8441    4.6982   20.0188 H   0  0  0  0  0  0  0  0  0  0  0  0
    4.0093    0.7793   21.2858 H   0  0  0  0  0  0  0  0  0  0  0  0
    5.5439    0.1614   21.9449 H   0  0  0  0  0  0  0  0  0  0  0  0
    5.3398    1.8932   21.6869 H   0  0  0  0  0  0  0  0  0  0  0  0
    9.0901   -1.6664   22.2639 H   0  0  0  0  0  0  0  0  0  0  0  0
    8.6579   -0.3097   23.2977 H   0  0  0  0  0  0  0  0  0  0  0  0
    7.3129   -1.4300   20.9567 H   0  0  0  0  0  0  0  0  0  0  0  0
  1  5  2  0  0  0  0
  1 10  1  0  0  0  0
  2  8  1  0  0  0  0
  2 11  2  0  0  0  0
  3  8  2  0  0  0  0
  3 13  1  0  0  0  0
  4 11  1  0  0  0  0
  4 13  2  0  0  0  0
  5 21  1  0  0  0  0
  6  9  1  0  0  0  0
  6 22  2  0  0  0  0
  7 12  1  0  0  0  0
  7 21  2  0  0  0  0
  8  9  1  0  0  0  0
  9 14  2  0  0  0  0
 10 12  2  0  0  0  0
 10 19  1  0  0  0  0
 11 20  1  0  0  0  0
 12 25  1  0  0  0  0
 13 27  1  0  0  0  0
 14 23  1  0  0  0  0
 14 24  1  0  0  0  0
 15 16  2  0  0  0  0
 15 17  1  0  0  0  0
 16 24  1  0  0  0  0
 17 23  2  0  0  0  0
 18 20  1  0  0  0  0
 18 25  1  0  0  0  0
 18 26  2  0  0  0  0
 22 24  1  0  0  0  0
  1 28  1  0  0  0  0
  2 29  1  0  0  0  0
  3 30  1  0  0  0  0
  4 31  1  0  0  0  0
  5 32  1  0  0  0  0
  6 33  1  0  0  0  0
  7 34  1  0  0  0  0
 15 35  1  0  0  0  0
 16 36  1  0  0  0  0
 17 37  1  0  0  0  0
 19 38  1  0  0  0  0
 19 39  1  0  0  0  0
 19 40  1  0  0  0  0
 20 41  1  0  0  0  0
 20 42  1  0  0  0  0
 25 43  1  0  0  0  0
M  END
> <BB_SMILES>
CC1(C)OB(c2cnn3cccnc23)OC1(C)C

> <scaffold_SMILES>
Cc1ccncc1NC(=O)Cc1cc(Cl)cc(Br)c1

$$$$
EN300-261415
  -OEChem-07272002233D

 41 43  0     0  0  0  0  0  0999 V2000
    5.0000    1.4070   18.8080 C   0  0  0  0  0  0  0  0  0  0  0  0
   11.0490    1.0010   23.0460 C   0  0  0  0  0  0  0  0  0  0  0  0
   13.3680    0.4840   22.6240 C   0  0  0  0  0  0  0  0  0  0  0  0
   11.6520   -1.1420   22.1450 C   0  0  0  0  0  0  0  0  0  0  0  0
   11.9932    3.8543   23.4348 C   0  0  0  0  0  0  0  0  0  0  0  0
    5.5330    1.3060   17.5390 C   0  0  0  0  0  0  0  0  0  0  0  0
    7.2400   -0.0390   18.2610 C   0  0  0  0  0  0  0  0  0  0  0  0
   12.3850    1.3610   23.0530 C   0  0  0  0  0  0  0  0  0  0  0  0
    5.6260    0.7590   19.8690 C   0  0  0  0  0  0  0  0  0  0  0  0
   10.6720   -0.2500   22.5660 C   0  0  0  0  0  0  0  0  0  0  0  0
    6.7930    0.0210   19.5790 C   0  0  0  0  0  0  0  0  0  0  0  0
   12.9770   -0.7640   22.1810 C   0  0  0  0  0  0  0  0  0  0  0  0
   12.7637    2.6791   23.5184 C   0  0  0  0  0  0  0  0  0  0  0  0
   12.7811    4.8229   24.0070 C   0  0  0  0  0  0  0  0  0  0  0  0
    8.6020    0.1230   21.2070 C   0  0  0  0  0  0  0  0  0  0  0  0
    5.0980    0.9060   21.2740 C   0  0  0  0  0  0  0  0  0  0  0  0
    9.2100   -0.5900   22.3990 C   0  0  0  0  0  0  0  0  0  0  0  0
   12.5640    6.2612   24.2319 C   0  0  0  0  0  0  0  0  0  0  0  0
    6.6320    0.5940   17.2520 N   0  0  0  0  0  0  0  0  0  0  0  0
   13.9502    2.8806   24.0978 N   0  0  0  0  0  0  0  0  0  0  0  0
   13.9311    4.1937   24.3835 N   0  0  0  0  0  0  0  0  0  0  0  0
    7.5630   -0.5230   20.6330 N   0  0  0  0  0  0  0  0  0  0  0  0
    9.0150    1.2120   20.8220 O   0  0  0  0  0  0  0  0  0  0  0  0
   11.3495    6.7273   23.7897 F   0  0  0  0  0  0  0  0  0  0  0  0
   12.6120    6.6416   25.5512 F   0  0  0  0  0  0  0  0  0  0  0  0
   13.4911    7.0565   23.6060 F   0  0  0  0  0  0  0  0  0  0  0  0
   14.1940   -1.9100   21.6990 Cl  0  0  0  0  0  0  0  0  0  0  0  0
    4.0894    1.9955   18.9731 H   0  0  0  0  0  0  0  0  0  0  0  0
   10.2867    1.6869   23.4134 H   0  0  0  0  0  0  0  0  0  0  0  0
   14.4087    0.7684   22.6364 H   0  0  0  0  0  0  0  0  0  0  0  0
   11.3634   -2.1302   21.7917 H   0  0  0  0  0  0  0  0  0  0  0  0
   11.0041    3.9855   23.0189 H   0  0  0  0  0  0  0  0  0  0  0  0
    5.0712    1.8129   16.6995 H   0  0  0  0  0  0  0  0  0  0  0  0
    8.1159   -0.6122   17.9919 H   0  0  0  0  0  0  0  0  0  0  0  0
    4.4452    1.7837   21.3445 H   0  0  0  0  0  0  0  0  0  0  0  0
    4.5267    0.0201   21.5774 H   0  0  0  0  0  0  0  0  0  0  0  0
    5.9169    1.0203   21.9951 H   0  0  0  0  0  0  0  0  0  0  0  0
    9.0901   -1.6664   22.2639 H   0  0  0  0  0  0  0  0  0  0  0  0
    8.6579   -0.3097   23.2977 H   0  0  0  0  0  0  0  0  0  0  0  0
   14.7413    4.5960   24.8384 H   0  0  0  0  0  0  0  0  0  0  0  0
    7.3129   -1.4300   20.9567 H   0  0  0  0  0  0  0  0  0  0  0  0
  1  6  2  0  0  0  0
  1  9  1  0  0  0  0
  2  8  1  0  0  0  0
  2 10  2  0  0  0  0
  3  8  2  0  0  0  0
  3 12  1  0  0  0  0
  4 10  1  0  0  0  0
  4 12  2  0  0  0  0
  5 13  1  0  0  0  0
  5 14  2  0  0  0  0
  6 19  1  0  0  0  0
  7 11  1  0  0  0  0
  7 19  2  0  0  0  0
  8 13  1  0  0  0  0
  9 11  2  0  0  0  0
  9 16  1  0  0  0  0
 10 17  1  0  0  0  0
 11 22  1  0  0  0  0
 12 27  1  0  0  0  0
 13 20  2  0  0  0  0
 14 18  1  0  0  0  0
 14 21  1  0  0  0  0
 15 17  1  0  0  0  0
 15 22  1  0  0  0  0
 15 23  2  0  0  0  0
 18 24  1  0  0  0  0
 18 25  1  0  0  0  0
 18 26  1  0  0  0  0
 20 21  1  0  0  0  0
  1 28  1  0  0  0  0
  2 29  1  0  0  0  0
  3 30  1  0  0  0  0
  4 31  1  0  0  0  0
  5 32  1  0  0  0  0
  6 33  1  0  0  0  0
  7 34  1  0  0  0  0
 16 35  1  0  0  0  0
 16 36  1  0  0  0  0
 16 37  1  0  0  0  0
 17 38  1  0  0  0  0
 17 39  1  0  0  0  0
 21 40  1  0  0  0  0
 22 41  1  0  0  0  0
M  END
> <BB_SMILES>
CC1(C)OB(c2cc(C(F)(F)F)n[nH]2)OC1(C)C

> <scaffold_SMILES>
Cc1ccncc1NC(=O)Cc1cc(Cl)cc(Br)c1

$$$$
EN300-246322
  -OEChem-07272002233D

 71 73  0     0  0  0  0  0  0999 V2000
    5.0000    1.4070   18.8080 C   0  0  0  0  0  0  0  0  0  0  0  0
   11.0490    1.0010   23.0460 C   0  0  0  0  0  0  0  0  0  0  0  0
   13.3680    0.4840   22.6240 C   0  0  0  0  0  0  0  0  0  0  0  0
   11.6520   -1.1420   22.1450 C   0  0  0  0  0  0  0  0  0  0  0  0
    5.5330    1.3060   17.5390 C   0  0  0  0  0  0  0  0  0  0  0  0
   12.0376    3.3635   24.4747 C   0  0  0  0  0  0  0  0  0  0  0  0
   13.8752    3.3438   23.0328 C   0  0  0  0  0  0  0  0  0  0  0  0
    7.2400   -0.0390   18.2610 C   0  0  0  0  0  0  0  0  0  0  0  0
   12.3850    1.3610   23.0530 C   0  0  0  0  0  0  0  0  0  0  0  0
   12.7648    2.6841   23.5187 C   0  0  0  0  0  0  0  0  0  0  0  0
    5.6260    0.7590   19.8690 C   0  0  0  0  0  0  0  0  0  0  0  0
   10.6720   -0.2500   22.5660 C   0  0  0  0  0  0  0  0  0  0  0  0
    6.7930    0.0210   19.5790 C   0  0  0  0  0  0  0  0  0  0  0  0
   12.9770   -0.7640   22.1810 C   0  0  0  0  0  0  0  0  0  0  0  0
   13.4650    5.1299   24.3776 C   0  0  0  0  0  0  0  0  0  0  0  0
    8.6020    0.1230   21.2070 C   0  0  0  0  0  0  0  0  0  0  0  0
   14.1335    6.6257   26.2168 C   0  0  0  0  0  0  0  0  0  0  0  0
   13.9064    7.5055   23.8995 C   0  0  0  0  0  0  0  0  0  0  0  0
    5.0980    0.9060   21.2740 C   0  0  0  0  0  0  0  0  0  0  0  0
   15.9091    7.3649   28.3376 C   0  0  0  0  0  0  0  0  0  0  0  0
   15.0351    9.6969   28.0100 C   0  0  0  0  0  0  0  0  0  0  0  0
   13.4718    7.8636   28.7193 C   0  0  0  0  0  0  0  0  0  0  0  0
   14.9576    8.6892   21.5140 C   0  0  0  0  0  0  0  0  0  0  0  0
   13.1295    7.4531   20.3143 C   0  0  0  0  0  0  0  0  0  0  0  0
   12.5460    9.1979   22.0241 C   0  0  0  0  0  0  0  0  0  0  0  0
    9.2100   -0.5900   22.3990 C   0  0  0  0  0  0  0  0  0  0  0  0
   14.7132    8.2083   27.8978 C   0  0  0  0  0  0  0  0  0  0  0  0
   13.5466    8.1137   21.6265 C   0  0  0  0  0  0  0  0  0  0  0  0
    6.6320    0.5940   17.2520 N   0  0  0  0  0  0  0  0  0  0  0  0
   12.3602    4.5923   24.9289 N   0  0  0  0  0  0  0  0  0  0  0  0
   14.2559    4.5720   23.4413 N   0  0  0  0  0  0  0  0  0  0  0  0
    7.5630   -0.5230   20.6330 N   0  0  0  0  0  0  0  0  0  0  0  0
   13.8430    6.4487   24.8413 N   0  0  0  0  0  0  0  0  0  0  0  0
    9.0150    1.2120   20.8220 O   0  0  0  0  0  0  0  0  0  0  0  0
   14.0905    5.7365   27.0657 O   0  0  0  0  0  0  0  0  0  0  0  0
   14.2134    8.6669   24.1640 O   0  0  0  0  0  0  0  0  0  0  0  0
   14.4404    7.9285   26.5200 O   0  0  0  0  0  0  0  0  0  0  0  0
   13.5471    7.1004   22.6385 O   0  0  0  0  0  0  0  0  0  0  0  0
   14.1940   -1.9100   21.6990 Cl  0  0  0  0  0  0  0  0  0  0  0  0
    4.0894    1.9955   18.9731 H   0  0  0  0  0  0  0  0  0  0  0  0
   10.2869    1.6872   23.4130 H   0  0  0  0  0  0  0  0  0  0  0  0
   14.4085    0.7689   22.6365 H   0  0  0  0  0  0  0  0  0  0  0  0
   11.3634   -2.1298   21.7910 H   0  0  0  0  0  0  0  0  0  0  0  0
    5.0712    1.8129   16.6995 H   0  0  0  0  0  0  0  0  0  0  0  0
   11.1464    2.9353   24.9237 H   0  0  0  0  0  0  0  0  0  0  0  0
   14.5166    2.8998   22.2773 H   0  0  0  0  0  0  0  0  0  0  0  0
    8.1159   -0.6122   17.9919 H   0  0  0  0  0  0  0  0  0  0  0  0
    4.4158    1.7617   21.3357 H   0  0  0  0  0  0  0  0  0  0  0  0
    4.5585    0.0050   21.5909 H   0  0  0  0  0  0  0  0  0  0  0  0
    5.9149    1.0576   21.9904 H   0  0  0  0  0  0  0  0  0  0  0  0
   15.6821    6.2958   28.2586 H   0  0  0  0  0  0  0  0  0  0  0  0
   16.7968    7.5776   27.7331 H   0  0  0  0  0  0  0  0  0  0  0  0
   16.1538    7.5520   29.3895 H   0  0  0  0  0  0  0  0  0  0  0  0
   14.1798   10.3058   27.6954 H   0  0  0  0  0  0  0  0  0  0  0  0
   15.8664    9.9674   27.3489 H   0  0  0  0  0  0  0  0  0  0  0  0
   15.3016    9.9765   29.0343 H   0  0  0  0  0  0  0  0  0  0  0  0
   12.6139    8.4683   28.4039 H   0  0  0  0  0  0  0  0  0  0  0  0
   13.2041    6.8065   28.6213 H   0  0  0  0  0  0  0  0  0  0  0  0
   13.6329    8.0851   29.7805 H   0  0  0  0  0  0  0  0  0  0  0  0
   15.2607    9.1643   22.4539 H   0  0  0  0  0  0  0  0  0  0  0  0
   15.6902    7.9151   21.2635 H   0  0  0  0  0  0  0  0  0  0  0  0
   15.0016    9.4691   20.7452 H   0  0  0  0  0  0  0  0  0  0  0  0
   12.1177    7.0387   20.3905 H   0  0  0  0  0  0  0  0  0  0  0  0
   13.7900    6.6123   20.0733 H   0  0  0  0  0  0  0  0  0  0  0  0
   13.1520    8.1618   19.4802 H   0  0  0  0  0  0  0  0  0  0  0  0
   11.5338    8.7853   22.1049 H   0  0  0  0  0  0  0  0  0  0  0  0
   12.8092    9.6578   22.9822 H   0  0  0  0  0  0  0  0  0  0  0  0
   12.4996    9.9838   21.2616 H   0  0  0  0  0  0  0  0  0  0  0  0
    9.0901   -1.6664   22.2639 H   0  0  0  0  0  0  0  0  0  0  0  0
    8.6579   -0.3097   23.2977 H   0  0  0  0  0  0  0  0  0  0  0  0
    7.3129   -1.4300   20.9567 H   0  0  0  0  0  0  0  0  0  0  0  0
  1  5  2  0  0  0  0
  1 11  1  0  0  0  0
  2  9  1  0  0  0  0
  2 12  2  0  0  0  0
  3  9  2  0  0  0  0
  3 14  1  0  0  0  0
  4 12  1  0  0  0  0
  4 14  2  0  0  0  0
  5 29  1  0  0  0  0
  6 10  1  0  0  0  0
  6 30  2  0  0  0  0
  7 10  2  0  0  0  0
  7 31  1  0  0  0  0
  8 13  1  0  0  0  0
  8 29  2  0  0  0  0
  9 10  1  0  0  0  0
 11 13  2  0  0  0  0
 11 19  1  0  0  0  0
 12 26  1  0  0  0  0
 13 32  1  0  0  0  0
 14 39  1  0  0  0  0
 15 30  1  0  0  0  0
 15 31  2  0  0  0  0
 15 33  1  0  0  0  0
 16 26  1  0  0  0  0
 16 32  1  0  0  0  0
 16 34  2  0  0  0  0
 17 33  1  0  0  0  0
 17 35  2  0  0  0  0
 17 37  1  0  0  0  0
 18 33  1  0  0  0  0
 18 36  2  0  0  0  0
 18 38  1  0  0  0  0
 20 27  1  0  0  0  0
 21 27  1  0  0  0  0
 22 27  1  0  0  0  0
 23 28  1  0  0  0  0
 24 28  1  0  0  0  0
 25 28  1  0  0  0  0
 27 37  1  0  0  0  0
 28 38  1  0  0  0  0
  1 40  1  0  0  0  0
  2 41  1  0  0  0  0
  3 42  1  0  0  0  0
  4 43  1  0  0  0  0
  5 44  1  0  0  0  0
  6 45  1  0  0  0  0
  7 46  1  0  0  0  0
  8 47  1  0  0  0  0
 19 48  1  0  0  0  0
 19 49  1  0  0  0  0
 19 50  1  0  0  0  0
 20 51  1  0  0  0  0
 20 52  1  0  0  0  0
 20 53  1  0  0  0  0
 21 54  1  0  0  0  0
 21 55  1  0  0  0  0
 21 56  1  0  0  0  0
 22 57  1  0  0  0  0
 22 58  1  0  0  0  0
 22 59  1  0  0  0  0
 23 60  1  0  0  0  0
 23 61  1  0  0  0  0
 23 62  1  0  0  0  0
 24 63  1  0  0  0  0
 24 64  1  0  0  0  0
 24 65  1  0  0  0  0
 25 66  1  0  0  0  0
 25 67  1  0  0  0  0
 25 68  1  0  0  0  0
 26 69  1  0  0  0  0
 26 70  1  0  0  0  0
 32 71  1  0  0  0  0
M  END
> <BB_SMILES>
CC(C)(C)OC(=O)N(C(=O)OC(C)(C)C)c1ncc(B2OC(C)(C)C(C)(C)O2)cn1

> <scaffold_SMILES>
Cc1ccncc1NC(=O)Cc1cc(Cl)cc(Br)c1

$$$$
EN300-129603
  -OEChem-07272002233D

 44 46  0     0  0  0  0  0  0999 V2000
   11.0510    4.2975   22.6128 C   0  0  0  0  0  0  0  0  0  0  0  0
   11.1391    3.9415   25.0008 C   0  0  0  0  0  0  0  0  0  0  0  0
    9.9751    5.1689   22.7824 C   0  0  0  0  0  0  0  0  0  0  0  0
   10.0633    4.8130   25.1705 C   0  0  0  0  0  0  0  0  0  0  0  0
    5.0000    1.4070   18.8080 C   0  0  0  0  0  0  0  0  0  0  0  0
   11.0490    1.0010   23.0460 C   0  0  0  0  0  0  0  0  0  0  0  0
   13.3680    0.4840   22.6240 C   0  0  0  0  0  0  0  0  0  0  0  0
   11.6520   -1.1420   22.1450 C   0  0  0  0  0  0  0  0  0  0  0  0
    5.5330    1.3060   17.5390 C   0  0  0  0  0  0  0  0  0  0  0  0
    7.2400   -0.0390   18.2610 C   0  0  0  0  0  0  0  0  0  0  0  0
   11.6330    3.6837   23.7220 C   0  0  0  0  0  0  0  0  0  0  0  0
    5.6260    0.7590   19.8690 C   0  0  0  0  0  0  0  0  0  0  0  0
   12.3850    1.3610   23.0530 C   0  0  0  0  0  0  0  0  0  0  0  0
   10.6720   -0.2500   22.5660 C   0  0  0  0  0  0  0  0  0  0  0  0
    6.7930    0.0210   19.5790 C   0  0  0  0  0  0  0  0  0  0  0  0
    9.4813    5.4267   24.0612 C   0  0  0  0  0  0  0  0  0  0  0  0
   12.9770   -0.7640   22.1810 C   0  0  0  0  0  0  0  0  0  0  0  0
    8.6020    0.1230   21.2070 C   0  0  0  0  0  0  0  0  0  0  0  0
    5.0980    0.9060   21.2740 C   0  0  0  0  0  0  0  0  0  0  0  0
   12.7837    2.7525   23.5415 C   0  0  0  0  0  0  0  0  0  0  0  0
    9.2100   -0.5900   22.3990 C   0  0  0  0  0  0  0  0  0  0  0  0
    6.6320    0.5940   17.2520 N   0  0  0  0  0  0  0  0  0  0  0  0
    7.5630   -0.5230   20.6330 N   0  0  0  0  0  0  0  0  0  0  0  0
    9.0150    1.2120   20.8220 O   0  0  0  0  0  0  0  0  0  0  0  0
    8.4499    6.2657   24.2245 F   0  0  0  0  0  0  0  0  0  0  0  0
   14.1940   -1.9100   21.6990 Cl  0  0  0  0  0  0  0  0  0  0  0  0
   11.4283    4.1022   21.6124 H   0  0  0  0  0  0  0  0  0  0  0  0
   11.5864    3.4681   25.8710 H   0  0  0  0  0  0  0  0  0  0  0  0
    9.5224    5.6473   21.9191 H   0  0  0  0  0  0  0  0  0  0  0  0
    9.6783    5.0136   26.1658 H   0  0  0  0  0  0  0  0  0  0  0  0
    4.0894    1.9955   18.9731 H   0  0  0  0  0  0  0  0  0  0  0  0
   10.2922    1.6915   23.4141 H   0  0  0  0  0  0  0  0  0  0  0  0
   14.4065    0.7745   22.6386 H   0  0  0  0  0  0  0  0  0  0  0  0
   11.3638   -2.1301   21.7911 H   0  0  0  0  0  0  0  0  0  0  0  0
    5.0712    1.8129   16.6995 H   0  0  0  0  0  0  0  0  0  0  0  0
    8.1159   -0.6122   17.9919 H   0  0  0  0  0  0  0  0  0  0  0  0
    4.5219    1.8338   21.3681 H   0  0  0  0  0  0  0  0  0  0  0  0
    4.4500    0.0631   21.5441 H   0  0  0  0  0  0  0  0  0  0  0  0
    5.9161    0.9266   22.0046 H   0  0  0  0  0  0  0  0  0  0  0  0
   13.5204    3.1797   22.8385 H   0  0  0  0  0  0  0  0  0  0  0  0
   13.3507    2.6505   24.4836 H   0  0  0  0  0  0  0  0  0  0  0  0
    9.0902   -1.6664   22.2639 H   0  0  0  0  0  0  0  0  0  0  0  0
    8.6579   -0.3097   23.2977 H   0  0  0  0  0  0  0  0  0  0  0  0
    7.3129   -1.4300   20.9567 H   0  0  0  0  0  0  0  0  0  0  0  0
  1  3  2  0  0  0  0
  1 11  1  0  0  0  0
  2  4  1  0  0  0  0
  2 11  2  0  0  0  0
  3 16  1  0  0  0  0
  4 16  2  0  0  0  0
  5  9  2  0  0  0  0
  5 12  1  0  0  0  0
  6 13  1  0  0  0  0
  6 14  2  0  0  0  0
  7 13  2  0  0  0  0
  7 17  1  0  0  0  0
  8 14  1  0  0  0  0
  8 17  2  0  0  0  0
  9 22  1  0  0  0  0
 10 15  1  0  0  0  0
 10 22  2  0  0  0  0
 11 20  1  0  0  0  0
 12 15  2  0  0  0  0
 12 19  1  0  0  0  0
 13 20  1  0  0  0  0
 14 21  1  0  0  0  0
 15 23  1  0  0  0  0
 16 25  1  0  0  0  0
 17 26  1  0  0  0  0
 18 21  1  0  0  0  0
 18 23  1  0  0  0  0
 18 24  2  0  0  0  0
  1 27  1  0  0  0  0
  2 28  1  0  0  0  0
  3 29  1  0  0  0  0
  4 30  1  0  0  0  0
  5 31  1  0  0  0  0
  6 32  1  0  0  0  0
  7 33  1  0  0  0  0
  8 34  1  0  0  0  0
  9 35  1  0  0  0  0
 10 36  1  0  0  0  0
 19 37  1  0  0  0  0
 19 38  1  0  0  0  0
 19 39  1  0  0  0  0
 20 40  1  0  0  0  0
 20 41  1  0  0  0  0
 21 42  1  0  0  0  0
 21 43  1  0  0  0  0
 23 44  1  0  0  0  0
M  END
> <BB_SMILES>
CC1(C)OB(Cc2ccc(F)cc2)OC1(C)C

> <scaffold_SMILES>
Cc1ccncc1NC(=O)Cc1cc(Cl)cc(Br)c1

$$$$
EN300-259919
  -OEChem-07272002233D

 37 38  0     0  0  0  0  0  0999 V2000
    5.0000    1.4070   18.8080 C   0  0  0  0  0  0  0  0  0  0  0  0
   11.0490    1.0010   23.0460 C   0  0  0  0  0  0  0  0  0  0  0  0
   11.6520   -1.1420   22.1450 C   0  0  0  0  0  0  0  0  0  0  0  0
   13.3680    0.4840   22.6240 C   0  0  0  0  0  0  0  0  0  0  0  0
    5.5330    1.3060   17.5390 C   0  0  0  0  0  0  0  0  0  0  0  0
    7.2400   -0.0390   18.2610 C   0  0  0  0  0  0  0  0  0  0  0  0
    5.6260    0.7590   19.8690 C   0  0  0  0  0  0  0  0  0  0  0  0
   10.6720   -0.2500   22.5660 C   0  0  0  0  0  0  0  0  0  0  0  0
   12.3850    1.3610   23.0530 C   0  0  0  0  0  0  0  0  0  0  0  0
    6.7930    0.0210   19.5790 C   0  0  0  0  0  0  0  0  0  0  0  0
   12.9770   -0.7640   22.1810 C   0  0  0  0  0  0  0  0  0  0  0  0
    8.6020    0.1230   21.2070 C   0  0  0  0  0  0  0  0  0  0  0  0
    5.0980    0.9060   21.2740 C   0  0  0  0  0  0  0  0  0  0  0  0
    9.2100   -0.5900   22.3990 C   0  0  0  0  0  0  0  0  0  0  0  0
   12.7773    2.7295   23.5372 C   0  0  0  0  0  0  0  0  0  0  0  0
    6.6320    0.5940   17.2520 N   0  0  0  0  0  0  0  0  0  0  0  0
    7.5630   -0.5230   20.6330 N   0  0  0  0  0  0  0  0  0  0  0  0
   12.8074    3.7531   22.4562 N   0  3  0  0  0  0  0  0  0  0  0  0
    9.0150    1.2120   20.8220 O   0  0  0  0  0  0  0  0  0  0  0  0
   14.1940   -1.9100   21.6990 Cl  0  0  0  0  0  0  0  0  0  0  0  0
    4.0894    1.9955   18.9731 H   0  0  0  0  0  0  0  0  0  0  0  0
   10.2920    1.6914   23.4138 H   0  0  0  0  0  0  0  0  0  0  0  0
   11.3638   -2.1302   21.7909 H   0  0  0  0  0  0  0  0  0  0  0  0
   14.4063    0.7746   22.6384 H   0  0  0  0  0  0  0  0  0  0  0  0
    5.0712    1.8129   16.6995 H   0  0  0  0  0  0  0  0  0  0  0  0
    8.1159   -0.6122   17.9919 H   0  0  0  0  0  0  0  0  0  0  0  0
    4.7841   -0.0685   21.6656 H   0  0  0  0  0  0  0  0  0  0  0  0
    5.8614    1.3222   21.9428 H   0  0  0  0  0  0  0  0  0  0  0  0
    4.2397    1.5885   21.3053 H   0  0  0  0  0  0  0  0  0  0  0  0
    9.0902   -1.6664   22.2639 H   0  0  0  0  0  0  0  0  0  0  0  0
    8.6579   -0.3097   23.2977 H   0  0  0  0  0  0  0  0  0  0  0  0
   12.0793    3.1053   24.2977 H   0  0  0  0  0  0  0  0  0  0  0  0
   13.7796    2.7269   23.9869 H   0  0  0  0  0  0  0  0  0  0  0  0
    7.3129   -1.4300   20.9567 H   0  0  0  0  0  0  0  0  0  0  0  0
   11.8598    3.9649   22.1324 H   0  0  0  0  0  0  0  0  0  0  0  0
   13.3519    3.4177   21.6566 H   0  0  0  0  0  0  0  0  0  0  0  0
   13.2330    4.6214   22.7923 H   0  0  0  0  0  0  0  0  0  0  0  0
  1  5  2  0  0  0  0
  1  7  1  0  0  0  0
  2  8  2  0  0  0  0
  2  9  1  0  0  0  0
  3  8  1  0  0  0  0
  3 11  2  0  0  0  0
  4  9  2  0  0  0  0
  4 11  1  0  0  0  0
  5 16  1  0  0  0  0
  6 10  1  0  0  0  0
  6 16  2  0  0  0  0
  7 10  2  0  0  0  0
  7 13  1  0  0  0  0
  8 14  1  0  0  0  0
  9 15  1  0  0  0  0
 10 17  1  0  0  0  0
 11 20  1  0  0  0  0
 12 14  1  0  0  0  0
 12 17  1  0  0  0  0
 12 19  2  0  0  0  0
 15 18  1  0  0  0  0
  1 21  1  0  0  0  0
  2 22  1  0  0  0  0
  3 23  1  0  0  0  0
  4 24  1  0  0  0  0
  5 25  1  0  0  0  0
  6 26  1  0  0  0  0
 13 27  1  0  0  0  0
 13 28  1  0  0  0  0
 13 29  1  0  0  0  0
 14 30  1  0  0  0  0
 14 31  1  0  0  0  0
 15 32  1  0  0  0  0
 15 33  1  0  0  0  0
 17 34  1  0  0  0  0
 18 35  1  0  0  0  0
 18 36  1  0  0  0  0
 18 37  1  0  0  0  0
M  CHG  1  18   1
M  END
> <BB_SMILES>
CC1(C)OB(CN)OC1(C)C

> <scaffold_SMILES>
Cc1ccncc1NC(=O)Cc1cc(Cl)cc(Br)c1

$$$$
EN300-342292
  -OEChem-07272002233D

 40 42  0     0  0  0  0  0  0999 V2000
   12.7620    2.6726   23.5166 C   0  0  0  0  0  0  0  0  0  0  0  0
   13.0746    3.7655   23.9047 C   0  0  0  0  0  0  0  0  0  0  0  0
    5.0000    1.4070   18.8080 C   0  0  0  0  0  0  0  0  0  0  0  0
   11.0490    1.0010   23.0460 C   0  0  0  0  0  0  0  0  0  0  0  0
   13.3680    0.4840   22.6240 C   0  0  0  0  0  0  0  0  0  0  0  0
   11.6520   -1.1420   22.1450 C   0  0  0  0  0  0  0  0  0  0  0  0
    5.5330    1.3060   17.5390 C   0  0  0  0  0  0  0  0  0  0  0  0
    7.2400   -0.0390   18.2610 C   0  0  0  0  0  0  0  0  0  0  0  0
   12.3850    1.3610   23.0530 C   0  0  0  0  0  0  0  0  0  0  0  0
    5.6260    0.7590   19.8690 C   0  0  0  0  0  0  0  0  0  0  0  0
   10.6720   -0.2500   22.5660 C   0  0  0  0  0  0  0  0  0  0  0  0
    6.7930    0.0210   19.5790 C   0  0  0  0  0  0  0  0  0  0  0  0
   12.9770   -0.7640   22.1810 C   0  0  0  0  0  0  0  0  0  0  0  0
    8.6020    0.1230   21.2070 C   0  0  0  0  0  0  0  0  0  0  0  0
   13.5742    5.3037   25.8498 C   0  0  0  0  0  0  0  0  0  0  0  0
   12.4240    5.9008   25.0950 C   0  0  0  0  0  0  0  0  0  0  0  0
   13.4544    5.0957   24.3779 C   0  0  0  0  0  0  0  0  0  0  0  0
    5.0980    0.9060   21.2740 C   0  0  0  0  0  0  0  0  0  0  0  0
    9.2100   -0.5900   22.3990 C   0  0  0  0  0  0  0  0  0  0  0  0
    6.6320    0.5940   17.2520 N   0  0  0  0  0  0  0  0  0  0  0  0
    7.5630   -0.5230   20.6330 N   0  0  0  0  0  0  0  0  0  0  0  0
    9.0150    1.2120   20.8220 O   0  0  0  0  0  0  0  0  0  0  0  0
   14.1940   -1.9100   21.6990 Cl  0  0  0  0  0  0  0  0  0  0  0  0
    4.0894    1.9955   18.9731 H   0  0  0  0  0  0  0  0  0  0  0  0
   10.2873    1.6870   23.4140 H   0  0  0  0  0  0  0  0  0  0  0  0
   14.4089    0.7683   22.6364 H   0  0  0  0  0  0  0  0  0  0  0  0
   11.3635   -2.1302   21.7917 H   0  0  0  0  0  0  0  0  0  0  0  0
    5.0712    1.8129   16.6995 H   0  0  0  0  0  0  0  0  0  0  0  0
    8.1159   -0.6122   17.9919 H   0  0  0  0  0  0  0  0  0  0  0  0
   14.3554    5.9737   26.1891 H   0  0  0  0  0  0  0  0  0  0  0  0
   13.3593    4.4900   26.5323 H   0  0  0  0  0  0  0  0  0  0  0  0
   11.4380    5.4875   25.2719 H   0  0  0  0  0  0  0  0  0  0  0  0
   12.4329    6.9709   24.9255 H   0  0  0  0  0  0  0  0  0  0  0  0
   14.1403    5.6087   23.7317 H   0  0  0  0  0  0  0  0  0  0  0  0
    4.4453    1.7838   21.3445 H   0  0  0  0  0  0  0  0  0  0  0  0
    4.5266    0.0201   21.5774 H   0  0  0  0  0  0  0  0  0  0  0  0
    5.9169    1.0201   21.9951 H   0  0  0  0  0  0  0  0  0  0  0  0
    9.0902   -1.6664   22.2639 H   0  0  0  0  0  0  0  0  0  0  0  0
    8.6579   -0.3097   23.2977 H   0  0  0  0  0  0  0  0  0  0  0  0
    7.3129   -1.4300   20.9567 H   0  0  0  0  0  0  0  0  0  0  0  0
  1  2  3  0  0  0  0
  1  9  1  0  0  0  0
  2 17  1  0  0  0  0
  3  7  2  0  0  0  0
  3 10  1  0  0  0  0
  4  9  1  0  0  0  0
  4 11  2  0  0  0  0
  5  9  2  0  0  0  0
  5 13  1  0  0  0  0
  6 11  1  0  0  0  0
  6 13  2  0  0  0  0
  7 20  1  0  0  0  0
  8 12  1  0  0  0  0
  8 20  2  0  0  0  0
 10 12  2  0  0  0  0
 10 18  1  0  0  0  0
 11 19  1  0  0  0  0
 12 21  1  0  0  0  0
 13 23  1  0  0  0  0
 14 19  1  0  0  0  0
 14 21  1  0  0  0  0
 14 22  2  0  0  0  0
 15 16  1  0  0  0  0
 15 17  1  0  0  0  0
 16 17  1  0  0  0  0
  3 24  1  0  0  0  0
  4 25  1  0  0  0  0
  5 26  1  0  0  0  0
  6 27  1  0  0  0  0
  7 28  1  0  0  0  0
  8 29  1  0  0  0  0
 15 30  1  0  0  0  0
 15 31  1  0  0  0  0
 16 32  1  0  0  0  0
 16 33  1  0  0  0  0
 17 34  1  0  0  0  0
 18 35  1  0  0  0  0
 18 36  1  0  0  0  0
 18 37  1  0  0  0  0
 19 38  1  0  0  0  0
 19 39  1  0  0  0  0
 21 40  1  0  0  0  0
M  END
> <BB_SMILES>
CC1(C)OB(C#CC2CC2)OC1(C)C

> <scaffold_SMILES>
Cc1ccncc1NC(=O)Cc1cc(Cl)cc(Br)c1

$$$$
EN300-254398
  -OEChem-07272002233D

 41 43  0     0  0  0  0  0  0999 V2000
    5.0000    1.4070   18.8080 C   0  0  0  0  0  0  0  0  0  0  0  0
   12.5247    3.2207   24.8144 C   0  0  0  0  0  0  0  0  0  0  0  0
   11.0490    1.0010   23.0460 C   0  0  0  0  0  0  0  0  0  0  0  0
   13.3680    0.4840   22.6240 C   0  0  0  0  0  0  0  0  0  0  0  0
   11.6520   -1.1420   22.1450 C   0  0  0  0  0  0  0  0  0  0  0  0
    5.5330    1.3060   17.5390 C   0  0  0  0  0  0  0  0  0  0  0  0
    7.2400   -0.0390   18.2610 C   0  0  0  0  0  0  0  0  0  0  0  0
   13.0125    4.5030   24.9375 C   0  0  0  0  0  0  0  0  0  0  0  0
   12.7637    2.6791   23.5184 C   0  0  0  0  0  0  0  0  0  0  0  0
   12.3850    1.3610   23.0530 C   0  0  0  0  0  0  0  0  0  0  0  0
    5.6260    0.7590   19.8690 C   0  0  0  0  0  0  0  0  0  0  0  0
   10.6720   -0.2500   22.5660 C   0  0  0  0  0  0  0  0  0  0  0  0
    6.7930    0.0210   19.5790 C   0  0  0  0  0  0  0  0  0  0  0  0
   12.9770   -0.7640   22.1810 C   0  0  0  0  0  0  0  0  0  0  0  0
   13.4251    3.5684   22.7001 C   0  0  0  0  0  0  0  0  0  0  0  0
    8.6020    0.1230   21.2070 C   0  0  0  0  0  0  0  0  0  0  0  0
    5.0980    0.9060   21.2740 C   0  0  0  0  0  0  0  0  0  0  0  0
    9.2100   -0.5900   22.3990 C   0  0  0  0  0  0  0  0  0  0  0  0
   13.8620    3.4059   21.2932 C   0  0  0  0  0  0  0  0  0  0  0  0
    6.6320    0.5940   17.2520 N   0  0  0  0  0  0  0  0  0  0  0  0
    7.5630   -0.5230   20.6330 N   0  0  0  0  0  0  0  0  0  0  0  0
    9.0150    1.2120   20.8220 O   0  0  0  0  0  0  0  0  0  0  0  0
   13.5517    2.1869   20.7510 F   0  0  0  0  0  0  0  0  0  0  0  0
   13.3140    4.3189   20.4317 F   0  0  0  0  0  0  0  0  0  0  0  0
   15.2155    3.5331   21.1358 F   0  0  0  0  0  0  0  0  0  0  0  0
   13.7552    5.0491   23.4943 S   0  0  0  0  0  0  0  0  0  0  0  0
   14.1940   -1.9100   21.6990 Cl  0  0  0  0  0  0  0  0  0  0  0  0
    4.0894    1.9955   18.9731 H   0  0  0  0  0  0  0  0  0  0  0  0
   12.0215    2.7027   25.6211 H   0  0  0  0  0  0  0  0  0  0  0  0
   10.2867    1.6869   23.4134 H   0  0  0  0  0  0  0  0  0  0  0  0
   14.4087    0.7684   22.6364 H   0  0  0  0  0  0  0  0  0  0  0  0
   11.3634   -2.1302   21.7917 H   0  0  0  0  0  0  0  0  0  0  0  0
    5.0712    1.8129   16.6995 H   0  0  0  0  0  0  0  0  0  0  0  0
    8.1159   -0.6122   17.9919 H   0  0  0  0  0  0  0  0  0  0  0  0
   12.9684    5.1448   25.8060 H   0  0  0  0  0  0  0  0  0  0  0  0
    4.4452    1.7837   21.3445 H   0  0  0  0  0  0  0  0  0  0  0  0
    4.5267    0.0201   21.5774 H   0  0  0  0  0  0  0  0  0  0  0  0
    5.9169    1.0203   21.9951 H   0  0  0  0  0  0  0  0  0  0  0  0
    9.0901   -1.6664   22.2639 H   0  0  0  0  0  0  0  0  0  0  0  0
    8.6579   -0.3097   23.2977 H   0  0  0  0  0  0  0  0  0  0  0  0
    7.3129   -1.4300   20.9567 H   0  0  0  0  0  0  0  0  0  0  0  0
  1  6  2  0  0  0  0
  1 11  1  0  0  0  0
  2  8  2  0  0  0  0
  2  9  1  0  0  0  0
  3 10  1  0  0  0  0
  3 12  2  0  0  0  0
  4 10  2  0  0  0  0
  4 14  1  0  0  0  0
  5 12  1  0  0  0  0
  5 14  2  0  0  0  0
  6 20  1  0  0  0  0
  7 13  1  0  0  0  0
  7 20  2  0  0  0  0
  8 26  1  0  0  0  0
  9 10  1  0  0  0  0
  9 15  2  0  0  0  0
 11 13  2  0  0  0  0
 11 17  1  0  0  0  0
 12 18  1  0  0  0  0
 13 21  1  0  0  0  0
 14 27  1  0  0  0  0
 15 19  1  0  0  0  0
 15 26  1  0  0  0  0
 16 18  1  0  0  0  0
 16 21  1  0  0  0  0
 16 22  2  0  0  0  0
 19 23  1  0  0  0  0
 19 24  1  0  0  0  0
 19 25  1  0  0  0  0
  1 28  1  0  0  0  0
  2 29  1  0  0  0  0
  3 30  1  0  0  0  0
  4 31  1  0  0  0  0
  5 32  1  0  0  0  0
  6 33  1  0  0  0  0
  7 34  1  0  0  0  0
  8 35  1  0  0  0  0
 17 36  1  0  0  0  0
 17 37  1  0  0  0  0
 17 38  1  0  0  0  0
 18 39  1  0  0  0  0
 18 40  1  0  0  0  0
 21 41  1  0  0  0  0
M  END
> <BB_SMILES>
CC1(C)OB(c2ccsc2C(F)(F)F)OC1(C)C

> <scaffold_SMILES>
Cc1ccncc1NC(=O)Cc1cc(Cl)cc(Br)c1

$$$$
EN300-703510
  -OEChem-07272002233D

 48 50  0     0  0  0  0  0  0999 V2000
    5.0000    1.4070   18.8080 C   0  0  0  0  0  0  0  0  0  0  0  0
   11.0490    1.0010   23.0460 C   0  0  0  0  0  0  0  0  0  0  0  0
   13.3680    0.4840   22.6240 C   0  0  0  0  0  0  0  0  0  0  0  0
   11.6520   -1.1420   22.1450 C   0  0  0  0  0  0  0  0  0  0  0  0
    5.5330    1.3060   17.5390 C   0  0  0  0  0  0  0  0  0  0  0  0
    7.2400   -0.0390   18.2610 C   0  0  0  0  0  0  0  0  0  0  0  0
   12.3850    1.3610   23.0530 C   0  0  0  0  0  0  0  0  0  0  0  0
    5.6260    0.7590   19.8690 C   0  0  0  0  0  0  0  0  0  0  0  0
   10.6720   -0.2500   22.5660 C   0  0  0  0  0  0  0  0  0  0  0  0
    6.7930    0.0210   19.5790 C   0  0  0  0  0  0  0  0  0  0  0  0
   12.9770   -0.7640   22.1810 C   0  0  0  0  0  0  0  0  0  0  0  0
   12.8289    3.7637   22.7382 C   0  0  0  0  0  0  0  0  0  0  0  0
   12.7623    2.6738   23.5170 C   0  0  0  0  0  0  0  0  0  0  0  0
    8.6020    0.1230   21.2070 C   0  0  0  0  0  0  0  0  0  0  0  0
   13.2314    5.1131   23.2816 C   0  0  0  0  0  0  0  0  0  0  0  0
   12.4969    3.7183   21.2665 C   0  0  0  0  0  0  0  0  0  0  0  0
   14.4824    5.6465   22.5947 C   0  0  0  0  0  0  0  0  0  0  0  0
   13.6853    4.1329   20.4080 C   0  0  0  0  0  0  0  0  0  0  0  0
    5.0980    0.9060   21.2740 C   0  0  0  0  0  0  0  0  0  0  0  0
    9.2100   -0.5900   22.3990 C   0  0  0  0  0  0  0  0  0  0  0  0
    6.6320    0.5940   17.2520 N   0  0  0  0  0  0  0  0  0  0  0  0
    7.5630   -0.5230   20.6330 N   0  0  0  0  0  0  0  0  0  0  0  0
    9.0150    1.2120   20.8220 O   0  0  0  0  0  0  0  0  0  0  0  0
   13.2043    6.7137   20.5597 O   0  0  0  0  0  0  0  0  0  0  0  0
   15.5803    5.9357   20.2318 O   0  0  0  0  0  0  0  0  0  0  0  0
   14.2690    5.7663   20.8272 S   0  0  0  0  0  0  0  0  0  0  0  0
   14.1940   -1.9100   21.6990 Cl  0  0  0  0  0  0  0  0  0  0  0  0
    4.0894    1.9955   18.9731 H   0  0  0  0  0  0  0  0  0  0  0  0
   10.2871    1.6869   23.4136 H   0  0  0  0  0  0  0  0  0  0  0  0
   14.4083    0.7693   22.6351 H   0  0  0  0  0  0  0  0  0  0  0  0
   11.3638   -2.1297   21.7903 H   0  0  0  0  0  0  0  0  0  0  0  0
    5.0712    1.8129   16.6995 H   0  0  0  0  0  0  0  0  0  0  0  0
    8.1159   -0.6122   17.9919 H   0  0  0  0  0  0  0  0  0  0  0  0
   12.9838    2.8022   24.5733 H   0  0  0  0  0  0  0  0  0  0  0  0
   12.3976    5.8117   23.1397 H   0  0  0  0  0  0  0  0  0  0  0  0
   13.4153    5.0625   24.3614 H   0  0  0  0  0  0  0  0  0  0  0  0
   12.1780    2.7129   20.9669 H   0  0  0  0  0  0  0  0  0  0  0  0
   11.6461    4.3846   21.0779 H   0  0  0  0  0  0  0  0  0  0  0  0
   14.7283    6.6489   22.9584 H   0  0  0  0  0  0  0  0  0  0  0  0
   15.3422    4.9919   22.7740 H   0  0  0  0  0  0  0  0  0  0  0  0
   14.5272    3.4443   20.5381 H   0  0  0  0  0  0  0  0  0  0  0  0
   13.4123    4.1502   19.3484 H   0  0  0  0  0  0  0  0  0  0  0  0
    4.6089    1.8793   21.3960 H   0  0  0  0  0  0  0  0  0  0  0  0
    4.3721    0.1179   21.5090 H   0  0  0  0  0  0  0  0  0  0  0  0
    5.9063    0.8259   22.0115 H   0  0  0  0  0  0  0  0  0  0  0  0
    9.0900   -1.6664   22.2639 H   0  0  0  0  0  0  0  0  0  0  0  0
    8.6578   -0.3097   23.2977 H   0  0  0  0  0  0  0  0  0  0  0  0
    7.3129   -1.4300   20.9567 H   0  0  0  0  0  0  0  0  0  0  0  0
  1  5  2  0  0  0  0
  1  8  1  0  0  0  0
  2  7  1  0  0  0  0
  2  9  2  0  0  0  0
  3  7  2  0  0  0  0
  3 11  1  0  0  0  0
  4  9  1  0  0  0  0
  4 11  2  0  0  0  0
  5 21  1  0  0  0  0
  6 10  1  0  0  0  0
  6 21  2  0  0  0  0
  7 13  1  0  0  0  0
  8 10  2  0  0  0  0
  8 19  1  0  0  0  0
  9 20  1  0  0  0  0
 10 22  1  0  0  0  0
 11 27  1  0  0  0  0
 12 13  2  0  0  0  0
 12 15  1  0  0  0  0
 12 16  1  0  0  0  0
 14 20  1  0  0  0  0
 14 22  1  0  0  0  0
 14 23  2  0  0  0  0
 15 17  1  0  0  0  0
 16 18  1  0  0  0  0
 17 26  1  0  0  0  0
 18 26  1  0  0  0  0
 24 26  2  0  0  0  0
 25 26  2  0  0  0  0
  1 28  1  0  0  0  0
  2 29  1  0  0  0  0
  3 30  1  0  0  0  0
  4 31  1  0  0  0  0
  5 32  1  0  0  0  0
  6 33  1  0  0  0  0
 13 34  1  0  0  0  0
 15 35  1  0  0  0  0
 15 36  1  0  0  0  0
 16 37  1  0  0  0  0
 16 38  1  0  0  0  0
 17 39  1  0  0  0  0
 17 40  1  0  0  0  0
 18 41  1  0  0  0  0
 18 42  1  0  0  0  0
 19 43  1  0  0  0  0
 19 44  1  0  0  0  0
 19 45  1  0  0  0  0
 20 46  1  0  0  0  0
 20 47  1  0  0  0  0
 22 48  1  0  0  0  0
M  END
> <BB_SMILES>
CC1(C)OB(C=C2CCS(=O)(=O)CC2)OC1(C)C

> <scaffold_SMILES>
Cc1ccncc1NC(=O)Cc1cc(Cl)cc(Br)c1

$$$$
EN300-206193
  -OEChem-07272002233D

 46 47  0     0  0  0  0  0  0999 V2000
    5.0000    1.4070   18.8080 C   0  0  0  0  0  0  0  0  0  0  0  0
   11.0490    1.0010   23.0460 C   0  0  0  0  0  0  0  0  0  0  0  0
   11.6520   -1.1420   22.1450 C   0  0  0  0  0  0  0  0  0  0  0  0
   13.3680    0.4840   22.6240 C   0  0  0  0  0  0  0  0  0  0  0  0
    5.5330    1.3060   17.5390 C   0  0  0  0  0  0  0  0  0  0  0  0
    7.2400   -0.0390   18.2610 C   0  0  0  0  0  0  0  0  0  0  0  0
    5.6260    0.7590   19.8690 C   0  0  0  0  0  0  0  0  0  0  0  0
   10.6720   -0.2500   22.5660 C   0  0  0  0  0  0  0  0  0  0  0  0
   12.3850    1.3610   23.0530 C   0  0  0  0  0  0  0  0  0  0  0  0
    6.7930    0.0210   19.5790 C   0  0  0  0  0  0  0  0  0  0  0  0
   12.9770   -0.7640   22.1810 C   0  0  0  0  0  0  0  0  0  0  0  0
    8.6020    0.1230   21.2070 C   0  0  0  0  0  0  0  0  0  0  0  0
    5.0980    0.9060   21.2740 C   0  0  0  0  0  0  0  0  0  0  0  0
   13.8360    7.5264   22.2267 C   0  0  0  0  0  0  0  0  0  0  0  0
    9.2100   -0.5900   22.3990 C   0  0  0  0  0  0  0  0  0  0  0  0
   12.7790    2.7356   23.5393 C   0  0  0  0  0  0  0  0  0  0  0  0
   13.3275    6.1710   21.7619 C   0  0  0  0  0  0  0  0  0  0  0  0
   12.8124    3.7894   22.4281 C   0  0  0  0  0  0  0  0  0  0  0  0
   13.2885    5.1631   22.9112 C   0  0  0  0  0  0  0  0  0  0  0  0
    6.6320    0.5940   17.2520 N   0  0  0  0  0  0  0  0  0  0  0  0
    7.5630   -0.5230   20.6330 N   0  0  0  0  0  0  0  0  0  0  0  0
    9.0150    1.2120   20.8220 O   0  0  0  0  0  0  0  0  0  0  0  0
   14.1940   -1.9100   21.6990 Cl  0  0  0  0  0  0  0  0  0  0  0  0
    4.0894    1.9955   18.9731 H   0  0  0  0  0  0  0  0  0  0  0  0
   10.2920    1.6914   23.4138 H   0  0  0  0  0  0  0  0  0  0  0  0
   11.3638   -2.1302   21.7909 H   0  0  0  0  0  0  0  0  0  0  0  0
   14.4063    0.7746   22.6384 H   0  0  0  0  0  0  0  0  0  0  0  0
    5.0712    1.8129   16.6995 H   0  0  0  0  0  0  0  0  0  0  0  0
    8.1159   -0.6122   17.9919 H   0  0  0  0  0  0  0  0  0  0  0  0
    4.0114    1.0496   21.2583 H   0  0  0  0  0  0  0  0  0  0  0  0
    5.3248    0.0185   21.8775 H   0  0  0  0  0  0  0  0  0  0  0  0
    5.5568    1.7633   21.7820 H   0  0  0  0  0  0  0  0  0  0  0  0
   14.8387    7.4422   22.6577 H   0  0  0  0  0  0  0  0  0  0  0  0
   13.8861    8.2220   21.3833 H   0  0  0  0  0  0  0  0  0  0  0  0
   13.1718    7.9567   22.9830 H   0  0  0  0  0  0  0  0  0  0  0  0
    9.0902   -1.6664   22.2639 H   0  0  0  0  0  0  0  0  0  0  0  0
    8.6579   -0.3097   23.2977 H   0  0  0  0  0  0  0  0  0  0  0  0
   12.1037    3.0567   24.3420 H   0  0  0  0  0  0  0  0  0  0  0  0
   13.7763    2.6622   23.9921 H   0  0  0  0  0  0  0  0  0  0  0  0
   12.3241    6.2895   21.3365 H   0  0  0  0  0  0  0  0  0  0  0  0
   13.9776    5.7988   20.9615 H   0  0  0  0  0  0  0  0  0  0  0  0
   11.8232    3.8859   21.9639 H   0  0  0  0  0  0  0  0  0  0  0  0
   13.4945    3.4350   21.6451 H   0  0  0  0  0  0  0  0  0  0  0  0
   12.6202    5.5385   23.6945 H   0  0  0  0  0  0  0  0  0  0  0  0
   14.2883    5.0715   23.3526 H   0  0  0  0  0  0  0  0  0  0  0  0
    7.3129   -1.4300   20.9567 H   0  0  0  0  0  0  0  0  0  0  0  0
  1  5  2  0  0  0  0
  1  7  1  0  0  0  0
  2  8  1  0  0  0  0
  2  9  2  0  0  0  0
  3  8  2  0  0  0  0
  3 11  1  0  0  0  0
  4  9  1  0  0  0  0
  4 11  2  0  0  0  0
  5 20  1  0  0  0  0
  6 10  1  0  0  0  0
  6 20  2  0  0  0  0
  7 10  2  0  0  0  0
  7 13  1  0  0  0  0
  8 15  1  0  0  0  0
  9 16  1  0  0  0  0
 10 21  1  0  0  0  0
 11 23  1  0  0  0  0
 12 15  1  0  0  0  0
 12 21  1  0  0  0  0
 12 22  2  0  0  0  0
 14 17  1  0  0  0  0
 16 18  1  0  0  0  0
 17 19  1  0  0  0  0
 18 19  1  0  0  0  0
  1 24  1  0  0  0  0
  2 25  1  0  0  0  0
  3 26  1  0  0  0  0
  4 27  1  0  0  0  0
  5 28  1  0  0  0  0
  6 29  1  0  0  0  0
 13 30  1  0  0  0  0
 13 31  1  0  0  0  0
 13 32  1  0  0  0  0
 14 33  1  0  0  0  0
 14 34  1  0  0  0  0
 14 35  1  0  0  0  0
 15 36  1  0  0  0  0
 15 37  1  0  0  0  0
 16 38  1  0  0  0  0
 16 39  1  0  0  0  0
 17 40  1  0  0  0  0
 17 41  1  0  0  0  0
 18 42  1  0  0  0  0
 18 43  1  0  0  0  0
 19 44  1  0  0  0  0
 19 45  1  0  0  0  0
 21 46  1  0  0  0  0
M  END
> <BB_SMILES>
CCCCCB(O)O

> <scaffold_SMILES>
Cc1ccncc1NC(=O)Cc1cc(Cl)cc(Br)c1

$$$$
EN300-250789
  -OEChem-07272002233D

 44 46  0     0  0  0  0  0  0999 V2000
   14.0088    2.8857   24.1234 C   0  0  0  0  0  0  0  0  0  0  0  0
   14.3740    4.1552   24.5710 C   0  0  0  0  0  0  0  0  0  0  0  0
    5.0000    1.4070   18.8080 C   0  0  0  0  0  0  0  0  0  0  0  0
   11.8891    3.7626   23.3653 C   0  0  0  0  0  0  0  0  0  0  0  0
   11.0490    1.0010   23.0460 C   0  0  0  0  0  0  0  0  0  0  0  0
   13.3680    0.4840   22.6240 C   0  0  0  0  0  0  0  0  0  0  0  0
   11.6520   -1.1420   22.1450 C   0  0  0  0  0  0  0  0  0  0  0  0
    5.5330    1.3060   17.5390 C   0  0  0  0  0  0  0  0  0  0  0  0
    7.2400   -0.0390   18.2610 C   0  0  0  0  0  0  0  0  0  0  0  0
   12.7663    2.6894   23.5205 C   0  0  0  0  0  0  0  0  0  0  0  0
   12.3850    1.3610   23.0530 C   0  0  0  0  0  0  0  0  0  0  0  0
    5.6260    0.7590   19.8690 C   0  0  0  0  0  0  0  0  0  0  0  0
   10.6720   -0.2500   22.5660 C   0  0  0  0  0  0  0  0  0  0  0  0
   12.2543    5.0323   23.8130 C   0  0  0  0  0  0  0  0  0  0  0  0
    6.7930    0.0210   19.5790 C   0  0  0  0  0  0  0  0  0  0  0  0
   13.4967    5.2285   24.4158 C   0  0  0  0  0  0  0  0  0  0  0  0
   12.9770   -0.7640   22.1810 C   0  0  0  0  0  0  0  0  0  0  0  0
    8.6020    0.1230   21.2070 C   0  0  0  0  0  0  0  0  0  0  0  0
    5.0980    0.9060   21.2740 C   0  0  0  0  0  0  0  0  0  0  0  0
    9.2100   -0.5900   22.3990 C   0  0  0  0  0  0  0  0  0  0  0  0
   11.3143    6.1782   23.6466 C   0  0  0  0  0  0  0  0  0  0  0  0
    6.6320    0.5940   17.2520 N   0  0  0  0  0  0  0  0  0  0  0  0
    7.5630   -0.5230   20.6330 N   0  0  0  0  0  0  0  0  0  0  0  0
    9.0150    1.2120   20.8220 O   0  0  0  0  0  0  0  0  0  0  0  0
   13.8566    6.4448   24.8492 F   0  0  0  0  0  0  0  0  0  0  0  0
   10.1377    5.8379   23.0419 F   0  0  0  0  0  0  0  0  0  0  0  0
   10.9520    6.7638   24.8262 F   0  0  0  0  0  0  0  0  0  0  0  0
   11.8399    7.1822   22.8857 F   0  0  0  0  0  0  0  0  0  0  0  0
   14.1940   -1.9100   21.6990 Cl  0  0  0  0  0  0  0  0  0  0  0  0
   14.7036    2.0591   24.2519 H   0  0  0  0  0  0  0  0  0  0  0  0
   15.3411    4.3082   25.0409 H   0  0  0  0  0  0  0  0  0  0  0  0
    4.0894    1.9955   18.9731 H   0  0  0  0  0  0  0  0  0  0  0  0
   10.9178    3.6158   22.8973 H   0  0  0  0  0  0  0  0  0  0  0  0
   10.2869    1.6872   23.4130 H   0  0  0  0  0  0  0  0  0  0  0  0
   14.4085    0.7689   22.6365 H   0  0  0  0  0  0  0  0  0  0  0  0
   11.3634   -2.1298   21.7910 H   0  0  0  0  0  0  0  0  0  0  0  0
    5.0712    1.8129   16.6995 H   0  0  0  0  0  0  0  0  0  0  0  0
    8.1159   -0.6122   17.9919 H   0  0  0  0  0  0  0  0  0  0  0  0
    4.1749    1.4971   21.2729 H   0  0  0  0  0  0  0  0  0  0  0  0
    4.8861   -0.0725   21.7222 H   0  0  0  0  0  0  0  0  0  0  0  0
    5.8304    1.4024   21.9226 H   0  0  0  0  0  0  0  0  0  0  0  0
    9.0901   -1.6664   22.2639 H   0  0  0  0  0  0  0  0  0  0  0  0
    8.6579   -0.3097   23.2977 H   0  0  0  0  0  0  0  0  0  0  0  0
    7.3129   -1.4300   20.9567 H   0  0  0  0  0  0  0  0  0  0  0  0
  1  2  2  0  0  0  0
  1 10  1  0  0  0  0
  2 16  1  0  0  0  0
  3  8  2  0  0  0  0
  3 12  1  0  0  0  0
  4 10  2  0  0  0  0
  4 14  1  0  0  0  0
  5 11  1  0  0  0  0
  5 13  2  0  0  0  0
  6 11  2  0  0  0  0
  6 17  1  0  0  0  0
  7 13  1  0  0  0  0
  7 17  2  0  0  0  0
  8 22  1  0  0  0  0
  9 15  1  0  0  0  0
  9 22  2  0  0  0  0
 10 11  1  0  0  0  0
 12 15  2  0  0  0  0
 12 19  1  0  0  0  0
 13 20  1  0  0  0  0
 14 16  2  0  0  0  0
 14 21  1  0  0  0  0
 15 23  1  0  0  0  0
 16 25  1  0  0  0  0
 17 29  1  0  0  0  0
 18 20  1  0  0  0  0
 18 23  1  0  0  0  0
 18 24  2  0  0  0  0
 21 26  1  0  0  0  0
 21 27  1  0  0  0  0
 21 28  1  0  0  0  0
  1 30  1  0  0  0  0
  2 31  1  0  0  0  0
  3 32  1  0  0  0  0
  4 33  1  0  0  0  0
  5 34  1  0  0  0  0
  6 35  1  0  0  0  0
  7 36  1  0  0  0  0
  8 37  1  0  0  0  0
  9 38  1  0  0  0  0
 19 39  1  0  0  0  0
 19 40  1  0  0  0  0
 19 41  1  0  0  0  0
 20 42  1  0  0  0  0
 20 43  1  0  0  0  0
 23 44  1  0  0  0  0
M  END
> <BB_SMILES>
CC1(C)OB(c2ccc(F)c(C(F)(F)F)c2)OC1(C)C

> <scaffold_SMILES>
Cc1ccncc1NC(=O)Cc1cc(Cl)cc(Br)c1

$$$$
EN300-258456
  -OEChem-07272002233D

 47 49  0     0  0  0  0  0  0999 V2000
    5.0000    1.4070   18.8080 C   0  0  0  0  0  0  0  0  0  0  0  0
   11.0490    1.0010   23.0460 C   0  0  0  0  0  0  0  0  0  0  0  0
   11.6520   -1.1420   22.1450 C   0  0  0  0  0  0  0  0  0  0  0  0
   13.3680    0.4840   22.6240 C   0  0  0  0  0  0  0  0  0  0  0  0
    5.5330    1.3060   17.5390 C   0  0  0  0  0  0  0  0  0  0  0  0
    7.2400   -0.0390   18.2610 C   0  0  0  0  0  0  0  0  0  0  0  0
    5.6260    0.7590   19.8690 C   0  0  0  0  0  0  0  0  0  0  0  0
   10.6720   -0.2500   22.5660 C   0  0  0  0  0  0  0  0  0  0  0  0
   12.3850    1.3610   23.0530 C   0  0  0  0  0  0  0  0  0  0  0  0
    6.7930    0.0210   19.5790 C   0  0  0  0  0  0  0  0  0  0  0  0
   12.9770   -0.7640   22.1810 C   0  0  0  0  0  0  0  0  0  0  0  0
    8.6020    0.1230   21.2070 C   0  0  0  0  0  0  0  0  0  0  0  0
   11.7205    5.5971   21.3004 C   0  0  0  0  0  0  0  0  0  0  0  0
   13.1225    6.0393   21.7231 C   0  0  0  0  0  0  0  0  0  0  0  0
   11.4240    4.3218   22.0835 C   0  0  0  0  0  0  0  0  0  0  0  0
   13.5944    5.0191   22.7539 C   0  0  0  0  0  0  0  0  0  0  0  0
   12.8033    3.7600   22.4140 C   0  0  0  0  0  0  0  0  0  0  0  0
    5.0980    0.9060   21.2740 C   0  0  0  0  0  0  0  0  0  0  0  0
    9.2100   -0.5900   22.3990 C   0  0  0  0  0  0  0  0  0  0  0  0
   12.7814    2.7437   23.5422 C   0  0  0  0  0  0  0  0  0  0  0  0
    6.6320    0.5940   17.2520 N   0  0  0  0  0  0  0  0  0  0  0  0
    7.5630   -0.5230   20.6330 N   0  0  0  0  0  0  0  0  0  0  0  0
    9.0150    1.2120   20.8220 O   0  0  0  0  0  0  0  0  0  0  0  0
   14.1940   -1.9100   21.6990 Cl  0  0  0  0  0  0  0  0  0  0  0  0
    4.0894    1.9955   18.9731 H   0  0  0  0  0  0  0  0  0  0  0  0
   10.2920    1.6914   23.4138 H   0  0  0  0  0  0  0  0  0  0  0  0
   11.3638   -2.1302   21.7909 H   0  0  0  0  0  0  0  0  0  0  0  0
   14.4063    0.7746   22.6384 H   0  0  0  0  0  0  0  0  0  0  0  0
    5.0712    1.8129   16.6995 H   0  0  0  0  0  0  0  0  0  0  0  0
    8.1159   -0.6122   17.9919 H   0  0  0  0  0  0  0  0  0  0  0  0
   10.9719    6.3703   21.5016 H   0  0  0  0  0  0  0  0  0  0  0  0
   11.7038    5.3969   20.2227 H   0  0  0  0  0  0  0  0  0  0  0  0
   13.7886    6.0382   20.8526 H   0  0  0  0  0  0  0  0  0  0  0  0
   13.1236    7.0533   22.1354 H   0  0  0  0  0  0  0  0  0  0  0  0
   10.8737    4.5704   22.9994 H   0  0  0  0  0  0  0  0  0  0  0  0
   10.8148    3.6189   21.5068 H   0  0  0  0  0  0  0  0  0  0  0  0
   14.6757    4.8584   22.7062 H   0  0  0  0  0  0  0  0  0  0  0  0
   13.3511    5.3732   23.7633 H   0  0  0  0  0  0  0  0  0  0  0  0
   13.2305    3.2930   21.5168 H   0  0  0  0  0  0  0  0  0  0  0  0
    4.0123    1.0559   21.2580 H   0  0  0  0  0  0  0  0  0  0  0  0
    5.3193    0.0159   21.8757 H   0  0  0  0  0  0  0  0  0  0  0  0
    5.5614    1.7595   21.7842 H   0  0  0  0  0  0  0  0  0  0  0  0
    9.0902   -1.6664   22.2639 H   0  0  0  0  0  0  0  0  0  0  0  0
    8.6579   -0.3097   23.2977 H   0  0  0  0  0  0  0  0  0  0  0  0
   12.0847    3.0706   24.3248 H   0  0  0  0  0  0  0  0  0  0  0  0
   13.7686    2.6953   24.0195 H   0  0  0  0  0  0  0  0  0  0  0  0
    7.3129   -1.4300   20.9567 H   0  0  0  0  0  0  0  0  0  0  0  0
  1  5  2  0  0  0  0
  1  7  1  0  0  0  0
  2  8  2  0  0  0  0
  2  9  1  0  0  0  0
  3  8  1  0  0  0  0
  3 11  2  0  0  0  0
  4  9  2  0  0  0  0
  4 11  1  0  0  0  0
  5 21  1  0  0  0  0
  6 10  1  0  0  0  0
  6 21  2  0  0  0  0
  7 10  2  0  0  0  0
  7 18  1  0  0  0  0
  8 19  1  0  0  0  0
  9 20  1  0  0  0  0
 10 22  1  0  0  0  0
 11 24  1  0  0  0  0
 12 19  1  0  0  0  0
 12 22  1  0  0  0  0
 12 23  2  0  0  0  0
 13 14  1  0  0  0  0
 13 15  1  0  0  0  0
 14 16  1  0  0  0  0
 15 17  1  0  0  0  0
 16 17  1  0  0  0  0
 17 20  1  0  0  0  0
  1 25  1  0  0  0  0
  2 26  1  0  0  0  0
  3 27  1  0  0  0  0
  4 28  1  0  0  0  0
  5 29  1  0  0  0  0
  6 30  1  0  0  0  0
 13 31  1  0  0  0  0
 13 32  1  0  0  0  0
 14 33  1  0  0  0  0
 14 34  1  0  0  0  0
 15 35  1  0  0  0  0
 15 36  1  0  0  0  0
 16 37  1  0  0  0  0
 16 38  1  0  0  0  0
 17 39  1  0  0  0  0
 18 40  1  0  0  0  0
 18 41  1  0  0  0  0
 18 42  1  0  0  0  0
 19 43  1  0  0  0  0
 19 44  1  0  0  0  0
 20 45  1  0  0  0  0
 20 46  1  0  0  0  0
 22 47  1  0  0  0  0
M  END
> <BB_SMILES>
OB(O)CC1CCCC1

> <scaffold_SMILES>
Cc1ccncc1NC(=O)Cc1cc(Cl)cc(Br)c1

$$$$
EN300-391783
  -OEChem-07272002233D

 50 52  0     1  0  0  0  0  0999 V2000
    5.0000    1.4070   18.8080 C   0  0  0  0  0  0  0  0  0  0  0  0
   11.0490    1.0010   23.0460 C   0  0  0  0  0  0  0  0  0  0  0  0
   13.3680    0.4840   22.6240 C   0  0  0  0  0  0  0  0  0  0  0  0
   11.6520   -1.1420   22.1450 C   0  0  0  0  0  0  0  0  0  0  0  0
    5.5330    1.3060   17.5390 C   0  0  0  0  0  0  0  0  0  0  0  0
    7.2400   -0.0390   18.2610 C   0  0  0  0  0  0  0  0  0  0  0  0
   12.3850    1.3610   23.0530 C   0  0  0  0  0  0  0  0  0  0  0  0
    5.6260    0.7590   19.8690 C   0  0  0  0  0  0  0  0  0  0  0  0
   10.6720   -0.2500   22.5660 C   0  0  0  0  0  0  0  0  0  0  0  0
    6.7930    0.0210   19.5790 C   0  0  0  0  0  0  0  0  0  0  0  0
   12.9770   -0.7640   22.1810 C   0  0  0  0  0  0  0  0  0  0  0  0
    8.6020    0.1230   21.2070 C   0  0  0  0  0  0  0  0  0  0  0  0
   12.0059    3.3530   24.6730 C   0  0  0  0  0  0  0  0  0  0  0  0
   12.7761    2.7211   23.5337 C   0  0  2  0  0  0  0  0  0  0  0  0
   11.8460    3.8896   23.2817 C   0  0  1  0  0  0  0  0  0  0  0  0
    5.0980    0.9060   21.2740 C   0  0  0  0  0  0  0  0  0  0  0  0
   11.4247    6.3608   23.3310 C   0  0  0  0  0  0  0  0  0  0  0  0
   12.6532    5.3367   21.4001 C   0  0  0  0  0  0  0  0  0  0  0  0
   13.7500    5.4787   23.6503 C   0  0  0  0  0  0  0  0  0  0  0  0
    9.2100   -0.5900   22.3990 C   0  0  0  0  0  0  0  0  0  0  0  0
   12.4185    5.2665   22.9157 C   0  0  0  0  0  0  0  0  0  0  0  0
    6.6320    0.5940   17.2520 N   0  0  0  0  0  0  0  0  0  0  0  0
    7.5630   -0.5230   20.6330 N   0  0  0  0  0  0  0  0  0  0  0  0
    9.0150    1.2120   20.8220 O   0  0  0  0  0  0  0  0  0  0  0  0
   14.1940   -1.9100   21.6990 Cl  0  0  0  0  0  0  0  0  0  0  0  0
    4.0894    1.9955   18.9731 H   0  0  0  0  0  0  0  0  0  0  0  0
   10.2920    1.6908   23.4149 H   0  0  0  0  0  0  0  0  0  0  0  0
   14.4066    0.7739   22.6379 H   0  0  0  0  0  0  0  0  0  0  0  0
   11.3632   -2.1298   21.7911 H   0  0  0  0  0  0  0  0  0  0  0  0
    5.0712    1.8129   16.6995 H   0  0  0  0  0  0  0  0  0  0  0  0
    8.1159   -0.6122   17.9919 H   0  0  0  0  0  0  0  0  0  0  0  0
   11.1703    2.8117   25.1014 H   0  0  0  0  0  0  0  0  0  0  0  0
   12.5661    3.9384   25.3927 H   0  0  0  0  0  0  0  0  0  0  0  0
   13.8414    2.9343   23.5111 H   0  0  0  0  0  0  0  0  0  0  0  0
   10.9029    3.7030   22.7806 H   0  0  0  0  0  0  0  0  0  0  0  0
    4.1746    1.4967   21.2729 H   0  0  0  0  0  0  0  0  0  0  0  0
    4.8866   -0.0726   21.7223 H   0  0  0  0  0  0  0  0  0  0  0  0
    5.8302    1.4028   21.9225 H   0  0  0  0  0  0  0  0  0  0  0  0
   11.8064    7.3573   23.0821 H   0  0  0  0  0  0  0  0  0  0  0  0
   11.2364    6.3360   24.4103 H   0  0  0  0  0  0  0  0  0  0  0  0
   10.4626    6.2356   22.8219 H   0  0  0  0  0  0  0  0  0  0  0  0
   13.0626    6.3101   21.1074 H   0  0  0  0  0  0  0  0  0  0  0  0
   13.3599    4.5659   21.0728 H   0  0  0  0  0  0  0  0  0  0  0  0
   11.7187    5.1884   20.8475 H   0  0  0  0  0  0  0  0  0  0  0  0
   14.1843    6.4553   23.4086 H   0  0  0  0  0  0  0  0  0  0  0  0
   14.4814    4.7110   23.3737 H   0  0  0  0  0  0  0  0  0  0  0  0
   13.6143    5.4339   24.7368 H   0  0  0  0  0  0  0  0  0  0  0  0
    9.0901   -1.6664   22.2639 H   0  0  0  0  0  0  0  0  0  0  0  0
    8.6579   -0.3097   23.2977 H   0  0  0  0  0  0  0  0  0  0  0  0
    7.3129   -1.4300   20.9567 H   0  0  0  0  0  0  0  0  0  0  0  0
  1  5  2  0  0  0  0
  1  8  1  0  0  0  0
  2  7  1  0  0  0  0
  2  9  2  0  0  0  0
  3  7  2  0  0  0  0
  3 11  1  0  0  0  0
  4  9  1  0  0  0  0
  4 11  2  0  0  0  0
  5 22  1  0  0  0  0
  6 10  1  0  0  0  0
  6 22  2  0  0  0  0
  7 14  1  0  0  0  0
  8 10  2  0  0  0  0
  8 16  1  0  0  0  0
  9 20  1  0  0  0  0
 10 23  1  0  0  0  0
 11 25  1  0  0  0  0
 12 20  1  0  0  0  0
 12 23  1  0  0  0  0
 12 24  2  0  0  0  0
 13 14  1  0  0  0  0
 13 15  1  0  0  0  0
 14 15  1  0  0  0  0
 15 21  1  0  0  0  0
 17 21  1  0  0  0  0
 18 21  1  0  0  0  0
 19 21  1  0  0  0  0
  1 26  1  0  0  0  0
  2 27  1  0  0  0  0
  3 28  1  0  0  0  0
  4 29  1  0  0  0  0
  5 30  1  0  0  0  0
  6 31  1  0  0  0  0
 13 32  1  0  0  0  0
 13 33  1  0  0  0  0
 14 34  1  0  0  0  0
 15 35  1  0  0  0  0
 16 36  1  0  0  0  0
 16 37  1  0  0  0  0
 16 38  1  0  0  0  0
 17 39  1  0  0  0  0
 17 40  1  0  0  0  0
 17 41  1  0  0  0  0
 18 42  1  0  0  0  0
 18 43  1  0  0  0  0
 18 44  1  0  0  0  0
 19 45  1  0  0  0  0
 19 46  1  0  0  0  0
 19 47  1  0  0  0  0
 20 48  1  0  0  0  0
 20 49  1  0  0  0  0
 23 50  1  0  0  0  0
M  END
> <BB_SMILES>
CC(C)(C)[C@@H]1C[C@H]1B1OC(C)(C)C(C)(C)O1

> <scaffold_SMILES>
Cc1ccncc1NC(=O)Cc1cc(Cl)cc(Br)c1

$$$$
EN300-697298
  -OEChem-07272002233D

 56 58  0     0  0  0  0  0  0999 V2000
    5.0000    1.4070   18.8080 C   0  0  0  0  0  0  0  0  0  0  0  0
   11.0490    1.0010   23.0460 C   0  0  0  0  0  0  0  0  0  0  0  0
   13.3680    0.4840   22.6240 C   0  0  0  0  0  0  0  0  0  0  0  0
   11.6520   -1.1420   22.1450 C   0  0  0  0  0  0  0  0  0  0  0  0
    5.5330    1.3060   17.5390 C   0  0  0  0  0  0  0  0  0  0  0  0
    7.2400   -0.0390   18.2610 C   0  0  0  0  0  0  0  0  0  0  0  0
   12.3850    1.3610   23.0530 C   0  0  0  0  0  0  0  0  0  0  0  0
    5.6260    0.7590   19.8690 C   0  0  0  0  0  0  0  0  0  0  0  0
   10.6720   -0.2500   22.5660 C   0  0  0  0  0  0  0  0  0  0  0  0
    6.7930    0.0210   19.5790 C   0  0  0  0  0  0  0  0  0  0  0  0
   12.9770   -0.7640   22.1810 C   0  0  0  0  0  0  0  0  0  0  0  0
   12.1187    3.3637   24.4622 C   0  0  0  0  0  0  0  0  0  0  0  0
   12.7636    2.6782   23.5186 C   0  0  0  0  0  0  0  0  0  0  0  0
    8.6020    0.1230   21.2070 C   0  0  0  0  0  0  0  0  0  0  0  0
   10.4735    5.0851   26.8575 C   0  0  0  0  0  0  0  0  0  0  0  0
   12.3275    4.7178   25.0912 C   0  0  0  0  0  0  0  0  0  0  0  0
   10.9028    3.0805   25.3071 C   0  0  0  0  0  0  0  0  0  0  0  0
    5.0980    0.9060   21.2740 C   0  0  0  0  0  0  0  0  0  0  0  0
   10.4446    6.3387   29.4224 C   0  0  0  0  0  0  0  0  0  0  0  0
   11.2185    8.4024   28.2177 C   0  0  0  0  0  0  0  0  0  0  0  0
    8.9866    7.3932   27.6626 C   0  0  0  0  0  0  0  0  0  0  0  0
    9.2100   -0.5900   22.3990 C   0  0  0  0  0  0  0  0  0  0  0  0
   10.4218    7.1048   28.1006 C   0  0  0  0  0  0  0  0  0  0  0  0
    6.6320    0.5940   17.2520 N   0  0  0  0  0  0  0  0  0  0  0  0
   11.1475    4.3962   25.8852 N   0  0  0  0  0  0  0  0  0  0  0  0
    7.5630   -0.5230   20.6330 N   0  0  0  0  0  0  0  0  0  0  0  0
    9.0150    1.2120   20.8220 O   0  0  0  0  0  0  0  0  0  0  0  0
    9.4774    4.6629   27.4381 O   0  0  0  0  0  0  0  0  0  0  0  0
   11.0519    6.3009   27.0971 O   0  0  0  0  0  0  0  0  0  0  0  0
   14.1940   -1.9100   21.6990 Cl  0  0  0  0  0  0  0  0  0  0  0  0
    4.0894    1.9955   18.9731 H   0  0  0  0  0  0  0  0  0  0  0  0
   10.2871    1.6869   23.4136 H   0  0  0  0  0  0  0  0  0  0  0  0
   14.4083    0.7693   22.6351 H   0  0  0  0  0  0  0  0  0  0  0  0
   11.3638   -2.1297   21.7903 H   0  0  0  0  0  0  0  0  0  0  0  0
    5.0712    1.8129   16.6995 H   0  0  0  0  0  0  0  0  0  0  0  0
    8.1159   -0.6122   17.9919 H   0  0  0  0  0  0  0  0  0  0  0  0
   13.6563    3.1306   23.0847 H   0  0  0  0  0  0  0  0  0  0  0  0
   13.2279    4.8458   25.6986 H   0  0  0  0  0  0  0  0  0  0  0  0
   12.1827    5.5888   24.4460 H   0  0  0  0  0  0  0  0  0  0  0  0
    9.9436    3.0165   24.7858 H   0  0  0  0  0  0  0  0  0  0  0  0
   10.9872    2.2720   26.0384 H   0  0  0  0  0  0  0  0  0  0  0  0
    4.0966    0.4670   21.3512 H   0  0  0  0  0  0  0  0  0  0  0  0
    5.7547    0.4085   21.9982 H   0  0  0  0  0  0  0  0  0  0  0  0
    5.0408    1.9616   21.5674 H   0  0  0  0  0  0  0  0  0  0  0  0
    9.8738    5.4066   29.3424 H   0  0  0  0  0  0  0  0  0  0  0  0
   11.4668    6.0951   29.7299 H   0  0  0  0  0  0  0  0  0  0  0  0
    9.9727    6.9225   30.2210 H   0  0  0  0  0  0  0  0  0  0  0  0
   11.2049    8.9554   27.2716 H   0  0  0  0  0  0  0  0  0  0  0  0
   12.2718    8.1951   28.4389 H   0  0  0  0  0  0  0  0  0  0  0  0
   10.8202    9.0514   29.0044 H   0  0  0  0  0  0  0  0  0  0  0  0
    8.9700    7.9427   26.7145 H   0  0  0  0  0  0  0  0  0  0  0  0
    8.4101    6.4709   27.5376 H   0  0  0  0  0  0  0  0  0  0  0  0
    8.4752    8.0268   28.3962 H   0  0  0  0  0  0  0  0  0  0  0  0
    9.0900   -1.6664   22.2639 H   0  0  0  0  0  0  0  0  0  0  0  0
    8.6578   -0.3097   23.2977 H   0  0  0  0  0  0  0  0  0  0  0  0
    7.3129   -1.4300   20.9567 H   0  0  0  0  0  0  0  0  0  0  0  0
  1  5  2  0  0  0  0
  1  8  1  0  0  0  0
  2  7  1  0  0  0  0
  2  9  2  0  0  0  0
  3  7  2  0  0  0  0
  3 11  1  0  0  0  0
  4  9  1  0  0  0  0
  4 11  2  0  0  0  0
  5 24  1  0  0  0  0
  6 10  1  0  0  0  0
  6 24  2  0  0  0  0
  7 13  1  0  0  0  0
  8 10  2  0  0  0  0
  8 18  1  0  0  0  0
  9 22  1  0  0  0  0
 10 26  1  0  0  0  0
 11 30  1  0  0  0  0
 12 13  2  0  0  0  0
 12 16  1  0  0  0  0
 12 17  1  0  0  0  0
 14 22  1  0  0  0  0
 14 26  1  0  0  0  0
 14 27  2  0  0  0  0
 15 25  1  0  0  0  0
 15 28  2  0  0  0  0
 15 29  1  0  0  0  0
 16 25  1  0  0  0  0
 17 25  1  0  0  0  0
 19 23  1  0  0  0  0
 20 23  1  0  0  0  0
 21 23  1  0  0  0  0
 23 29  1  0  0  0  0
  1 31  1  0  0  0  0
  2 32  1  0  0  0  0
  3 33  1  0  0  0  0
  4 34  1  0  0  0  0
  5 35  1  0  0  0  0
  6 36  1  0  0  0  0
 13 37  1  0  0  0  0
 16 38  1  0  0  0  0
 16 39  1  0  0  0  0
 17 40  1  0  0  0  0
 17 41  1  0  0  0  0
 18 42  1  0  0  0  0
 18 43  1  0  0  0  0
 18 44  1  0  0  0  0
 19 45  1  0  0  0  0
 19 46  1  0  0  0  0
 19 47  1  0  0  0  0
 20 48  1  0  0  0  0
 20 49  1  0  0  0  0
 20 50  1  0  0  0  0
 21 51  1  0  0  0  0
 21 52  1  0  0  0  0
 21 53  1  0  0  0  0
 22 54  1  0  0  0  0
 22 55  1  0  0  0  0
 26 56  1  0  0  0  0
M  END
> <BB_SMILES>
CC(C)(C)OC(=O)N1CC(=CB2OC(C)(C)C(C)(C)O2)C1

> <scaffold_SMILES>
Cc1ccncc1NC(=O)Cc1cc(Cl)cc(Br)c1

$$$$
EN300-106778
  -OEChem-07272002233D

 44 46  0     0  0  0  0  0  0999 V2000
   12.4605    3.0793   24.8245 C   0  0  0  0  0  0  0  0  0  0  0  0
   12.8229    4.3483   25.2761 C   0  0  0  0  0  0  0  0  0  0  0  0
    5.0000    1.4070   18.8080 C   0  0  0  0  0  0  0  0  0  0  0  0
   11.0490    1.0010   23.0460 C   0  0  0  0  0  0  0  0  0  0  0  0
   13.3680    0.4840   22.6240 C   0  0  0  0  0  0  0  0  0  0  0  0
   11.6520   -1.1420   22.1450 C   0  0  0  0  0  0  0  0  0  0  0  0
    5.5330    1.3060   17.5390 C   0  0  0  0  0  0  0  0  0  0  0  0
    7.2400   -0.0390   18.2610 C   0  0  0  0  0  0  0  0  0  0  0  0
   12.7663    2.6894   23.5206 C   0  0  0  0  0  0  0  0  0  0  0  0
   12.3850    1.3610   23.0530 C   0  0  0  0  0  0  0  0  0  0  0  0
   13.4910    5.2274   24.4239 C   0  0  0  0  0  0  0  0  0  0  0  0
    5.6260    0.7590   19.8690 C   0  0  0  0  0  0  0  0  0  0  0  0
   10.6720   -0.2500   22.5660 C   0  0  0  0  0  0  0  0  0  0  0  0
    6.7930    0.0210   19.5790 C   0  0  0  0  0  0  0  0  0  0  0  0
   13.4344    3.5686   22.6683 C   0  0  0  0  0  0  0  0  0  0  0  0
   13.7968    4.8376   23.1199 C   0  0  0  0  0  0  0  0  0  0  0  0
   12.9770   -0.7640   22.1810 C   0  0  0  0  0  0  0  0  0  0  0  0
    8.6020    0.1230   21.2070 C   0  0  0  0  0  0  0  0  0  0  0  0
   13.8766    6.5835   24.9096 C   0  0  0  0  0  0  0  0  0  0  0  0
    5.0980    0.9060   21.2740 C   0  0  0  0  0  0  0  0  0  0  0  0
    9.2100   -0.5900   22.3990 C   0  0  0  0  0  0  0  0  0  0  0  0
    6.6320    0.5940   17.2520 N   0  0  0  0  0  0  0  0  0  0  0  0
    7.5630   -0.5230   20.6330 N   0  0  0  0  0  0  0  0  0  0  0  0
    9.0150    1.2120   20.8220 O   0  0  0  0  0  0  0  0  0  0  0  0
   13.7355    3.2087   21.4119 F   0  0  0  0  0  0  0  0  0  0  0  0
   14.4386    5.6756   22.2937 F   0  0  0  0  0  0  0  0  0  0  0  0
   14.1940   -1.9100   21.6990 Cl  0  0  0  0  0  0  0  0  0  0  0  0
   11.9400    2.4056   25.5010 H   0  0  0  0  0  0  0  0  0  0  0  0
   12.5804    4.6435   26.2935 H   0  0  0  0  0  0  0  0  0  0  0  0
    4.0894    1.9955   18.9731 H   0  0  0  0  0  0  0  0  0  0  0  0
   10.2869    1.6872   23.4130 H   0  0  0  0  0  0  0  0  0  0  0  0
   14.4085    0.7689   22.6365 H   0  0  0  0  0  0  0  0  0  0  0  0
   11.3634   -2.1298   21.7910 H   0  0  0  0  0  0  0  0  0  0  0  0
    5.0712    1.8129   16.6995 H   0  0  0  0  0  0  0  0  0  0  0  0
    8.1159   -0.6122   17.9919 H   0  0  0  0  0  0  0  0  0  0  0  0
   14.8777    6.5588   25.3573 H   0  0  0  0  0  0  0  0  0  0  0  0
   13.8800    7.3144   24.0904 H   0  0  0  0  0  0  0  0  0  0  0  0
   13.1681    6.9538   25.6621 H   0  0  0  0  0  0  0  0  0  0  0  0
    4.1740    1.4957   21.2727 H   0  0  0  0  0  0  0  0  0  0  0  0
    4.8877   -0.0726   21.7227 H   0  0  0  0  0  0  0  0  0  0  0  0
    5.8298    1.4039   21.9222 H   0  0  0  0  0  0  0  0  0  0  0  0
    9.0901   -1.6664   22.2639 H   0  0  0  0  0  0  0  0  0  0  0  0
    8.6579   -0.3097   23.2977 H   0  0  0  0  0  0  0  0  0  0  0  0
    7.3129   -1.4300   20.9567 H   0  0  0  0  0  0  0  0  0  0  0  0
  1  2  2  0  0  0  0
  1  9  1  0  0  0  0
  2 11  1  0  0  0  0
  3  7  2  0  0  0  0
  3 12  1  0  0  0  0
  4 10  1  0  0  0  0
  4 13  2  0  0  0  0
  5 10  2  0  0  0  0
  5 17  1  0  0  0  0
  6 13  1  0  0  0  0
  6 17  2  0  0  0  0
  7 22  1  0  0  0  0
  8 14  1  0  0  0  0
  8 22  2  0  0  0  0
  9 10  1  0  0  0  0
  9 15  2  0  0  0  0
 11 16  2  0  0  0  0
 11 19  1  0  0  0  0
 12 14  2  0  0  0  0
 12 20  1  0  0  0  0
 13 21  1  0  0  0  0
 14 23  1  0  0  0  0
 15 16  1  0  0  0  0
 15 25  1  0  0  0  0
 16 26  1  0  0  0  0
 17 27  1  0  0  0  0
 18 21  1  0  0  0  0
 18 23  1  0  0  0  0
 18 24  2  0  0  0  0
  1 28  1  0  0  0  0
  2 29  1  0  0  0  0
  3 30  1  0  0  0  0
  4 31  1  0  0  0  0
  5 32  1  0  0  0  0
  6 33  1  0  0  0  0
  7 34  1  0  0  0  0
  8 35  1  0  0  0  0
 19 36  1  0  0  0  0
 19 37  1  0  0  0  0
 19 38  1  0  0  0  0
 20 39  1  0  0  0  0
 20 40  1  0  0  0  0
 20 41  1  0  0  0  0
 21 42  1  0  0  0  0
 21 43  1  0  0  0  0
 23 44  1  0  0  0  0
M  END
> <BB_SMILES>
Cc1ccc(B(O)O)c(F)c1F

> <scaffold_SMILES>
Cc1ccncc1NC(=O)Cc1cc(Cl)cc(Br)c1

$$$$
EN300-260121
  -OEChem-07272002233D

 41 42  0     0  0  0  0  0  0999 V2000
    5.0000    1.4070   18.8080 C   0  0  0  0  0  0  0  0  0  0  0  0
   11.0490    1.0010   23.0460 C   0  0  0  0  0  0  0  0  0  0  0  0
   13.3680    0.4840   22.6240 C   0  0  0  0  0  0  0  0  0  0  0  0
   11.6520   -1.1420   22.1450 C   0  0  0  0  0  0  0  0  0  0  0  0
    5.5330    1.3060   17.5390 C   0  0  0  0  0  0  0  0  0  0  0  0
    7.2400   -0.0390   18.2610 C   0  0  0  0  0  0  0  0  0  0  0  0
   12.3850    1.3610   23.0530 C   0  0  0  0  0  0  0  0  0  0  0  0
    5.6260    0.7590   19.8690 C   0  0  0  0  0  0  0  0  0  0  0  0
   10.6720   -0.2500   22.5660 C   0  0  0  0  0  0  0  0  0  0  0  0
    6.7930    0.0210   19.5790 C   0  0  0  0  0  0  0  0  0  0  0  0
   12.9770   -0.7640   22.1810 C   0  0  0  0  0  0  0  0  0  0  0  0
   12.7686    2.6957   23.5248 C   0  0  0  0  0  0  0  0  0  0  0  0
   12.3632    3.8787   23.0062 C   0  0  0  0  0  0  0  0  0  0  0  0
    8.6020    0.1230   21.2070 C   0  0  0  0  0  0  0  0  0  0  0  0
    5.0980    0.9060   21.2740 C   0  0  0  0  0  0  0  0  0  0  0  0
   12.8548    5.1790   23.5836 C   0  0  0  0  0  0  0  0  0  0  0  0
   11.4056    4.0311   21.8562 C   0  0  0  0  0  0  0  0  0  0  0  0
    9.2100   -0.5900   22.3990 C   0  0  0  0  0  0  0  0  0  0  0  0
    6.6320    0.5940   17.2520 N   0  0  0  0  0  0  0  0  0  0  0  0
    7.5630   -0.5230   20.6330 N   0  0  0  0  0  0  0  0  0  0  0  0
    9.0150    1.2120   20.8220 O   0  0  0  0  0  0  0  0  0  0  0  0
   14.1940   -1.9100   21.6990 Cl  0  0  0  0  0  0  0  0  0  0  0  0
    4.0894    1.9955   18.9731 H   0  0  0  0  0  0  0  0  0  0  0  0
   10.2871    1.6869   23.4136 H   0  0  0  0  0  0  0  0  0  0  0  0
   14.4083    0.7693   22.6351 H   0  0  0  0  0  0  0  0  0  0  0  0
   11.3638   -2.1297   21.7903 H   0  0  0  0  0  0  0  0  0  0  0  0
    5.0712    1.8129   16.6995 H   0  0  0  0  0  0  0  0  0  0  0  0
    8.1159   -0.6122   17.9919 H   0  0  0  0  0  0  0  0  0  0  0  0
   13.4432    2.7016   24.3847 H   0  0  0  0  0  0  0  0  0  0  0  0
    4.4450    1.7836   21.3444 H   0  0  0  0  0  0  0  0  0  0  0  0
    4.5270    0.0199   21.5775 H   0  0  0  0  0  0  0  0  0  0  0  0
    5.9169    1.0206   21.9951 H   0  0  0  0  0  0  0  0  0  0  0  0
   13.7741    5.4947   23.0796 H   0  0  0  0  0  0  0  0  0  0  0  0
   12.1226    5.9863   23.4760 H   0  0  0  0  0  0  0  0  0  0  0  0
   13.0656    5.0627   24.6518 H   0  0  0  0  0  0  0  0  0  0  0  0
   10.3773    4.0879   22.2280 H   0  0  0  0  0  0  0  0  0  0  0  0
   11.4825    3.1680   21.1862 H   0  0  0  0  0  0  0  0  0  0  0  0
   11.5936    4.9210   21.2500 H   0  0  0  0  0  0  0  0  0  0  0  0
    9.0900   -1.6664   22.2639 H   0  0  0  0  0  0  0  0  0  0  0  0
    8.6578   -0.3097   23.2977 H   0  0  0  0  0  0  0  0  0  0  0  0
    7.3129   -1.4300   20.9567 H   0  0  0  0  0  0  0  0  0  0  0  0
  1  5  2  0  0  0  0
  1  8  1  0  0  0  0
  2  7  2  0  0  0  0
  2  9  1  0  0  0  0
  3  7  1  0  0  0  0
  3 11  2  0  0  0  0
  4  9  2  0  0  0  0
  4 11  1  0  0  0  0
  5 19  1  0  0  0  0
  6 10  1  0  0  0  0
  6 19  2  0  0  0  0
  7 12  1  0  0  0  0
  8 10  2  0  0  0  0
  8 15  1  0  0  0  0
  9 18  1  0  0  0  0
 10 20  1  0  0  0  0
 11 22  1  0  0  0  0
 12 13  2  0  0  0  0
 13 16  1  0  0  0  0
 13 17  1  0  0  0  0
 14 18  1  0  0  0  0
 14 20  1  0  0  0  0
 14 21  2  0  0  0  0
  1 23  1  0  0  0  0
  2 24  1  0  0  0  0
  3 25  1  0  0  0  0
  4 26  1  0  0  0  0
  5 27  1  0  0  0  0
  6 28  1  0  0  0  0
 12 29  1  0  0  0  0
 15 30  1  0  0  0  0
 15 31  1  0  0  0  0
 15 32  1  0  0  0  0
 16 33  1  0  0  0  0
 16 34  1  0  0  0  0
 16 35  1  0  0  0  0
 17 36  1  0  0  0  0
 17 37  1  0  0  0  0
 17 38  1  0  0  0  0
 18 39  1  0  0  0  0
 18 40  1  0  0  0  0
 20 41  1  0  0  0  0
M  END
> <BB_SMILES>
CC(C)=CB1OC(C)(C)C(C)(C)O1

> <scaffold_SMILES>
Cc1ccncc1NC(=O)Cc1cc(Cl)cc(Br)c1

$$$$
EN300-3177553
  -OEChem-07272002233D

 48 51  0     1  0  0  0  0  0999 V2000
   13.8176    6.5850   21.5183 C   0  0  0  0  0  0  0  0  0  0  0  0
   13.2740    5.3418   21.8414 C   0  0  0  0  0  0  0  0  0  0  0  0
   13.5048    7.7046   22.2892 C   0  0  0  0  0  0  0  0  0  0  0  0
    5.0000    1.4070   18.8080 C   0  0  0  0  0  0  0  0  0  0  0  0
   11.0490    1.0010   23.0460 C   0  0  0  0  0  0  0  0  0  0  0  0
   12.1045    6.3377   23.7062 C   0  0  0  0  0  0  0  0  0  0  0  0
   13.3680    0.4840   22.6240 C   0  0  0  0  0  0  0  0  0  0  0  0
   11.6520   -1.1420   22.1450 C   0  0  0  0  0  0  0  0  0  0  0  0
    5.5330    1.3060   17.5390 C   0  0  0  0  0  0  0  0  0  0  0  0
    7.2400   -0.0390   18.2610 C   0  0  0  0  0  0  0  0  0  0  0  0
   12.4174    5.2181   22.9353 C   0  0  0  0  0  0  0  0  0  0  0  0
   12.3850    1.3610   23.0530 C   0  0  0  0  0  0  0  0  0  0  0  0
    5.6260    0.7590   19.8690 C   0  0  0  0  0  0  0  0  0  0  0  0
   10.6720   -0.2500   22.5660 C   0  0  0  0  0  0  0  0  0  0  0  0
    6.7930    0.0210   19.5790 C   0  0  0  0  0  0  0  0  0  0  0  0
   12.6482    7.5810   23.3831 C   0  0  0  0  0  0  0  0  0  0  0  0
   12.9770   -0.7640   22.1810 C   0  0  0  0  0  0  0  0  0  0  0  0
    8.6020    0.1230   21.2070 C   0  0  0  0  0  0  0  0  0  0  0  0
   12.0155    3.3509   24.6717 C   0  0  0  0  0  0  0  0  0  0  0  0
   11.8370    3.8897   23.2800 C   0  0  1  0  0  0  0  0  0  0  0  0
   12.7763    2.7219   23.5340 C   0  0  2  0  0  0  0  0  0  0  0  0
    5.0980    0.9060   21.2740 C   0  0  0  0  0  0  0  0  0  0  0  0
    9.2100   -0.5900   22.3990 C   0  0  0  0  0  0  0  0  0  0  0  0
    6.6320    0.5940   17.2520 N   0  0  0  0  0  0  0  0  0  0  0  0
    7.5630   -0.5230   20.6330 N   0  0  0  0  0  0  0  0  0  0  0  0
    9.0150    1.2120   20.8220 O   0  0  0  0  0  0  0  0  0  0  0  0
   12.2626    8.9628   24.3338 Cl  0  0  0  0  0  0  0  0  0  0  0  0
   14.1940   -1.9100   21.6990 Cl  0  0  0  0  0  0  0  0  0  0  0  0
   14.4845    6.6812   20.6665 H   0  0  0  0  0  0  0  0  0  0  0  0
   13.5240    4.4755   21.2344 H   0  0  0  0  0  0  0  0  0  0  0  0
   13.9359    8.6670   22.0256 H   0  0  0  0  0  0  0  0  0  0  0  0
    4.0894    1.9955   18.9731 H   0  0  0  0  0  0  0  0  0  0  0  0
   10.2920    1.6908   23.4149 H   0  0  0  0  0  0  0  0  0  0  0  0
   11.4361    6.2367   24.5584 H   0  0  0  0  0  0  0  0  0  0  0  0
   14.4066    0.7739   22.6379 H   0  0  0  0  0  0  0  0  0  0  0  0
   11.3632   -2.1298   21.7911 H   0  0  0  0  0  0  0  0  0  0  0  0
    5.0712    1.8129   16.6995 H   0  0  0  0  0  0  0  0  0  0  0  0
    8.1159   -0.6122   17.9919 H   0  0  0  0  0  0  0  0  0  0  0  0
   12.5808    3.9311   25.3924 H   0  0  0  0  0  0  0  0  0  0  0  0
   11.1828    2.8094   25.1065 H   0  0  0  0  0  0  0  0  0  0  0  0
   10.8888    3.6690   22.8029 H   0  0  0  0  0  0  0  0  0  0  0  0
   13.8425    2.9320   23.5101 H   0  0  0  0  0  0  0  0  0  0  0  0
    5.3035    1.9136   21.6535 H   0  0  0  0  0  0  0  0  0  0  0  0
    4.0155    0.7326   21.3107 H   0  0  0  0  0  0  0  0  0  0  0  0
    5.5614    0.1765   21.9498 H   0  0  0  0  0  0  0  0  0  0  0  0
    9.0901   -1.6664   22.2639 H   0  0  0  0  0  0  0  0  0  0  0  0
    8.6579   -0.3097   23.2977 H   0  0  0  0  0  0  0  0  0  0  0  0
    7.3129   -1.4300   20.9567 H   0  0  0  0  0  0  0  0  0  0  0  0
  1  2  2  0  0  0  0
  1  3  1  0  0  0  0
  2 11  1  0  0  0  0
  3 16  2  0  0  0  0
  4  9  2  0  0  0  0
  4 13  1  0  0  0  0
  5 12  1  0  0  0  0
  5 14  2  0  0  0  0
  6 11  2  0  0  0  0
  6 16  1  0  0  0  0
  7 12  2  0  0  0  0
  7 17  1  0  0  0  0
  8 14  1  0  0  0  0
  8 17  2  0  0  0  0
  9 24  1  0  0  0  0
 10 15  1  0  0  0  0
 10 24  2  0  0  0  0
 11 20  1  0  0  0  0
 12 21  1  0  0  0  0
 13 15  2  0  0  0  0
 13 22  1  0  0  0  0
 14 23  1  0  0  0  0
 15 25  1  0  0  0  0
 16 27  1  0  0  0  0
 17 28  1  0  0  0  0
 18 23  1  0  0  0  0
 18 25  1  0  0  0  0
 18 26  2  0  0  0  0
 19 20  1  0  0  0  0
 19 21  1  0  0  0  0
 20 21  1  0  0  0  0
  1 29  1  0  0  0  0
  2 30  1  0  0  0  0
  3 31  1  0  0  0  0
  4 32  1  0  0  0  0
  5 33  1  0  0  0  0
  6 34  1  0  0  0  0
  7 35  1  0  0  0  0
  8 36  1  0  0  0  0
  9 37  1  0  0  0  0
 10 38  1  0  0  0  0
 19 39  1  0  0  0  0
 19 40  1  0  0  0  0
 20 41  1  0  0  0  0
 21 42  1  0  0  0  0
 22 43  1  0  0  0  0
 22 44  1  0  0  0  0
 22 45  1  0  0  0  0
 23 46  1  0  0  0  0
 23 47  1  0  0  0  0
 25 48  1  0  0  0  0
M  END
> <BB_SMILES>
CC1(C)OB([C@@H]2C[C@H]2c2cccc(Cl)c2)OC1(C)C

> <scaffold_SMILES>
Cc1ccncc1NC(=O)Cc1cc(Cl)cc(Br)c1

$$$$
EN300-686967
  -OEChem-07272002233D

 46 48  0     0  0  0  0  0  0999 V2000
    5.0000    1.4070   18.8080 C   0  0  0  0  0  0  0  0  0  0  0  0
   11.0490    1.0010   23.0460 C   0  0  0  0  0  0  0  0  0  0  0  0
   13.3680    0.4840   22.6240 C   0  0  0  0  0  0  0  0  0  0  0  0
   11.6520   -1.1420   22.1450 C   0  0  0  0  0  0  0  0  0  0  0  0
    5.5330    1.3060   17.5390 C   0  0  0  0  0  0  0  0  0  0  0  0
    7.2400   -0.0390   18.2610 C   0  0  0  0  0  0  0  0  0  0  0  0
   12.3850    1.3610   23.0530 C   0  0  0  0  0  0  0  0  0  0  0  0
    5.6260    0.7590   19.8690 C   0  0  0  0  0  0  0  0  0  0  0  0
   10.6720   -0.2500   22.5660 C   0  0  0  0  0  0  0  0  0  0  0  0
    6.7930    0.0210   19.5790 C   0  0  0  0  0  0  0  0  0  0  0  0
   12.9770   -0.7640   22.1810 C   0  0  0  0  0  0  0  0  0  0  0  0
   12.8290    3.7643   22.7405 C   0  0  0  0  0  0  0  0  0  0  0  0
   12.7625    2.6745   23.5173 C   0  0  0  0  0  0  0  0  0  0  0  0
    8.6020    0.1230   21.2070 C   0  0  0  0  0  0  0  0  0  0  0  0
   13.2270    5.1199   23.2592 C   0  0  0  0  0  0  0  0  0  0  0  0
   12.5445    3.7384   21.2629 C   0  0  0  0  0  0  0  0  0  0  0  0
   14.3406    5.6914   22.3856 C   0  0  0  0  0  0  0  0  0  0  0  0
   13.6999    4.3941   20.5114 C   0  0  0  0  0  0  0  0  0  0  0  0
    5.0980    0.9060   21.2740 C   0  0  0  0  0  0  0  0  0  0  0  0
    9.2100   -0.5900   22.3990 C   0  0  0  0  0  0  0  0  0  0  0  0
    6.6320    0.5940   17.2520 N   0  0  0  0  0  0  0  0  0  0  0  0
    7.5630   -0.5230   20.6330 N   0  0  0  0  0  0  0  0  0  0  0  0
    9.0150    1.2120   20.8220 O   0  0  0  0  0  0  0  0  0  0  0  0
   13.9450    5.7135   21.0100 O   0  0  0  0  0  0  0  0  0  0  0  0
   14.1940   -1.9100   21.6990 Cl  0  0  0  0  0  0  0  0  0  0  0  0
    4.0894    1.9955   18.9731 H   0  0  0  0  0  0  0  0  0  0  0  0
   10.2871    1.6869   23.4136 H   0  0  0  0  0  0  0  0  0  0  0  0
   14.4083    0.7693   22.6351 H   0  0  0  0  0  0  0  0  0  0  0  0
   11.3638   -2.1297   21.7903 H   0  0  0  0  0  0  0  0  0  0  0  0
    5.0712    1.8129   16.6995 H   0  0  0  0  0  0  0  0  0  0  0  0
    8.1159   -0.6122   17.9919 H   0  0  0  0  0  0  0  0  0  0  0  0
   12.9837    2.8006   24.5746 H   0  0  0  0  0  0  0  0  0  0  0  0
   12.3799    5.8140   23.2855 H   0  0  0  0  0  0  0  0  0  0  0  0
   13.5922    5.0002   24.2866 H   0  0  0  0  0  0  0  0  0  0  0  0
   12.4514    2.6912   20.9500 H   0  0  0  0  0  0  0  0  0  0  0  0
   11.6045    4.2443   21.0172 H   0  0  0  0  0  0  0  0  0  0  0  0
   14.6230    6.7037   22.7001 H   0  0  0  0  0  0  0  0  0  0  0  0
   15.2324    5.0612   22.4632 H   0  0  0  0  0  0  0  0  0  0  0  0
   14.6147    3.8105   20.6565 H   0  0  0  0  0  0  0  0  0  0  0  0
   13.5062    4.4422   19.4328 H   0  0  0  0  0  0  0  0  0  0  0  0
    4.2612    0.2176   21.4392 H   0  0  0  0  0  0  0  0  0  0  0  0
    5.8781    0.6923   22.0149 H   0  0  0  0  0  0  0  0  0  0  0  0
    4.7511    1.9297   21.4618 H   0  0  0  0  0  0  0  0  0  0  0  0
    9.0900   -1.6664   22.2639 H   0  0  0  0  0  0  0  0  0  0  0  0
    8.6578   -0.3097   23.2977 H   0  0  0  0  0  0  0  0  0  0  0  0
    7.3129   -1.4300   20.9567 H   0  0  0  0  0  0  0  0  0  0  0  0
  1  5  2  0  0  0  0
  1  8  1  0  0  0  0
  2  7  1  0  0  0  0
  2  9  2  0  0  0  0
  3  7  2  0  0  0  0
  3 11  1  0  0  0  0
  4  9  1  0  0  0  0
  4 11  2  0  0  0  0
  5 21  1  0  0  0  0
  6 10  1  0  0  0  0
  6 21  2  0  0  0  0
  7 13  1  0  0  0  0
  8 10  2  0  0  0  0
  8 19  1  0  0  0  0
  9 20  1  0  0  0  0
 10 22  1  0  0  0  0
 11 25  1  0  0  0  0
 12 13  2  0  0  0  0
 12 15  1  0  0  0  0
 12 16  1  0  0  0  0
 14 20  1  0  0  0  0
 14 22  1  0  0  0  0
 14 23  2  0  0  0  0
 15 17  1  0  0  0  0
 16 18  1  0  0  0  0
 17 24  1  0  0  0  0
 18 24  1  0  0  0  0
  1 26  1  0  0  0  0
  2 27  1  0  0  0  0
  3 28  1  0  0  0  0
  4 29  1  0  0  0  0
  5 30  1  0  0  0  0
  6 31  1  0  0  0  0
 13 32  1  0  0  0  0
 15 33  1  0  0  0  0
 15 34  1  0  0  0  0
 16 35  1  0  0  0  0
 16 36  1  0  0  0  0
 17 37  1  0  0  0  0
 17 38  1  0  0  0  0
 18 39  1  0  0  0  0
 18 40  1  0  0  0  0
 19 41  1  0  0  0  0
 19 42  1  0  0  0  0
 19 43  1  0  0  0  0
 20 44  1  0  0  0  0
 20 45  1  0  0  0  0
 22 46  1  0  0  0  0
M  END
> <BB_SMILES>
CC1(C)OB(C=C2CCOCC2)OC1(C)C

> <scaffold_SMILES>
Cc1ccncc1NC(=O)Cc1cc(Cl)cc(Br)c1

$$$$
EN300-210674
  -OEChem-07272002233D

 37 38  0     0  0  0  0  0  0999 V2000
    5.0000    1.4070   18.8080 C   0  0  0  0  0  0  0  0  0  0  0  0
   11.0490    1.0010   23.0460 C   0  0  0  0  0  0  0  0  0  0  0  0
   11.6520   -1.1420   22.1450 C   0  0  0  0  0  0  0  0  0  0  0  0
   13.3680    0.4840   22.6240 C   0  0  0  0  0  0  0  0  0  0  0  0
    5.5330    1.3060   17.5390 C   0  0  0  0  0  0  0  0  0  0  0  0
    7.2400   -0.0390   18.2610 C   0  0  0  0  0  0  0  0  0  0  0  0
    5.6260    0.7590   19.8690 C   0  0  0  0  0  0  0  0  0  0  0  0
   10.6720   -0.2500   22.5660 C   0  0  0  0  0  0  0  0  0  0  0  0
   12.3850    1.3610   23.0530 C   0  0  0  0  0  0  0  0  0  0  0  0
    6.7930    0.0210   19.5790 C   0  0  0  0  0  0  0  0  0  0  0  0
   12.9770   -0.7640   22.1810 C   0  0  0  0  0  0  0  0  0  0  0  0
    8.6020    0.1230   21.2070 C   0  0  0  0  0  0  0  0  0  0  0  0
    5.0980    0.9060   21.2740 C   0  0  0  0  0  0  0  0  0  0  0  0
    9.2100   -0.5900   22.3990 C   0  0  0  0  0  0  0  0  0  0  0  0
   12.7773    2.7295   23.5372 C   0  0  0  0  0  0  0  0  0  0  0  0
    6.6320    0.5940   17.2520 N   0  0  0  0  0  0  0  0  0  0  0  0
    7.5630   -0.5230   20.6330 N   0  0  0  0  0  0  0  0  0  0  0  0
   12.8074    3.7531   22.4562 N   0  3  0  0  0  0  0  0  0  0  0  0
    9.0150    1.2120   20.8220 O   0  0  0  0  0  0  0  0  0  0  0  0
   14.1940   -1.9100   21.6990 Cl  0  0  0  0  0  0  0  0  0  0  0  0
    4.0894    1.9955   18.9731 H   0  0  0  0  0  0  0  0  0  0  0  0
   10.2920    1.6914   23.4138 H   0  0  0  0  0  0  0  0  0  0  0  0
   11.3638   -2.1302   21.7909 H   0  0  0  0  0  0  0  0  0  0  0  0
   14.4063    0.7746   22.6384 H   0  0  0  0  0  0  0  0  0  0  0  0
    5.0712    1.8129   16.6995 H   0  0  0  0  0  0  0  0  0  0  0  0
    8.1159   -0.6122   17.9919 H   0  0  0  0  0  0  0  0  0  0  0  0
    4.7841   -0.0685   21.6656 H   0  0  0  0  0  0  0  0  0  0  0  0
    5.8614    1.3222   21.9428 H   0  0  0  0  0  0  0  0  0  0  0  0
    4.2397    1.5885   21.3053 H   0  0  0  0  0  0  0  0  0  0  0  0
    9.0902   -1.6664   22.2639 H   0  0  0  0  0  0  0  0  0  0  0  0
    8.6579   -0.3097   23.2977 H   0  0  0  0  0  0  0  0  0  0  0  0
   12.0793    3.1053   24.2977 H   0  0  0  0  0  0  0  0  0  0  0  0
   13.7796    2.7269   23.9869 H   0  0  0  0  0  0  0  0  0  0  0  0
    7.3129   -1.4300   20.9567 H   0  0  0  0  0  0  0  0  0  0  0  0
   11.8598    3.9649   22.1324 H   0  0  0  0  0  0  0  0  0  0  0  0
   13.3519    3.4177   21.6566 H   0  0  0  0  0  0  0  0  0  0  0  0
   13.2330    4.6214   22.7923 H   0  0  0  0  0  0  0  0  0  0  0  0
  1  5  2  0  0  0  0
  1  7  1  0  0  0  0
  2  8  2  0  0  0  0
  2  9  1  0  0  0  0
  3  8  1  0  0  0  0
  3 11  2  0  0  0  0
  4  9  2  0  0  0  0
  4 11  1  0  0  0  0
  5 16  1  0  0  0  0
  6 10  1  0  0  0  0
  6 16  2  0  0  0  0
  7 10  2  0  0  0  0
  7 13  1  0  0  0  0
  8 14  1  0  0  0  0
  9 15  1  0  0  0  0
 10 17  1  0  0  0  0
 11 20  1  0  0  0  0
 12 14  1  0  0  0  0
 12 17  1  0  0  0  0
 12 19  2  0  0  0  0
 15 18  1  0  0  0  0
  1 21  1  0  0  0  0
  2 22  1  0  0  0  0
  3 23  1  0  0  0  0
  4 24  1  0  0  0  0
  5 25  1  0  0  0  0
  6 26  1  0  0  0  0
 13 27  1  0  0  0  0
 13 28  1  0  0  0  0
 13 29  1  0  0  0  0
 14 30  1  0  0  0  0
 14 31  1  0  0  0  0
 15 32  1  0  0  0  0
 15 33  1  0  0  0  0
 17 34  1  0  0  0  0
 18 35  1  0  0  0  0
 18 36  1  0  0  0  0
 18 37  1  0  0  0  0
M  CHG  1  18   1
M  END
> <BB_SMILES>
CC1(C)OB(CN)OC1(C)C

> <scaffold_SMILES>
Cc1ccncc1NC(=O)Cc1cc(Cl)cc(Br)c1

$$$$
EN300-298506
  -OEChem-07272002233D

 47 49  0     0  0  0  0  0  0999 V2000
   13.0536    2.8737   24.8743 C   0  0  0  0  0  0  0  0  0  0  0  0
   13.4206    4.1339   25.3462 C   0  0  0  0  0  0  0  0  0  0  0  0
    5.0000    1.4070   18.8080 C   0  0  0  0  0  0  0  0  0  0  0  0
   11.0490    1.0010   23.0460 C   0  0  0  0  0  0  0  0  0  0  0  0
   13.3680    0.4840   22.6240 C   0  0  0  0  0  0  0  0  0  0  0  0
   13.2142    5.0304   23.1121 C   0  0  0  0  0  0  0  0  0  0  0  0
   11.6520   -1.1420   22.1450 C   0  0  0  0  0  0  0  0  0  0  0  0
    5.5330    1.3060   17.5390 C   0  0  0  0  0  0  0  0  0  0  0  0
    7.2400   -0.0390   18.2610 C   0  0  0  0  0  0  0  0  0  0  0  0
   12.7670    2.6917   23.5214 C   0  0  0  0  0  0  0  0  0  0  0  0
   12.3850    1.3610   23.0530 C   0  0  0  0  0  0  0  0  0  0  0  0
    5.6260    0.7590   19.8690 C   0  0  0  0  0  0  0  0  0  0  0  0
   10.6720   -0.2500   22.5660 C   0  0  0  0  0  0  0  0  0  0  0  0
   12.8473    3.7701   22.6403 C   0  0  0  0  0  0  0  0  0  0  0  0
    6.7930    0.0210   19.5790 C   0  0  0  0  0  0  0  0  0  0  0  0
   13.5008    5.2123   24.4651 C   0  0  0  0  0  0  0  0  0  0  0  0
   12.9770   -0.7640   22.1810 C   0  0  0  0  0  0  0  0  0  0  0  0
    8.6020    0.1230   21.2070 C   0  0  0  0  0  0  0  0  0  0  0  0
    5.0980    0.9060   21.2740 C   0  0  0  0  0  0  0  0  0  0  0  0
   13.6930    2.9496   20.4272 C   0  0  0  0  0  0  0  0  0  0  0  0
    9.2100   -0.5900   22.3990 C   0  0  0  0  0  0  0  0  0  0  0  0
   12.5474    3.6136   21.1839 C   0  0  0  0  0  0  0  0  0  0  0  0
    6.6320    0.5940   17.2520 N   0  0  0  0  0  0  0  0  0  0  0  0
    7.5630   -0.5230   20.6330 N   0  0  0  0  0  0  0  0  0  0  0  0
    9.0150    1.2120   20.8220 O   0  0  0  0  0  0  0  0  0  0  0  0
   13.8532    6.4226   24.9183 F   0  0  0  0  0  0  0  0  0  0  0  0
   14.1940   -1.9100   21.6990 Cl  0  0  0  0  0  0  0  0  0  0  0  0
   12.9959    2.0438   25.5748 H   0  0  0  0  0  0  0  0  0  0  0  0
   13.6439    4.2761   26.3994 H   0  0  0  0  0  0  0  0  0  0  0  0
    4.0894    1.9955   18.9731 H   0  0  0  0  0  0  0  0  0  0  0  0
   10.2869    1.6872   23.4130 H   0  0  0  0  0  0  0  0  0  0  0  0
   14.4085    0.7689   22.6365 H   0  0  0  0  0  0  0  0  0  0  0  0
   13.2798    5.8775   22.4345 H   0  0  0  0  0  0  0  0  0  0  0  0
   11.3634   -2.1298   21.7910 H   0  0  0  0  0  0  0  0  0  0  0  0
    5.0712    1.8129   16.6995 H   0  0  0  0  0  0  0  0  0  0  0  0
    8.1159   -0.6122   17.9919 H   0  0  0  0  0  0  0  0  0  0  0  0
    4.1695    1.4886   21.2718 H   0  0  0  0  0  0  0  0  0  0  0  0
    4.8955   -0.0729   21.7257 H   0  0  0  0  0  0  0  0  0  0  0  0
    5.8265    1.4113   21.9202 H   0  0  0  0  0  0  0  0  0  0  0  0
   14.6231    3.5160   20.5442 H   0  0  0  0  0  0  0  0  0  0  0  0
   13.4649    2.8895   19.3584 H   0  0  0  0  0  0  0  0  0  0  0  0
   13.8703    1.9329   20.7939 H   0  0  0  0  0  0  0  0  0  0  0  0
    9.0901   -1.6664   22.2639 H   0  0  0  0  0  0  0  0  0  0  0  0
    8.6579   -0.3097   23.2977 H   0  0  0  0  0  0  0  0  0  0  0  0
   11.6303    3.0211   21.0460 H   0  0  0  0  0  0  0  0  0  0  0  0
   12.3346    4.5943   20.7319 H   0  0  0  0  0  0  0  0  0  0  0  0
    7.3129   -1.4300   20.9567 H   0  0  0  0  0  0  0  0  0  0  0  0
  1  2  2  0  0  0  0
  1 10  1  0  0  0  0
  2 16  1  0  0  0  0
  3  8  2  0  0  0  0
  3 12  1  0  0  0  0
  4 11  2  0  0  0  0
  4 13  1  0  0  0  0
  5 11  1  0  0  0  0
  5 17  2  0  0  0  0
  6 14  1  0  0  0  0
  6 16  2  0  0  0  0
  7 13  2  0  0  0  0
  7 17  1  0  0  0  0
  8 23  1  0  0  0  0
  9 15  1  0  0  0  0
  9 23  2  0  0  0  0
 10 11  1  0  0  0  0
 10 14  2  0  0  0  0
 12 15  2  0  0  0  0
 12 19  1  0  0  0  0
 13 21  1  0  0  0  0
 14 22  1  0  0  0  0
 15 24  1  0  0  0  0
 16 26  1  0  0  0  0
 17 27  1  0  0  0  0
 18 21  1  0  0  0  0
 18 24  1  0  0  0  0
 18 25  2  0  0  0  0
 20 22  1  0  0  0  0
  1 28  1  0  0  0  0
  2 29  1  0  0  0  0
  3 30  1  0  0  0  0
  4 31  1  0  0  0  0
  5 32  1  0  0  0  0
  6 33  1  0  0  0  0
  7 34  1  0  0  0  0
  8 35  1  0  0  0  0
  9 36  1  0  0  0  0
 19 37  1  0  0  0  0
 19 38  1  0  0  0  0
 19 39  1  0  0  0  0
 20 40  1  0  0  0  0
 20 41  1  0  0  0  0
 20 42  1  0  0  0  0
 21 43  1  0  0  0  0
 21 44  1  0  0  0  0
 22 45  1  0  0  0  0
 22 46  1  0  0  0  0
 24 47  1  0  0  0  0
M  END
> <BB_SMILES>
OB1OCCc2cc(F)ccc21

> <scaffold_SMILES>
Cc1ccncc1NC(=O)Cc1cc(Cl)cc(Br)c1

$$$$
EN300-313910
  -OEChem-07272002233D

 47 50  0     0  0  0  0  0  0999 V2000
   12.6931    8.3779   24.7412 C   0  0  0  0  0  0  0  0  0  0  0  0
   11.4422    8.7367   24.2516 C   0  0  0  0  0  0  0  0  0  0  0  0
   13.1187    7.0577   24.6448 C   0  0  0  0  0  0  0  0  0  0  0  0
    5.0000    1.4070   18.8080 C   0  0  0  0  0  0  0  0  0  0  0  0
   11.0490    1.0010   23.0460 C   0  0  0  0  0  0  0  0  0  0  0  0
   13.3680    0.4840   22.6240 C   0  0  0  0  0  0  0  0  0  0  0  0
   11.6520   -1.1420   22.1450 C   0  0  0  0  0  0  0  0  0  0  0  0
   10.6612    7.7458   23.6791 C   0  0  0  0  0  0  0  0  0  0  0  0
    5.5330    1.3060   17.5390 C   0  0  0  0  0  0  0  0  0  0  0  0
   13.9342    3.1425   24.1486 C   0  0  0  0  0  0  0  0  0  0  0  0
    7.2400   -0.0390   18.2610 C   0  0  0  0  0  0  0  0  0  0  0  0
   11.9688    3.7938   23.4081 C   0  0  0  0  0  0  0  0  0  0  0  0
   12.3850    1.3610   23.0530 C   0  0  0  0  0  0  0  0  0  0  0  0
   12.7637    2.6791   23.5184 C   0  0  0  0  0  0  0  0  0  0  0  0
    5.6260    0.7590   19.8690 C   0  0  0  0  0  0  0  0  0  0  0  0
   10.6720   -0.2500   22.5660 C   0  0  0  0  0  0  0  0  0  0  0  0
    6.7930    0.0210   19.5790 C   0  0  0  0  0  0  0  0  0  0  0  0
   12.9770   -0.7640   22.1810 C   0  0  0  0  0  0  0  0  0  0  0  0
   12.2625    6.1419   24.0549 C   0  0  0  0  0  0  0  0  0  0  0  0
    8.6020    0.1230   21.2070 C   0  0  0  0  0  0  0  0  0  0  0  0
    5.0980    0.9060   21.2740 C   0  0  0  0  0  0  0  0  0  0  0  0
    9.2100   -0.5900   22.3990 C   0  0  0  0  0  0  0  0  0  0  0  0
    6.6320    0.5940   17.2520 N   0  0  0  0  0  0  0  0  0  0  0  0
   11.0404    6.4530   23.5677 N   0  0  0  0  0  0  0  0  0  0  0  0
   13.8910    4.4497   24.4195 N   0  0  0  0  0  0  0  0  0  0  0  0
   12.6838    4.8172   23.9572 N   0  0  0  0  0  0  0  0  0  0  0  0
    7.5630   -0.5230   20.6330 N   0  0  0  0  0  0  0  0  0  0  0  0
    9.0150    1.2120   20.8220 O   0  0  0  0  0  0  0  0  0  0  0  0
   14.1940   -1.9100   21.6990 Cl  0  0  0  0  0  0  0  0  0  0  0  0
   13.3352    9.1259   25.1966 H   0  0  0  0  0  0  0  0  0  0  0  0
   11.0894    9.7596   24.3173 H   0  0  0  0  0  0  0  0  0  0  0  0
   14.0944    6.7714   25.0251 H   0  0  0  0  0  0  0  0  0  0  0  0
    4.0894    1.9955   18.9731 H   0  0  0  0  0  0  0  0  0  0  0  0
   10.2867    1.6869   23.4134 H   0  0  0  0  0  0  0  0  0  0  0  0
   14.4087    0.7684   22.6364 H   0  0  0  0  0  0  0  0  0  0  0  0
   11.3634   -2.1302   21.7917 H   0  0  0  0  0  0  0  0  0  0  0  0
    9.6776    7.9742   23.2819 H   0  0  0  0  0  0  0  0  0  0  0  0
    5.0712    1.8129   16.6995 H   0  0  0  0  0  0  0  0  0  0  0  0
   14.8190    2.5856   24.4229 H   0  0  0  0  0  0  0  0  0  0  0  0
    8.1159   -0.6122   17.9919 H   0  0  0  0  0  0  0  0  0  0  0  0
   10.9787    3.9399   22.9954 H   0  0  0  0  0  0  0  0  0  0  0  0
    4.4452    1.7837   21.3445 H   0  0  0  0  0  0  0  0  0  0  0  0
    4.5267    0.0201   21.5774 H   0  0  0  0  0  0  0  0  0  0  0  0
    5.9169    1.0203   21.9951 H   0  0  0  0  0  0  0  0  0  0  0  0
    9.0901   -1.6664   22.2639 H   0  0  0  0  0  0  0  0  0  0  0  0
    8.6579   -0.3097   23.2977 H   0  0  0  0  0  0  0  0  0  0  0  0
    7.3129   -1.4300   20.9567 H   0  0  0  0  0  0  0  0  0  0  0  0
  1  2  1  0  0  0  0
  1  3  2  0  0  0  0
  2  8  2  0  0  0  0
  3 19  1  0  0  0  0
  4  9  2  0  0  0  0
  4 15  1  0  0  0  0
  5 13  1  0  0  0  0
  5 16  2  0  0  0  0
  6 13  2  0  0  0  0
  6 18  1  0  0  0  0
  7 16  1  0  0  0  0
  7 18  2  0  0  0  0
  8 24  1  0  0  0  0
  9 23  1  0  0  0  0
 10 14  1  0  0  0  0
 10 25  2  0  0  0  0
 11 17  1  0  0  0  0
 11 23  2  0  0  0  0
 12 14  2  0  0  0  0
 12 26  1  0  0  0  0
 13 14  1  0  0  0  0
 15 17  2  0  0  0  0
 15 21  1  0  0  0  0
 16 22  1  0  0  0  0
 17 27  1  0  0  0  0
 18 29  1  0  0  0  0
 19 24  2  0  0  0  0
 19 26  1  0  0  0  0
 20 22  1  0  0  0  0
 20 27  1  0  0  0  0
 20 28  2  0  0  0  0
 25 26  1  0  0  0  0
  1 30  1  0  0  0  0
  2 31  1  0  0  0  0
  3 32  1  0  0  0  0
  4 33  1  0  0  0  0
  5 34  1  0  0  0  0
  6 35  1  0  0  0  0
  7 36  1  0  0  0  0
  8 37  1  0  0  0  0
  9 38  1  0  0  0  0
 10 39  1  0  0  0  0
 11 40  1  0  0  0  0
 12 41  1  0  0  0  0
 21 42  1  0  0  0  0
 21 43  1  0  0  0  0
 21 44  1  0  0  0  0
 22 45  1  0  0  0  0
 22 46  1  0  0  0  0
 27 47  1  0  0  0  0
M  END
> <BB_SMILES>
CC1(C)OB(c2cnn(-c3ccccn3)c2)OC1(C)C

> <scaffold_SMILES>
Cc1ccncc1NC(=O)Cc1cc(Cl)cc(Br)c1

$$$$
EN300-1073310
  -OEChem-07272002233D

 51 54  0     0  0  0  0  0  0999 V2000
   11.8887    3.7624   23.3646 C   0  0  0  0  0  0  0  0  0  0  0  0
   14.0086    2.8866   24.1237 C   0  0  0  0  0  0  0  0  0  0  0  0
   12.2531    5.0323   23.8117 C   0  0  0  0  0  0  0  0  0  0  0  0
   14.3731    4.1566   24.5708 C   0  0  0  0  0  0  0  0  0  0  0  0
    5.0000    1.4070   18.8080 C   0  0  0  0  0  0  0  0  0  0  0  0
   11.0490    1.0010   23.0460 C   0  0  0  0  0  0  0  0  0  0  0  0
   13.3680    0.4840   22.6240 C   0  0  0  0  0  0  0  0  0  0  0  0
   11.6520   -1.1420   22.1450 C   0  0  0  0  0  0  0  0  0  0  0  0
    5.5330    1.3060   17.5390 C   0  0  0  0  0  0  0  0  0  0  0  0
    7.2400   -0.0390   18.2610 C   0  0  0  0  0  0  0  0  0  0  0  0
   12.7664    2.6895   23.5206 C   0  0  0  0  0  0  0  0  0  0  0  0
   12.3850    1.3610   23.0530 C   0  0  0  0  0  0  0  0  0  0  0  0
   13.4953    5.2295   24.4148 C   0  0  0  0  0  0  0  0  0  0  0  0
    5.6260    0.7590   19.8690 C   0  0  0  0  0  0  0  0  0  0  0  0
   10.6720   -0.2500   22.5660 C   0  0  0  0  0  0  0  0  0  0  0  0
    6.7930    0.0210   19.5790 C   0  0  0  0  0  0  0  0  0  0  0  0
   12.9770   -0.7640   22.1810 C   0  0  0  0  0  0  0  0  0  0  0  0
    8.6020    0.1230   21.2070 C   0  0  0  0  0  0  0  0  0  0  0  0
   14.1922    6.7591   26.3686 C   0  0  0  0  0  0  0  0  0  0  0  0
   12.9231    7.3206   25.8081 C   0  0  0  0  0  0  0  0  0  0  0  0
   13.8853    6.5861   24.8919 C   0  0  0  0  0  0  0  0  0  0  0  0
    5.0980    0.9060   21.2740 C   0  0  0  0  0  0  0  0  0  0  0  0
   14.6801    7.4016   23.9100 C   0  0  0  0  0  0  0  0  0  0  0  0
    9.2100   -0.5900   22.3990 C   0  0  0  0  0  0  0  0  0  0  0  0
    6.6320    0.5940   17.2520 N   0  0  0  0  0  0  0  0  0  0  0  0
    7.5630   -0.5230   20.6330 N   0  0  0  0  0  0  0  0  0  0  0  0
    9.0150    1.2120   20.8220 O   0  0  0  0  0  0  0  0  0  0  0  0
   14.1940   -1.9100   21.6990 Cl  0  0  0  0  0  0  0  0  0  0  0  0
   10.9170    3.6240   22.8962 H   0  0  0  0  0  0  0  0  0  0  0  0
   14.7034    2.0603   24.2523 H   0  0  0  0  0  0  0  0  0  0  0  0
   11.5614    5.8612   23.6856 H   0  0  0  0  0  0  0  0  0  0  0  0
   15.3431    4.3003   25.0398 H   0  0  0  0  0  0  0  0  0  0  0  0
    4.0894    1.9955   18.9731 H   0  0  0  0  0  0  0  0  0  0  0  0
   10.2869    1.6872   23.4130 H   0  0  0  0  0  0  0  0  0  0  0  0
   14.4085    0.7689   22.6365 H   0  0  0  0  0  0  0  0  0  0  0  0
   11.3634   -2.1298   21.7910 H   0  0  0  0  0  0  0  0  0  0  0  0
    5.0712    1.8129   16.6995 H   0  0  0  0  0  0  0  0  0  0  0  0
    8.1159   -0.6122   17.9919 H   0  0  0  0  0  0  0  0  0  0  0  0
   14.9678    7.4587   26.6579 H   0  0  0  0  0  0  0  0  0  0  0  0
   14.1157    5.8972   27.0215 H   0  0  0  0  0  0  0  0  0  0  0  0
   11.9941    6.8361   26.0861 H   0  0  0  0  0  0  0  0  0  0  0  0
   12.8445    8.3980   25.7193 H   0  0  0  0  0  0  0  0  0  0  0  0
    4.1751    1.4974   21.2730 H   0  0  0  0  0  0  0  0  0  0  0  0
    4.8858   -0.0725   21.7220 H   0  0  0  0  0  0  0  0  0  0  0  0
    5.8306    1.4021   21.9227 H   0  0  0  0  0  0  0  0  0  0  0  0
   14.9308    8.3845   24.3278 H   0  0  0  0  0  0  0  0  0  0  0  0
   14.1140    7.5629   22.9843 H   0  0  0  0  0  0  0  0  0  0  0  0
   15.6183    6.8967   23.6486 H   0  0  0  0  0  0  0  0  0  0  0  0
    9.0901   -1.6664   22.2639 H   0  0  0  0  0  0  0  0  0  0  0  0
    8.6579   -0.3097   23.2977 H   0  0  0  0  0  0  0  0  0  0  0  0
    7.3129   -1.4300   20.9567 H   0  0  0  0  0  0  0  0  0  0  0  0
  1  3  2  0  0  0  0
  1 11  1  0  0  0  0
  2  4  1  0  0  0  0
  2 11  2  0  0  0  0
  3 13  1  0  0  0  0
  4 13  2  0  0  0  0
  5  9  2  0  0  0  0
  5 14  1  0  0  0  0
  6 12  1  0  0  0  0
  6 15  2  0  0  0  0
  7 12  2  0  0  0  0
  7 17  1  0  0  0  0
  8 15  1  0  0  0  0
  8 17  2  0  0  0  0
  9 25  1  0  0  0  0
 10 16  1  0  0  0  0
 10 25  2  0  0  0  0
 11 12  1  0  0  0  0
 13 21  1  0  0  0  0
 14 16  2  0  0  0  0
 14 22  1  0  0  0  0
 15 24  1  0  0  0  0
 16 26  1  0  0  0  0
 17 28  1  0  0  0  0
 18 24  1  0  0  0  0
 18 26  1  0  0  0  0
 18 27  2  0  0  0  0
 19 20  1  0  0  0  0
 19 21  1  0  0  0  0
 20 21  1  0  0  0  0
 21 23  1  0  0  0  0
  1 29  1  0  0  0  0
  2 30  1  0  0  0  0
  3 31  1  0  0  0  0
  4 32  1  0  0  0  0
  5 33  1  0  0  0  0
  6 34  1  0  0  0  0
  7 35  1  0  0  0  0
  8 36  1  0  0  0  0
  9 37  1  0  0  0  0
 10 38  1  0  0  0  0
 19 39  1  0  0  0  0
 19 40  1  0  0  0  0
 20 41  1  0  0  0  0
 20 42  1  0  0  0  0
 22 43  1  0  0  0  0
 22 44  1  0  0  0  0
 22 45  1  0  0  0  0
 23 46  1  0  0  0  0
 23 47  1  0  0  0  0
 23 48  1  0  0  0  0
 24 49  1  0  0  0  0
 24 50  1  0  0  0  0
 26 51  1  0  0  0  0
M  END
> <BB_SMILES>
CC1(c2ccc(B3OC(C)(C)C(C)(C)O3)cc2)CC1

> <scaffold_SMILES>
Cc1ccncc1NC(=O)Cc1cc(Cl)cc(Br)c1

$$$$
EN300-299518
  -OEChem-07272002233D

 47 49  0     0  0  0  0  0  0999 V2000
    5.0000    1.4070   18.8080 C   0  0  0  0  0  0  0  0  0  0  0  0
   11.0490    1.0010   23.0460 C   0  0  0  0  0  0  0  0  0  0  0  0
   13.3680    0.4840   22.6240 C   0  0  0  0  0  0  0  0  0  0  0  0
   11.6520   -1.1420   22.1450 C   0  0  0  0  0  0  0  0  0  0  0  0
   11.9932    3.8543   23.4349 C   0  0  0  0  0  0  0  0  0  0  0  0
    5.5330    1.3060   17.5390 C   0  0  0  0  0  0  0  0  0  0  0  0
    7.2400   -0.0390   18.2610 C   0  0  0  0  0  0  0  0  0  0  0  0
   12.3850    1.3610   23.0530 C   0  0  0  0  0  0  0  0  0  0  0  0
    5.6260    0.7590   19.8690 C   0  0  0  0  0  0  0  0  0  0  0  0
   10.6720   -0.2500   22.5660 C   0  0  0  0  0  0  0  0  0  0  0  0
    6.7930    0.0210   19.5790 C   0  0  0  0  0  0  0  0  0  0  0  0
   12.9770   -0.7640   22.1810 C   0  0  0  0  0  0  0  0  0  0  0  0
   12.7637    2.6791   23.5184 C   0  0  0  0  0  0  0  0  0  0  0  0
   12.7811    4.8229   24.0072 C   0  0  0  0  0  0  0  0  0  0  0  0
   12.5153    6.2111   24.1989 C   0  0  0  0  0  0  0  0  0  0  0  0
    8.6020    0.1230   21.2070 C   0  0  0  0  0  0  0  0  0  0  0  0
    5.0980    0.9060   21.2740 C   0  0  0  0  0  0  0  0  0  0  0  0
    9.5086    8.1426   23.2731 C   0  0  0  0  0  0  0  0  0  0  0  0
    9.2100   -0.5900   22.3990 C   0  0  0  0  0  0  0  0  0  0  0  0
   10.8930    7.9582   23.8570 C   0  0  0  0  0  0  0  0  0  0  0  0
    6.6320    0.5940   17.2520 N   0  0  0  0  0  0  0  0  0  0  0  0
   13.9501    2.8805   24.0980 N   0  0  0  0  0  0  0  0  0  0  0  0
   13.9310    4.1936   24.3838 N   0  0  0  0  0  0  0  0  0  0  0  0
    7.5630   -0.5230   20.6330 N   0  0  0  0  0  0  0  0  0  0  0  0
   13.2948    7.0346   24.7349 O   0  0  0  0  0  0  0  0  0  0  0  0
    9.0150    1.2120   20.8220 O   0  0  0  0  0  0  0  0  0  0  0  0
   11.2765    6.5853   23.7232 O   0  0  0  0  0  0  0  0  0  0  0  0
   14.1940   -1.9100   21.6990 Cl  0  0  0  0  0  0  0  0  0  0  0  0
    4.0894    1.9955   18.9731 H   0  0  0  0  0  0  0  0  0  0  0  0
   10.2867    1.6869   23.4134 H   0  0  0  0  0  0  0  0  0  0  0  0
   14.4087    0.7684   22.6364 H   0  0  0  0  0  0  0  0  0  0  0  0
   11.3634   -2.1302   21.7917 H   0  0  0  0  0  0  0  0  0  0  0  0
   11.0039    3.9835   23.0183 H   0  0  0  0  0  0  0  0  0  0  0  0
    5.0712    1.8129   16.6995 H   0  0  0  0  0  0  0  0  0  0  0  0
    8.1159   -0.6122   17.9919 H   0  0  0  0  0  0  0  0  0  0  0  0
    4.4452    1.7837   21.3445 H   0  0  0  0  0  0  0  0  0  0  0  0
    4.5267    0.0201   21.5774 H   0  0  0  0  0  0  0  0  0  0  0  0
    5.9169    1.0203   21.9951 H   0  0  0  0  0  0  0  0  0  0  0  0
    9.4941    7.8780   22.2122 H   0  0  0  0  0  0  0  0  0  0  0  0
    8.7802    7.5198   23.8028 H   0  0  0  0  0  0  0  0  0  0  0  0
    9.1788    9.1811   23.3828 H   0  0  0  0  0  0  0  0  0  0  0  0
    9.0901   -1.6664   22.2639 H   0  0  0  0  0  0  0  0  0  0  0  0
    8.6579   -0.3097   23.2977 H   0  0  0  0  0  0  0  0  0  0  0  0
   10.9006    8.2244   24.9182 H   0  0  0  0  0  0  0  0  0  0  0  0
   11.6197    8.5804   23.3261 H   0  0  0  0  0  0  0  0  0  0  0  0
   14.7412    4.5955   24.8390 H   0  0  0  0  0  0  0  0  0  0  0  0
    7.3129   -1.4300   20.9567 H   0  0  0  0  0  0  0  0  0  0  0  0
  1  6  2  0  0  0  0
  1  9  1  0  0  0  0
  2  8  2  0  0  0  0
  2 10  1  0  0  0  0
  3  8  1  0  0  0  0
  3 12  2  0  0  0  0
  4 10  2  0  0  0  0
  4 12  1  0  0  0  0
  5 13  1  0  0  0  0
  5 14  2  0  0  0  0
  6 21  1  0  0  0  0
  7 11  1  0  0  0  0
  7 21  2  0  0  0  0
  8 13  1  0  0  0  0
  9 11  2  0  0  0  0
  9 17  1  0  0  0  0
 10 19  1  0  0  0  0
 11 24  1  0  0  0  0
 12 28  1  0  0  0  0
 13 22  2  0  0  0  0
 14 15  1  0  0  0  0
 14 23  1  0  0  0  0
 15 25  2  0  0  0  0
 15 27  1  0  0  0  0
 16 19  1  0  0  0  0
 16 24  1  0  0  0  0
 16 26  2  0  0  0  0
 18 20  1  0  0  0  0
 20 27  1  0  0  0  0
 22 23  1  0  0  0  0
  1 29  1  0  0  0  0
  2 30  1  0  0  0  0
  3 31  1  0  0  0  0
  4 32  1  0  0  0  0
  5 33  1  0  0  0  0
  6 34  1  0  0  0  0
  7 35  1  0  0  0  0
 17 36  1  0  0  0  0
 17 37  1  0  0  0  0
 17 38  1  0  0  0  0
 18 39  1  0  0  0  0
 18 40  1  0  0  0  0
 18 41  1  0  0  0  0
 19 42  1  0  0  0  0
 19 43  1  0  0  0  0
 20 44  1  0  0  0  0
 20 45  1  0  0  0  0
 23 46  1  0  0  0  0
 24 47  1  0  0  0  0
M  END
> <BB_SMILES>
CCOC(=O)c1cc(B2OC(C)(C)C(C)(C)O2)[nH]n1

> <scaffold_SMILES>
Cc1ccncc1NC(=O)Cc1cc(Cl)cc(Br)c1

$$$$
EN300-702584
  -OEChem-07272002233D

 64 66  0     0  0  0  0  0  0999 V2000
    5.0000    1.4070   18.8080 C   0  0  0  0  0  0  0  0  0  0  0  0
   11.0490    1.0010   23.0460 C   0  0  0  0  0  0  0  0  0  0  0  0
   11.6520   -1.1420   22.1450 C   0  0  0  0  0  0  0  0  0  0  0  0
   13.3680    0.4840   22.6240 C   0  0  0  0  0  0  0  0  0  0  0  0
    5.5330    1.3060   17.5390 C   0  0  0  0  0  0  0  0  0  0  0  0
    7.2400   -0.0390   18.2610 C   0  0  0  0  0  0  0  0  0  0  0  0
    5.6260    0.7590   19.8690 C   0  0  0  0  0  0  0  0  0  0  0  0
   10.6720   -0.2500   22.5660 C   0  0  0  0  0  0  0  0  0  0  0  0
   12.3850    1.3610   23.0530 C   0  0  0  0  0  0  0  0  0  0  0  0
    6.7930    0.0210   19.5790 C   0  0  0  0  0  0  0  0  0  0  0  0
   12.9770   -0.7640   22.1810 C   0  0  0  0  0  0  0  0  0  0  0  0
    8.6020    0.1230   21.2070 C   0  0  0  0  0  0  0  0  0  0  0  0
   11.3213    7.6350   23.3066 C   0  0  0  0  0  0  0  0  0  0  0  0
   11.3842    4.2259   22.0253 C   0  0  0  0  0  0  0  0  0  0  0  0
   13.6866    4.9712   22.7301 C   0  0  0  0  0  0  0  0  0  0  0  0
   10.7822    5.1763   23.0592 C   0  0  0  0  0  0  0  0  0  0  0  0
   13.0462    5.9070   23.7530 C   0  0  0  0  0  0  0  0  0  0  0  0
   12.8005    3.7595   22.3990 C   0  0  0  0  0  0  0  0  0  0  0  0
    5.0980    0.9060   21.2740 C   0  0  0  0  0  0  0  0  0  0  0  0
    9.7688    9.8733   24.1849 C   0  0  0  0  0  0  0  0  0  0  0  0
    7.7774    8.5728   23.3774 C   0  0  0  0  0  0  0  0  0  0  0  0
    9.1985    7.6584   25.2354 C   0  0  0  0  0  0  0  0  0  0  0  0
    9.2100   -0.5900   22.3990 C   0  0  0  0  0  0  0  0  0  0  0  0
   12.7806    2.7410   23.5412 C   0  0  0  0  0  0  0  0  0  0  0  0
    9.1914    8.4789   23.9463 C   0  0  0  0  0  0  0  0  0  0  0  0
    6.6320    0.5940   17.2520 N   0  0  0  0  0  0  0  0  0  0  0  0
   11.6951    6.2882   23.3435 N   0  0  0  0  0  0  0  0  0  0  0  0
    7.5630   -0.5230   20.6330 N   0  0  0  0  0  0  0  0  0  0  0  0
    9.0150    1.2120   20.8220 O   0  0  0  0  0  0  0  0  0  0  0  0
   12.0817    8.5720   23.5439 O   0  0  0  0  0  0  0  0  0  0  0  0
   10.0037    7.8093   22.9751 O   0  0  0  0  0  0  0  0  0  0  0  0
   14.1940   -1.9100   21.6990 Cl  0  0  0  0  0  0  0  0  0  0  0  0
    4.0894    1.9955   18.9731 H   0  0  0  0  0  0  0  0  0  0  0  0
   10.2920    1.6914   23.4138 H   0  0  0  0  0  0  0  0  0  0  0  0
   11.3638   -2.1302   21.7909 H   0  0  0  0  0  0  0  0  0  0  0  0
   14.4063    0.7746   22.6384 H   0  0  0  0  0  0  0  0  0  0  0  0
    5.0712    1.8129   16.6995 H   0  0  0  0  0  0  0  0  0  0  0  0
    8.1159   -0.6122   17.9919 H   0  0  0  0  0  0  0  0  0  0  0  0
   10.7193    3.3526   21.9066 H   0  0  0  0  0  0  0  0  0  0  0  0
   11.4061    4.7277   21.0436 H   0  0  0  0  0  0  0  0  0  0  0  0
   13.9028    5.5365   21.8085 H   0  0  0  0  0  0  0  0  0  0  0  0
   14.6631    4.6290   23.1145 H   0  0  0  0  0  0  0  0  0  0  0  0
    9.8499    5.6123   22.6798 H   0  0  0  0  0  0  0  0  0  0  0  0
   10.5337    4.6196   23.9674 H   0  0  0  0  0  0  0  0  0  0  0  0
   13.0323    5.4270   24.7371 H   0  0  0  0  0  0  0  0  0  0  0  0
   13.6315    6.8298   23.8476 H   0  0  0  0  0  0  0  0  0  0  0  0
   13.2357    3.2556   21.5104 H   0  0  0  0  0  0  0  0  0  0  0  0
    4.5509    0.0036   21.5705 H   0  0  0  0  0  0  0  0  0  0  0  0
    5.9137    1.0711   21.9887 H   0  0  0  0  0  0  0  0  0  0  0  0
    4.4229    1.7669   21.3555 H   0  0  0  0  0  0  0  0  0  0  0  0
   10.7838    9.8102   24.5933 H   0  0  0  0  0  0  0  0  0  0  0  0
    9.8017   10.4598   23.2609 H   0  0  0  0  0  0  0  0  0  0  0  0
    9.1725   10.4225   24.9224 H   0  0  0  0  0  0  0  0  0  0  0  0
    7.3592    7.5746   23.2046 H   0  0  0  0  0  0  0  0  0  0  0  0
    7.7807    9.0785   22.4050 H   0  0  0  0  0  0  0  0  0  0  0  0
    7.1069    9.1181   24.0494 H   0  0  0  0  0  0  0  0  0  0  0  0
    8.7844    6.6581   25.0645 H   0  0  0  0  0  0  0  0  0  0  0  0
   10.2106    7.5492   25.6384 H   0  0  0  0  0  0  0  0  0  0  0  0
    8.5682    8.1276   25.9994 H   0  0  0  0  0  0  0  0  0  0  0  0
    9.0902   -1.6664   22.2639 H   0  0  0  0  0  0  0  0  0  0  0  0
    8.6579   -0.3097   23.2977 H   0  0  0  0  0  0  0  0  0  0  0  0
   12.0847    3.0766   24.3169 H   0  0  0  0  0  0  0  0  0  0  0  0
   13.7685    2.7011   24.0115 H   0  0  0  0  0  0  0  0  0  0  0  0
    7.3129   -1.4300   20.9567 H   0  0  0  0  0  0  0  0  0  0  0  0
  1  5  2  0  0  0  0
  1  7  1  0  0  0  0
  2  8  2  0  0  0  0
  2  9  1  0  0  0  0
  3  8  1  0  0  0  0
  3 11  2  0  0  0  0
  4  9  2  0  0  0  0
  4 11  1  0  0  0  0
  5 26  1  0  0  0  0
  6 10  1  0  0  0  0
  6 26  2  0  0  0  0
  7 10  2  0  0  0  0
  7 19  1  0  0  0  0
  8 23  1  0  0  0  0
  9 24  1  0  0  0  0
 10 28  1  0  0  0  0
 11 32  1  0  0  0  0
 12 23  1  0  0  0  0
 12 28  1  0  0  0  0
 12 29  2  0  0  0  0
 13 27  1  0  0  0  0
 13 30  2  0  0  0  0
 13 31  1  0  0  0  0
 14 16  1  0  0  0  0
 14 18  1  0  0  0  0
 15 17  1  0  0  0  0
 15 18  1  0  0  0  0
 16 27  1  0  0  0  0
 17 27  1  0  0  0  0
 18 24  1  0  0  0  0
 20 25  1  0  0  0  0
 21 25  1  0  0  0  0
 22 25  1  0  0  0  0
 25 31  1  0  0  0  0
  1 33  1  0  0  0  0
  2 34  1  0  0  0  0
  3 35  1  0  0  0  0
  4 36  1  0  0  0  0
  5 37  1  0  0  0  0
  6 38  1  0  0  0  0
 14 39  1  0  0  0  0
 14 40  1  0  0  0  0
 15 41  1  0  0  0  0
 15 42  1  0  0  0  0
 16 43  1  0  0  0  0
 16 44  1  0  0  0  0
 17 45  1  0  0  0  0
 17 46  1  0  0  0  0
 18 47  1  0  0  0  0
 19 48  1  0  0  0  0
 19 49  1  0  0  0  0
 19 50  1  0  0  0  0
 20 51  1  0  0  0  0
 20 52  1  0  0  0  0
 20 53  1  0  0  0  0
 21 54  1  0  0  0  0
 21 55  1  0  0  0  0
 21 56  1  0  0  0  0
 22 57  1  0  0  0  0
 22 58  1  0  0  0  0
 22 59  1  0  0  0  0
 23 60  1  0  0  0  0
 23 61  1  0  0  0  0
 24 62  1  0  0  0  0
 24 63  1  0  0  0  0
 28 64  1  0  0  0  0
M  END
> <BB_SMILES>
CC(C)(C)OC(=O)N1CCC(CB2OC(C)(C)C(C)(C)O2)CC1

> <scaffold_SMILES>
Cc1ccncc1NC(=O)Cc1cc(Cl)cc(Br)c1

$$$$
EN300-1620627
  -OEChem-07272002233D

 58 60  0     0  0  0  0  0  0999 V2000
    5.0000    1.4070   18.8080 C   0  0  0  0  0  0  0  0  0  0  0  0
   11.0490    1.0010   23.0460 C   0  0  0  0  0  0  0  0  0  0  0  0
   11.6520   -1.1420   22.1450 C   0  0  0  0  0  0  0  0  0  0  0  0
   13.3680    0.4840   22.6240 C   0  0  0  0  0  0  0  0  0  0  0  0
    5.5330    1.3060   17.5390 C   0  0  0  0  0  0  0  0  0  0  0  0
    7.2400   -0.0390   18.2610 C   0  0  0  0  0  0  0  0  0  0  0  0
    5.6260    0.7590   19.8690 C   0  0  0  0  0  0  0  0  0  0  0  0
   10.6720   -0.2500   22.5660 C   0  0  0  0  0  0  0  0  0  0  0  0
   12.3850    1.3610   23.0530 C   0  0  0  0  0  0  0  0  0  0  0  0
    6.7930    0.0210   19.5790 C   0  0  0  0  0  0  0  0  0  0  0  0
   12.9770   -0.7640   22.1810 C   0  0  0  0  0  0  0  0  0  0  0  0
    8.6020    0.1230   21.2070 C   0  0  0  0  0  0  0  0  0  0  0  0
   10.1467    6.4441   24.7143 C   0  0  0  0  0  0  0  0  0  0  0  0
   12.0879    5.2479   23.4994 C   0  0  0  0  0  0  0  0  0  0  0  0
   10.6407    3.9454   24.3929 C   0  0  0  0  0  0  0  0  0  0  0  0
   11.6973    3.7719   23.2836 C   0  0  0  0  0  0  0  0  0  0  0  0
    5.0980    0.9060   21.2740 C   0  0  0  0  0  0  0  0  0  0  0  0
    9.9989    8.7781   26.3521 C   0  0  0  0  0  0  0  0  0  0  0  0
   10.9360   10.0033   24.3697 C   0  0  0  0  0  0  0  0  0  0  0  0
    8.7061    8.8610   24.1942 C   0  0  0  0  0  0  0  0  0  0  0  0
    9.2100   -0.5900   22.3990 C   0  0  0  0  0  0  0  0  0  0  0  0
   12.7816    2.7446   23.5425 C   0  0  0  0  0  0  0  0  0  0  0  0
   10.0959    8.8131   24.8276 C   0  0  0  0  0  0  0  0  0  0  0  0
    6.6320    0.5940   17.2520 N   0  0  0  0  0  0  0  0  0  0  0  0
   10.8546    5.3711   24.2499 N   0  0  0  0  0  0  0  0  0  0  0  0
    7.5630   -0.5230   20.6330 N   0  0  0  0  0  0  0  0  0  0  0  0
    9.0150    1.2120   20.8220 O   0  0  0  0  0  0  0  0  0  0  0  0
    9.0976    6.3581   25.3463 O   0  0  0  0  0  0  0  0  0  0  0  0
   10.7575    7.6225   24.3856 O   0  0  0  0  0  0  0  0  0  0  0  0
   14.1940   -1.9100   21.6990 Cl  0  0  0  0  0  0  0  0  0  0  0  0
    4.0894    1.9955   18.9731 H   0  0  0  0  0  0  0  0  0  0  0  0
   10.2920    1.6914   23.4138 H   0  0  0  0  0  0  0  0  0  0  0  0
   11.3638   -2.1302   21.7909 H   0  0  0  0  0  0  0  0  0  0  0  0
   14.4063    0.7746   22.6384 H   0  0  0  0  0  0  0  0  0  0  0  0
    5.0712    1.8129   16.6995 H   0  0  0  0  0  0  0  0  0  0  0  0
    8.1159   -0.6122   17.9919 H   0  0  0  0  0  0  0  0  0  0  0  0
   12.9721    5.4322   24.1163 H   0  0  0  0  0  0  0  0  0  0  0  0
   12.1224    5.8549   22.5914 H   0  0  0  0  0  0  0  0  0  0  0  0
    9.6325    3.6172   24.1285 H   0  0  0  0  0  0  0  0  0  0  0  0
   10.9146    3.5791   25.3864 H   0  0  0  0  0  0  0  0  0  0  0  0
   11.2367    3.6094   22.2984 H   0  0  0  0  0  0  0  0  0  0  0  0
    5.5443    1.7826   21.7576 H   0  0  0  0  0  0  0  0  0  0  0  0
    4.0072    1.0222   21.2773 H   0  0  0  0  0  0  0  0  0  0  0  0
    5.3265    0.0191   21.8780 H   0  0  0  0  0  0  0  0  0  0  0  0
    9.3966    7.9252   26.6848 H   0  0  0  0  0  0  0  0  0  0  0  0
   10.9874    8.7084   26.8176 H   0  0  0  0  0  0  0  0  0  0  0  0
    9.4996    9.6764   26.7329 H   0  0  0  0  0  0  0  0  0  0  0  0
   11.0083   10.0324   23.2764 H   0  0  0  0  0  0  0  0  0  0  0  0
   11.9627    9.9237   24.7448 H   0  0  0  0  0  0  0  0  0  0  0  0
   10.5135   10.9526   24.7145 H   0  0  0  0  0  0  0  0  0  0  0  0
    8.7754    8.8861   23.1007 H   0  0  0  0  0  0  0  0  0  0  0  0
    8.1015    7.9950   24.4824 H   0  0  0  0  0  0  0  0  0  0  0  0
    8.1737    9.7718   24.4913 H   0  0  0  0  0  0  0  0  0  0  0  0
    9.0902   -1.6664   22.2639 H   0  0  0  0  0  0  0  0  0  0  0  0
    8.6579   -0.3097   23.2977 H   0  0  0  0  0  0  0  0  0  0  0  0
   13.0087    2.7012   24.6163 H   0  0  0  0  0  0  0  0  0  0  0  0
   13.7151    3.0523   23.0519 H   0  0  0  0  0  0  0  0  0  0  0  0
    7.3129   -1.4300   20.9567 H   0  0  0  0  0  0  0  0  0  0  0  0
  1  5  2  0  0  0  0
  1  7  1  0  0  0  0
  2  8  2  0  0  0  0
  2  9  1  0  0  0  0
  3  8  1  0  0  0  0
  3 11  2  0  0  0  0
  4  9  2  0  0  0  0
  4 11  1  0  0  0  0
  5 24  1  0  0  0  0
  6 10  1  0  0  0  0
  6 24  2  0  0  0  0
  7 10  2  0  0  0  0
  7 17  1  0  0  0  0
  8 21  1  0  0  0  0
  9 22  1  0  0  0  0
 10 26  1  0  0  0  0
 11 30  1  0  0  0  0
 12 21  1  0  0  0  0
 12 26  1  0  0  0  0
 12 27  2  0  0  0  0
 13 25  1  0  0  0  0
 13 28  2  0  0  0  0
 13 29  1  0  0  0  0
 14 16  1  0  0  0  0
 14 25  1  0  0  0  0
 15 16  1  0  0  0  0
 15 25  1  0  0  0  0
 16 22  1  0  0  0  0
 18 23  1  0  0  0  0
 19 23  1  0  0  0  0
 20 23  1  0  0  0  0
 23 29  1  0  0  0  0
  1 31  1  0  0  0  0
  2 32  1  0  0  0  0
  3 33  1  0  0  0  0
  4 34  1  0  0  0  0
  5 35  1  0  0  0  0
  6 36  1  0  0  0  0
 14 37  1  0  0  0  0
 14 38  1  0  0  0  0
 15 39  1  0  0  0  0
 15 40  1  0  0  0  0
 16 41  1  0  0  0  0
 17 42  1  0  0  0  0
 17 43  1  0  0  0  0
 17 44  1  0  0  0  0
 18 45  1  0  0  0  0
 18 46  1  0  0  0  0
 18 47  1  0  0  0  0
 19 48  1  0  0  0  0
 19 49  1  0  0  0  0
 19 50  1  0  0  0  0
 20 51  1  0  0  0  0
 20 52  1  0  0  0  0
 20 53  1  0  0  0  0
 21 54  1  0  0  0  0
 21 55  1  0  0  0  0
 22 56  1  0  0  0  0
 22 57  1  0  0  0  0
 26 58  1  0  0  0  0
M  END
> <BB_SMILES>
CC(C)(C)OC(=O)N1CC(CB2OC(C)(C)C(C)(C)O2)C1

> <scaffold_SMILES>
Cc1ccncc1NC(=O)Cc1cc(Cl)cc(Br)c1

$$$$
EN300-316592
  -OEChem-07272002233D

 51 53  0     0  0  0  0  0  0999 V2000
   12.4542    3.0668   24.8278 C   0  0  0  0  0  0  0  0  0  0  0  0
   12.8106    4.3321   25.2943 C   0  0  0  0  0  0  0  0  0  0  0  0
    5.0000    1.4070   18.8080 C   0  0  0  0  0  0  0  0  0  0  0  0
   11.0490    1.0010   23.0460 C   0  0  0  0  0  0  0  0  0  0  0  0
   13.3680    0.4840   22.6240 C   0  0  0  0  0  0  0  0  0  0  0  0
   13.7925    4.8469   23.1476 C   0  0  0  0  0  0  0  0  0  0  0  0
   11.6520   -1.1420   22.1450 C   0  0  0  0  0  0  0  0  0  0  0  0
    5.5330    1.3060   17.5390 C   0  0  0  0  0  0  0  0  0  0  0  0
    7.2400   -0.0390   18.2610 C   0  0  0  0  0  0  0  0  0  0  0  0
   12.7669    2.6915   23.5213 C   0  0  0  0  0  0  0  0  0  0  0  0
   12.3850    1.3610   23.0530 C   0  0  0  0  0  0  0  0  0  0  0  0
   13.4798    5.2221   24.4542 C   0  0  0  0  0  0  0  0  0  0  0  0
    5.6260    0.7590   19.8690 C   0  0  0  0  0  0  0  0  0  0  0  0
   10.6720   -0.2500   22.5660 C   0  0  0  0  0  0  0  0  0  0  0  0
    6.7930    0.0210   19.5790 C   0  0  0  0  0  0  0  0  0  0  0  0
   13.4361    3.5815   22.6812 C   0  0  0  0  0  0  0  0  0  0  0  0
   12.9770   -0.7640   22.1810 C   0  0  0  0  0  0  0  0  0  0  0  0
   13.8517    6.5411   24.9408 C   0  0  0  0  0  0  0  0  0  0  0  0
    8.6020    0.1230   21.2070 C   0  0  0  0  0  0  0  0  0  0  0  0
    5.0980    0.9060   21.2740 C   0  0  0  0  0  0  0  0  0  0  0  0
   12.7925    3.5380   20.3921 C   0  0  0  0  0  0  0  0  0  0  0  0
   13.7721    7.9920   26.8332 C   0  0  0  0  0  0  0  0  0  0  0  0
    9.2100   -0.5900   22.3990 C   0  0  0  0  0  0  0  0  0  0  0  0
    6.6320    0.5940   17.2520 N   0  0  0  0  0  0  0  0  0  0  0  0
    7.5630   -0.5230   20.6330 N   0  0  0  0  0  0  0  0  0  0  0  0
   14.4456    7.3941   24.2678 O   0  0  0  0  0  0  0  0  0  0  0  0
    9.0150    1.2120   20.8220 O   0  0  0  0  0  0  0  0  0  0  0  0
   13.7555    3.2401   21.4001 O   0  0  0  0  0  0  0  0  0  0  0  0
   13.4624    6.7267   26.2393 O   0  0  0  0  0  0  0  0  0  0  0  0
   14.1940   -1.9100   21.6990 Cl  0  0  0  0  0  0  0  0  0  0  0  0
   11.9331    2.3850   25.4959 H   0  0  0  0  0  0  0  0  0  0  0  0
   12.5632    4.6142   26.3145 H   0  0  0  0  0  0  0  0  0  0  0  0
    4.0894    1.9955   18.9731 H   0  0  0  0  0  0  0  0  0  0  0  0
   10.2869    1.6872   23.4130 H   0  0  0  0  0  0  0  0  0  0  0  0
   14.4085    0.7689   22.6365 H   0  0  0  0  0  0  0  0  0  0  0  0
   14.3153    5.5369   22.4894 H   0  0  0  0  0  0  0  0  0  0  0  0
   11.3634   -2.1298   21.7910 H   0  0  0  0  0  0  0  0  0  0  0  0
    5.0712    1.8129   16.6995 H   0  0  0  0  0  0  0  0  0  0  0  0
    8.1159   -0.6122   17.9919 H   0  0  0  0  0  0  0  0  0  0  0  0
    4.1706    1.4903   21.2720 H   0  0  0  0  0  0  0  0  0  0  0  0
    4.8936   -0.0728   21.7250 H   0  0  0  0  0  0  0  0  0  0  0  0
    5.8273    1.4095   21.9207 H   0  0  0  0  0  0  0  0  0  0  0  0
   13.1707    3.2153   19.4190 H   0  0  0  0  0  0  0  0  0  0  0  0
   12.5965    4.6131   20.3806 H   0  0  0  0  0  0  0  0  0  0  0  0
   11.8665    3.0032   20.6161 H   0  0  0  0  0  0  0  0  0  0  0  0
   13.4096    8.0100   27.8639 H   0  0  0  0  0  0  0  0  0  0  0  0
   13.3009    8.7915   26.2560 H   0  0  0  0  0  0  0  0  0  0  0  0
   14.8557    8.1314   26.8279 H   0  0  0  0  0  0  0  0  0  0  0  0
    9.0901   -1.6664   22.2639 H   0  0  0  0  0  0  0  0  0  0  0  0
    8.6579   -0.3097   23.2977 H   0  0  0  0  0  0  0  0  0  0  0  0
    7.3129   -1.4300   20.9567 H   0  0  0  0  0  0  0  0  0  0  0  0
  1  2  2  0  0  0  0
  1 10  1  0  0  0  0
  2 12  1  0  0  0  0
  3  8  2  0  0  0  0
  3 13  1  0  0  0  0
  4 11  2  0  0  0  0
  4 14  1  0  0  0  0
  5 11  1  0  0  0  0
  5 17  2  0  0  0  0
  6 12  2  0  0  0  0
  6 16  1  0  0  0  0
  7 14  2  0  0  0  0
  7 17  1  0  0  0  0
  8 24  1  0  0  0  0
  9 15  1  0  0  0  0
  9 24  2  0  0  0  0
 10 11  1  0  0  0  0
 10 16  2  0  0  0  0
 12 18  1  0  0  0  0
 13 15  2  0  0  0  0
 13 20  1  0  0  0  0
 14 23  1  0  0  0  0
 15 25  1  0  0  0  0
 16 28  1  0  0  0  0
 17 30  1  0  0  0  0
 18 26  2  0  0  0  0
 18 29  1  0  0  0  0
 19 23  1  0  0  0  0
 19 25  1  0  0  0  0
 19 27  2  0  0  0  0
 21 28  1  0  0  0  0
 22 29  1  0  0  0  0
  1 31  1  0  0  0  0
  2 32  1  0  0  0  0
  3 33  1  0  0  0  0
  4 34  1  0  0  0  0
  5 35  1  0  0  0  0
  6 36  1  0  0  0  0
  7 37  1  0  0  0  0
  8 38  1  0  0  0  0
  9 39  1  0  0  0  0
 20 40  1  0  0  0  0
 20 41  1  0  0  0  0
 20 42  1  0  0  0  0
 21 43  1  0  0  0  0
 21 44  1  0  0  0  0
 21 45  1  0  0  0  0
 22 46  1  0  0  0  0
 22 47  1  0  0  0  0
 22 48  1  0  0  0  0
 23 49  1  0  0  0  0
 23 50  1  0  0  0  0
 25 51  1  0  0  0  0
M  END
> <BB_SMILES>
COC(=O)c1ccc(B2OC(C)(C)C(C)(C)O2)c(OC)c1

> <scaffold_SMILES>
Cc1ccncc1NC(=O)Cc1cc(Cl)cc(Br)c1

$$$$
EN300-303608
  -OEChem-07272002243D

 49 52  0     0  0  0  0  0  0999 V2000
   14.0075    2.8860   24.1230 C   0  0  0  0  0  0  0  0  0  0  0  0
   14.3762    4.1562   24.5659 C   0  0  0  0  0  0  0  0  0  0  0  0
    5.0000    1.4070   18.8080 C   0  0  0  0  0  0  0  0  0  0  0  0
   11.8881    3.7615   23.3638 C   0  0  0  0  0  0  0  0  0  0  0  0
   11.0490    1.0010   23.0460 C   0  0  0  0  0  0  0  0  0  0  0  0
   13.3680    0.4840   22.6240 C   0  0  0  0  0  0  0  0  0  0  0  0
   11.6520   -1.1420   22.1450 C   0  0  0  0  0  0  0  0  0  0  0  0
    5.5330    1.3060   17.5390 C   0  0  0  0  0  0  0  0  0  0  0  0
    7.2400   -0.0390   18.2610 C   0  0  0  0  0  0  0  0  0  0  0  0
   12.7664    2.6895   23.5206 C   0  0  0  0  0  0  0  0  0  0  0  0
   12.3850    1.3610   23.0530 C   0  0  0  0  0  0  0  0  0  0  0  0
   13.5052    5.2407   24.4044 C   0  0  0  0  0  0  0  0  0  0  0  0
   12.2453    5.0375   23.8158 C   0  0  0  0  0  0  0  0  0  0  0  0
    5.6260    0.7590   19.8690 C   0  0  0  0  0  0  0  0  0  0  0  0
   10.6720   -0.2500   22.5660 C   0  0  0  0  0  0  0  0  0  0  0  0
    6.7930    0.0210   19.5790 C   0  0  0  0  0  0  0  0  0  0  0  0
   12.9770   -0.7640   22.1810 C   0  0  0  0  0  0  0  0  0  0  0  0
    8.6020    0.1230   21.2070 C   0  0  0  0  0  0  0  0  0  0  0  0
   11.3155    6.2048   23.6160 C   0  0  0  0  0  0  0  0  0  0  0  0
   13.8944    6.6053   24.9119 C   0  0  0  0  0  0  0  0  0  0  0  0
   11.6866    7.3625   24.5349 C   0  0  0  0  0  0  0  0  0  0  0  0
    5.0980    0.9060   21.2740 C   0  0  0  0  0  0  0  0  0  0  0  0
    9.2100   -0.5900   22.3990 C   0  0  0  0  0  0  0  0  0  0  0  0
    6.6320    0.5940   17.2520 N   0  0  0  0  0  0  0  0  0  0  0  0
    7.5630   -0.5230   20.6330 N   0  0  0  0  0  0  0  0  0  0  0  0
    9.0150    1.2120   20.8220 O   0  0  0  0  0  0  0  0  0  0  0  0
   13.0758    7.6542   24.3829 O   0  0  0  0  0  0  0  0  0  0  0  0
   14.1940   -1.9100   21.6990 Cl  0  0  0  0  0  0  0  0  0  0  0  0
   14.7001    2.0580   24.2553 H   0  0  0  0  0  0  0  0  0  0  0  0
   15.3458    4.2959   25.0369 H   0  0  0  0  0  0  0  0  0  0  0  0
    4.0894    1.9955   18.9731 H   0  0  0  0  0  0  0  0  0  0  0  0
   10.9202    3.6129   22.8889 H   0  0  0  0  0  0  0  0  0  0  0  0
   10.2869    1.6872   23.4130 H   0  0  0  0  0  0  0  0  0  0  0  0
   14.4085    0.7689   22.6365 H   0  0  0  0  0  0  0  0  0  0  0  0
   11.3634   -2.1298   21.7910 H   0  0  0  0  0  0  0  0  0  0  0  0
    5.0712    1.8129   16.6995 H   0  0  0  0  0  0  0  0  0  0  0  0
    8.1159   -0.6122   17.9919 H   0  0  0  0  0  0  0  0  0  0  0  0
   11.4035    6.5243   22.5706 H   0  0  0  0  0  0  0  0  0  0  0  0
   10.2774    5.9083   23.8023 H   0  0  0  0  0  0  0  0  0  0  0  0
   13.8314    6.6273   26.0062 H   0  0  0  0  0  0  0  0  0  0  0  0
   14.9262    6.8310   24.6228 H   0  0  0  0  0  0  0  0  0  0  0  0
   11.1179    8.2560   24.2584 H   0  0  0  0  0  0  0  0  0  0  0  0
   11.4666    7.1390   25.5862 H   0  0  0  0  0  0  0  0  0  0  0  0
    4.3809    0.1072   21.4957 H   0  0  0  0  0  0  0  0  0  0  0  0
    5.9106    0.8605   22.0095 H   0  0  0  0  0  0  0  0  0  0  0  0
    4.5978    1.8729   21.4102 H   0  0  0  0  0  0  0  0  0  0  0  0
    9.0901   -1.6664   22.2639 H   0  0  0  0  0  0  0  0  0  0  0  0
    8.6579   -0.3097   23.2977 H   0  0  0  0  0  0  0  0  0  0  0  0
    7.3129   -1.4300   20.9567 H   0  0  0  0  0  0  0  0  0  0  0  0
  1  2  2  0  0  0  0
  1 10  1  0  0  0  0
  2 12  1  0  0  0  0
  3  8  2  0  0  0  0
  3 14  1  0  0  0  0
  4 10  2  0  0  0  0
  4 13  1  0  0  0  0
  5 11  1  0  0  0  0
  5 15  2  0  0  0  0
  6 11  2  0  0  0  0
  6 17  1  0  0  0  0
  7 15  1  0  0  0  0
  7 17  2  0  0  0  0
  8 24  1  0  0  0  0
  9 16  1  0  0  0  0
  9 24  2  0  0  0  0
 10 11  1  0  0  0  0
 12 13  2  0  0  0  0
 12 20  1  0  0  0  0
 13 19  1  0  0  0  0
 14 16  2  0  0  0  0
 14 22  1  0  0  0  0
 15 23  1  0  0  0  0
 16 25  1  0  0  0  0
 17 28  1  0  0  0  0
 18 23  1  0  0  0  0
 18 25  1  0  0  0  0
 18 26  2  0  0  0  0
 19 21  1  0  0  0  0
 20 27  1  0  0  0  0
 21 27  1  0  0  0  0
  1 29  1  0  0  0  0
  2 30  1  0  0  0  0
  3 31  1  0  0  0  0
  4 32  1  0  0  0  0
  5 33  1  0  0  0  0
  6 34  1  0  0  0  0
  7 35  1  0  0  0  0
  8 36  1  0  0  0  0
  9 37  1  0  0  0  0
 19 38  1  0  0  0  0
 19 39  1  0  0  0  0
 20 40  1  0  0  0  0
 20 41  1  0  0  0  0
 21 42  1  0  0  0  0
 21 43  1  0  0  0  0
 22 44  1  0  0  0  0
 22 45  1  0  0  0  0
 22 46  1  0  0  0  0
 23 47  1  0  0  0  0
 23 48  1  0  0  0  0
 25 49  1  0  0  0  0
M  END
> <BB_SMILES>
CC1(C)OB(c2ccc3c(c2)CCOC3)OC1(C)C

> <scaffold_SMILES>
Cc1ccncc1NC(=O)Cc1cc(Cl)cc(Br)c1

$$$$
EN300-359542
  -OEChem-07272002243D

 43 45  0     0  0  0  0  0  0999 V2000
    5.0000    1.4070   18.8080 C   0  0  0  0  0  0  0  0  0  0  0  0
   11.0490    1.0010   23.0460 C   0  0  0  0  0  0  0  0  0  0  0  0
   12.0168    3.3536   24.4851 C   0  0  0  0  0  0  0  0  0  0  0  0
   13.3680    0.4840   22.6240 C   0  0  0  0  0  0  0  0  0  0  0  0
   11.6520   -1.1420   22.1450 C   0  0  0  0  0  0  0  0  0  0  0  0
    5.5330    1.3060   17.5390 C   0  0  0  0  0  0  0  0  0  0  0  0
   13.8879    3.3286   23.0171 C   0  0  0  0  0  0  0  0  0  0  0  0
    7.2400   -0.0390   18.2610 C   0  0  0  0  0  0  0  0  0  0  0  0
   12.3850    1.3610   23.0530 C   0  0  0  0  0  0  0  0  0  0  0  0
   12.7664    2.6894   23.5206 C   0  0  0  0  0  0  0  0  0  0  0  0
    5.6260    0.7590   19.8690 C   0  0  0  0  0  0  0  0  0  0  0  0
   10.6720   -0.2500   22.5660 C   0  0  0  0  0  0  0  0  0  0  0  0
   12.4062    4.6187   24.9107 C   0  0  0  0  0  0  0  0  0  0  0  0
    6.7930    0.0210   19.5790 C   0  0  0  0  0  0  0  0  0  0  0  0
   12.9770   -0.7640   22.1810 C   0  0  0  0  0  0  0  0  0  0  0  0
   13.5439    5.1714   24.3452 C   0  0  0  0  0  0  0  0  0  0  0  0
    8.6020    0.1230   21.2070 C   0  0  0  0  0  0  0  0  0  0  0  0
    5.0980    0.9060   21.2740 C   0  0  0  0  0  0  0  0  0  0  0  0
    9.2100   -0.5900   22.3990 C   0  0  0  0  0  0  0  0  0  0  0  0
   11.6219    5.3507   25.9416 C   0  0  0  0  0  0  0  0  0  0  0  0
    6.6320    0.5940   17.2520 N   0  0  0  0  0  0  0  0  0  0  0  0
   14.2974    4.5569   23.4059 N   0  0  0  0  0  0  0  0  0  0  0  0
    7.5630   -0.5230   20.6330 N   0  0  0  0  0  0  0  0  0  0  0  0
    9.0150    1.2120   20.8220 O   0  0  0  0  0  0  0  0  0  0  0  0
   13.9387    6.3923   24.7417 F   0  0  0  0  0  0  0  0  0  0  0  0
   10.5301    4.6632   26.3945 F   0  0  0  0  0  0  0  0  0  0  0  0
   12.3387    5.6542   27.0658 F   0  0  0  0  0  0  0  0  0  0  0  0
   11.1363    6.5443   25.4877 F   0  0  0  0  0  0  0  0  0  0  0  0
   14.1940   -1.9100   21.6990 Cl  0  0  0  0  0  0  0  0  0  0  0  0
    4.0894    1.9955   18.9731 H   0  0  0  0  0  0  0  0  0  0  0  0
   10.2869    1.6872   23.4130 H   0  0  0  0  0  0  0  0  0  0  0  0
   11.1283    2.8902   24.9085 H   0  0  0  0  0  0  0  0  0  0  0  0
   14.4085    0.7689   22.6365 H   0  0  0  0  0  0  0  0  0  0  0  0
   11.3634   -2.1298   21.7910 H   0  0  0  0  0  0  0  0  0  0  0  0
    5.0712    1.8129   16.6995 H   0  0  0  0  0  0  0  0  0  0  0  0
   14.5151    2.8641   22.2617 H   0  0  0  0  0  0  0  0  0  0  0  0
    8.1159   -0.6122   17.9919 H   0  0  0  0  0  0  0  0  0  0  0  0
    4.4456    1.7840   21.3446 H   0  0  0  0  0  0  0  0  0  0  0  0
    4.5263    0.0203   21.5772 H   0  0  0  0  0  0  0  0  0  0  0  0
    5.9169    1.0197   21.9952 H   0  0  0  0  0  0  0  0  0  0  0  0
    9.0901   -1.6664   22.2639 H   0  0  0  0  0  0  0  0  0  0  0  0
    8.6579   -0.3097   23.2977 H   0  0  0  0  0  0  0  0  0  0  0  0
    7.3129   -1.4300   20.9567 H   0  0  0  0  0  0  0  0  0  0  0  0
  1  6  2  0  0  0  0
  1 11  1  0  0  0  0
  2  9  1  0  0  0  0
  2 12  2  0  0  0  0
  3 10  2  0  0  0  0
  3 13  1  0  0  0  0
  4  9  2  0  0  0  0
  4 15  1  0  0  0  0
  5 12  1  0  0  0  0
  5 15  2  0  0  0  0
  6 21  1  0  0  0  0
  7 10  1  0  0  0  0
  7 22  2  0  0  0  0
  8 14  1  0  0  0  0
  8 21  2  0  0  0  0
  9 10  1  0  0  0  0
 11 14  2  0  0  0  0
 11 18  1  0  0  0  0
 12 19  1  0  0  0  0
 13 16  2  0  0  0  0
 13 20  1  0  0  0  0
 14 23  1  0  0  0  0
 15 29  1  0  0  0  0
 16 22  1  0  0  0  0
 16 25  1  0  0  0  0
 17 19  1  0  0  0  0
 17 23  1  0  0  0  0
 17 24  2  0  0  0  0
 20 26  1  0  0  0  0
 20 27  1  0  0  0  0
 20 28  1  0  0  0  0
  1 30  1  0  0  0  0
  2 31  1  0  0  0  0
  3 32  1  0  0  0  0
  4 33  1  0  0  0  0
  5 34  1  0  0  0  0
  6 35  1  0  0  0  0
  7 36  1  0  0  0  0
  8 37  1  0  0  0  0
 18 38  1  0  0  0  0
 18 39  1  0  0  0  0
 18 40  1  0  0  0  0
 19 41  1  0  0  0  0
 19 42  1  0  0  0  0
 23 43  1  0  0  0  0
M  END
> <BB_SMILES>
OB(O)c1cnc(F)c(C(F)(F)F)c1

> <scaffold_SMILES>
Cc1ccncc1NC(=O)Cc1cc(Cl)cc(Br)c1

$$$$
EN300-149982
  -OEChem-07272002243D

 47 49  0     0  0  0  0  0  0999 V2000
   12.4556    3.0657   24.8225 C   0  0  0  0  0  0  0  0  0  0  0  0
    5.0000    1.4070   18.8080 C   0  0  0  0  0  0  0  0  0  0  0  0
   11.0490    1.0010   23.0460 C   0  0  0  0  0  0  0  0  0  0  0  0
   13.3680    0.4840   22.6240 C   0  0  0  0  0  0  0  0  0  0  0  0
   11.6520   -1.1420   22.1450 C   0  0  0  0  0  0  0  0  0  0  0  0
   12.8308    4.3329   25.2385 C   0  0  0  0  0  0  0  0  0  0  0  0
    5.5330    1.3060   17.5390 C   0  0  0  0  0  0  0  0  0  0  0  0
    7.2400   -0.0390   18.2610 C   0  0  0  0  0  0  0  0  0  0  0  0
   12.7664    2.6894   23.5206 C   0  0  0  0  0  0  0  0  0  0  0  0
   12.3850    1.3610   23.0530 C   0  0  0  0  0  0  0  0  0  0  0  0
    5.6260    0.7590   19.8690 C   0  0  0  0  0  0  0  0  0  0  0  0
   10.6720   -0.2500   22.5660 C   0  0  0  0  0  0  0  0  0  0  0  0
    6.7930    0.0210   19.5790 C   0  0  0  0  0  0  0  0  0  0  0  0
   13.4334    3.5794   22.6861 C   0  0  0  0  0  0  0  0  0  0  0  0
   12.9770   -0.7640   22.1810 C   0  0  0  0  0  0  0  0  0  0  0  0
   13.7647    4.8237   23.1977 C   0  0  0  0  0  0  0  0  0  0  0  0
    8.6020    0.1230   21.2070 C   0  0  0  0  0  0  0  0  0  0  0  0
    5.0980    0.9060   21.2740 C   0  0  0  0  0  0  0  0  0  0  0  0
   14.4819    5.8183   22.3445 C   0  0  0  0  0  0  0  0  0  0  0  0
   12.7931    3.5485   20.3960 C   0  0  0  0  0  0  0  0  0  0  0  0
    9.2100   -0.5900   22.3990 C   0  0  0  0  0  0  0  0  0  0  0  0
    6.6320    0.5940   17.2520 N   0  0  0  0  0  0  0  0  0  0  0  0
   13.4797    5.2248   24.4569 N   0  0  0  0  0  0  0  0  0  0  0  0
    7.5630   -0.5230   20.6330 N   0  0  0  0  0  0  0  0  0  0  0  0
    9.0150    1.2120   20.8220 O   0  0  0  0  0  0  0  0  0  0  0  0
   13.7542    3.2466   21.4068 O   0  0  0  0  0  0  0  0  0  0  0  0
   14.1940   -1.9100   21.6990 Cl  0  0  0  0  0  0  0  0  0  0  0  0
   11.9361    2.3996   25.5040 H   0  0  0  0  0  0  0  0  0  0  0  0
    4.0894    1.9955   18.9731 H   0  0  0  0  0  0  0  0  0  0  0  0
   10.2869    1.6872   23.4130 H   0  0  0  0  0  0  0  0  0  0  0  0
   14.4085    0.7689   22.6365 H   0  0  0  0  0  0  0  0  0  0  0  0
   11.3634   -2.1298   21.7910 H   0  0  0  0  0  0  0  0  0  0  0  0
   12.6120    4.6747   26.2449 H   0  0  0  0  0  0  0  0  0  0  0  0
    5.0712    1.8129   16.6995 H   0  0  0  0  0  0  0  0  0  0  0  0
    8.1159   -0.6122   17.9919 H   0  0  0  0  0  0  0  0  0  0  0  0
    4.4456    1.7840   21.3446 H   0  0  0  0  0  0  0  0  0  0  0  0
    4.5263    0.0203   21.5772 H   0  0  0  0  0  0  0  0  0  0  0  0
    5.9169    1.0197   21.9952 H   0  0  0  0  0  0  0  0  0  0  0  0
   13.7622    6.4441   21.8044 H   0  0  0  0  0  0  0  0  0  0  0  0
   15.1256    6.4683   22.9498 H   0  0  0  0  0  0  0  0  0  0  0  0
   15.1294    5.3189   21.6132 H   0  0  0  0  0  0  0  0  0  0  0  0
   13.1750    3.2311   19.4226 H   0  0  0  0  0  0  0  0  0  0  0  0
   12.5956    4.6234   20.3890 H   0  0  0  0  0  0  0  0  0  0  0  0
   11.8670    3.0113   20.6142 H   0  0  0  0  0  0  0  0  0  0  0  0
    9.0901   -1.6664   22.2639 H   0  0  0  0  0  0  0  0  0  0  0  0
    8.6579   -0.3097   23.2977 H   0  0  0  0  0  0  0  0  0  0  0  0
    7.3129   -1.4300   20.9567 H   0  0  0  0  0  0  0  0  0  0  0  0
  1  6  1  0  0  0  0
  1  9  2  0  0  0  0
  2  7  2  0  0  0  0
  2 11  1  0  0  0  0
  3 10  2  0  0  0  0
  3 12  1  0  0  0  0
  4 10  1  0  0  0  0
  4 15  2  0  0  0  0
  5 12  2  0  0  0  0
  5 15  1  0  0  0  0
  6 23  2  0  0  0  0
  7 22  1  0  0  0  0
  8 13  1  0  0  0  0
  8 22  2  0  0  0  0
  9 10  1  0  0  0  0
  9 14  1  0  0  0  0
 11 13  2  0  0  0  0
 11 18  1  0  0  0  0
 12 21  1  0  0  0  0
 13 24  1  0  0  0  0
 14 16  2  0  0  0  0
 14 26  1  0  0  0  0
 15 27  1  0  0  0  0
 16 19  1  0  0  0  0
 16 23  1  0  0  0  0
 17 21  1  0  0  0  0
 17 24  1  0  0  0  0
 17 25  2  0  0  0  0
 20 26  1  0  0  0  0
  1 28  1  0  0  0  0
  2 29  1  0  0  0  0
  3 30  1  0  0  0  0
  4 31  1  0  0  0  0
  5 32  1  0  0  0  0
  6 33  1  0  0  0  0
  7 34  1  0  0  0  0
  8 35  1  0  0  0  0
 18 36  1  0  0  0  0
 18 37  1  0  0  0  0
 18 38  1  0  0  0  0
 19 39  1  0  0  0  0
 19 40  1  0  0  0  0
 19 41  1  0  0  0  0
 20 42  1  0  0  0  0
 20 43  1  0  0  0  0
 20 44  1  0  0  0  0
 21 45  1  0  0  0  0
 21 46  1  0  0  0  0
 24 47  1  0  0  0  0
M  END
> <BB_SMILES>
COc1c(B(O)O)ccnc1C

> <scaffold_SMILES>
Cc1ccncc1NC(=O)Cc1cc(Cl)cc(Br)c1

$$$$
EN300-171000
  -OEChem-07272002243D

 40 42  0     0  0  0  0  0  0999 V2000
    5.0000    1.4070   18.8080 C   0  0  0  0  0  0  0  0  0  0  0  0
   11.0490    1.0010   23.0460 C   0  0  0  0  0  0  0  0  0  0  0  0
   13.3680    0.4840   22.6240 C   0  0  0  0  0  0  0  0  0  0  0  0
   11.6520   -1.1420   22.1450 C   0  0  0  0  0  0  0  0  0  0  0  0
   12.0794    3.7709   23.9987 C   0  0  0  0  0  0  0  0  0  0  0  0
    5.5330    1.3060   17.5390 C   0  0  0  0  0  0  0  0  0  0  0  0
    7.2400   -0.0390   18.2610 C   0  0  0  0  0  0  0  0  0  0  0  0
   12.3850    1.3610   23.0530 C   0  0  0  0  0  0  0  0  0  0  0  0
    5.6260    0.7590   19.8690 C   0  0  0  0  0  0  0  0  0  0  0  0
   10.6720   -0.2500   22.5660 C   0  0  0  0  0  0  0  0  0  0  0  0
    6.7930    0.0210   19.5790 C   0  0  0  0  0  0  0  0  0  0  0  0
   12.9770   -0.7640   22.1810 C   0  0  0  0  0  0  0  0  0  0  0  0
   12.7645    2.6858   23.5197 C   0  0  0  0  0  0  0  0  0  0  0  0
   13.0882    4.7138   24.2614 C   0  0  0  0  0  0  0  0  0  0  0  0
    8.6020    0.1230   21.2070 C   0  0  0  0  0  0  0  0  0  0  0  0
    5.0980    0.9060   21.2740 C   0  0  0  0  0  0  0  0  0  0  0  0
   12.9308    6.0765   24.7948 C   0  0  0  0  0  0  0  0  0  0  0  0
    9.2100   -0.5900   22.3990 C   0  0  0  0  0  0  0  0  0  0  0  0
    6.6320    0.5940   17.2520 N   0  0  0  0  0  0  0  0  0  0  0  0
   14.3058    4.2490   23.9678 N   0  0  0  0  0  0  0  0  0  0  0  0
    7.5630   -0.5230   20.6330 N   0  0  0  0  0  0  0  0  0  0  0  0
    9.0150    1.2120   20.8220 O   0  0  0  0  0  0  0  0  0  0  0  0
   14.0941    2.9589   23.4965 O   0  0  0  0  0  0  0  0  0  0  0  0
   14.1940   -1.9100   21.6990 Cl  0  0  0  0  0  0  0  0  0  0  0  0
    4.0894    1.9955   18.9731 H   0  0  0  0  0  0  0  0  0  0  0  0
   10.2872    1.6875   23.4133 H   0  0  0  0  0  0  0  0  0  0  0  0
   14.4086    0.7688   22.6369 H   0  0  0  0  0  0  0  0  0  0  0  0
   11.3634   -2.1302   21.7918 H   0  0  0  0  0  0  0  0  0  0  0  0
   11.0123    3.8661   24.1380 H   0  0  0  0  0  0  0  0  0  0  0  0
    5.0712    1.8129   16.6995 H   0  0  0  0  0  0  0  0  0  0  0  0
    8.1159   -0.6122   17.9919 H   0  0  0  0  0  0  0  0  0  0  0  0
    4.4460    1.7843   21.3447 H   0  0  0  0  0  0  0  0  0  0  0  0
    4.5259    0.0205   21.5771 H   0  0  0  0  0  0  0  0  0  0  0  0
    5.9169    1.0193   21.9952 H   0  0  0  0  0  0  0  0  0  0  0  0
   12.9789    6.0841   25.8975 H   0  0  0  0  0  0  0  0  0  0  0  0
   13.7129    6.7634   24.4240 H   0  0  0  0  0  0  0  0  0  0  0  0
   11.9672    6.5313   24.5017 H   0  0  0  0  0  0  0  0  0  0  0  0
    9.0901   -1.6664   22.2639 H   0  0  0  0  0  0  0  0  0  0  0  0
    8.6579   -0.3097   23.2977 H   0  0  0  0  0  0  0  0  0  0  0  0
    7.3129   -1.4300   20.9567 H   0  0  0  0  0  0  0  0  0  0  0  0
  1  6  2  0  0  0  0
  1  9  1  0  0  0  0
  2  8  2  0  0  0  0
  2 10  1  0  0  0  0
  3  8  1  0  0  0  0
  3 12  2  0  0  0  0
  4 10  2  0  0  0  0
  4 12  1  0  0  0  0
  5 13  2  0  0  0  0
  5 14  1  0  0  0  0
  6 19  1  0  0  0  0
  7 11  1  0  0  0  0
  7 19  2  0  0  0  0
  8 13  1  0  0  0  0
  9 11  2  0  0  0  0
  9 16  1  0  0  0  0
 10 18  1  0  0  0  0
 11 21  1  0  0  0  0
 12 24  1  0  0  0  0
 13 23  1  0  0  0  0
 14 17  1  0  0  0  0
 14 20  2  0  0  0  0
 15 18  1  0  0  0  0
 15 21  1  0  0  0  0
 15 22  2  0  0  0  0
 20 23  1  0  0  0  0
  1 25  1  0  0  0  0
  2 26  1  0  0  0  0
  3 27  1  0  0  0  0
  4 28  1  0  0  0  0
  5 29  1  0  0  0  0
  6 30  1  0  0  0  0
  7 31  1  0  0  0  0
 16 32  1  0  0  0  0
 16 33  1  0  0  0  0
 16 34  1  0  0  0  0
 17 35  1  0  0  0  0
 17 36  1  0  0  0  0
 17 37  1  0  0  0  0
 18 38  1  0  0  0  0
 18 39  1  0  0  0  0
 21 40  1  0  0  0  0
M  END
> <BB_SMILES>
Cc1cc(B2OC(C)(C)C(C)(C)O2)on1

> <scaffold_SMILES>
Cc1ccncc1NC(=O)Cc1cc(Cl)cc(Br)c1

$$$$
EN300-372049
  -OEChem-07272002243D

 37 39  0     0  0  0  0  0  0999 V2000
    5.0000    1.4070   18.8080 C   0  0  0  0  0  0  0  0  0  0  0  0
   11.0490    1.0010   23.0460 C   0  0  0  0  0  0  0  0  0  0  0  0
   13.3680    0.4840   22.6240 C   0  0  0  0  0  0  0  0  0  0  0  0
   11.6520   -1.1420   22.1450 C   0  0  0  0  0  0  0  0  0  0  0  0
    5.5330    1.3060   17.5390 C   0  0  0  0  0  0  0  0  0  0  0  0
   13.9764    3.0741   24.1523 C   0  0  0  0  0  0  0  0  0  0  0  0
    7.2400   -0.0390   18.2610 C   0  0  0  0  0  0  0  0  0  0  0  0
   11.9244    3.7638   23.3848 C   0  0  0  0  0  0  0  0  0  0  0  0
   12.3850    1.3610   23.0530 C   0  0  0  0  0  0  0  0  0  0  0  0
   12.7637    2.6791   23.5184 C   0  0  0  0  0  0  0  0  0  0  0  0
    5.6260    0.7590   19.8690 C   0  0  0  0  0  0  0  0  0  0  0  0
   10.6720   -0.2500   22.5660 C   0  0  0  0  0  0  0  0  0  0  0  0
    6.7930    0.0210   19.5790 C   0  0  0  0  0  0  0  0  0  0  0  0
   12.9770   -0.7640   22.1810 C   0  0  0  0  0  0  0  0  0  0  0  0
    8.6020    0.1230   21.2070 C   0  0  0  0  0  0  0  0  0  0  0  0
    5.0980    0.9060   21.2740 C   0  0  0  0  0  0  0  0  0  0  0  0
    9.2100   -0.5900   22.3990 C   0  0  0  0  0  0  0  0  0  0  0  0
    6.6320    0.5940   17.2520 N   0  0  0  0  0  0  0  0  0  0  0  0
   14.0965    4.3549   24.4932 N   0  0  0  0  0  0  0  0  0  0  0  0
    7.5630   -0.5230   20.6330 N   0  0  0  0  0  0  0  0  0  0  0  0
    9.0150    1.2120   20.8220 O   0  0  0  0  0  0  0  0  0  0  0  0
   12.7027    5.1402   24.0431 S   0  0  0  0  0  0  0  0  0  0  0  0
   14.1940   -1.9100   21.6990 Cl  0  0  0  0  0  0  0  0  0  0  0  0
    4.0894    1.9955   18.9731 H   0  0  0  0  0  0  0  0  0  0  0  0
   10.2867    1.6869   23.4134 H   0  0  0  0  0  0  0  0  0  0  0  0
   14.4087    0.7684   22.6364 H   0  0  0  0  0  0  0  0  0  0  0  0
   11.3634   -2.1302   21.7917 H   0  0  0  0  0  0  0  0  0  0  0  0
    5.0712    1.8129   16.6995 H   0  0  0  0  0  0  0  0  0  0  0  0
   14.8116    2.4257   24.3830 H   0  0  0  0  0  0  0  0  0  0  0  0
    8.1159   -0.6122   17.9919 H   0  0  0  0  0  0  0  0  0  0  0  0
   10.9345    3.8205   22.9527 H   0  0  0  0  0  0  0  0  0  0  0  0
    4.4452    1.7837   21.3445 H   0  0  0  0  0  0  0  0  0  0  0  0
    4.5267    0.0201   21.5774 H   0  0  0  0  0  0  0  0  0  0  0  0
    5.9169    1.0203   21.9951 H   0  0  0  0  0  0  0  0  0  0  0  0
    9.0901   -1.6664   22.2639 H   0  0  0  0  0  0  0  0  0  0  0  0
    8.6579   -0.3097   23.2977 H   0  0  0  0  0  0  0  0  0  0  0  0
    7.3129   -1.4300   20.9567 H   0  0  0  0  0  0  0  0  0  0  0  0
  1  5  2  0  0  0  0
  1 11  1  0  0  0  0
  2  9  1  0  0  0  0
  2 12  2  0  0  0  0
  3  9  2  0  0  0  0
  3 14  1  0  0  0  0
  4 12  1  0  0  0  0
  4 14  2  0  0  0  0
  5 18  1  0  0  0  0
  6 10  1  0  0  0  0
  6 19  2  0  0  0  0
  7 13  1  0  0  0  0
  7 18  2  0  0  0  0
  8 10  2  0  0  0  0
  8 22  1  0  0  0  0
  9 10  1  0  0  0  0
 11 13  2  0  0  0  0
 11 16  1  0  0  0  0
 12 17  1  0  0  0  0
 13 20  1  0  0  0  0
 14 23  1  0  0  0  0
 15 17  1  0  0  0  0
 15 20  1  0  0  0  0
 15 21  2  0  0  0  0
 19 22  1  0  0  0  0
  1 24  1  0  0  0  0
  2 25  1  0  0  0  0
  3 26  1  0  0  0  0
  4 27  1  0  0  0  0
  5 28  1  0  0  0  0
  6 29  1  0  0  0  0
  7 30  1  0  0  0  0
  8 31  1  0  0  0  0
 16 32  1  0  0  0  0
 16 33  1  0  0  0  0
 16 34  1  0  0  0  0
 17 35  1  0  0  0  0
 17 36  1  0  0  0  0
 20 37  1  0  0  0  0
M  END
> <BB_SMILES>
CC1(C)OB(c2cnsc2)OC1(C)C

> <scaffold_SMILES>
Cc1ccncc1NC(=O)Cc1cc(Cl)cc(Br)c1

$$$$
EN300-181624
  -OEChem-07272002243D

 61 63  0     0  0  0  0  0  0999 V2000
    5.0000    1.4070   18.8080 C   0  0  0  0  0  0  0  0  0  0  0  0
   11.0490    1.0010   23.0460 C   0  0  0  0  0  0  0  0  0  0  0  0
   13.3680    0.4840   22.6240 C   0  0  0  0  0  0  0  0  0  0  0  0
   11.6520   -1.1420   22.1450 C   0  0  0  0  0  0  0  0  0  0  0  0
    5.5330    1.3060   17.5390 C   0  0  0  0  0  0  0  0  0  0  0  0
    7.2400   -0.0390   18.2610 C   0  0  0  0  0  0  0  0  0  0  0  0
   12.3850    1.3610   23.0530 C   0  0  0  0  0  0  0  0  0  0  0  0
    5.6260    0.7590   19.8690 C   0  0  0  0  0  0  0  0  0  0  0  0
   10.6720   -0.2500   22.5660 C   0  0  0  0  0  0  0  0  0  0  0  0
    6.7930    0.0210   19.5790 C   0  0  0  0  0  0  0  0  0  0  0  0
   12.9770   -0.7640   22.1810 C   0  0  0  0  0  0  0  0  0  0  0  0
    8.6020    0.1230   21.2070 C   0  0  0  0  0  0  0  0  0  0  0  0
   11.4847    6.4437   25.1167 C   0  0  0  0  0  0  0  0  0  0  0  0
   12.1828    3.8687   22.6645 C   0  0  0  0  0  0  0  0  0  0  0  0
   12.4107    2.9761   25.0203 C   0  0  0  0  0  0  0  0  0  0  0  0
   12.5872    5.2505   23.1768 C   0  0  0  0  0  0  0  0  0  0  0  0
   12.8107    4.3761   25.4821 C   0  0  0  0  0  0  0  0  0  0  0  0
   12.7841    2.7539   23.5420 C   0  0  0  0  0  0  0  0  0  0  0  0
    5.0980    0.9060   21.2740 C   0  0  0  0  0  0  0  0  0  0  0  0
    9.1418    7.3798   26.4681 C   0  0  0  0  0  0  0  0  0  0  0  0
   10.4703    7.0910   28.5802 C   0  0  0  0  0  0  0  0  0  0  0  0
   11.2360    8.7268   26.8349 C   0  0  0  0  0  0  0  0  0  0  0  0
    9.2100   -0.5900   22.3990 C   0  0  0  0  0  0  0  0  0  0  0  0
   10.5401    7.3895   27.0841 C   0  0  0  0  0  0  0  0  0  0  0  0
    6.6320    0.5940   17.2520 N   0  0  0  0  0  0  0  0  0  0  0  0
   12.2507    5.3967   24.5968 N   0  0  0  0  0  0  0  0  0  0  0  0
    7.5630   -0.5230   20.6330 N   0  0  0  0  0  0  0  0  0  0  0  0
    9.0150    1.2120   20.8220 O   0  0  0  0  0  0  0  0  0  0  0  0
   11.0093    7.3555   24.4423 O   0  0  0  0  0  0  0  0  0  0  0  0
   11.3147    6.3514   26.4727 O   0  0  0  0  0  0  0  0  0  0  0  0
   14.1940   -1.9100   21.6990 Cl  0  0  0  0  0  0  0  0  0  0  0  0
    4.0894    1.9955   18.9731 H   0  0  0  0  0  0  0  0  0  0  0  0
   10.2922    1.6915   23.4141 H   0  0  0  0  0  0  0  0  0  0  0  0
   14.4065    0.7745   22.6386 H   0  0  0  0  0  0  0  0  0  0  0  0
   11.3638   -2.1301   21.7911 H   0  0  0  0  0  0  0  0  0  0  0  0
    5.0712    1.8129   16.6995 H   0  0  0  0  0  0  0  0  0  0  0  0
    8.1159   -0.6122   17.9919 H   0  0  0  0  0  0  0  0  0  0  0  0
   11.0870    3.7932   22.6490 H   0  0  0  0  0  0  0  0  0  0  0  0
   12.5192    3.7514   21.6268 H   0  0  0  0  0  0  0  0  0  0  0  0
   12.9079    2.2277   25.6496 H   0  0  0  0  0  0  0  0  0  0  0  0
   11.3306    2.8399   25.1657 H   0  0  0  0  0  0  0  0  0  0  0  0
   13.6709    5.3899   23.0841 H   0  0  0  0  0  0  0  0  0  0  0  0
   12.1067    6.0214   22.5684 H   0  0  0  0  0  0  0  0  0  0  0  0
   12.4822    4.5347   26.5141 H   0  0  0  0  0  0  0  0  0  0  0  0
   13.9010    4.4889   25.4633 H   0  0  0  0  0  0  0  0  0  0  0  0
   13.8980    2.8087   23.4549 H   0  0  0  0  0  0  0  0  0  0  0  0
    4.6486    1.8966   21.4091 H   0  0  0  0  0  0  0  0  0  0  0  0
    4.3393    0.1449   21.4939 H   0  0  0  0  0  0  0  0  0  0  0  0
    5.8989    0.7814   22.0133 H   0  0  0  0  0  0  0  0  0  0  0  0
    9.1877    7.5936   25.3942 H   0  0  0  0  0  0  0  0  0  0  0  0
    8.6454    6.4142   26.6095 H   0  0  0  0  0  0  0  0  0  0  0  0
    8.5135    8.1603   26.9121 H   0  0  0  0  0  0  0  0  0  0  0  0
   11.4714    7.0969   29.0263 H   0  0  0  0  0  0  0  0  0  0  0  0
   10.0582    6.0915   28.7599 H   0  0  0  0  0  0  0  0  0  0  0  0
    9.8505    7.8219   29.1095 H   0  0  0  0  0  0  0  0  0  0  0  0
   12.2390    8.7340   27.2767 H   0  0  0  0  0  0  0  0  0  0  0  0
   11.3281    8.9403   25.7650 H   0  0  0  0  0  0  0  0  0  0  0  0
   10.6841    9.5473   27.3075 H   0  0  0  0  0  0  0  0  0  0  0  0
    9.0902   -1.6664   22.2639 H   0  0  0  0  0  0  0  0  0  0  0  0
    8.6579   -0.3097   23.2977 H   0  0  0  0  0  0  0  0  0  0  0  0
    7.3129   -1.4300   20.9567 H   0  0  0  0  0  0  0  0  0  0  0  0
  1  5  2  0  0  0  0
  1  8  1  0  0  0  0
  2  7  1  0  0  0  0
  2  9  2  0  0  0  0
  3  7  2  0  0  0  0
  3 11  1  0  0  0  0
  4  9  1  0  0  0  0
  4 11  2  0  0  0  0
  5 25  1  0  0  0  0
  6 10  1  0  0  0  0
  6 25  2  0  0  0  0
  7 18  1  0  0  0  0
  8 10  2  0  0  0  0
  8 19  1  0  0  0  0
  9 23  1  0  0  0  0
 10 27  1  0  0  0  0
 11 31  1  0  0  0  0
 12 23  1  0  0  0  0
 12 27  1  0  0  0  0
 12 28  2  0  0  0  0
 13 26  1  0  0  0  0
 13 29  2  0  0  0  0
 13 30  1  0  0  0  0
 14 16  1  0  0  0  0
 14 18  1  0  0  0  0
 15 17  1  0  0  0  0
 15 18  1  0  0  0  0
 16 26  1  0  0  0  0
 17 26  1  0  0  0  0
 20 24  1  0  0  0  0
 21 24  1  0  0  0  0
 22 24  1  0  0  0  0
 24 30  1  0  0  0  0
  1 32  1  0  0  0  0
  2 33  1  0  0  0  0
  3 34  1  0  0  0  0
  4 35  1  0  0  0  0
  5 36  1  0  0  0  0
  6 37  1  0  0  0  0
 14 38  1  0  0  0  0
 14 39  1  0  0  0  0
 15 40  1  0  0  0  0
 15 41  1  0  0  0  0
 16 42  1  0  0  0  0
 16 43  1  0  0  0  0
 17 44  1  0  0  0  0
 17 45  1  0  0  0  0
 18 46  1  0  0  0  0
 19 47  1  0  0  0  0
 19 48  1  0  0  0  0
 19 49  1  0  0  0  0
 20 50  1  0  0  0  0
 20 51  1  0  0  0  0
 20 52  1  0  0  0  0
 21 53  1  0  0  0  0
 21 54  1  0  0  0  0
 21 55  1  0  0  0  0
 22 56  1  0  0  0  0
 22 57  1  0  0  0  0
 22 58  1  0  0  0  0
 23 59  1  0  0  0  0
 23 60  1  0  0  0  0
 27 61  1  0  0  0  0
M  END
> <BB_SMILES>
CC(C)(C)OC(=O)N1CCC(B2OC(C)(C)C(C)(C)O2)CC1

> <scaffold_SMILES>
Cc1ccncc1NC(=O)Cc1cc(Cl)cc(Br)c1

$$$$
EN300-311774
  -OEChem-07272002243D

 47 50  0     0  0  0  0  0  0999 V2000
   12.6260    8.4248   24.7186 C   0  0  0  0  0  0  0  0  0  0  0  0
   13.0732    7.1108   24.6356 C   0  0  0  0  0  0  0  0  0  0  0  0
    5.0000    1.4070   18.8080 C   0  0  0  0  0  0  0  0  0  0  0  0
   11.0490    1.0010   23.0460 C   0  0  0  0  0  0  0  0  0  0  0  0
   13.3680    0.4840   22.6240 C   0  0  0  0  0  0  0  0  0  0  0  0
   11.6520   -1.1420   22.1450 C   0  0  0  0  0  0  0  0  0  0  0  0
   11.3705    8.7159   24.2100 C   0  0  0  0  0  0  0  0  0  0  0  0
    5.5330    1.3060   17.5390 C   0  0  0  0  0  0  0  0  0  0  0  0
   13.9342    3.1425   24.1486 C   0  0  0  0  0  0  0  0  0  0  0  0
   11.0232    6.5351   23.5761 C   0  0  0  0  0  0  0  0  0  0  0  0
    7.2400   -0.0390   18.2610 C   0  0  0  0  0  0  0  0  0  0  0  0
   11.9688    3.7938   23.4081 C   0  0  0  0  0  0  0  0  0  0  0  0
   12.3850    1.3610   23.0530 C   0  0  0  0  0  0  0  0  0  0  0  0
   12.7637    2.6791   23.5184 C   0  0  0  0  0  0  0  0  0  0  0  0
    5.6260    0.7590   19.8690 C   0  0  0  0  0  0  0  0  0  0  0  0
   10.6720   -0.2500   22.5660 C   0  0  0  0  0  0  0  0  0  0  0  0
   12.2625    6.1419   24.0549 C   0  0  0  0  0  0  0  0  0  0  0  0
    6.7930    0.0210   19.5790 C   0  0  0  0  0  0  0  0  0  0  0  0
   12.9770   -0.7640   22.1810 C   0  0  0  0  0  0  0  0  0  0  0  0
    8.6020    0.1230   21.2070 C   0  0  0  0  0  0  0  0  0  0  0  0
    5.0980    0.9060   21.2740 C   0  0  0  0  0  0  0  0  0  0  0  0
    9.2100   -0.5900   22.3990 C   0  0  0  0  0  0  0  0  0  0  0  0
   10.5546    7.8017   23.6388 N   0  0  0  0  0  0  0  0  0  0  0  0
    6.6320    0.5940   17.2520 N   0  0  0  0  0  0  0  0  0  0  0  0
   13.8910    4.4497   24.4195 N   0  0  0  0  0  0  0  0  0  0  0  0
   12.6838    4.8172   23.9572 N   0  0  0  0  0  0  0  0  0  0  0  0
    7.5630   -0.5230   20.6330 N   0  0  0  0  0  0  0  0  0  0  0  0
    9.0150    1.2120   20.8220 O   0  0  0  0  0  0  0  0  0  0  0  0
   14.1940   -1.9100   21.6990 Cl  0  0  0  0  0  0  0  0  0  0  0  0
   13.2419    9.1957   25.1676 H   0  0  0  0  0  0  0  0  0  0  0  0
   14.0545    6.8555   25.0270 H   0  0  0  0  0  0  0  0  0  0  0  0
    4.0894    1.9955   18.9731 H   0  0  0  0  0  0  0  0  0  0  0  0
   10.2867    1.6869   23.4134 H   0  0  0  0  0  0  0  0  0  0  0  0
   14.4087    0.7684   22.6364 H   0  0  0  0  0  0  0  0  0  0  0  0
   11.3634   -2.1302   21.7917 H   0  0  0  0  0  0  0  0  0  0  0  0
   10.9755    9.7258   24.2501 H   0  0  0  0  0  0  0  0  0  0  0  0
    5.0712    1.8129   16.6995 H   0  0  0  0  0  0  0  0  0  0  0  0
   14.8190    2.5856   24.4229 H   0  0  0  0  0  0  0  0  0  0  0  0
   10.3438    5.8252   23.1130 H   0  0  0  0  0  0  0  0  0  0  0  0
    8.1159   -0.6122   17.9919 H   0  0  0  0  0  0  0  0  0  0  0  0
   10.9787    3.9399   22.9954 H   0  0  0  0  0  0  0  0  0  0  0  0
    4.4452    1.7837   21.3445 H   0  0  0  0  0  0  0  0  0  0  0  0
    4.5267    0.0201   21.5774 H   0  0  0  0  0  0  0  0  0  0  0  0
    5.9169    1.0203   21.9951 H   0  0  0  0  0  0  0  0  0  0  0  0
    9.0901   -1.6664   22.2639 H   0  0  0  0  0  0  0  0  0  0  0  0
    8.6579   -0.3097   23.2977 H   0  0  0  0  0  0  0  0  0  0  0  0
    7.3129   -1.4300   20.9567 H   0  0  0  0  0  0  0  0  0  0  0  0
  1  2  2  0  0  0  0
  1  7  1  0  0  0  0
  2 17  1  0  0  0  0
  3  8  2  0  0  0  0
  3 15  1  0  0  0  0
  4 13  1  0  0  0  0
  4 16  2  0  0  0  0
  5 13  2  0  0  0  0
  5 19  1  0  0  0  0
  6 16  1  0  0  0  0
  6 19  2  0  0  0  0
  7 23  2  0  0  0  0
  8 24  1  0  0  0  0
  9 14  1  0  0  0  0
  9 25  2  0  0  0  0
 10 17  2  0  0  0  0
 10 23  1  0  0  0  0
 11 18  1  0  0  0  0
 11 24  2  0  0  0  0
 12 14  2  0  0  0  0
 12 26  1  0  0  0  0
 13 14  1  0  0  0  0
 15 18  2  0  0  0  0
 15 21  1  0  0  0  0
 16 22  1  0  0  0  0
 17 26  1  0  0  0  0
 18 27  1  0  0  0  0
 19 29  1  0  0  0  0
 20 22  1  0  0  0  0
 20 27  1  0  0  0  0
 20 28  2  0  0  0  0
 25 26  1  0  0  0  0
  1 30  1  0  0  0  0
  2 31  1  0  0  0  0
  3 32  1  0  0  0  0
  4 33  1  0  0  0  0
  5 34  1  0  0  0  0
  6 35  1  0  0  0  0
  7 36  1  0  0  0  0
  8 37  1  0  0  0  0
  9 38  1  0  0  0  0
 10 39  1  0  0  0  0
 11 40  1  0  0  0  0
 12 41  1  0  0  0  0
 21 42  1  0  0  0  0
 21 43  1  0  0  0  0
 21 44  1  0  0  0  0
 22 45  1  0  0  0  0
 22 46  1  0  0  0  0
 27 47  1  0  0  0  0
M  END
> <BB_SMILES>
CC1(C)OB(c2cnn(-c3cccnc3)c2)OC1(C)C

> <scaffold_SMILES>
Cc1ccncc1NC(=O)Cc1cc(Cl)cc(Br)c1

$$$$
EN300-363385
  -OEChem-07272002243D

 47 49  0     0  0  0  0  0  0999 V2000
   13.7867    4.8491   23.1576 C   0  0  0  0  0  0  0  0  0  0  0  0
   13.4708    5.2181   24.4652 C   0  0  0  0  0  0  0  0  0  0  0  0
    5.0000    1.4070   18.8080 C   0  0  0  0  0  0  0  0  0  0  0  0
   11.0490    1.0010   23.0460 C   0  0  0  0  0  0  0  0  0  0  0  0
   12.4506    3.0584   24.8282 C   0  0  0  0  0  0  0  0  0  0  0  0
   13.3680    0.4840   22.6240 C   0  0  0  0  0  0  0  0  0  0  0  0
   11.6520   -1.1420   22.1450 C   0  0  0  0  0  0  0  0  0  0  0  0
    5.5330    1.3060   17.5390 C   0  0  0  0  0  0  0  0  0  0  0  0
    7.2400   -0.0390   18.2610 C   0  0  0  0  0  0  0  0  0  0  0  0
   12.3850    1.3610   23.0530 C   0  0  0  0  0  0  0  0  0  0  0  0
   12.7664    2.6894   23.5206 C   0  0  0  0  0  0  0  0  0  0  0  0
   13.4344    3.5848   22.6853 C   0  0  0  0  0  0  0  0  0  0  0  0
    5.6260    0.7590   19.8690 C   0  0  0  0  0  0  0  0  0  0  0  0
   10.6720   -0.2500   22.5660 C   0  0  0  0  0  0  0  0  0  0  0  0
    6.7930    0.0210   19.5790 C   0  0  0  0  0  0  0  0  0  0  0  0
   12.8028    4.3227   25.3005 C   0  0  0  0  0  0  0  0  0  0  0  0
   12.9770   -0.7640   22.1810 C   0  0  0  0  0  0  0  0  0  0  0  0
   13.7829    3.2398   21.3118 C   0  0  0  0  0  0  0  0  0  0  0  0
    8.6020    0.1230   21.2070 C   0  0  0  0  0  0  0  0  0  0  0  0
    5.0980    0.9060   21.2740 C   0  0  0  0  0  0  0  0  0  0  0  0
   14.1284    4.1349   19.1310 C   0  0  0  0  0  0  0  0  0  0  0  0
    9.2100   -0.5900   22.3990 C   0  0  0  0  0  0  0  0  0  0  0  0
    6.6320    0.5940   17.2520 N   0  0  0  0  0  0  0  0  0  0  0  0
    7.5630   -0.5230   20.6330 N   0  0  0  0  0  0  0  0  0  0  0  0
   14.0305    2.0930   20.9235 O   0  0  0  0  0  0  0  0  0  0  0  0
    9.0150    1.2120   20.8220 O   0  0  0  0  0  0  0  0  0  0  0  0
   13.7996    4.3453   20.5084 O   0  0  0  0  0  0  0  0  0  0  0  0
   12.4998    4.6776   26.5560 F   0  0  0  0  0  0  0  0  0  0  0  0
   14.1940   -1.9100   21.6990 Cl  0  0  0  0  0  0  0  0  0  0  0  0
   14.3069    5.5559   22.5161 H   0  0  0  0  0  0  0  0  0  0  0  0
   13.7448    6.2025   24.8325 H   0  0  0  0  0  0  0  0  0  0  0  0
    4.0894    1.9955   18.9731 H   0  0  0  0  0  0  0  0  0  0  0  0
   10.2869    1.6872   23.4130 H   0  0  0  0  0  0  0  0  0  0  0  0
   11.9296    2.3734   25.4929 H   0  0  0  0  0  0  0  0  0  0  0  0
   14.4085    0.7689   22.6365 H   0  0  0  0  0  0  0  0  0  0  0  0
   11.3634   -2.1298   21.7910 H   0  0  0  0  0  0  0  0  0  0  0  0
    5.0712    1.8129   16.6995 H   0  0  0  0  0  0  0  0  0  0  0  0
    8.1159   -0.6122   17.9919 H   0  0  0  0  0  0  0  0  0  0  0  0
    4.4456    1.7840   21.3446 H   0  0  0  0  0  0  0  0  0  0  0  0
    4.5263    0.0203   21.5772 H   0  0  0  0  0  0  0  0  0  0  0  0
    5.9169    1.0197   21.9952 H   0  0  0  0  0  0  0  0  0  0  0  0
   14.1073    5.0900   18.6005 H   0  0  0  0  0  0  0  0  0  0  0  0
   13.4095    3.4426   18.6855 H   0  0  0  0  0  0  0  0  0  0  0  0
   15.1315    3.7069   19.0664 H   0  0  0  0  0  0  0  0  0  0  0  0
    9.0901   -1.6664   22.2639 H   0  0  0  0  0  0  0  0  0  0  0  0
    8.6579   -0.3097   23.2977 H   0  0  0  0  0  0  0  0  0  0  0  0
    7.3129   -1.4300   20.9567 H   0  0  0  0  0  0  0  0  0  0  0  0
  1  2  2  0  0  0  0
  1 12  1  0  0  0  0
  2 16  1  0  0  0  0
  3  8  2  0  0  0  0
  3 13  1  0  0  0  0
  4 10  2  0  0  0  0
  4 14  1  0  0  0  0
  5 11  1  0  0  0  0
  5 16  2  0  0  0  0
  6 10  1  0  0  0  0
  6 17  2  0  0  0  0
  7 14  2  0  0  0  0
  7 17  1  0  0  0  0
  8 23  1  0  0  0  0
  9 15  1  0  0  0  0
  9 23  2  0  0  0  0
 10 11  1  0  0  0  0
 11 12  2  0  0  0  0
 12 18  1  0  0  0  0
 13 15  2  0  0  0  0
 13 20  1  0  0  0  0
 14 22  1  0  0  0  0
 15 24  1  0  0  0  0
 16 28  1  0  0  0  0
 17 29  1  0  0  0  0
 18 25  2  0  0  0  0
 18 27  1  0  0  0  0
 19 22  1  0  0  0  0
 19 24  1  0  0  0  0
 19 26  2  0  0  0  0
 21 27  1  0  0  0  0
  1 30  1  0  0  0  0
  2 31  1  0  0  0  0
  3 32  1  0  0  0  0
  4 33  1  0  0  0  0
  5 34  1  0  0  0  0
  6 35  1  0  0  0  0
  7 36  1  0  0  0  0
  8 37  1  0  0  0  0
  9 38  1  0  0  0  0
 20 39  1  0  0  0  0
 20 40  1  0  0  0  0
 20 41  1  0  0  0  0
 21 42  1  0  0  0  0
 21 43  1  0  0  0  0
 21 44  1  0  0  0  0
 22 45  1  0  0  0  0
 22 46  1  0  0  0  0
 24 47  1  0  0  0  0
M  END
> <BB_SMILES>
COC(=O)c1ccc(F)cc1B1OC(C)(C)C(C)(C)O1

> <scaffold_SMILES>
Cc1ccncc1NC(=O)Cc1cc(Cl)cc(Br)c1

$$$$
EN300-363832
  -OEChem-07272002243D

 46 48  0     0  0  0  0  0  0999 V2000
    5.0000    1.4070   18.8080 C   0  0  0  0  0  0  0  0  0  0  0  0
   11.0490    1.0010   23.0460 C   0  0  0  0  0  0  0  0  0  0  0  0
   13.3680    0.4840   22.6240 C   0  0  0  0  0  0  0  0  0  0  0  0
   11.6520   -1.1420   22.1450 C   0  0  0  0  0  0  0  0  0  0  0  0
    5.5330    1.3060   17.5390 C   0  0  0  0  0  0  0  0  0  0  0  0
    7.2400   -0.0390   18.2610 C   0  0  0  0  0  0  0  0  0  0  0  0
   12.3850    1.3610   23.0530 C   0  0  0  0  0  0  0  0  0  0  0  0
    5.6260    0.7590   19.8690 C   0  0  0  0  0  0  0  0  0  0  0  0
   10.6720   -0.2500   22.5660 C   0  0  0  0  0  0  0  0  0  0  0  0
    6.7930    0.0210   19.5790 C   0  0  0  0  0  0  0  0  0  0  0  0
   12.9770   -0.7640   22.1810 C   0  0  0  0  0  0  0  0  0  0  0  0
   13.4197    3.5843   22.7305 C   0  0  0  0  0  0  0  0  0  0  0  0
   12.7757    2.7206   23.5336 C   0  0  0  0  0  0  0  0  0  0  0  0
   13.8803    4.9145   23.2214 C   0  0  0  0  0  0  0  0  0  0  0  0
    8.6020    0.1230   21.2070 C   0  0  0  0  0  0  0  0  0  0  0  0
   12.4589    3.0876   24.9578 C   0  0  0  0  0  0  0  0  0  0  0  0
   12.2856    4.5931   25.0983 C   0  0  0  0  0  0  0  0  0  0  0  0
    5.0980    0.9060   21.2740 C   0  0  0  0  0  0  0  0  0  0  0  0
   13.7112    6.6265   24.9973 C   0  0  0  0  0  0  0  0  0  0  0  0
    9.2100   -0.5900   22.3990 C   0  0  0  0  0  0  0  0  0  0  0  0
    6.6320    0.5940   17.2520 N   0  0  0  0  0  0  0  0  0  0  0  0
   13.3625    5.3269   24.4449 N   0  0  0  0  0  0  0  0  0  0  0  0
    7.5630   -0.5230   20.6330 N   0  0  0  0  0  0  0  0  0  0  0  0
   14.6720    5.5556   22.5315 O   0  0  0  0  0  0  0  0  0  0  0  0
    9.0150    1.2120   20.8220 O   0  0  0  0  0  0  0  0  0  0  0  0
   14.1940   -1.9100   21.6990 Cl  0  0  0  0  0  0  0  0  0  0  0  0
    4.0894    1.9955   18.9731 H   0  0  0  0  0  0  0  0  0  0  0  0
   10.2871    1.6869   23.4136 H   0  0  0  0  0  0  0  0  0  0  0  0
   14.4083    0.7693   22.6351 H   0  0  0  0  0  0  0  0  0  0  0  0
   11.3638   -2.1297   21.7903 H   0  0  0  0  0  0  0  0  0  0  0  0
    5.0712    1.8129   16.6995 H   0  0  0  0  0  0  0  0  0  0  0  0
    8.1159   -0.6122   17.9919 H   0  0  0  0  0  0  0  0  0  0  0  0
   13.6754    3.3306   21.7061 H   0  0  0  0  0  0  0  0  0  0  0  0
   11.5336    2.5982   25.2850 H   0  0  0  0  0  0  0  0  0  0  0  0
   13.2642    2.7314   25.6121 H   0  0  0  0  0  0  0  0  0  0  0  0
   11.3447    4.9202   24.6390 H   0  0  0  0  0  0  0  0  0  0  0  0
   12.2563    4.8608   26.1604 H   0  0  0  0  0  0  0  0  0  0  0  0
    4.0575    1.2502   21.2546 H   0  0  0  0  0  0  0  0  0  0  0  0
    5.1410   -0.0471   21.8153 H   0  0  0  0  0  0  0  0  0  0  0  0
    5.6940    1.6263   21.8479 H   0  0  0  0  0  0  0  0  0  0  0  0
   12.9878    7.3791   24.6503 H   0  0  0  0  0  0  0  0  0  0  0  0
   13.6887    6.5758   26.0959 H   0  0  0  0  0  0  0  0  0  0  0  0
   14.7210    6.9077   24.6638 H   0  0  0  0  0  0  0  0  0  0  0  0
    9.0900   -1.6664   22.2639 H   0  0  0  0  0  0  0  0  0  0  0  0
    8.6578   -0.3097   23.2977 H   0  0  0  0  0  0  0  0  0  0  0  0
    7.3129   -1.4300   20.9567 H   0  0  0  0  0  0  0  0  0  0  0  0
  1  5  2  0  0  0  0
  1  8  1  0  0  0  0
  2  7  1  0  0  0  0
  2  9  2  0  0  0  0
  3  7  2  0  0  0  0
  3 11  1  0  0  0  0
  4  9  1  0  0  0  0
  4 11  2  0  0  0  0
  5 21  1  0  0  0  0
  6 10  1  0  0  0  0
  6 21  2  0  0  0  0
  7 13  1  0  0  0  0
  8 10  2  0  0  0  0
  8 18  1  0  0  0  0
  9 20  1  0  0  0  0
 10 23  1  0  0  0  0
 11 26  1  0  0  0  0
 12 13  2  0  0  0  0
 12 14  1  0  0  0  0
 13 16  1  0  0  0  0
 14 22  1  0  0  0  0
 14 24  2  0  0  0  0
 15 20  1  0  0  0  0
 15 23  1  0  0  0  0
 15 25  2  0  0  0  0
 16 17  1  0  0  0  0
 17 22  1  0  0  0  0
 19 22  1  0  0  0  0
  1 27  1  0  0  0  0
  2 28  1  0  0  0  0
  3 29  1  0  0  0  0
  4 30  1  0  0  0  0
  5 31  1  0  0  0  0
  6 32  1  0  0  0  0
 12 33  1  0  0  0  0
 16 34  1  0  0  0  0
 16 35  1  0  0  0  0
 17 36  1  0  0  0  0
 17 37  1  0  0  0  0
 18 38  1  0  0  0  0
 18 39  1  0  0  0  0
 18 40  1  0  0  0  0
 19 41  1  0  0  0  0
 19 42  1  0  0  0  0
 19 43  1  0  0  0  0
 20 44  1  0  0  0  0
 20 45  1  0  0  0  0
 23 46  1  0  0  0  0
M  END
> <BB_SMILES>
CN1CCC(B2OC(C)(C)C(C)(C)O2)=CC1=O

> <scaffold_SMILES>
Cc1ccncc1NC(=O)Cc1cc(Cl)cc(Br)c1

$$$$
EN300-1652970
  -OEChem-07272002243D

 61 63  0     1  0  0  0  0  0999 V2000
    5.0000    1.4070   18.8080 C   0  0  0  0  0  0  0  0  0  0  0  0
   11.0490    1.0010   23.0460 C   0  0  0  0  0  0  0  0  0  0  0  0
   13.3680    0.4840   22.6240 C   0  0  0  0  0  0  0  0  0  0  0  0
   11.6520   -1.1420   22.1450 C   0  0  0  0  0  0  0  0  0  0  0  0
    5.5330    1.3060   17.5390 C   0  0  0  0  0  0  0  0  0  0  0  0
    7.2400   -0.0390   18.2610 C   0  0  0  0  0  0  0  0  0  0  0  0
   12.3850    1.3610   23.0530 C   0  0  0  0  0  0  0  0  0  0  0  0
    5.6260    0.7590   19.8690 C   0  0  0  0  0  0  0  0  0  0  0  0
   10.6720   -0.2500   22.5660 C   0  0  0  0  0  0  0  0  0  0  0  0
    6.7930    0.0210   19.5790 C   0  0  0  0  0  0  0  0  0  0  0  0
   12.9770   -0.7640   22.1810 C   0  0  0  0  0  0  0  0  0  0  0  0
    8.6020    0.1230   21.2070 C   0  0  0  0  0  0  0  0  0  0  0  0
   12.8740    4.1824   21.4523 C   0  0  0  0  0  0  0  0  0  0  0  0
   11.1226    3.5472   25.3491 C   0  0  0  0  0  0  0  0  0  0  0  0
   10.8508    4.7785   24.5007 C   0  0  0  0  0  0  0  0  0  0  0  0
   12.5028    2.9813   25.0425 C   0  0  0  0  0  0  0  0  0  0  0  0
   10.9878    4.4733   23.0174 C   0  0  0  0  0  0  0  0  0  0  0  0
   12.7860    2.7605   23.5443 C   0  0  2  0  0  0  0  0  0  0  0  0
    5.0980    0.9060   21.2740 C   0  0  0  0  0  0  0  0  0  0  0  0
   15.0218    5.6292   21.8870 C   0  0  0  0  0  0  0  0  0  0  0  0
   16.4152    3.5562   21.6218 C   0  0  0  0  0  0  0  0  0  0  0  0
   15.3989    4.6470   19.6006 C   0  0  0  0  0  0  0  0  0  0  0  0
    9.2100   -0.5900   22.3990 C   0  0  0  0  0  0  0  0  0  0  0  0
   15.2201    4.3424   21.0872 C   0  0  0  0  0  0  0  0  0  0  0  0
    6.6320    0.5940   17.2520 N   0  0  0  0  0  0  0  0  0  0  0  0
   12.2652    3.8424   22.6739 N   0  0  0  0  0  0  0  0  0  0  0  0
    7.5630   -0.5230   20.6330 N   0  0  0  0  0  0  0  0  0  0  0  0
    9.0150    1.2120   20.8220 O   0  0  0  0  0  0  0  0  0  0  0  0
   12.4055    4.9807   20.6425 O   0  0  0  0  0  0  0  0  0  0  0  0
   14.0573    3.5221   21.2480 O   0  0  0  0  0  0  0  0  0  0  0  0
   14.1940   -1.9100   21.6990 Cl  0  0  0  0  0  0  0  0  0  0  0  0
    4.0894    1.9955   18.9731 H   0  0  0  0  0  0  0  0  0  0  0  0
   10.2922    1.6915   23.4141 H   0  0  0  0  0  0  0  0  0  0  0  0
   14.4065    0.7745   22.6386 H   0  0  0  0  0  0  0  0  0  0  0  0
   11.3638   -2.1301   21.7911 H   0  0  0  0  0  0  0  0  0  0  0  0
    5.0712    1.8129   16.6995 H   0  0  0  0  0  0  0  0  0  0  0  0
    8.1159   -0.6122   17.9919 H   0  0  0  0  0  0  0  0  0  0  0  0
   11.0538    3.8044   26.4120 H   0  0  0  0  0  0  0  0  0  0  0  0
   10.3572    2.7866   25.1536 H   0  0  0  0  0  0  0  0  0  0  0  0
    9.8407    5.1502   24.7070 H   0  0  0  0  0  0  0  0  0  0  0  0
   11.5476    5.5797   24.7764 H   0  0  0  0  0  0  0  0  0  0  0  0
   13.2468    3.6961   25.4201 H   0  0  0  0  0  0  0  0  0  0  0  0
   12.6525    2.0545   25.6104 H   0  0  0  0  0  0  0  0  0  0  0  0
   10.1999    3.7775   22.7043 H   0  0  0  0  0  0  0  0  0  0  0  0
   10.8492    5.3924   22.4383 H   0  0  0  0  0  0  0  0  0  0  0  0
   13.9229    2.7759   23.4400 H   0  0  0  0  0  0  0  0  0  0  0  0
    4.0648    1.2716   21.2551 H   0  0  0  0  0  0  0  0  0  0  0  0
    5.1202   -0.0519   21.8080 H   0  0  0  0  0  0  0  0  0  0  0  0
    5.7074    1.6095   21.8547 H   0  0  0  0  0  0  0  0  0  0  0  0
   14.1648    6.1964   21.5064 H   0  0  0  0  0  0  0  0  0  0  0  0
   14.8576    5.4225   22.9496 H   0  0  0  0  0  0  0  0  0  0  0  0
   15.8938    6.2864   21.7930 H   0  0  0  0  0  0  0  0  0  0  0  0
   16.5613    2.6322   21.0509 H   0  0  0  0  0  0  0  0  0  0  0  0
   16.2494    3.2534   22.6621 H   0  0  0  0  0  0  0  0  0  0  0  0
   17.3385    4.1427   21.5744 H   0  0  0  0  0  0  0  0  0  0  0  0
   15.5412    3.7241   19.0267 H   0  0  0  0  0  0  0  0  0  0  0  0
   14.5339    5.1787   19.1910 H   0  0  0  0  0  0  0  0  0  0  0  0
   16.2940    5.2567   19.4326 H   0  0  0  0  0  0  0  0  0  0  0  0
    9.0902   -1.6664   22.2639 H   0  0  0  0  0  0  0  0  0  0  0  0
    8.6579   -0.3097   23.2977 H   0  0  0  0  0  0  0  0  0  0  0  0
    7.3129   -1.4300   20.9567 H   0  0  0  0  0  0  0  0  0  0  0  0
  1  5  2  0  0  0  0
  1  8  1  0  0  0  0
  2  7  1  0  0  0  0
  2  9  2  0  0  0  0
  3  7  2  0  0  0  0
  3 11  1  0  0  0  0
  4  9  1  0  0  0  0
  4 11  2  0  0  0  0
  5 25  1  0  0  0  0
  6 10  1  0  0  0  0
  6 25  2  0  0  0  0
  7 18  1  1  0  0  0
  8 10  2  0  0  0  0
  8 19  1  0  0  0  0
  9 23  1  0  0  0  0
 10 27  1  0  0  0  0
 11 31  1  0  0  0  0
 12 23  1  0  0  0  0
 12 27  1  0  0  0  0
 12 28  2  0  0  0  0
 13 26  1  0  0  0  0
 13 29  2  0  0  0  0
 13 30  1  0  0  0  0
 14 15  1  0  0  0  0
 14 16  1  0  0  0  0
 15 17  1  0  0  0  0
 16 18  1  0  0  0  0
 17 26  1  0  0  0  0
 18 26  1  0  0  0  0
 20 24  1  0  0  0  0
 21 24  1  0  0  0  0
 22 24  1  0  0  0  0
 24 30  1  0  0  0  0
  1 32  1  0  0  0  0
  2 33  1  0  0  0  0
  3 34  1  0  0  0  0
  4 35  1  0  0  0  0
  5 36  1  0  0  0  0
  6 37  1  0  0  0  0
 14 38  1  0  0  0  0
 14 39  1  0  0  0  0
 15 40  1  0  0  0  0
 15 41  1  0  0  0  0
 16 42  1  0  0  0  0
 16 43  1  0  0  0  0
 17 44  1  0  0  0  0
 17 45  1  0  0  0  0
 18 46  1  0  0  0  0
 19 47  1  0  0  0  0
 19 48  1  0  0  0  0
 19 49  1  0  0  0  0
 20 50  1  0  0  0  0
 20 51  1  0  0  0  0
 20 52  1  0  0  0  0
 21 53  1  0  0  0  0
 21 54  1  0  0  0  0
 21 55  1  0  0  0  0
 22 56  1  0  0  0  0
 22 57  1  0  0  0  0
 22 58  1  0  0  0  0
 23 59  1  0  0  0  0
 23 60  1  0  0  0  0
 27 61  1  0  0  0  0
M  END
> <BB_SMILES>
CC(C)(C)OC(=O)N1CCCCC1B1OC(C)(C)C(C)(C)O1

> <scaffold_SMILES>
Cc1ccncc1NC(=O)Cc1cc(Cl)cc(Br)c1

$$$$
EN300-1652970
  -OEChem-07272002243D

 61 63  0     1  0  0  0  0  0999 V2000
    5.0000    1.4070   18.8080 C   0  0  0  0  0  0  0  0  0  0  0  0
   11.0490    1.0010   23.0460 C   0  0  0  0  0  0  0  0  0  0  0  0
   13.3680    0.4840   22.6240 C   0  0  0  0  0  0  0  0  0  0  0  0
   11.6520   -1.1420   22.1450 C   0  0  0  0  0  0  0  0  0  0  0  0
    5.5330    1.3060   17.5390 C   0  0  0  0  0  0  0  0  0  0  0  0
    7.2400   -0.0390   18.2610 C   0  0  0  0  0  0  0  0  0  0  0  0
   12.3850    1.3610   23.0530 C   0  0  0  0  0  0  0  0  0  0  0  0
    5.6260    0.7590   19.8690 C   0  0  0  0  0  0  0  0  0  0  0  0
   10.6720   -0.2500   22.5660 C   0  0  0  0  0  0  0  0  0  0  0  0
    6.7930    0.0210   19.5790 C   0  0  0  0  0  0  0  0  0  0  0  0
   12.9770   -0.7640   22.1810 C   0  0  0  0  0  0  0  0  0  0  0  0
    8.6020    0.1230   21.2070 C   0  0  0  0  0  0  0  0  0  0  0  0
   10.8957    4.2275   24.4341 C   0  0  0  0  0  0  0  0  0  0  0  0
   13.9003    3.9333   21.5443 C   0  0  0  0  0  0  0  0  0  0  0  0
   12.7075    4.8825   21.4625 C   0  0  0  0  0  0  0  0  0  0  0  0
   14.0769    3.3854   22.9642 C   0  0  0  0  0  0  0  0  0  0  0  0
   11.4487    4.2268   22.0161 C   0  0  0  0  0  0  0  0  0  0  0  0
   12.7869    2.7637   23.5454 C   0  0  1  0  0  0  0  0  0  0  0  0
    5.0980    0.9060   21.2740 C   0  0  0  0  0  0  0  0  0  0  0  0
   10.0022    6.3958   26.0755 C   0  0  0  0  0  0  0  0  0  0  0  0
    8.1746    6.6846   24.3769 C   0  0  0  0  0  0  0  0  0  0  0  0
    8.3362    4.5492   25.6891 C   0  0  0  0  0  0  0  0  0  0  0  0
    9.2100   -0.5900   22.3990 C   0  0  0  0  0  0  0  0  0  0  0  0
    9.1219    5.6904   25.0448 C   0  0  0  0  0  0  0  0  0  0  0  0
    6.6320    0.5940   17.2520 N   0  0  0  0  0  0  0  0  0  0  0  0
   11.6802    3.7427   23.3792 N   0  0  0  0  0  0  0  0  0  0  0  0
    7.5630   -0.5230   20.6330 N   0  0  0  0  0  0  0  0  0  0  0  0
    9.0150    1.2120   20.8220 O   0  0  0  0  0  0  0  0  0  0  0  0
   11.0189    3.8788   25.6069 O   0  0  0  0  0  0  0  0  0  0  0  0
    9.9644    5.1443   24.0236 O   0  0  0  0  0  0  0  0  0  0  0  0
   14.1940   -1.9100   21.6990 Cl  0  0  0  0  0  0  0  0  0  0  0  0
    4.0894    1.9955   18.9731 H   0  0  0  0  0  0  0  0  0  0  0  0
   10.2922    1.6915   23.4141 H   0  0  0  0  0  0  0  0  0  0  0  0
   14.4065    0.7745   22.6386 H   0  0  0  0  0  0  0  0  0  0  0  0
   11.3638   -2.1301   21.7911 H   0  0  0  0  0  0  0  0  0  0  0  0
    5.0712    1.8129   16.6995 H   0  0  0  0  0  0  0  0  0  0  0  0
    8.1159   -0.6122   17.9919 H   0  0  0  0  0  0  0  0  0  0  0  0
   13.7559    3.1022   20.8435 H   0  0  0  0  0  0  0  0  0  0  0  0
   14.8122    4.4559   21.2343 H   0  0  0  0  0  0  0  0  0  0  0  0
   12.9249    5.7981   22.0263 H   0  0  0  0  0  0  0  0  0  0  0  0
   12.5437    5.1794   20.4206 H   0  0  0  0  0  0  0  0  0  0  0  0
   14.8886    2.6474   22.9676 H   0  0  0  0  0  0  0  0  0  0  0  0
   14.3954    4.2070   23.6193 H   0  0  0  0  0  0  0  0  0  0  0  0
   10.6238    4.9463   21.9988 H   0  0  0  0  0  0  0  0  0  0  0  0
   11.1464    3.3752   21.3962 H   0  0  0  0  0  0  0  0  0  0  0  0
   12.9581    2.6315   24.6526 H   0  0  0  0  0  0  0  0  0  0  0  0
    4.0521    1.2335   21.2544 H   0  0  0  0  0  0  0  0  0  0  0  0
    5.1570   -0.0431   21.8209 H   0  0  0  0  0  0  0  0  0  0  0  0
    5.6835    1.6391   21.8426 H   0  0  0  0  0  0  0  0  0  0  0  0
   10.6837    5.6855   26.5573 H   0  0  0  0  0  0  0  0  0  0  0  0
   10.5971    7.1937   25.6194 H   0  0  0  0  0  0  0  0  0  0  0  0
    9.3939    6.8320   26.8761 H   0  0  0  0  0  0  0  0  0  0  0  0
    7.5410    6.1828   23.6365 H   0  0  0  0  0  0  0  0  0  0  0  0
    8.7355    7.4531   23.8329 H   0  0  0  0  0  0  0  0  0  0  0  0
    7.5275    7.1799   25.1080 H   0  0  0  0  0  0  0  0  0  0  0  0
    7.7048    4.0430   24.9500 H   0  0  0  0  0  0  0  0  0  0  0  0
    9.0015    3.8067   26.1416 H   0  0  0  0  0  0  0  0  0  0  0  0
    7.6609    4.9298   26.4639 H   0  0  0  0  0  0  0  0  0  0  0  0
    9.0902   -1.6664   22.2639 H   0  0  0  0  0  0  0  0  0  0  0  0
    8.6579   -0.3097   23.2977 H   0  0  0  0  0  0  0  0  0  0  0  0
    7.3129   -1.4300   20.9567 H   0  0  0  0  0  0  0  0  0  0  0  0
  1  5  2  0  0  0  0
  1  8  1  0  0  0  0
  2  7  1  0  0  0  0
  2  9  2  0  0  0  0
  3  7  2  0  0  0  0
  3 11  1  0  0  0  0
  4  9  1  0  0  0  0
  4 11  2  0  0  0  0
  5 25  1  0  0  0  0
  6 10  1  0  0  0  0
  6 25  2  0  0  0  0
  7 18  1  6  0  0  0
  8 10  2  0  0  0  0
  8 19  1  0  0  0  0
  9 23  1  0  0  0  0
 10 27  1  0  0  0  0
 11 31  1  0  0  0  0
 12 23  1  0  0  0  0
 12 27  1  0  0  0  0
 12 28  2  0  0  0  0
 13 26  1  0  0  0  0
 13 29  2  0  0  0  0
 13 30  1  0  0  0  0
 14 15  1  0  0  0  0
 14 16  1  0  0  0  0
 15 17  1  0  0  0  0
 16 18  1  0  0  0  0
 17 26  1  0  0  0  0
 18 26  1  0  0  0  0
 20 24  1  0  0  0  0
 21 24  1  0  0  0  0
 22 24  1  0  0  0  0
 24 30  1  0  0  0  0
  1 32  1  0  0  0  0
  2 33  1  0  0  0  0
  3 34  1  0  0  0  0
  4 35  1  0  0  0  0
  5 36  1  0  0  0  0
  6 37  1  0  0  0  0
 14 38  1  0  0  0  0
 14 39  1  0  0  0  0
 15 40  1  0  0  0  0
 15 41  1  0  0  0  0
 16 42  1  0  0  0  0
 16 43  1  0  0  0  0
 17 44  1  0  0  0  0
 17 45  1  0  0  0  0
 18 46  1  0  0  0  0
 19 47  1  0  0  0  0
 19 48  1  0  0  0  0
 19 49  1  0  0  0  0
 20 50  1  0  0  0  0
 20 51  1  0  0  0  0
 20 52  1  0  0  0  0
 21 53  1  0  0  0  0
 21 54  1  0  0  0  0
 21 55  1  0  0  0  0
 22 56  1  0  0  0  0
 22 57  1  0  0  0  0
 22 58  1  0  0  0  0
 23 59  1  0  0  0  0
 23 60  1  0  0  0  0
 27 61  1  0  0  0  0
M  END
> <BB_SMILES>
CC(C)(C)OC(=O)N1CCCCC1B1OC(C)(C)C(C)(C)O1

> <scaffold_SMILES>
Cc1ccncc1NC(=O)Cc1cc(Cl)cc(Br)c1

$$$$
EN300-258163
  -OEChem-07272002243D

 62 64  0     0  0  0  0  0  0999 V2000
    5.0000    1.4070   18.8080 C   0  0  0  0  0  0  0  0  0  0  0  0
   11.0490    1.0010   23.0460 C   0  0  0  0  0  0  0  0  0  0  0  0
   13.3680    0.4840   22.6240 C   0  0  0  0  0  0  0  0  0  0  0  0
   11.6520   -1.1420   22.1450 C   0  0  0  0  0  0  0  0  0  0  0  0
    5.5330    1.3060   17.5390 C   0  0  0  0  0  0  0  0  0  0  0  0
    7.2400   -0.0390   18.2610 C   0  0  0  0  0  0  0  0  0  0  0  0
   12.3850    1.3610   23.0530 C   0  0  0  0  0  0  0  0  0  0  0  0
    5.6260    0.7590   19.8690 C   0  0  0  0  0  0  0  0  0  0  0  0
   10.6720   -0.2500   22.5660 C   0  0  0  0  0  0  0  0  0  0  0  0
    6.7930    0.0210   19.5790 C   0  0  0  0  0  0  0  0  0  0  0  0
   12.9770   -0.7640   22.1810 C   0  0  0  0  0  0  0  0  0  0  0  0
   12.3177    3.8230   22.9889 C   0  0  0  0  0  0  0  0  0  0  0  0
   12.7625    2.6743   23.5172 C   0  0  0  0  0  0  0  0  0  0  0  0
    8.6020    0.1230   21.2070 C   0  0  0  0  0  0  0  0  0  0  0  0
   10.1282    7.2847   22.1911 C   0  0  0  0  0  0  0  0  0  0  0  0
   12.7392    5.1752   23.5062 C   0  0  0  0  0  0  0  0  0  0  0  0
   11.3341    3.8681   21.8468 C   0  0  0  0  0  0  0  0  0  0  0  0
   11.5116    6.0274   23.8301 C   0  0  0  0  0  0  0  0  0  0  0  0
   10.1375    4.7515   22.2051 C   0  0  0  0  0  0  0  0  0  0  0  0
    5.0980    0.9060   21.2740 C   0  0  0  0  0  0  0  0  0  0  0  0
    8.0794    9.1802   21.5584 C   0  0  0  0  0  0  0  0  0  0  0  0
    7.1678    7.4065   20.0313 C   0  0  0  0  0  0  0  0  0  0  0  0
    7.2931    6.9842   22.5040 C   0  0  0  0  0  0  0  0  0  0  0  0
    9.2100   -0.5900   22.3990 C   0  0  0  0  0  0  0  0  0  0  0  0
    7.9530    7.6774   21.3128 C   0  0  0  0  0  0  0  0  0  0  0  0
    6.6320    0.5940   17.2520 N   0  0  0  0  0  0  0  0  0  0  0  0
   10.5796    6.0636   22.6991 N   0  0  0  0  0  0  0  0  0  0  0  0
    7.5630   -0.5230   20.6330 N   0  0  0  0  0  0  0  0  0  0  0  0
    9.0150    1.2120   20.8220 O   0  0  0  0  0  0  0  0  0  0  0  0
   10.4608    8.3837   22.6313 O   0  0  0  0  0  0  0  0  0  0  0  0
    9.2658    7.1321   21.1379 O   0  0  0  0  0  0  0  0  0  0  0  0
   14.1940   -1.9100   21.6990 Cl  0  0  0  0  0  0  0  0  0  0  0  0
    4.0894    1.9955   18.9731 H   0  0  0  0  0  0  0  0  0  0  0  0
   10.2871    1.6869   23.4136 H   0  0  0  0  0  0  0  0  0  0  0  0
   14.4083    0.7693   22.6351 H   0  0  0  0  0  0  0  0  0  0  0  0
   11.3638   -2.1297   21.7903 H   0  0  0  0  0  0  0  0  0  0  0  0
    5.0712    1.8129   16.6995 H   0  0  0  0  0  0  0  0  0  0  0  0
    8.1159   -0.6122   17.9919 H   0  0  0  0  0  0  0  0  0  0  0  0
   13.4326    2.7441   24.3706 H   0  0  0  0  0  0  0  0  0  0  0  0
   13.3441    5.0392   24.4108 H   0  0  0  0  0  0  0  0  0  0  0  0
   13.3644    5.7038   22.7779 H   0  0  0  0  0  0  0  0  0  0  0  0
   11.8022    4.2479   20.9307 H   0  0  0  0  0  0  0  0  0  0  0  0
   10.9896    2.8487   21.6309 H   0  0  0  0  0  0  0  0  0  0  0  0
   11.0300    5.6439   24.7351 H   0  0  0  0  0  0  0  0  0  0  0  0
   11.8082    7.0643   24.0360 H   0  0  0  0  0  0  0  0  0  0  0  0
    9.5123    4.9328   21.3234 H   0  0  0  0  0  0  0  0  0  0  0  0
    9.5164    4.2490   22.9521 H   0  0  0  0  0  0  0  0  0  0  0  0
    4.2773    0.2003   21.4471 H   0  0  0  0  0  0  0  0  0  0  0  0
    5.8844    0.7162   22.0148 H   0  0  0  0  0  0  0  0  0  0  0  0
    4.7285    1.9232   21.4540 H   0  0  0  0  0  0  0  0  0  0  0  0
    8.6424    9.3788   22.4774 H   0  0  0  0  0  0  0  0  0  0  0  0
    8.5825    9.6840   20.7266 H   0  0  0  0  0  0  0  0  0  0  0  0
    7.0932    9.6384   21.6949 H   0  0  0  0  0  0  0  0  0  0  0  0
    7.0746    6.3294   19.8511 H   0  0  0  0  0  0  0  0  0  0  0  0
    7.6875    7.8213   19.1600 H   0  0  0  0  0  0  0  0  0  0  0  0
    6.1630    7.8390   20.0740 H   0  0  0  0  0  0  0  0  0  0  0  0
    7.2023    5.9062   22.3280 H   0  0  0  0  0  0  0  0  0  0  0  0
    7.8632    7.1371   23.4261 H   0  0  0  0  0  0  0  0  0  0  0  0
    6.2748    7.3593   22.6579 H   0  0  0  0  0  0  0  0  0  0  0  0
    9.0900   -1.6664   22.2639 H   0  0  0  0  0  0  0  0  0  0  0  0
    8.6578   -0.3097   23.2977 H   0  0  0  0  0  0  0  0  0  0  0  0
    7.3129   -1.4300   20.9567 H   0  0  0  0  0  0  0  0  0  0  0  0
  1  5  2  0  0  0  0
  1  8  1  0  0  0  0
  2  7  1  0  0  0  0
  2  9  2  0  0  0  0
  3  7  2  0  0  0  0
  3 11  1  0  0  0  0
  4  9  1  0  0  0  0
  4 11  2  0  0  0  0
  5 26  1  0  0  0  0
  6 10  1  0  0  0  0
  6 26  2  0  0  0  0
  7 13  1  0  0  0  0
  8 10  2  0  0  0  0
  8 20  1  0  0  0  0
  9 24  1  0  0  0  0
 10 28  1  0  0  0  0
 11 32  1  0  0  0  0
 12 13  2  0  0  0  0
 12 16  1  0  0  0  0
 12 17  1  0  0  0  0
 14 24  1  0  0  0  0
 14 28  1  0  0  0  0
 14 29  2  0  0  0  0
 15 27  1  0  0  0  0
 15 30  2  0  0  0  0
 15 31  1  0  0  0  0
 16 18  1  0  0  0  0
 17 19  1  0  0  0  0
 18 27  1  0  0  0  0
 19 27  1  0  0  0  0
 21 25  1  0  0  0  0
 22 25  1  0  0  0  0
 23 25  1  0  0  0  0
 25 31  1  0  0  0  0
  1 33  1  0  0  0  0
  2 34  1  0  0  0  0
  3 35  1  0  0  0  0
  4 36  1  0  0  0  0
  5 37  1  0  0  0  0
  6 38  1  0  0  0  0
 13 39  1  0  0  0  0
 16 40  1  0  0  0  0
 16 41  1  0  0  0  0
 17 42  1  0  0  0  0
 17 43  1  0  0  0  0
 18 44  1  0  0  0  0
 18 45  1  0  0  0  0
 19 46  1  0  0  0  0
 19 47  1  0  0  0  0
 20 48  1  0  0  0  0
 20 49  1  0  0  0  0
 20 50  1  0  0  0  0
 21 51  1  0  0  0  0
 21 52  1  0  0  0  0
 21 53  1  0  0  0  0
 22 54  1  0  0  0  0
 22 55  1  0  0  0  0
 22 56  1  0  0  0  0
 23 57  1  0  0  0  0
 23 58  1  0  0  0  0
 23 59  1  0  0  0  0
 24 60  1  0  0  0  0
 24 61  1  0  0  0  0
 28 62  1  0  0  0  0
M  END
> <BB_SMILES>
CC(C)(C)OC(=O)N1CCC(=CB2OC(C)(C)C(C)(C)O2)CC1

> <scaffold_SMILES>
Cc1ccncc1NC(=O)Cc1cc(Cl)cc(Br)c1

$$$$
EN300-365771
  -OEChem-07272002243D

 47 49  0     0  0  0  0  0  0999 V2000
   13.0505    2.8568   24.8779 C   0  0  0  0  0  0  0  0  0  0  0  0
   13.4210    4.1096   25.3666 C   0  0  0  0  0  0  0  0  0  0  0  0
    5.0000    1.4070   18.8080 C   0  0  0  0  0  0  0  0  0  0  0  0
   11.0490    1.0010   23.0460 C   0  0  0  0  0  0  0  0  0  0  0  0
   13.3680    0.4840   22.6240 C   0  0  0  0  0  0  0  0  0  0  0  0
   11.6520   -1.1420   22.1450 C   0  0  0  0  0  0  0  0  0  0  0  0
   13.2251    5.0349   23.1435 C   0  0  0  0  0  0  0  0  0  0  0  0
    5.5330    1.3060   17.5390 C   0  0  0  0  0  0  0  0  0  0  0  0
    7.2400   -0.0390   18.2610 C   0  0  0  0  0  0  0  0  0  0  0  0
   12.7674    2.6931   23.5218 C   0  0  0  0  0  0  0  0  0  0  0  0
   12.3850    1.3610   23.0530 C   0  0  0  0  0  0  0  0  0  0  0  0
    5.6260    0.7590   19.8690 C   0  0  0  0  0  0  0  0  0  0  0  0
   10.6720   -0.2500   22.5660 C   0  0  0  0  0  0  0  0  0  0  0  0
    6.7930    0.0210   19.5790 C   0  0  0  0  0  0  0  0  0  0  0  0
   13.5082    5.1986   24.4995 C   0  0  0  0  0  0  0  0  0  0  0  0
   12.9770   -0.7640   22.1810 C   0  0  0  0  0  0  0  0  0  0  0  0
   12.8546    3.7821   22.6547 C   0  0  0  0  0  0  0  0  0  0  0  0
    8.6020    0.1230   21.2070 C   0  0  0  0  0  0  0  0  0  0  0  0
    5.0980    0.9060   21.2740 C   0  0  0  0  0  0  0  0  0  0  0  0
   15.7466    6.7889   24.9628 C   0  0  0  0  0  0  0  0  0  0  0  0
    9.2100   -0.5900   22.3990 C   0  0  0  0  0  0  0  0  0  0  0  0
    6.6320    0.5940   17.2520 N   0  0  0  0  0  0  0  0  0  0  0  0
    7.5630   -0.5230   20.6330 N   0  0  0  0  0  0  0  0  0  0  0  0
    9.0150    1.2120   20.8220 O   0  0  0  0  0  0  0  0  0  0  0  0
   13.4371    7.7766   24.2109 O   0  0  0  0  0  0  0  0  0  0  0  0
   13.6668    6.8284   26.5334 O   0  0  0  0  0  0  0  0  0  0  0  0
   13.9743    6.7660   25.1109 S   0  0  0  0  0  0  0  0  0  0  0  0
   14.1940   -1.9100   21.6990 Cl  0  0  0  0  0  0  0  0  0  0  0  0
   12.5147    3.6368   20.9649 Cl  0  0  0  0  0  0  0  0  0  0  0  0
   12.9878    2.0186   25.5681 H   0  0  0  0  0  0  0  0  0  0  0  0
   13.6396    4.2262   26.4249 H   0  0  0  0  0  0  0  0  0  0  0  0
    4.0894    1.9955   18.9731 H   0  0  0  0  0  0  0  0  0  0  0  0
   10.2869    1.6872   23.4130 H   0  0  0  0  0  0  0  0  0  0  0  0
   14.4085    0.7689   22.6365 H   0  0  0  0  0  0  0  0  0  0  0  0
   11.3634   -2.1298   21.7910 H   0  0  0  0  0  0  0  0  0  0  0  0
   13.2954    5.8884   22.4728 H   0  0  0  0  0  0  0  0  0  0  0  0
    5.0712    1.8129   16.6995 H   0  0  0  0  0  0  0  0  0  0  0  0
    8.1159   -0.6122   17.9919 H   0  0  0  0  0  0  0  0  0  0  0  0
    4.1656    1.4823   21.2710 H   0  0  0  0  0  0  0  0  0  0  0  0
    4.9025   -0.0731   21.7284 H   0  0  0  0  0  0  0  0  0  0  0  0
    5.8235    1.4179   21.9184 H   0  0  0  0  0  0  0  0  0  0  0  0
   16.1105    7.7496   25.3306 H   0  0  0  0  0  0  0  0  0  0  0  0
   16.1527    5.9717   25.5609 H   0  0  0  0  0  0  0  0  0  0  0  0
   16.0058    6.6590   23.9111 H   0  0  0  0  0  0  0  0  0  0  0  0
    9.0901   -1.6664   22.2639 H   0  0  0  0  0  0  0  0  0  0  0  0
    8.6579   -0.3097   23.2977 H   0  0  0  0  0  0  0  0  0  0  0  0
    7.3129   -1.4300   20.9567 H   0  0  0  0  0  0  0  0  0  0  0  0
  1  2  2  0  0  0  0
  1 10  1  0  0  0  0
  2 15  1  0  0  0  0
  3  8  2  0  0  0  0
  3 12  1  0  0  0  0
  4 11  1  0  0  0  0
  4 13  2  0  0  0  0
  5 11  2  0  0  0  0
  5 16  1  0  0  0  0
  6 13  1  0  0  0  0
  6 16  2  0  0  0  0
  7 15  2  0  0  0  0
  7 17  1  0  0  0  0
  8 22  1  0  0  0  0
  9 14  1  0  0  0  0
  9 22  2  0  0  0  0
 10 11  1  0  0  0  0
 10 17  2  0  0  0  0
 12 14  2  0  0  0  0
 12 19  1  0  0  0  0
 13 21  1  0  0  0  0
 14 23  1  0  0  0  0
 15 27  1  0  0  0  0
 16 28  1  0  0  0  0
 17 29  1  0  0  0  0
 18 21  1  0  0  0  0
 18 23  1  0  0  0  0
 18 24  2  0  0  0  0
 20 27  1  0  0  0  0
 25 27  2  0  0  0  0
 26 27  2  0  0  0  0
  1 30  1  0  0  0  0
  2 31  1  0  0  0  0
  3 32  1  0  0  0  0
  4 33  1  0  0  0  0
  5 34  1  0  0  0  0
  6 35  1  0  0  0  0
  7 36  1  0  0  0  0
  8 37  1  0  0  0  0
  9 38  1  0  0  0  0
 19 39  1  0  0  0  0
 19 40  1  0  0  0  0
 19 41  1  0  0  0  0
 20 42  1  0  0  0  0
 20 43  1  0  0  0  0
 20 44  1  0  0  0  0
 21 45  1  0  0  0  0
 21 46  1  0  0  0  0
 23 47  1  0  0  0  0
M  END
> <BB_SMILES>
CC1(C)OB(c2ccc(S(C)(=O)=O)cc2Cl)OC1(C)C

> <scaffold_SMILES>
Cc1ccncc1NC(=O)Cc1cc(Cl)cc(Br)c1

$$$$
EN300-363413
  -OEChem-07272002243D

 40 42  0     0  0  0  0  0  0999 V2000
    5.0000    1.4070   18.8080 C   0  0  0  0  0  0  0  0  0  0  0  0
   11.0490    1.0010   23.0460 C   0  0  0  0  0  0  0  0  0  0  0  0
   13.3680    0.4840   22.6240 C   0  0  0  0  0  0  0  0  0  0  0  0
   11.6520   -1.1420   22.1450 C   0  0  0  0  0  0  0  0  0  0  0  0
    5.5330    1.3060   17.5390 C   0  0  0  0  0  0  0  0  0  0  0  0
    7.2400   -0.0390   18.2610 C   0  0  0  0  0  0  0  0  0  0  0  0
   13.4100    4.1241   25.3049 C   0  0  0  0  0  0  0  0  0  0  0  0
   13.2198    5.0006   23.1898 C   0  0  0  0  0  0  0  0  0  0  0  0
   12.3850    1.3610   23.0530 C   0  0  0  0  0  0  0  0  0  0  0  0
   12.7664    2.6894   23.5206 C   0  0  0  0  0  0  0  0  0  0  0  0
    5.6260    0.7590   19.8690 C   0  0  0  0  0  0  0  0  0  0  0  0
   10.6720   -0.2500   22.5660 C   0  0  0  0  0  0  0  0  0  0  0  0
    6.7930    0.0210   19.5790 C   0  0  0  0  0  0  0  0  0  0  0  0
   13.0497    2.8585   24.8713 C   0  0  0  0  0  0  0  0  0  0  0  0
   12.9770   -0.7640   22.1810 C   0  0  0  0  0  0  0  0  0  0  0  0
   12.8508    3.7759   22.6570 C   0  0  0  0  0  0  0  0  0  0  0  0
    8.6020    0.1230   21.2070 C   0  0  0  0  0  0  0  0  0  0  0  0
    5.0980    0.9060   21.2740 C   0  0  0  0  0  0  0  0  0  0  0  0
    9.2100   -0.5900   22.3990 C   0  0  0  0  0  0  0  0  0  0  0  0
    6.6320    0.5940   17.2520 N   0  0  0  0  0  0  0  0  0  0  0  0
   13.5026    5.2034   24.4961 N   0  0  0  0  0  0  0  0  0  0  0  0
    7.5630   -0.5230   20.6330 N   0  0  0  0  0  0  0  0  0  0  0  0
    9.0150    1.2120   20.8220 O   0  0  0  0  0  0  0  0  0  0  0  0
   12.9815    1.8413   25.7402 F   0  0  0  0  0  0  0  0  0  0  0  0
   14.1940   -1.9100   21.6990 Cl  0  0  0  0  0  0  0  0  0  0  0  0
   12.4865    3.6591   20.8026 Br  0  0  0  0  0  0  0  0  0  0  0  0
    4.0894    1.9955   18.9731 H   0  0  0  0  0  0  0  0  0  0  0  0
   10.2869    1.6872   23.4130 H   0  0  0  0  0  0  0  0  0  0  0  0
   14.4085    0.7689   22.6365 H   0  0  0  0  0  0  0  0  0  0  0  0
   11.3634   -2.1298   21.7910 H   0  0  0  0  0  0  0  0  0  0  0  0
    5.0712    1.8129   16.6995 H   0  0  0  0  0  0  0  0  0  0  0  0
    8.1159   -0.6122   17.9919 H   0  0  0  0  0  0  0  0  0  0  0  0
   13.6405    4.3087   26.3486 H   0  0  0  0  0  0  0  0  0  0  0  0
   13.3042    5.8902   22.5725 H   0  0  0  0  0  0  0  0  0  0  0  0
    4.4456    1.7840   21.3446 H   0  0  0  0  0  0  0  0  0  0  0  0
    4.5263    0.0203   21.5772 H   0  0  0  0  0  0  0  0  0  0  0  0
    5.9169    1.0197   21.9952 H   0  0  0  0  0  0  0  0  0  0  0  0
    9.0901   -1.6664   22.2639 H   0  0  0  0  0  0  0  0  0  0  0  0
    8.6579   -0.3097   23.2977 H   0  0  0  0  0  0  0  0  0  0  0  0
    7.3129   -1.4300   20.9567 H   0  0  0  0  0  0  0  0  0  0  0  0
  1  5  2  0  0  0  0
  1 11  1  0  0  0  0
  2  9  1  0  0  0  0
  2 12  2  0  0  0  0
  3  9  2  0  0  0  0
  3 15  1  0  0  0  0
  4 12  1  0  0  0  0
  4 15  2  0  0  0  0
  5 20  1  0  0  0  0
  6 13  1  0  0  0  0
  6 20  2  0  0  0  0
  7 14  2  0  0  0  0
  7 21  1  0  0  0  0
  8 16  1  0  0  0  0
  8 21  2  0  0  0  0
  9 10  1  0  0  0  0
 10 14  1  0  0  0  0
 10 16  2  0  0  0  0
 11 13  2  0  0  0  0
 11 18  1  0  0  0  0
 12 19  1  0  0  0  0
 13 22  1  0  0  0  0
 14 24  1  0  0  0  0
 15 25  1  0  0  0  0
 16 26  1  0  0  0  0
 17 19  1  0  0  0  0
 17 22  1  0  0  0  0
 17 23  2  0  0  0  0
  1 27  1  0  0  0  0
  2 28  1  0  0  0  0
  3 29  1  0  0  0  0
  4 30  1  0  0  0  0
  5 31  1  0  0  0  0
  6 32  1  0  0  0  0
  7 33  1  0  0  0  0
  8 34  1  0  0  0  0
 18 35  1  0  0  0  0
 18 36  1  0  0  0  0
 18 37  1  0  0  0  0
 19 38  1  0  0  0  0
 19 39  1  0  0  0  0
 22 40  1  0  0  0  0
M  END
> <BB_SMILES>
CC1(C)OB(c2c(F)cncc2Br)OC1(C)C

> <scaffold_SMILES>
Cc1ccncc1NC(=O)Cc1cc(Cl)cc(Br)c1

$$$$
EN300-105979
  -OEChem-07272002243D

 38 39  0     0  0  0  0  0  0999 V2000
    5.0000    1.4070   18.8080 C   0  0  0  0  0  0  0  0  0  0  0  0
   11.0490    1.0010   23.0460 C   0  0  0  0  0  0  0  0  0  0  0  0
   13.3680    0.4840   22.6240 C   0  0  0  0  0  0  0  0  0  0  0  0
   11.6520   -1.1420   22.1450 C   0  0  0  0  0  0  0  0  0  0  0  0
    5.5330    1.3060   17.5390 C   0  0  0  0  0  0  0  0  0  0  0  0
    7.2400   -0.0390   18.2610 C   0  0  0  0  0  0  0  0  0  0  0  0
    5.6260    0.7590   19.8690 C   0  0  0  0  0  0  0  0  0  0  0  0
   12.3850    1.3610   23.0530 C   0  0  0  0  0  0  0  0  0  0  0  0
   10.6720   -0.2500   22.5660 C   0  0  0  0  0  0  0  0  0  0  0  0
    6.7930    0.0210   19.5790 C   0  0  0  0  0  0  0  0  0  0  0  0
   12.9770   -0.7640   22.1810 C   0  0  0  0  0  0  0  0  0  0  0  0
   13.9021    4.4190   22.0470 C   0  0  0  0  0  0  0  0  0  0  0  0
   12.8047    3.7575   22.4315 C   0  0  0  0  0  0  0  0  0  0  0  0
    8.6020    0.1230   21.2070 C   0  0  0  0  0  0  0  0  0  0  0  0
    5.0980    0.9060   21.2740 C   0  0  0  0  0  0  0  0  0  0  0  0
   12.7775    2.7307   23.5338 C   0  0  0  0  0  0  0  0  0  0  0  0
    9.2100   -0.5900   22.3990 C   0  0  0  0  0  0  0  0  0  0  0  0
    6.6320    0.5940   17.2520 N   0  0  0  0  0  0  0  0  0  0  0  0
    7.5630   -0.5230   20.6330 N   0  0  0  0  0  0  0  0  0  0  0  0
    9.0150    1.2120   20.8220 O   0  0  0  0  0  0  0  0  0  0  0  0
   14.1940   -1.9100   21.6990 Cl  0  0  0  0  0  0  0  0  0  0  0  0
    4.0894    1.9955   18.9731 H   0  0  0  0  0  0  0  0  0  0  0  0
   10.2922    1.6915   23.4141 H   0  0  0  0  0  0  0  0  0  0  0  0
   14.4065    0.7745   22.6386 H   0  0  0  0  0  0  0  0  0  0  0  0
   11.3638   -2.1301   21.7911 H   0  0  0  0  0  0  0  0  0  0  0  0
    5.0712    1.8129   16.6995 H   0  0  0  0  0  0  0  0  0  0  0  0
    8.1159   -0.6122   17.9919 H   0  0  0  0  0  0  0  0  0  0  0  0
   13.8725    5.1503   21.2470 H   0  0  0  0  0  0  0  0  0  0  0  0
   14.8532    4.2353   22.5346 H   0  0  0  0  0  0  0  0  0  0  0  0
   11.8662    3.9709   21.9256 H   0  0  0  0  0  0  0  0  0  0  0  0
    5.7473    0.3768   21.9810 H   0  0  0  0  0  0  0  0  0  0  0  0
    5.0459    1.9611   21.5694 H   0  0  0  0  0  0  0  0  0  0  0  0
    4.0825    0.4998   21.3602 H   0  0  0  0  0  0  0  0  0  0  0  0
   12.0755    3.0805   24.3094 H   0  0  0  0  0  0  0  0  0  0  0  0
   13.7557    2.6858   24.0422 H   0  0  0  0  0  0  0  0  0  0  0  0
    9.0902   -1.6664   22.2639 H   0  0  0  0  0  0  0  0  0  0  0  0
    8.6579   -0.3097   23.2977 H   0  0  0  0  0  0  0  0  0  0  0  0
    7.3129   -1.4300   20.9567 H   0  0  0  0  0  0  0  0  0  0  0  0
  1  5  2  0  0  0  0
  1  7  1  0  0  0  0
  2  8  2  0  0  0  0
  2  9  1  0  0  0  0
  3  8  1  0  0  0  0
  3 11  2  0  0  0  0
  4  9  2  0  0  0  0
  4 11  1  0  0  0  0
  5 18  1  0  0  0  0
  6 10  1  0  0  0  0
  6 18  2  0  0  0  0
  7 10  2  0  0  0  0
  7 15  1  0  0  0  0
  8 16  1  0  0  0  0
  9 17  1  0  0  0  0
 10 19  1  0  0  0  0
 11 21  1  0  0  0  0
 12 13  2  0  0  0  0
 13 16  1  0  0  0  0
 14 17  1  0  0  0  0
 14 19  1  0  0  0  0
 14 20  2  0  0  0  0
  1 22  1  0  0  0  0
  2 23  1  0  0  0  0
  3 24  1  0  0  0  0
  4 25  1  0  0  0  0
  5 26  1  0  0  0  0
  6 27  1  0  0  0  0
 12 28  1  0  0  0  0
 12 29  1  0  0  0  0
 13 30  1  0  0  0  0
 15 31  1  0  0  0  0
 15 32  1  0  0  0  0
 15 33  1  0  0  0  0
 16 34  1  0  0  0  0
 16 35  1  0  0  0  0
 17 36  1  0  0  0  0
 17 37  1  0  0  0  0
 19 38  1  0  0  0  0
M  END
> <BB_SMILES>
C=CCB1OC(C)(C)C(C)(C)O1

> <scaffold_SMILES>
Cc1ccncc1NC(=O)Cc1cc(Cl)cc(Br)c1

$$$$
EN300-298557
  -OEChem-07272002243D

 42 44  0     0  0  0  0  0  0999 V2000
    5.0000    1.4070   18.8080 C   0  0  0  0  0  0  0  0  0  0  0  0
   11.0490    1.0010   23.0460 C   0  0  0  0  0  0  0  0  0  0  0  0
   13.3680    0.4840   22.6240 C   0  0  0  0  0  0  0  0  0  0  0  0
   11.6520   -1.1420   22.1450 C   0  0  0  0  0  0  0  0  0  0  0  0
    5.5330    1.3060   17.5390 C   0  0  0  0  0  0  0  0  0  0  0  0
    7.2400   -0.0390   18.2610 C   0  0  0  0  0  0  0  0  0  0  0  0
   13.6008    2.9789   24.5808 C   0  0  0  0  0  0  0  0  0  0  0  0
   12.3850    1.3610   23.0530 C   0  0  0  0  0  0  0  0  0  0  0  0
    5.6260    0.7590   19.8690 C   0  0  0  0  0  0  0  0  0  0  0  0
   10.6720   -0.2500   22.5660 C   0  0  0  0  0  0  0  0  0  0  0  0
    6.7930    0.0210   19.5790 C   0  0  0  0  0  0  0  0  0  0  0  0
   12.9770   -0.7640   22.1810 C   0  0  0  0  0  0  0  0  0  0  0  0
   12.7725    2.7094   23.5282 C   0  0  0  0  0  0  0  0  0  0  0  0
   12.9452    4.9083   23.7160 C   0  0  0  0  0  0  0  0  0  0  0  0
    8.6020    0.1230   21.2070 C   0  0  0  0  0  0  0  0  0  0  0  0
    5.0980    0.9060   21.2740 C   0  0  0  0  0  0  0  0  0  0  0  0
   11.4933    4.1038   21.8785 C   0  0  0  0  0  0  0  0  0  0  0  0
    9.2100   -0.5900   22.3990 C   0  0  0  0  0  0  0  0  0  0  0  0
    6.6320    0.5940   17.2520 N   0  0  0  0  0  0  0  0  0  0  0  0
   12.3813    3.9213   23.0121 N   0  0  0  0  0  0  0  0  0  0  0  0
   13.6900    4.3469   24.6739 N   0  3  0  0  0  0  0  0  0  0  0  0
    7.5630   -0.5230   20.6330 N   0  0  0  0  0  0  0  0  0  0  0  0
    9.0150    1.2120   20.8220 O   0  0  0  0  0  0  0  0  0  0  0  0
   14.1940   -1.9100   21.6990 Cl  0  0  0  0  0  0  0  0  0  0  0  0
   12.7682    6.6177   23.4643 Cl  0  0  0  0  0  0  0  0  0  0  0  0
    4.0894    1.9955   18.9731 H   0  0  0  0  0  0  0  0  0  0  0  0
   10.2878    1.6873   23.4136 H   0  0  0  0  0  0  0  0  0  0  0  0
   14.4085    0.7697   22.6363 H   0  0  0  0  0  0  0  0  0  0  0  0
   11.3635   -2.1298   21.7910 H   0  0  0  0  0  0  0  0  0  0  0  0
    5.0712    1.8129   16.6995 H   0  0  0  0  0  0  0  0  0  0  0  0
    8.1159   -0.6122   17.9919 H   0  0  0  0  0  0  0  0  0  0  0  0
   14.1539    2.4003   25.2946 H   0  0  0  0  0  0  0  0  0  0  0  0
    4.4459    1.7842   21.3447 H   0  0  0  0  0  0  0  0  0  0  0  0
    4.5260    0.0204   21.5771 H   0  0  0  0  0  0  0  0  0  0  0  0
    5.9169    1.0195   21.9952 H   0  0  0  0  0  0  0  0  0  0  0  0
   10.4691    4.1557   22.2573 H   0  0  0  0  0  0  0  0  0  0  0  0
   11.7550    5.0282   21.3560 H   0  0  0  0  0  0  0  0  0  0  0  0
   11.6058    3.2602   21.1918 H   0  0  0  0  0  0  0  0  0  0  0  0
    9.0901   -1.6664   22.2639 H   0  0  0  0  0  0  0  0  0  0  0  0
    8.6579   -0.3097   23.2977 H   0  0  0  0  0  0  0  0  0  0  0  0
   14.2366    4.8564   25.3625 H   0  0  0  0  0  0  0  0  0  0  0  0
    7.3129   -1.4300   20.9567 H   0  0  0  0  0  0  0  0  0  0  0  0
  1  5  2  0  0  0  0
  1  9  1  0  0  0  0
  2  8  1  0  0  0  0
  2 10  2  0  0  0  0
  3  8  2  0  0  0  0
  3 12  1  0  0  0  0
  4 10  1  0  0  0  0
  4 12  2  0  0  0  0
  5 19  1  0  0  0  0
  6 11  1  0  0  0  0
  6 19  2  0  0  0  0
  7 13  2  0  0  0  0
  7 21  1  0  0  0  0
  8 13  1  0  0  0  0
  9 11  2  0  0  0  0
  9 16  1  0  0  0  0
 10 18  1  0  0  0  0
 11 22  1  0  0  0  0
 12 24  1  0  0  0  0
 13 20  1  0  0  0  0
 14 20  1  0  0  0  0
 14 21  2  0  0  0  0
 14 25  1  0  0  0  0
 15 18  1  0  0  0  0
 15 22  1  0  0  0  0
 15 23  2  0  0  0  0
 17 20  1  0  0  0  0
  1 26  1  0  0  0  0
  2 27  1  0  0  0  0
  3 28  1  0  0  0  0
  4 29  1  0  0  0  0
  5 30  1  0  0  0  0
  6 31  1  0  0  0  0
  7 32  1  0  0  0  0
 16 33  1  0  0  0  0
 16 34  1  0  0  0  0
 16 35  1  0  0  0  0
 17 36  1  0  0  0  0
 17 37  1  0  0  0  0
 17 38  1  0  0  0  0
 18 39  1  0  0  0  0
 18 40  1  0  0  0  0
 21 41  1  0  0  0  0
 22 42  1  0  0  0  0
M  CHG  1  21   1
M  END
> <BB_SMILES>
Cn1c(B2OC(C)(C)C(C)(C)O2)cnc1Cl

> <scaffold_SMILES>
Cc1ccncc1NC(=O)Cc1cc(Cl)cc(Br)c1

$$$$
EN300-269572
  -OEChem-07272002243D

 37 38  0     0  0  0  0  0  0999 V2000
    5.0000    1.4070   18.8080 C   0  0  0  0  0  0  0  0  0  0  0  0
   11.0490    1.0010   23.0460 C   0  0  0  0  0  0  0  0  0  0  0  0
   11.6520   -1.1420   22.1450 C   0  0  0  0  0  0  0  0  0  0  0  0
   13.3680    0.4840   22.6240 C   0  0  0  0  0  0  0  0  0  0  0  0
    5.5330    1.3060   17.5390 C   0  0  0  0  0  0  0  0  0  0  0  0
    7.2400   -0.0390   18.2610 C   0  0  0  0  0  0  0  0  0  0  0  0
    5.6260    0.7590   19.8690 C   0  0  0  0  0  0  0  0  0  0  0  0
   10.6720   -0.2500   22.5660 C   0  0  0  0  0  0  0  0  0  0  0  0
   12.3850    1.3610   23.0530 C   0  0  0  0  0  0  0  0  0  0  0  0
    6.7930    0.0210   19.5790 C   0  0  0  0  0  0  0  0  0  0  0  0
   12.9770   -0.7640   22.1810 C   0  0  0  0  0  0  0  0  0  0  0  0
    8.6020    0.1230   21.2070 C   0  0  0  0  0  0  0  0  0  0  0  0
    5.0980    0.9060   21.2740 C   0  0  0  0  0  0  0  0  0  0  0  0
    9.2100   -0.5900   22.3990 C   0  0  0  0  0  0  0  0  0  0  0  0
   12.7773    2.7295   23.5372 C   0  0  0  0  0  0  0  0  0  0  0  0
    6.6320    0.5940   17.2520 N   0  0  0  0  0  0  0  0  0  0  0  0
    7.5630   -0.5230   20.6330 N   0  0  0  0  0  0  0  0  0  0  0  0
   12.8074    3.7531   22.4562 N   0  3  0  0  0  0  0  0  0  0  0  0
    9.0150    1.2120   20.8220 O   0  0  0  0  0  0  0  0  0  0  0  0
   14.1940   -1.9100   21.6990 Cl  0  0  0  0  0  0  0  0  0  0  0  0
    4.0894    1.9955   18.9731 H   0  0  0  0  0  0  0  0  0  0  0  0
   10.2920    1.6914   23.4138 H   0  0  0  0  0  0  0  0  0  0  0  0
   11.3638   -2.1302   21.7909 H   0  0  0  0  0  0  0  0  0  0  0  0
   14.4063    0.7746   22.6384 H   0  0  0  0  0  0  0  0  0  0  0  0
    5.0712    1.8129   16.6995 H   0  0  0  0  0  0  0  0  0  0  0  0
    8.1159   -0.6122   17.9919 H   0  0  0  0  0  0  0  0  0  0  0  0
    4.7841   -0.0685   21.6656 H   0  0  0  0  0  0  0  0  0  0  0  0
    5.8614    1.3222   21.9428 H   0  0  0  0  0  0  0  0  0  0  0  0
    4.2397    1.5885   21.3053 H   0  0  0  0  0  0  0  0  0  0  0  0
    9.0902   -1.6664   22.2639 H   0  0  0  0  0  0  0  0  0  0  0  0
    8.6579   -0.3097   23.2977 H   0  0  0  0  0  0  0  0  0  0  0  0
   12.0793    3.1053   24.2977 H   0  0  0  0  0  0  0  0  0  0  0  0
   13.7796    2.7269   23.9869 H   0  0  0  0  0  0  0  0  0  0  0  0
    7.3129   -1.4300   20.9567 H   0  0  0  0  0  0  0  0  0  0  0  0
   11.8598    3.9649   22.1324 H   0  0  0  0  0  0  0  0  0  0  0  0
   13.3519    3.4177   21.6566 H   0  0  0  0  0  0  0  0  0  0  0  0
   13.2330    4.6214   22.7923 H   0  0  0  0  0  0  0  0  0  0  0  0
  1  5  2  0  0  0  0
  1  7  1  0  0  0  0
  2  8  2  0  0  0  0
  2  9  1  0  0  0  0
  3  8  1  0  0  0  0
  3 11  2  0  0  0  0
  4  9  2  0  0  0  0
  4 11  1  0  0  0  0
  5 16  1  0  0  0  0
  6 10  1  0  0  0  0
  6 16  2  0  0  0  0
  7 10  2  0  0  0  0
  7 13  1  0  0  0  0
  8 14  1  0  0  0  0
  9 15  1  0  0  0  0
 10 17  1  0  0  0  0
 11 20  1  0  0  0  0
 12 14  1  0  0  0  0
 12 17  1  0  0  0  0
 12 19  2  0  0  0  0
 15 18  1  0  0  0  0
  1 21  1  0  0  0  0
  2 22  1  0  0  0  0
  3 23  1  0  0  0  0
  4 24  1  0  0  0  0
  5 25  1  0  0  0  0
  6 26  1  0  0  0  0
 13 27  1  0  0  0  0
 13 28  1  0  0  0  0
 13 29  1  0  0  0  0
 14 30  1  0  0  0  0
 14 31  1  0  0  0  0
 15 32  1  0  0  0  0
 15 33  1  0  0  0  0
 17 34  1  0  0  0  0
 18 35  1  0  0  0  0
 18 36  1  0  0  0  0
 18 37  1  0  0  0  0
M  CHG  1  18   1
M  END
> <BB_SMILES>
NCB(O)O

> <scaffold_SMILES>
Cc1ccncc1NC(=O)Cc1cc(Cl)cc(Br)c1

$$$$
EN300-301691
  -OEChem-07272002243D

 46 48  0     0  0  0  0  0  0999 V2000
   12.8687    4.3819   25.1884 C   0  0  0  0  0  0  0  0  0  0  0  0
   12.4753    3.1029   24.8106 C   0  0  0  0  0  0  0  0  0  0  0  0
   13.5319    5.1968   24.2776 C   0  0  0  0  0  0  0  0  0  0  0  0
    5.0000    1.4070   18.8080 C   0  0  0  0  0  0  0  0  0  0  0  0
   11.0490    1.0010   23.0460 C   0  0  0  0  0  0  0  0  0  0  0  0
   13.3680    0.4840   22.6240 C   0  0  0  0  0  0  0  0  0  0  0  0
   11.6520   -1.1420   22.1450 C   0  0  0  0  0  0  0  0  0  0  0  0
    5.5330    1.3060   17.5390 C   0  0  0  0  0  0  0  0  0  0  0  0
    7.2400   -0.0390   18.2610 C   0  0  0  0  0  0  0  0  0  0  0  0
   12.3850    1.3610   23.0530 C   0  0  0  0  0  0  0  0  0  0  0  0
    5.6260    0.7590   19.8690 C   0  0  0  0  0  0  0  0  0  0  0  0
   10.6720   -0.2500   22.5660 C   0  0  0  0  0  0  0  0  0  0  0  0
    6.7930    0.0210   19.5790 C   0  0  0  0  0  0  0  0  0  0  0  0
   12.9770   -0.7640   22.1810 C   0  0  0  0  0  0  0  0  0  0  0  0
   12.7664    2.6894   23.5206 C   0  0  0  0  0  0  0  0  0  0  0  0
   13.7758    4.6895   23.0115 C   0  0  0  0  0  0  0  0  0  0  0  0
    8.6020    0.1230   21.2070 C   0  0  0  0  0  0  0  0  0  0  0  0
    5.0980    0.9060   21.2740 C   0  0  0  0  0  0  0  0  0  0  0  0
   13.5214    6.3778   21.1755 C   0  0  0  0  0  0  0  0  0  0  0  0
    9.2100   -0.5900   22.3990 C   0  0  0  0  0  0  0  0  0  0  0  0
   14.4848    5.5366   22.0082 C   0  0  0  0  0  0  0  0  0  0  0  0
    6.6320    0.5940   17.2520 N   0  0  0  0  0  0  0  0  0  0  0  0
   13.4088    3.4525   22.6080 N   0  0  0  0  0  0  0  0  0  0  0  0
    7.5630   -0.5230   20.6330 N   0  0  0  0  0  0  0  0  0  0  0  0
    9.0150    1.2120   20.8220 O   0  0  0  0  0  0  0  0  0  0  0  0
   14.1940   -1.9100   21.6990 Cl  0  0  0  0  0  0  0  0  0  0  0  0
   12.6583    4.7429   26.1908 H   0  0  0  0  0  0  0  0  0  0  0  0
   11.9572    2.4605   25.5152 H   0  0  0  0  0  0  0  0  0  0  0  0
   13.8436    6.1969   24.5594 H   0  0  0  0  0  0  0  0  0  0  0  0
    4.0894    1.9955   18.9731 H   0  0  0  0  0  0  0  0  0  0  0  0
   10.2869    1.6872   23.4130 H   0  0  0  0  0  0  0  0  0  0  0  0
   14.4085    0.7689   22.6365 H   0  0  0  0  0  0  0  0  0  0  0  0
   11.3634   -2.1298   21.7910 H   0  0  0  0  0  0  0  0  0  0  0  0
    5.0712    1.8129   16.6995 H   0  0  0  0  0  0  0  0  0  0  0  0
    8.1159   -0.6122   17.9919 H   0  0  0  0  0  0  0  0  0  0  0  0
    4.4456    1.7840   21.3446 H   0  0  0  0  0  0  0  0  0  0  0  0
    4.5263    0.0203   21.5772 H   0  0  0  0  0  0  0  0  0  0  0  0
    5.9169    1.0197   21.9952 H   0  0  0  0  0  0  0  0  0  0  0  0
   12.7900    5.7448   20.6617 H   0  0  0  0  0  0  0  0  0  0  0  0
   14.0644    6.9518   20.4180 H   0  0  0  0  0  0  0  0  0  0  0  0
   12.9705    7.0841   21.8059 H   0  0  0  0  0  0  0  0  0  0  0  0
    9.0901   -1.6664   22.2639 H   0  0  0  0  0  0  0  0  0  0  0  0
    8.6579   -0.3097   23.2977 H   0  0  0  0  0  0  0  0  0  0  0  0
   15.2044    6.2031   22.5096 H   0  0  0  0  0  0  0  0  0  0  0  0
   15.0893    4.9083   21.3349 H   0  0  0  0  0  0  0  0  0  0  0  0
    7.3129   -1.4300   20.9567 H   0  0  0  0  0  0  0  0  0  0  0  0
  1  2  1  0  0  0  0
  1  3  2  0  0  0  0
  2 15  2  0  0  0  0
  3 16  1  0  0  0  0
  4  8  2  0  0  0  0
  4 11  1  0  0  0  0
  5 10  2  0  0  0  0
  5 12  1  0  0  0  0
  6 10  1  0  0  0  0
  6 14  2  0  0  0  0
  7 12  2  0  0  0  0
  7 14  1  0  0  0  0
  8 22  1  0  0  0  0
  9 13  1  0  0  0  0
  9 22  2  0  0  0  0
 10 15  1  0  0  0  0
 11 13  2  0  0  0  0
 11 18  1  0  0  0  0
 12 20  1  0  0  0  0
 13 24  1  0  0  0  0
 14 26  1  0  0  0  0
 15 23  1  0  0  0  0
 16 21  1  0  0  0  0
 16 23  2  0  0  0  0
 17 20  1  0  0  0  0
 17 24  1  0  0  0  0
 17 25  2  0  0  0  0
 19 21  1  0  0  0  0
  1 27  1  0  0  0  0
  2 28  1  0  0  0  0
  3 29  1  0  0  0  0
  4 30  1  0  0  0  0
  5 31  1  0  0  0  0
  6 32  1  0  0  0  0
  7 33  1  0  0  0  0
  8 34  1  0  0  0  0
  9 35  1  0  0  0  0
 18 36  1  0  0  0  0
 18 37  1  0  0  0  0
 18 38  1  0  0  0  0
 19 39  1  0  0  0  0
 19 40  1  0  0  0  0
 19 41  1  0  0  0  0
 20 42  1  0  0  0  0
 20 43  1  0  0  0  0
 21 44  1  0  0  0  0
 21 45  1  0  0  0  0
 24 46  1  0  0  0  0
M  END
> <BB_SMILES>
CCc1cccc([B-](OC(C)C)(OC(C)C)OC(C)C)n1

> <scaffold_SMILES>
Cc1ccncc1NC(=O)Cc1cc(Cl)cc(Br)c1

$$$$
EN300-373944
  -OEChem-07272002243D

 47 49  0     0  0  0  0  0  0999 V2000
    5.0000    1.4070   18.8080 C   0  0  0  0  0  0  0  0  0  0  0  0
   11.0490    1.0010   23.0460 C   0  0  0  0  0  0  0  0  0  0  0  0
   13.3680    0.4840   22.6240 C   0  0  0  0  0  0  0  0  0  0  0  0
   11.6520   -1.1420   22.1450 C   0  0  0  0  0  0  0  0  0  0  0  0
    5.5330    1.3060   17.5390 C   0  0  0  0  0  0  0  0  0  0  0  0
    7.2400   -0.0390   18.2610 C   0  0  0  0  0  0  0  0  0  0  0  0
   12.3850    1.3610   23.0530 C   0  0  0  0  0  0  0  0  0  0  0  0
    5.6260    0.7590   19.8690 C   0  0  0  0  0  0  0  0  0  0  0  0
   10.6720   -0.2500   22.5660 C   0  0  0  0  0  0  0  0  0  0  0  0
    6.7930    0.0210   19.5790 C   0  0  0  0  0  0  0  0  0  0  0  0
   12.9770   -0.7640   22.1810 C   0  0  0  0  0  0  0  0  0  0  0  0
    8.6020    0.1230   21.2070 C   0  0  0  0  0  0  0  0  0  0  0  0
   12.1985    3.8717   22.6607 C   0  0  0  0  0  0  0  0  0  0  0  0
   12.4273    2.9775   25.0223 C   0  0  0  0  0  0  0  0  0  0  0  0
   12.6133    5.2486   23.1593 C   0  0  0  0  0  0  0  0  0  0  0  0
   12.8393    4.3659   25.4906 C   0  0  0  0  0  0  0  0  0  0  0  0
   12.7831    2.7505   23.5408 C   0  0  0  0  0  0  0  0  0  0  0  0
    5.0980    0.9060   21.2740 C   0  0  0  0  0  0  0  0  0  0  0  0
    9.2100   -0.5900   22.3990 C   0  0  0  0  0  0  0  0  0  0  0  0
    6.6320    0.5940   17.2520 N   0  0  0  0  0  0  0  0  0  0  0  0
    7.5630   -0.5230   20.6330 N   0  0  0  0  0  0  0  0  0  0  0  0
   12.2258    5.3899   24.5940 N   0  3  0  0  0  0  0  0  0  0  0  0
    9.0150    1.2120   20.8220 O   0  0  0  0  0  0  0  0  0  0  0  0
   14.1940   -1.9100   21.6990 Cl  0  0  0  0  0  0  0  0  0  0  0  0
    4.0894    1.9955   18.9731 H   0  0  0  0  0  0  0  0  0  0  0  0
   10.2922    1.6915   23.4141 H   0  0  0  0  0  0  0  0  0  0  0  0
   14.4065    0.7745   22.6386 H   0  0  0  0  0  0  0  0  0  0  0  0
   11.3638   -2.1301   21.7911 H   0  0  0  0  0  0  0  0  0  0  0  0
    5.0712    1.8129   16.6995 H   0  0  0  0  0  0  0  0  0  0  0  0
    8.1159   -0.6122   17.9919 H   0  0  0  0  0  0  0  0  0  0  0  0
   11.1021    3.8063   22.6429 H   0  0  0  0  0  0  0  0  0  0  0  0
   12.5320    3.7452   21.6232 H   0  0  0  0  0  0  0  0  0  0  0  0
   12.9216    2.2221   25.6457 H   0  0  0  0  0  0  0  0  0  0  0  0
   11.3474    2.8470   25.1767 H   0  0  0  0  0  0  0  0  0  0  0  0
   13.6956    5.4015   23.0958 H   0  0  0  0  0  0  0  0  0  0  0  0
   12.1020    6.0442   22.6093 H   0  0  0  0  0  0  0  0  0  0  0  0
   12.4796    4.5699   26.5034 H   0  0  0  0  0  0  0  0  0  0  0  0
   13.9245    4.5079   25.4556 H   0  0  0  0  0  0  0  0  0  0  0  0
   13.9028    2.8011   23.4515 H   0  0  0  0  0  0  0  0  0  0  0  0
    5.9001    1.2244   21.9498 H   0  0  0  0  0  0  0  0  0  0  0  0
    4.2893    1.6459   21.3181 H   0  0  0  0  0  0  0  0  0  0  0  0
    4.6849   -0.0409   21.6431 H   0  0  0  0  0  0  0  0  0  0  0  0
    9.0902   -1.6664   22.2639 H   0  0  0  0  0  0  0  0  0  0  0  0
    8.6579   -0.3097   23.2977 H   0  0  0  0  0  0  0  0  0  0  0  0
    7.3129   -1.4300   20.9567 H   0  0  0  0  0  0  0  0  0  0  0  0
   12.4948    6.3274   24.9228 H   0  0  0  0  0  0  0  0  0  0  0  0
   11.2004    5.3504   24.6785 H   0  0  0  0  0  0  0  0  0  0  0  0
  1  5  2  0  0  0  0
  1  8  1  0  0  0  0
  2  7  1  0  0  0  0
  2  9  2  0  0  0  0
  3  7  2  0  0  0  0
  3 11  1  0  0  0  0
  4  9  1  0  0  0  0
  4 11  2  0  0  0  0
  5 20  1  0  0  0  0
  6 10  1  0  0  0  0
  6 20  2  0  0  0  0
  7 17  1  0  0  0  0
  8 10  2  0  0  0  0
  8 18  1  0  0  0  0
  9 19  1  0  0  0  0
 10 21  1  0  0  0  0
 11 24  1  0  0  0  0
 12 19  1  0  0  0  0
 12 21  1  0  0  0  0
 12 23  2  0  0  0  0
 13 15  1  0  0  0  0
 13 17  1  0  0  0  0
 14 16  1  0  0  0  0
 14 17  1  0  0  0  0
 15 22  1  0  0  0  0
 16 22  1  0  0  0  0
  1 25  1  0  0  0  0
  2 26  1  0  0  0  0
  3 27  1  0  0  0  0
  4 28  1  0  0  0  0
  5 29  1  0  0  0  0
  6 30  1  0  0  0  0
 13 31  1  0  0  0  0
 13 32  1  0  0  0  0
 14 33  1  0  0  0  0
 14 34  1  0  0  0  0
 15 35  1  0  0  0  0
 15 36  1  0  0  0  0
 16 37  1  0  0  0  0
 16 38  1  0  0  0  0
 17 39  1  0  0  0  0
 18 40  1  0  0  0  0
 18 41  1  0  0  0  0
 18 42  1  0  0  0  0
 19 43  1  0  0  0  0
 19 44  1  0  0  0  0
 21 45  1  0  0  0  0
 22 46  1  0  0  0  0
 22 47  1  0  0  0  0
M  CHG  1  22   1
M  END
> <BB_SMILES>
CC1(C)OB(C2CCNCC2)OC1(C)C

> <scaffold_SMILES>
Cc1ccncc1NC(=O)Cc1cc(Cl)cc(Br)c1

$$$$
EN300-359282
  -OEChem-07272002243D

 48 51  0     0  0  0  0  0  0999 V2000
    5.0000    1.4070   18.8080 C   0  0  0  0  0  0  0  0  0  0  0  0
   11.0490    1.0010   23.0460 C   0  0  0  0  0  0  0  0  0  0  0  0
   13.3680    0.4840   22.6240 C   0  0  0  0  0  0  0  0  0  0  0  0
   11.6520   -1.1420   22.1450 C   0  0  0  0  0  0  0  0  0  0  0  0
   12.5698    3.2767   24.7442 C   0  0  0  0  0  0  0  0  0  0  0  0
    5.5330    1.3060   17.5390 C   0  0  0  0  0  0  0  0  0  0  0  0
    7.2400   -0.0390   18.2610 C   0  0  0  0  0  0  0  0  0  0  0  0
   12.3850    1.3610   23.0530 C   0  0  0  0  0  0  0  0  0  0  0  0
    5.6260    0.7590   19.8690 C   0  0  0  0  0  0  0  0  0  0  0  0
   10.6720   -0.2500   22.5660 C   0  0  0  0  0  0  0  0  0  0  0  0
    6.7930    0.0210   19.5790 C   0  0  0  0  0  0  0  0  0  0  0  0
   12.9770   -0.7640   22.1810 C   0  0  0  0  0  0  0  0  0  0  0  0
   12.7645    2.6858   23.5197 C   0  0  0  0  0  0  0  0  0  0  0  0
   13.1450    4.5549   24.6136 C   0  0  0  0  0  0  0  0  0  0  0  0
    8.6020    0.1230   21.2070 C   0  0  0  0  0  0  0  0  0  0  0  0
   13.4137    4.3692   20.2920 C   0  0  0  0  0  0  0  0  0  0  0  0
   12.8299    2.9915   20.3219 C   0  0  0  0  0  0  0  0  0  0  0  0
   13.8273    3.4045   21.3787 C   0  0  0  0  0  0  0  0  0  0  0  0
    5.0980    0.9060   21.2740 C   0  0  0  0  0  0  0  0  0  0  0  0
    9.2100   -0.5900   22.3990 C   0  0  0  0  0  0  0  0  0  0  0  0
   13.2173    5.6138   25.6347 C   0  0  0  0  0  0  0  0  0  0  0  0
    6.6320    0.5940   17.2520 N   0  0  0  0  0  0  0  0  0  0  0  0
   13.6662    4.7645   23.4018 N   0  0  0  0  0  0  0  0  0  0  0  0
   13.4193    3.6100   22.7598 N   0  0  0  0  0  0  0  0  0  0  0  0
    7.5630   -0.5230   20.6330 N   0  0  0  0  0  0  0  0  0  0  0  0
    9.0150    1.2120   20.8220 O   0  0  0  0  0  0  0  0  0  0  0  0
   12.6477    5.2789   26.8389 F   0  0  0  0  0  0  0  0  0  0  0  0
   14.4947    5.9996   25.9598 F   0  0  0  0  0  0  0  0  0  0  0  0
   12.5866    6.7737   25.2608 F   0  0  0  0  0  0  0  0  0  0  0  0
   14.1940   -1.9100   21.6990 Cl  0  0  0  0  0  0  0  0  0  0  0  0
    4.0894    1.9955   18.9731 H   0  0  0  0  0  0  0  0  0  0  0  0
   10.2872    1.6875   23.4133 H   0  0  0  0  0  0  0  0  0  0  0  0
   14.4086    0.7688   22.6369 H   0  0  0  0  0  0  0  0  0  0  0  0
   11.3634   -2.1302   21.7918 H   0  0  0  0  0  0  0  0  0  0  0  0
   12.0819    2.8464   25.6075 H   0  0  0  0  0  0  0  0  0  0  0  0
    5.0712    1.8129   16.6995 H   0  0  0  0  0  0  0  0  0  0  0  0
    8.1159   -0.6122   17.9919 H   0  0  0  0  0  0  0  0  0  0  0  0
   14.1373    4.5941   19.5177 H   0  0  0  0  0  0  0  0  0  0  0  0
   12.7666    5.1972   20.5542 H   0  0  0  0  0  0  0  0  0  0  0  0
   11.7892    2.8915   20.6055 H   0  0  0  0  0  0  0  0  0  0  0  0
   13.1588    2.2862   19.5684 H   0  0  0  0  0  0  0  0  0  0  0  0
   14.8228    2.9813   21.3035 H   0  0  0  0  0  0  0  0  0  0  0  0
    4.4460    1.7843   21.3447 H   0  0  0  0  0  0  0  0  0  0  0  0
    4.5259    0.0205   21.5771 H   0  0  0  0  0  0  0  0  0  0  0  0
    5.9169    1.0193   21.9952 H   0  0  0  0  0  0  0  0  0  0  0  0
    9.0901   -1.6664   22.2639 H   0  0  0  0  0  0  0  0  0  0  0  0
    8.6579   -0.3097   23.2977 H   0  0  0  0  0  0  0  0  0  0  0  0
    7.3129   -1.4300   20.9567 H   0  0  0  0  0  0  0  0  0  0  0  0
  1  6  2  0  0  0  0
  1  9  1  0  0  0  0
  2  8  1  0  0  0  0
  2 10  2  0  0  0  0
  3  8  2  0  0  0  0
  3 12  1  0  0  0  0
  4 10  1  0  0  0  0
  4 12  2  0  0  0  0
  5 13  2  0  0  0  0
  5 14  1  0  0  0  0
  6 22  1  0  0  0  0
  7 11  1  0  0  0  0
  7 22  2  0  0  0  0
  8 13  1  0  0  0  0
  9 11  2  0  0  0  0
  9 19  1  0  0  0  0
 10 20  1  0  0  0  0
 11 25  1  0  0  0  0
 12 30  1  0  0  0  0
 13 24  1  0  0  0  0
 14 21  1  0  0  0  0
 14 23  2  0  0  0  0
 15 20  1  0  0  0  0
 15 25  1  0  0  0  0
 15 26  2  0  0  0  0
 16 17  1  0  0  0  0
 16 18  1  0  0  0  0
 17 18  1  0  0  0  0
 18 24  1  0  0  0  0
 21 27  1  0  0  0  0
 21 28  1  0  0  0  0
 21 29  1  0  0  0  0
 23 24  1  0  0  0  0
  1 31  1  0  0  0  0
  2 32  1  0  0  0  0
  3 33  1  0  0  0  0
  4 34  1  0  0  0  0
  5 35  1  0  0  0  0
  6 36  1  0  0  0  0
  7 37  1  0  0  0  0
 16 38  1  0  0  0  0
 16 39  1  0  0  0  0
 17 40  1  0  0  0  0
 17 41  1  0  0  0  0
 18 42  1  0  0  0  0
 19 43  1  0  0  0  0
 19 44  1  0  0  0  0
 19 45  1  0  0  0  0
 20 46  1  0  0  0  0
 20 47  1  0  0  0  0
 25 48  1  0  0  0  0
M  END
> <BB_SMILES>
OB(O)c1cc(C(F)(F)F)nn1C1CC1

> <scaffold_SMILES>
Cc1ccncc1NC(=O)Cc1cc(Cl)cc(Br)c1

$$$$
EN300-359811
  -OEChem-07272002243D

 48 51  0     1  0  0  0  0  0999 V2000
    5.0000    1.4070   18.8080 C   0  0  0  0  0  0  0  0  0  0  0  0
   11.0490    1.0010   23.0460 C   0  0  0  0  0  0  0  0  0  0  0  0
   13.3680    0.4840   22.6240 C   0  0  0  0  0  0  0  0  0  0  0  0
   11.6520   -1.1420   22.1450 C   0  0  0  0  0  0  0  0  0  0  0  0
    5.5330    1.3060   17.5390 C   0  0  0  0  0  0  0  0  0  0  0  0
    7.2400   -0.0390   18.2610 C   0  0  0  0  0  0  0  0  0  0  0  0
   12.3850    1.3610   23.0530 C   0  0  0  0  0  0  0  0  0  0  0  0
    5.6260    0.7590   19.8690 C   0  0  0  0  0  0  0  0  0  0  0  0
   10.6720   -0.2500   22.5660 C   0  0  0  0  0  0  0  0  0  0  0  0
    6.7930    0.0210   19.5790 C   0  0  0  0  0  0  0  0  0  0  0  0
   12.9770   -0.7640   22.1810 C   0  0  0  0  0  0  0  0  0  0  0  0
    8.6020    0.1230   21.2070 C   0  0  0  0  0  0  0  0  0  0  0  0
   12.8986    5.5437   22.6836 C   0  0  0  0  0  0  0  0  0  0  0  0
   14.2012    4.8281   23.0206 C   0  0  0  0  0  0  0  0  0  0  0  0
   11.8123    5.2083   23.6997 C   0  0  0  0  0  0  0  0  0  0  0  0
   14.0417    3.3143   22.8908 C   0  0  0  0  0  0  0  0  0  0  0  0
   12.5260    3.0914   25.0061 C   0  0  0  0  0  0  0  0  0  0  0  0
   11.6803    3.7350   23.9411 C   0  0  2  0  0  0  0  0  0  0  0  0
   12.7875    2.7608   23.5478 C   0  0  1  0  0  0  0  0  0  0  0  0
    5.0980    0.9060   21.2740 C   0  0  0  0  0  0  0  0  0  0  0  0
    9.2100   -0.5900   22.3990 C   0  0  0  0  0  0  0  0  0  0  0  0
    6.6320    0.5940   17.2520 N   0  0  0  0  0  0  0  0  0  0  0  0
    7.5630   -0.5230   20.6330 N   0  0  0  0  0  0  0  0  0  0  0  0
    9.0150    1.2120   20.8220 O   0  0  0  0  0  0  0  0  0  0  0  0
   14.1940   -1.9100   21.6990 Cl  0  0  0  0  0  0  0  0  0  0  0  0
    4.0894    1.9955   18.9731 H   0  0  0  0  0  0  0  0  0  0  0  0
   10.2920    1.6908   23.4149 H   0  0  0  0  0  0  0  0  0  0  0  0
   14.4066    0.7739   22.6379 H   0  0  0  0  0  0  0  0  0  0  0  0
   11.3632   -2.1298   21.7911 H   0  0  0  0  0  0  0  0  0  0  0  0
    5.0712    1.8129   16.6995 H   0  0  0  0  0  0  0  0  0  0  0  0
    8.1159   -0.6122   17.9919 H   0  0  0  0  0  0  0  0  0  0  0  0
   13.0691    6.6272   22.6569 H   0  0  0  0  0  0  0  0  0  0  0  0
   12.5607    5.2526   21.6821 H   0  0  0  0  0  0  0  0  0  0  0  0
   14.9974    5.1767   22.3524 H   0  0  0  0  0  0  0  0  0  0  0  0
   14.5050    5.0736   24.0437 H   0  0  0  0  0  0  0  0  0  0  0  0
   12.0125    5.7199   24.6412 H   0  0  0  0  0  0  0  0  0  0  0  0
   10.8551    5.5770   23.3253 H   0  0  0  0  0  0  0  0  0  0  0  0
   14.0594    3.0555   21.8172 H   0  0  0  0  0  0  0  0  0  0  0  0
   14.9282    2.8143   23.3202 H   0  0  0  0  0  0  0  0  0  0  0  0
   13.2364    3.7094   25.5428 H   0  0  0  0  0  0  0  0  0  0  0  0
   12.0519    2.3441   25.6335 H   0  0  0  0  0  0  0  0  0  0  0  0
   10.6561    3.4187   23.8911 H   0  0  0  0  0  0  0  0  0  0  0  0
    4.1219    1.4046   21.2627 H   0  0  0  0  0  0  0  0  0  0  0  0
    4.9859   -0.0712   21.7595 H   0  0  0  0  0  0  0  0  0  0  0  0
    5.7842    1.4945   21.8956 H   0  0  0  0  0  0  0  0  0  0  0  0
    9.0901   -1.6664   22.2639 H   0  0  0  0  0  0  0  0  0  0  0  0
    8.6579   -0.3097   23.2977 H   0  0  0  0  0  0  0  0  0  0  0  0
    7.3129   -1.4300   20.9567 H   0  0  0  0  0  0  0  0  0  0  0  0
  1  5  2  0  0  0  0
  1  8  1  0  0  0  0
  2  7  1  0  0  0  0
  2  9  2  0  0  0  0
  3  7  2  0  0  0  0
  3 11  1  0  0  0  0
  4  9  1  0  0  0  0
  4 11  2  0  0  0  0
  5 22  1  0  0  0  0
  6 10  1  0  0  0  0
  6 22  2  0  0  0  0
  7 19  1  1  0  0  0
  8 10  2  0  0  0  0
  8 20  1  0  0  0  0
  9 21  1  0  0  0  0
 10 23  1  0  0  0  0
 11 25  1  0  0  0  0
 12 21  1  0  0  0  0
 12 23  1  0  0  0  0
 12 24  2  0  0  0  0
 13 14  1  0  0  0  0
 13 15  1  0  0  0  0
 14 16  1  0  0  0  0
 15 18  1  1  0  0  0
 16 19  1  0  0  0  0
 17 18  1  0  0  0  0
 17 19  1  0  0  0  0
 18 19  1  0  0  0  0
  1 26  1  0  0  0  0
  2 27  1  0  0  0  0
  3 28  1  0  0  0  0
  4 29  1  0  0  0  0
  5 30  1  0  0  0  0
  6 31  1  0  0  0  0
 13 32  1  0  0  0  0
 13 33  1  0  0  0  0
 14 34  1  0  0  0  0
 14 35  1  0  0  0  0
 15 36  1  0  0  0  0
 15 37  1  0  0  0  0
 16 38  1  0  0  0  0
 16 39  1  0  0  0  0
 17 40  1  0  0  0  0
 17 41  1  0  0  0  0
 18 42  1  0  0  0  0
 20 43  1  0  0  0  0
 20 44  1  0  0  0  0
 20 45  1  0  0  0  0
 21 46  1  0  0  0  0
 21 47  1  0  0  0  0
 23 48  1  0  0  0  0
M  END
> <BB_SMILES>
OB(O)C12CCCCC1C2

> <scaffold_SMILES>
Cc1ccncc1NC(=O)Cc1cc(Cl)cc(Br)c1

$$$$
EN300-359811
  -OEChem-07272002243D

 48 51  0     1  0  0  0  0  0999 V2000
    5.0000    1.4070   18.8080 C   0  0  0  0  0  0  0  0  0  0  0  0
   11.0490    1.0010   23.0460 C   0  0  0  0  0  0  0  0  0  0  0  0
   13.3680    0.4840   22.6240 C   0  0  0  0  0  0  0  0  0  0  0  0
   11.6520   -1.1420   22.1450 C   0  0  0  0  0  0  0  0  0  0  0  0
    5.5330    1.3060   17.5390 C   0  0  0  0  0  0  0  0  0  0  0  0
    7.2400   -0.0390   18.2610 C   0  0  0  0  0  0  0  0  0  0  0  0
   12.3850    1.3610   23.0530 C   0  0  0  0  0  0  0  0  0  0  0  0
    5.6260    0.7590   19.8690 C   0  0  0  0  0  0  0  0  0  0  0  0
   10.6720   -0.2500   22.5660 C   0  0  0  0  0  0  0  0  0  0  0  0
    6.7930    0.0210   19.5790 C   0  0  0  0  0  0  0  0  0  0  0  0
   12.9770   -0.7640   22.1810 C   0  0  0  0  0  0  0  0  0  0  0  0
    8.6020    0.1230   21.2070 C   0  0  0  0  0  0  0  0  0  0  0  0
   13.3151    4.5976   21.3485 C   0  0  0  0  0  0  0  0  0  0  0  0
   11.8636    4.3057   21.8369 C   0  0  0  0  0  0  0  0  0  0  0  0
   14.4183    3.6912   21.9618 C   0  0  0  0  0  0  0  0  0  0  0  0
   11.7376    3.8312   23.3156 C   0  0  0  0  0  0  0  0  0  0  0  0
   13.9940    2.6258   24.4988 C   0  0  0  0  0  0  0  0  0  0  0  0
   14.0841    3.5900   23.3937 C   0  0  2  0  0  0  0  0  0  0  0  0
   12.7918    2.7758   23.5531 C   0  0  2  0  0  0  0  0  0  0  0  0
    5.0980    0.9060   21.2740 C   0  0  0  0  0  0  0  0  0  0  0  0
    9.2100   -0.5900   22.3990 C   0  0  0  0  0  0  0  0  0  0  0  0
    6.6320    0.5940   17.2520 N   0  0  0  0  0  0  0  0  0  0  0  0
    7.5630   -0.5230   20.6330 N   0  0  0  0  0  0  0  0  0  0  0  0
    9.0150    1.2120   20.8220 O   0  0  0  0  0  0  0  0  0  0  0  0
   14.1940   -1.9100   21.6990 Cl  0  0  0  0  0  0  0  0  0  0  0  0
    4.0894    1.9955   18.9731 H   0  0  0  0  0  0  0  0  0  0  0  0
   10.2920    1.6908   23.4149 H   0  0  0  0  0  0  0  0  0  0  0  0
   14.4066    0.7739   22.6379 H   0  0  0  0  0  0  0  0  0  0  0  0
   11.3632   -2.1298   21.7911 H   0  0  0  0  0  0  0  0  0  0  0  0
    5.0712    1.8129   16.6995 H   0  0  0  0  0  0  0  0  0  0  0  0
    8.1159   -0.6122   17.9919 H   0  0  0  0  0  0  0  0  0  0  0  0
   13.3593    4.5540   20.2545 H   0  0  0  0  0  0  0  0  0  0  0  0
   13.5445    5.6359   21.6250 H   0  0  0  0  0  0  0  0  0  0  0  0
   11.2361    5.1904   21.6792 H   0  0  0  0  0  0  0  0  0  0  0  0
   11.4526    3.5205   21.1888 H   0  0  0  0  0  0  0  0  0  0  0  0
   14.4404    2.7190   21.4585 H   0  0  0  0  0  0  0  0  0  0  0  0
   15.4013    4.1523   21.8186 H   0  0  0  0  0  0  0  0  0  0  0  0
   11.8593    4.6825   23.9971 H   0  0  0  0  0  0  0  0  0  0  0  0
   10.7329    3.4290   23.4914 H   0  0  0  0  0  0  0  0  0  0  0  0
   14.6180    1.7412   24.4401 H   0  0  0  0  0  0  0  0  0  0  0  0
   13.8720    3.0025   25.5084 H   0  0  0  0  0  0  0  0  0  0  0  0
   14.1564    4.6018   23.8029 H   0  0  0  0  0  0  0  0  0  0  0  0
    4.5715    1.8611   21.3839 H   0  0  0  0  0  0  0  0  0  0  0  0
    4.4044    0.0937   21.5238 H   0  0  0  0  0  0  0  0  0  0  0  0
    5.9116    0.8685   22.0090 H   0  0  0  0  0  0  0  0  0  0  0  0
    9.0901   -1.6664   22.2639 H   0  0  0  0  0  0  0  0  0  0  0  0
    8.6579   -0.3097   23.2977 H   0  0  0  0  0  0  0  0  0  0  0  0
    7.3129   -1.4300   20.9567 H   0  0  0  0  0  0  0  0  0  0  0  0
  1  5  2  0  0  0  0
  1  8  1  0  0  0  0
  2  7  1  0  0  0  0
  2  9  2  0  0  0  0
  3  7  2  0  0  0  0
  3 11  1  0  0  0  0
  4  9  1  0  0  0  0
  4 11  2  0  0  0  0
  5 22  1  0  0  0  0
  6 10  1  0  0  0  0
  6 22  2  0  0  0  0
  7 19  1  6  0  0  0
  8 10  2  0  0  0  0
  8 20  1  0  0  0  0
  9 21  1  0  0  0  0
 10 23  1  0  0  0  0
 11 25  1  0  0  0  0
 12 21  1  0  0  0  0
 12 23  1  0  0  0  0
 12 24  2  0  0  0  0
 13 14  1  0  0  0  0
 13 15  1  0  0  0  0
 14 16  1  0  0  0  0
 15 18  1  1  0  0  0
 16 19  1  0  0  0  0
 17 18  1  0  0  0  0
 17 19  1  0  0  0  0
 18 19  1  0  0  0  0
  1 26  1  0  0  0  0
  2 27  1  0  0  0  0
  3 28  1  0  0  0  0
  4 29  1  0  0  0  0
  5 30  1  0  0  0  0
  6 31  1  0  0  0  0
 13 32  1  0  0  0  0
 13 33  1  0  0  0  0
 14 34  1  0  0  0  0
 14 35  1  0  0  0  0
 15 36  1  0  0  0  0
 15 37  1  0  0  0  0
 16 38  1  0  0  0  0
 16 39  1  0  0  0  0
 17 40  1  0  0  0  0
 17 41  1  0  0  0  0
 18 42  1  0  0  0  0
 20 43  1  0  0  0  0
 20 44  1  0  0  0  0
 20 45  1  0  0  0  0
 21 46  1  0  0  0  0
 21 47  1  0  0  0  0
 23 48  1  0  0  0  0
M  END
> <BB_SMILES>
OB(O)C12CCCCC1C2

> <scaffold_SMILES>
Cc1ccncc1NC(=O)Cc1cc(Cl)cc(Br)c1

$$$$
EN300-359811
  -OEChem-07272002243D

 48 51  0     1  0  0  0  0  0999 V2000
    5.0000    1.4070   18.8080 C   0  0  0  0  0  0  0  0  0  0  0  0
   11.0490    1.0010   23.0460 C   0  0  0  0  0  0  0  0  0  0  0  0
   13.3680    0.4840   22.6240 C   0  0  0  0  0  0  0  0  0  0  0  0
   11.6520   -1.1420   22.1450 C   0  0  0  0  0  0  0  0  0  0  0  0
    5.5330    1.3060   17.5390 C   0  0  0  0  0  0  0  0  0  0  0  0
    7.2400   -0.0390   18.2610 C   0  0  0  0  0  0  0  0  0  0  0  0
   12.3850    1.3610   23.0530 C   0  0  0  0  0  0  0  0  0  0  0  0
    5.6260    0.7590   19.8690 C   0  0  0  0  0  0  0  0  0  0  0  0
   10.6720   -0.2500   22.5660 C   0  0  0  0  0  0  0  0  0  0  0  0
    6.7930    0.0210   19.5790 C   0  0  0  0  0  0  0  0  0  0  0  0
   12.9770   -0.7640   22.1810 C   0  0  0  0  0  0  0  0  0  0  0  0
    8.6020    0.1230   21.2070 C   0  0  0  0  0  0  0  0  0  0  0  0
   12.3555    4.8126   21.5247 C   0  0  0  0  0  0  0  0  0  0  0  0
   13.6286    3.9128   21.5149 C   0  0  0  0  0  0  0  0  0  0  0  0
   11.2550    4.3969   22.5400 C   0  0  0  0  0  0  0  0  0  0  0  0
   14.0387    3.3187   22.8956 C   0  0  0  0  0  0  0  0  0  0  0  0
   12.0311    3.0625   24.8572 C   0  0  0  0  0  0  0  0  0  0  0  0
   11.9790    4.0590   23.7787 C   0  0  1  0  0  0  0  0  0  0  0  0
   12.7918    2.7757   23.5530 C   0  0  1  0  0  0  0  0  0  0  0  0
    5.0980    0.9060   21.2740 C   0  0  0  0  0  0  0  0  0  0  0  0
    9.2100   -0.5900   22.3990 C   0  0  0  0  0  0  0  0  0  0  0  0
    6.6320    0.5940   17.2520 N   0  0  0  0  0  0  0  0  0  0  0  0
    7.5630   -0.5230   20.6330 N   0  0  0  0  0  0  0  0  0  0  0  0
    9.0150    1.2120   20.8220 O   0  0  0  0  0  0  0  0  0  0  0  0
   14.1940   -1.9100   21.6990 Cl  0  0  0  0  0  0  0  0  0  0  0  0
    4.0894    1.9955   18.9731 H   0  0  0  0  0  0  0  0  0  0  0  0
   10.2920    1.6908   23.4149 H   0  0  0  0  0  0  0  0  0  0  0  0
   14.4066    0.7739   22.6379 H   0  0  0  0  0  0  0  0  0  0  0  0
   11.3632   -2.1298   21.7911 H   0  0  0  0  0  0  0  0  0  0  0  0
    5.0712    1.8129   16.6995 H   0  0  0  0  0  0  0  0  0  0  0  0
    8.1159   -0.6122   17.9919 H   0  0  0  0  0  0  0  0  0  0  0  0
   12.6821    5.8291   21.7836 H   0  0  0  0  0  0  0  0  0  0  0  0
   11.9311    4.8743   20.5164 H   0  0  0  0  0  0  0  0  0  0  0  0
   13.4340    3.0795   20.8268 H   0  0  0  0  0  0  0  0  0  0  0  0
   14.4708    4.4699   21.0886 H   0  0  0  0  0  0  0  0  0  0  0  0
   10.5648    5.2313   22.7031 H   0  0  0  0  0  0  0  0  0  0  0  0
   10.6667    3.5612   22.1478 H   0  0  0  0  0  0  0  0  0  0  0  0
   14.7835    2.5269   22.7526 H   0  0  0  0  0  0  0  0  0  0  0  0
   14.5153    4.0910   23.5125 H   0  0  0  0  0  0  0  0  0  0  0  0
   12.6291    3.2792   25.7355 H   0  0  0  0  0  0  0  0  0  0  0  0
   11.1185    2.5208   25.0786 H   0  0  0  0  0  0  0  0  0  0  0  0
   12.4717    4.9771   24.1118 H   0  0  0  0  0  0  0  0  0  0  0  0
    4.1987    1.5327   21.2781 H   0  0  0  0  0  0  0  0  0  0  0  0
    4.8461   -0.0700   21.7068 H   0  0  0  0  0  0  0  0  0  0  0  0
    5.8464    1.3638   21.9327 H   0  0  0  0  0  0  0  0  0  0  0  0
    9.0901   -1.6664   22.2639 H   0  0  0  0  0  0  0  0  0  0  0  0
    8.6579   -0.3097   23.2977 H   0  0  0  0  0  0  0  0  0  0  0  0
    7.3129   -1.4300   20.9567 H   0  0  0  0  0  0  0  0  0  0  0  0
  1  5  2  0  0  0  0
  1  8  1  0  0  0  0
  2  7  1  0  0  0  0
  2  9  2  0  0  0  0
  3  7  2  0  0  0  0
  3 11  1  0  0  0  0
  4  9  1  0  0  0  0
  4 11  2  0  0  0  0
  5 22  1  0  0  0  0
  6 10  1  0  0  0  0
  6 22  2  0  0  0  0
  7 19  1  1  0  0  0
  8 10  2  0  0  0  0
  8 20  1  0  0  0  0
  9 21  1  0  0  0  0
 10 23  1  0  0  0  0
 11 25  1  0  0  0  0
 12 21  1  0  0  0  0
 12 23  1  0  0  0  0
 12 24  2  0  0  0  0
 13 14  1  0  0  0  0
 13 15  1  0  0  0  0
 14 16  1  0  0  0  0
 15 18  1  6  0  0  0
 16 19  1  0  0  0  0
 17 18  1  0  0  0  0
 17 19  1  0  0  0  0
 18 19  1  0  0  0  0
  1 26  1  0  0  0  0
  2 27  1  0  0  0  0
  3 28  1  0  0  0  0
  4 29  1  0  0  0  0
  5 30  1  0  0  0  0
  6 31  1  0  0  0  0
 13 32  1  0  0  0  0
 13 33  1  0  0  0  0
 14 34  1  0  0  0  0
 14 35  1  0  0  0  0
 15 36  1  0  0  0  0
 15 37  1  0  0  0  0
 16 38  1  0  0  0  0
 16 39  1  0  0  0  0
 17 40  1  0  0  0  0
 17 41  1  0  0  0  0
 18 42  1  0  0  0  0
 20 43  1  0  0  0  0
 20 44  1  0  0  0  0
 20 45  1  0  0  0  0
 21 46  1  0  0  0  0
 21 47  1  0  0  0  0
 23 48  1  0  0  0  0
M  END
> <BB_SMILES>
OB(O)C12CCCCC1C2

> <scaffold_SMILES>
Cc1ccncc1NC(=O)Cc1cc(Cl)cc(Br)c1

$$$$
EN300-359811
  -OEChem-07272002243D

 48 51  0     1  0  0  0  0  0999 V2000
    5.0000    1.4070   18.8080 C   0  0  0  0  0  0  0  0  0  0  0  0
   11.0490    1.0010   23.0460 C   0  0  0  0  0  0  0  0  0  0  0  0
   13.3680    0.4840   22.6240 C   0  0  0  0  0  0  0  0  0  0  0  0
   11.6520   -1.1420   22.1450 C   0  0  0  0  0  0  0  0  0  0  0  0
    5.5330    1.3060   17.5390 C   0  0  0  0  0  0  0  0  0  0  0  0
    7.2400   -0.0390   18.2610 C   0  0  0  0  0  0  0  0  0  0  0  0
   12.3850    1.3610   23.0530 C   0  0  0  0  0  0  0  0  0  0  0  0
    5.6260    0.7590   19.8690 C   0  0  0  0  0  0  0  0  0  0  0  0
   10.6720   -0.2500   22.5660 C   0  0  0  0  0  0  0  0  0  0  0  0
    6.7930    0.0210   19.5790 C   0  0  0  0  0  0  0  0  0  0  0  0
   12.9770   -0.7640   22.1810 C   0  0  0  0  0  0  0  0  0  0  0  0
    8.6020    0.1230   21.2070 C   0  0  0  0  0  0  0  0  0  0  0  0
   13.5470    5.4002   22.5671 C   0  0  0  0  0  0  0  0  0  0  0  0
   12.2626    5.2597   23.3753 C   0  0  0  0  0  0  0  0  0  0  0  0
   14.6714    4.5721   23.1795 C   0  0  0  0  0  0  0  0  0  0  0  0
   11.7317    3.8287   23.3123 C   0  0  0  0  0  0  0  0  0  0  0  0
   13.6364    2.8436   24.8036 C   0  0  0  0  0  0  0  0  0  0  0  0
   14.2584    3.1611   23.4710 C   0  0  1  0  0  0  0  0  0  0  0  0
   12.7875    2.7608   23.5478 C   0  0  2  0  0  0  0  0  0  0  0  0
    5.0980    0.9060   21.2740 C   0  0  0  0  0  0  0  0  0  0  0  0
    9.2100   -0.5900   22.3990 C   0  0  0  0  0  0  0  0  0  0  0  0
    6.6320    0.5940   17.2520 N   0  0  0  0  0  0  0  0  0  0  0  0
    7.5630   -0.5230   20.6330 N   0  0  0  0  0  0  0  0  0  0  0  0
    9.0150    1.2120   20.8220 O   0  0  0  0  0  0  0  0  0  0  0  0
   14.1940   -1.9100   21.6990 Cl  0  0  0  0  0  0  0  0  0  0  0  0
    4.0894    1.9955   18.9731 H   0  0  0  0  0  0  0  0  0  0  0  0
   10.2920    1.6908   23.4149 H   0  0  0  0  0  0  0  0  0  0  0  0
   14.4066    0.7739   22.6379 H   0  0  0  0  0  0  0  0  0  0  0  0
   11.3632   -2.1298   21.7911 H   0  0  0  0  0  0  0  0  0  0  0  0
    5.0712    1.8129   16.6995 H   0  0  0  0  0  0  0  0  0  0  0  0
    8.1159   -0.6122   17.9919 H   0  0  0  0  0  0  0  0  0  0  0  0
   13.3768    5.0723   21.5350 H   0  0  0  0  0  0  0  0  0  0  0  0
   13.8397    6.4566   22.5198 H   0  0  0  0  0  0  0  0  0  0  0  0
   12.4499    5.5309   24.4197 H   0  0  0  0  0  0  0  0  0  0  0  0
   11.5068    5.9545   22.9908 H   0  0  0  0  0  0  0  0  0  0  0  0
   15.5073    4.5422   22.4778 H   0  0  0  0  0  0  0  0  0  0  0  0
   15.0294    5.0483   24.0923 H   0  0  0  0  0  0  0  0  0  0  0  0
   10.9189    3.7061   24.0505 H   0  0  0  0  0  0  0  0  0  0  0  0
   11.2488    3.6821   22.3298 H   0  0  0  0  0  0  0  0  0  0  0  0
   13.9416    1.9228   25.2892 H   0  0  0  0  0  0  0  0  0  0  0  0
   13.4699    3.6562   25.5012 H   0  0  0  0  0  0  0  0  0  0  0  0
   14.9789    2.4565   23.1022 H   0  0  0  0  0  0  0  0  0  0  0  0
    5.7025    1.6295   21.8332 H   0  0  0  0  0  0  0  0  0  0  0  0
    4.0559    1.2486   21.2719 H   0  0  0  0  0  0  0  0  0  0  0  0
    5.1179   -0.0526   21.8071 H   0  0  0  0  0  0  0  0  0  0  0  0
    9.0901   -1.6664   22.2639 H   0  0  0  0  0  0  0  0  0  0  0  0
    8.6579   -0.3097   23.2977 H   0  0  0  0  0  0  0  0  0  0  0  0
    7.3129   -1.4300   20.9567 H   0  0  0  0  0  0  0  0  0  0  0  0
  1  5  2  0  0  0  0
  1  8  1  0  0  0  0
  2  7  1  0  0  0  0
  2  9  2  0  0  0  0
  3  7  2  0  0  0  0
  3 11  1  0  0  0  0
  4  9  1  0  0  0  0
  4 11  2  0  0  0  0
  5 22  1  0  0  0  0
  6 10  1  0  0  0  0
  6 22  2  0  0  0  0
  7 19  1  6  0  0  0
  8 10  2  0  0  0  0
  8 20  1  0  0  0  0
  9 21  1  0  0  0  0
 10 23  1  0  0  0  0
 11 25  1  0  0  0  0
 12 21  1  0  0  0  0
 12 23  1  0  0  0  0
 12 24  2  0  0  0  0
 13 14  1  0  0  0  0
 13 15  1  0  0  0  0
 14 16  1  0  0  0  0
 15 18  1  6  0  0  0
 16 19  1  0  0  0  0
 17 18  1  0  0  0  0
 17 19  1  0  0  0  0
 18 19  1  0  0  0  0
  1 26  1  0  0  0  0
  2 27  1  0  0  0  0
  3 28  1  0  0  0  0
  4 29  1  0  0  0  0
  5 30  1  0  0  0  0
  6 31  1  0  0  0  0
 13 32  1  0  0  0  0
 13 33  1  0  0  0  0
 14 34  1  0  0  0  0
 14 35  1  0  0  0  0
 15 36  1  0  0  0  0
 15 37  1  0  0  0  0
 16 38  1  0  0  0  0
 16 39  1  0  0  0  0
 17 40  1  0  0  0  0
 17 41  1  0  0  0  0
 18 42  1  0  0  0  0
 20 43  1  0  0  0  0
 20 44  1  0  0  0  0
 20 45  1  0  0  0  0
 21 46  1  0  0  0  0
 21 47  1  0  0  0  0
 23 48  1  0  0  0  0
M  END
> <BB_SMILES>
OB(O)C12CCCCC1C2

> <scaffold_SMILES>
Cc1ccncc1NC(=O)Cc1cc(Cl)cc(Br)c1

$$$$
EN300-360076
  -OEChem-07272002243D

 48 51  0     0  0  0  0  0  0999 V2000
   14.2884    4.5801   23.4237 C   0  0  0  0  0  0  0  0  0  0  0  0
   13.9001    3.3060   22.9939 C   0  0  0  0  0  0  0  0  0  0  0  0
    5.0000    1.4070   18.8080 C   0  0  0  0  0  0  0  0  0  0  0  0
   13.6117    6.5020   25.0525 C   0  0  0  0  0  0  0  0  0  0  0  0
   11.0490    1.0010   23.0460 C   0  0  0  0  0  0  0  0  0  0  0  0
   11.9867    3.3255   24.4914 C   0  0  0  0  0  0  0  0  0  0  0  0
   13.3680    0.4840   22.6240 C   0  0  0  0  0  0  0  0  0  0  0  0
   11.6520   -1.1420   22.1450 C   0  0  0  0  0  0  0  0  0  0  0  0
    5.5330    1.3060   17.5390 C   0  0  0  0  0  0  0  0  0  0  0  0
    7.2400   -0.0390   18.2610 C   0  0  0  0  0  0  0  0  0  0  0  0
   13.5177    5.2402   24.4013 C   0  0  0  0  0  0  0  0  0  0  0  0
   12.7666    2.6902   23.5208 C   0  0  0  0  0  0  0  0  0  0  0  0
   12.3850    1.3610   23.0530 C   0  0  0  0  0  0  0  0  0  0  0  0
    5.6260    0.7590   19.8690 C   0  0  0  0  0  0  0  0  0  0  0  0
   10.6720   -0.2500   22.5660 C   0  0  0  0  0  0  0  0  0  0  0  0
   12.3868    4.5990   24.9115 C   0  0  0  0  0  0  0  0  0  0  0  0
    6.7930    0.0210   19.5790 C   0  0  0  0  0  0  0  0  0  0  0  0
   12.9770   -0.7640   22.1810 C   0  0  0  0  0  0  0  0  0  0  0  0
   12.5557    6.6006   25.9289 C   0  0  0  0  0  0  0  0  0  0  0  0
    8.6020    0.1230   21.2070 C   0  0  0  0  0  0  0  0  0  0  0  0
    5.0980    0.9060   21.2740 C   0  0  0  0  0  0  0  0  0  0  0  0
    9.2100   -0.5900   22.3990 C   0  0  0  0  0  0  0  0  0  0  0  0
   12.1686    7.6832   26.8522 C   0  0  0  0  0  0  0  0  0  0  0  0
    6.6320    0.5940   17.2520 N   0  0  0  0  0  0  0  0  0  0  0  0
   11.8228    5.4479   25.8369 N   0  0  0  0  0  0  0  0  0  0  0  0
    7.5630   -0.5230   20.6330 N   0  0  0  0  0  0  0  0  0  0  0  0
    9.0150    1.2120   20.8220 O   0  0  0  0  0  0  0  0  0  0  0  0
   13.0054    8.7712   26.8286 F   0  0  0  0  0  0  0  0  0  0  0  0
   10.9221    8.2071   26.6153 F   0  0  0  0  0  0  0  0  0  0  0  0
   12.1405    7.2908   28.1660 F   0  0  0  0  0  0  0  0  0  0  0  0
   14.1940   -1.9100   21.6990 Cl  0  0  0  0  0  0  0  0  0  0  0  0
   15.1749    5.0481   23.0053 H   0  0  0  0  0  0  0  0  0  0  0  0
   14.5024    2.8052   22.2386 H   0  0  0  0  0  0  0  0  0  0  0  0
    4.0894    1.9955   18.9731 H   0  0  0  0  0  0  0  0  0  0  0  0
   14.3719    7.2555   24.8951 H   0  0  0  0  0  0  0  0  0  0  0  0
   10.2869    1.6872   23.4130 H   0  0  0  0  0  0  0  0  0  0  0  0
   11.1014    2.8562   24.9103 H   0  0  0  0  0  0  0  0  0  0  0  0
   14.4085    0.7689   22.6365 H   0  0  0  0  0  0  0  0  0  0  0  0
   11.3634   -2.1298   21.7910 H   0  0  0  0  0  0  0  0  0  0  0  0
    5.0712    1.8129   16.6995 H   0  0  0  0  0  0  0  0  0  0  0  0
    8.1159   -0.6122   17.9919 H   0  0  0  0  0  0  0  0  0  0  0  0
    4.0893    1.3347   21.2577 H   0  0  0  0  0  0  0  0  0  0  0  0
    5.0577   -0.0635   21.7857 H   0  0  0  0  0  0  0  0  0  0  0  0
    5.7452    1.5573   21.8744 H   0  0  0  0  0  0  0  0  0  0  0  0
    9.0901   -1.6664   22.2639 H   0  0  0  0  0  0  0  0  0  0  0  0
    8.6579   -0.3097   23.2977 H   0  0  0  0  0  0  0  0  0  0  0  0
   10.9872    5.2461   26.3688 H   0  0  0  0  0  0  0  0  0  0  0  0
    7.3129   -1.4300   20.9567 H   0  0  0  0  0  0  0  0  0  0  0  0
  1  2  2  0  0  0  0
  1 11  1  0  0  0  0
  2 12  1  0  0  0  0
  3  9  2  0  0  0  0
  3 14  1  0  0  0  0
  4 11  1  0  0  0  0
  4 19  2  0  0  0  0
  5 13  1  0  0  0  0
  5 15  2  0  0  0  0
  6 12  2  0  0  0  0
  6 16  1  0  0  0  0
  7 13  2  0  0  0  0
  7 18  1  0  0  0  0
  8 15  1  0  0  0  0
  8 18  2  0  0  0  0
  9 24  1  0  0  0  0
 10 17  1  0  0  0  0
 10 24  2  0  0  0  0
 11 16  2  0  0  0  0
 12 13  1  0  0  0  0
 14 17  2  0  0  0  0
 14 21  1  0  0  0  0
 15 22  1  0  0  0  0
 16 25  1  0  0  0  0
 17 26  1  0  0  0  0
 18 31  1  0  0  0  0
 19 23  1  0  0  0  0
 19 25  1  0  0  0  0
 20 22  1  0  0  0  0
 20 26  1  0  0  0  0
 20 27  2  0  0  0  0
 23 28  1  0  0  0  0
 23 29  1  0  0  0  0
 23 30  1  0  0  0  0
  1 32  1  0  0  0  0
  2 33  1  0  0  0  0
  3 34  1  0  0  0  0
  4 35  1  0  0  0  0
  5 36  1  0  0  0  0
  6 37  1  0  0  0  0
  7 38  1  0  0  0  0
  8 39  1  0  0  0  0
  9 40  1  0  0  0  0
 10 41  1  0  0  0  0
 21 42  1  0  0  0  0
 21 43  1  0  0  0  0
 21 44  1  0  0  0  0
 22 45  1  0  0  0  0
 22 46  1  0  0  0  0
 25 47  1  0  0  0  0
 26 48  1  0  0  0  0
M  END
> <BB_SMILES>
CC1(C)OB(c2ccc3cc(C(F)(F)F)[nH]c3c2)OC1(C)C

> <scaffold_SMILES>
Cc1ccncc1NC(=O)Cc1cc(Cl)cc(Br)c1

$$$$
EN300-360147
  -OEChem-07272002243D

 40 42  0     0  0  0  0  0  0999 V2000
    5.0000    1.4070   18.8080 C   0  0  0  0  0  0  0  0  0  0  0  0
   11.0490    1.0010   23.0460 C   0  0  0  0  0  0  0  0  0  0  0  0
   13.3680    0.4840   22.6240 C   0  0  0  0  0  0  0  0  0  0  0  0
   11.6520   -1.1420   22.1450 C   0  0  0  0  0  0  0  0  0  0  0  0
    5.5330    1.3060   17.5390 C   0  0  0  0  0  0  0  0  0  0  0  0
    7.2400   -0.0390   18.2610 C   0  0  0  0  0  0  0  0  0  0  0  0
   12.3850    1.3610   23.0530 C   0  0  0  0  0  0  0  0  0  0  0  0
    5.6260    0.7590   19.8690 C   0  0  0  0  0  0  0  0  0  0  0  0
   10.6720   -0.2500   22.5660 C   0  0  0  0  0  0  0  0  0  0  0  0
    6.7930    0.0210   19.5790 C   0  0  0  0  0  0  0  0  0  0  0  0
   12.9770   -0.7640   22.1810 C   0  0  0  0  0  0  0  0  0  0  0  0
   12.7637    2.6791   23.5184 C   0  0  0  0  0  0  0  0  0  0  0  0
   13.4251    3.5945   22.7267 C   0  0  0  0  0  0  0  0  0  0  0  0
   12.9250    4.3151   24.9702 C   0  0  0  0  0  0  0  0  0  0  0  0
    8.6020    0.1230   21.2070 C   0  0  0  0  0  0  0  0  0  0  0  0
    5.0980    0.9060   21.2740 C   0  0  0  0  0  0  0  0  0  0  0  0
   13.8856    3.4995   21.3251 C   0  0  0  0  0  0  0  0  0  0  0  0
    9.2100   -0.5900   22.3990 C   0  0  0  0  0  0  0  0  0  0  0  0
    6.6320    0.5940   17.2520 N   0  0  0  0  0  0  0  0  0  0  0  0
   12.4765    3.0904   24.8053 N   0  0  0  0  0  0  0  0  0  0  0  0
    7.5630   -0.5230   20.6330 N   0  0  0  0  0  0  0  0  0  0  0  0
    9.0150    1.2120   20.8220 O   0  0  0  0  0  0  0  0  0  0  0  0
   13.7020    5.0328   23.6188 S   0  0  0  0  0  0  0  0  0  0  0  0
   14.1940   -1.9100   21.6990 Cl  0  0  0  0  0  0  0  0  0  0  0  0
   12.7261    5.2448   26.6269 Br  0  0  0  0  0  0  0  0  0  0  0  0
    4.0894    1.9955   18.9731 H   0  0  0  0  0  0  0  0  0  0  0  0
   10.2867    1.6869   23.4134 H   0  0  0  0  0  0  0  0  0  0  0  0
   14.4087    0.7684   22.6364 H   0  0  0  0  0  0  0  0  0  0  0  0
   11.3634   -2.1302   21.7917 H   0  0  0  0  0  0  0  0  0  0  0  0
    5.0712    1.8129   16.6995 H   0  0  0  0  0  0  0  0  0  0  0  0
    8.1159   -0.6122   17.9919 H   0  0  0  0  0  0  0  0  0  0  0  0
    4.4452    1.7837   21.3445 H   0  0  0  0  0  0  0  0  0  0  0  0
    4.5267    0.0201   21.5774 H   0  0  0  0  0  0  0  0  0  0  0  0
    5.9169    1.0203   21.9951 H   0  0  0  0  0  0  0  0  0  0  0  0
   13.1064    3.8476   20.6288 H   0  0  0  0  0  0  0  0  0  0  0  0
   14.7907    4.1036   21.1475 H   0  0  0  0  0  0  0  0  0  0  0  0
   14.1481    2.4651   21.0475 H   0  0  0  0  0  0  0  0  0  0  0  0
    9.0901   -1.6664   22.2639 H   0  0  0  0  0  0  0  0  0  0  0  0
    8.6579   -0.3097   23.2977 H   0  0  0  0  0  0  0  0  0  0  0  0
    7.3129   -1.4300   20.9567 H   0  0  0  0  0  0  0  0  0  0  0  0
  1  5  2  0  0  0  0
  1  8  1  0  0  0  0
  2  7  1  0  0  0  0
  2  9  2  0  0  0  0
  3  7  2  0  0  0  0
  3 11  1  0  0  0  0
  4  9  1  0  0  0  0
  4 11  2  0  0  0  0
  5 19  1  0  0  0  0
  6 10  1  0  0  0  0
  6 19  2  0  0  0  0
  7 12  1  0  0  0  0
  8 10  2  0  0  0  0
  8 16  1  0  0  0  0
  9 18  1  0  0  0  0
 10 21  1  0  0  0  0
 11 24  1  0  0  0  0
 12 13  2  0  0  0  0
 12 20  1  0  0  0  0
 13 17  1  0  0  0  0
 13 23  1  0  0  0  0
 14 20  2  0  0  0  0
 14 23  1  0  0  0  0
 14 25  1  0  0  0  0
 15 18  1  0  0  0  0
 15 21  1  0  0  0  0
 15 22  2  0  0  0  0
  1 26  1  0  0  0  0
  2 27  1  0  0  0  0
  3 28  1  0  0  0  0
  4 29  1  0  0  0  0
  5 30  1  0  0  0  0
  6 31  1  0  0  0  0
 16 32  1  0  0  0  0
 16 33  1  0  0  0  0
 16 34  1  0  0  0  0
 17 35  1  0  0  0  0
 17 36  1  0  0  0  0
 17 37  1  0  0  0  0
 18 38  1  0  0  0  0
 18 39  1  0  0  0  0
 21 40  1  0  0  0  0
M  END
> <BB_SMILES>
Cc1sc(Br)nc1B(O)O

> <scaffold_SMILES>
Cc1ccncc1NC(=O)Cc1cc(Cl)cc(Br)c1

$$$$
EN300-360156
  -OEChem-07272002243D

 46 47  0     1  0  0  0  0  0999 V2000
    5.0000    1.4070   18.8080 C   0  0  0  0  0  0  0  0  0  0  0  0
   11.0490    1.0010   23.0460 C   0  0  0  0  0  0  0  0  0  0  0  0
   11.6520   -1.1420   22.1450 C   0  0  0  0  0  0  0  0  0  0  0  0
   13.3680    0.4840   22.6240 C   0  0  0  0  0  0  0  0  0  0  0  0
    5.5330    1.3060   17.5390 C   0  0  0  0  0  0  0  0  0  0  0  0
    7.2400   -0.0390   18.2610 C   0  0  0  0  0  0  0  0  0  0  0  0
    5.6260    0.7590   19.8690 C   0  0  0  0  0  0  0  0  0  0  0  0
   10.6720   -0.2500   22.5660 C   0  0  0  0  0  0  0  0  0  0  0  0
   12.3850    1.3610   23.0530 C   0  0  0  0  0  0  0  0  0  0  0  0
    6.7930    0.0210   19.5790 C   0  0  0  0  0  0  0  0  0  0  0  0
   12.9770   -0.7640   22.1810 C   0  0  0  0  0  0  0  0  0  0  0  0
    8.6020    0.1230   21.2070 C   0  0  0  0  0  0  0  0  0  0  0  0
    5.0980    0.9060   21.2740 C   0  0  0  0  0  0  0  0  0  0  0  0
   13.5726    3.5023   22.4635 C   0  0  0  0  0  0  0  0  0  0  0  0
    9.2100   -0.5900   22.3990 C   0  0  0  0  0  0  0  0  0  0  0  0
   11.5833    3.6082   24.0060 C   0  0  0  0  0  0  0  0  0  0  0  0
   11.9919    5.0033   24.4886 C   0  0  0  0  0  0  0  0  0  0  0  0
   12.7845    2.7546   23.5460 C   0  0  1  0  0  0  0  0  0  0  0  0
   10.7858    5.8281   24.8950 C   0  0  0  0  0  0  0  0  0  0  0  0
    6.6320    0.5940   17.2520 N   0  0  0  0  0  0  0  0  0  0  0  0
    7.5630   -0.5230   20.6330 N   0  0  0  0  0  0  0  0  0  0  0  0
    9.0150    1.2120   20.8220 O   0  0  0  0  0  0  0  0  0  0  0  0
    9.9723    6.0125   23.8260 F   0  0  0  0  0  0  0  0  0  0  0  0
   11.1977    7.0601   25.2865 F   0  0  0  0  0  0  0  0  0  0  0  0
   14.1940   -1.9100   21.6990 Cl  0  0  0  0  0  0  0  0  0  0  0  0
    4.0894    1.9955   18.9731 H   0  0  0  0  0  0  0  0  0  0  0  0
   10.2920    1.6914   23.4138 H   0  0  0  0  0  0  0  0  0  0  0  0
   11.3638   -2.1302   21.7909 H   0  0  0  0  0  0  0  0  0  0  0  0
   14.4063    0.7746   22.6384 H   0  0  0  0  0  0  0  0  0  0  0  0
    5.0712    1.8129   16.6995 H   0  0  0  0  0  0  0  0  0  0  0  0
    8.1159   -0.6122   17.9919 H   0  0  0  0  0  0  0  0  0  0  0  0
    5.3035    1.9136   21.6535 H   0  0  0  0  0  0  0  0  0  0  0  0
    4.0155    0.7325   21.3107 H   0  0  0  0  0  0  0  0  0  0  0  0
    5.5614    0.1765   21.9498 H   0  0  0  0  0  0  0  0  0  0  0  0
   12.9750    3.6618   21.5592 H   0  0  0  0  0  0  0  0  0  0  0  0
   13.9013    4.4833   22.8245 H   0  0  0  0  0  0  0  0  0  0  0  0
   14.4654    2.9363   22.1764 H   0  0  0  0  0  0  0  0  0  0  0  0
    9.0902   -1.6664   22.2639 H   0  0  0  0  0  0  0  0  0  0  0  0
    8.6579   -0.3097   23.2977 H   0  0  0  0  0  0  0  0  0  0  0  0
   11.0786    3.0891   24.8315 H   0  0  0  0  0  0  0  0  0  0  0  0
   10.8437    3.7007   23.2010 H   0  0  0  0  0  0  0  0  0  0  0  0
   12.6796    4.9268   25.3385 H   0  0  0  0  0  0  0  0  0  0  0  0
   12.5261    5.5371   23.6948 H   0  0  0  0  0  0  0  0  0  0  0  0
   13.4581    2.6417   24.4065 H   0  0  0  0  0  0  0  0  0  0  0  0
   10.2120    5.3733   25.7072 H   0  0  0  0  0  0  0  0  0  0  0  0
    7.3129   -1.4300   20.9567 H   0  0  0  0  0  0  0  0  0  0  0  0
  1  5  2  0  0  0  0
  1  7  1  0  0  0  0
  2  8  2  0  0  0  0
  2  9  1  0  0  0  0
  3  8  1  0  0  0  0
  3 11  2  0  0  0  0
  4  9  2  0  0  0  0
  4 11  1  0  0  0  0
  5 20  1  0  0  0  0
  6 10  1  0  0  0  0
  6 20  2  0  0  0  0
  7 10  2  0  0  0  0
  7 13  1  0  0  0  0
  8 15  1  0  0  0  0
  9 18  1  0  0  0  0
 10 21  1  0  0  0  0
 11 25  1  0  0  0  0
 12 15  1  0  0  0  0
 12 21  1  0  0  0  0
 12 22  2  0  0  0  0
 14 18  1  1  0  0  0
 16 17  1  0  0  0  0
 16 18  1  0  0  0  0
 17 19  1  0  0  0  0
 19 23  1  0  0  0  0
 19 24  1  0  0  0  0
  1 26  1  0  0  0  0
  2 27  1  0  0  0  0
  3 28  1  0  0  0  0
  4 29  1  0  0  0  0
  5 30  1  0  0  0  0
  6 31  1  0  0  0  0
 13 32  1  0  0  0  0
 13 33  1  0  0  0  0
 13 34  1  0  0  0  0
 14 35  1  0  0  0  0
 14 36  1  0  0  0  0
 14 37  1  0  0  0  0
 15 38  1  0  0  0  0
 15 39  1  0  0  0  0
 16 40  1  0  0  0  0
 16 41  1  0  0  0  0
 17 42  1  0  0  0  0
 17 43  1  0  0  0  0
 18 44  1  0  0  0  0
 19 45  1  0  0  0  0
 21 46  1  0  0  0  0
M  END
> <BB_SMILES>
CC(CCC(F)F)B(O)O

> <scaffold_SMILES>
Cc1ccncc1NC(=O)Cc1cc(Cl)cc(Br)c1

$$$$
EN300-360156
  -OEChem-07272002243D

 46 47  0     1  0  0  0  0  0999 V2000
    5.0000    1.4070   18.8080 C   0  0  0  0  0  0  0  0  0  0  0  0
   11.0490    1.0010   23.0460 C   0  0  0  0  0  0  0  0  0  0  0  0
   11.6520   -1.1420   22.1450 C   0  0  0  0  0  0  0  0  0  0  0  0
   13.3680    0.4840   22.6240 C   0  0  0  0  0  0  0  0  0  0  0  0
    5.5330    1.3060   17.5390 C   0  0  0  0  0  0  0  0  0  0  0  0
    7.2400   -0.0390   18.2610 C   0  0  0  0  0  0  0  0  0  0  0  0
    5.6260    0.7590   19.8690 C   0  0  0  0  0  0  0  0  0  0  0  0
   10.6720   -0.2500   22.5660 C   0  0  0  0  0  0  0  0  0  0  0  0
   12.3850    1.3610   23.0530 C   0  0  0  0  0  0  0  0  0  0  0  0
    6.7930    0.0210   19.5790 C   0  0  0  0  0  0  0  0  0  0  0  0
   12.9770   -0.7640   22.1810 C   0  0  0  0  0  0  0  0  0  0  0  0
    8.6020    0.1230   21.2070 C   0  0  0  0  0  0  0  0  0  0  0  0
    5.0980    0.9060   21.2740 C   0  0  0  0  0  0  0  0  0  0  0  0
   12.4219    2.9237   25.0266 C   0  0  0  0  0  0  0  0  0  0  0  0
    9.2100   -0.5900   22.3990 C   0  0  0  0  0  0  0  0  0  0  0  0
   12.1670    3.8956   22.7095 C   0  0  0  0  0  0  0  0  0  0  0  0
   12.9160    4.1471   21.3973 C   0  0  0  0  0  0  0  0  0  0  0  0
   12.7845    2.7546   23.5460 C   0  0  2  0  0  0  0  0  0  0  0  0
   12.2605    5.2457   20.5828 C   0  0  0  0  0  0  0  0  0  0  0  0
    6.6320    0.5940   17.2520 N   0  0  0  0  0  0  0  0  0  0  0  0
    7.5630   -0.5230   20.6330 N   0  0  0  0  0  0  0  0  0  0  0  0
    9.0150    1.2120   20.8220 O   0  0  0  0  0  0  0  0  0  0  0  0
   12.9758    5.4709   19.4531 F   0  0  0  0  0  0  0  0  0  0  0  0
   12.2814    6.4018   21.2925 F   0  0  0  0  0  0  0  0  0  0  0  0
   14.1940   -1.9100   21.6990 Cl  0  0  0  0  0  0  0  0  0  0  0  0
    4.0894    1.9955   18.9731 H   0  0  0  0  0  0  0  0  0  0  0  0
   10.2920    1.6914   23.4138 H   0  0  0  0  0  0  0  0  0  0  0  0
   11.3638   -2.1302   21.7909 H   0  0  0  0  0  0  0  0  0  0  0  0
   14.4063    0.7746   22.6384 H   0  0  0  0  0  0  0  0  0  0  0  0
    5.0712    1.8129   16.6995 H   0  0  0  0  0  0  0  0  0  0  0  0
    8.1159   -0.6122   17.9919 H   0  0  0  0  0  0  0  0  0  0  0  0
    5.3035    1.9136   21.6535 H   0  0  0  0  0  0  0  0  0  0  0  0
    4.0155    0.7325   21.3107 H   0  0  0  0  0  0  0  0  0  0  0  0
    5.5614    0.1765   21.9498 H   0  0  0  0  0  0  0  0  0  0  0  0
   11.3425    2.8422   25.1952 H   0  0  0  0  0  0  0  0  0  0  0  0
   12.9149    2.1617   25.6408 H   0  0  0  0  0  0  0  0  0  0  0  0
   12.7424    3.9053   25.3923 H   0  0  0  0  0  0  0  0  0  0  0  0
    9.0902   -1.6664   22.2639 H   0  0  0  0  0  0  0  0  0  0  0  0
    8.6579   -0.3097   23.2977 H   0  0  0  0  0  0  0  0  0  0  0  0
   12.1882    4.8186   23.3038 H   0  0  0  0  0  0  0  0  0  0  0  0
   11.1108    3.6903   22.4953 H   0  0  0  0  0  0  0  0  0  0  0  0
   13.9580    4.4203   21.5991 H   0  0  0  0  0  0  0  0  0  0  0  0
   12.9386    3.2333   20.7931 H   0  0  0  0  0  0  0  0  0  0  0  0
   13.8767    2.8509   23.4762 H   0  0  0  0  0  0  0  0  0  0  0  0
   11.2262    5.0166   20.3119 H   0  0  0  0  0  0  0  0  0  0  0  0
    7.3129   -1.4300   20.9567 H   0  0  0  0  0  0  0  0  0  0  0  0
  1  5  2  0  0  0  0
  1  7  1  0  0  0  0
  2  8  2  0  0  0  0
  2  9  1  0  0  0  0
  3  8  1  0  0  0  0
  3 11  2  0  0  0  0
  4  9  2  0  0  0  0
  4 11  1  0  0  0  0
  5 20  1  0  0  0  0
  6 10  1  0  0  0  0
  6 20  2  0  0  0  0
  7 10  2  0  0  0  0
  7 13  1  0  0  0  0
  8 15  1  0  0  0  0
  9 18  1  0  0  0  0
 10 21  1  0  0  0  0
 11 25  1  0  0  0  0
 12 15  1  0  0  0  0
 12 21  1  0  0  0  0
 12 22  2  0  0  0  0
 14 18  1  6  0  0  0
 16 17  1  0  0  0  0
 16 18  1  0  0  0  0
 17 19  1  0  0  0  0
 19 23  1  0  0  0  0
 19 24  1  0  0  0  0
  1 26  1  0  0  0  0
  2 27  1  0  0  0  0
  3 28  1  0  0  0  0
  4 29  1  0  0  0  0
  5 30  1  0  0  0  0
  6 31  1  0  0  0  0
 13 32  1  0  0  0  0
 13 33  1  0  0  0  0
 13 34  1  0  0  0  0
 14 35  1  0  0  0  0
 14 36  1  0  0  0  0
 14 37  1  0  0  0  0
 15 38  1  0  0  0  0
 15 39  1  0  0  0  0
 16 40  1  0  0  0  0
 16 41  1  0  0  0  0
 17 42  1  0  0  0  0
 17 43  1  0  0  0  0
 18 44  1  0  0  0  0
 19 45  1  0  0  0  0
 21 46  1  0  0  0  0
M  END
> <BB_SMILES>
CC(CCC(F)F)B(O)O

> <scaffold_SMILES>
Cc1ccncc1NC(=O)Cc1cc(Cl)cc(Br)c1

$$$$
EN300-361197
  -OEChem-07272002243D

 47 50  0     0  0  0  0  0  0999 V2000
    5.0000    1.4070   18.8080 C   0  0  0  0  0  0  0  0  0  0  0  0
   11.0490    1.0010   23.0460 C   0  0  0  0  0  0  0  0  0  0  0  0
   13.3680    0.4840   22.6240 C   0  0  0  0  0  0  0  0  0  0  0  0
   11.6520   -1.1420   22.1450 C   0  0  0  0  0  0  0  0  0  0  0  0
   12.5730    3.2825   24.7419 C   0  0  0  0  0  0  0  0  0  0  0  0
    5.5330    1.3060   17.5390 C   0  0  0  0  0  0  0  0  0  0  0  0
   13.6902    6.5250   27.5775 C   0  0  0  0  0  0  0  0  0  0  0  0
    7.2400   -0.0390   18.2610 C   0  0  0  0  0  0  0  0  0  0  0  0
   13.0005    7.5752   27.0087 C   0  0  0  0  0  0  0  0  0  0  0  0
   12.3850    1.3610   23.0530 C   0  0  0  0  0  0  0  0  0  0  0  0
    5.6260    0.7590   19.8690 C   0  0  0  0  0  0  0  0  0  0  0  0
   10.6720   -0.2500   22.5660 C   0  0  0  0  0  0  0  0  0  0  0  0
    6.7930    0.0210   19.5790 C   0  0  0  0  0  0  0  0  0  0  0  0
   12.9770   -0.7640   22.1810 C   0  0  0  0  0  0  0  0  0  0  0  0
   13.1490    4.5597   24.6041 C   0  0  0  0  0  0  0  0  0  0  0  0
   12.7645    2.6858   23.5197 C   0  0  0  0  0  0  0  0  0  0  0  0
   13.1995    5.5937   25.6536 C   0  0  0  0  0  0  0  0  0  0  0  0
    8.6020    0.1230   21.2070 C   0  0  0  0  0  0  0  0  0  0  0  0
    5.0980    0.9060   21.2740 C   0  0  0  0  0  0  0  0  0  0  0  0
   13.8476    3.4553   21.3821 C   0  0  0  0  0  0  0  0  0  0  0  0
    9.2100   -0.5900   22.3990 C   0  0  0  0  0  0  0  0  0  0  0  0
    6.6320    0.5940   17.2520 N   0  0  0  0  0  0  0  0  0  0  0  0
   13.8050    5.3878   26.8021 N   0  0  0  0  0  0  0  0  0  0  0  0
   13.6676    4.7632   23.3902 N   0  0  0  0  0  0  0  0  0  0  0  0
   13.4183    3.6059   22.7540 N   0  0  0  0  0  0  0  0  0  0  0  0
    7.5630   -0.5230   20.6330 N   0  0  0  0  0  0  0  0  0  0  0  0
    9.0150    1.2120   20.8220 O   0  0  0  0  0  0  0  0  0  0  0  0
   12.4712    7.1326   25.4386 S   0  0  0  0  0  0  0  0  0  0  0  0
   14.1940   -1.9100   21.6990 Cl  0  0  0  0  0  0  0  0  0  0  0  0
    4.0894    1.9955   18.9731 H   0  0  0  0  0  0  0  0  0  0  0  0
   10.2872    1.6875   23.4133 H   0  0  0  0  0  0  0  0  0  0  0  0
   14.4086    0.7688   22.6369 H   0  0  0  0  0  0  0  0  0  0  0  0
   11.3634   -2.1302   21.7918 H   0  0  0  0  0  0  0  0  0  0  0  0
   12.0864    2.8535   25.6070 H   0  0  0  0  0  0  0  0  0  0  0  0
    5.0712    1.8129   16.6995 H   0  0  0  0  0  0  0  0  0  0  0  0
   14.1319    6.5379   28.5648 H   0  0  0  0  0  0  0  0  0  0  0  0
    8.1159   -0.6122   17.9919 H   0  0  0  0  0  0  0  0  0  0  0  0
   12.7907    8.5492   27.4264 H   0  0  0  0  0  0  0  0  0  0  0  0
    4.4460    1.7843   21.3447 H   0  0  0  0  0  0  0  0  0  0  0  0
    4.5259    0.0205   21.5771 H   0  0  0  0  0  0  0  0  0  0  0  0
    5.9169    1.0193   21.9952 H   0  0  0  0  0  0  0  0  0  0  0  0
   13.0352    3.7967   20.7351 H   0  0  0  0  0  0  0  0  0  0  0  0
   14.7472    4.0540   21.2143 H   0  0  0  0  0  0  0  0  0  0  0  0
   14.0760    2.4036   21.1883 H   0  0  0  0  0  0  0  0  0  0  0  0
    9.0901   -1.6664   22.2639 H   0  0  0  0  0  0  0  0  0  0  0  0
    8.6579   -0.3097   23.2977 H   0  0  0  0  0  0  0  0  0  0  0  0
    7.3129   -1.4300   20.9567 H   0  0  0  0  0  0  0  0  0  0  0  0
  1  6  2  0  0  0  0
  1 11  1  0  0  0  0
  2 10  1  0  0  0  0
  2 12  2  0  0  0  0
  3 10  2  0  0  0  0
  3 14  1  0  0  0  0
  4 12  1  0  0  0  0
  4 14  2  0  0  0  0
  5 15  1  0  0  0  0
  5 16  2  0  0  0  0
  6 22  1  0  0  0  0
  7  9  2  0  0  0  0
  7 23  1  0  0  0  0
  8 13  1  0  0  0  0
  8 22  2  0  0  0  0
  9 28  1  0  0  0  0
 10 16  1  0  0  0  0
 11 13  2  0  0  0  0
 11 19  1  0  0  0  0
 12 21  1  0  0  0  0
 13 26  1  0  0  0  0
 14 29  1  0  0  0  0
 15 17  1  0  0  0  0
 15 24  2  0  0  0  0
 16 25  1  0  0  0  0
 17 23  2  0  0  0  0
 17 28  1  0  0  0  0
 18 21  1  0  0  0  0
 18 26  1  0  0  0  0
 18 27  2  0  0  0  0
 20 25  1  0  0  0  0
 24 25  1  0  0  0  0
  1 30  1  0  0  0  0
  2 31  1  0  0  0  0
  3 32  1  0  0  0  0
  4 33  1  0  0  0  0
  5 34  1  0  0  0  0
  6 35  1  0  0  0  0
  7 36  1  0  0  0  0
  8 37  1  0  0  0  0
  9 38  1  0  0  0  0
 19 39  1  0  0  0  0
 19 40  1  0  0  0  0
 19 41  1  0  0  0  0
 20 42  1  0  0  0  0
 20 43  1  0  0  0  0
 20 44  1  0  0  0  0
 21 45  1  0  0  0  0
 21 46  1  0  0  0  0
 26 47  1  0  0  0  0
M  END
> <BB_SMILES>
Cn1nc(-c2nccs2)cc1B1OC(C)(C)C(C)(C)O1

> <scaffold_SMILES>
Cc1ccncc1NC(=O)Cc1cc(Cl)cc(Br)c1

$$$$
EN300-378670
  -OEChem-07272002243D

 38 40  0     0  0  0  0  0  0999 V2000
   13.9645    3.3447   23.6535 C   0  0  0  0  0  0  0  0  0  0  0  0
   13.6542    4.6254   24.1699 C   0  0  0  0  0  0  0  0  0  0  0  0
    5.0000    1.4070   18.8080 C   0  0  0  0  0  0  0  0  0  0  0  0
   11.0490    1.0010   23.0460 C   0  0  0  0  0  0  0  0  0  0  0  0
   13.3680    0.4840   22.6240 C   0  0  0  0  0  0  0  0  0  0  0  0
   11.6520   -1.1420   22.1450 C   0  0  0  0  0  0  0  0  0  0  0  0
    5.5330    1.3060   17.5390 C   0  0  0  0  0  0  0  0  0  0  0  0
    7.2400   -0.0390   18.2610 C   0  0  0  0  0  0  0  0  0  0  0  0
   12.3850    1.3610   23.0530 C   0  0  0  0  0  0  0  0  0  0  0  0
    5.6260    0.7590   19.8690 C   0  0  0  0  0  0  0  0  0  0  0  0
   10.6720   -0.2500   22.5660 C   0  0  0  0  0  0  0  0  0  0  0  0
    6.7930    0.0210   19.5790 C   0  0  0  0  0  0  0  0  0  0  0  0
   12.9770   -0.7640   22.1810 C   0  0  0  0  0  0  0  0  0  0  0  0
   12.7645    2.6858   23.5197 C   0  0  0  0  0  0  0  0  0  0  0  0
   12.2867    4.6580   24.3146 C   0  0  0  0  0  0  0  0  0  0  0  0
    8.6020    0.1230   21.2070 C   0  0  0  0  0  0  0  0  0  0  0  0
    5.0980    0.9060   21.2740 C   0  0  0  0  0  0  0  0  0  0  0  0
    9.2100   -0.5900   22.3990 C   0  0  0  0  0  0  0  0  0  0  0  0
    6.6320    0.5940   17.2520 N   0  0  0  0  0  0  0  0  0  0  0  0
    7.5630   -0.5230   20.6330 N   0  0  0  0  0  0  0  0  0  0  0  0
    9.0150    1.2120   20.8220 O   0  0  0  0  0  0  0  0  0  0  0  0
   11.7368    3.4795   23.9204 O   0  0  0  0  0  0  0  0  0  0  0  0
   11.5919    5.7009   24.7777 F   0  0  0  0  0  0  0  0  0  0  0  0
   14.1940   -1.9100   21.6990 Cl  0  0  0  0  0  0  0  0  0  0  0  0
   14.9432    2.9553   23.4109 H   0  0  0  0  0  0  0  0  0  0  0  0
   14.3415    5.4246   24.4068 H   0  0  0  0  0  0  0  0  0  0  0  0
    4.0894    1.9955   18.9731 H   0  0  0  0  0  0  0  0  0  0  0  0
   10.2872    1.6875   23.4133 H   0  0  0  0  0  0  0  0  0  0  0  0
   14.4086    0.7688   22.6369 H   0  0  0  0  0  0  0  0  0  0  0  0
   11.3634   -2.1302   21.7918 H   0  0  0  0  0  0  0  0  0  0  0  0
    5.0712    1.8129   16.6995 H   0  0  0  0  0  0  0  0  0  0  0  0
    8.1159   -0.6122   17.9919 H   0  0  0  0  0  0  0  0  0  0  0  0
    4.4460    1.7843   21.3447 H   0  0  0  0  0  0  0  0  0  0  0  0
    4.5259    0.0205   21.5771 H   0  0  0  0  0  0  0  0  0  0  0  0
    5.9169    1.0193   21.9952 H   0  0  0  0  0  0  0  0  0  0  0  0
    9.0901   -1.6664   22.2639 H   0  0  0  0  0  0  0  0  0  0  0  0
    8.6579   -0.3097   23.2977 H   0  0  0  0  0  0  0  0  0  0  0  0
    7.3129   -1.4300   20.9567 H   0  0  0  0  0  0  0  0  0  0  0  0
  1  2  1  0  0  0  0
  1 14  2  0  0  0  0
  2 15  2  0  0  0  0
  3  7  2  0  0  0  0
  3 10  1  0  0  0  0
  4  9  1  0  0  0  0
  4 11  2  0  0  0  0
  5  9  2  0  0  0  0
  5 13  1  0  0  0  0
  6 11  1  0  0  0  0
  6 13  2  0  0  0  0
  7 19  1  0  0  0  0
  8 12  1  0  0  0  0
  8 19  2  0  0  0  0
  9 14  1  0  0  0  0
 10 12  2  0  0  0  0
 10 17  1  0  0  0  0
 11 18  1  0  0  0  0
 12 20  1  0  0  0  0
 13 24  1  0  0  0  0
 14 22  1  0  0  0  0
 15 22  1  0  0  0  0
 15 23  1  0  0  0  0
 16 18  1  0  0  0  0
 16 20  1  0  0  0  0
 16 21  2  0  0  0  0
  1 25  1  0  0  0  0
  2 26  1  0  0  0  0
  3 27  1  0  0  0  0
  4 28  1  0  0  0  0
  5 29  1  0  0  0  0
  6 30  1  0  0  0  0
  7 31  1  0  0  0  0
  8 32  1  0  0  0  0
 17 33  1  0  0  0  0
 17 34  1  0  0  0  0
 17 35  1  0  0  0  0
 18 36  1  0  0  0  0
 18 37  1  0  0  0  0
 20 38  1  0  0  0  0
M  END
> <BB_SMILES>
CC1(C)OB(c2ccc(F)o2)OC1(C)C

> <scaffold_SMILES>
Cc1ccncc1NC(=O)Cc1cc(Cl)cc(Br)c1

$$$$
EN300-378243
  -OEChem-07272002243D

 44 45  0     0  0  0  0  0  0999 V2000
    5.0000    1.4070   18.8080 C   0  0  0  0  0  0  0  0  0  0  0  0
   11.0490    1.0010   23.0460 C   0  0  0  0  0  0  0  0  0  0  0  0
   11.6520   -1.1420   22.1450 C   0  0  0  0  0  0  0  0  0  0  0  0
   13.3680    0.4840   22.6240 C   0  0  0  0  0  0  0  0  0  0  0  0
    5.5330    1.3060   17.5390 C   0  0  0  0  0  0  0  0  0  0  0  0
    7.2400   -0.0390   18.2610 C   0  0  0  0  0  0  0  0  0  0  0  0
    5.6260    0.7590   19.8690 C   0  0  0  0  0  0  0  0  0  0  0  0
   10.6720   -0.2500   22.5660 C   0  0  0  0  0  0  0  0  0  0  0  0
   12.3850    1.3610   23.0530 C   0  0  0  0  0  0  0  0  0  0  0  0
    6.7930    0.0210   19.5790 C   0  0  0  0  0  0  0  0  0  0  0  0
   12.9770   -0.7640   22.1810 C   0  0  0  0  0  0  0  0  0  0  0  0
    8.6020    0.1230   21.2070 C   0  0  0  0  0  0  0  0  0  0  0  0
    5.0980    0.9060   21.2740 C   0  0  0  0  0  0  0  0  0  0  0  0
   13.7074    7.3380   22.5745 C   0  0  0  0  0  0  0  0  0  0  0  0
    9.2100   -0.5900   22.3990 C   0  0  0  0  0  0  0  0  0  0  0  0
   12.7773    2.7295   23.5372 C   0  0  0  0  0  0  0  0  0  0  0  0
   13.2635    6.0329   21.9489 C   0  0  0  0  0  0  0  0  0  0  0  0
   12.8084    3.7764   22.4218 C   0  0  0  0  0  0  0  0  0  0  0  0
    6.6320    0.5940   17.2520 N   0  0  0  0  0  0  0  0  0  0  0  0
    7.5630   -0.5230   20.6330 N   0  0  0  0  0  0  0  0  0  0  0  0
    9.0150    1.2120   20.8220 O   0  0  0  0  0  0  0  0  0  0  0  0
   13.2206    5.0290   22.9536 O   0  0  0  0  0  0  0  0  0  0  0  0
   14.1940   -1.9100   21.6990 Cl  0  0  0  0  0  0  0  0  0  0  0  0
    4.0894    1.9955   18.9731 H   0  0  0  0  0  0  0  0  0  0  0  0
   10.2920    1.6914   23.4138 H   0  0  0  0  0  0  0  0  0  0  0  0
   11.3638   -2.1302   21.7909 H   0  0  0  0  0  0  0  0  0  0  0  0
   14.4063    0.7746   22.6384 H   0  0  0  0  0  0  0  0  0  0  0  0
    5.0712    1.8129   16.6995 H   0  0  0  0  0  0  0  0  0  0  0  0
    8.1159   -0.6122   17.9919 H   0  0  0  0  0  0  0  0  0  0  0  0
    4.7841   -0.0685   21.6656 H   0  0  0  0  0  0  0  0  0  0  0  0
    5.8614    1.3222   21.9428 H   0  0  0  0  0  0  0  0  0  0  0  0
    4.2397    1.5885   21.3053 H   0  0  0  0  0  0  0  0  0  0  0  0
   13.0091    7.6543   23.3543 H   0  0  0  0  0  0  0  0  0  0  0  0
   14.7052    7.2358   23.0137 H   0  0  0  0  0  0  0  0  0  0  0  0
   13.7722    8.1265   21.8174 H   0  0  0  0  0  0  0  0  0  0  0  0
    9.0902   -1.6664   22.2639 H   0  0  0  0  0  0  0  0  0  0  0  0
    8.6579   -0.3097   23.2977 H   0  0  0  0  0  0  0  0  0  0  0  0
   12.0861    3.0640   24.3265 H   0  0  0  0  0  0  0  0  0  0  0  0
   13.7740    2.6847   24.0023 H   0  0  0  0  0  0  0  0  0  0  0  0
   13.9661    5.7222   21.1699 H   0  0  0  0  0  0  0  0  0  0  0  0
   12.2661    6.1365   21.5113 H   0  0  0  0  0  0  0  0  0  0  0  0
   13.5303    3.4853   21.6520 H   0  0  0  0  0  0  0  0  0  0  0  0
   11.8254    3.8974   21.9547 H   0  0  0  0  0  0  0  0  0  0  0  0
    7.3129   -1.4300   20.9567 H   0  0  0  0  0  0  0  0  0  0  0  0
  1  5  2  0  0  0  0
  1  7  1  0  0  0  0
  2  8  1  0  0  0  0
  2  9  2  0  0  0  0
  3  8  2  0  0  0  0
  3 11  1  0  0  0  0
  4  9  1  0  0  0  0
  4 11  2  0  0  0  0
  5 19  1  0  0  0  0
  6 10  1  0  0  0  0
  6 19  2  0  0  0  0
  7 10  2  0  0  0  0
  7 13  1  0  0  0  0
  8 15  1  0  0  0  0
  9 16  1  0  0  0  0
 10 20  1  0  0  0  0
 11 23  1  0  0  0  0
 12 15  1  0  0  0  0
 12 20  1  0  0  0  0
 12 21  2  0  0  0  0
 14 17  1  0  0  0  0
 16 18  1  0  0  0  0
 17 22  1  0  0  0  0
 18 22  1  0  0  0  0
  1 24  1  0  0  0  0
  2 25  1  0  0  0  0
  3 26  1  0  0  0  0
  4 27  1  0  0  0  0
  5 28  1  0  0  0  0
  6 29  1  0  0  0  0
 13 30  1  0  0  0  0
 13 31  1  0  0  0  0
 13 32  1  0  0  0  0
 14 33  1  0  0  0  0
 14 34  1  0  0  0  0
 14 35  1  0  0  0  0
 15 36  1  0  0  0  0
 15 37  1  0  0  0  0
 16 38  1  0  0  0  0
 16 39  1  0  0  0  0
 17 40  1  0  0  0  0
 17 41  1  0  0  0  0
 18 42  1  0  0  0  0
 18 43  1  0  0  0  0
 20 44  1  0  0  0  0
M  END
> <BB_SMILES>
CCOCCB1OC(C)(C)C(C)(C)O1

> <scaffold_SMILES>
Cc1ccncc1NC(=O)Cc1cc(Cl)cc(Br)c1

$$$$
EN300-398596
  -OEChem-07272002243D

 44 46  0     0  0  0  0  0  0999 V2000
    5.0000    1.4070   18.8080 C   0  0  0  0  0  0  0  0  0  0  0  0
   11.0490    1.0010   23.0460 C   0  0  0  0  0  0  0  0  0  0  0  0
   13.3680    0.4840   22.6240 C   0  0  0  0  0  0  0  0  0  0  0  0
   11.6520   -1.1420   22.1450 C   0  0  0  0  0  0  0  0  0  0  0  0
    5.5330    1.3060   17.5390 C   0  0  0  0  0  0  0  0  0  0  0  0
    7.2400   -0.0390   18.2610 C   0  0  0  0  0  0  0  0  0  0  0  0
   12.3850    1.3610   23.0530 C   0  0  0  0  0  0  0  0  0  0  0  0
    5.6260    0.7590   19.8690 C   0  0  0  0  0  0  0  0  0  0  0  0
   10.6720   -0.2500   22.5660 C   0  0  0  0  0  0  0  0  0  0  0  0
    6.7930    0.0210   19.5790 C   0  0  0  0  0  0  0  0  0  0  0  0
   12.9770   -0.7640   22.1810 C   0  0  0  0  0  0  0  0  0  0  0  0
    8.6020    0.1230   21.2070 C   0  0  0  0  0  0  0  0  0  0  0  0
   11.4575    4.3945   22.9767 C   0  0  0  0  0  0  0  0  0  0  0  0
   12.8799    4.0005   22.5382 C   0  0  0  0  0  0  0  0  0  0  0  0
   11.7460    3.6982   24.3193 C   0  0  0  0  0  0  0  0  0  0  0  0
   12.8047    2.8235   23.5677 C   0  0  0  0  0  0  0  0  0  0  0  0
    5.0980    0.9060   21.2740 C   0  0  0  0  0  0  0  0  0  0  0  0
    9.2100   -0.5900   22.3990 C   0  0  0  0  0  0  0  0  0  0  0  0
    6.6320    0.5940   17.2520 N   0  0  0  0  0  0  0  0  0  0  0  0
    7.5630   -0.5230   20.6330 N   0  0  0  0  0  0  0  0  0  0  0  0
   14.0610    2.7145   24.3495 N   0  3  0  0  0  0  0  0  0  0  0  0
    9.0150    1.2120   20.8220 O   0  0  0  0  0  0  0  0  0  0  0  0
   14.1940   -1.9100   21.6990 Cl  0  0  0  0  0  0  0  0  0  0  0  0
    4.0894    1.9955   18.9731 H   0  0  0  0  0  0  0  0  0  0  0  0
   10.2933    1.6925   23.4141 H   0  0  0  0  0  0  0  0  0  0  0  0
   14.4055    0.7762   22.6388 H   0  0  0  0  0  0  0  0  0  0  0  0
   11.3632   -2.1298   21.7913 H   0  0  0  0  0  0  0  0  0  0  0  0
    5.0712    1.8129   16.6995 H   0  0  0  0  0  0  0  0  0  0  0  0
    8.1159   -0.6122   17.9919 H   0  0  0  0  0  0  0  0  0  0  0  0
   11.3035    5.4745   23.0620 H   0  0  0  0  0  0  0  0  0  0  0  0
   10.6454    3.9651   22.3867 H   0  0  0  0  0  0  0  0  0  0  0  0
   12.9384    3.6753   21.4961 H   0  0  0  0  0  0  0  0  0  0  0  0
   13.6474    4.7538   22.7165 H   0  0  0  0  0  0  0  0  0  0  0  0
   12.1246    4.3477   25.1086 H   0  0  0  0  0  0  0  0  0  0  0  0
   10.8954    3.1307   24.7058 H   0  0  0  0  0  0  0  0  0  0  0  0
    4.0030    0.9552   21.2650 H   0  0  0  0  0  0  0  0  0  0  0  0
    5.4049    0.0614   21.9031 H   0  0  0  0  0  0  0  0  0  0  0  0
    5.4851    1.8157   21.7496 H   0  0  0  0  0  0  0  0  0  0  0  0
    9.0901   -1.6664   22.2639 H   0  0  0  0  0  0  0  0  0  0  0  0
    8.6578   -0.3097   23.2977 H   0  0  0  0  0  0  0  0  0  0  0  0
    7.3129   -1.4300   20.9567 H   0  0  0  0  0  0  0  0  0  0  0  0
   14.8525    3.1014   23.8254 H   0  0  0  0  0  0  0  0  0  0  0  0
   14.2725    1.7348   24.5659 H   0  0  0  0  0  0  0  0  0  0  0  0
   13.9862    3.2259   25.2348 H   0  0  0  0  0  0  0  0  0  0  0  0
  1  5  2  0  0  0  0
  1  8  1  0  0  0  0
  2  7  1  0  0  0  0
  2  9  2  0  0  0  0
  3  7  2  0  0  0  0
  3 11  1  0  0  0  0
  4  9  1  0  0  0  0
  4 11  2  0  0  0  0
  5 19  1  0  0  0  0
  6 10  1  0  0  0  0
  6 19  2  0  0  0  0
  7 16  1  0  0  0  0
  8 10  2  0  0  0  0
  8 17  1  0  0  0  0
  9 18  1  0  0  0  0
 10 20  1  0  0  0  0
 11 23  1  0  0  0  0
 12 18  1  0  0  0  0
 12 20  1  0  0  0  0
 12 22  2  0  0  0  0
 13 14  1  0  0  0  0
 13 15  1  0  0  0  0
 14 16  1  0  0  0  0
 15 16  1  0  0  0  0
 16 21  1  0  0  0  0
  1 24  1  0  0  0  0
  2 25  1  0  0  0  0
  3 26  1  0  0  0  0
  4 27  1  0  0  0  0
  5 28  1  0  0  0  0
  6 29  1  0  0  0  0
 13 30  1  0  0  0  0
 13 31  1  0  0  0  0
 14 32  1  0  0  0  0
 14 33  1  0  0  0  0
 15 34  1  0  0  0  0
 15 35  1  0  0  0  0
 17 36  1  0  0  0  0
 17 37  1  0  0  0  0
 17 38  1  0  0  0  0
 18 39  1  0  0  0  0
 18 40  1  0  0  0  0
 20 41  1  0  0  0  0
 21 42  1  0  0  0  0
 21 43  1  0  0  0  0
 21 44  1  0  0  0  0
M  CHG  1  21   1
M  END
> <BB_SMILES>
CC1(C)OB(C2(N)CCC2)OC1(C)C

> <scaffold_SMILES>
Cc1ccncc1NC(=O)Cc1cc(Cl)cc(Br)c1

$$$$
EN300-399336
  -OEChem-07272002243D

 41 43  0     0  0  0  0  0  0999 V2000
    5.0000    1.4070   18.8080 C   0  0  0  0  0  0  0  0  0  0  0  0
   11.0490    1.0010   23.0460 C   0  0  0  0  0  0  0  0  0  0  0  0
   13.3680    0.4840   22.6240 C   0  0  0  0  0  0  0  0  0  0  0  0
   11.6520   -1.1420   22.1450 C   0  0  0  0  0  0  0  0  0  0  0  0
    5.5330    1.3060   17.5390 C   0  0  0  0  0  0  0  0  0  0  0  0
    7.2400   -0.0390   18.2610 C   0  0  0  0  0  0  0  0  0  0  0  0
   12.3850    1.3610   23.0530 C   0  0  0  0  0  0  0  0  0  0  0  0
    5.6260    0.7590   19.8690 C   0  0  0  0  0  0  0  0  0  0  0  0
   10.6720   -0.2500   22.5660 C   0  0  0  0  0  0  0  0  0  0  0  0
    6.7930    0.0210   19.5790 C   0  0  0  0  0  0  0  0  0  0  0  0
   12.9770   -0.7640   22.1810 C   0  0  0  0  0  0  0  0  0  0  0  0
    8.6020    0.1230   21.2070 C   0  0  0  0  0  0  0  0  0  0  0  0
   12.2280    3.9395   22.8192 C   0  0  0  0  0  0  0  0  0  0  0  0
   13.6735    3.5781   22.6644 C   0  0  0  0  0  0  0  0  0  0  0  0
   12.7782    2.7283   23.5363 C   0  0  0  0  0  0  0  0  0  0  0  0
    5.0980    0.9060   21.2740 C   0  0  0  0  0  0  0  0  0  0  0  0
    9.2100   -0.5900   22.3990 C   0  0  0  0  0  0  0  0  0  0  0  0
    6.6320    0.5940   17.2520 N   0  0  0  0  0  0  0  0  0  0  0  0
    7.5630   -0.5230   20.6330 N   0  0  0  0  0  0  0  0  0  0  0  0
   12.9677    2.8493   24.9919 N   0  3  0  0  0  0  0  0  0  0  0  0
    9.0150    1.2120   20.8220 O   0  0  0  0  0  0  0  0  0  0  0  0
   14.1940   -1.9100   21.6990 Cl  0  0  0  0  0  0  0  0  0  0  0  0
    4.0894    1.9955   18.9731 H   0  0  0  0  0  0  0  0  0  0  0  0
   10.2920    1.6908   23.4149 H   0  0  0  0  0  0  0  0  0  0  0  0
   14.4066    0.7739   22.6379 H   0  0  0  0  0  0  0  0  0  0  0  0
   11.3632   -2.1298   21.7911 H   0  0  0  0  0  0  0  0  0  0  0  0
    5.0712    1.8129   16.6995 H   0  0  0  0  0  0  0  0  0  0  0  0
    8.1159   -0.6122   17.9919 H   0  0  0  0  0  0  0  0  0  0  0  0
   11.9896    4.8214   23.4028 H   0  0  0  0  0  0  0  0  0  0  0  0
   11.5797    3.7936   21.9627 H   0  0  0  0  0  0  0  0  0  0  0  0
   13.9930    3.1903   21.7039 H   0  0  0  0  0  0  0  0  0  0  0  0
   14.4065    4.2168   23.1435 H   0  0  0  0  0  0  0  0  0  0  0  0
    4.4452    1.7837   21.3445 H   0  0  0  0  0  0  0  0  0  0  0  0
    4.5267    0.0201   21.5774 H   0  0  0  0  0  0  0  0  0  0  0  0
    5.9169    1.0203   21.9951 H   0  0  0  0  0  0  0  0  0  0  0  0
    9.0901   -1.6664   22.2639 H   0  0  0  0  0  0  0  0  0  0  0  0
    8.6579   -0.3097   23.2977 H   0  0  0  0  0  0  0  0  0  0  0  0
    7.3129   -1.4300   20.9567 H   0  0  0  0  0  0  0  0  0  0  0  0
   12.8295    1.9466   25.4670 H   0  0  0  0  0  0  0  0  0  0  0  0
   12.3026    3.5185   25.4043 H   0  0  0  0  0  0  0  0  0  0  0  0
   13.9160    3.1764   25.2232 H   0  0  0  0  0  0  0  0  0  0  0  0
  1  5  2  0  0  0  0
  1  8  1  0  0  0  0
  2  7  1  0  0  0  0
  2  9  2  0  0  0  0
  3  7  2  0  0  0  0
  3 11  1  0  0  0  0
  4  9  1  0  0  0  0
  4 11  2  0  0  0  0
  5 18  1  0  0  0  0
  6 10  1  0  0  0  0
  6 18  2  0  0  0  0
  7 15  1  0  0  0  0
  8 10  2  0  0  0  0
  8 16  1  0  0  0  0
  9 17  1  0  0  0  0
 10 19  1  0  0  0  0
 11 22  1  0  0  0  0
 12 17  1  0  0  0  0
 12 19  1  0  0  0  0
 12 21  2  0  0  0  0
 13 14  1  0  0  0  0
 13 15  1  0  0  0  0
 14 15  1  0  0  0  0
 15 20  1  0  0  0  0
  1 23  1  0  0  0  0
  2 24  1  0  0  0  0
  3 25  1  0  0  0  0
  4 26  1  0  0  0  0
  5 27  1  0  0  0  0
  6 28  1  0  0  0  0
 13 29  1  0  0  0  0
 13 30  1  0  0  0  0
 14 31  1  0  0  0  0
 14 32  1  0  0  0  0
 16 33  1  0  0  0  0
 16 34  1  0  0  0  0
 16 35  1  0  0  0  0
 17 36  1  0  0  0  0
 17 37  1  0  0  0  0
 19 38  1  0  0  0  0
 20 39  1  0  0  0  0
 20 40  1  0  0  0  0
 20 41  1  0  0  0  0
M  CHG  1  20   1
M  END
> <BB_SMILES>
CC1(C)OB(C2(N)CC2)OC1(C)C

> <scaffold_SMILES>
Cc1ccncc1NC(=O)Cc1cc(Cl)cc(Br)c1

$$$$
EN300-364488
  -OEChem-07272002243D

 51 54  0     1  0  0  0  0  0999 V2000
   11.9974    3.3344   24.4892 C   0  0  0  0  0  0  0  0  0  0  0  0
   13.8994    3.3143   22.9996 C   0  0  0  0  0  0  0  0  0  0  0  0
   12.3615    4.6042   24.9370 C   0  0  0  0  0  0  0  0  0  0  0  0
   14.2635    4.5841   23.4473 C   0  0  0  0  0  0  0  0  0  0  0  0
    5.0000    1.4070   18.8080 C   0  0  0  0  0  0  0  0  0  0  0  0
   11.0490    1.0010   23.0460 C   0  0  0  0  0  0  0  0  0  0  0  0
   13.3680    0.4840   22.6240 C   0  0  0  0  0  0  0  0  0  0  0  0
   11.6520   -1.1420   22.1450 C   0  0  0  0  0  0  0  0  0  0  0  0
    5.5330    1.3060   17.5390 C   0  0  0  0  0  0  0  0  0  0  0  0
    7.2400   -0.0390   18.2610 C   0  0  0  0  0  0  0  0  0  0  0  0
   12.7663    2.6894   23.5205 C   0  0  0  0  0  0  0  0  0  0  0  0
   12.3850    1.3610   23.0530 C   0  0  0  0  0  0  0  0  0  0  0  0
   13.4945    5.2291   24.4161 C   0  0  0  0  0  0  0  0  0  0  0  0
    5.6260    0.7590   19.8690 C   0  0  0  0  0  0  0  0  0  0  0  0
   10.6720   -0.2500   22.5660 C   0  0  0  0  0  0  0  0  0  0  0  0
    6.7930    0.0210   19.5790 C   0  0  0  0  0  0  0  0  0  0  0  0
   12.9770   -0.7640   22.1810 C   0  0  0  0  0  0  0  0  0  0  0  0
    8.6020    0.1230   21.2070 C   0  0  0  0  0  0  0  0  0  0  0  0
   13.3873    7.2193   26.2811 C   0  0  0  0  0  0  0  0  0  0  0  0
   13.9113    6.6817   24.9281 C   0  0  2  0  0  0  0  0  0  0  0  0
   12.3420    8.0540   25.5170 C   0  0  0  0  0  0  0  0  0  0  0  0
   13.2252    7.9063   24.2531 C   0  0  0  0  0  0  0  0  0  0  0  0
    5.0980    0.9060   21.2740 C   0  0  0  0  0  0  0  0  0  0  0  0
    9.2100   -0.5900   22.3990 C   0  0  0  0  0  0  0  0  0  0  0  0
    6.6320    0.5940   17.2520 N   0  0  0  0  0  0  0  0  0  0  0  0
    7.5630   -0.5230   20.6330 N   0  0  0  0  0  0  0  0  0  0  0  0
    9.0150    1.2120   20.8220 O   0  0  0  0  0  0  0  0  0  0  0  0
   12.1689    9.3194   25.9592 F   0  0  0  0  0  0  0  0  0  0  0  0
   11.1097    7.5034   25.4263 F   0  0  0  0  0  0  0  0  0  0  0  0
   12.5568    7.6587   23.1043 F   0  0  0  0  0  0  0  0  0  0  0  0
   14.0465    8.9536   24.0048 F   0  0  0  0  0  0  0  0  0  0  0  0
   14.1940   -1.9100   21.6990 Cl  0  0  0  0  0  0  0  0  0  0  0  0
   11.1114    2.8604   24.9051 H   0  0  0  0  0  0  0  0  0  0  0  0
   14.5089    2.8243   22.2440 H   0  0  0  0  0  0  0  0  0  0  0  0
   11.7575    5.0998   25.6921 H   0  0  0  0  0  0  0  0  0  0  0  0
   15.1475    5.0649   23.0373 H   0  0  0  0  0  0  0  0  0  0  0  0
    4.0894    1.9955   18.9731 H   0  0  0  0  0  0  0  0  0  0  0  0
   10.2869    1.6872   23.4130 H   0  0  0  0  0  0  0  0  0  0  0  0
   14.4085    0.7689   22.6365 H   0  0  0  0  0  0  0  0  0  0  0  0
   11.3634   -2.1298   21.7909 H   0  0  0  0  0  0  0  0  0  0  0  0
    5.0712    1.8129   16.6995 H   0  0  0  0  0  0  0  0  0  0  0  0
    8.1159   -0.6122   17.9919 H   0  0  0  0  0  0  0  0  0  0  0  0
   12.9434    6.4615   26.9465 H   0  0  0  0  0  0  0  0  0  0  0  0
   14.1160    7.7997   26.8644 H   0  0  0  0  0  0  0  0  0  0  0  0
   15.0149    6.7626   24.8519 H   0  0  0  0  0  0  0  0  0  0  0  0
    5.8488    0.5707   21.9989 H   0  0  0  0  0  0  0  0  0  0  0  0
    4.8413    1.9496   21.4938 H   0  0  0  0  0  0  0  0  0  0  0  0
    4.1847    0.3155   21.4179 H   0  0  0  0  0  0  0  0  0  0  0  0
    9.0901   -1.6664   22.2639 H   0  0  0  0  0  0  0  0  0  0  0  0
    8.6579   -0.3097   23.2977 H   0  0  0  0  0  0  0  0  0  0  0  0
    7.3129   -1.4300   20.9567 H   0  0  0  0  0  0  0  0  0  0  0  0
  1  3  2  0  0  0  0
  1 11  1  0  0  0  0
  2  4  1  0  0  0  0
  2 11  2  0  0  0  0
  3 13  1  0  0  0  0
  4 13  2  0  0  0  0
  5  9  2  0  0  0  0
  5 14  1  0  0  0  0
  6 12  1  0  0  0  0
  6 15  2  0  0  0  0
  7 12  2  0  0  0  0
  7 17  1  0  0  0  0
  8 15  1  0  0  0  0
  8 17  2  0  0  0  0
  9 25  1  0  0  0  0
 10 16  1  0  0  0  0
 10 25  2  0  0  0  0
 11 12  1  0  0  0  0
 13 20  1  1  0  0  0
 14 16  2  0  0  0  0
 14 23  1  0  0  0  0
 15 24  1  0  0  0  0
 16 26  1  0  0  0  0
 17 32  1  0  0  0  0
 18 24  1  0  0  0  0
 18 26  1  0  0  0  0
 18 27  2  0  0  0  0
 19 20  1  0  0  0  0
 19 21  1  0  0  0  0
 20 22  1  0  0  0  0
 21 22  1  0  0  0  0
 21 28  1  0  0  0  0
 21 29  1  0  0  0  0
 22 30  1  0  0  0  0
 22 31  1  0  0  0  0
  1 33  1  0  0  0  0
  2 34  1  0  0  0  0
  3 35  1  0  0  0  0
  4 36  1  0  0  0  0
  5 37  1  0  0  0  0
  6 38  1  0  0  0  0
  7 39  1  0  0  0  0
  8 40  1  0  0  0  0
  9 41  1  0  0  0  0
 10 42  1  0  0  0  0
 19 43  1  0  0  0  0
 19 44  1  0  0  0  0
 20 45  1  0  0  0  0
 23 46  1  0  0  0  0
 23 47  1  0  0  0  0
 23 48  1  0  0  0  0
 24 49  1  0  0  0  0
 24 50  1  0  0  0  0
 26 51  1  0  0  0  0
M  END
> <BB_SMILES>
CC1(C)OB(c2ccc(C3CC(F)(F)C3(F)F)cc2)OC1(C)C

> <scaffold_SMILES>
Cc1ccncc1NC(=O)Cc1cc(Cl)cc(Br)c1

$$$$
EN300-364488
  -OEChem-07272002243D

 51 54  0     1  0  0  0  0  0999 V2000
   11.8881    3.7618   23.3642 C   0  0  0  0  0  0  0  0  0  0  0  0
   14.0083    2.8873   24.1239 C   0  0  0  0  0  0  0  0  0  0  0  0
   12.2518    5.0320   23.8113 C   0  0  0  0  0  0  0  0  0  0  0  0
   14.3720    4.1575   24.5710 C   0  0  0  0  0  0  0  0  0  0  0  0
    5.0000    1.4070   18.8080 C   0  0  0  0  0  0  0  0  0  0  0  0
   11.0490    1.0010   23.0460 C   0  0  0  0  0  0  0  0  0  0  0  0
   13.3680    0.4840   22.6240 C   0  0  0  0  0  0  0  0  0  0  0  0
   11.6520   -1.1420   22.1450 C   0  0  0  0  0  0  0  0  0  0  0  0
    5.5330    1.3060   17.5390 C   0  0  0  0  0  0  0  0  0  0  0  0
    7.2400   -0.0390   18.2610 C   0  0  0  0  0  0  0  0  0  0  0  0
   12.7663    2.6894   23.5205 C   0  0  0  0  0  0  0  0  0  0  0  0
   12.3850    1.3610   23.0530 C   0  0  0  0  0  0  0  0  0  0  0  0
   13.4937    5.2299   24.4146 C   0  0  0  0  0  0  0  0  0  0  0  0
    5.6260    0.7590   19.8690 C   0  0  0  0  0  0  0  0  0  0  0  0
   10.6720   -0.2500   22.5660 C   0  0  0  0  0  0  0  0  0  0  0  0
    6.7930    0.0210   19.5790 C   0  0  0  0  0  0  0  0  0  0  0  0
   12.9770   -0.7640   22.1810 C   0  0  0  0  0  0  0  0  0  0  0  0
    8.6020    0.1230   21.2070 C   0  0  0  0  0  0  0  0  0  0  0  0
   13.2004    7.9435   24.3771 C   0  0  0  0  0  0  0  0  0  0  0  0
   13.9100    6.6827   24.9261 C   0  0  1  0  0  0  0  0  0  0  0  0
   12.3541    7.9973   25.6632 C   0  0  0  0  0  0  0  0  0  0  0  0
   13.4278    7.1119   26.3435 C   0  0  0  0  0  0  0  0  0  0  0  0
    5.0980    0.9060   21.2740 C   0  0  0  0  0  0  0  0  0  0  0  0
    9.2100   -0.5900   22.3990 C   0  0  0  0  0  0  0  0  0  0  0  0
    6.6320    0.5940   17.2520 N   0  0  0  0  0  0  0  0  0  0  0  0
    7.5630   -0.5230   20.6330 N   0  0  0  0  0  0  0  0  0  0  0  0
    9.0150    1.2120   20.8220 O   0  0  0  0  0  0  0  0  0  0  0  0
   12.1887    9.2257   26.2021 F   0  0  0  0  0  0  0  0  0  0  0  0
   11.1230    7.4441   25.5744 F   0  0  0  0  0  0  0  0  0  0  0  0
   14.3443    7.7873   27.0760 F   0  0  0  0  0  0  0  0  0  0  0  0
   12.9500    6.1263   27.1361 F   0  0  0  0  0  0  0  0  0  0  0  0
   14.1940   -1.9100   21.6990 Cl  0  0  0  0  0  0  0  0  0  0  0  0
   10.9164    3.6235   22.8959 H   0  0  0  0  0  0  0  0  0  0  0  0
   14.7037    2.0613   24.2529 H   0  0  0  0  0  0  0  0  0  0  0  0
   11.5618    5.8620   23.6861 H   0  0  0  0  0  0  0  0  0  0  0  0
   15.3410    4.3044   25.0403 H   0  0  0  0  0  0  0  0  0  0  0  0
    4.0894    1.9955   18.9731 H   0  0  0  0  0  0  0  0  0  0  0  0
   10.2869    1.6872   23.4130 H   0  0  0  0  0  0  0  0  0  0  0  0
   14.4085    0.7689   22.6365 H   0  0  0  0  0  0  0  0  0  0  0  0
   11.3634   -2.1298   21.7910 H   0  0  0  0  0  0  0  0  0  0  0  0
    5.0712    1.8129   16.6995 H   0  0  0  0  0  0  0  0  0  0  0  0
    8.1159   -0.6122   17.9919 H   0  0  0  0  0  0  0  0  0  0  0  0
   13.8562    8.8098   24.2111 H   0  0  0  0  0  0  0  0  0  0  0  0
   12.6040    7.7867   23.4641 H   0  0  0  0  0  0  0  0  0  0  0  0
   15.0136    6.7643   24.8500 H   0  0  0  0  0  0  0  0  0  0  0  0
    4.2121    0.2760   21.4146 H   0  0  0  0  0  0  0  0  0  0  0  0
    5.8542    0.6162   22.0139 H   0  0  0  0  0  0  0  0  0  0  0  0
    4.8246    1.9468   21.4877 H   0  0  0  0  0  0  0  0  0  0  0  0
    9.0901   -1.6664   22.2639 H   0  0  0  0  0  0  0  0  0  0  0  0
    8.6579   -0.3097   23.2977 H   0  0  0  0  0  0  0  0  0  0  0  0
    7.3129   -1.4300   20.9567 H   0  0  0  0  0  0  0  0  0  0  0  0
  1  3  2  0  0  0  0
  1 11  1  0  0  0  0
  2  4  1  0  0  0  0
  2 11  2  0  0  0  0
  3 13  1  0  0  0  0
  4 13  2  0  0  0  0
  5  9  2  0  0  0  0
  5 14  1  0  0  0  0
  6 12  1  0  0  0  0
  6 15  2  0  0  0  0
  7 12  2  0  0  0  0
  7 17  1  0  0  0  0
  8 15  1  0  0  0  0
  8 17  2  0  0  0  0
  9 25  1  0  0  0  0
 10 16  1  0  0  0  0
 10 25  2  0  0  0  0
 11 12  1  0  0  0  0
 13 20  1  6  0  0  0
 14 16  2  0  0  0  0
 14 23  1  0  0  0  0
 15 24  1  0  0  0  0
 16 26  1  0  0  0  0
 17 32  1  0  0  0  0
 18 24  1  0  0  0  0
 18 26  1  0  0  0  0
 18 27  2  0  0  0  0
 19 20  1  0  0  0  0
 19 21  1  0  0  0  0
 20 22  1  0  0  0  0
 21 22  1  0  0  0  0
 21 28  1  0  0  0  0
 21 29  1  0  0  0  0
 22 30  1  0  0  0  0
 22 31  1  0  0  0  0
  1 33  1  0  0  0  0
  2 34  1  0  0  0  0
  3 35  1  0  0  0  0
  4 36  1  0  0  0  0
  5 37  1  0  0  0  0
  6 38  1  0  0  0  0
  7 39  1  0  0  0  0
  8 40  1  0  0  0  0
  9 41  1  0  0  0  0
 10 42  1  0  0  0  0
 19 43  1  0  0  0  0
 19 44  1  0  0  0  0
 20 45  1  0  0  0  0
 23 46  1  0  0  0  0
 23 47  1  0  0  0  0
 23 48  1  0  0  0  0
 24 49  1  0  0  0  0
 24 50  1  0  0  0  0
 26 51  1  0  0  0  0
M  END
> <BB_SMILES>
CC1(C)OB(c2ccc(C3CC(F)(F)C3(F)F)cc2)OC1(C)C

> <scaffold_SMILES>
Cc1ccncc1NC(=O)Cc1cc(Cl)cc(Br)c1

$$$$
EN300-746226
  -OEChem-07272002243D

 62 65  0     1  0  0  0  0  0999 V2000
    5.0000    1.4070   18.8080 C   0  0  0  0  0  0  0  0  0  0  0  0
   11.0490    1.0010   23.0460 C   0  0  0  0  0  0  0  0  0  0  0  0
   13.3680    0.4840   22.6240 C   0  0  0  0  0  0  0  0  0  0  0  0
   11.6520   -1.1420   22.1450 C   0  0  0  0  0  0  0  0  0  0  0  0
    5.5330    1.3060   17.5390 C   0  0  0  0  0  0  0  0  0  0  0  0
    7.2400   -0.0390   18.2610 C   0  0  0  0  0  0  0  0  0  0  0  0
   12.3850    1.3610   23.0530 C   0  0  0  0  0  0  0  0  0  0  0  0
    5.6260    0.7590   19.8690 C   0  0  0  0  0  0  0  0  0  0  0  0
   10.6720   -0.2500   22.5660 C   0  0  0  0  0  0  0  0  0  0  0  0
    6.7930    0.0210   19.5790 C   0  0  0  0  0  0  0  0  0  0  0  0
   12.9770   -0.7640   22.1810 C   0  0  0  0  0  0  0  0  0  0  0  0
    8.6020    0.1230   21.2070 C   0  0  0  0  0  0  0  0  0  0  0  0
   12.6691    6.8066   24.3620 C   0  0  0  0  0  0  0  0  0  0  0  0
   12.8308    3.8332   22.4755 C   0  0  0  0  0  0  0  0  0  0  0  0
   13.8127    2.8670   24.6679 C   0  0  0  0  0  0  0  0  0  0  0  0
   11.9258    5.0097   22.8212 C   0  0  0  0  0  0  0  0  0  0  0  0
   11.9331    4.5661   25.2627 C   0  0  0  0  0  0  0  0  0  0  0  0
   12.3749    3.1678   24.9580 C   0  0  2  0  0  0  0  0  0  0  0  0
   12.7863    2.7567   23.5463 C   0  0  1  0  0  0  0  0  0  0  0  0
    5.0980    0.9060   21.2740 C   0  0  0  0  0  0  0  0  0  0  0  0
   10.7795    8.2412   25.4832 C   0  0  0  0  0  0  0  0  0  0  0  0
   11.8905    7.8823   27.7072 C   0  0  0  0  0  0  0  0  0  0  0  0
   12.8997    9.4745   26.0475 C   0  0  0  0  0  0  0  0  0  0  0  0
    9.2100   -0.5900   22.3990 C   0  0  0  0  0  0  0  0  0  0  0  0
   12.1136    8.1763   26.2254 C   0  0  0  0  0  0  0  0  0  0  0  0
    6.6320    0.5940   17.2520 N   0  0  0  0  0  0  0  0  0  0  0  0
   12.2141    5.4988   24.1674 N   0  0  0  0  0  0  0  0  0  0  0  0
    7.5630   -0.5230   20.6330 N   0  0  0  0  0  0  0  0  0  0  0  0
    9.0150    1.2120   20.8220 O   0  0  0  0  0  0  0  0  0  0  0  0
   12.8560    7.6177   23.4568 O   0  0  0  0  0  0  0  0  0  0  0  0
   12.8849    7.0982   25.6830 O   0  0  0  0  0  0  0  0  0  0  0  0
   14.1940   -1.9100   21.6990 Cl  0  0  0  0  0  0  0  0  0  0  0  0
    4.0894    1.9955   18.9731 H   0  0  0  0  0  0  0  0  0  0  0  0
   10.2920    1.6908   23.4149 H   0  0  0  0  0  0  0  0  0  0  0  0
   14.4066    0.7739   22.6379 H   0  0  0  0  0  0  0  0  0  0  0  0
   11.3632   -2.1298   21.7911 H   0  0  0  0  0  0  0  0  0  0  0  0
    5.0712    1.8129   16.6995 H   0  0  0  0  0  0  0  0  0  0  0  0
    8.1159   -0.6122   17.9919 H   0  0  0  0  0  0  0  0  0  0  0  0
   12.5198    3.4255   21.5056 H   0  0  0  0  0  0  0  0  0  0  0  0
   13.8627    4.1830   22.3441 H   0  0  0  0  0  0  0  0  0  0  0  0
   14.5187    3.6897   24.6502 H   0  0  0  0  0  0  0  0  0  0  0  0
   14.2283    1.9550   25.0824 H   0  0  0  0  0  0  0  0  0  0  0  0
   12.0528    5.8062   22.0812 H   0  0  0  0  0  0  0  0  0  0  0  0
   10.8721    4.7064   22.8020 H   0  0  0  0  0  0  0  0  0  0  0  0
   10.8471    4.5795   25.4097 H   0  0  0  0  0  0  0  0  0  0  0  0
   12.3929    4.8992   26.1977 H   0  0  0  0  0  0  0  0  0  0  0  0
   11.8495    2.4488   25.5780 H   0  0  0  0  0  0  0  0  0  0  0  0
    4.4350    1.7763   21.3414 H   0  0  0  0  0  0  0  0  0  0  0  0
    4.5376    0.0147   21.5821 H   0  0  0  0  0  0  0  0  0  0  0  0
    5.9163    1.0331   21.9935 H   0  0  0  0  0  0  0  0  0  0  0  0
   10.9353    8.4520   24.4192 H   0  0  0  0  0  0  0  0  0  0  0  0
   10.2215    7.3035   25.5739 H   0  0  0  0  0  0  0  0  0  0  0  0
   10.1553    9.0542   25.8713 H   0  0  0  0  0  0  0  0  0  0  0  0
   12.8451    7.8349   28.2436 H   0  0  0  0  0  0  0  0  0  0  0  0
   11.4110    6.9063   27.8436 H   0  0  0  0  0  0  0  0  0  0  0  0
   11.2643    8.6454   28.1807 H   0  0  0  0  0  0  0  0  0  0  0  0
   13.8567    9.4282   26.5797 H   0  0  0  0  0  0  0  0  0  0  0  0
   13.1012    9.6825   24.9917 H   0  0  0  0  0  0  0  0  0  0  0  0
   12.3510   10.3234   26.4712 H   0  0  0  0  0  0  0  0  0  0  0  0
    9.0901   -1.6664   22.2639 H   0  0  0  0  0  0  0  0  0  0  0  0
    8.6579   -0.3097   23.2977 H   0  0  0  0  0  0  0  0  0  0  0  0
    7.3129   -1.4300   20.9567 H   0  0  0  0  0  0  0  0  0  0  0  0
  1  5  2  0  0  0  0
  1  8  1  0  0  0  0
  2  7  1  0  0  0  0
  2  9  2  0  0  0  0
  3  7  2  0  0  0  0
  3 11  1  0  0  0  0
  4  9  1  0  0  0  0
  4 11  2  0  0  0  0
  5 26  1  0  0  0  0
  6 10  1  0  0  0  0
  6 26  2  0  0  0  0
  7 19  1  1  0  0  0
  8 10  2  0  0  0  0
  8 20  1  0  0  0  0
  9 24  1  0  0  0  0
 10 28  1  0  0  0  0
 11 32  1  0  0  0  0
 12 24  1  0  0  0  0
 12 28  1  0  0  0  0
 12 29  2  0  0  0  0
 13 27  1  0  0  0  0
 13 30  2  0  0  0  0
 13 31  1  0  0  0  0
 14 16  1  0  0  0  0
 14 19  1  0  0  0  0
 15 18  1  0  0  0  0
 15 19  1  0  0  0  0
 16 27  1  0  0  0  0
 17 18  1  1  0  0  0
 17 27  1  0  0  0  0
 18 19  1  0  0  0  0
 21 25  1  0  0  0  0
 22 25  1  0  0  0  0
 23 25  1  0  0  0  0
 25 31  1  0  0  0  0
  1 33  1  0  0  0  0
  2 34  1  0  0  0  0
  3 35  1  0  0  0  0
  4 36  1  0  0  0  0
  5 37  1  0  0  0  0
  6 38  1  0  0  0  0
 14 39  1  0  0  0  0
 14 40  1  0  0  0  0
 15 41  1  0  0  0  0
 15 42  1  0  0  0  0
 16 43  1  0  0  0  0
 16 44  1  0  0  0  0
 17 45  1  0  0  0  0
 17 46  1  0  0  0  0
 18 47  1  0  0  0  0
 20 48  1  0  0  0  0
 20 49  1  0  0  0  0
 20 50  1  0  0  0  0
 21 51  1  0  0  0  0
 21 52  1  0  0  0  0
 21 53  1  0  0  0  0
 22 54  1  0  0  0  0
 22 55  1  0  0  0  0
 22 56  1  0  0  0  0
 23 57  1  0  0  0  0
 23 58  1  0  0  0  0
 23 59  1  0  0  0  0
 24 60  1  0  0  0  0
 24 61  1  0  0  0  0
 28 62  1  0  0  0  0
M  END
> <BB_SMILES>
CC(C)(C)OC(=O)N1CCC2(B3OC(C)(C)C(C)(C)O3)CC2C1

> <scaffold_SMILES>
Cc1ccncc1NC(=O)Cc1cc(Cl)cc(Br)c1

$$$$
EN300-746226
  -OEChem-07272002243D

 62 65  0     1  0  0  0  0  0999 V2000
    5.0000    1.4070   18.8080 C   0  0  0  0  0  0  0  0  0  0  0  0
   11.0490    1.0010   23.0460 C   0  0  0  0  0  0  0  0  0  0  0  0
   13.3680    0.4840   22.6240 C   0  0  0  0  0  0  0  0  0  0  0  0
   11.6520   -1.1420   22.1450 C   0  0  0  0  0  0  0  0  0  0  0  0
    5.5330    1.3060   17.5390 C   0  0  0  0  0  0  0  0  0  0  0  0
    7.2400   -0.0390   18.2610 C   0  0  0  0  0  0  0  0  0  0  0  0
   12.3850    1.3610   23.0530 C   0  0  0  0  0  0  0  0  0  0  0  0
    5.6260    0.7590   19.8690 C   0  0  0  0  0  0  0  0  0  0  0  0
   10.6720   -0.2500   22.5660 C   0  0  0  0  0  0  0  0  0  0  0  0
    6.7930    0.0210   19.5790 C   0  0  0  0  0  0  0  0  0  0  0  0
   12.9770   -0.7640   22.1810 C   0  0  0  0  0  0  0  0  0  0  0  0
    8.6020    0.1230   21.2070 C   0  0  0  0  0  0  0  0  0  0  0  0
    9.1499    4.9009   23.8376 C   0  0  0  0  0  0  0  0  0  0  0  0
   12.3982    3.0541   24.9784 C   0  0  0  0  0  0  0  0  0  0  0  0
   13.8023    3.3797   22.5668 C   0  0  0  0  0  0  0  0  0  0  0  0
   10.9055    3.4991   24.9948 C   0  0  0  0  0  0  0  0  0  0  0  0
   11.2062    4.3498   22.5639 C   0  0  0  0  0  0  0  0  0  0  0  0
   12.6135    4.1629   22.9318 C   0  0  2  0  0  0  0  0  0  0  0  0
   12.7914    2.7745   23.5526 C   0  0  2  0  0  0  0  0  0  0  0  0
    5.0980    0.9060   21.2740 C   0  0  0  0  0  0  0  0  0  0  0  0
    6.3021    4.6501   23.9322 C   0  0  0  0  0  0  0  0  0  0  0  0
    6.5575    4.7845   26.4274 C   0  0  0  0  0  0  0  0  0  0  0  0
    7.2608    6.7219   24.9921 C   0  0  0  0  0  0  0  0  0  0  0  0
    9.2100   -0.5900   22.3990 C   0  0  0  0  0  0  0  0  0  0  0  0
    7.1458    5.2008   25.0810 C   0  0  0  0  0  0  0  0  0  0  0  0
    6.6320    0.5940   17.2520 N   0  0  0  0  0  0  0  0  0  0  0  0
   10.4218    4.3101   23.8287 N   0  0  0  0  0  0  0  0  0  0  0  0
    7.5630   -0.5230   20.6330 N   0  0  0  0  0  0  0  0  0  0  0  0
    9.0150    1.2120   20.8220 O   0  0  0  0  0  0  0  0  0  0  0  0
    8.6943    5.5760   22.9165 O   0  0  0  0  0  0  0  0  0  0  0  0
    8.4598    4.6382   24.9918 O   0  0  0  0  0  0  0  0  0  0  0  0
   14.1940   -1.9100   21.6990 Cl  0  0  0  0  0  0  0  0  0  0  0  0
    4.0894    1.9955   18.9731 H   0  0  0  0  0  0  0  0  0  0  0  0
   10.2920    1.6908   23.4149 H   0  0  0  0  0  0  0  0  0  0  0  0
   14.4066    0.7739   22.6379 H   0  0  0  0  0  0  0  0  0  0  0  0
   11.3632   -2.1298   21.7911 H   0  0  0  0  0  0  0  0  0  0  0  0
    5.0712    1.8129   16.6995 H   0  0  0  0  0  0  0  0  0  0  0  0
    8.1159   -0.6122   17.9919 H   0  0  0  0  0  0  0  0  0  0  0  0
   13.0284    3.8374   25.4188 H   0  0  0  0  0  0  0  0  0  0  0  0
   12.5259    2.1637   25.6055 H   0  0  0  0  0  0  0  0  0  0  0  0
   13.8577    2.9995   21.5531 H   0  0  0  0  0  0  0  0  0  0  0  0
   14.7635    3.6767   22.9712 H   0  0  0  0  0  0  0  0  0  0  0  0
   10.2696    2.6044   25.0079 H   0  0  0  0  0  0  0  0  0  0  0  0
   10.6946    4.0463   25.9205 H   0  0  0  0  0  0  0  0  0  0  0  0
   11.0473    5.3149   22.0711 H   0  0  0  0  0  0  0  0  0  0  0  0
   10.8138    3.5731   21.8989 H   0  0  0  0  0  0  0  0  0  0  0  0
   12.9152    5.0590   23.4817 H   0  0  0  0  0  0  0  0  0  0  0  0
    4.1114    1.3835   21.2609 H   0  0  0  0  0  0  0  0  0  0  0  0
    5.0078   -0.0695   21.7676 H   0  0  0  0  0  0  0  0  0  0  0  0
    5.7728    1.5140   21.8893 H   0  0  0  0  0  0  0  0  0  0  0  0
    6.7211    4.9467   22.9640 H   0  0  0  0  0  0  0  0  0  0  0  0
    6.2408    3.5574   23.9645 H   0  0  0  0  0  0  0  0  0  0  0  0
    5.2842    5.0550   23.9656 H   0  0  0  0  0  0  0  0  0  0  0  0
    7.1597    5.1775   27.2545 H   0  0  0  0  0  0  0  0  0  0  0  0
    6.5608    3.6937   26.5342 H   0  0  0  0  0  0  0  0  0  0  0  0
    5.5295    5.1415   26.5469 H   0  0  0  0  0  0  0  0  0  0  0  0
    7.8659    7.1171   25.8160 H   0  0  0  0  0  0  0  0  0  0  0  0
    7.7151    7.0374   24.0473 H   0  0  0  0  0  0  0  0  0  0  0  0
    6.2750    7.1929   25.0788 H   0  0  0  0  0  0  0  0  0  0  0  0
    9.0901   -1.6664   22.2639 H   0  0  0  0  0  0  0  0  0  0  0  0
    8.6579   -0.3097   23.2977 H   0  0  0  0  0  0  0  0  0  0  0  0
    7.3129   -1.4300   20.9567 H   0  0  0  0  0  0  0  0  0  0  0  0
  1  5  2  0  0  0  0
  1  8  1  0  0  0  0
  2  7  1  0  0  0  0
  2  9  2  0  0  0  0
  3  7  2  0  0  0  0
  3 11  1  0  0  0  0
  4  9  1  0  0  0  0
  4 11  2  0  0  0  0
  5 26  1  0  0  0  0
  6 10  1  0  0  0  0
  6 26  2  0  0  0  0
  7 19  1  6  0  0  0
  8 10  2  0  0  0  0
  8 20  1  0  0  0  0
  9 24  1  0  0  0  0
 10 28  1  0  0  0  0
 11 32  1  0  0  0  0
 12 24  1  0  0  0  0
 12 28  1  0  0  0  0
 12 29  2  0  0  0  0
 13 27  1  0  0  0  0
 13 30  2  0  0  0  0
 13 31  1  0  0  0  0
 14 16  1  0  0  0  0
 14 19  1  0  0  0  0
 15 18  1  0  0  0  0
 15 19  1  0  0  0  0
 16 27  1  0  0  0  0
 17 18  1  1  0  0  0
 17 27  1  0  0  0  0
 18 19  1  0  0  0  0
 21 25  1  0  0  0  0
 22 25  1  0  0  0  0
 23 25  1  0  0  0  0
 25 31  1  0  0  0  0
  1 33  1  0  0  0  0
  2 34  1  0  0  0  0
  3 35  1  0  0  0  0
  4 36  1  0  0  0  0
  5 37  1  0  0  0  0
  6 38  1  0  0  0  0
 14 39  1  0  0  0  0
 14 40  1  0  0  0  0
 15 41  1  0  0  0  0
 15 42  1  0  0  0  0
 16 43  1  0  0  0  0
 16 44  1  0  0  0  0
 17 45  1  0  0  0  0
 17 46  1  0  0  0  0
 18 47  1  0  0  0  0
 20 48  1  0  0  0  0
 20 49  1  0  0  0  0
 20 50  1  0  0  0  0
 21 51  1  0  0  0  0
 21 52  1  0  0  0  0
 21 53  1  0  0  0  0
 22 54  1  0  0  0  0
 22 55  1  0  0  0  0
 22 56  1  0  0  0  0
 23 57  1  0  0  0  0
 23 58  1  0  0  0  0
 23 59  1  0  0  0  0
 24 60  1  0  0  0  0
 24 61  1  0  0  0  0
 28 62  1  0  0  0  0
M  END
> <BB_SMILES>
CC(C)(C)OC(=O)N1CCC2(B3OC(C)(C)C(C)(C)O3)CC2C1

> <scaffold_SMILES>
Cc1ccncc1NC(=O)Cc1cc(Cl)cc(Br)c1

$$$$
EN300-746226
  -OEChem-07272002243D

 62 65  0     1  0  0  0  0  0999 V2000
    5.0000    1.4070   18.8080 C   0  0  0  0  0  0  0  0  0  0  0  0
   11.0490    1.0010   23.0460 C   0  0  0  0  0  0  0  0  0  0  0  0
   13.3680    0.4840   22.6240 C   0  0  0  0  0  0  0  0  0  0  0  0
   11.6520   -1.1420   22.1450 C   0  0  0  0  0  0  0  0  0  0  0  0
    5.5330    1.3060   17.5390 C   0  0  0  0  0  0  0  0  0  0  0  0
    7.2400   -0.0390   18.2610 C   0  0  0  0  0  0  0  0  0  0  0  0
   12.3850    1.3610   23.0530 C   0  0  0  0  0  0  0  0  0  0  0  0
    5.6260    0.7590   19.8690 C   0  0  0  0  0  0  0  0  0  0  0  0
   10.6720   -0.2500   22.5660 C   0  0  0  0  0  0  0  0  0  0  0  0
    6.7930    0.0210   19.5790 C   0  0  0  0  0  0  0  0  0  0  0  0
   12.9770   -0.7640   22.1810 C   0  0  0  0  0  0  0  0  0  0  0  0
    8.6020    0.1230   21.2070 C   0  0  0  0  0  0  0  0  0  0  0  0
    9.2280    5.0405   23.3755 C   0  0  0  0  0  0  0  0  0  0  0  0
   12.8259    3.8176   22.4680 C   0  0  0  0  0  0  0  0  0  0  0  0
   13.3946    2.6522   24.9601 C   0  0  0  0  0  0  0  0  0  0  0  0
   11.3744    4.3359   22.2428 C   0  0  0  0  0  0  0  0  0  0  0  0
   10.8420    3.6999   24.6995 C   0  0  0  0  0  0  0  0  0  0  0  0
   12.3055    3.6136   24.7378 C   0  0  1  0  0  0  0  0  0  0  0  0
   12.7914    2.7745   23.5526 C   0  0  1  0  0  0  0  0  0  0  0  0
    5.0980    0.9060   21.2740 C   0  0  0  0  0  0  0  0  0  0  0  0
    7.6122    7.3514   22.8948 C   0  0  0  0  0  0  0  0  0  0  0  0
    7.5741    6.5990   20.4987 C   0  0  0  0  0  0  0  0  0  0  0  0
    6.5792    5.1391   22.2839 C   0  0  0  0  0  0  0  0  0  0  0  0
    9.2100   -0.5900   22.3990 C   0  0  0  0  0  0  0  0  0  0  0  0
    7.6776    6.1489   21.9543 C   0  0  0  0  0  0  0  0  0  0  0  0
    6.6320    0.5940   17.2520 N   0  0  0  0  0  0  0  0  0  0  0  0
   10.4863    4.4253   23.4489 N   0  0  0  0  0  0  0  0  0  0  0  0
    7.5630   -0.5230   20.6330 N   0  0  0  0  0  0  0  0  0  0  0  0
    9.0150    1.2120   20.8220 O   0  0  0  0  0  0  0  0  0  0  0  0
    8.4535    5.1466   24.3245 O   0  0  0  0  0  0  0  0  0  0  0  0
    8.9486    5.5101   22.1190 O   0  0  0  0  0  0  0  0  0  0  0  0
   14.1940   -1.9100   21.6990 Cl  0  0  0  0  0  0  0  0  0  0  0  0
    4.0894    1.9955   18.9731 H   0  0  0  0  0  0  0  0  0  0  0  0
   10.2920    1.6908   23.4149 H   0  0  0  0  0  0  0  0  0  0  0  0
   14.4066    0.7739   22.6379 H   0  0  0  0  0  0  0  0  0  0  0  0
   11.3632   -2.1298   21.7911 H   0  0  0  0  0  0  0  0  0  0  0  0
    5.0712    1.8129   16.6995 H   0  0  0  0  0  0  0  0  0  0  0  0
    8.1159   -0.6122   17.9919 H   0  0  0  0  0  0  0  0  0  0  0  0
   13.2194    3.4014   21.5330 H   0  0  0  0  0  0  0  0  0  0  0  0
   13.4861    4.6518   22.7389 H   0  0  0  0  0  0  0  0  0  0  0  0
   14.4026    3.0289   25.0936 H   0  0  0  0  0  0  0  0  0  0  0  0
   13.1736    1.7810   25.5662 H   0  0  0  0  0  0  0  0  0  0  0  0
   11.4054    5.3145   21.7505 H   0  0  0  0  0  0  0  0  0  0  0  0
   10.8581    3.6547   21.5541 H   0  0  0  0  0  0  0  0  0  0  0  0
   10.3397    2.7270   24.6799 H   0  0  0  0  0  0  0  0  0  0  0  0
   10.4525    4.2534   25.5606 H   0  0  0  0  0  0  0  0  0  0  0  0
   12.6755    4.6324   24.8848 H   0  0  0  0  0  0  0  0  0  0  0  0
    4.1323    1.4246   21.2645 H   0  0  0  0  0  0  0  0  0  0  0  0
    4.9648   -0.0724   21.7517 H   0  0  0  0  0  0  0  0  0  0  0  0
    5.7947    1.4755   21.9015 H   0  0  0  0  0  0  0  0  0  0  0  0
    7.6862    7.0326   23.9407 H   0  0  0  0  0  0  0  0  0  0  0  0
    8.4160    8.0666   22.6916 H   0  0  0  0  0  0  0  0  0  0  0  0
    6.6528    7.8722   22.7976 H   0  0  0  0  0  0  0  0  0  0  0  0
    7.6205    5.7394   19.8203 H   0  0  0  0  0  0  0  0  0  0  0  0
    8.4144    7.2495   20.2305 H   0  0  0  0  0  0  0  0  0  0  0  0
    6.6419    7.1407   20.3085 H   0  0  0  0  0  0  0  0  0  0  0  0
    6.6258    4.2765   21.6094 H   0  0  0  0  0  0  0  0  0  0  0  0
    6.6601    4.7771   23.3140 H   0  0  0  0  0  0  0  0  0  0  0  0
    5.5870    5.5844   22.1482 H   0  0  0  0  0  0  0  0  0  0  0  0
    9.0901   -1.6664   22.2639 H   0  0  0  0  0  0  0  0  0  0  0  0
    8.6579   -0.3097   23.2977 H   0  0  0  0  0  0  0  0  0  0  0  0
    7.3129   -1.4300   20.9567 H   0  0  0  0  0  0  0  0  0  0  0  0
  1  5  2  0  0  0  0
  1  8  1  0  0  0  0
  2  7  1  0  0  0  0
  2  9  2  0  0  0  0
  3  7  2  0  0  0  0
  3 11  1  0  0  0  0
  4  9  1  0  0  0  0
  4 11  2  0  0  0  0
  5 26  1  0  0  0  0
  6 10  1  0  0  0  0
  6 26  2  0  0  0  0
  7 19  1  1  0  0  0
  8 10  2  0  0  0  0
  8 20  1  0  0  0  0
  9 24  1  0  0  0  0
 10 28  1  0  0  0  0
 11 32  1  0  0  0  0
 12 24  1  0  0  0  0
 12 28  1  0  0  0  0
 12 29  2  0  0  0  0
 13 27  1  0  0  0  0
 13 30  2  0  0  0  0
 13 31  1  0  0  0  0
 14 16  1  0  0  0  0
 14 19  1  0  0  0  0
 15 18  1  0  0  0  0
 15 19  1  0  0  0  0
 16 27  1  0  0  0  0
 17 18  1  6  0  0  0
 17 27  1  0  0  0  0
 18 19  1  0  0  0  0
 21 25  1  0  0  0  0
 22 25  1  0  0  0  0
 23 25  1  0  0  0  0
 25 31  1  0  0  0  0
  1 33  1  0  0  0  0
  2 34  1  0  0  0  0
  3 35  1  0  0  0  0
  4 36  1  0  0  0  0
  5 37  1  0  0  0  0
  6 38  1  0  0  0  0
 14 39  1  0  0  0  0
 14 40  1  0  0  0  0
 15 41  1  0  0  0  0
 15 42  1  0  0  0  0
 16 43  1  0  0  0  0
 16 44  1  0  0  0  0
 17 45  1  0  0  0  0
 17 46  1  0  0  0  0
 18 47  1  0  0  0  0
 20 48  1  0  0  0  0
 20 49  1  0  0  0  0
 20 50  1  0  0  0  0
 21 51  1  0  0  0  0
 21 52  1  0  0  0  0
 21 53  1  0  0  0  0
 22 54  1  0  0  0  0
 22 55  1  0  0  0  0
 22 56  1  0  0  0  0
 23 57  1  0  0  0  0
 23 58  1  0  0  0  0
 23 59  1  0  0  0  0
 24 60  1  0  0  0  0
 24 61  1  0  0  0  0
 28 62  1  0  0  0  0
M  END
> <BB_SMILES>
CC(C)(C)OC(=O)N1CCC2(B3OC(C)(C)C(C)(C)O3)CC2C1

> <scaffold_SMILES>
Cc1ccncc1NC(=O)Cc1cc(Cl)cc(Br)c1

$$$$
EN300-746226
  -OEChem-07272002243D

 62 65  0     1  0  0  0  0  0999 V2000
    5.0000    1.4070   18.8080 C   0  0  0  0  0  0  0  0  0  0  0  0
   11.0490    1.0010   23.0460 C   0  0  0  0  0  0  0  0  0  0  0  0
   13.3680    0.4840   22.6240 C   0  0  0  0  0  0  0  0  0  0  0  0
   11.6520   -1.1420   22.1450 C   0  0  0  0  0  0  0  0  0  0  0  0
    5.5330    1.3060   17.5390 C   0  0  0  0  0  0  0  0  0  0  0  0
    7.2400   -0.0390   18.2610 C   0  0  0  0  0  0  0  0  0  0  0  0
   12.3850    1.3610   23.0530 C   0  0  0  0  0  0  0  0  0  0  0  0
    5.6260    0.7590   19.8690 C   0  0  0  0  0  0  0  0  0  0  0  0
   10.6720   -0.2500   22.5660 C   0  0  0  0  0  0  0  0  0  0  0  0
    6.7930    0.0210   19.5790 C   0  0  0  0  0  0  0  0  0  0  0  0
   12.9770   -0.7640   22.1810 C   0  0  0  0  0  0  0  0  0  0  0  0
    8.6020    0.1230   21.2070 C   0  0  0  0  0  0  0  0  0  0  0  0
   12.5733    6.5874   25.0698 C   0  0  0  0  0  0  0  0  0  0  0  0
   12.4034    3.0704   24.9826 C   0  0  0  0  0  0  0  0  0  0  0  0
   14.0917    3.3603   23.0408 C   0  0  0  0  0  0  0  0  0  0  0  0
   11.5477    4.3282   25.0768 C   0  0  0  0  0  0  0  0  0  0  0  0
   12.3354    5.2778   22.9244 C   0  0  0  0  0  0  0  0  0  0  0  0
   12.7900    3.9038   22.5388 C   0  0  1  0  0  0  0  0  0  0  0  0
   12.7863    2.7567   23.5463 C   0  0  2  0  0  0  0  0  0  0  0  0
    5.0980    0.9060   21.2740 C   0  0  0  0  0  0  0  0  0  0  0  0
   11.9089    8.8796   26.6487 C   0  0  0  0  0  0  0  0  0  0  0  0
   12.2287    7.3747   28.6341 C   0  0  0  0  0  0  0  0  0  0  0  0
   14.1597    7.8475   27.0993 C   0  0  0  0  0  0  0  0  0  0  0  0
    9.2100   -0.5900   22.3990 C   0  0  0  0  0  0  0  0  0  0  0  0
   12.6465    7.6570   27.1927 C   0  0  0  0  0  0  0  0  0  0  0  0
    6.6320    0.5940   17.2520 N   0  0  0  0  0  0  0  0  0  0  0  0
   12.1892    5.4370   24.3741 N   0  0  0  0  0  0  0  0  0  0  0  0
    7.5630   -0.5230   20.6330 N   0  0  0  0  0  0  0  0  0  0  0  0
    9.0150    1.2120   20.8220 O   0  0  0  0  0  0  0  0  0  0  0  0
   13.1171    7.5615   24.5525 O   0  0  0  0  0  0  0  0  0  0  0  0
   12.2811    6.5171   26.4064 O   0  0  0  0  0  0  0  0  0  0  0  0
   14.1940   -1.9100   21.6990 Cl  0  0  0  0  0  0  0  0  0  0  0  0
    4.0894    1.9955   18.9731 H   0  0  0  0  0  0  0  0  0  0  0  0
   10.2920    1.6908   23.4149 H   0  0  0  0  0  0  0  0  0  0  0  0
   14.4066    0.7739   22.6379 H   0  0  0  0  0  0  0  0  0  0  0  0
   11.3632   -2.1298   21.7911 H   0  0  0  0  0  0  0  0  0  0  0  0
    5.0712    1.8129   16.6995 H   0  0  0  0  0  0  0  0  0  0  0  0
    8.1159   -0.6122   17.9919 H   0  0  0  0  0  0  0  0  0  0  0  0
   13.3098    3.1907   25.5899 H   0  0  0  0  0  0  0  0  0  0  0  0
   11.8472    2.2346   25.4247 H   0  0  0  0  0  0  0  0  0  0  0  0
   14.6954    2.7853   22.3472 H   0  0  0  0  0  0  0  0  0  0  0  0
   14.6797    3.9714   23.7165 H   0  0  0  0  0  0  0  0  0  0  0  0
   10.5689    4.1664   24.6096 H   0  0  0  0  0  0  0  0  0  0  0  0
   11.3731    4.5813   26.1274 H   0  0  0  0  0  0  0  0  0  0  0  0
   13.0226    6.0208   22.5096 H   0  0  0  0  0  0  0  0  0  0  0  0
   11.3470    5.4682   22.4904 H   0  0  0  0  0  0  0  0  0  0  0  0
   12.5465    3.6888   21.5035 H   0  0  0  0  0  0  0  0  0  0  0  0
    4.2178    1.5591   21.2825 H   0  0  0  0  0  0  0  0  0  0  0  0
    4.8157   -0.0668   21.6951 H   0  0  0  0  0  0  0  0  0  0  0  0
    5.8575    1.3339   21.9400 H   0  0  0  0  0  0  0  0  0  0  0  0
   12.2060    9.0856   25.6142 H   0  0  0  0  0  0  0  0  0  0  0  0
   10.8231    8.7416   26.6777 H   0  0  0  0  0  0  0  0  0  0  0  0
   12.1593    9.7765   27.2266 H   0  0  0  0  0  0  0  0  0  0  0  0
   12.7555    6.4982   29.0285 H   0  0  0  0  0  0  0  0  0  0  0  0
   11.1589    7.1437   28.6923 H   0  0  0  0  0  0  0  0  0  0  0  0
   12.4355    8.2272   29.2891 H   0  0  0  0  0  0  0  0  0  0  0  0
   14.6891    6.9707   27.4895 H   0  0  0  0  0  0  0  0  0  0  0  0
   14.4822    8.0146   26.0665 H   0  0  0  0  0  0  0  0  0  0  0  0
   14.4834    8.7000   27.7075 H   0  0  0  0  0  0  0  0  0  0  0  0
    9.0901   -1.6664   22.2639 H   0  0  0  0  0  0  0  0  0  0  0  0
    8.6579   -0.3097   23.2977 H   0  0  0  0  0  0  0  0  0  0  0  0
    7.3129   -1.4300   20.9567 H   0  0  0  0  0  0  0  0  0  0  0  0
  1  5  2  0  0  0  0
  1  8  1  0  0  0  0
  2  7  1  0  0  0  0
  2  9  2  0  0  0  0
  3  7  2  0  0  0  0
  3 11  1  0  0  0  0
  4  9  1  0  0  0  0
  4 11  2  0  0  0  0
  5 26  1  0  0  0  0
  6 10  1  0  0  0  0
  6 26  2  0  0  0  0
  7 19  1  6  0  0  0
  8 10  2  0  0  0  0
  8 20  1  0  0  0  0
  9 24  1  0  0  0  0
 10 28  1  0  0  0  0
 11 32  1  0  0  0  0
 12 24  1  0  0  0  0
 12 28  1  0  0  0  0
 12 29  2  0  0  0  0
 13 27  1  0  0  0  0
 13 30  2  0  0  0  0
 13 31  1  0  0  0  0
 14 16  1  0  0  0  0
 14 19  1  0  0  0  0
 15 18  1  0  0  0  0
 15 19  1  0  0  0  0
 16 27  1  0  0  0  0
 17 18  1  6  0  0  0
 17 27  1  0  0  0  0
 18 19  1  0  0  0  0
 21 25  1  0  0  0  0
 22 25  1  0  0  0  0
 23 25  1  0  0  0  0
 25 31  1  0  0  0  0
  1 33  1  0  0  0  0
  2 34  1  0  0  0  0
  3 35  1  0  0  0  0
  4 36  1  0  0  0  0
  5 37  1  0  0  0  0
  6 38  1  0  0  0  0
 14 39  1  0  0  0  0
 14 40  1  0  0  0  0
 15 41  1  0  0  0  0
 15 42  1  0  0  0  0
 16 43  1  0  0  0  0
 16 44  1  0  0  0  0
 17 45  1  0  0  0  0
 17 46  1  0  0  0  0
 18 47  1  0  0  0  0
 20 48  1  0  0  0  0
 20 49  1  0  0  0  0
 20 50  1  0  0  0  0
 21 51  1  0  0  0  0
 21 52  1  0  0  0  0
 21 53  1  0  0  0  0
 22 54  1  0  0  0  0
 22 55  1  0  0  0  0
 22 56  1  0  0  0  0
 23 57  1  0  0  0  0
 23 58  1  0  0  0  0
 23 59  1  0  0  0  0
 24 60  1  0  0  0  0
 24 61  1  0  0  0  0
 28 62  1  0  0  0  0
M  END
> <BB_SMILES>
CC(C)(C)OC(=O)N1CCC2(B3OC(C)(C)C(C)(C)O3)CC2C1

> <scaffold_SMILES>
Cc1ccncc1NC(=O)Cc1cc(Cl)cc(Br)c1

$$$$
EN300-703512
  -OEChem-07272002243D

 59 61  0     0  0  0  0  0  0999 V2000
    5.0000    1.4070   18.8080 C   0  0  0  0  0  0  0  0  0  0  0  0
   11.0490    1.0010   23.0460 C   0  0  0  0  0  0  0  0  0  0  0  0
   13.3680    0.4840   22.6240 C   0  0  0  0  0  0  0  0  0  0  0  0
   11.6520   -1.1420   22.1450 C   0  0  0  0  0  0  0  0  0  0  0  0
    5.5330    1.3060   17.5390 C   0  0  0  0  0  0  0  0  0  0  0  0
    7.2400   -0.0390   18.2610 C   0  0  0  0  0  0  0  0  0  0  0  0
   12.3850    1.3610   23.0530 C   0  0  0  0  0  0  0  0  0  0  0  0
    5.6260    0.7590   19.8690 C   0  0  0  0  0  0  0  0  0  0  0  0
   10.6720   -0.2500   22.5660 C   0  0  0  0  0  0  0  0  0  0  0  0
    6.7930    0.0210   19.5790 C   0  0  0  0  0  0  0  0  0  0  0  0
   12.9770   -0.7640   22.1810 C   0  0  0  0  0  0  0  0  0  0  0  0
   11.9826    3.7593   23.4462 C   0  0  0  0  0  0  0  0  0  0  0  0
   12.7629    2.6760   23.5178 C   0  0  0  0  0  0  0  0  0  0  0  0
    8.6020    0.1230   21.2070 C   0  0  0  0  0  0  0  0  0  0  0  0
    9.3654    5.7841   21.8701 C   0  0  0  0  0  0  0  0  0  0  0  0
   12.3634    5.1293   23.9245 C   0  0  0  0  0  0  0  0  0  0  0  0
   10.6482    3.8083   22.7697 C   0  0  0  0  0  0  0  0  0  0  0  0
   11.5789    6.0306   22.9864 C   0  0  0  0  0  0  0  0  0  0  0  0
    5.0980    0.9060   21.2740 C   0  0  0  0  0  0  0  0  0  0  0  0
    7.7473    6.0400   19.5281 C   0  0  0  0  0  0  0  0  0  0  0  0
    6.4434    4.0966   20.4404 C   0  0  0  0  0  0  0  0  0  0  0  0
    6.5430    6.2507   21.7281 C   0  0  0  0  0  0  0  0  0  0  0  0
    9.2100   -0.5900   22.3990 C   0  0  0  0  0  0  0  0  0  0  0  0
    7.3018    5.3092   20.7939 C   0  0  0  0  0  0  0  0  0  0  0  0
    6.6320    0.5940   17.2520 N   0  0  0  0  0  0  0  0  0  0  0  0
   10.4570    5.2308   22.5210 N   0  0  0  0  0  0  0  0  0  0  0  0
    7.5630   -0.5230   20.6330 N   0  0  0  0  0  0  0  0  0  0  0  0
    9.0150    1.2120   20.8220 O   0  0  0  0  0  0  0  0  0  0  0  0
    9.2185    6.9874   21.6678 O   0  0  0  0  0  0  0  0  0  0  0  0
    8.4656    4.8297   21.4767 O   0  0  0  0  0  0  0  0  0  0  0  0
   14.1940   -1.9100   21.6990 Cl  0  0  0  0  0  0  0  0  0  0  0  0
    4.0894    1.9955   18.9731 H   0  0  0  0  0  0  0  0  0  0  0  0
   10.2871    1.6869   23.4136 H   0  0  0  0  0  0  0  0  0  0  0  0
   14.4083    0.7693   22.6351 H   0  0  0  0  0  0  0  0  0  0  0  0
   11.3638   -2.1297   21.7903 H   0  0  0  0  0  0  0  0  0  0  0  0
    5.0712    1.8129   16.6995 H   0  0  0  0  0  0  0  0  0  0  0  0
    8.1159   -0.6122   17.9919 H   0  0  0  0  0  0  0  0  0  0  0  0
   13.7405    2.7911   23.9833 H   0  0  0  0  0  0  0  0  0  0  0  0
   12.1039    5.3090   24.9717 H   0  0  0  0  0  0  0  0  0  0  0  0
   13.4396    5.2814   23.7865 H   0  0  0  0  0  0  0  0  0  0  0  0
   10.6556    3.2867   21.8077 H   0  0  0  0  0  0  0  0  0  0  0  0
    9.8318    3.4371   23.3965 H   0  0  0  0  0  0  0  0  0  0  0  0
   11.1680    6.8980   23.5163 H   0  0  0  0  0  0  0  0  0  0  0  0
   12.1743    6.3932   22.1426 H   0  0  0  0  0  0  0  0  0  0  0  0
    4.0061    1.0015   21.2613 H   0  0  0  0  0  0  0  0  0  0  0  0
    5.3661    0.0394   21.8908 H   0  0  0  0  0  0  0  0  0  0  0  0
    5.5208    1.7910   21.7656 H   0  0  0  0  0  0  0  0  0  0  0  0
    8.3637    6.9111   19.7776 H   0  0  0  0  0  0  0  0  0  0  0  0
    8.3227    5.3851   18.8656 H   0  0  0  0  0  0  0  0  0  0  0  0
    6.8832    6.4217   18.9724 H   0  0  0  0  0  0  0  0  0  0  0  0
    6.1215    3.5692   21.3457 H   0  0  0  0  0  0  0  0  0  0  0  0
    7.0153    3.3728   19.8485 H   0  0  0  0  0  0  0  0  0  0  0  0
    5.5533    4.3837   19.8714 H   0  0  0  0  0  0  0  0  0  0  0  0
    6.2233    5.7267   22.6361 H   0  0  0  0  0  0  0  0  0  0  0  0
    7.1568    7.1083   22.0220 H   0  0  0  0  0  0  0  0  0  0  0  0
    5.6306    6.6234   21.2487 H   0  0  0  0  0  0  0  0  0  0  0  0
    9.0900   -1.6664   22.2639 H   0  0  0  0  0  0  0  0  0  0  0  0
    8.6578   -0.3097   23.2977 H   0  0  0  0  0  0  0  0  0  0  0  0
    7.3129   -1.4300   20.9567 H   0  0  0  0  0  0  0  0  0  0  0  0
  1  5  2  0  0  0  0
  1  8  1  0  0  0  0
  2  7  1  0  0  0  0
  2  9  2  0  0  0  0
  3  7  2  0  0  0  0
  3 11  1  0  0  0  0
  4  9  1  0  0  0  0
  4 11  2  0  0  0  0
  5 25  1  0  0  0  0
  6 10  1  0  0  0  0
  6 25  2  0  0  0  0
  7 13  1  0  0  0  0
  8 10  2  0  0  0  0
  8 19  1  0  0  0  0
  9 23  1  0  0  0  0
 10 27  1  0  0  0  0
 11 31  1  0  0  0  0
 12 13  2  0  0  0  0
 12 16  1  0  0  0  0
 12 17  1  0  0  0  0
 14 23  1  0  0  0  0
 14 27  1  0  0  0  0
 14 28  2  0  0  0  0
 15 26  1  0  0  0  0
 15 29  2  0  0  0  0
 15 30  1  0  0  0  0
 16 18  1  0  0  0  0
 17 26  1  0  0  0  0
 18 26  1  0  0  0  0
 20 24  1  0  0  0  0
 21 24  1  0  0  0  0
 22 24  1  0  0  0  0
 24 30  1  0  0  0  0
  1 32  1  0  0  0  0
  2 33  1  0  0  0  0
  3 34  1  0  0  0  0
  4 35  1  0  0  0  0
  5 36  1  0  0  0  0
  6 37  1  0  0  0  0
 13 38  1  0  0  0  0
 16 39  1  0  0  0  0
 16 40  1  0  0  0  0
 17 41  1  0  0  0  0
 17 42  1  0  0  0  0
 18 43  1  0  0  0  0
 18 44  1  0  0  0  0
 19 45  1  0  0  0  0
 19 46  1  0  0  0  0
 19 47  1  0  0  0  0
 20 48  1  0  0  0  0
 20 49  1  0  0  0  0
 20 50  1  0  0  0  0
 21 51  1  0  0  0  0
 21 52  1  0  0  0  0
 21 53  1  0  0  0  0
 22 54  1  0  0  0  0
 22 55  1  0  0  0  0
 22 56  1  0  0  0  0
 23 57  1  0  0  0  0
 23 58  1  0  0  0  0
 27 59  1  0  0  0  0
M  END
> <BB_SMILES>
CC(C)(C)OC(=O)N1CC/C(=C/B2OC(C)(C)C(C)(C)O2)C1

> <scaffold_SMILES>
Cc1ccncc1NC(=O)Cc1cc(Cl)cc(Br)c1

$$$$
EN300-703512
  -OEChem-07272002243D

 59 61  0     0  0  0  0  0  0999 V2000
    5.0000    1.4070   18.8080 C   0  0  0  0  0  0  0  0  0  0  0  0
   11.0490    1.0010   23.0460 C   0  0  0  0  0  0  0  0  0  0  0  0
   13.3680    0.4840   22.6240 C   0  0  0  0  0  0  0  0  0  0  0  0
   11.6520   -1.1420   22.1450 C   0  0  0  0  0  0  0  0  0  0  0  0
    5.5330    1.3060   17.5390 C   0  0  0  0  0  0  0  0  0  0  0  0
    7.2400   -0.0390   18.2610 C   0  0  0  0  0  0  0  0  0  0  0  0
   12.3850    1.3610   23.0530 C   0  0  0  0  0  0  0  0  0  0  0  0
    5.6260    0.7590   19.8690 C   0  0  0  0  0  0  0  0  0  0  0  0
   10.6720   -0.2500   22.5660 C   0  0  0  0  0  0  0  0  0  0  0  0
    6.7930    0.0210   19.5790 C   0  0  0  0  0  0  0  0  0  0  0  0
   12.9770   -0.7640   22.1810 C   0  0  0  0  0  0  0  0  0  0  0  0
   12.3205    3.8228   22.9917 C   0  0  0  0  0  0  0  0  0  0  0  0
   12.7629    2.6760   23.5178 C   0  0  0  0  0  0  0  0  0  0  0  0
    8.6020    0.1230   21.2070 C   0  0  0  0  0  0  0  0  0  0  0  0
   11.3688    7.3546   23.2247 C   0  0  0  0  0  0  0  0  0  0  0  0
   11.3649    3.9310   21.8403 C   0  0  0  0  0  0  0  0  0  0  0  0
   12.6130    5.1842   23.5410 C   0  0  0  0  0  0  0  0  0  0  0  0
   10.6419    5.2332   22.1395 C   0  0  0  0  0  0  0  0  0  0  0  0
    5.0980    0.9060   21.2740 C   0  0  0  0  0  0  0  0  0  0  0  0
   10.7289    8.4788   25.7732 C   0  0  0  0  0  0  0  0  0  0  0  0
   13.0922    9.3298   25.7857 C   0  0  0  0  0  0  0  0  0  0  0  0
   11.4928   10.1058   24.0115 C   0  0  0  0  0  0  0  0  0  0  0  0
    9.2100   -0.5900   22.3990 C   0  0  0  0  0  0  0  0  0  0  0  0
   11.9026    8.9404   24.9107 C   0  0  0  0  0  0  0  0  0  0  0  0
    6.6320    0.5940   17.2520 N   0  0  0  0  0  0  0  0  0  0  0  0
   11.5504    6.0035   22.9739 N   0  0  0  0  0  0  0  0  0  0  0  0
    7.5630   -0.5230   20.6330 N   0  0  0  0  0  0  0  0  0  0  0  0
    9.0150    1.2120   20.8220 O   0  0  0  0  0  0  0  0  0  0  0  0
   10.4666    8.0325   22.7381 O   0  0  0  0  0  0  0  0  0  0  0  0
   12.3160    7.8484   24.0816 O   0  0  0  0  0  0  0  0  0  0  0  0
   14.1940   -1.9100   21.6990 Cl  0  0  0  0  0  0  0  0  0  0  0  0
    4.0894    1.9955   18.9731 H   0  0  0  0  0  0  0  0  0  0  0  0
   10.2871    1.6869   23.4136 H   0  0  0  0  0  0  0  0  0  0  0  0
   14.4083    0.7693   22.6351 H   0  0  0  0  0  0  0  0  0  0  0  0
   11.3638   -2.1297   21.7903 H   0  0  0  0  0  0  0  0  0  0  0  0
    5.0712    1.8129   16.6995 H   0  0  0  0  0  0  0  0  0  0  0  0
    8.1159   -0.6122   17.9919 H   0  0  0  0  0  0  0  0  0  0  0  0
   13.4342    2.7415   24.3726 H   0  0  0  0  0  0  0  0  0  0  0  0
   11.8626    3.9573   20.8667 H   0  0  0  0  0  0  0  0  0  0  0  0
   10.6617    3.0912   21.8653 H   0  0  0  0  0  0  0  0  0  0  0  0
   12.5286    5.2142   24.6316 H   0  0  0  0  0  0  0  0  0  0  0  0
   13.5831    5.5789   23.2243 H   0  0  0  0  0  0  0  0  0  0  0  0
   10.4645    5.8110   21.2248 H   0  0  0  0  0  0  0  0  0  0  0  0
    9.6821    5.0845   22.6442 H   0  0  0  0  0  0  0  0  0  0  0  0
    5.5491    0.1526   21.9300 H   0  0  0  0  0  0  0  0  0  0  0  0
    5.3208    1.9008   21.6790 H   0  0  0  0  0  0  0  0  0  0  0  0
    4.0078    0.7866   21.3021 H   0  0  0  0  0  0  0  0  0  0  0  0
    9.8730    8.1984   25.1489 H   0  0  0  0  0  0  0  0  0  0  0  0
   10.9998    7.6210   26.3974 H   0  0  0  0  0  0  0  0  0  0  0  0
   10.3827    9.2872   26.4274 H   0  0  0  0  0  0  0  0  0  0  0  0
   13.9366    9.6616   25.1709 H   0  0  0  0  0  0  0  0  0  0  0  0
   13.4500    8.4697   26.3631 H   0  0  0  0  0  0  0  0  0  0  0  0
   12.8346   10.1330   26.4835 H   0  0  0  0  0  0  0  0  0  0  0  0
   12.3345   10.4371   23.3926 H   0  0  0  0  0  0  0  0  0  0  0  0
   10.6640    9.8329   23.3501 H   0  0  0  0  0  0  0  0  0  0  0  0
   11.1895   10.9722   24.6104 H   0  0  0  0  0  0  0  0  0  0  0  0
    9.0900   -1.6664   22.2639 H   0  0  0  0  0  0  0  0  0  0  0  0
    8.6578   -0.3097   23.2977 H   0  0  0  0  0  0  0  0  0  0  0  0
    7.3129   -1.4300   20.9567 H   0  0  0  0  0  0  0  0  0  0  0  0
  1  5  2  0  0  0  0
  1  8  1  0  0  0  0
  2  7  1  0  0  0  0
  2  9  2  0  0  0  0
  3  7  2  0  0  0  0
  3 11  1  0  0  0  0
  4  9  1  0  0  0  0
  4 11  2  0  0  0  0
  5 25  1  0  0  0  0
  6 10  1  0  0  0  0
  6 25  2  0  0  0  0
  7 13  1  0  0  0  0
  8 10  2  0  0  0  0
  8 19  1  0  0  0  0
  9 23  1  0  0  0  0
 10 27  1  0  0  0  0
 11 31  1  0  0  0  0
 12 13  2  0  0  0  0
 12 16  1  0  0  0  0
 12 17  1  0  0  0  0
 14 23  1  0  0  0  0
 14 27  1  0  0  0  0
 14 28  2  0  0  0  0
 15 26  1  0  0  0  0
 15 29  2  0  0  0  0
 15 30  1  0  0  0  0
 16 18  1  0  0  0  0
 17 26  1  0  0  0  0
 18 26  1  0  0  0  0
 20 24  1  0  0  0  0
 21 24  1  0  0  0  0
 22 24  1  0  0  0  0
 24 30  1  0  0  0  0
  1 32  1  0  0  0  0
  2 33  1  0  0  0  0
  3 34  1  0  0  0  0
  4 35  1  0  0  0  0
  5 36  1  0  0  0  0
  6 37  1  0  0  0  0
 13 38  1  0  0  0  0
 16 39  1  0  0  0  0
 16 40  1  0  0  0  0
 17 41  1  0  0  0  0
 17 42  1  0  0  0  0
 18 43  1  0  0  0  0
 18 44  1  0  0  0  0
 19 45  1  0  0  0  0
 19 46  1  0  0  0  0
 19 47  1  0  0  0  0
 20 48  1  0  0  0  0
 20 49  1  0  0  0  0
 20 50  1  0  0  0  0
 21 51  1  0  0  0  0
 21 52  1  0  0  0  0
 21 53  1  0  0  0  0
 22 54  1  0  0  0  0
 22 55  1  0  0  0  0
 22 56  1  0  0  0  0
 23 57  1  0  0  0  0
 23 58  1  0  0  0  0
 27 59  1  0  0  0  0
M  END
> <BB_SMILES>
CC(C)(C)OC(=O)N1CC/C(=C/B2OC(C)(C)C(C)(C)O2)C1

> <scaffold_SMILES>
Cc1ccncc1NC(=O)Cc1cc(Cl)cc(Br)c1

$$$$
EN300-703517
  -OEChem-07272002243D

 40 42  0     0  0  0  0  0  0999 V2000
    5.0000    1.4070   18.8080 C   0  0  0  0  0  0  0  0  0  0  0  0
   11.0490    1.0010   23.0460 C   0  0  0  0  0  0  0  0  0  0  0  0
   13.3680    0.4840   22.6240 C   0  0  0  0  0  0  0  0  0  0  0  0
   11.6520   -1.1420   22.1450 C   0  0  0  0  0  0  0  0  0  0  0  0
    5.5330    1.3060   17.5390 C   0  0  0  0  0  0  0  0  0  0  0  0
    7.2400   -0.0390   18.2610 C   0  0  0  0  0  0  0  0  0  0  0  0
   12.3850    1.3610   23.0530 C   0  0  0  0  0  0  0  0  0  0  0  0
    5.6260    0.7590   19.8690 C   0  0  0  0  0  0  0  0  0  0  0  0
   10.6720   -0.2500   22.5660 C   0  0  0  0  0  0  0  0  0  0  0  0
    6.7930    0.0210   19.5790 C   0  0  0  0  0  0  0  0  0  0  0  0
   12.9770   -0.7640   22.1810 C   0  0  0  0  0  0  0  0  0  0  0  0
   12.3183    3.8228   22.9908 C   0  0  0  0  0  0  0  0  0  0  0  0
   12.7686    2.6957   23.5248 C   0  0  0  0  0  0  0  0  0  0  0  0
    8.6020    0.1230   21.2070 C   0  0  0  0  0  0  0  0  0  0  0  0
   12.5349    5.2736   23.2631 C   0  0  0  0  0  0  0  0  0  0  0  0
   11.3882    4.1567   21.8732 C   0  0  0  0  0  0  0  0  0  0  0  0
    5.0980    0.9060   21.2740 C   0  0  0  0  0  0  0  0  0  0  0  0
    9.2100   -0.5900   22.3990 C   0  0  0  0  0  0  0  0  0  0  0  0
    6.6320    0.5940   17.2520 N   0  0  0  0  0  0  0  0  0  0  0  0
    7.5630   -0.5230   20.6330 N   0  0  0  0  0  0  0  0  0  0  0  0
    9.0150    1.2120   20.8220 O   0  0  0  0  0  0  0  0  0  0  0  0
   11.6298    5.5462   22.1740 O   0  0  0  0  0  0  0  0  0  0  0  0
   14.1940   -1.9100   21.6990 Cl  0  0  0  0  0  0  0  0  0  0  0  0
    4.0894    1.9955   18.9731 H   0  0  0  0  0  0  0  0  0  0  0  0
   10.2871    1.6869   23.4136 H   0  0  0  0  0  0  0  0  0  0  0  0
   14.4083    0.7693   22.6351 H   0  0  0  0  0  0  0  0  0  0  0  0
   11.3638   -2.1297   21.7903 H   0  0  0  0  0  0  0  0  0  0  0  0
    5.0712    1.8129   16.6995 H   0  0  0  0  0  0  0  0  0  0  0  0
    8.1159   -0.6122   17.9919 H   0  0  0  0  0  0  0  0  0  0  0  0
   13.4334    2.7429   24.3716 H   0  0  0  0  0  0  0  0  0  0  0  0
   12.1551    5.6661   24.2105 H   0  0  0  0  0  0  0  0  0  0  0  0
   13.5333    5.6746   23.0673 H   0  0  0  0  0  0  0  0  0  0  0  0
   11.7127    3.9012   20.8606 H   0  0  0  0  0  0  0  0  0  0  0  0
   10.3349    3.8936   22.0044 H   0  0  0  0  0  0  0  0  0  0  0  0
    4.0055    0.9943   21.2619 H   0  0  0  0  0  0  0  0  0  0  0  0
    5.3722    0.0427   21.8928 H   0  0  0  0  0  0  0  0  0  0  0  0
    5.5153    1.7949   21.7631 H   0  0  0  0  0  0  0  0  0  0  0  0
    9.0900   -1.6664   22.2639 H   0  0  0  0  0  0  0  0  0  0  0  0
    8.6578   -0.3097   23.2977 H   0  0  0  0  0  0  0  0  0  0  0  0
    7.3129   -1.4300   20.9567 H   0  0  0  0  0  0  0  0  0  0  0  0
  1  5  2  0  0  0  0
  1  8  1  0  0  0  0
  2  7  1  0  0  0  0
  2  9  2  0  0  0  0
  3  7  2  0  0  0  0
  3 11  1  0  0  0  0
  4  9  1  0  0  0  0
  4 11  2  0  0  0  0
  5 19  1  0  0  0  0
  6 10  1  0  0  0  0
  6 19  2  0  0  0  0
  7 13  1  0  0  0  0
  8 10  2  0  0  0  0
  8 17  1  0  0  0  0
  9 18  1  0  0  0  0
 10 20  1  0  0  0  0
 11 23  1  0  0  0  0
 12 13  2  0  0  0  0
 12 15  1  0  0  0  0
 12 16  1  0  0  0  0
 14 18  1  0  0  0  0
 14 20  1  0  0  0  0
 14 21  2  0  0  0  0
 15 22  1  0  0  0  0
 16 22  1  0  0  0  0
  1 24  1  0  0  0  0
  2 25  1  0  0  0  0
  3 26  1  0  0  0  0
  4 27  1  0  0  0  0
  5 28  1  0  0  0  0
  6 29  1  0  0  0  0
 13 30  1  0  0  0  0
 15 31  1  0  0  0  0
 15 32  1  0  0  0  0
 16 33  1  0  0  0  0
 16 34  1  0  0  0  0
 17 35  1  0  0  0  0
 17 36  1  0  0  0  0
 17 37  1  0  0  0  0
 18 38  1  0  0  0  0
 18 39  1  0  0  0  0
 20 40  1  0  0  0  0
M  END
> <BB_SMILES>
CC1(C)OB(C=C2COC2)OC1(C)C

> <scaffold_SMILES>
Cc1ccncc1NC(=O)Cc1cc(Cl)cc(Br)c1

$$$$
EN300-832853
  -OEChem-07272002243D

 49 52  0     1  0  0  0  0  0999 V2000
    5.0000    1.4070   18.8080 C   0  0  0  0  0  0  0  0  0  0  0  0
   11.0490    1.0010   23.0460 C   0  0  0  0  0  0  0  0  0  0  0  0
   13.3680    0.4840   22.6240 C   0  0  0  0  0  0  0  0  0  0  0  0
   11.6520   -1.1420   22.1450 C   0  0  0  0  0  0  0  0  0  0  0  0
    5.5330    1.3060   17.5390 C   0  0  0  0  0  0  0  0  0  0  0  0
    7.2400   -0.0390   18.2610 C   0  0  0  0  0  0  0  0  0  0  0  0
   12.3850    1.3610   23.0530 C   0  0  0  0  0  0  0  0  0  0  0  0
    5.6260    0.7590   19.8690 C   0  0  0  0  0  0  0  0  0  0  0  0
   10.6720   -0.2500   22.5660 C   0  0  0  0  0  0  0  0  0  0  0  0
    6.7930    0.0210   19.5790 C   0  0  0  0  0  0  0  0  0  0  0  0
   12.9770   -0.7640   22.1810 C   0  0  0  0  0  0  0  0  0  0  0  0
    8.6020    0.1230   21.2070 C   0  0  0  0  0  0  0  0  0  0  0  0
   13.9851    3.3378   21.2558 C   0  0  0  0  0  0  0  0  0  0  0  0
   14.6654    4.5317   23.3594 C   0  0  0  0  0  0  0  0  0  0  0  0
   12.1539    3.9939   22.9632 C   0  0  0  0  0  0  0  0  0  0  0  0
   14.3914    4.5988   20.4982 C   0  0  0  0  0  0  0  0  0  0  0  0
   15.0330    5.7217   22.4794 C   0  0  0  0  0  0  0  0  0  0  0  0
   12.7839    2.7483   23.5433 C   0  0  2  0  0  0  0  0  0  0  0  0
   13.6037    3.6981   22.6762 C   0  0  0  0  0  0  0  0  0  0  0  0
    5.0980    0.9060   21.2740 C   0  0  0  0  0  0  0  0  0  0  0  0
    9.2100   -0.5900   22.3990 C   0  0  0  0  0  0  0  0  0  0  0  0
    6.6320    0.5940   17.2520 N   0  0  0  0  0  0  0  0  0  0  0  0
    7.5630   -0.5230   20.6330 N   0  0  0  0  0  0  0  0  0  0  0  0
    9.0150    1.2120   20.8220 O   0  0  0  0  0  0  0  0  0  0  0  0
   15.4483    5.2760   21.1848 O   0  0  0  0  0  0  0  0  0  0  0  0
   14.1940   -1.9100   21.6990 Cl  0  0  0  0  0  0  0  0  0  0  0  0
    4.0894    1.9955   18.9731 H   0  0  0  0  0  0  0  0  0  0  0  0
   10.2920    1.6908   23.4149 H   0  0  0  0  0  0  0  0  0  0  0  0
   14.4066    0.7739   22.6379 H   0  0  0  0  0  0  0  0  0  0  0  0
   11.3632   -2.1298   21.7911 H   0  0  0  0  0  0  0  0  0  0  0  0
    5.0712    1.8129   16.6995 H   0  0  0  0  0  0  0  0  0  0  0  0
    8.1159   -0.6122   17.9919 H   0  0  0  0  0  0  0  0  0  0  0  0
   13.1686    2.8390   20.7226 H   0  0  0  0  0  0  0  0  0  0  0  0
   14.8337    2.6437   21.2931 H   0  0  0  0  0  0  0  0  0  0  0  0
   15.5500    3.9013   23.5124 H   0  0  0  0  0  0  0  0  0  0  0  0
   14.3353    4.8843   24.3431 H   0  0  0  0  0  0  0  0  0  0  0  0
   11.4340    3.8864   22.1595 H   0  0  0  0  0  0  0  0  0  0  0  0
   11.9168    4.8008   23.6478 H   0  0  0  0  0  0  0  0  0  0  0  0
   14.7572    4.3335   19.5014 H   0  0  0  0  0  0  0  0  0  0  0  0
   13.5440    5.2829   20.3718 H   0  0  0  0  0  0  0  0  0  0  0  0
   14.1925    6.4170   22.3711 H   0  0  0  0  0  0  0  0  0  0  0  0
   15.8663    6.2731   22.9258 H   0  0  0  0  0  0  0  0  0  0  0  0
   12.9887    2.7860   24.6187 H   0  0  0  0  0  0  0  0  0  0  0  0
    4.5499    1.8496   21.3769 H   0  0  0  0  0  0  0  0  0  0  0  0
    4.4239    0.0801   21.5325 H   0  0  0  0  0  0  0  0  0  0  0  0
    5.9140    0.8937   22.0072 H   0  0  0  0  0  0  0  0  0  0  0  0
    9.0901   -1.6664   22.2639 H   0  0  0  0  0  0  0  0  0  0  0  0
    8.6579   -0.3097   23.2977 H   0  0  0  0  0  0  0  0  0  0  0  0
    7.3129   -1.4300   20.9567 H   0  0  0  0  0  0  0  0  0  0  0  0
  1  5  2  0  0  0  0
  1  8  1  0  0  0  0
  2  7  1  0  0  0  0
  2  9  2  0  0  0  0
  3  7  2  0  0  0  0
  3 11  1  0  0  0  0
  4  9  1  0  0  0  0
  4 11  2  0  0  0  0
  5 22  1  0  0  0  0
  6 10  1  0  0  0  0
  6 22  2  0  0  0  0
  7 18  1  1  0  0  0
  8 10  2  0  0  0  0
  8 20  1  0  0  0  0
  9 21  1  0  0  0  0
 10 23  1  0  0  0  0
 11 26  1  0  0  0  0
 12 21  1  0  0  0  0
 12 23  1  0  0  0  0
 12 24  2  0  0  0  0
 13 16  1  0  0  0  0
 13 19  1  0  0  0  0
 14 17  1  0  0  0  0
 14 19  1  0  0  0  0
 15 18  1  0  0  0  0
 15 19  1  0  0  0  0
 16 25  1  0  0  0  0
 17 25  1  0  0  0  0
 18 19  1  0  0  0  0
  1 27  1  0  0  0  0
  2 28  1  0  0  0  0
  3 29  1  0  0  0  0
  4 30  1  0  0  0  0
  5 31  1  0  0  0  0
  6 32  1  0  0  0  0
 13 33  1  0  0  0  0
 13 34  1  0  0  0  0
 14 35  1  0  0  0  0
 14 36  1  0  0  0  0
 15 37  1  0  0  0  0
 15 38  1  0  0  0  0
 16 39  1  0  0  0  0
 16 40  1  0  0  0  0
 17 41  1  0  0  0  0
 17 42  1  0  0  0  0
 18 43  1  0  0  0  0
 20 44  1  0  0  0  0
 20 45  1  0  0  0  0
 20 46  1  0  0  0  0
 21 47  1  0  0  0  0
 21 48  1  0  0  0  0
 23 49  1  0  0  0  0
M  END
> <BB_SMILES>
CC1(C)OB(C2CC23CCOCC3)OC1(C)C

> <scaffold_SMILES>
Cc1ccncc1NC(=O)Cc1cc(Cl)cc(Br)c1

$$$$
EN300-832853
  -OEChem-07272002243D

 49 52  0     1  0  0  0  0  0999 V2000
    5.0000    1.4070   18.8080 C   0  0  0  0  0  0  0  0  0  0  0  0
   11.0490    1.0010   23.0460 C   0  0  0  0  0  0  0  0  0  0  0  0
   13.3680    0.4840   22.6240 C   0  0  0  0  0  0  0  0  0  0  0  0
   11.6520   -1.1420   22.1450 C   0  0  0  0  0  0  0  0  0  0  0  0
    5.5330    1.3060   17.5390 C   0  0  0  0  0  0  0  0  0  0  0  0
    7.2400   -0.0390   18.2610 C   0  0  0  0  0  0  0  0  0  0  0  0
   12.3850    1.3610   23.0530 C   0  0  0  0  0  0  0  0  0  0  0  0
    5.6260    0.7590   19.8690 C   0  0  0  0  0  0  0  0  0  0  0  0
   10.6720   -0.2500   22.5660 C   0  0  0  0  0  0  0  0  0  0  0  0
    6.7930    0.0210   19.5790 C   0  0  0  0  0  0  0  0  0  0  0  0
   12.9770   -0.7640   22.1810 C   0  0  0  0  0  0  0  0  0  0  0  0
    8.6020    0.1230   21.2070 C   0  0  0  0  0  0  0  0  0  0  0  0
   11.8847    5.1785   23.8702 C   0  0  0  0  0  0  0  0  0  0  0  0
   11.2625    3.9953   21.7421 C   0  0  0  0  0  0  0  0  0  0  0  0
   13.6299    3.6730   22.7006 C   0  0  0  0  0  0  0  0  0  0  0  0
   10.3980    5.1943   24.2066 C   0  0  0  0  0  0  0  0  0  0  0  0
    9.8080    4.1103   22.1886 C   0  0  0  0  0  0  0  0  0  0  0  0
   12.7840    2.7487   23.5435 C   0  0  1  0  0  0  0  0  0  0  0  0
   12.1840    4.0198   22.9439 C   0  0  0  0  0  0  0  0  0  0  0  0
    5.0980    0.9060   21.2740 C   0  0  0  0  0  0  0  0  0  0  0  0
    9.2100   -0.5900   22.3990 C   0  0  0  0  0  0  0  0  0  0  0  0
    6.6320    0.5940   17.2520 N   0  0  0  0  0  0  0  0  0  0  0  0
    7.5630   -0.5230   20.6330 N   0  0  0  0  0  0  0  0  0  0  0  0
    9.0150    1.2120   20.8220 O   0  0  0  0  0  0  0  0  0  0  0  0
    9.6212    5.2684   23.0075 O   0  0  0  0  0  0  0  0  0  0  0  0
   14.1940   -1.9100   21.6990 Cl  0  0  0  0  0  0  0  0  0  0  0  0
    4.0894    1.9955   18.9731 H   0  0  0  0  0  0  0  0  0  0  0  0
   10.2920    1.6908   23.4149 H   0  0  0  0  0  0  0  0  0  0  0  0
   14.4066    0.7739   22.6379 H   0  0  0  0  0  0  0  0  0  0  0  0
   11.3632   -2.1298   21.7911 H   0  0  0  0  0  0  0  0  0  0  0  0
    5.0712    1.8129   16.6995 H   0  0  0  0  0  0  0  0  0  0  0  0
    8.1159   -0.6122   17.9919 H   0  0  0  0  0  0  0  0  0  0  0  0
   12.1768    6.1373   23.4293 H   0  0  0  0  0  0  0  0  0  0  0  0
   12.4680    5.0422   24.7885 H   0  0  0  0  0  0  0  0  0  0  0  0
   11.4101    3.0418   21.2149 H   0  0  0  0  0  0  0  0  0  0  0  0
   11.4902    4.8016   21.0319 H   0  0  0  0  0  0  0  0  0  0  0  0
   14.3937    4.2550   23.2059 H   0  0  0  0  0  0  0  0  0  0  0  0
   13.9250    3.3487   21.7081 H   0  0  0  0  0  0  0  0  0  0  0  0
   10.1226    4.2728   24.7272 H   0  0  0  0  0  0  0  0  0  0  0  0
   10.1418    6.0374   24.8576 H   0  0  0  0  0  0  0  0  0  0  0  0
    9.1264    4.1599   21.3297 H   0  0  0  0  0  0  0  0  0  0  0  0
    9.5288    3.2330   22.7823 H   0  0  0  0  0  0  0  0  0  0  0  0
   12.9888    2.7836   24.6219 H   0  0  0  0  0  0  0  0  0  0  0  0
    5.9267    1.0364   21.9795 H   0  0  0  0  0  0  0  0  0  0  0  0
    4.4285    1.7709   21.3573 H   0  0  0  0  0  0  0  0  0  0  0  0
    4.5189    0.0238   21.5740 H   0  0  0  0  0  0  0  0  0  0  0  0
    9.0901   -1.6664   22.2639 H   0  0  0  0  0  0  0  0  0  0  0  0
    8.6579   -0.3097   23.2977 H   0  0  0  0  0  0  0  0  0  0  0  0
    7.3129   -1.4300   20.9567 H   0  0  0  0  0  0  0  0  0  0  0  0
  1  5  2  0  0  0  0
  1  8  1  0  0  0  0
  2  7  1  0  0  0  0
  2  9  2  0  0  0  0
  3  7  2  0  0  0  0
  3 11  1  0  0  0  0
  4  9  1  0  0  0  0
  4 11  2  0  0  0  0
  5 22  1  0  0  0  0
  6 10  1  0  0  0  0
  6 22  2  0  0  0  0
  7 18  1  6  0  0  0
  8 10  2  0  0  0  0
  8 20  1  0  0  0  0
  9 21  1  0  0  0  0
 10 23  1  0  0  0  0
 11 26  1  0  0  0  0
 12 21  1  0  0  0  0
 12 23  1  0  0  0  0
 12 24  2  0  0  0  0
 13 16  1  0  0  0  0
 13 19  1  0  0  0  0
 14 17  1  0  0  0  0
 14 19  1  0  0  0  0
 15 18  1  0  0  0  0
 15 19  1  0  0  0  0
 16 25  1  0  0  0  0
 17 25  1  0  0  0  0
 18 19  1  0  0  0  0
  1 27  1  0  0  0  0
  2 28  1  0  0  0  0
  3 29  1  0  0  0  0
  4 30  1  0  0  0  0
  5 31  1  0  0  0  0
  6 32  1  0  0  0  0
 13 33  1  0  0  0  0
 13 34  1  0  0  0  0
 14 35  1  0  0  0  0
 14 36  1  0  0  0  0
 15 37  1  0  0  0  0
 15 38  1  0  0  0  0
 16 39  1  0  0  0  0
 16 40  1  0  0  0  0
 17 41  1  0  0  0  0
 17 42  1  0  0  0  0
 18 43  1  0  0  0  0
 20 44  1  0  0  0  0
 20 45  1  0  0  0  0
 20 46  1  0  0  0  0
 21 47  1  0  0  0  0
 21 48  1  0  0  0  0
 23 49  1  0  0  0  0
M  END
> <BB_SMILES>
CC1(C)OB(C2CC23CCOCC3)OC1(C)C

> <scaffold_SMILES>
Cc1ccncc1NC(=O)Cc1cc(Cl)cc(Br)c1

$$$$
EN300-705961
  -OEChem-07272002243D

 48 51  0     1  0  0  0  0  0999 V2000
   11.1041    6.0071   21.3575 C   0  0  0  0  0  0  0  0  0  0  0  0
   10.4257    5.4819   22.4572 C   0  0  0  0  0  0  0  0  0  0  0  0
   12.3274    5.4622   20.9672 C   0  0  0  0  0  0  0  0  0  0  0  0
   10.9706    4.4118   23.1669 C   0  0  0  0  0  0  0  0  0  0  0  0
   12.8724    4.3921   21.6769 C   0  0  0  0  0  0  0  0  0  0  0  0
    5.0000    1.4070   18.8080 C   0  0  0  0  0  0  0  0  0  0  0  0
   11.0490    1.0010   23.0460 C   0  0  0  0  0  0  0  0  0  0  0  0
   13.3680    0.4840   22.6240 C   0  0  0  0  0  0  0  0  0  0  0  0
   11.6520   -1.1420   22.1450 C   0  0  0  0  0  0  0  0  0  0  0  0
    5.5330    1.3060   17.5390 C   0  0  0  0  0  0  0  0  0  0  0  0
    7.2400   -0.0390   18.2610 C   0  0  0  0  0  0  0  0  0  0  0  0
   12.1940    3.8669   22.7767 C   0  0  0  0  0  0  0  0  0  0  0  0
   12.3850    1.3610   23.0530 C   0  0  0  0  0  0  0  0  0  0  0  0
    5.6260    0.7590   19.8690 C   0  0  0  0  0  0  0  0  0  0  0  0
   10.6720   -0.2500   22.5660 C   0  0  0  0  0  0  0  0  0  0  0  0
    6.7930    0.0210   19.5790 C   0  0  0  0  0  0  0  0  0  0  0  0
   12.9770   -0.7640   22.1810 C   0  0  0  0  0  0  0  0  0  0  0  0
    8.6020    0.1230   21.2070 C   0  0  0  0  0  0  0  0  0  0  0  0
   12.9840    2.9132   25.0474 C   0  0  0  0  0  0  0  0  0  0  0  0
   12.7771    2.7246   23.5350 C   0  0  1  0  0  0  0  0  0  0  0  0
   14.1469    2.9012   24.1368 C   0  0  0  0  0  0  0  0  0  0  0  0
    5.0980    0.9060   21.2740 C   0  0  0  0  0  0  0  0  0  0  0  0
    9.2100   -0.5900   22.3990 C   0  0  0  0  0  0  0  0  0  0  0  0
    6.6320    0.5940   17.2520 N   0  0  0  0  0  0  0  0  0  0  0  0
    7.5630   -0.5230   20.6330 N   0  0  0  0  0  0  0  0  0  0  0  0
    9.0150    1.2120   20.8220 O   0  0  0  0  0  0  0  0  0  0  0  0
   14.8744    4.0520   23.9242 F   0  0  0  0  0  0  0  0  0  0  0  0
   15.0448    1.8565   24.1711 F   0  0  0  0  0  0  0  0  0  0  0  0
   14.1940   -1.9100   21.6990 Cl  0  0  0  0  0  0  0  0  0  0  0  0
   10.6796    6.8401   20.8048 H   0  0  0  0  0  0  0  0  0  0  0  0
    9.4729    5.9058   22.7612 H   0  0  0  0  0  0  0  0  0  0  0  0
   12.8556    5.8714   20.1109 H   0  0  0  0  0  0  0  0  0  0  0  0
   10.4348    4.0100   24.0227 H   0  0  0  0  0  0  0  0  0  0  0  0
   13.8265    3.9753   21.3649 H   0  0  0  0  0  0  0  0  0  0  0  0
    4.0894    1.9955   18.9731 H   0  0  0  0  0  0  0  0  0  0  0  0
   10.2920    1.6908   23.4149 H   0  0  0  0  0  0  0  0  0  0  0  0
   14.4066    0.7739   22.6379 H   0  0  0  0  0  0  0  0  0  0  0  0
   11.3632   -2.1298   21.7911 H   0  0  0  0  0  0  0  0  0  0  0  0
    5.0712    1.8129   16.6995 H   0  0  0  0  0  0  0  0  0  0  0  0
    8.1159   -0.6122   17.9919 H   0  0  0  0  0  0  0  0  0  0  0  0
   12.7061    3.8591   25.4974 H   0  0  0  0  0  0  0  0  0  0  0  0
   12.8465    2.0586   25.6996 H   0  0  0  0  0  0  0  0  0  0  0  0
    4.0216    1.1120   21.2556 H   0  0  0  0  0  0  0  0  0  0  0  0
    5.2696   -0.0058   21.8593 H   0  0  0  0  0  0  0  0  0  0  0  0
    5.6018    1.7245   21.8030 H   0  0  0  0  0  0  0  0  0  0  0  0
    9.0901   -1.6664   22.2639 H   0  0  0  0  0  0  0  0  0  0  0  0
    8.6579   -0.3097   23.2977 H   0  0  0  0  0  0  0  0  0  0  0  0
    7.3129   -1.4300   20.9567 H   0  0  0  0  0  0  0  0  0  0  0  0
  1  2  1  0  0  0  0
  1  3  2  0  0  0  0
  2  4  2  0  0  0  0
  3  5  1  0  0  0  0
  4 12  1  0  0  0  0
  5 12  2  0  0  0  0
  6 10  2  0  0  0  0
  6 14  1  0  0  0  0
  7 13  1  0  0  0  0
  7 15  2  0  0  0  0
  8 13  2  0  0  0  0
  8 17  1  0  0  0  0
  9 15  1  0  0  0  0
  9 17  2  0  0  0  0
 10 24  1  0  0  0  0
 11 16  1  0  0  0  0
 11 24  2  0  0  0  0
 12 20  1  1  0  0  0
 13 20  1  1  0  0  0
 14 16  2  0  0  0  0
 14 22  1  0  0  0  0
 15 23  1  0  0  0  0
 16 25  1  0  0  0  0
 17 29  1  0  0  0  0
 18 23  1  0  0  0  0
 18 25  1  0  0  0  0
 18 26  2  0  0  0  0
 19 20  1  0  0  0  0
 19 21  1  0  0  0  0
 20 21  1  0  0  0  0
 21 27  1  0  0  0  0
 21 28  1  0  0  0  0
  1 30  1  0  0  0  0
  2 31  1  0  0  0  0
  3 32  1  0  0  0  0
  4 33  1  0  0  0  0
  5 34  1  0  0  0  0
  6 35  1  0  0  0  0
  7 36  1  0  0  0  0
  8 37  1  0  0  0  0
  9 38  1  0  0  0  0
 10 39  1  0  0  0  0
 11 40  1  0  0  0  0
 19 41  1  0  0  0  0
 19 42  1  0  0  0  0
 22 43  1  0  0  0  0
 22 44  1  0  0  0  0
 22 45  1  0  0  0  0
 23 46  1  0  0  0  0
 23 47  1  0  0  0  0
 25 48  1  0  0  0  0
M  END
> <BB_SMILES>
CC1(C)OB(C2(c3ccccc3)CC2(F)F)OC1(C)C

> <scaffold_SMILES>
Cc1ccncc1NC(=O)Cc1cc(Cl)cc(Br)c1

$$$$
EN300-705961
  -OEChem-07272002243D

 48 51  0     1  0  0  0  0  0999 V2000
   12.9125    5.7789   20.5403 C   0  0  0  0  0  0  0  0  0  0  0  0
   11.7294    5.5399   21.2394 C   0  0  0  0  0  0  0  0  0  0  0  0
   14.0511    5.0221   20.8169 C   0  0  0  0  0  0  0  0  0  0  0  0
   11.6850    4.5442   22.2153 C   0  0  0  0  0  0  0  0  0  0  0  0
   14.0067    4.0265   21.7928 C   0  0  0  0  0  0  0  0  0  0  0  0
    5.0000    1.4070   18.8080 C   0  0  0  0  0  0  0  0  0  0  0  0
   11.0490    1.0010   23.0460 C   0  0  0  0  0  0  0  0  0  0  0  0
   13.3680    0.4840   22.6240 C   0  0  0  0  0  0  0  0  0  0  0  0
   11.6520   -1.1420   22.1450 C   0  0  0  0  0  0  0  0  0  0  0  0
    5.5330    1.3060   17.5390 C   0  0  0  0  0  0  0  0  0  0  0  0
    7.2400   -0.0390   18.2610 C   0  0  0  0  0  0  0  0  0  0  0  0
   12.8236    3.7875   22.4920 C   0  0  0  0  0  0  0  0  0  0  0  0
   12.3850    1.3610   23.0530 C   0  0  0  0  0  0  0  0  0  0  0  0
    5.6260    0.7590   19.8690 C   0  0  0  0  0  0  0  0  0  0  0  0
   10.6720   -0.2500   22.5660 C   0  0  0  0  0  0  0  0  0  0  0  0
    6.7930    0.0210   19.5790 C   0  0  0  0  0  0  0  0  0  0  0  0
   12.9770   -0.7640   22.1810 C   0  0  0  0  0  0  0  0  0  0  0  0
    8.6020    0.1230   21.2070 C   0  0  0  0  0  0  0  0  0  0  0  0
   13.8075    2.8071   24.6739 C   0  0  0  0  0  0  0  0  0  0  0  0
   12.7771    2.7246   23.5350 C   0  0  2  0  0  0  0  0  0  0  0  0
   12.3885    3.1238   24.9348 C   0  0  0  0  0  0  0  0  0  0  0  0
    5.0980    0.9060   21.2740 C   0  0  0  0  0  0  0  0  0  0  0  0
    9.2100   -0.5900   22.3990 C   0  0  0  0  0  0  0  0  0  0  0  0
    6.6320    0.5940   17.2520 N   0  0  0  0  0  0  0  0  0  0  0  0
    7.5630   -0.5230   20.6330 N   0  0  0  0  0  0  0  0  0  0  0  0
    9.0150    1.2120   20.8220 O   0  0  0  0  0  0  0  0  0  0  0  0
   11.6243    2.2907   25.7226 F   0  0  0  0  0  0  0  0  0  0  0  0
   12.0077    4.4157   25.2256 F   0  0  0  0  0  0  0  0  0  0  0  0
   14.1940   -1.9100   21.6990 Cl  0  0  0  0  0  0  0  0  0  0  0  0
   12.9470    6.5540   19.7803 H   0  0  0  0  0  0  0  0  0  0  0  0
   10.8425    6.1289   21.0241 H   0  0  0  0  0  0  0  0  0  0  0  0
   14.9724    5.2085   20.2725 H   0  0  0  0  0  0  0  0  0  0  0  0
   10.7588    4.3660   22.7550 H   0  0  0  0  0  0  0  0  0  0  0  0
   14.8998    3.4429   22.0011 H   0  0  0  0  0  0  0  0  0  0  0  0
    4.0894    1.9955   18.9731 H   0  0  0  0  0  0  0  0  0  0  0  0
   10.2920    1.6908   23.4149 H   0  0  0  0  0  0  0  0  0  0  0  0
   14.4066    0.7739   22.6379 H   0  0  0  0  0  0  0  0  0  0  0  0
   11.3632   -2.1298   21.7911 H   0  0  0  0  0  0  0  0  0  0  0  0
    5.0712    1.8129   16.6995 H   0  0  0  0  0  0  0  0  0  0  0  0
    8.1159   -0.6122   17.9919 H   0  0  0  0  0  0  0  0  0  0  0  0
   14.2016    1.8848   25.0846 H   0  0  0  0  0  0  0  0  0  0  0  0
   14.5153    3.6278   24.6772 H   0  0  0  0  0  0  0  0  0  0  0  0
    5.6131    1.7247   21.7896 H   0  0  0  0  0  0  0  0  0  0  0  0
    4.0213    1.1160   21.2728 H   0  0  0  0  0  0  0  0  0  0  0  0
    5.2428   -0.0163   21.8502 H   0  0  0  0  0  0  0  0  0  0  0  0
    9.0901   -1.6664   22.2639 H   0  0  0  0  0  0  0  0  0  0  0  0
    8.6579   -0.3097   23.2977 H   0  0  0  0  0  0  0  0  0  0  0  0
    7.3129   -1.4300   20.9567 H   0  0  0  0  0  0  0  0  0  0  0  0
  1  2  1  0  0  0  0
  1  3  2  0  0  0  0
  2  4  2  0  0  0  0
  3  5  1  0  0  0  0
  4 12  1  0  0  0  0
  5 12  2  0  0  0  0
  6 10  2  0  0  0  0
  6 14  1  0  0  0  0
  7 13  1  0  0  0  0
  7 15  2  0  0  0  0
  8 13  2  0  0  0  0
  8 17  1  0  0  0  0
  9 15  1  0  0  0  0
  9 17  2  0  0  0  0
 10 24  1  0  0  0  0
 11 16  1  0  0  0  0
 11 24  2  0  0  0  0
 12 20  1  6  0  0  0
 13 20  1  6  0  0  0
 14 16  2  0  0  0  0
 14 22  1  0  0  0  0
 15 23  1  0  0  0  0
 16 25  1  0  0  0  0
 17 29  1  0  0  0  0
 18 23  1  0  0  0  0
 18 25  1  0  0  0  0
 18 26  2  0  0  0  0
 19 20  1  0  0  0  0
 19 21  1  0  0  0  0
 20 21  1  0  0  0  0
 21 27  1  0  0  0  0
 21 28  1  0  0  0  0
  1 30  1  0  0  0  0
  2 31  1  0  0  0  0
  3 32  1  0  0  0  0
  4 33  1  0  0  0  0
  5 34  1  0  0  0  0
  6 35  1  0  0  0  0
  7 36  1  0  0  0  0
  8 37  1  0  0  0  0
  9 38  1  0  0  0  0
 10 39  1  0  0  0  0
 11 40  1  0  0  0  0
 19 41  1  0  0  0  0
 19 42  1  0  0  0  0
 22 43  1  0  0  0  0
 22 44  1  0  0  0  0
 22 45  1  0  0  0  0
 23 46  1  0  0  0  0
 23 47  1  0  0  0  0
 25 48  1  0  0  0  0
M  END
> <BB_SMILES>
CC1(C)OB(C2(c3ccccc3)CC2(F)F)OC1(C)C

> <scaffold_SMILES>
Cc1ccncc1NC(=O)Cc1cc(Cl)cc(Br)c1

$$$$
EN300-1266304
  -OEChem-07272002243D

 48 51  0     1  0  0  0  0  0999 V2000
    5.0000    1.4070   18.8080 C   0  0  0  0  0  0  0  0  0  0  0  0
   11.0490    1.0010   23.0460 C   0  0  0  0  0  0  0  0  0  0  0  0
   13.3680    0.4840   22.6240 C   0  0  0  0  0  0  0  0  0  0  0  0
   11.6520   -1.1420   22.1450 C   0  0  0  0  0  0  0  0  0  0  0  0
    5.5330    1.3060   17.5390 C   0  0  0  0  0  0  0  0  0  0  0  0
    7.2400   -0.0390   18.2610 C   0  0  0  0  0  0  0  0  0  0  0  0
   12.3850    1.3610   23.0530 C   0  0  0  0  0  0  0  0  0  0  0  0
    5.6260    0.7590   19.8690 C   0  0  0  0  0  0  0  0  0  0  0  0
   10.6720   -0.2500   22.5660 C   0  0  0  0  0  0  0  0  0  0  0  0
    6.7930    0.0210   19.5790 C   0  0  0  0  0  0  0  0  0  0  0  0
   12.9770   -0.7640   22.1810 C   0  0  0  0  0  0  0  0  0  0  0  0
    8.6020    0.1230   21.2070 C   0  0  0  0  0  0  0  0  0  0  0  0
   13.5564    5.3550   25.1624 C   0  0  0  0  0  0  0  0  0  0  0  0
   12.7876    6.1306   24.0964 C   0  0  0  0  0  0  0  0  0  0  0  0
   12.7121    4.2133   25.7246 C   0  0  0  0  0  0  0  0  0  0  0  0
   12.4819    5.2495   22.8877 C   0  0  0  0  0  0  0  0  0  0  0  0
   12.7838    2.7480   23.5432 C   0  0  2  0  0  0  0  0  0  0  0  0
   12.0187    3.4004   24.6742 C   0  0  1  0  0  0  0  0  0  0  0  0
   11.8700    3.9360   23.2751 C   0  0  1  0  0  0  0  0  0  0  0  0
    5.0980    0.9060   21.2740 C   0  0  0  0  0  0  0  0  0  0  0  0
    9.2100   -0.5900   22.3990 C   0  0  0  0  0  0  0  0  0  0  0  0
    6.6320    0.5940   17.2520 N   0  0  0  0  0  0  0  0  0  0  0  0
    7.5630   -0.5230   20.6330 N   0  0  0  0  0  0  0  0  0  0  0  0
    9.0150    1.2120   20.8220 O   0  0  0  0  0  0  0  0  0  0  0  0
   14.1940   -1.9100   21.6990 Cl  0  0  0  0  0  0  0  0  0  0  0  0
    4.0894    1.9955   18.9731 H   0  0  0  0  0  0  0  0  0  0  0  0
   10.2920    1.6908   23.4149 H   0  0  0  0  0  0  0  0  0  0  0  0
   14.4066    0.7739   22.6379 H   0  0  0  0  0  0  0  0  0  0  0  0
   11.3632   -2.1298   21.7911 H   0  0  0  0  0  0  0  0  0  0  0  0
    5.0712    1.8129   16.6995 H   0  0  0  0  0  0  0  0  0  0  0  0
    8.1159   -0.6122   17.9919 H   0  0  0  0  0  0  0  0  0  0  0  0
   14.4851    4.9607   24.7323 H   0  0  0  0  0  0  0  0  0  0  0  0
   13.8455    6.0278   25.9779 H   0  0  0  0  0  0  0  0  0  0  0  0
   11.8516    6.5101   24.5247 H   0  0  0  0  0  0  0  0  0  0  0  0
   13.3707    7.0007   23.7746 H   0  0  0  0  0  0  0  0  0  0  0  0
   13.3356    3.5606   26.3460 H   0  0  0  0  0  0  0  0  0  0  0  0
   11.9465    4.6379   26.3859 H   0  0  0  0  0  0  0  0  0  0  0  0
   11.8003    5.7868   22.2179 H   0  0  0  0  0  0  0  0  0  0  0  0
   13.4013    5.0733   22.3157 H   0  0  0  0  0  0  0  0  0  0  0  0
   13.8577    2.9350   23.5098 H   0  0  0  0  0  0  0  0  0  0  0  0
   11.1822    2.8514   25.0942 H   0  0  0  0  0  0  0  0  0  0  0  0
   10.9292    3.7577   22.7672 H   0  0  0  0  0  0  0  0  0  0  0  0
    4.4823    0.0393   21.5409 H   0  0  0  0  0  0  0  0  0  0  0  0
    5.9173    0.9893   21.9986 H   0  0  0  0  0  0  0  0  0  0  0  0
    4.4886    1.8126   21.3754 H   0  0  0  0  0  0  0  0  0  0  0  0
    9.0901   -1.6664   22.2639 H   0  0  0  0  0  0  0  0  0  0  0  0
    8.6579   -0.3097   23.2977 H   0  0  0  0  0  0  0  0  0  0  0  0
    7.3129   -1.4300   20.9567 H   0  0  0  0  0  0  0  0  0  0  0  0
  1  5  2  0  0  0  0
  1  8  1  0  0  0  0
  2  7  1  0  0  0  0
  2  9  2  0  0  0  0
  3  7  2  0  0  0  0
  3 11  1  0  0  0  0
  4  9  1  0  0  0  0
  4 11  2  0  0  0  0
  5 22  1  0  0  0  0
  6 10  1  0  0  0  0
  6 22  2  0  0  0  0
  7 17  1  0  0  0  0
  8 10  2  0  0  0  0
  8 20  1  0  0  0  0
  9 21  1  0  0  0  0
 10 23  1  0  0  0  0
 11 25  1  0  0  0  0
 12 21  1  0  0  0  0
 12 23  1  0  0  0  0
 12 24  2  0  0  0  0
 13 14  1  0  0  0  0
 13 15  1  0  0  0  0
 14 16  1  0  0  0  0
 15 18  1  0  0  0  0
 16 19  1  0  0  0  0
 17 18  1  0  0  0  0
 17 19  1  0  0  0  0
 18 19  1  0  0  0  0
  1 26  1  0  0  0  0
  2 27  1  0  0  0  0
  3 28  1  0  0  0  0
  4 29  1  0  0  0  0
  5 30  1  0  0  0  0
  6 31  1  0  0  0  0
 13 32  1  0  0  0  0
 13 33  1  0  0  0  0
 14 34  1  0  0  0  0
 14 35  1  0  0  0  0
 15 36  1  0  0  0  0
 15 37  1  0  0  0  0
 16 38  1  0  0  0  0
 16 39  1  0  0  0  0
 17 40  1  0  0  0  0
 18 41  1  0  0  0  0
 19 42  1  0  0  0  0
 20 43  1  0  0  0  0
 20 44  1  0  0  0  0
 20 45  1  0  0  0  0
 21 46  1  0  0  0  0
 21 47  1  0  0  0  0
 23 48  1  0  0  0  0
M  END
> <BB_SMILES>
CC1(C)OB([C@H]2[C@@H]3CCCC[C@@H]32)OC1(C)C

> <scaffold_SMILES>
Cc1ccncc1NC(=O)Cc1cc(Cl)cc(Br)c1

$$$$
EN300-1155544
  -OEChem-07272002243D

 54 57  0     1  0  0  0  0  0999 V2000
    5.0000    1.4070   18.8080 C   0  0  0  0  0  0  0  0  0  0  0  0
   11.0490    1.0010   23.0460 C   0  0  0  0  0  0  0  0  0  0  0  0
   13.3680    0.4840   22.6240 C   0  0  0  0  0  0  0  0  0  0  0  0
   11.6520   -1.1420   22.1450 C   0  0  0  0  0  0  0  0  0  0  0  0
    5.5330    1.3060   17.5390 C   0  0  0  0  0  0  0  0  0  0  0  0
    7.2400   -0.0390   18.2610 C   0  0  0  0  0  0  0  0  0  0  0  0
   12.3850    1.3610   23.0530 C   0  0  0  0  0  0  0  0  0  0  0  0
    5.6260    0.7590   19.8690 C   0  0  0  0  0  0  0  0  0  0  0  0
   10.6720   -0.2500   22.5660 C   0  0  0  0  0  0  0  0  0  0  0  0
    6.7930    0.0210   19.5790 C   0  0  0  0  0  0  0  0  0  0  0  0
   12.9770   -0.7640   22.1810 C   0  0  0  0  0  0  0  0  0  0  0  0
    8.6020    0.1230   21.2070 C   0  0  0  0  0  0  0  0  0  0  0  0
   13.3184    4.2870   19.9762 C   0  0  0  0  0  0  0  0  0  0  0  0
   13.4640    5.7773   20.2663 C   0  0  0  0  0  0  0  0  0  0  0  0
   11.9460    3.6975   20.2785 C   0  0  0  0  0  0  0  0  0  0  0  0
   13.1787    6.2197   21.7039 C   0  0  0  0  0  0  0  0  0  0  0  0
   11.3635    3.9827   21.6610 C   0  0  0  0  0  0  0  0  0  0  0  0
   13.4123    5.1449   22.7631 C   0  0  0  0  0  0  0  0  0  0  0  0
   11.7959    3.6961   24.1633 C   0  0  0  0  0  0  0  0  0  0  0  0
   12.7841    2.7490   23.5436 C   0  0  2  0  0  0  0  0  0  0  0  0
   12.3699    4.0255   22.8000 C   0  0  0  0  0  0  0  0  0  0  0  0
    5.0980    0.9060   21.2740 C   0  0  0  0  0  0  0  0  0  0  0  0
    9.2100   -0.5900   22.3990 C   0  0  0  0  0  0  0  0  0  0  0  0
    6.6320    0.5940   17.2520 N   0  0  0  0  0  0  0  0  0  0  0  0
    7.5630   -0.5230   20.6330 N   0  0  0  0  0  0  0  0  0  0  0  0
    9.0150    1.2120   20.8220 O   0  0  0  0  0  0  0  0  0  0  0  0
   14.1940   -1.9100   21.6990 Cl  0  0  0  0  0  0  0  0  0  0  0  0
    4.0894    1.9955   18.9731 H   0  0  0  0  0  0  0  0  0  0  0  0
   10.2920    1.6908   23.4149 H   0  0  0  0  0  0  0  0  0  0  0  0
   14.4066    0.7739   22.6379 H   0  0  0  0  0  0  0  0  0  0  0  0
   11.3632   -2.1298   21.7911 H   0  0  0  0  0  0  0  0  0  0  0  0
    5.0712    1.8129   16.6995 H   0  0  0  0  0  0  0  0  0  0  0  0
    8.1159   -0.6122   17.9919 H   0  0  0  0  0  0  0  0  0  0  0  0
   13.5404    4.1276   18.9128 H   0  0  0  0  0  0  0  0  0  0  0  0
   14.0879    3.7344   20.5311 H   0  0  0  0  0  0  0  0  0  0  0  0
   14.4956    6.0716   20.0142 H   0  0  0  0  0  0  0  0  0  0  0  0
   12.8203    6.3448   19.5747 H   0  0  0  0  0  0  0  0  0  0  0  0
   11.2194    3.9782   19.4776 H   0  0  0  0  0  0  0  0  0  0  0  0
   12.0423    2.5909   20.1791 H   0  0  0  0  0  0  0  0  0  0  0  0
   13.7367    7.1441   21.9430 H   0  0  0  0  0  0  0  0  0  0  0  0
   12.1106    6.5034   21.7452 H   0  0  0  0  0  0  0  0  0  0  0  0
   10.8399    4.9521   21.6019 H   0  0  0  0  0  0  0  0  0  0  0  0
   10.5766    3.2483   21.9015 H   0  0  0  0  0  0  0  0  0  0  0  0
   14.4019    4.7023   22.5781 H   0  0  0  0  0  0  0  0  0  0  0  0
   13.4810    5.6007   23.7613 H   0  0  0  0  0  0  0  0  0  0  0  0
   10.7569    3.3939   24.2354 H   0  0  0  0  0  0  0  0  0  0  0  0
   12.1266    4.2784   25.0170 H   0  0  0  0  0  0  0  0  0  0  0  0
   13.7888    2.7619   23.9983 H   0  0  0  0  0  0  0  0  0  0  0  0
    5.5398    1.7859   21.7556 H   0  0  0  0  0  0  0  0  0  0  0  0
    4.0066    1.0164   21.2777 H   0  0  0  0  0  0  0  0  0  0  0  0
    5.3315    0.0215   21.8796 H   0  0  0  0  0  0  0  0  0  0  0  0
    9.0901   -1.6664   22.2639 H   0  0  0  0  0  0  0  0  0  0  0  0
    8.6579   -0.3097   23.2977 H   0  0  0  0  0  0  0  0  0  0  0  0
    7.3129   -1.4300   20.9567 H   0  0  0  0  0  0  0  0  0  0  0  0
  1  5  2  0  0  0  0
  1  8  1  0  0  0  0
  2  7  1  0  0  0  0
  2  9  2  0  0  0  0
  3  7  2  0  0  0  0
  3 11  1  0  0  0  0
  4  9  1  0  0  0  0
  4 11  2  0  0  0  0
  5 24  1  0  0  0  0
  6 10  1  0  0  0  0
  6 24  2  0  0  0  0
  7 20  1  1  0  0  0
  8 10  2  0  0  0  0
  8 22  1  0  0  0  0
  9 23  1  0  0  0  0
 10 25  1  0  0  0  0
 11 27  1  0  0  0  0
 12 23  1  0  0  0  0
 12 25  1  0  0  0  0
 12 26  2  0  0  0  0
 13 14  1  0  0  0  0
 13 15  1  0  0  0  0
 14 16  1  0  0  0  0
 15 17  1  0  0  0  0
 16 18  1  0  0  0  0
 17 21  1  0  0  0  0
 18 21  1  0  0  0  0
 19 20  1  0  0  0  0
 19 21  1  0  0  0  0
 20 21  1  0  0  0  0
  1 28  1  0  0  0  0
  2 29  1  0  0  0  0
  3 30  1  0  0  0  0
  4 31  1  0  0  0  0
  5 32  1  0  0  0  0
  6 33  1  0  0  0  0
 13 34  1  0  0  0  0
 13 35  1  0  0  0  0
 14 36  1  0  0  0  0
 14 37  1  0  0  0  0
 15 38  1  0  0  0  0
 15 39  1  0  0  0  0
 16 40  1  0  0  0  0
 16 41  1  0  0  0  0
 17 42  1  0  0  0  0
 17 43  1  0  0  0  0
 18 44  1  0  0  0  0
 18 45  1  0  0  0  0
 19 46  1  0  0  0  0
 19 47  1  0  0  0  0
 20 48  1  0  0  0  0
 22 49  1  0  0  0  0
 22 50  1  0  0  0  0
 22 51  1  0  0  0  0
 23 52  1  0  0  0  0
 23 53  1  0  0  0  0
 25 54  1  0  0  0  0
M  END
> <BB_SMILES>
CC1(C)OB(C2CC23CCCCCC3)OC1(C)C

> <scaffold_SMILES>
Cc1ccncc1NC(=O)Cc1cc(Cl)cc(Br)c1

$$$$
EN300-1155544
  -OEChem-07272002243D

 54 57  0     1  0  0  0  0  0999 V2000
    5.0000    1.4070   18.8080 C   0  0  0  0  0  0  0  0  0  0  0  0
   11.0490    1.0010   23.0460 C   0  0  0  0  0  0  0  0  0  0  0  0
   13.3680    0.4840   22.6240 C   0  0  0  0  0  0  0  0  0  0  0  0
   11.6520   -1.1420   22.1450 C   0  0  0  0  0  0  0  0  0  0  0  0
    5.5330    1.3060   17.5390 C   0  0  0  0  0  0  0  0  0  0  0  0
    7.2400   -0.0390   18.2610 C   0  0  0  0  0  0  0  0  0  0  0  0
   12.3850    1.3610   23.0530 C   0  0  0  0  0  0  0  0  0  0  0  0
    5.6260    0.7590   19.8690 C   0  0  0  0  0  0  0  0  0  0  0  0
   10.6720   -0.2500   22.5660 C   0  0  0  0  0  0  0  0  0  0  0  0
    6.7930    0.0210   19.5790 C   0  0  0  0  0  0  0  0  0  0  0  0
   12.9770   -0.7640   22.1810 C   0  0  0  0  0  0  0  0  0  0  0  0
    8.6020    0.1230   21.2070 C   0  0  0  0  0  0  0  0  0  0  0  0
   13.7854    5.4342   19.7062 C   0  0  0  0  0  0  0  0  0  0  0  0
   13.0882    6.4512   20.6030 C   0  0  0  0  0  0  0  0  0  0  0  0
   14.6370    4.3988   20.4391 C   0  0  0  0  0  0  0  0  0  0  0  0
   12.2188    5.8537   21.7083 C   0  0  0  0  0  0  0  0  0  0  0  0
   13.7942    3.3718   21.1922 C   0  0  0  0  0  0  0  0  0  0  0  0
   13.0425    5.2340   22.8337 C   0  0  0  0  0  0  0  0  0  0  0  0
   14.2289    3.1361   23.7186 C   0  0  0  0  0  0  0  0  0  0  0  0
   12.7842    2.7494   23.5437 C   0  0  1  0  0  0  0  0  0  0  0  0
   13.4288    3.7822   22.6093 C   0  0  0  0  0  0  0  0  0  0  0  0
    5.0980    0.9060   21.2740 C   0  0  0  0  0  0  0  0  0  0  0  0
    9.2100   -0.5900   22.3990 C   0  0  0  0  0  0  0  0  0  0  0  0
    6.6320    0.5940   17.2520 N   0  0  0  0  0  0  0  0  0  0  0  0
    7.5630   -0.5230   20.6330 N   0  0  0  0  0  0  0  0  0  0  0  0
    9.0150    1.2120   20.8220 O   0  0  0  0  0  0  0  0  0  0  0  0
   14.1940   -1.9100   21.6990 Cl  0  0  0  0  0  0  0  0  0  0  0  0
    4.0894    1.9955   18.9731 H   0  0  0  0  0  0  0  0  0  0  0  0
   10.2920    1.6908   23.4149 H   0  0  0  0  0  0  0  0  0  0  0  0
   14.4066    0.7739   22.6379 H   0  0  0  0  0  0  0  0  0  0  0  0
   11.3632   -2.1298   21.7911 H   0  0  0  0  0  0  0  0  0  0  0  0
    5.0712    1.8129   16.6995 H   0  0  0  0  0  0  0  0  0  0  0  0
    8.1159   -0.6122   17.9919 H   0  0  0  0  0  0  0  0  0  0  0  0
   13.0370    4.9230   19.0878 H   0  0  0  0  0  0  0  0  0  0  0  0
   14.4305    5.9839   19.0093 H   0  0  0  0  0  0  0  0  0  0  0  0
   13.8382    7.1190   21.0451 H   0  0  0  0  0  0  0  0  0  0  0  0
   12.4548    7.0836   19.9685 H   0  0  0  0  0  0  0  0  0  0  0  0
   15.2183    3.8631   19.6777 H   0  0  0  0  0  0  0  0  0  0  0  0
   15.3618    4.8868   21.1008 H   0  0  0  0  0  0  0  0  0  0  0  0
   11.6328    6.6768   22.1368 H   0  0  0  0  0  0  0  0  0  0  0  0
   11.4989    5.1377   21.2962 H   0  0  0  0  0  0  0  0  0  0  0  0
   12.8786    3.1444   20.6325 H   0  0  0  0  0  0  0  0  0  0  0  0
   14.3664    2.4352   21.2200 H   0  0  0  0  0  0  0  0  0  0  0  0
   13.9490    5.8262   23.0115 H   0  0  0  0  0  0  0  0  0  0  0  0
   12.4544    5.3116   23.7575 H   0  0  0  0  0  0  0  0  0  0  0  0
   14.4851    3.7336   24.5873 H   0  0  0  0  0  0  0  0  0  0  0  0
   14.9964    2.4146   23.4612 H   0  0  0  0  0  0  0  0  0  0  0  0
   12.1004    3.1449   24.3045 H   0  0  0  0  0  0  0  0  0  0  0  0
    4.1277    1.4159   21.2637 H   0  0  0  0  0  0  0  0  0  0  0  0
    4.9740   -0.0720   21.7551 H   0  0  0  0  0  0  0  0  0  0  0  0
    5.7902    1.4838   21.8990 H   0  0  0  0  0  0  0  0  0  0  0  0
    9.0901   -1.6664   22.2639 H   0  0  0  0  0  0  0  0  0  0  0  0
    8.6579   -0.3097   23.2977 H   0  0  0  0  0  0  0  0  0  0  0  0
    7.3129   -1.4300   20.9567 H   0  0  0  0  0  0  0  0  0  0  0  0
  1  5  2  0  0  0  0
  1  8  1  0  0  0  0
  2  7  1  0  0  0  0
  2  9  2  0  0  0  0
  3  7  2  0  0  0  0
  3 11  1  0  0  0  0
  4  9  1  0  0  0  0
  4 11  2  0  0  0  0
  5 24  1  0  0  0  0
  6 10  1  0  0  0  0
  6 24  2  0  0  0  0
  7 20  1  6  0  0  0
  8 10  2  0  0  0  0
  8 22  1  0  0  0  0
  9 23  1  0  0  0  0
 10 25  1  0  0  0  0
 11 27  1  0  0  0  0
 12 23  1  0  0  0  0
 12 25  1  0  0  0  0
 12 26  2  0  0  0  0
 13 14  1  0  0  0  0
 13 15  1  0  0  0  0
 14 16  1  0  0  0  0
 15 17  1  0  0  0  0
 16 18  1  0  0  0  0
 17 21  1  0  0  0  0
 18 21  1  0  0  0  0
 19 20  1  0  0  0  0
 19 21  1  0  0  0  0
 20 21  1  0  0  0  0
  1 28  1  0  0  0  0
  2 29  1  0  0  0  0
  3 30  1  0  0  0  0
  4 31  1  0  0  0  0
  5 32  1  0  0  0  0
  6 33  1  0  0  0  0
 13 34  1  0  0  0  0
 13 35  1  0  0  0  0
 14 36  1  0  0  0  0
 14 37  1  0  0  0  0
 15 38  1  0  0  0  0
 15 39  1  0  0  0  0
 16 40  1  0  0  0  0
 16 41  1  0  0  0  0
 17 42  1  0  0  0  0
 17 43  1  0  0  0  0
 18 44  1  0  0  0  0
 18 45  1  0  0  0  0
 19 46  1  0  0  0  0
 19 47  1  0  0  0  0
 20 48  1  0  0  0  0
 22 49  1  0  0  0  0
 22 50  1  0  0  0  0
 22 51  1  0  0  0  0
 23 52  1  0  0  0  0
 23 53  1  0  0  0  0
 25 54  1  0  0  0  0
M  END
> <BB_SMILES>
CC1(C)OB(C2CC23CCCCCC3)OC1(C)C

> <scaffold_SMILES>
Cc1ccncc1NC(=O)Cc1cc(Cl)cc(Br)c1

$$$$
EN300-1155546
  -OEChem-07272002243D

 51 54  0     1  0  0  0  0  0999 V2000
    5.0000    1.4070   18.8080 C   0  0  0  0  0  0  0  0  0  0  0  0
   11.0490    1.0010   23.0460 C   0  0  0  0  0  0  0  0  0  0  0  0
   13.3680    0.4840   22.6240 C   0  0  0  0  0  0  0  0  0  0  0  0
   11.6520   -1.1420   22.1450 C   0  0  0  0  0  0  0  0  0  0  0  0
    5.5330    1.3060   17.5390 C   0  0  0  0  0  0  0  0  0  0  0  0
    7.2400   -0.0390   18.2610 C   0  0  0  0  0  0  0  0  0  0  0  0
   12.3850    1.3610   23.0530 C   0  0  0  0  0  0  0  0  0  0  0  0
    5.6260    0.7590   19.8690 C   0  0  0  0  0  0  0  0  0  0  0  0
   10.6720   -0.2500   22.5660 C   0  0  0  0  0  0  0  0  0  0  0  0
    6.7930    0.0210   19.5790 C   0  0  0  0  0  0  0  0  0  0  0  0
   12.9770   -0.7640   22.1810 C   0  0  0  0  0  0  0  0  0  0  0  0
    8.6020    0.1230   21.2070 C   0  0  0  0  0  0  0  0  0  0  0  0
   15.4040    5.4172   21.1333 C   0  0  0  0  0  0  0  0  0  0  0  0
   15.0065    5.7744   22.5647 C   0  0  0  0  0  0  0  0  0  0  0  0
   14.3201    4.5877   20.4466 C   0  0  0  0  0  0  0  0  0  0  0  0
   14.6644    4.5270   23.3773 C   0  0  0  0  0  0  0  0  0  0  0  0
   13.9762    3.3357   21.2536 C   0  0  0  0  0  0  0  0  0  0  0  0
   12.1547    3.9951   22.9669 C   0  0  0  0  0  0  0  0  0  0  0  0
   12.7839    2.7483   23.5434 C   0  0  2  0  0  0  0  0  0  0  0  0
   13.6052    3.7006   22.6776 C   0  0  0  0  0  0  0  0  0  0  0  0
    5.0980    0.9060   21.2740 C   0  0  0  0  0  0  0  0  0  0  0  0
    9.2100   -0.5900   22.3990 C   0  0  0  0  0  0  0  0  0  0  0  0
    6.6320    0.5940   17.2520 N   0  0  0  0  0  0  0  0  0  0  0  0
    7.5630   -0.5230   20.6330 N   0  0  0  0  0  0  0  0  0  0  0  0
    9.0150    1.2120   20.8220 O   0  0  0  0  0  0  0  0  0  0  0  0
   14.1940   -1.9100   21.6990 Cl  0  0  0  0  0  0  0  0  0  0  0  0
    4.0894    1.9955   18.9731 H   0  0  0  0  0  0  0  0  0  0  0  0
   10.2920    1.6908   23.4149 H   0  0  0  0  0  0  0  0  0  0  0  0
   14.4066    0.7739   22.6379 H   0  0  0  0  0  0  0  0  0  0  0  0
   11.3632   -2.1298   21.7911 H   0  0  0  0  0  0  0  0  0  0  0  0
    5.0712    1.8129   16.6995 H   0  0  0  0  0  0  0  0  0  0  0  0
    8.1159   -0.6122   17.9919 H   0  0  0  0  0  0  0  0  0  0  0  0
   15.5844    6.3343   20.5612 H   0  0  0  0  0  0  0  0  0  0  0  0
   16.3454    4.8542   21.1437 H   0  0  0  0  0  0  0  0  0  0  0  0
   15.8233    6.3201   23.0505 H   0  0  0  0  0  0  0  0  0  0  0  0
   14.1386    6.4455   22.5407 H   0  0  0  0  0  0  0  0  0  0  0  0
   13.4200    5.2025   20.3231 H   0  0  0  0  0  0  0  0  0  0  0  0
   14.6545    4.3000   19.4435 H   0  0  0  0  0  0  0  0  0  0  0  0
   15.5639    3.9133   23.5114 H   0  0  0  0  0  0  0  0  0  0  0  0
   14.3346    4.8295   24.3785 H   0  0  0  0  0  0  0  0  0  0  0  0
   13.1621    2.8038   20.7478 H   0  0  0  0  0  0  0  0  0  0  0  0
   14.8388    2.6582   21.2716 H   0  0  0  0  0  0  0  0  0  0  0  0
   11.4344    3.8904   22.1632 H   0  0  0  0  0  0  0  0  0  0  0  0
   11.9175    4.8005   23.6532 H   0  0  0  0  0  0  0  0  0  0  0  0
   12.9882    2.7833   24.6191 H   0  0  0  0  0  0  0  0  0  0  0  0
    4.6380    1.8922   21.4056 H   0  0  0  0  0  0  0  0  0  0  0  0
    4.3479    0.1375   21.4979 H   0  0  0  0  0  0  0  0  0  0  0  0
    5.9011    0.7933   22.0129 H   0  0  0  0  0  0  0  0  0  0  0  0
    9.0901   -1.6664   22.2639 H   0  0  0  0  0  0  0  0  0  0  0  0
    8.6579   -0.3097   23.2977 H   0  0  0  0  0  0  0  0  0  0  0  0
    7.3129   -1.4300   20.9567 H   0  0  0  0  0  0  0  0  0  0  0  0
  1  5  2  0  0  0  0
  1  8  1  0  0  0  0
  2  7  1  0  0  0  0
  2  9  2  0  0  0  0
  3  7  2  0  0  0  0
  3 11  1  0  0  0  0
  4  9  1  0  0  0  0
  4 11  2  0  0  0  0
  5 23  1  0  0  0  0
  6 10  1  0  0  0  0
  6 23  2  0  0  0  0
  7 19  1  1  0  0  0
  8 10  2  0  0  0  0
  8 21  1  0  0  0  0
  9 22  1  0  0  0  0
 10 24  1  0  0  0  0
 11 26  1  0  0  0  0
 12 22  1  0  0  0  0
 12 24  1  0  0  0  0
 12 25  2  0  0  0  0
 13 14  1  0  0  0  0
 13 15  1  0  0  0  0
 14 16  1  0  0  0  0
 15 17  1  0  0  0  0
 16 20  1  0  0  0  0
 17 20  1  0  0  0  0
 18 19  1  0  0  0  0
 18 20  1  0  0  0  0
 19 20  1  0  0  0  0
  1 27  1  0  0  0  0
  2 28  1  0  0  0  0
  3 29  1  0  0  0  0
  4 30  1  0  0  0  0
  5 31  1  0  0  0  0
  6 32  1  0  0  0  0
 13 33  1  0  0  0  0
 13 34  1  0  0  0  0
 14 35  1  0  0  0  0
 14 36  1  0  0  0  0
 15 37  1  0  0  0  0
 15 38  1  0  0  0  0
 16 39  1  0  0  0  0
 16 40  1  0  0  0  0
 17 41  1  0  0  0  0
 17 42  1  0  0  0  0
 18 43  1  0  0  0  0
 18 44  1  0  0  0  0
 19 45  1  0  0  0  0
 21 46  1  0  0  0  0
 21 47  1  0  0  0  0
 21 48  1  0  0  0  0
 22 49  1  0  0  0  0
 22 50  1  0  0  0  0
 24 51  1  0  0  0  0
M  END
> <BB_SMILES>
CC1(C)OB(C2CC23CCCCC3)OC1(C)C

> <scaffold_SMILES>
Cc1ccncc1NC(=O)Cc1cc(Cl)cc(Br)c1

$$$$
EN300-1155546
  -OEChem-07272002243D

 51 54  0     1  0  0  0  0  0999 V2000
    5.0000    1.4070   18.8080 C   0  0  0  0  0  0  0  0  0  0  0  0
   11.0490    1.0010   23.0460 C   0  0  0  0  0  0  0  0  0  0  0  0
   13.3680    0.4840   22.6240 C   0  0  0  0  0  0  0  0  0  0  0  0
   11.6520   -1.1420   22.1450 C   0  0  0  0  0  0  0  0  0  0  0  0
    5.5330    1.3060   17.5390 C   0  0  0  0  0  0  0  0  0  0  0  0
    7.2400   -0.0390   18.2610 C   0  0  0  0  0  0  0  0  0  0  0  0
   12.3850    1.3610   23.0530 C   0  0  0  0  0  0  0  0  0  0  0  0
    5.6260    0.7590   19.8690 C   0  0  0  0  0  0  0  0  0  0  0  0
   10.6720   -0.2500   22.5660 C   0  0  0  0  0  0  0  0  0  0  0  0
    6.7930    0.0210   19.5790 C   0  0  0  0  0  0  0  0  0  0  0  0
   12.9770   -0.7640   22.1810 C   0  0  0  0  0  0  0  0  0  0  0  0
    8.6020    0.1230   21.2070 C   0  0  0  0  0  0  0  0  0  0  0  0
   14.3898    5.8332   20.7681 C   0  0  0  0  0  0  0  0  0  0  0  0
   14.0464    6.1700   22.2184 C   0  0  0  0  0  0  0  0  0  0  0  0
   14.8259    4.3759   20.6248 C   0  0  0  0  0  0  0  0  0  0  0  0
   12.9912    5.2178   22.7783 C   0  0  0  0  0  0  0  0  0  0  0  0
   13.7717    3.4178   21.1800 C   0  0  0  0  0  0  0  0  0  0  0  0
   14.2351    3.1349   23.7084 C   0  0  0  0  0  0  0  0  0  0  0  0
   12.7839    2.7483   23.5433 C   0  0  1  0  0  0  0  0  0  0  0  0
   13.4224    3.7754   22.6113 C   0  0  0  0  0  0  0  0  0  0  0  0
    5.0980    0.9060   21.2740 C   0  0  0  0  0  0  0  0  0  0  0  0
    9.2100   -0.5900   22.3990 C   0  0  0  0  0  0  0  0  0  0  0  0
    6.6320    0.5940   17.2520 N   0  0  0  0  0  0  0  0  0  0  0  0
    7.5630   -0.5230   20.6330 N   0  0  0  0  0  0  0  0  0  0  0  0
    9.0150    1.2120   20.8220 O   0  0  0  0  0  0  0  0  0  0  0  0
   14.1940   -1.9100   21.6990 Cl  0  0  0  0  0  0  0  0  0  0  0  0
    4.0894    1.9955   18.9731 H   0  0  0  0  0  0  0  0  0  0  0  0
   10.2920    1.6908   23.4149 H   0  0  0  0  0  0  0  0  0  0  0  0
   14.4066    0.7739   22.6379 H   0  0  0  0  0  0  0  0  0  0  0  0
   11.3632   -2.1298   21.7911 H   0  0  0  0  0  0  0  0  0  0  0  0
    5.0712    1.8129   16.6995 H   0  0  0  0  0  0  0  0  0  0  0  0
    8.1159   -0.6122   17.9919 H   0  0  0  0  0  0  0  0  0  0  0  0
   13.5162    6.0191   20.1314 H   0  0  0  0  0  0  0  0  0  0  0  0
   15.1904    6.4935   20.4161 H   0  0  0  0  0  0  0  0  0  0  0  0
   14.9564    6.1082   22.8282 H   0  0  0  0  0  0  0  0  0  0  0  0
   13.6842    7.2021   22.2828 H   0  0  0  0  0  0  0  0  0  0  0  0
   15.0129    4.1480   19.5695 H   0  0  0  0  0  0  0  0  0  0  0  0
   15.7723    4.2289   21.1596 H   0  0  0  0  0  0  0  0  0  0  0  0
   12.8121    5.4594   23.8330 H   0  0  0  0  0  0  0  0  0  0  0  0
   12.0402    5.3679   22.2523 H   0  0  0  0  0  0  0  0  0  0  0  0
   12.8637    3.4714   20.5670 H   0  0  0  0  0  0  0  0  0  0  0  0
   14.1513    2.3924   21.1006 H   0  0  0  0  0  0  0  0  0  0  0  0
   14.4995    3.7339   24.5727 H   0  0  0  0  0  0  0  0  0  0  0  0
   14.9990    2.4155   23.4350 H   0  0  0  0  0  0  0  0  0  0  0  0
   12.1048    3.1492   24.3035 H   0  0  0  0  0  0  0  0  0  0  0  0
    4.4292    1.7719   21.3397 H   0  0  0  0  0  0  0  0  0  0  0  0
    4.5439    0.0118   21.5847 H   0  0  0  0  0  0  0  0  0  0  0  0
    5.9160    1.0405   21.9926 H   0  0  0  0  0  0  0  0  0  0  0  0
    9.0901   -1.6664   22.2639 H   0  0  0  0  0  0  0  0  0  0  0  0
    8.6579   -0.3097   23.2977 H   0  0  0  0  0  0  0  0  0  0  0  0
    7.3129   -1.4300   20.9567 H   0  0  0  0  0  0  0  0  0  0  0  0
  1  5  2  0  0  0  0
  1  8  1  0  0  0  0
  2  7  1  0  0  0  0
  2  9  2  0  0  0  0
  3  7  2  0  0  0  0
  3 11  1  0  0  0  0
  4  9  1  0  0  0  0
  4 11  2  0  0  0  0
  5 23  1  0  0  0  0
  6 10  1  0  0  0  0
  6 23  2  0  0  0  0
  7 19  1  6  0  0  0
  8 10  2  0  0  0  0
  8 21  1  0  0  0  0
  9 22  1  0  0  0  0
 10 24  1  0  0  0  0
 11 26  1  0  0  0  0
 12 22  1  0  0  0  0
 12 24  1  0  0  0  0
 12 25  2  0  0  0  0
 13 14  1  0  0  0  0
 13 15  1  0  0  0  0
 14 16  1  0  0  0  0
 15 17  1  0  0  0  0
 16 20  1  0  0  0  0
 17 20  1  0  0  0  0
 18 19  1  0  0  0  0
 18 20  1  0  0  0  0
 19 20  1  0  0  0  0
  1 27  1  0  0  0  0
  2 28  1  0  0  0  0
  3 29  1  0  0  0  0
  4 30  1  0  0  0  0
  5 31  1  0  0  0  0
  6 32  1  0  0  0  0
 13 33  1  0  0  0  0
 13 34  1  0  0  0  0
 14 35  1  0  0  0  0
 14 36  1  0  0  0  0
 15 37  1  0  0  0  0
 15 38  1  0  0  0  0
 16 39  1  0  0  0  0
 16 40  1  0  0  0  0
 17 41  1  0  0  0  0
 17 42  1  0  0  0  0
 18 43  1  0  0  0  0
 18 44  1  0  0  0  0
 19 45  1  0  0  0  0
 21 46  1  0  0  0  0
 21 47  1  0  0  0  0
 21 48  1  0  0  0  0
 22 49  1  0  0  0  0
 22 50  1  0  0  0  0
 24 51  1  0  0  0  0
M  END
> <BB_SMILES>
CC1(C)OB(C2CC23CCCCC3)OC1(C)C

> <scaffold_SMILES>
Cc1ccncc1NC(=O)Cc1cc(Cl)cc(Br)c1

$$$$
EN300-1155560
  -OEChem-07272002243D

 65 68  0     1  0  0  0  0  0999 V2000
    5.0000    1.4070   18.8080 C   0  0  0  0  0  0  0  0  0  0  0  0
   11.0490    1.0010   23.0460 C   0  0  0  0  0  0  0  0  0  0  0  0
   13.3680    0.4840   22.6240 C   0  0  0  0  0  0  0  0  0  0  0  0
   11.6520   -1.1420   22.1450 C   0  0  0  0  0  0  0  0  0  0  0  0
    5.5330    1.3060   17.5390 C   0  0  0  0  0  0  0  0  0  0  0  0
    7.2400   -0.0390   18.2610 C   0  0  0  0  0  0  0  0  0  0  0  0
   12.3850    1.3610   23.0530 C   0  0  0  0  0  0  0  0  0  0  0  0
    5.6260    0.7590   19.8690 C   0  0  0  0  0  0  0  0  0  0  0  0
   10.6720   -0.2500   22.5660 C   0  0  0  0  0  0  0  0  0  0  0  0
    6.7930    0.0210   19.5790 C   0  0  0  0  0  0  0  0  0  0  0  0
   12.9770   -0.7640   22.1810 C   0  0  0  0  0  0  0  0  0  0  0  0
    8.6020    0.1230   21.2070 C   0  0  0  0  0  0  0  0  0  0  0  0
    8.8782    4.7203   26.9884 C   0  0  0  0  0  0  0  0  0  0  0  0
   11.6853    2.3789   25.9423 C   0  0  0  0  0  0  0  0  0  0  0  0
   11.9592    4.7323   24.9831 C   0  0  0  0  0  0  0  0  0  0  0  0
   13.8120    2.9422   24.6241 C   0  0  0  0  0  0  0  0  0  0  0  0
   10.2290    2.7815   26.1462 C   0  0  0  0  0  0  0  0  0  0  0  0
   11.2302    5.0736   26.2784 C   0  0  0  0  0  0  0  0  0  0  0  0
   12.7837    2.7477   23.5431 C   0  0  2  0  0  0  0  0  0  0  0  0
   12.3672    3.2701   24.9212 C   0  0  0  0  0  0  0  0  0  0  0  0
    5.0980    0.9060   21.2740 C   0  0  0  0  0  0  0  0  0  0  0  0
    6.0919    5.2791   26.6584 C   0  0  0  0  0  0  0  0  0  0  0  0
    5.7065    3.0021   27.6463 C   0  0  0  0  0  0  0  0  0  0  0  0
    6.8440    4.7799   29.0078 C   0  0  0  0  0  0  0  0  0  0  0  0
    9.2100   -0.5900   22.3990 C   0  0  0  0  0  0  0  0  0  0  0  0
    6.6386    4.2111   27.6046 C   0  0  0  0  0  0  0  0  0  0  0  0
    6.6320    0.5940   17.2520 N   0  0  0  0  0  0  0  0  0  0  0  0
   10.0758    4.1994   26.4887 N   0  0  0  0  0  0  0  0  0  0  0  0
    7.5630   -0.5230   20.6330 N   0  0  0  0  0  0  0  0  0  0  0  0
    9.0150    1.2120   20.8220 O   0  0  0  0  0  0  0  0  0  0  0  0
    8.7046    5.8998   27.2883 O   0  0  0  0  0  0  0  0  0  0  0  0
    7.9036    3.7635   27.1044 O   0  0  0  0  0  0  0  0  0  0  0  0
   14.1940   -1.9100   21.6990 Cl  0  0  0  0  0  0  0  0  0  0  0  0
    4.0894    1.9955   18.9731 H   0  0  0  0  0  0  0  0  0  0  0  0
   10.2920    1.6908   23.4149 H   0  0  0  0  0  0  0  0  0  0  0  0
   14.4066    0.7739   22.6379 H   0  0  0  0  0  0  0  0  0  0  0  0
   11.3632   -2.1298   21.7911 H   0  0  0  0  0  0  0  0  0  0  0  0
    5.0712    1.8129   16.6995 H   0  0  0  0  0  0  0  0  0  0  0  0
    8.1159   -0.6122   17.9919 H   0  0  0  0  0  0  0  0  0  0  0  0
   12.2006    2.4134   26.9130 H   0  0  0  0  0  0  0  0  0  0  0  0
   11.7372    1.3358   25.5969 H   0  0  0  0  0  0  0  0  0  0  0  0
   11.3084    4.9548   24.1207 H   0  0  0  0  0  0  0  0  0  0  0  0
   12.8378    5.3906   24.8788 H   0  0  0  0  0  0  0  0  0  0  0  0
   14.2509    2.0668   25.0928 H   0  0  0  0  0  0  0  0  0  0  0  0
   14.5146    3.7620   24.5109 H   0  0  0  0  0  0  0  0  0  0  0  0
    9.6464    2.5207   25.2480 H   0  0  0  0  0  0  0  0  0  0  0  0
    9.7869    2.2074   26.9797 H   0  0  0  0  0  0  0  0  0  0  0  0
   11.8964    4.9349   27.1408 H   0  0  0  0  0  0  0  0  0  0  0  0
   10.9248    6.1269   26.2696 H   0  0  0  0  0  0  0  0  0  0  0  0
   12.8041    3.4978   22.7388 H   0  0  0  0  0  0  0  0  0  0  0  0
    4.7163    1.9213   21.4320 H   0  0  0  0  0  0  0  0  0  0  0  0
    4.2873    0.1933   21.4693 H   0  0  0  0  0  0  0  0  0  0  0  0
    5.8826    0.7081   22.0149 H   0  0  0  0  0  0  0  0  0  0  0  0
    6.7581    6.1486   26.6257 H   0  0  0  0  0  0  0  0  0  0  0  0
    5.9730    4.8936   25.6406 H   0  0  0  0  0  0  0  0  0  0  0  0
    5.1195    5.6476   27.0047 H   0  0  0  0  0  0  0  0  0  0  0  0
    6.0948    2.2333   28.3240 H   0  0  0  0  0  0  0  0  0  0  0  0
    5.6309    2.5332   26.6585 H   0  0  0  0  0  0  0  0  0  0  0  0
    4.7001    3.2790   27.9765 H   0  0  0  0  0  0  0  0  0  0  0  0
    7.2361    4.0140   29.6867 H   0  0  0  0  0  0  0  0  0  0  0  0
    7.5392    5.6256   29.0024 H   0  0  0  0  0  0  0  0  0  0  0  0
    5.8921    5.1144   29.4359 H   0  0  0  0  0  0  0  0  0  0  0  0
    9.0901   -1.6664   22.2639 H   0  0  0  0  0  0  0  0  0  0  0  0
    8.6579   -0.3097   23.2977 H   0  0  0  0  0  0  0  0  0  0  0  0
    7.3129   -1.4300   20.9567 H   0  0  0  0  0  0  0  0  0  0  0  0
  1  5  2  0  0  0  0
  1  8  1  0  0  0  0
  2  7  1  0  0  0  0
  2  9  2  0  0  0  0
  3  7  2  0  0  0  0
  3 11  1  0  0  0  0
  4  9  1  0  0  0  0
  4 11  2  0  0  0  0
  5 27  1  0  0  0  0
  6 10  1  0  0  0  0
  6 27  2  0  0  0  0
  7 19  1  1  0  0  0
  8 10  2  0  0  0  0
  8 21  1  0  0  0  0
  9 25  1  0  0  0  0
 10 29  1  0  0  0  0
 11 33  1  0  0  0  0
 12 25  1  0  0  0  0
 12 29  1  0  0  0  0
 12 30  2  0  0  0  0
 13 28  1  0  0  0  0
 13 31  2  0  0  0  0
 13 32  1  0  0  0  0
 14 17  1  0  0  0  0
 14 20  1  0  0  0  0
 15 18  1  0  0  0  0
 15 20  1  0  0  0  0
 16 19  1  0  0  0  0
 16 20  1  0  0  0  0
 17 28  1  0  0  0  0
 18 28  1  0  0  0  0
 19 20  1  0  0  0  0
 22 26  1  0  0  0  0
 23 26  1  0  0  0  0
 24 26  1  0  0  0  0
 26 32  1  0  0  0  0
  1 34  1  0  0  0  0
  2 35  1  0  0  0  0
  3 36  1  0  0  0  0
  4 37  1  0  0  0  0
  5 38  1  0  0  0  0
  6 39  1  0  0  0  0
 14 40  1  0  0  0  0
 14 41  1  0  0  0  0
 15 42  1  0  0  0  0
 15 43  1  0  0  0  0
 16 44  1  0  0  0  0
 16 45  1  0  0  0  0
 17 46  1  0  0  0  0
 17 47  1  0  0  0  0
 18 48  1  0  0  0  0
 18 49  1  0  0  0  0
 19 50  1  0  0  0  0
 21 51  1  0  0  0  0
 21 52  1  0  0  0  0
 21 53  1  0  0  0  0
 22 54  1  0  0  0  0
 22 55  1  0  0  0  0
 22 56  1  0  0  0  0
 23 57  1  0  0  0  0
 23 58  1  0  0  0  0
 23 59  1  0  0  0  0
 24 60  1  0  0  0  0
 24 61  1  0  0  0  0
 24 62  1  0  0  0  0
 25 63  1  0  0  0  0
 25 64  1  0  0  0  0
 29 65  1  0  0  0  0
M  END
> <BB_SMILES>
CC(C)(C)OC(=O)N1CCC2(CC1)CC2B1OC(C)(C)C(C)(C)O1

> <scaffold_SMILES>
Cc1ccncc1NC(=O)Cc1cc(Cl)cc(Br)c1

$$$$
EN300-1155560
  -OEChem-07272002243D

 65 68  0     1  0  0  0  0  0999 V2000
    5.0000    1.4070   18.8080 C   0  0  0  0  0  0  0  0  0  0  0  0
   11.0490    1.0010   23.0460 C   0  0  0  0  0  0  0  0  0  0  0  0
   13.3680    0.4840   22.6240 C   0  0  0  0  0  0  0  0  0  0  0  0
   11.6520   -1.1420   22.1450 C   0  0  0  0  0  0  0  0  0  0  0  0
    5.5330    1.3060   17.5390 C   0  0  0  0  0  0  0  0  0  0  0  0
    7.2400   -0.0390   18.2610 C   0  0  0  0  0  0  0  0  0  0  0  0
   12.3850    1.3610   23.0530 C   0  0  0  0  0  0  0  0  0  0  0  0
    5.6260    0.7590   19.8690 C   0  0  0  0  0  0  0  0  0  0  0  0
   10.6720   -0.2500   22.5660 C   0  0  0  0  0  0  0  0  0  0  0  0
    6.7930    0.0210   19.5790 C   0  0  0  0  0  0  0  0  0  0  0  0
   12.9770   -0.7640   22.1810 C   0  0  0  0  0  0  0  0  0  0  0  0
    8.6020    0.1230   21.2070 C   0  0  0  0  0  0  0  0  0  0  0  0
    8.5070    6.2643   22.9288 C   0  0  0  0  0  0  0  0  0  0  0  0
   11.8611    5.1340   23.9249 C   0  0  0  0  0  0  0  0  0  0  0  0
   11.2970    3.9866   21.7116 C   0  0  0  0  0  0  0  0  0  0  0  0
   13.6363    3.6685   22.7131 C   0  0  0  0  0  0  0  0  0  0  0  0
   10.9581    6.2003   23.3138 C   0  0  0  0  0  0  0  0  0  0  0  0
    9.8539    4.3352   22.0584 C   0  0  0  0  0  0  0  0  0  0  0  0
   12.7837    2.7477   23.5431 C   0  0  1  0  0  0  0  0  0  0  0  0
   12.1851    4.0224   22.9412 C   0  0  0  0  0  0  0  0  0  0  0  0
    5.0980    0.9060   21.2740 C   0  0  0  0  0  0  0  0  0  0  0  0
    6.1991    7.5370   21.8156 C   0  0  0  0  0  0  0  0  0  0  0  0
    5.1796    5.2417   21.7765 C   0  0  0  0  0  0  0  0  0  0  0  0
    5.8342    6.2822   23.9666 C   0  0  0  0  0  0  0  0  0  0  0  0
    9.2100   -0.5900   22.3990 C   0  0  0  0  0  0  0  0  0  0  0  0
    6.1735    6.1620   22.4816 C   0  0  0  0  0  0  0  0  0  0  0  0
    6.6320    0.5940   17.2520 N   0  0  0  0  0  0  0  0  0  0  0  0
    9.7345    5.6149   22.7652 N   0  0  0  0  0  0  0  0  0  0  0  0
    7.5630   -0.5230   20.6330 N   0  0  0  0  0  0  0  0  0  0  0  0
    9.0150    1.2120   20.8220 O   0  0  0  0  0  0  0  0  0  0  0  0
    8.3586    7.3320   23.5197 O   0  0  0  0  0  0  0  0  0  0  0  0
    7.4720    5.5710   22.3569 O   0  0  0  0  0  0  0  0  0  0  0  0
   14.1940   -1.9100   21.6990 Cl  0  0  0  0  0  0  0  0  0  0  0  0
    4.0894    1.9955   18.9731 H   0  0  0  0  0  0  0  0  0  0  0  0
   10.2920    1.6908   23.4149 H   0  0  0  0  0  0  0  0  0  0  0  0
   14.4066    0.7739   22.6379 H   0  0  0  0  0  0  0  0  0  0  0  0
   11.3632   -2.1298   21.7911 H   0  0  0  0  0  0  0  0  0  0  0  0
    5.0712    1.8129   16.6995 H   0  0  0  0  0  0  0  0  0  0  0  0
    8.1159   -0.6122   17.9919 H   0  0  0  0  0  0  0  0  0  0  0  0
   12.7919    5.6073   24.2621 H   0  0  0  0  0  0  0  0  0  0  0  0
   11.3698    4.7251   24.8151 H   0  0  0  0  0  0  0  0  0  0  0  0
   11.3385    2.9833   21.2644 H   0  0  0  0  0  0  0  0  0  0  0  0
   11.6536    4.6836   20.9410 H   0  0  0  0  0  0  0  0  0  0  0  0
   14.3991    4.2422   23.2290 H   0  0  0  0  0  0  0  0  0  0  0  0
   13.9451    3.3440   21.7252 H   0  0  0  0  0  0  0  0  0  0  0  0
   10.6507    6.9277   24.0751 H   0  0  0  0  0  0  0  0  0  0  0  0
   11.4982    6.7513   22.5372 H   0  0  0  0  0  0  0  0  0  0  0  0
    9.2524    4.4212   21.1454 H   0  0  0  0  0  0  0  0  0  0  0  0
    9.4100    3.5454   22.6738 H   0  0  0  0  0  0  0  0  0  0  0  0
   12.9879    2.7779   24.6239 H   0  0  0  0  0  0  0  0  0  0  0  0
    4.9423   -0.0802   21.7263 H   0  0  0  0  0  0  0  0  0  0  0  0
    5.7960    1.4727   21.9024 H   0  0  0  0  0  0  0  0  0  0  0  0
    4.1453    1.4499   21.2844 H   0  0  0  0  0  0  0  0  0  0  0  0
    6.9113    8.2006   22.3188 H   0  0  0  0  0  0  0  0  0  0  0  0
    6.4753    7.4680   20.7584 H   0  0  0  0  0  0  0  0  0  0  0  0
    5.2198    8.0240   21.8863 H   0  0  0  0  0  0  0  0  0  0  0  0
    5.1579    4.2540   22.2511 H   0  0  0  0  0  0  0  0  0  0  0  0
    5.4728    5.0765   20.7334 H   0  0  0  0  0  0  0  0  0  0  0  0
    4.1660    5.6553   21.7904 H   0  0  0  0  0  0  0  0  0  0  0  0
    5.8158    5.2961   24.4446 H   0  0  0  0  0  0  0  0  0  0  0  0
    6.5585    6.9095   24.4963 H   0  0  0  0  0  0  0  0  0  0  0  0
    4.8352    6.7114   24.1046 H   0  0  0  0  0  0  0  0  0  0  0  0
    9.0901   -1.6664   22.2639 H   0  0  0  0  0  0  0  0  0  0  0  0
    8.6579   -0.3097   23.2977 H   0  0  0  0  0  0  0  0  0  0  0  0
    7.3129   -1.4300   20.9567 H   0  0  0  0  0  0  0  0  0  0  0  0
  1  5  2  0  0  0  0
  1  8  1  0  0  0  0
  2  7  1  0  0  0  0
  2  9  2  0  0  0  0
  3  7  2  0  0  0  0
  3 11  1  0  0  0  0
  4  9  1  0  0  0  0
  4 11  2  0  0  0  0
  5 27  1  0  0  0  0
  6 10  1  0  0  0  0
  6 27  2  0  0  0  0
  7 19  1  6  0  0  0
  8 10  2  0  0  0  0
  8 21  1  0  0  0  0
  9 25  1  0  0  0  0
 10 29  1  0  0  0  0
 11 33  1  0  0  0  0
 12 25  1  0  0  0  0
 12 29  1  0  0  0  0
 12 30  2  0  0  0  0
 13 28  1  0  0  0  0
 13 31  2  0  0  0  0
 13 32  1  0  0  0  0
 14 17  1  0  0  0  0
 14 20  1  0  0  0  0
 15 18  1  0  0  0  0
 15 20  1  0  0  0  0
 16 19  1  0  0  0  0
 16 20  1  0  0  0  0
 17 28  1  0  0  0  0
 18 28  1  0  0  0  0
 19 20  1  0  0  0  0
 22 26  1  0  0  0  0
 23 26  1  0  0  0  0
 24 26  1  0  0  0  0
 26 32  1  0  0  0  0
  1 34  1  0  0  0  0
  2 35  1  0  0  0  0
  3 36  1  0  0  0  0
  4 37  1  0  0  0  0
  5 38  1  0  0  0  0
  6 39  1  0  0  0  0
 14 40  1  0  0  0  0
 14 41  1  0  0  0  0
 15 42  1  0  0  0  0
 15 43  1  0  0  0  0
 16 44  1  0  0  0  0
 16 45  1  0  0  0  0
 17 46  1  0  0  0  0
 17 47  1  0  0  0  0
 18 48  1  0  0  0  0
 18 49  1  0  0  0  0
 19 50  1  0  0  0  0
 21 51  1  0  0  0  0
 21 52  1  0  0  0  0
 21 53  1  0  0  0  0
 22 54  1  0  0  0  0
 22 55  1  0  0  0  0
 22 56  1  0  0  0  0
 23 57  1  0  0  0  0
 23 58  1  0  0  0  0
 23 59  1  0  0  0  0
 24 60  1  0  0  0  0
 24 61  1  0  0  0  0
 24 62  1  0  0  0  0
 25 63  1  0  0  0  0
 25 64  1  0  0  0  0
 29 65  1  0  0  0  0
M  END
> <BB_SMILES>
CC(C)(C)OC(=O)N1CCC2(CC1)CC2B1OC(C)(C)C(C)(C)O1

> <scaffold_SMILES>
Cc1ccncc1NC(=O)Cc1cc(Cl)cc(Br)c1

$$$$
EN300-1155576
  -OEChem-07272002243D

 55 59  0     1  0  0  0  0  0999 V2000
    5.0000    1.4070   18.8080 C   0  0  0  0  0  0  0  0  0  0  0  0
   11.0490    1.0010   23.0460 C   0  0  0  0  0  0  0  0  0  0  0  0
   13.3680    0.4840   22.6240 C   0  0  0  0  0  0  0  0  0  0  0  0
   11.6520   -1.1420   22.1450 C   0  0  0  0  0  0  0  0  0  0  0  0
    5.5330    1.3060   17.5390 C   0  0  0  0  0  0  0  0  0  0  0  0
    7.2400   -0.0390   18.2610 C   0  0  0  0  0  0  0  0  0  0  0  0
   12.3850    1.3610   23.0530 C   0  0  0  0  0  0  0  0  0  0  0  0
    5.6260    0.7590   19.8690 C   0  0  0  0  0  0  0  0  0  0  0  0
   10.6720   -0.2500   22.5660 C   0  0  0  0  0  0  0  0  0  0  0  0
    6.7930    0.0210   19.5790 C   0  0  0  0  0  0  0  0  0  0  0  0
   12.9770   -0.7640   22.1810 C   0  0  0  0  0  0  0  0  0  0  0  0
    8.6020    0.1230   21.2070 C   0  0  0  0  0  0  0  0  0  0  0  0
   14.7335    6.1228   19.7605 C   0  0  0  0  0  0  0  0  0  0  0  0
   13.7627    7.2659   19.8422 C   0  0  0  0  0  0  0  0  0  0  0  0
   12.4340    5.1244   20.4494 C   0  0  0  0  0  0  0  0  0  0  0  0
   13.8780    6.2268   22.2141 C   0  0  0  0  0  0  0  0  0  0  0  0
   12.6808    3.7597   21.0967 C   0  0  0  0  0  0  0  0  0  0  0  0
   14.1241    4.8645   22.8637 C   0  0  0  0  0  0  0  0  0  0  0  0
   11.8032    3.8975   23.5273 C   0  0  0  0  0  0  0  0  0  0  0  0
   12.7839    2.7482   23.5433 C   0  0  2  0  0  0  0  0  0  0  0  0
   13.5832    6.0643   20.7394 C   0  0  0  0  0  0  0  0  0  0  0  0
   12.9749    3.9156   22.5784 C   0  0  0  0  0  0  0  0  0  0  0  0
    5.0980    0.9060   21.2740 C   0  0  0  0  0  0  0  0  0  0  0  0
    9.2100   -0.5900   22.3990 C   0  0  0  0  0  0  0  0  0  0  0  0
    6.6320    0.5940   17.2520 N   0  0  0  0  0  0  0  0  0  0  0  0
    7.5630   -0.5230   20.6330 N   0  0  0  0  0  0  0  0  0  0  0  0
    9.0150    1.2120   20.8220 O   0  0  0  0  0  0  0  0  0  0  0  0
   14.1940   -1.9100   21.6990 Cl  0  0  0  0  0  0  0  0  0  0  0  0
    4.0894    1.9955   18.9731 H   0  0  0  0  0  0  0  0  0  0  0  0
   10.2920    1.6908   23.4149 H   0  0  0  0  0  0  0  0  0  0  0  0
   14.4066    0.7739   22.6379 H   0  0  0  0  0  0  0  0  0  0  0  0
   11.3632   -2.1298   21.7911 H   0  0  0  0  0  0  0  0  0  0  0  0
    5.0712    1.8129   16.6995 H   0  0  0  0  0  0  0  0  0  0  0  0
    8.1159   -0.6122   17.9919 H   0  0  0  0  0  0  0  0  0  0  0  0
   14.6971    5.4938   18.8792 H   0  0  0  0  0  0  0  0  0  0  0  0
   15.7336    6.2843   20.1450 H   0  0  0  0  0  0  0  0  0  0  0  0
   14.1121    8.1925   20.2816 H   0  0  0  0  0  0  0  0  0  0  0  0
   13.0757    7.4019   19.0153 H   0  0  0  0  0  0  0  0  0  0  0  0
   12.2879    4.9939   19.3705 H   0  0  0  0  0  0  0  0  0  0  0  0
   11.5108    5.5630   20.8482 H   0  0  0  0  0  0  0  0  0  0  0  0
   13.0206    6.7163   22.6926 H   0  0  0  0  0  0  0  0  0  0  0  0
   14.7492    6.8717   22.3788 H   0  0  0  0  0  0  0  0  0  0  0  0
   11.8056    3.1230   20.9224 H   0  0  0  0  0  0  0  0  0  0  0  0
   13.5379    3.2710   20.6172 H   0  0  0  0  0  0  0  0  0  0  0  0
   15.0481    4.4258   22.4669 H   0  0  0  0  0  0  0  0  0  0  0  0
   14.2702    4.9996   23.9420 H   0  0  0  0  0  0  0  0  0  0  0  0
   10.8115    3.7293   23.1223 H   0  0  0  0  0  0  0  0  0  0  0  0
   11.8131    4.5772   24.3719 H   0  0  0  0  0  0  0  0  0  0  0  0
   13.4596    2.7238   24.4050 H   0  0  0  0  0  0  0  0  0  0  0  0
    5.9251    0.8983   21.9933 H   0  0  0  0  0  0  0  0  0  0  0  0
    4.5408    1.8435   21.3919 H   0  0  0  0  0  0  0  0  0  0  0  0
    4.4082    0.0908   21.5254 H   0  0  0  0  0  0  0  0  0  0  0  0
    9.0901   -1.6664   22.2639 H   0  0  0  0  0  0  0  0  0  0  0  0
    8.6579   -0.3097   23.2977 H   0  0  0  0  0  0  0  0  0  0  0  0
    7.3129   -1.4300   20.9567 H   0  0  0  0  0  0  0  0  0  0  0  0
  1  5  2  0  0  0  0
  1  8  1  0  0  0  0
  2  7  1  0  0  0  0
  2  9  2  0  0  0  0
  3  7  2  0  0  0  0
  3 11  1  0  0  0  0
  4  9  1  0  0  0  0
  4 11  2  0  0  0  0
  5 25  1  0  0  0  0
  6 10  1  0  0  0  0
  6 25  2  0  0  0  0
  7 20  1  1  0  0  0
  8 10  2  0  0  0  0
  8 23  1  0  0  0  0
  9 24  1  0  0  0  0
 10 26  1  0  0  0  0
 11 28  1  0  0  0  0
 12 24  1  0  0  0  0
 12 26  1  0  0  0  0
 12 27  2  0  0  0  0
 13 14  1  0  0  0  0
 13 21  1  0  0  0  0
 14 21  1  0  0  0  0
 15 17  1  0  0  0  0
 15 21  1  0  0  0  0
 16 18  1  0  0  0  0
 16 21  1  0  0  0  0
 17 22  1  0  0  0  0
 18 22  1  0  0  0  0
 19 20  1  0  0  0  0
 19 22  1  0  0  0  0
 20 22  1  0  0  0  0
  1 29  1  0  0  0  0
  2 30  1  0  0  0  0
  3 31  1  0  0  0  0
  4 32  1  0  0  0  0
  5 33  1  0  0  0  0
  6 34  1  0  0  0  0
 13 35  1  0  0  0  0
 13 36  1  0  0  0  0
 14 37  1  0  0  0  0
 14 38  1  0  0  0  0
 15 39  1  0  0  0  0
 15 40  1  0  0  0  0
 16 41  1  0  0  0  0
 16 42  1  0  0  0  0
 17 43  1  0  0  0  0
 17 44  1  0  0  0  0
 18 45  1  0  0  0  0
 18 46  1  0  0  0  0
 19 47  1  0  0  0  0
 19 48  1  0  0  0  0
 20 49  1  0  0  0  0
 23 50  1  0  0  0  0
 23 51  1  0  0  0  0
 23 52  1  0  0  0  0
 24 53  1  0  0  0  0
 24 54  1  0  0  0  0
 26 55  1  0  0  0  0
M  END
> <BB_SMILES>
CC1(C)OB(C2CC23CCC2(CC2)CC3)OC1(C)C

> <scaffold_SMILES>
Cc1ccncc1NC(=O)Cc1cc(Cl)cc(Br)c1

$$$$
EN300-1155576
  -OEChem-07272002243D

 55 59  0     1  0  0  0  0  0999 V2000
    5.0000    1.4070   18.8080 C   0  0  0  0  0  0  0  0  0  0  0  0
   11.0490    1.0010   23.0460 C   0  0  0  0  0  0  0  0  0  0  0  0
   13.3680    0.4840   22.6240 C   0  0  0  0  0  0  0  0  0  0  0  0
   11.6520   -1.1420   22.1450 C   0  0  0  0  0  0  0  0  0  0  0  0
    5.5330    1.3060   17.5390 C   0  0  0  0  0  0  0  0  0  0  0  0
    7.2400   -0.0390   18.2610 C   0  0  0  0  0  0  0  0  0  0  0  0
   12.3850    1.3610   23.0530 C   0  0  0  0  0  0  0  0  0  0  0  0
    5.6260    0.7590   19.8690 C   0  0  0  0  0  0  0  0  0  0  0  0
   10.6720   -0.2500   22.5660 C   0  0  0  0  0  0  0  0  0  0  0  0
    6.7930    0.0210   19.5790 C   0  0  0  0  0  0  0  0  0  0  0  0
   12.9770   -0.7640   22.1810 C   0  0  0  0  0  0  0  0  0  0  0  0
    8.6020    0.1230   21.2070 C   0  0  0  0  0  0  0  0  0  0  0  0
    8.0972    5.6300   23.2569 C   0  0  0  0  0  0  0  0  0  0  0  0
    9.0787    6.4943   22.5188 C   0  0  0  0  0  0  0  0  0  0  0  0
    9.7950    4.0242   22.1372 C   0  0  0  0  0  0  0  0  0  0  0  0
   10.4215    5.1694   24.3080 C   0  0  0  0  0  0  0  0  0  0  0  0
   11.2696    3.9919   21.7314 C   0  0  0  0  0  0  0  0  0  0  0  0
   11.8900    5.1776   23.8845 C   0  0  0  0  0  0  0  0  0  0  0  0
   13.6285    3.6767   22.7047 C   0  0  0  0  0  0  0  0  0  0  0  0
   12.7840    2.7486   23.5435 C   0  0  1  0  0  0  0  0  0  0  0  0
    9.5253    5.1678   23.0895 C   0  0  0  0  0  0  0  0  0  0  0  0
   12.1807    4.0205   22.9468 C   0  0  0  0  0  0  0  0  0  0  0  0
    5.0980    0.9060   21.2740 C   0  0  0  0  0  0  0  0  0  0  0  0
    9.2100   -0.5900   22.3990 C   0  0  0  0  0  0  0  0  0  0  0  0
    6.6320    0.5940   17.2520 N   0  0  0  0  0  0  0  0  0  0  0  0
    7.5630   -0.5230   20.6330 N   0  0  0  0  0  0  0  0  0  0  0  0
    9.0150    1.2120   20.8220 O   0  0  0  0  0  0  0  0  0  0  0  0
   14.1940   -1.9100   21.6990 Cl  0  0  0  0  0  0  0  0  0  0  0  0
    4.0894    1.9955   18.9731 H   0  0  0  0  0  0  0  0  0  0  0  0
   10.2920    1.6908   23.4149 H   0  0  0  0  0  0  0  0  0  0  0  0
   14.4066    0.7739   22.6379 H   0  0  0  0  0  0  0  0  0  0  0  0
   11.3632   -2.1298   21.7911 H   0  0  0  0  0  0  0  0  0  0  0  0
    5.0712    1.8129   16.6995 H   0  0  0  0  0  0  0  0  0  0  0  0
    8.1159   -0.6122   17.9919 H   0  0  0  0  0  0  0  0  0  0  0  0
    7.7705    5.9625   24.2355 H   0  0  0  0  0  0  0  0  0  0  0  0
    7.3221    5.1415   22.6777 H   0  0  0  0  0  0  0  0  0  0  0  0
    8.9631    6.5829   21.4455 H   0  0  0  0  0  0  0  0  0  0  0  0
    9.4115    7.4041   23.0032 H   0  0  0  0  0  0  0  0  0  0  0  0
    9.1670    4.1528   21.2453 H   0  0  0  0  0  0  0  0  0  0  0  0
    9.5195    3.0600   22.5840 H   0  0  0  0  0  0  0  0  0  0  0  0
   10.2304    4.2992   24.9457 H   0  0  0  0  0  0  0  0  0  0  0  0
   10.2022    6.0623   24.9052 H   0  0  0  0  0  0  0  0  0  0  0  0
   11.4776    3.0754   21.1589 H   0  0  0  0  0  0  0  0  0  0  0  0
   11.4689    4.8372   21.0568 H   0  0  0  0  0  0  0  0  0  0  0  0
   12.1260    6.1390   23.4152 H   0  0  0  0  0  0  0  0  0  0  0  0
   12.5329    5.0828   24.7673 H   0  0  0  0  0  0  0  0  0  0  0  0
   14.3899    4.2599   23.2121 H   0  0  0  0  0  0  0  0  0  0  0  0
   13.9260    3.3561   21.7118 H   0  0  0  0  0  0  0  0  0  0  0  0
   12.9883    2.7810   24.6226 H   0  0  0  0  0  0  0  0  0  0  0  0
    4.4344    1.7758   21.3413 H   0  0  0  0  0  0  0  0  0  0  0  0
    4.5383    0.0144   21.5823 H   0  0  0  0  0  0  0  0  0  0  0  0
    5.9163    1.0339   21.9934 H   0  0  0  0  0  0  0  0  0  0  0  0
    9.0901   -1.6664   22.2639 H   0  0  0  0  0  0  0  0  0  0  0  0
    8.6579   -0.3097   23.2977 H   0  0  0  0  0  0  0  0  0  0  0  0
    7.3129   -1.4300   20.9567 H   0  0  0  0  0  0  0  0  0  0  0  0
  1  5  2  0  0  0  0
  1  8  1  0  0  0  0
  2  7  1  0  0  0  0
  2  9  2  0  0  0  0
  3  7  2  0  0  0  0
  3 11  1  0  0  0  0
  4  9  1  0  0  0  0
  4 11  2  0  0  0  0
  5 25  1  0  0  0  0
  6 10  1  0  0  0  0
  6 25  2  0  0  0  0
  7 20  1  6  0  0  0
  8 10  2  0  0  0  0
  8 23  1  0  0  0  0
  9 24  1  0  0  0  0
 10 26  1  0  0  0  0
 11 28  1  0  0  0  0
 12 24  1  0  0  0  0
 12 26  1  0  0  0  0
 12 27  2  0  0  0  0
 13 14  1  0  0  0  0
 13 21  1  0  0  0  0
 14 21  1  0  0  0  0
 15 17  1  0  0  0  0
 15 21  1  0  0  0  0
 16 18  1  0  0  0  0
 16 21  1  0  0  0  0
 17 22  1  0  0  0  0
 18 22  1  0  0  0  0
 19 20  1  0  0  0  0
 19 22  1  0  0  0  0
 20 22  1  0  0  0  0
  1 29  1  0  0  0  0
  2 30  1  0  0  0  0
  3 31  1  0  0  0  0
  4 32  1  0  0  0  0
  5 33  1  0  0  0  0
  6 34  1  0  0  0  0
 13 35  1  0  0  0  0
 13 36  1  0  0  0  0
 14 37  1  0  0  0  0
 14 38  1  0  0  0  0
 15 39  1  0  0  0  0
 15 40  1  0  0  0  0
 16 41  1  0  0  0  0
 16 42  1  0  0  0  0
 17 43  1  0  0  0  0
 17 44  1  0  0  0  0
 18 45  1  0  0  0  0
 18 46  1  0  0  0  0
 19 47  1  0  0  0  0
 19 48  1  0  0  0  0
 20 49  1  0  0  0  0
 23 50  1  0  0  0  0
 23 51  1  0  0  0  0
 23 52  1  0  0  0  0
 24 53  1  0  0  0  0
 24 54  1  0  0  0  0
 26 55  1  0  0  0  0
M  END
> <BB_SMILES>
CC1(C)OB(C2CC23CCC2(CC2)CC3)OC1(C)C

> <scaffold_SMILES>
Cc1ccncc1NC(=O)Cc1cc(Cl)cc(Br)c1

$$$$
EN300-1590013
  -OEChem-07272002243D

 62 65  0     1  0  0  0  0  0999 V2000
    5.0000    1.4070   18.8080 C   0  0  0  0  0  0  0  0  0  0  0  0
   11.0490    1.0010   23.0460 C   0  0  0  0  0  0  0  0  0  0  0  0
   13.3680    0.4840   22.6240 C   0  0  0  0  0  0  0  0  0  0  0  0
   11.6520   -1.1420   22.1450 C   0  0  0  0  0  0  0  0  0  0  0  0
    5.5330    1.3060   17.5390 C   0  0  0  0  0  0  0  0  0  0  0  0
    7.2400   -0.0390   18.2610 C   0  0  0  0  0  0  0  0  0  0  0  0
   12.3850    1.3610   23.0530 C   0  0  0  0  0  0  0  0  0  0  0  0
    5.6260    0.7590   19.8690 C   0  0  0  0  0  0  0  0  0  0  0  0
   10.6720   -0.2500   22.5660 C   0  0  0  0  0  0  0  0  0  0  0  0
    6.7930    0.0210   19.5790 C   0  0  0  0  0  0  0  0  0  0  0  0
   12.9770   -0.7640   22.1810 C   0  0  0  0  0  0  0  0  0  0  0  0
    8.6020    0.1230   21.2070 C   0  0  0  0  0  0  0  0  0  0  0  0
    9.6638    4.4688   23.4606 C   0  0  0  0  0  0  0  0  0  0  0  0
   12.6479    5.4302   24.7186 C   0  0  0  0  0  0  0  0  0  0  0  0
   12.9479    5.2271   23.2100 C   0  0  0  0  0  0  0  0  0  0  0  0
   12.3984    2.9629   25.0422 C   0  0  0  0  0  0  0  0  0  0  0  0
   12.7835    2.7517   23.5412 C   0  0  2  0  0  0  0  0  0  0  0  0
   11.6442    4.3024   25.0195 C   0  0  3  0  0  0  0  0  0  0  0  0
   12.1101    3.9785   22.8629 C   0  0  3  0  0  0  0  0  0  0  0  0
    5.0980    0.9060   21.2740 C   0  0  0  0  0  0  0  0  0  0  0  0
    7.6932    5.9829   22.0508 C   0  0  0  0  0  0  0  0  0  0  0  0
    7.9248    4.2535   20.2439 C   0  0  0  0  0  0  0  0  0  0  0  0
    7.1086    3.5806   22.5219 C   0  0  0  0  0  0  0  0  0  0  0  0
    9.2100   -0.5900   22.3990 C   0  0  0  0  0  0  0  0  0  0  0  0
    8.0253    4.5234   21.7437 C   0  0  0  0  0  0  0  0  0  0  0  0
    6.6320    0.5940   17.2520 N   0  0  0  0  0  0  0  0  0  0  0  0
   10.9793    4.2052   23.7421 N   0  0  0  0  0  0  0  0  0  0  0  0
    7.5630   -0.5230   20.6330 N   0  0  0  0  0  0  0  0  0  0  0  0
    9.0150    1.2120   20.8220 O   0  0  0  0  0  0  0  0  0  0  0  0
    8.8400    4.8387   24.2934 O   0  0  0  0  0  0  0  0  0  0  0  0
    9.3785    4.2715   22.1375 O   0  0  0  0  0  0  0  0  0  0  0  0
   14.1940   -1.9100   21.6990 Cl  0  0  0  0  0  0  0  0  0  0  0  0
    4.0894    1.9955   18.9731 H   0  0  0  0  0  0  0  0  0  0  0  0
   10.2922    1.6915   23.4141 H   0  0  0  0  0  0  0  0  0  0  0  0
   14.4065    0.7745   22.6386 H   0  0  0  0  0  0  0  0  0  0  0  0
   11.3638   -2.1301   21.7911 H   0  0  0  0  0  0  0  0  0  0  0  0
    5.0712    1.8129   16.6995 H   0  0  0  0  0  0  0  0  0  0  0  0
    8.1159   -0.6122   17.9919 H   0  0  0  0  0  0  0  0  0  0  0  0
   13.5558    5.3642   25.3262 H   0  0  0  0  0  0  0  0  0  0  0  0
   12.1933    6.4147   24.8769 H   0  0  0  0  0  0  0  0  0  0  0  0
   12.6050    6.0990   22.6411 H   0  0  0  0  0  0  0  0  0  0  0  0
   14.0171    5.0886   23.0224 H   0  0  0  0  0  0  0  0  0  0  0  0
   11.7495    2.1604   25.4132 H   0  0  0  0  0  0  0  0  0  0  0  0
   13.2903    3.0038   25.6766 H   0  0  0  0  0  0  0  0  0  0  0  0
   13.9126    2.8094   23.4537 H   0  0  0  0  0  0  0  0  0  0  0  0
   10.9889    4.4812   25.8740 H   0  0  0  0  0  0  0  0  0  0  0  0
   11.8664    3.8711   21.8037 H   0  0  0  0  0  0  0  0  0  0  0  0
    4.7876    1.9413   21.4567 H   0  0  0  0  0  0  0  0  0  0  0  0
    4.2374    0.2476   21.4449 H   0  0  0  0  0  0  0  0  0  0  0  0
    5.8604    0.6336   22.0143 H   0  0  0  0  0  0  0  0  0  0  0  0
    7.7642    6.1807   23.1263 H   0  0  0  0  0  0  0  0  0  0  0  0
    8.3661    6.6688   21.5259 H   0  0  0  0  0  0  0  0  0  0  0  0
    6.6630    6.2190   21.7604 H   0  0  0  0  0  0  0  0  0  0  0  0
    8.1623    3.2074   20.0190 H   0  0  0  0  0  0  0  0  0  0  0  0
    8.6489    4.8606   19.6887 H   0  0  0  0  0  0  0  0  0  0  0  0
    6.9229    4.4717   19.8604 H   0  0  0  0  0  0  0  0  0  0  0  0
    7.3466    2.5337   22.3018 H   0  0  0  0  0  0  0  0  0  0  0  0
    7.1950    3.7349   23.6024 H   0  0  0  0  0  0  0  0  0  0  0  0
    6.0619    3.7274   22.2318 H   0  0  0  0  0  0  0  0  0  0  0  0
    9.0902   -1.6664   22.2639 H   0  0  0  0  0  0  0  0  0  0  0  0
    8.6579   -0.3097   23.2977 H   0  0  0  0  0  0  0  0  0  0  0  0
    7.3129   -1.4300   20.9567 H   0  0  0  0  0  0  0  0  0  0  0  0
  1  5  2  0  0  0  0
  1  8  1  0  0  0  0
  2  7  1  0  0  0  0
  2  9  2  0  0  0  0
  3  7  2  0  0  0  0
  3 11  1  0  0  0  0
  4  9  1  0  0  0  0
  4 11  2  0  0  0  0
  5 26  1  0  0  0  0
  6 10  1  0  0  0  0
  6 26  2  0  0  0  0
  7 17  1  1  0  0  0
  8 10  2  0  0  0  0
  8 20  1  0  0  0  0
  9 24  1  0  0  0  0
 10 28  1  0  0  0  0
 11 32  1  0  0  0  0
 12 24  1  0  0  0  0
 12 28  1  0  0  0  0
 12 29  2  0  0  0  0
 13 27  1  0  0  0  0
 13 30  2  0  0  0  0
 13 31  1  0  0  0  0
 14 15  1  0  0  0  0
 14 18  1  0  0  0  0
 15 19  1  0  0  0  0
 16 17  1  0  0  0  0
 16 18  1  0  0  0  0
 17 19  1  0  0  0  0
 18 27  1  0  0  0  0
 19 27  1  0  0  0  0
 21 25  1  0  0  0  0
 22 25  1  0  0  0  0
 23 25  1  0  0  0  0
 25 31  1  0  0  0  0
  1 33  1  0  0  0  0
  2 34  1  0  0  0  0
  3 35  1  0  0  0  0
  4 36  1  0  0  0  0
  5 37  1  0  0  0  0
  6 38  1  0  0  0  0
 14 39  1  0  0  0  0
 14 40  1  0  0  0  0
 15 41  1  0  0  0  0
 15 42  1  0  0  0  0
 16 43  1  0  0  0  0
 16 44  1  0  0  0  0
 17 45  1  0  0  0  0
 18 46  1  0  0  0  0
 19 47  1  0  0  0  0
 20 48  1  0  0  0  0
 20 49  1  0  0  0  0
 20 50  1  0  0  0  0
 21 51  1  0  0  0  0
 21 52  1  0  0  0  0
 21 53  1  0  0  0  0
 22 54  1  0  0  0  0
 22 55  1  0  0  0  0
 22 56  1  0  0  0  0
 23 57  1  0  0  0  0
 23 58  1  0  0  0  0
 23 59  1  0  0  0  0
 24 60  1  0  0  0  0
 24 61  1  0  0  0  0
 28 62  1  0  0  0  0
M  END
> <BB_SMILES>
CC(C)(C)OC(=O)N1C2CCC1C(B1OC(C)(C)C(C)(C)O1)C2

> <scaffold_SMILES>
Cc1ccncc1NC(=O)Cc1cc(Cl)cc(Br)c1

$$$$
EN300-1590013
  -OEChem-07272002243D

 62 65  0     1  0  0  0  0  0999 V2000
    5.0000    1.4070   18.8080 C   0  0  0  0  0  0  0  0  0  0  0  0
   11.0490    1.0010   23.0460 C   0  0  0  0  0  0  0  0  0  0  0  0
   13.3680    0.4840   22.6240 C   0  0  0  0  0  0  0  0  0  0  0  0
   11.6520   -1.1420   22.1450 C   0  0  0  0  0  0  0  0  0  0  0  0
    5.5330    1.3060   17.5390 C   0  0  0  0  0  0  0  0  0  0  0  0
    7.2400   -0.0390   18.2610 C   0  0  0  0  0  0  0  0  0  0  0  0
   12.3850    1.3610   23.0530 C   0  0  0  0  0  0  0  0  0  0  0  0
    5.6260    0.7590   19.8690 C   0  0  0  0  0  0  0  0  0  0  0  0
   10.6720   -0.2500   22.5660 C   0  0  0  0  0  0  0  0  0  0  0  0
    6.7930    0.0210   19.5790 C   0  0  0  0  0  0  0  0  0  0  0  0
   12.9770   -0.7640   22.1810 C   0  0  0  0  0  0  0  0  0  0  0  0
    8.6020    0.1230   21.2070 C   0  0  0  0  0  0  0  0  0  0  0  0
    9.6434    4.4321   23.5772 C   0  0  0  0  0  0  0  0  0  0  0  0
   12.7675    5.6413   24.0178 C   0  0  0  0  0  0  0  0  0  0  0  0
   12.6098    4.6313   25.1850 C   0  0  0  0  0  0  0  0  0  0  0  0
   12.8566    3.7724   22.3585 C   0  0  0  0  0  0  0  0  0  0  0  0
   12.7835    2.7517   23.5412 C   0  0  1  0  0  0  0  0  0  0  0  0
   12.0114    4.9514   22.8680 C   0  0  3  0  0  0  0  0  0  0  0  0
   11.8252    3.4755   24.5292 C   0  0  3  0  0  0  0  0  0  0  0  0
    5.0980    0.9060   21.2740 C   0  0  0  0  0  0  0  0  0  0  0  0
    7.3679    6.1167   23.9624 C   0  0  0  0  0  0  0  0  0  0  0  0
    7.7239    6.8290   21.5801 C   0  0  0  0  0  0  0  0  0  0  0  0
    7.1892    4.4311   22.1019 C   0  0  0  0  0  0  0  0  0  0  0  0
    9.2100   -0.5900   22.3990 C   0  0  0  0  0  0  0  0  0  0  0  0
    7.8930    5.6963   22.5904 C   0  0  0  0  0  0  0  0  0  0  0  0
    6.6320    0.5940   17.2520 N   0  0  0  0  0  0  0  0  0  0  0  0
   11.0006    4.2430   23.6159 N   0  0  0  0  0  0  0  0  0  0  0  0
    7.5630   -0.5230   20.6330 N   0  0  0  0  0  0  0  0  0  0  0  0
    9.0150    1.2120   20.8220 O   0  0  0  0  0  0  0  0  0  0  0  0
    8.8371    3.7894   24.2448 O   0  0  0  0  0  0  0  0  0  0  0  0
    9.2941    5.4241   22.7027 O   0  0  0  0  0  0  0  0  0  0  0  0
   14.1940   -1.9100   21.6990 Cl  0  0  0  0  0  0  0  0  0  0  0  0
    4.0894    1.9955   18.9731 H   0  0  0  0  0  0  0  0  0  0  0  0
   10.2922    1.6915   23.4141 H   0  0  0  0  0  0  0  0  0  0  0  0
   14.4065    0.7745   22.6386 H   0  0  0  0  0  0  0  0  0  0  0  0
   11.3638   -2.1301   21.7911 H   0  0  0  0  0  0  0  0  0  0  0  0
    5.0712    1.8129   16.6995 H   0  0  0  0  0  0  0  0  0  0  0  0
    8.1159   -0.6122   17.9919 H   0  0  0  0  0  0  0  0  0  0  0  0
   12.2947    6.5932   24.2845 H   0  0  0  0  0  0  0  0  0  0  0  0
   13.8196    5.8292   23.7819 H   0  0  0  0  0  0  0  0  0  0  0  0
   13.5787    4.3161   25.5844 H   0  0  0  0  0  0  0  0  0  0  0  0
   12.0301    5.0862   25.9963 H   0  0  0  0  0  0  0  0  0  0  0  0
   13.8915    4.0669   22.1539 H   0  0  0  0  0  0  0  0  0  0  0  0
   12.4283    3.3598   21.4371 H   0  0  0  0  0  0  0  0  0  0  0  0
   13.8214    2.6493   23.9859 H   0  0  0  0  0  0  0  0  0  0  0  0
   11.6343    5.6216   22.0932 H   0  0  0  0  0  0  0  0  0  0  0  0
   11.2815    2.8373   25.2292 H   0  0  0  0  0  0  0  0  0  0  0  0
    4.4561    1.7914   21.3478 H   0  0  0  0  0  0  0  0  0  0  0  0
    4.5153    0.0258   21.5725 H   0  0  0  0  0  0  0  0  0  0  0  0
    5.9173    1.0067   21.9967 H   0  0  0  0  0  0  0  0  0  0  0  0
    7.4875    5.3064   24.6904 H   0  0  0  0  0  0  0  0  0  0  0  0
    7.8889    7.0027   24.3396 H   0  0  0  0  0  0  0  0  0  0  0  0
    6.2953    6.3380   23.9195 H   0  0  0  0  0  0  0  0  0  0  0  0
    8.0994    6.5317   20.5943 H   0  0  0  0  0  0  0  0  0  0  0  0
    8.3050    7.7088   21.8793 H   0  0  0  0  0  0  0  0  0  0  0  0
    6.6750    7.1250   21.4768 H   0  0  0  0  0  0  0  0  0  0  0  0
    7.5657    4.1293   21.1178 H   0  0  0  0  0  0  0  0  0  0  0  0
    7.3309    3.5969   22.7967 H   0  0  0  0  0  0  0  0  0  0  0  0
    6.1139    4.6052   21.9814 H   0  0  0  0  0  0  0  0  0  0  0  0
    9.0902   -1.6664   22.2639 H   0  0  0  0  0  0  0  0  0  0  0  0
    8.6579   -0.3097   23.2977 H   0  0  0  0  0  0  0  0  0  0  0  0
    7.3129   -1.4300   20.9567 H   0  0  0  0  0  0  0  0  0  0  0  0
  1  5  2  0  0  0  0
  1  8  1  0  0  0  0
  2  7  1  0  0  0  0
  2  9  2  0  0  0  0
  3  7  2  0  0  0  0
  3 11  1  0  0  0  0
  4  9  1  0  0  0  0
  4 11  2  0  0  0  0
  5 26  1  0  0  0  0
  6 10  1  0  0  0  0
  6 26  2  0  0  0  0
  7 17  1  6  0  0  0
  8 10  2  0  0  0  0
  8 20  1  0  0  0  0
  9 24  1  0  0  0  0
 10 28  1  0  0  0  0
 11 32  1  0  0  0  0
 12 24  1  0  0  0  0
 12 28  1  0  0  0  0
 12 29  2  0  0  0  0
 13 27  1  0  0  0  0
 13 30  2  0  0  0  0
 13 31  1  0  0  0  0
 14 15  1  0  0  0  0
 14 18  1  0  0  0  0
 15 19  1  0  0  0  0
 16 17  1  0  0  0  0
 16 18  1  0  0  0  0
 17 19  1  0  0  0  0
 18 27  1  0  0  0  0
 19 27  1  0  0  0  0
 21 25  1  0  0  0  0
 22 25  1  0  0  0  0
 23 25  1  0  0  0  0
 25 31  1  0  0  0  0
  1 33  1  0  0  0  0
  2 34  1  0  0  0  0
  3 35  1  0  0  0  0
  4 36  1  0  0  0  0
  5 37  1  0  0  0  0
  6 38  1  0  0  0  0
 14 39  1  0  0  0  0
 14 40  1  0  0  0  0
 15 41  1  0  0  0  0
 15 42  1  0  0  0  0
 16 43  1  0  0  0  0
 16 44  1  0  0  0  0
 17 45  1  0  0  0  0
 18 46  1  0  0  0  0
 19 47  1  0  0  0  0
 20 48  1  0  0  0  0
 20 49  1  0  0  0  0
 20 50  1  0  0  0  0
 21 51  1  0  0  0  0
 21 52  1  0  0  0  0
 21 53  1  0  0  0  0
 22 54  1  0  0  0  0
 22 55  1  0  0  0  0
 22 56  1  0  0  0  0
 23 57  1  0  0  0  0
 23 58  1  0  0  0  0
 23 59  1  0  0  0  0
 24 60  1  0  0  0  0
 24 61  1  0  0  0  0
 28 62  1  0  0  0  0
M  END
> <BB_SMILES>
CC(C)(C)OC(=O)N1C2CCC1C(B1OC(C)(C)C(C)(C)O1)C2

> <scaffold_SMILES>
Cc1ccncc1NC(=O)Cc1cc(Cl)cc(Br)c1

$$$$
EN300-1086686
  -OEChem-07272002243D

 52 55  0     1  0  0  0  0  0999 V2000
   11.8889    3.7625   23.3647 C   0  0  0  0  0  0  0  0  0  0  0  0
   14.0085    2.8862   24.1237 C   0  0  0  0  0  0  0  0  0  0  0  0
   12.2536    5.0323   23.8121 C   0  0  0  0  0  0  0  0  0  0  0  0
   14.3733    4.1560   24.5711 C   0  0  0  0  0  0  0  0  0  0  0  0
    5.0000    1.4070   18.8080 C   0  0  0  0  0  0  0  0  0  0  0  0
   11.0490    1.0010   23.0460 C   0  0  0  0  0  0  0  0  0  0  0  0
   13.3680    0.4840   22.6240 C   0  0  0  0  0  0  0  0  0  0  0  0
   11.6520   -1.1420   22.1450 C   0  0  0  0  0  0  0  0  0  0  0  0
    5.5330    1.3060   17.5390 C   0  0  0  0  0  0  0  0  0  0  0  0
    7.2400   -0.0390   18.2610 C   0  0  0  0  0  0  0  0  0  0  0  0
   12.7663    2.6894   23.5205 C   0  0  0  0  0  0  0  0  0  0  0  0
   12.3850    1.3610   23.0530 C   0  0  0  0  0  0  0  0  0  0  0  0
   13.4958    5.2290   24.4153 C   0  0  0  0  0  0  0  0  0  0  0  0
    5.6260    0.7590   19.8690 C   0  0  0  0  0  0  0  0  0  0  0  0
   10.6720   -0.2500   22.5660 C   0  0  0  0  0  0  0  0  0  0  0  0
    6.7930    0.0210   19.5790 C   0  0  0  0  0  0  0  0  0  0  0  0
   12.9770   -0.7640   22.1810 C   0  0  0  0  0  0  0  0  0  0  0  0
    8.6020    0.1230   21.2070 C   0  0  0  0  0  0  0  0  0  0  0  0
   15.1664    7.2653   24.2894 C   0  0  0  0  0  0  0  0  0  0  0  0
   14.2515    8.4224   23.9134 C   0  0  0  0  0  0  0  0  0  0  0  0
   13.8980    6.6286   24.9085 C   0  0  1  0  0  0  0  0  0  0  0  0
    5.0980    0.9060   21.2740 C   0  0  0  0  0  0  0  0  0  0  0  0
   13.8516    6.6923   26.4333 C   0  0  0  0  0  0  0  0  0  0  0  0
    9.2100   -0.5900   22.3990 C   0  0  0  0  0  0  0  0  0  0  0  0
    6.6320    0.5940   17.2520 N   0  0  0  0  0  0  0  0  0  0  0  0
    7.5630   -0.5230   20.6330 N   0  0  0  0  0  0  0  0  0  0  0  0
    9.0150    1.2120   20.8220 O   0  0  0  0  0  0  0  0  0  0  0  0
   13.0795    7.7019   24.3511 O   0  0  0  0  0  0  0  0  0  0  0  0
   14.1940   -1.9100   21.6990 Cl  0  0  0  0  0  0  0  0  0  0  0  0
   10.9170    3.6251   22.8966 H   0  0  0  0  0  0  0  0  0  0  0  0
   14.7034    2.0597   24.2524 H   0  0  0  0  0  0  0  0  0  0  0  0
   11.5642    5.8628   23.6874 H   0  0  0  0  0  0  0  0  0  0  0  0
   15.3425    4.3020   25.0403 H   0  0  0  0  0  0  0  0  0  0  0  0
    4.0894    1.9955   18.9731 H   0  0  0  0  0  0  0  0  0  0  0  0
   10.2869    1.6872   23.4130 H   0  0  0  0  0  0  0  0  0  0  0  0
   14.4085    0.7689   22.6365 H   0  0  0  0  0  0  0  0  0  0  0  0
   11.3634   -2.1298   21.7910 H   0  0  0  0  0  0  0  0  0  0  0  0
    5.0712    1.8129   16.6995 H   0  0  0  0  0  0  0  0  0  0  0  0
    8.1159   -0.6122   17.9919 H   0  0  0  0  0  0  0  0  0  0  0  0
   15.5878    6.7311   23.4324 H   0  0  0  0  0  0  0  0  0  0  0  0
   15.9683    7.5186   24.9883 H   0  0  0  0  0  0  0  0  0  0  0  0
   14.3936    9.3399   24.4921 H   0  0  0  0  0  0  0  0  0  0  0  0
   14.2095    8.6565   22.8463 H   0  0  0  0  0  0  0  0  0  0  0  0
    5.1579    1.9525   21.5947 H   0  0  0  0  0  0  0  0  0  0  0  0
    4.0530    0.5791   21.3409 H   0  0  0  0  0  0  0  0  0  0  0  0
    5.6708    0.2908   21.9790 H   0  0  0  0  0  0  0  0  0  0  0  0
   14.1382    7.6872   26.7706 H   0  0  0  0  0  0  0  0  0  0  0  0
   14.5399    5.9613   26.8548 H   0  0  0  0  0  0  0  0  0  0  0  0
   12.8432    6.4746   26.7817 H   0  0  0  0  0  0  0  0  0  0  0  0
    9.0901   -1.6664   22.2639 H   0  0  0  0  0  0  0  0  0  0  0  0
    8.6579   -0.3097   23.2977 H   0  0  0  0  0  0  0  0  0  0  0  0
    7.3129   -1.4300   20.9567 H   0  0  0  0  0  0  0  0  0  0  0  0
  1  3  2  0  0  0  0
  1 11  1  0  0  0  0
  2  4  1  0  0  0  0
  2 11  2  0  0  0  0
  3 13  1  0  0  0  0
  4 13  2  0  0  0  0
  5  9  2  0  0  0  0
  5 14  1  0  0  0  0
  6 12  1  0  0  0  0
  6 15  2  0  0  0  0
  7 12  2  0  0  0  0
  7 17  1  0  0  0  0
  8 15  1  0  0  0  0
  8 17  2  0  0  0  0
  9 25  1  0  0  0  0
 10 16  1  0  0  0  0
 10 25  2  0  0  0  0
 11 12  1  0  0  0  0
 13 21  1  0  0  0  0
 14 16  2  0  0  0  0
 14 22  1  0  0  0  0
 15 24  1  0  0  0  0
 16 26  1  0  0  0  0
 17 29  1  0  0  0  0
 18 24  1  0  0  0  0
 18 26  1  0  0  0  0
 18 27  2  0  0  0  0
 19 20  1  0  0  0  0
 19 21  1  0  0  0  0
 20 28  1  0  0  0  0
 21 23  1  1  0  0  0
 21 28  1  0  0  0  0
  1 30  1  0  0  0  0
  2 31  1  0  0  0  0
  3 32  1  0  0  0  0
  4 33  1  0  0  0  0
  5 34  1  0  0  0  0
  6 35  1  0  0  0  0
  7 36  1  0  0  0  0
  8 37  1  0  0  0  0
  9 38  1  0  0  0  0
 10 39  1  0  0  0  0
 19 40  1  0  0  0  0
 19 41  1  0  0  0  0
 20 42  1  0  0  0  0
 20 43  1  0  0  0  0
 22 44  1  0  0  0  0
 22 45  1  0  0  0  0
 22 46  1  0  0  0  0
 23 47  1  0  0  0  0
 23 48  1  0  0  0  0
 23 49  1  0  0  0  0
 24 50  1  0  0  0  0
 24 51  1  0  0  0  0
 26 52  1  0  0  0  0
M  END
> <BB_SMILES>
CC1(c2ccc(B3OC(C)(C)C(C)(C)O3)cc2)CCO1

> <scaffold_SMILES>
Cc1ccncc1NC(=O)Cc1cc(Cl)cc(Br)c1

$$$$
EN300-1086686
  -OEChem-07272002243D

 52 55  0     1  0  0  0  0  0999 V2000
   11.8882    3.7619   23.3642 C   0  0  0  0  0  0  0  0  0  0  0  0
   14.0082    2.8870   24.1242 C   0  0  0  0  0  0  0  0  0  0  0  0
   12.2519    5.0319   23.8117 C   0  0  0  0  0  0  0  0  0  0  0  0
   14.3719    4.1571   24.5717 C   0  0  0  0  0  0  0  0  0  0  0  0
    5.0000    1.4070   18.8080 C   0  0  0  0  0  0  0  0  0  0  0  0
   11.0490    1.0010   23.0460 C   0  0  0  0  0  0  0  0  0  0  0  0
   13.3680    0.4840   22.6240 C   0  0  0  0  0  0  0  0  0  0  0  0
   11.6520   -1.1420   22.1450 C   0  0  0  0  0  0  0  0  0  0  0  0
    5.5330    1.3060   17.5390 C   0  0  0  0  0  0  0  0  0  0  0  0
    7.2400   -0.0390   18.2610 C   0  0  0  0  0  0  0  0  0  0  0  0
   12.7663    2.6894   23.5205 C   0  0  0  0  0  0  0  0  0  0  0  0
   12.3850    1.3610   23.0530 C   0  0  0  0  0  0  0  0  0  0  0  0
   13.4937    5.2296   24.4154 C   0  0  0  0  0  0  0  0  0  0  0  0
    5.6260    0.7590   19.8690 C   0  0  0  0  0  0  0  0  0  0  0  0
   10.6720   -0.2500   22.5660 C   0  0  0  0  0  0  0  0  0  0  0  0
    6.7930    0.0210   19.5790 C   0  0  0  0  0  0  0  0  0  0  0  0
   12.9770   -0.7640   22.1810 C   0  0  0  0  0  0  0  0  0  0  0  0
    8.6020    0.1230   21.2070 C   0  0  0  0  0  0  0  0  0  0  0  0
   14.2045    6.7917   26.4170 C   0  0  0  0  0  0  0  0  0  0  0  0
   13.1275    7.8674   26.3960 C   0  0  0  0  0  0  0  0  0  0  0  0
   13.8948    6.6294   24.9087 C   0  0  2  0  0  0  0  0  0  0  0  0
    5.0980    0.9060   21.2740 C   0  0  0  0  0  0  0  0  0  0  0  0
   14.9503    7.2388   23.9893 C   0  0  0  0  0  0  0  0  0  0  0  0
    9.2100   -0.5900   22.3990 C   0  0  0  0  0  0  0  0  0  0  0  0
    6.6320    0.5940   17.2520 N   0  0  0  0  0  0  0  0  0  0  0  0
    7.5630   -0.5230   20.6330 N   0  0  0  0  0  0  0  0  0  0  0  0
    9.0150    1.2120   20.8220 O   0  0  0  0  0  0  0  0  0  0  0  0
   12.7682    7.5501   25.0342 O   0  0  0  0  0  0  0  0  0  0  0  0
   14.1940   -1.9100   21.6990 Cl  0  0  0  0  0  0  0  0  0  0  0  0
   10.9166    3.6238   22.8957 H   0  0  0  0  0  0  0  0  0  0  0  0
   14.7035    2.0610   24.2532 H   0  0  0  0  0  0  0  0  0  0  0  0
   11.5620    5.8620   23.6867 H   0  0  0  0  0  0  0  0  0  0  0  0
   15.3407    4.3038   25.0413 H   0  0  0  0  0  0  0  0  0  0  0  0
    4.0894    1.9955   18.9731 H   0  0  0  0  0  0  0  0  0  0  0  0
   10.2869    1.6872   23.4130 H   0  0  0  0  0  0  0  0  0  0  0  0
   14.4085    0.7689   22.6365 H   0  0  0  0  0  0  0  0  0  0  0  0
   11.3634   -2.1298   21.7909 H   0  0  0  0  0  0  0  0  0  0  0  0
    5.0712    1.8129   16.6995 H   0  0  0  0  0  0  0  0  0  0  0  0
    8.1159   -0.6122   17.9919 H   0  0  0  0  0  0  0  0  0  0  0  0
   15.2080    7.1468   26.6671 H   0  0  0  0  0  0  0  0  0  0  0  0
   13.9600    5.9273   27.0419 H   0  0  0  0  0  0  0  0  0  0  0  0
   12.2927    7.7068   27.0835 H   0  0  0  0  0  0  0  0  0  0  0  0
   13.4896    8.8961   26.4823 H   0  0  0  0  0  0  0  0  0  0  0  0
    4.7315    1.9261   21.4372 H   0  0  0  0  0  0  0  0  0  0  0  0
    4.2762    0.2046   21.4640 H   0  0  0  0  0  0  0  0  0  0  0  0
    5.8782    0.6919   22.0149 H   0  0  0  0  0  0  0  0  0  0  0  0
   15.2262    8.2291   24.3485 H   0  0  0  0  0  0  0  0  0  0  0  0
   14.5551    7.3240   22.9782 H   0  0  0  0  0  0  0  0  0  0  0  0
   15.8364    6.6059   23.9734 H   0  0  0  0  0  0  0  0  0  0  0  0
    9.0901   -1.6664   22.2639 H   0  0  0  0  0  0  0  0  0  0  0  0
    8.6579   -0.3097   23.2977 H   0  0  0  0  0  0  0  0  0  0  0  0
    7.3129   -1.4300   20.9567 H   0  0  0  0  0  0  0  0  0  0  0  0
  1  3  2  0  0  0  0
  1 11  1  0  0  0  0
  2  4  1  0  0  0  0
  2 11  2  0  0  0  0
  3 13  1  0  0  0  0
  4 13  2  0  0  0  0
  5  9  2  0  0  0  0
  5 14  1  0  0  0  0
  6 12  1  0  0  0  0
  6 15  2  0  0  0  0
  7 12  2  0  0  0  0
  7 17  1  0  0  0  0
  8 15  1  0  0  0  0
  8 17  2  0  0  0  0
  9 25  1  0  0  0  0
 10 16  1  0  0  0  0
 10 25  2  0  0  0  0
 11 12  1  0  0  0  0
 13 21  1  0  0  0  0
 14 16  2  0  0  0  0
 14 22  1  0  0  0  0
 15 24  1  0  0  0  0
 16 26  1  0  0  0  0
 17 29  1  0  0  0  0
 18 24  1  0  0  0  0
 18 26  1  0  0  0  0
 18 27  2  0  0  0  0
 19 20  1  0  0  0  0
 19 21  1  0  0  0  0
 20 28  1  0  0  0  0
 21 23  1  6  0  0  0
 21 28  1  0  0  0  0
  1 30  1  0  0  0  0
  2 31  1  0  0  0  0
  3 32  1  0  0  0  0
  4 33  1  0  0  0  0
  5 34  1  0  0  0  0
  6 35  1  0  0  0  0
  7 36  1  0  0  0  0
  8 37  1  0  0  0  0
  9 38  1  0  0  0  0
 10 39  1  0  0  0  0
 19 40  1  0  0  0  0
 19 41  1  0  0  0  0
 20 42  1  0  0  0  0
 20 43  1  0  0  0  0
 22 44  1  0  0  0  0
 22 45  1  0  0  0  0
 22 46  1  0  0  0  0
 23 47  1  0  0  0  0
 23 48  1  0  0  0  0
 23 49  1  0  0  0  0
 24 50  1  0  0  0  0
 24 51  1  0  0  0  0
 26 52  1  0  0  0  0
M  END
> <BB_SMILES>
CC1(c2ccc(B3OC(C)(C)C(C)(C)O3)cc2)CCO1

> <scaffold_SMILES>
Cc1ccncc1NC(=O)Cc1cc(Cl)cc(Br)c1

$$$$
EN300-1448493
  -OEChem-07272002243D

 44 46  0     0  0  0  0  0  0999 V2000
    5.0000    1.4070   18.8080 C   0  0  0  0  0  0  0  0  0  0  0  0
   11.0490    1.0010   23.0460 C   0  0  0  0  0  0  0  0  0  0  0  0
   11.6520   -1.1420   22.1450 C   0  0  0  0  0  0  0  0  0  0  0  0
   13.3680    0.4840   22.6240 C   0  0  0  0  0  0  0  0  0  0  0  0
    5.5330    1.3060   17.5390 C   0  0  0  0  0  0  0  0  0  0  0  0
    7.2400   -0.0390   18.2610 C   0  0  0  0  0  0  0  0  0  0  0  0
    5.6260    0.7590   19.8690 C   0  0  0  0  0  0  0  0  0  0  0  0
   10.6720   -0.2500   22.5660 C   0  0  0  0  0  0  0  0  0  0  0  0
   12.3850    1.3610   23.0530 C   0  0  0  0  0  0  0  0  0  0  0  0
    6.7930    0.0210   19.5790 C   0  0  0  0  0  0  0  0  0  0  0  0
   12.9770   -0.7640   22.1810 C   0  0  0  0  0  0  0  0  0  0  0  0
    8.6020    0.1230   21.2070 C   0  0  0  0  0  0  0  0  0  0  0  0
   11.9971    5.5937   21.6803 C   0  0  0  0  0  0  0  0  0  0  0  0
   12.9651    5.2480   22.8308 C   0  0  0  0  0  0  0  0  0  0  0  0
   11.4323    4.1649   21.8208 C   0  0  0  0  0  0  0  0  0  0  0  0
   12.8046    3.7611   22.4198 C   0  0  0  0  0  0  0  0  0  0  0  0
    5.0980    0.9060   21.2740 C   0  0  0  0  0  0  0  0  0  0  0  0
    9.2100   -0.5900   22.3990 C   0  0  0  0  0  0  0  0  0  0  0  0
   12.7818    2.7451   23.5427 C   0  0  0  0  0  0  0  0  0  0  0  0
    6.6320    0.5940   17.2520 N   0  0  0  0  0  0  0  0  0  0  0  0
    7.5630   -0.5230   20.6330 N   0  0  0  0  0  0  0  0  0  0  0  0
    9.0150    1.2120   20.8220 O   0  0  0  0  0  0  0  0  0  0  0  0
   14.1940   -1.9100   21.6990 Cl  0  0  0  0  0  0  0  0  0  0  0  0
    4.0894    1.9955   18.9731 H   0  0  0  0  0  0  0  0  0  0  0  0
   10.2920    1.6914   23.4138 H   0  0  0  0  0  0  0  0  0  0  0  0
   11.3638   -2.1302   21.7909 H   0  0  0  0  0  0  0  0  0  0  0  0
   14.4063    0.7746   22.6384 H   0  0  0  0  0  0  0  0  0  0  0  0
    5.0712    1.8129   16.6995 H   0  0  0  0  0  0  0  0  0  0  0  0
    8.1159   -0.6122   17.9919 H   0  0  0  0  0  0  0  0  0  0  0  0
   11.2931    6.4057   21.8778 H   0  0  0  0  0  0  0  0  0  0  0  0
   12.4979    5.7781   20.7230 H   0  0  0  0  0  0  0  0  0  0  0  0
   13.9734    5.6598   22.7392 H   0  0  0  0  0  0  0  0  0  0  0  0
   12.5694    5.4917   23.8238 H   0  0  0  0  0  0  0  0  0  0  0  0
   10.5909    4.0941   22.5202 H   0  0  0  0  0  0  0  0  0  0  0  0
   11.1592    3.6701   20.8853 H   0  0  0  0  0  0  0  0  0  0  0  0
   13.5242    3.4689   21.6416 H   0  0  0  0  0  0  0  0  0  0  0  0
    4.1244    1.4094   21.2631 H   0  0  0  0  0  0  0  0  0  0  0  0
    4.9808   -0.0716   21.7576 H   0  0  0  0  0  0  0  0  0  0  0  0
    5.7867    1.4900   21.8970 H   0  0  0  0  0  0  0  0  0  0  0  0
    9.0902   -1.6664   22.2639 H   0  0  0  0  0  0  0  0  0  0  0  0
    8.6579   -0.3097   23.2977 H   0  0  0  0  0  0  0  0  0  0  0  0
   12.0849    3.0679   24.3288 H   0  0  0  0  0  0  0  0  0  0  0  0
   13.7687    2.6924   24.0234 H   0  0  0  0  0  0  0  0  0  0  0  0
    7.3129   -1.4300   20.9567 H   0  0  0  0  0  0  0  0  0  0  0  0
  1  5  2  0  0  0  0
  1  7  1  0  0  0  0
  2  8  2  0  0  0  0
  2  9  1  0  0  0  0
  3  8  1  0  0  0  0
  3 11  2  0  0  0  0
  4  9  2  0  0  0  0
  4 11  1  0  0  0  0
  5 20  1  0  0  0  0
  6 10  1  0  0  0  0
  6 20  2  0  0  0  0
  7 10  2  0  0  0  0
  7 17  1  0  0  0  0
  8 18  1  0  0  0  0
  9 19  1  0  0  0  0
 10 21  1  0  0  0  0
 11 23  1  0  0  0  0
 12 18  1  0  0  0  0
 12 21  1  0  0  0  0
 12 22  2  0  0  0  0
 13 14  1  0  0  0  0
 13 15  1  0  0  0  0
 14 16  1  0  0  0  0
 15 16  1  0  0  0  0
 16 19  1  0  0  0  0
  1 24  1  0  0  0  0
  2 25  1  0  0  0  0
  3 26  1  0  0  0  0
  4 27  1  0  0  0  0
  5 28  1  0  0  0  0
  6 29  1  0  0  0  0
 13 30  1  0  0  0  0
 13 31  1  0  0  0  0
 14 32  1  0  0  0  0
 14 33  1  0  0  0  0
 15 34  1  0  0  0  0
 15 35  1  0  0  0  0
 16 36  1  0  0  0  0
 17 37  1  0  0  0  0
 17 38  1  0  0  0  0
 17 39  1  0  0  0  0
 18 40  1  0  0  0  0
 18 41  1  0  0  0  0
 19 42  1  0  0  0  0
 19 43  1  0  0  0  0
 21 44  1  0  0  0  0
M  END
> <BB_SMILES>
CC1(C)OB(CC2CCC2)OC1(C)C

> <scaffold_SMILES>
Cc1ccncc1NC(=O)Cc1cc(Cl)cc(Br)c1

$$$$
EN300-1655764
  -OEChem-07272002243D

 37 38  0     0  0  0  0  0  0999 V2000
    5.0000    1.4070   18.8080 C   0  0  0  0  0  0  0  0  0  0  0  0
   11.0490    1.0010   23.0460 C   0  0  0  0  0  0  0  0  0  0  0  0
   11.6520   -1.1420   22.1450 C   0  0  0  0  0  0  0  0  0  0  0  0
   13.3680    0.4840   22.6240 C   0  0  0  0  0  0  0  0  0  0  0  0
    5.5330    1.3060   17.5390 C   0  0  0  0  0  0  0  0  0  0  0  0
    7.2400   -0.0390   18.2610 C   0  0  0  0  0  0  0  0  0  0  0  0
    5.6260    0.7590   19.8690 C   0  0  0  0  0  0  0  0  0  0  0  0
   10.6720   -0.2500   22.5660 C   0  0  0  0  0  0  0  0  0  0  0  0
   12.3850    1.3610   23.0530 C   0  0  0  0  0  0  0  0  0  0  0  0
    6.7930    0.0210   19.5790 C   0  0  0  0  0  0  0  0  0  0  0  0
   12.9770   -0.7640   22.1810 C   0  0  0  0  0  0  0  0  0  0  0  0
    8.6020    0.1230   21.2070 C   0  0  0  0  0  0  0  0  0  0  0  0
    5.0980    0.9060   21.2740 C   0  0  0  0  0  0  0  0  0  0  0  0
    9.2100   -0.5900   22.3990 C   0  0  0  0  0  0  0  0  0  0  0  0
   12.7773    2.7295   23.5372 C   0  0  0  0  0  0  0  0  0  0  0  0
   12.8062    3.7648   22.4239 C   0  0  0  0  0  0  0  0  0  0  0  0
    6.6320    0.5940   17.2520 N   0  0  0  0  0  0  0  0  0  0  0  0
    7.5630   -0.5230   20.6330 N   0  0  0  0  0  0  0  0  0  0  0  0
    9.0150    1.2120   20.8220 O   0  0  0  0  0  0  0  0  0  0  0  0
   13.7382    3.4458   21.4972 F   0  0  0  0  0  0  0  0  0  0  0  0
   13.1103    4.9913   22.8987 F   0  0  0  0  0  0  0  0  0  0  0  0
   11.6160    3.8428   21.7915 F   0  0  0  0  0  0  0  0  0  0  0  0
   14.1940   -1.9100   21.6990 Cl  0  0  0  0  0  0  0  0  0  0  0  0
    4.0894    1.9955   18.9731 H   0  0  0  0  0  0  0  0  0  0  0  0
   10.2920    1.6914   23.4138 H   0  0  0  0  0  0  0  0  0  0  0  0
   11.3638   -2.1302   21.7909 H   0  0  0  0  0  0  0  0  0  0  0  0
   14.4063    0.7746   22.6384 H   0  0  0  0  0  0  0  0  0  0  0  0
    5.0712    1.8129   16.6995 H   0  0  0  0  0  0  0  0  0  0  0  0
    8.1159   -0.6122   17.9919 H   0  0  0  0  0  0  0  0  0  0  0  0
    4.7841   -0.0685   21.6656 H   0  0  0  0  0  0  0  0  0  0  0  0
    5.8614    1.3222   21.9428 H   0  0  0  0  0  0  0  0  0  0  0  0
    4.2397    1.5885   21.3053 H   0  0  0  0  0  0  0  0  0  0  0  0
    9.0902   -1.6664   22.2639 H   0  0  0  0  0  0  0  0  0  0  0  0
    8.6579   -0.3097   23.2977 H   0  0  0  0  0  0  0  0  0  0  0  0
   13.7674    2.6941   24.0193 H   0  0  0  0  0  0  0  0  0  0  0  0
   12.0850    3.0692   24.3241 H   0  0  0  0  0  0  0  0  0  0  0  0
    7.3129   -1.4300   20.9567 H   0  0  0  0  0  0  0  0  0  0  0  0
  1  5  2  0  0  0  0
  1  7  1  0  0  0  0
  2  8  2  0  0  0  0
  2  9  1  0  0  0  0
  3  8  1  0  0  0  0
  3 11  2  0  0  0  0
  4  9  2  0  0  0  0
  4 11  1  0  0  0  0
  5 17  1  0  0  0  0
  6 10  1  0  0  0  0
  6 17  2  0  0  0  0
  7 10  2  0  0  0  0
  7 13  1  0  0  0  0
  8 14  1  0  0  0  0
  9 15  1  0  0  0  0
 10 18  1  0  0  0  0
 11 23  1  0  0  0  0
 12 14  1  0  0  0  0
 12 18  1  0  0  0  0
 12 19  2  0  0  0  0
 15 16  1  0  0  0  0
 16 20  1  0  0  0  0
 16 21  1  0  0  0  0
 16 22  1  0  0  0  0
  1 24  1  0  0  0  0
  2 25  1  0  0  0  0
  3 26  1  0  0  0  0
  4 27  1  0  0  0  0
  5 28  1  0  0  0  0
  6 29  1  0  0  0  0
 13 30  1  0  0  0  0
 13 31  1  0  0  0  0
 13 32  1  0  0  0  0
 14 33  1  0  0  0  0
 14 34  1  0  0  0  0
 15 35  1  0  0  0  0
 15 36  1  0  0  0  0
 18 37  1  0  0  0  0
M  END
> <BB_SMILES>
CC1(C)OB(CC(F)(F)F)OC1(C)C

> <scaffold_SMILES>
Cc1ccncc1NC(=O)Cc1cc(Cl)cc(Br)c1

$$$$
EN300-817089
  -OEChem-07272002243D

 45 48  0     1  0  0  0  0  0999 V2000
    5.0000    1.4070   18.8080 C   0  0  0  0  0  0  0  0  0  0  0  0
   11.0490    1.0010   23.0460 C   0  0  0  0  0  0  0  0  0  0  0  0
   13.3680    0.4840   22.6240 C   0  0  0  0  0  0  0  0  0  0  0  0
   11.6520   -1.1420   22.1450 C   0  0  0  0  0  0  0  0  0  0  0  0
    5.5330    1.3060   17.5390 C   0  0  0  0  0  0  0  0  0  0  0  0
    7.2400   -0.0390   18.2610 C   0  0  0  0  0  0  0  0  0  0  0  0
   12.3850    1.3610   23.0530 C   0  0  0  0  0  0  0  0  0  0  0  0
    5.6260    0.7590   19.8690 C   0  0  0  0  0  0  0  0  0  0  0  0
   10.6720   -0.2500   22.5660 C   0  0  0  0  0  0  0  0  0  0  0  0
    6.7930    0.0210   19.5790 C   0  0  0  0  0  0  0  0  0  0  0  0
   12.9770   -0.7640   22.1810 C   0  0  0  0  0  0  0  0  0  0  0  0
    8.6020    0.1230   21.2070 C   0  0  0  0  0  0  0  0  0  0  0  0
   13.8777    4.8741   23.1225 C   0  0  0  0  0  0  0  0  0  0  0  0
   12.3652    5.1185   23.1607 C   0  0  0  0  0  0  0  0  0  0  0  0
   14.0282    3.3591   22.9272 C   0  0  0  0  0  0  0  0  0  0  0  0
   12.3410    3.1834   24.9309 C   0  0  0  0  0  0  0  0  0  0  0  0
   11.7800    3.8497   23.7080 C   0  0  2  0  0  0  0  0  0  0  0  0
   12.7837    2.7477   23.5431 C   0  0  1  0  0  0  0  0  0  0  0  0
    5.0980    0.9060   21.2740 C   0  0  0  0  0  0  0  0  0  0  0  0
    9.2100   -0.5900   22.3990 C   0  0  0  0  0  0  0  0  0  0  0  0
    6.6320    0.5940   17.2520 N   0  0  0  0  0  0  0  0  0  0  0  0
    7.5630   -0.5230   20.6330 N   0  0  0  0  0  0  0  0  0  0  0  0
    9.0150    1.2120   20.8220 O   0  0  0  0  0  0  0  0  0  0  0  0
   14.1940   -1.9100   21.6990 Cl  0  0  0  0  0  0  0  0  0  0  0  0
    4.0894    1.9955   18.9731 H   0  0  0  0  0  0  0  0  0  0  0  0
   10.2920    1.6908   23.4149 H   0  0  0  0  0  0  0  0  0  0  0  0
   14.4066    0.7739   22.6379 H   0  0  0  0  0  0  0  0  0  0  0  0
   11.3632   -2.1298   21.7911 H   0  0  0  0  0  0  0  0  0  0  0  0
    5.0712    1.8129   16.6995 H   0  0  0  0  0  0  0  0  0  0  0  0
    8.1159   -0.6122   17.9919 H   0  0  0  0  0  0  0  0  0  0  0  0
   14.3760    5.4496   22.3369 H   0  0  0  0  0  0  0  0  0  0  0  0
   14.3240    5.1674   24.0807 H   0  0  0  0  0  0  0  0  0  0  0  0
   12.1116    5.9857   23.7774 H   0  0  0  0  0  0  0  0  0  0  0  0
   11.9857    5.2890   22.1472 H   0  0  0  0  0  0  0  0  0  0  0  0
   14.0717    3.1311   21.8553 H   0  0  0  0  0  0  0  0  0  0  0  0
   14.9424    2.9842   23.3984 H   0  0  0  0  0  0  0  0  0  0  0  0
   13.0391    3.7278   25.5553 H   0  0  0  0  0  0  0  0  0  0  0  0
   11.6790    2.5333   25.4925 H   0  0  0  0  0  0  0  0  0  0  0  0
   10.7414    3.6922   23.4569 H   0  0  0  0  0  0  0  0  0  0  0  0
    5.4150    1.8647   21.7005 H   0  0  0  0  0  0  0  0  0  0  0  0
    4.0022    0.8604   21.2924 H   0  0  0  0  0  0  0  0  0  0  0  0
    5.4621    0.0980   21.9207 H   0  0  0  0  0  0  0  0  0  0  0  0
    9.0901   -1.6664   22.2639 H   0  0  0  0  0  0  0  0  0  0  0  0
    8.6579   -0.3097   23.2977 H   0  0  0  0  0  0  0  0  0  0  0  0
    7.3129   -1.4300   20.9567 H   0  0  0  0  0  0  0  0  0  0  0  0
  1  5  2  0  0  0  0
  1  8  1  0  0  0  0
  2  7  1  0  0  0  0
  2  9  2  0  0  0  0
  3  7  2  0  0  0  0
  3 11  1  0  0  0  0
  4  9  1  0  0  0  0
  4 11  2  0  0  0  0
  5 21  1  0  0  0  0
  6 10  1  0  0  0  0
  6 21  2  0  0  0  0
  7 18  1  1  0  0  0
  8 10  2  0  0  0  0
  8 19  1  0  0  0  0
  9 20  1  0  0  0  0
 10 22  1  0  0  0  0
 11 24  1  0  0  0  0
 12 20  1  0  0  0  0
 12 22  1  0  0  0  0
 12 23  2  0  0  0  0
 13 14  1  0  0  0  0
 13 15  1  0  0  0  0
 14 17  1  1  0  0  0
 15 18  1  0  0  0  0
 16 17  1  0  0  0  0
 16 18  1  0  0  0  0
 17 18  1  0  0  0  0
  1 25  1  0  0  0  0
  2 26  1  0  0  0  0
  3 27  1  0  0  0  0
  4 28  1  0  0  0  0
  5 29  1  0  0  0  0
  6 30  1  0  0  0  0
 13 31  1  0  0  0  0
 13 32  1  0  0  0  0
 14 33  1  0  0  0  0
 14 34  1  0  0  0  0
 15 35  1  0  0  0  0
 15 36  1  0  0  0  0
 16 37  1  0  0  0  0
 16 38  1  0  0  0  0
 17 39  1  0  0  0  0
 19 40  1  0  0  0  0
 19 41  1  0  0  0  0
 19 42  1  0  0  0  0
 20 43  1  0  0  0  0
 20 44  1  0  0  0  0
 22 45  1  0  0  0  0
M  END
> <BB_SMILES>
CC1(C)OB(C23CCCC2C3)OC1(C)C

> <scaffold_SMILES>
Cc1ccncc1NC(=O)Cc1cc(Cl)cc(Br)c1

$$$$
EN300-817089
  -OEChem-07272002243D

 45 48  0     1  0  0  0  0  0999 V2000
    5.0000    1.4070   18.8080 C   0  0  0  0  0  0  0  0  0  0  0  0
   11.0490    1.0010   23.0460 C   0  0  0  0  0  0  0  0  0  0  0  0
   13.3680    0.4840   22.6240 C   0  0  0  0  0  0  0  0  0  0  0  0
   11.6520   -1.1420   22.1450 C   0  0  0  0  0  0  0  0  0  0  0  0
    5.5330    1.3060   17.5390 C   0  0  0  0  0  0  0  0  0  0  0  0
    7.2400   -0.0390   18.2610 C   0  0  0  0  0  0  0  0  0  0  0  0
   12.3850    1.3610   23.0530 C   0  0  0  0  0  0  0  0  0  0  0  0
    5.6260    0.7590   19.8690 C   0  0  0  0  0  0  0  0  0  0  0  0
   10.6720   -0.2500   22.5660 C   0  0  0  0  0  0  0  0  0  0  0  0
    6.7930    0.0210   19.5790 C   0  0  0  0  0  0  0  0  0  0  0  0
   12.9770   -0.7640   22.1810 C   0  0  0  0  0  0  0  0  0  0  0  0
    8.6020    0.1230   21.2070 C   0  0  0  0  0  0  0  0  0  0  0  0
   13.7793    4.9151   23.0874 C   0  0  0  0  0  0  0  0  0  0  0  0
   14.7305    4.1404   24.0056 C   0  0  0  0  0  0  0  0  0  0  0  0
   12.8399    3.8511   22.5032 C   0  0  0  0  0  0  0  0  0  0  0  0
   12.5382    3.1010   25.0015 C   0  0  0  0  0  0  0  0  0  0  0  0
   13.9379    2.9569   24.4776 C   0  0  1  0  0  0  0  0  0  0  0  0
   12.7837    2.7477   23.5431 C   0  0  2  0  0  0  0  0  0  0  0  0
    5.0980    0.9060   21.2740 C   0  0  0  0  0  0  0  0  0  0  0  0
    9.2100   -0.5900   22.3990 C   0  0  0  0  0  0  0  0  0  0  0  0
    6.6320    0.5940   17.2520 N   0  0  0  0  0  0  0  0  0  0  0  0
    7.5630   -0.5230   20.6330 N   0  0  0  0  0  0  0  0  0  0  0  0
    9.0150    1.2120   20.8220 O   0  0  0  0  0  0  0  0  0  0  0  0
   14.1940   -1.9100   21.6990 Cl  0  0  0  0  0  0  0  0  0  0  0  0
    4.0894    1.9955   18.9731 H   0  0  0  0  0  0  0  0  0  0  0  0
   10.2920    1.6908   23.4149 H   0  0  0  0  0  0  0  0  0  0  0  0
   14.4066    0.7739   22.6379 H   0  0  0  0  0  0  0  0  0  0  0  0
   11.3632   -2.1298   21.7911 H   0  0  0  0  0  0  0  0  0  0  0  0
    5.0712    1.8129   16.6995 H   0  0  0  0  0  0  0  0  0  0  0  0
    8.1159   -0.6122   17.9919 H   0  0  0  0  0  0  0  0  0  0  0  0
   13.1982    5.6335   23.6786 H   0  0  0  0  0  0  0  0  0  0  0  0
   14.3086    5.4778   22.3129 H   0  0  0  0  0  0  0  0  0  0  0  0
   15.6021    3.7946   23.4389 H   0  0  0  0  0  0  0  0  0  0  0  0
   15.0801    4.7577   24.8383 H   0  0  0  0  0  0  0  0  0  0  0  0
   11.8481    4.2648   22.2942 H   0  0  0  0  0  0  0  0  0  0  0  0
   13.2598    3.4672   21.5656 H   0  0  0  0  0  0  0  0  0  0  0  0
   12.1738    2.3275   25.6688 H   0  0  0  0  0  0  0  0  0  0  0  0
   12.1649    4.0884   25.2444 H   0  0  0  0  0  0  0  0  0  0  0  0
   14.5372    2.1222   24.8104 H   0  0  0  0  0  0  0  0  0  0  0  0
    4.8969    1.9605   21.4957 H   0  0  0  0  0  0  0  0  0  0  0  0
    4.1702    0.3368   21.4103 H   0  0  0  0  0  0  0  0  0  0  0  0
    5.8173    0.5250   22.0095 H   0  0  0  0  0  0  0  0  0  0  0  0
    9.0901   -1.6664   22.2639 H   0  0  0  0  0  0  0  0  0  0  0  0
    8.6579   -0.3097   23.2977 H   0  0  0  0  0  0  0  0  0  0  0  0
    7.3129   -1.4300   20.9567 H   0  0  0  0  0  0  0  0  0  0  0  0
  1  5  2  0  0  0  0
  1  8  1  0  0  0  0
  2  7  1  0  0  0  0
  2  9  2  0  0  0  0
  3  7  2  0  0  0  0
  3 11  1  0  0  0  0
  4  9  1  0  0  0  0
  4 11  2  0  0  0  0
  5 21  1  0  0  0  0
  6 10  1  0  0  0  0
  6 21  2  0  0  0  0
  7 18  1  6  0  0  0
  8 10  2  0  0  0  0
  8 19  1  0  0  0  0
  9 20  1  0  0  0  0
 10 22  1  0  0  0  0
 11 24  1  0  0  0  0
 12 20  1  0  0  0  0
 12 22  1  0  0  0  0
 12 23  2  0  0  0  0
 13 14  1  0  0  0  0
 13 15  1  0  0  0  0
 14 17  1  6  0  0  0
 15 18  1  0  0  0  0
 16 17  1  0  0  0  0
 16 18  1  0  0  0  0
 17 18  1  0  0  0  0
  1 25  1  0  0  0  0
  2 26  1  0  0  0  0
  3 27  1  0  0  0  0
  4 28  1  0  0  0  0
  5 29  1  0  0  0  0
  6 30  1  0  0  0  0
 13 31  1  0  0  0  0
 13 32  1  0  0  0  0
 14 33  1  0  0  0  0
 14 34  1  0  0  0  0
 15 35  1  0  0  0  0
 15 36  1  0  0  0  0
 16 37  1  0  0  0  0
 16 38  1  0  0  0  0
 17 39  1  0  0  0  0
 19 40  1  0  0  0  0
 19 41  1  0  0  0  0
 19 42  1  0  0  0  0
 20 43  1  0  0  0  0
 20 44  1  0  0  0  0
 22 45  1  0  0  0  0
M  END
> <BB_SMILES>
CC1(C)OB(C23CCCC2C3)OC1(C)C

> <scaffold_SMILES>
Cc1ccncc1NC(=O)Cc1cc(Cl)cc(Br)c1

$$$$
EN300-1425849
  -OEChem-07272002243D

 44 46  0     0  0  0  0  0  0999 V2000
    5.0000    1.4070   18.8080 C   0  0  0  0  0  0  0  0  0  0  0  0
   11.0490    1.0010   23.0460 C   0  0  0  0  0  0  0  0  0  0  0  0
   13.3680    0.4840   22.6240 C   0  0  0  0  0  0  0  0  0  0  0  0
   11.6520   -1.1420   22.1450 C   0  0  0  0  0  0  0  0  0  0  0  0
    5.5330    1.3060   17.5390 C   0  0  0  0  0  0  0  0  0  0  0  0
   13.9391    3.1305   24.1481 C   0  0  0  0  0  0  0  0  0  0  0  0
    7.2400   -0.0390   18.2610 C   0  0  0  0  0  0  0  0  0  0  0  0
   12.3850    1.3610   23.0530 C   0  0  0  0  0  0  0  0  0  0  0  0
   12.7637    2.6791   23.5184 C   0  0  0  0  0  0  0  0  0  0  0  0
    5.6260    0.7590   19.8690 C   0  0  0  0  0  0  0  0  0  0  0  0
   10.6720   -0.2500   22.5660 C   0  0  0  0  0  0  0  0  0  0  0  0
    6.7930    0.0210   19.5790 C   0  0  0  0  0  0  0  0  0  0  0  0
   12.9770   -0.7640   22.1810 C   0  0  0  0  0  0  0  0  0  0  0  0
   11.9765    3.8000   23.4166 C   0  0  0  0  0  0  0  0  0  0  0  0
    8.6020    0.1230   21.2070 C   0  0  0  0  0  0  0  0  0  0  0  0
    5.0980    0.9060   21.2740 C   0  0  0  0  0  0  0  0  0  0  0  0
   12.2984    6.1963   24.1033 C   0  0  0  0  0  0  0  0  0  0  0  0
    9.2100   -0.5900   22.3990 C   0  0  0  0  0  0  0  0  0  0  0  0
   10.6250    4.0022   22.8563 C   0  0  0  0  0  0  0  0  0  0  0  0
    6.6320    0.5940   17.2520 N   0  0  0  0  0  0  0  0  0  0  0  0
   13.9059    4.4364   24.4266 N   0  0  0  0  0  0  0  0  0  0  0  0
   12.7002    4.8152   23.9697 N   0  0  0  0  0  0  0  0  0  0  0  0
    7.5630   -0.5230   20.6330 N   0  0  0  0  0  0  0  0  0  0  0  0
    9.0150    1.2120   20.8220 O   0  0  0  0  0  0  0  0  0  0  0  0
    9.6595    3.7942   23.7973 F   0  0  0  0  0  0  0  0  0  0  0  0
   10.3650    3.1157   21.8525 F   0  0  0  0  0  0  0  0  0  0  0  0
   14.1940   -1.9100   21.6990 Cl  0  0  0  0  0  0  0  0  0  0  0  0
    4.0894    1.9955   18.9731 H   0  0  0  0  0  0  0  0  0  0  0  0
   10.2867    1.6869   23.4134 H   0  0  0  0  0  0  0  0  0  0  0  0
   14.4087    0.7684   22.6364 H   0  0  0  0  0  0  0  0  0  0  0  0
   11.3634   -2.1302   21.7917 H   0  0  0  0  0  0  0  0  0  0  0  0
    5.0712    1.8129   16.6995 H   0  0  0  0  0  0  0  0  0  0  0  0
   14.8201    2.5648   24.4178 H   0  0  0  0  0  0  0  0  0  0  0  0
    8.1159   -0.6122   17.9919 H   0  0  0  0  0  0  0  0  0  0  0  0
    4.4452    1.7837   21.3445 H   0  0  0  0  0  0  0  0  0  0  0  0
    4.5267    0.0201   21.5774 H   0  0  0  0  0  0  0  0  0  0  0  0
    5.9169    1.0203   21.9951 H   0  0  0  0  0  0  0  0  0  0  0  0
   11.7896    6.3081   25.0644 H   0  0  0  0  0  0  0  0  0  0  0  0
   13.1827    6.8384   24.0620 H   0  0  0  0  0  0  0  0  0  0  0  0
   11.6268    6.4584   23.2811 H   0  0  0  0  0  0  0  0  0  0  0  0
    9.0901   -1.6664   22.2639 H   0  0  0  0  0  0  0  0  0  0  0  0
    8.6579   -0.3097   23.2977 H   0  0  0  0  0  0  0  0  0  0  0  0
   10.4706    5.0092   22.4489 H   0  0  0  0  0  0  0  0  0  0  0  0
    7.3129   -1.4300   20.9567 H   0  0  0  0  0  0  0  0  0  0  0  0
  1  5  2  0  0  0  0
  1 10  1  0  0  0  0
  2  8  1  0  0  0  0
  2 11  2  0  0  0  0
  3  8  2  0  0  0  0
  3 13  1  0  0  0  0
  4 11  1  0  0  0  0
  4 13  2  0  0  0  0
  5 20  1  0  0  0  0
  6  9  1  0  0  0  0
  6 21  2  0  0  0  0
  7 12  1  0  0  0  0
  7 20  2  0  0  0  0
  8  9  1  0  0  0  0
  9 14  2  0  0  0  0
 10 12  2  0  0  0  0
 10 16  1  0  0  0  0
 11 18  1  0  0  0  0
 12 23  1  0  0  0  0
 13 27  1  0  0  0  0
 14 19  1  0  0  0  0
 14 22  1  0  0  0  0
 15 18  1  0  0  0  0
 15 23  1  0  0  0  0
 15 24  2  0  0  0  0
 17 22  1  0  0  0  0
 19 25  1  0  0  0  0
 19 26  1  0  0  0  0
 21 22  1  0  0  0  0
  1 28  1  0  0  0  0
  2 29  1  0  0  0  0
  3 30  1  0  0  0  0
  4 31  1  0  0  0  0
  5 32  1  0  0  0  0
  6 33  1  0  0  0  0
  7 34  1  0  0  0  0
 16 35  1  0  0  0  0
 16 36  1  0  0  0  0
 16 37  1  0  0  0  0
 17 38  1  0  0  0  0
 17 39  1  0  0  0  0
 17 40  1  0  0  0  0
 18 41  1  0  0  0  0
 18 42  1  0  0  0  0
 19 43  1  0  0  0  0
 23 44  1  0  0  0  0
M  END
> <BB_SMILES>
Cn1ncc(B2OC(C)(C)C(C)(C)O2)c1C(F)F

> <scaffold_SMILES>
Cc1ccncc1NC(=O)Cc1cc(Cl)cc(Br)c1

$$$$
EN300-1709240
  -OEChem-07272002243D

 49 52  0     1  0  0  0  0  0999 V2000
   11.9974    3.3344   24.4892 C   0  0  0  0  0  0  0  0  0  0  0  0
   13.8994    3.3143   22.9996 C   0  0  0  0  0  0  0  0  0  0  0  0
   12.3615    4.6042   24.9370 C   0  0  0  0  0  0  0  0  0  0  0  0
   14.2635    4.5841   23.4473 C   0  0  0  0  0  0  0  0  0  0  0  0
    5.0000    1.4070   18.8080 C   0  0  0  0  0  0  0  0  0  0  0  0
   11.0490    1.0010   23.0460 C   0  0  0  0  0  0  0  0  0  0  0  0
   13.3680    0.4840   22.6240 C   0  0  0  0  0  0  0  0  0  0  0  0
   11.6520   -1.1420   22.1450 C   0  0  0  0  0  0  0  0  0  0  0  0
    5.5330    1.3060   17.5390 C   0  0  0  0  0  0  0  0  0  0  0  0
    7.2400   -0.0390   18.2610 C   0  0  0  0  0  0  0  0  0  0  0  0
   12.7663    2.6894   23.5205 C   0  0  0  0  0  0  0  0  0  0  0  0
   12.3850    1.3610   23.0530 C   0  0  0  0  0  0  0  0  0  0  0  0
   13.4945    5.2291   24.4161 C   0  0  0  0  0  0  0  0  0  0  0  0
    5.6260    0.7590   19.8690 C   0  0  0  0  0  0  0  0  0  0  0  0
   10.6720   -0.2500   22.5660 C   0  0  0  0  0  0  0  0  0  0  0  0
    6.7930    0.0210   19.5790 C   0  0  0  0  0  0  0  0  0  0  0  0
   12.9770   -0.7640   22.1810 C   0  0  0  0  0  0  0  0  0  0  0  0
    8.6020    0.1230   21.2070 C   0  0  0  0  0  0  0  0  0  0  0  0
   12.9721    8.2277   25.8274 C   0  0  0  0  0  0  0  0  0  0  0  0
   13.8996    6.6408   24.9137 C   0  0  2  0  0  0  0  0  0  0  0  0
   13.1405    7.8506   24.3564 C   0  0  0  0  0  0  0  0  0  0  0  0
    5.0980    0.9060   21.2740 C   0  0  0  0  0  0  0  0  0  0  0  0
    9.2100   -0.5900   22.3990 C   0  0  0  0  0  0  0  0  0  0  0  0
    6.6320    0.5940   17.2520 N   0  0  0  0  0  0  0  0  0  0  0  0
    7.5630   -0.5230   20.6330 N   0  0  0  0  0  0  0  0  0  0  0  0
    9.0150    1.2120   20.8220 O   0  0  0  0  0  0  0  0  0  0  0  0
   13.4460    6.9325   26.2589 O   0  0  0  0  0  0  0  0  0  0  0  0
   11.9955    7.6008   23.6832 F   0  0  0  0  0  0  0  0  0  0  0  0
   13.8678    8.7031   23.6027 F   0  0  0  0  0  0  0  0  0  0  0  0
   14.1940   -1.9100   21.6990 Cl  0  0  0  0  0  0  0  0  0  0  0  0
   11.1114    2.8604   24.9051 H   0  0  0  0  0  0  0  0  0  0  0  0
   14.5089    2.8243   22.2440 H   0  0  0  0  0  0  0  0  0  0  0  0
   11.7575    5.0998   25.6921 H   0  0  0  0  0  0  0  0  0  0  0  0
   15.1475    5.0649   23.0373 H   0  0  0  0  0  0  0  0  0  0  0  0
    4.0894    1.9955   18.9731 H   0  0  0  0  0  0  0  0  0  0  0  0
   10.2869    1.6872   23.4130 H   0  0  0  0  0  0  0  0  0  0  0  0
   14.4085    0.7689   22.6365 H   0  0  0  0  0  0  0  0  0  0  0  0
   11.3634   -2.1298   21.7910 H   0  0  0  0  0  0  0  0  0  0  0  0
    5.0712    1.8129   16.6995 H   0  0  0  0  0  0  0  0  0  0  0  0
    8.1159   -0.6122   17.9919 H   0  0  0  0  0  0  0  0  0  0  0  0
   13.6218    9.0319   26.1847 H   0  0  0  0  0  0  0  0  0  0  0  0
   11.9423    8.4104   26.1453 H   0  0  0  0  0  0  0  0  0  0  0  0
   14.9835    6.7607   24.8542 H   0  0  0  0  0  0  0  0  0  0  0  0
    4.1749    1.4971   21.2729 H   0  0  0  0  0  0  0  0  0  0  0  0
    4.8861   -0.0725   21.7221 H   0  0  0  0  0  0  0  0  0  0  0  0
    5.8304    1.4024   21.9226 H   0  0  0  0  0  0  0  0  0  0  0  0
    9.0901   -1.6664   22.2639 H   0  0  0  0  0  0  0  0  0  0  0  0
    8.6579   -0.3097   23.2977 H   0  0  0  0  0  0  0  0  0  0  0  0
    7.3129   -1.4300   20.9567 H   0  0  0  0  0  0  0  0  0  0  0  0
  1  3  2  0  0  0  0
  1 11  1  0  0  0  0
  2  4  1  0  0  0  0
  2 11  2  0  0  0  0
  3 13  1  0  0  0  0
  4 13  2  0  0  0  0
  5  9  2  0  0  0  0
  5 14  1  0  0  0  0
  6 12  1  0  0  0  0
  6 15  2  0  0  0  0
  7 12  2  0  0  0  0
  7 17  1  0  0  0  0
  8 15  1  0  0  0  0
  8 17  2  0  0  0  0
  9 24  1  0  0  0  0
 10 16  1  0  0  0  0
 10 24  2  0  0  0  0
 11 12  1  0  0  0  0
 13 20  1  1  0  0  0
 14 16  2  0  0  0  0
 14 22  1  0  0  0  0
 15 23  1  0  0  0  0
 16 25  1  0  0  0  0
 17 30  1  0  0  0  0
 18 23  1  0  0  0  0
 18 25  1  0  0  0  0
 18 26  2  0  0  0  0
 19 21  1  0  0  0  0
 19 27  1  0  0  0  0
 20 21  1  0  0  0  0
 20 27  1  0  0  0  0
 21 28  1  0  0  0  0
 21 29  1  0  0  0  0
  1 31  1  0  0  0  0
  2 32  1  0  0  0  0
  3 33  1  0  0  0  0
  4 34  1  0  0  0  0
  5 35  1  0  0  0  0
  6 36  1  0  0  0  0
  7 37  1  0  0  0  0
  8 38  1  0  0  0  0
  9 39  1  0  0  0  0
 10 40  1  0  0  0  0
 19 41  1  0  0  0  0
 19 42  1  0  0  0  0
 20 43  1  0  0  0  0
 22 44  1  0  0  0  0
 22 45  1  0  0  0  0
 22 46  1  0  0  0  0
 23 47  1  0  0  0  0
 23 48  1  0  0  0  0
 25 49  1  0  0  0  0
M  END
> <BB_SMILES>
CC1(C)OB(c2ccc(C3OCC3(F)F)cc2)OC1(C)C

> <scaffold_SMILES>
Cc1ccncc1NC(=O)Cc1cc(Cl)cc(Br)c1

$$$$
EN300-1709240
  -OEChem-07272002243D

 49 52  0     1  0  0  0  0  0999 V2000
   11.8881    3.7618   23.3642 C   0  0  0  0  0  0  0  0  0  0  0  0
   14.0083    2.8873   24.1239 C   0  0  0  0  0  0  0  0  0  0  0  0
   12.2518    5.0320   23.8113 C   0  0  0  0  0  0  0  0  0  0  0  0
   14.3720    4.1575   24.5710 C   0  0  0  0  0  0  0  0  0  0  0  0
    5.0000    1.4070   18.8080 C   0  0  0  0  0  0  0  0  0  0  0  0
   11.0490    1.0010   23.0460 C   0  0  0  0  0  0  0  0  0  0  0  0
   13.3680    0.4840   22.6240 C   0  0  0  0  0  0  0  0  0  0  0  0
   11.6520   -1.1420   22.1450 C   0  0  0  0  0  0  0  0  0  0  0  0
    5.5330    1.3060   17.5390 C   0  0  0  0  0  0  0  0  0  0  0  0
    7.2400   -0.0390   18.2610 C   0  0  0  0  0  0  0  0  0  0  0  0
   12.7663    2.6894   23.5205 C   0  0  0  0  0  0  0  0  0  0  0  0
   12.3850    1.3610   23.0530 C   0  0  0  0  0  0  0  0  0  0  0  0
   13.4937    5.2299   24.4146 C   0  0  0  0  0  0  0  0  0  0  0  0
    5.6260    0.7590   19.8690 C   0  0  0  0  0  0  0  0  0  0  0  0
   10.6720   -0.2500   22.5660 C   0  0  0  0  0  0  0  0  0  0  0  0
    6.7930    0.0210   19.5790 C   0  0  0  0  0  0  0  0  0  0  0  0
   12.9770   -0.7640   22.1810 C   0  0  0  0  0  0  0  0  0  0  0  0
    8.6020    0.1230   21.2070 C   0  0  0  0  0  0  0  0  0  0  0  0
   12.9392    8.3767   25.4431 C   0  0  0  0  0  0  0  0  0  0  0  0
   13.8983    6.6419   24.9117 C   0  0  1  0  0  0  0  0  0  0  0  0
   13.3219    7.1333   26.2446 C   0  0  0  0  0  0  0  0  0  0  0  0
    5.0980    0.9060   21.2740 C   0  0  0  0  0  0  0  0  0  0  0  0
    9.2100   -0.5900   22.3990 C   0  0  0  0  0  0  0  0  0  0  0  0
    6.6320    0.5940   17.2520 N   0  0  0  0  0  0  0  0  0  0  0  0
    7.5630   -0.5230   20.6330 N   0  0  0  0  0  0  0  0  0  0  0  0
    9.0150    1.2120   20.8220 O   0  0  0  0  0  0  0  0  0  0  0  0
   13.2447    7.7181   24.1934 O   0  0  0  0  0  0  0  0  0  0  0  0
   12.2881    6.4343   26.7635 F   0  0  0  0  0  0  0  0  0  0  0  0
   14.2171    7.3177   27.2386 F   0  0  0  0  0  0  0  0  0  0  0  0
   14.1940   -1.9100   21.6990 Cl  0  0  0  0  0  0  0  0  0  0  0  0
   10.9164    3.6235   22.8959 H   0  0  0  0  0  0  0  0  0  0  0  0
   14.7037    2.0613   24.2529 H   0  0  0  0  0  0  0  0  0  0  0  0
   11.5618    5.8620   23.6861 H   0  0  0  0  0  0  0  0  0  0  0  0
   15.3410    4.3044   25.0403 H   0  0  0  0  0  0  0  0  0  0  0  0
    4.0894    1.9955   18.9731 H   0  0  0  0  0  0  0  0  0  0  0  0
   10.2869    1.6872   23.4130 H   0  0  0  0  0  0  0  0  0  0  0  0
   14.4085    0.7689   22.6365 H   0  0  0  0  0  0  0  0  0  0  0  0
   11.3634   -2.1298   21.7910 H   0  0  0  0  0  0  0  0  0  0  0  0
    5.0712    1.8129   16.6995 H   0  0  0  0  0  0  0  0  0  0  0  0
    8.1159   -0.6122   17.9919 H   0  0  0  0  0  0  0  0  0  0  0  0
   11.8859    8.6621   25.5053 H   0  0  0  0  0  0  0  0  0  0  0  0
   13.5741    9.2532   25.6006 H   0  0  0  0  0  0  0  0  0  0  0  0
   14.9821    6.7617   24.8521 H   0  0  0  0  0  0  0  0  0  0  0  0
    4.1749    1.4971   21.2729 H   0  0  0  0  0  0  0  0  0  0  0  0
    4.8861   -0.0725   21.7221 H   0  0  0  0  0  0  0  0  0  0  0  0
    5.8304    1.4024   21.9226 H   0  0  0  0  0  0  0  0  0  0  0  0
    9.0901   -1.6664   22.2639 H   0  0  0  0  0  0  0  0  0  0  0  0
    8.6579   -0.3097   23.2977 H   0  0  0  0  0  0  0  0  0  0  0  0
    7.3129   -1.4300   20.9567 H   0  0  0  0  0  0  0  0  0  0  0  0
  1  3  2  0  0  0  0
  1 11  1  0  0  0  0
  2  4  1  0  0  0  0
  2 11  2  0  0  0  0
  3 13  1  0  0  0  0
  4 13  2  0  0  0  0
  5  9  2  0  0  0  0
  5 14  1  0  0  0  0
  6 12  1  0  0  0  0
  6 15  2  0  0  0  0
  7 12  2  0  0  0  0
  7 17  1  0  0  0  0
  8 15  1  0  0  0  0
  8 17  2  0  0  0  0
  9 24  1  0  0  0  0
 10 16  1  0  0  0  0
 10 24  2  0  0  0  0
 11 12  1  0  0  0  0
 13 20  1  6  0  0  0
 14 16  2  0  0  0  0
 14 22  1  0  0  0  0
 15 23  1  0  0  0  0
 16 25  1  0  0  0  0
 17 30  1  0  0  0  0
 18 23  1  0  0  0  0
 18 25  1  0  0  0  0
 18 26  2  0  0  0  0
 19 21  1  0  0  0  0
 19 27  1  0  0  0  0
 20 21  1  0  0  0  0
 20 27  1  0  0  0  0
 21 28  1  0  0  0  0
 21 29  1  0  0  0  0
  1 31  1  0  0  0  0
  2 32  1  0  0  0  0
  3 33  1  0  0  0  0
  4 34  1  0  0  0  0
  5 35  1  0  0  0  0
  6 36  1  0  0  0  0
  7 37  1  0  0  0  0
  8 38  1  0  0  0  0
  9 39  1  0  0  0  0
 10 40  1  0  0  0  0
 19 41  1  0  0  0  0
 19 42  1  0  0  0  0
 20 43  1  0  0  0  0
 22 44  1  0  0  0  0
 22 45  1  0  0  0  0
 22 46  1  0  0  0  0
 23 47  1  0  0  0  0
 23 48  1  0  0  0  0
 25 49  1  0  0  0  0
M  END
> <BB_SMILES>
CC1(C)OB(c2ccc(C3OCC3(F)F)cc2)OC1(C)C

> <scaffold_SMILES>
Cc1ccncc1NC(=O)Cc1cc(Cl)cc(Br)c1

$$$$
EN300-1723454
  -OEChem-07272002243D

 40 41  0     0  0  0  0  0  0999 V2000
    5.0000    1.4070   18.8080 C   0  0  0  0  0  0  0  0  0  0  0  0
   11.0490    1.0010   23.0460 C   0  0  0  0  0  0  0  0  0  0  0  0
   11.6520   -1.1420   22.1450 C   0  0  0  0  0  0  0  0  0  0  0  0
   13.3680    0.4840   22.6240 C   0  0  0  0  0  0  0  0  0  0  0  0
    5.5330    1.3060   17.5390 C   0  0  0  0  0  0  0  0  0  0  0  0
    7.2400   -0.0390   18.2610 C   0  0  0  0  0  0  0  0  0  0  0  0
    5.6260    0.7590   19.8690 C   0  0  0  0  0  0  0  0  0  0  0  0
   10.6720   -0.2500   22.5660 C   0  0  0  0  0  0  0  0  0  0  0  0
   12.3850    1.3610   23.0530 C   0  0  0  0  0  0  0  0  0  0  0  0
    6.7930    0.0210   19.5790 C   0  0  0  0  0  0  0  0  0  0  0  0
   12.9770   -0.7640   22.1810 C   0  0  0  0  0  0  0  0  0  0  0  0
    8.6020    0.1230   21.2070 C   0  0  0  0  0  0  0  0  0  0  0  0
    5.0980    0.9060   21.2740 C   0  0  0  0  0  0  0  0  0  0  0  0
    9.2100   -0.5900   22.3990 C   0  0  0  0  0  0  0  0  0  0  0  0
   12.7773    2.7295   23.5372 C   0  0  0  0  0  0  0  0  0  0  0  0
   12.8059    3.7714   22.4141 C   0  0  0  0  0  0  0  0  0  0  0  0
   13.1979    5.1500   22.8844 C   0  0  0  0  0  0  0  0  0  0  0  0
    6.6320    0.5940   17.2520 N   0  0  0  0  0  0  0  0  0  0  0  0
    7.5630   -0.5230   20.6330 N   0  0  0  0  0  0  0  0  0  0  0  0
    9.0150    1.2120   20.8220 O   0  0  0  0  0  0  0  0  0  0  0  0
   13.6789    3.3788   21.4517 F   0  0  0  0  0  0  0  0  0  0  0  0
   11.5823    3.8452   21.8310 F   0  0  0  0  0  0  0  0  0  0  0  0
   14.4320    5.1347   23.4329 F   0  0  0  0  0  0  0  0  0  0  0  0
   13.2128    6.0310   21.8616 F   0  0  0  0  0  0  0  0  0  0  0  0
   12.3383    5.6125   23.8171 F   0  0  0  0  0  0  0  0  0  0  0  0
   14.1940   -1.9100   21.6990 Cl  0  0  0  0  0  0  0  0  0  0  0  0
    4.0894    1.9955   18.9731 H   0  0  0  0  0  0  0  0  0  0  0  0
   10.2920    1.6914   23.4138 H   0  0  0  0  0  0  0  0  0  0  0  0
   11.3638   -2.1302   21.7909 H   0  0  0  0  0  0  0  0  0  0  0  0
   14.4063    0.7746   22.6384 H   0  0  0  0  0  0  0  0  0  0  0  0
    5.0712    1.8129   16.6995 H   0  0  0  0  0  0  0  0  0  0  0  0
    8.1159   -0.6122   17.9919 H   0  0  0  0  0  0  0  0  0  0  0  0
    4.7841   -0.0685   21.6656 H   0  0  0  0  0  0  0  0  0  0  0  0
    5.8614    1.3222   21.9428 H   0  0  0  0  0  0  0  0  0  0  0  0
    4.2397    1.5885   21.3053 H   0  0  0  0  0  0  0  0  0  0  0  0
    9.0902   -1.6664   22.2639 H   0  0  0  0  0  0  0  0  0  0  0  0
    8.6579   -0.3097   23.2977 H   0  0  0  0  0  0  0  0  0  0  0  0
   12.0782    3.0596   24.3239 H   0  0  0  0  0  0  0  0  0  0  0  0
   13.7692    2.6828   24.0173 H   0  0  0  0  0  0  0  0  0  0  0  0
    7.3129   -1.4300   20.9567 H   0  0  0  0  0  0  0  0  0  0  0  0
  1  5  2  0  0  0  0
  1  7  1  0  0  0  0
  2  8  2  0  0  0  0
  2  9  1  0  0  0  0
  3  8  1  0  0  0  0
  3 11  2  0  0  0  0
  4  9  2  0  0  0  0
  4 11  1  0  0  0  0
  5 18  1  0  0  0  0
  6 10  1  0  0  0  0
  6 18  2  0  0  0  0
  7 10  2  0  0  0  0
  7 13  1  0  0  0  0
  8 14  1  0  0  0  0
  9 15  1  0  0  0  0
 10 19  1  0  0  0  0
 11 26  1  0  0  0  0
 12 14  1  0  0  0  0
 12 19  1  0  0  0  0
 12 20  2  0  0  0  0
 15 16  1  0  0  0  0
 16 17  1  0  0  0  0
 16 21  1  0  0  0  0
 16 22  1  0  0  0  0
 17 23  1  0  0  0  0
 17 24  1  0  0  0  0
 17 25  1  0  0  0  0
  1 27  1  0  0  0  0
  2 28  1  0  0  0  0
  3 29  1  0  0  0  0
  4 30  1  0  0  0  0
  5 31  1  0  0  0  0
  6 32  1  0  0  0  0
 13 33  1  0  0  0  0
 13 34  1  0  0  0  0
 13 35  1  0  0  0  0
 14 36  1  0  0  0  0
 14 37  1  0  0  0  0
 15 38  1  0  0  0  0
 15 39  1  0  0  0  0
 19 40  1  0  0  0  0
M  END
> <BB_SMILES>
CC1(C)OB(CC(F)(F)C(F)(F)F)OC1(C)C

> <scaffold_SMILES>
Cc1ccncc1NC(=O)Cc1cc(Cl)cc(Br)c1

$$$$
EN300-1697422
  -OEChem-07272002243D

 45 48  0     1  0  0  0  0  0999 V2000
    5.0000    1.4070   18.8080 C   0  0  0  0  0  0  0  0  0  0  0  0
   11.0490    1.0010   23.0460 C   0  0  0  0  0  0  0  0  0  0  0  0
   13.3680    0.4840   22.6240 C   0  0  0  0  0  0  0  0  0  0  0  0
   11.6520   -1.1420   22.1450 C   0  0  0  0  0  0  0  0  0  0  0  0
    5.5330    1.3060   17.5390 C   0  0  0  0  0  0  0  0  0  0  0  0
    7.2400   -0.0390   18.2610 C   0  0  0  0  0  0  0  0  0  0  0  0
   12.3850    1.3610   23.0530 C   0  0  0  0  0  0  0  0  0  0  0  0
    5.6260    0.7590   19.8690 C   0  0  0  0  0  0  0  0  0  0  0  0
   10.6720   -0.2500   22.5660 C   0  0  0  0  0  0  0  0  0  0  0  0
    6.7930    0.0210   19.5790 C   0  0  0  0  0  0  0  0  0  0  0  0
   12.9770   -0.7640   22.1810 C   0  0  0  0  0  0  0  0  0  0  0  0
    8.6020    0.1230   21.2070 C   0  0  0  0  0  0  0  0  0  0  0  0
   14.9701    4.7194   21.5968 C   0  0  0  0  0  0  0  0  0  0  0  0
   14.1786    3.4249   21.3389 C   0  0  0  0  0  0  0  0  0  0  0  0
   14.7491    4.4922   23.1026 C   0  0  0  0  0  0  0  0  0  0  0  0
   12.1551    3.9899   22.9423 C   0  0  0  0  0  0  0  0  0  0  0  0
   12.7836    2.7473   23.5430 C   0  0  2  0  0  0  0  0  0  0  0  0
   13.5891    3.6707   22.6777 C   0  0  0  0  0  0  0  0  0  0  0  0
    5.0980    0.9060   21.2740 C   0  0  0  0  0  0  0  0  0  0  0  0
    9.2100   -0.5900   22.3990 C   0  0  0  0  0  0  0  0  0  0  0  0
    6.6320    0.5940   17.2520 N   0  0  0  0  0  0  0  0  0  0  0  0
    7.5630   -0.5230   20.6330 N   0  0  0  0  0  0  0  0  0  0  0  0
    9.0150    1.2120   20.8220 O   0  0  0  0  0  0  0  0  0  0  0  0
   14.1940   -1.9100   21.6990 Cl  0  0  0  0  0  0  0  0  0  0  0  0
    4.0894    1.9955   18.9731 H   0  0  0  0  0  0  0  0  0  0  0  0
   10.2920    1.6908   23.4149 H   0  0  0  0  0  0  0  0  0  0  0  0
   14.4066    0.7739   22.6379 H   0  0  0  0  0  0  0  0  0  0  0  0
   11.3632   -2.1298   21.7911 H   0  0  0  0  0  0  0  0  0  0  0  0
    5.0712    1.8129   16.6995 H   0  0  0  0  0  0  0  0  0  0  0  0
    8.1159   -0.6122   17.9919 H   0  0  0  0  0  0  0  0  0  0  0  0
   16.0126    4.7094   21.2662 H   0  0  0  0  0  0  0  0  0  0  0  0
   14.4873    5.6237   21.2064 H   0  0  0  0  0  0  0  0  0  0  0  0
   13.5103    3.4588   20.4748 H   0  0  0  0  0  0  0  0  0  0  0  0
   14.7995    2.5242   21.2776 H   0  0  0  0  0  0  0  0  0  0  0  0
   15.5440    3.9222   23.5959 H   0  0  0  0  0  0  0  0  0  0  0  0
   14.5452    5.3970   23.6809 H   0  0  0  0  0  0  0  0  0  0  0  0
   11.4462    3.8732   22.1309 H   0  0  0  0  0  0  0  0  0  0  0  0
   11.9275    4.8093   23.6139 H   0  0  0  0  0  0  0  0  0  0  0  0
   12.9912    2.7988   24.6167 H   0  0  0  0  0  0  0  0  0  0  0  0
    4.2095    1.5479   21.2806 H   0  0  0  0  0  0  0  0  0  0  0  0
    4.8287   -0.0683   21.7001 H   0  0  0  0  0  0  0  0  0  0  0  0
    5.8529    1.3468   21.9369 H   0  0  0  0  0  0  0  0  0  0  0  0
    9.0901   -1.6664   22.2639 H   0  0  0  0  0  0  0  0  0  0  0  0
    8.6579   -0.3097   23.2977 H   0  0  0  0  0  0  0  0  0  0  0  0
    7.3129   -1.4300   20.9567 H   0  0  0  0  0  0  0  0  0  0  0  0
  1  5  2  0  0  0  0
  1  8  1  0  0  0  0
  2  7  1  0  0  0  0
  2  9  2  0  0  0  0
  3  7  2  0  0  0  0
  3 11  1  0  0  0  0
  4  9  1  0  0  0  0
  4 11  2  0  0  0  0
  5 21  1  0  0  0  0
  6 10  1  0  0  0  0
  6 21  2  0  0  0  0
  7 17  1  1  0  0  0
  8 10  2  0  0  0  0
  8 19  1  0  0  0  0
  9 20  1  0  0  0  0
 10 22  1  0  0  0  0
 11 24  1  0  0  0  0
 12 20  1  0  0  0  0
 12 22  1  0  0  0  0
 12 23  2  0  0  0  0
 13 14  1  0  0  0  0
 13 15  1  0  0  0  0
 14 18  1  0  0  0  0
 15 18  1  0  0  0  0
 16 17  1  0  0  0  0
 16 18  1  0  0  0  0
 17 18  1  0  0  0  0
  1 25  1  0  0  0  0
  2 26  1  0  0  0  0
  3 27  1  0  0  0  0
  4 28  1  0  0  0  0
  5 29  1  0  0  0  0
  6 30  1  0  0  0  0
 13 31  1  0  0  0  0
 13 32  1  0  0  0  0
 14 33  1  0  0  0  0
 14 34  1  0  0  0  0
 15 35  1  0  0  0  0
 15 36  1  0  0  0  0
 16 37  1  0  0  0  0
 16 38  1  0  0  0  0
 17 39  1  0  0  0  0
 19 40  1  0  0  0  0
 19 41  1  0  0  0  0
 19 42  1  0  0  0  0
 20 43  1  0  0  0  0
 20 44  1  0  0  0  0
 22 45  1  0  0  0  0
M  END
> <BB_SMILES>
CC1(C)OB(C2CC23CCC3)OC1(C)C

> <scaffold_SMILES>
Cc1ccncc1NC(=O)Cc1cc(Cl)cc(Br)c1

$$$$
EN300-1697422
  -OEChem-07272002243D

 45 48  0     1  0  0  0  0  0999 V2000
    5.0000    1.4070   18.8080 C   0  0  0  0  0  0  0  0  0  0  0  0
   11.0490    1.0010   23.0460 C   0  0  0  0  0  0  0  0  0  0  0  0
   13.3680    0.4840   22.6240 C   0  0  0  0  0  0  0  0  0  0  0  0
   11.6520   -1.1420   22.1450 C   0  0  0  0  0  0  0  0  0  0  0  0
    5.5330    1.3060   17.5390 C   0  0  0  0  0  0  0  0  0  0  0  0
    7.2400   -0.0390   18.2610 C   0  0  0  0  0  0  0  0  0  0  0  0
   12.3850    1.3610   23.0530 C   0  0  0  0  0  0  0  0  0  0  0  0
    5.6260    0.7590   19.8690 C   0  0  0  0  0  0  0  0  0  0  0  0
   10.6720   -0.2500   22.5660 C   0  0  0  0  0  0  0  0  0  0  0  0
    6.7930    0.0210   19.5790 C   0  0  0  0  0  0  0  0  0  0  0  0
   12.9770   -0.7640   22.1810 C   0  0  0  0  0  0  0  0  0  0  0  0
    8.6020    0.1230   21.2070 C   0  0  0  0  0  0  0  0  0  0  0  0
   11.0878    5.5851   22.3068 C   0  0  0  0  0  0  0  0  0  0  0  0
   11.6893    5.1742   23.6621 C   0  0  0  0  0  0  0  0  0  0  0  0
   11.1394    4.1034   21.8940 C   0  0  0  0  0  0  0  0  0  0  0  0
   13.6254    3.6627   22.6748 C   0  0  0  0  0  0  0  0  0  0  0  0
   12.7836    2.7473   23.5430 C   0  0  1  0  0  0  0  0  0  0  0  0
   12.1906    3.9831   22.9335 C   0  0  0  0  0  0  0  0  0  0  0  0
    5.0980    0.9060   21.2740 C   0  0  0  0  0  0  0  0  0  0  0  0
    9.2100   -0.5900   22.3990 C   0  0  0  0  0  0  0  0  0  0  0  0
    6.6320    0.5940   17.2520 N   0  0  0  0  0  0  0  0  0  0  0  0
    7.5630   -0.5230   20.6330 N   0  0  0  0  0  0  0  0  0  0  0  0
    9.0150    1.2120   20.8220 O   0  0  0  0  0  0  0  0  0  0  0  0
   14.1940   -1.9100   21.6990 Cl  0  0  0  0  0  0  0  0  0  0  0  0
    4.0894    1.9955   18.9731 H   0  0  0  0  0  0  0  0  0  0  0  0
   10.2920    1.6908   23.4149 H   0  0  0  0  0  0  0  0  0  0  0  0
   14.4066    0.7739   22.6379 H   0  0  0  0  0  0  0  0  0  0  0  0
   11.3632   -2.1298   21.7911 H   0  0  0  0  0  0  0  0  0  0  0  0
    5.0712    1.8129   16.6995 H   0  0  0  0  0  0  0  0  0  0  0  0
    8.1159   -0.6122   17.9919 H   0  0  0  0  0  0  0  0  0  0  0  0
   10.0892    6.0288   22.3497 H   0  0  0  0  0  0  0  0  0  0  0  0
   11.7366    6.2385   21.7103 H   0  0  0  0  0  0  0  0  0  0  0  0
   12.4294    5.8690   24.0677 H   0  0  0  0  0  0  0  0  0  0  0  0
   10.9477    4.9457   24.4353 H   0  0  0  0  0  0  0  0  0  0  0  0
   10.2225    3.5451   22.1130 H   0  0  0  0  0  0  0  0  0  0  0  0
   11.4289    3.9250   20.8553 H   0  0  0  0  0  0  0  0  0  0  0  0
   14.3818    4.2619   23.1680 H   0  0  0  0  0  0  0  0  0  0  0  0
   13.9048    3.3262   21.6833 H   0  0  0  0  0  0  0  0  0  0  0  0
   12.9910    2.7981   24.6167 H   0  0  0  0  0  0  0  0  0  0  0  0
    4.1914    1.5221   21.2765 H   0  0  0  0  0  0  0  0  0  0  0  0
    4.8581   -0.0709   21.7115 H   0  0  0  0  0  0  0  0  0  0  0  0
    5.8418    1.3755   21.9297 H   0  0  0  0  0  0  0  0  0  0  0  0
    9.0901   -1.6664   22.2639 H   0  0  0  0  0  0  0  0  0  0  0  0
    8.6579   -0.3097   23.2977 H   0  0  0  0  0  0  0  0  0  0  0  0
    7.3129   -1.4300   20.9567 H   0  0  0  0  0  0  0  0  0  0  0  0
  1  5  2  0  0  0  0
  1  8  1  0  0  0  0
  2  7  1  0  0  0  0
  2  9  2  0  0  0  0
  3  7  2  0  0  0  0
  3 11  1  0  0  0  0
  4  9  1  0  0  0  0
  4 11  2  0  0  0  0
  5 21  1  0  0  0  0
  6 10  1  0  0  0  0
  6 21  2  0  0  0  0
  7 17  1  6  0  0  0
  8 10  2  0  0  0  0
  8 19  1  0  0  0  0
  9 20  1  0  0  0  0
 10 22  1  0  0  0  0
 11 24  1  0  0  0  0
 12 20  1  0  0  0  0
 12 22  1  0  0  0  0
 12 23  2  0  0  0  0
 13 14  1  0  0  0  0
 13 15  1  0  0  0  0
 14 18  1  0  0  0  0
 15 18  1  0  0  0  0
 16 17  1  0  0  0  0
 16 18  1  0  0  0  0
 17 18  1  0  0  0  0
  1 25  1  0  0  0  0
  2 26  1  0  0  0  0
  3 27  1  0  0  0  0
  4 28  1  0  0  0  0
  5 29  1  0  0  0  0
  6 30  1  0  0  0  0
 13 31  1  0  0  0  0
 13 32  1  0  0  0  0
 14 33  1  0  0  0  0
 14 34  1  0  0  0  0
 15 35  1  0  0  0  0
 15 36  1  0  0  0  0
 16 37  1  0  0  0  0
 16 38  1  0  0  0  0
 17 39  1  0  0  0  0
 19 40  1  0  0  0  0
 19 41  1  0  0  0  0
 19 42  1  0  0  0  0
 20 43  1  0  0  0  0
 20 44  1  0  0  0  0
 22 45  1  0  0  0  0
M  END
> <BB_SMILES>
CC1(C)OB(C2CC23CCC3)OC1(C)C

> <scaffold_SMILES>
Cc1ccncc1NC(=O)Cc1cc(Cl)cc(Br)c1

$$$$
EN300-1725148
  -OEChem-07272002243D

 43 44  0     0  0  0  0  0  0999 V2000
    5.0000    1.4070   18.8080 C   0  0  0  0  0  0  0  0  0  0  0  0
   11.0490    1.0010   23.0460 C   0  0  0  0  0  0  0  0  0  0  0  0
   11.6520   -1.1420   22.1450 C   0  0  0  0  0  0  0  0  0  0  0  0
   13.3680    0.4840   22.6240 C   0  0  0  0  0  0  0  0  0  0  0  0
    5.5330    1.3060   17.5390 C   0  0  0  0  0  0  0  0  0  0  0  0
    7.2400   -0.0390   18.2610 C   0  0  0  0  0  0  0  0  0  0  0  0
    5.6260    0.7590   19.8690 C   0  0  0  0  0  0  0  0  0  0  0  0
   10.6720   -0.2500   22.5660 C   0  0  0  0  0  0  0  0  0  0  0  0
   12.3850    1.3610   23.0530 C   0  0  0  0  0  0  0  0  0  0  0  0
    6.7930    0.0210   19.5790 C   0  0  0  0  0  0  0  0  0  0  0  0
   12.9770   -0.7640   22.1810 C   0  0  0  0  0  0  0  0  0  0  0  0
    8.6020    0.1230   21.2070 C   0  0  0  0  0  0  0  0  0  0  0  0
    5.0980    0.9060   21.2740 C   0  0  0  0  0  0  0  0  0  0  0  0
    9.2100   -0.5900   22.3990 C   0  0  0  0  0  0  0  0  0  0  0  0
   12.7816    2.7444   23.5424 C   0  0  0  0  0  0  0  0  0  0  0  0
   12.8179    3.8073   22.4364 C   0  0  0  0  0  0  0  0  0  0  0  0
   11.4843    4.0818   21.7480 C   0  0  0  0  0  0  0  0  0  0  0  0
    6.6320    0.5940   17.2520 N   0  0  0  0  0  0  0  0  0  0  0  0
    7.5630   -0.5230   20.6330 N   0  0  0  0  0  0  0  0  0  0  0  0
   10.4933    4.6068   22.7159 N   0  3  0  0  0  0  0  0  0  0  0  0
    9.0150    1.2120   20.8220 O   0  0  0  0  0  0  0  0  0  0  0  0
   14.1940   -1.9100   21.6990 Cl  0  0  0  0  0  0  0  0  0  0  0  0
    4.0894    1.9955   18.9731 H   0  0  0  0  0  0  0  0  0  0  0  0
   10.2920    1.6914   23.4138 H   0  0  0  0  0  0  0  0  0  0  0  0
   11.3638   -2.1302   21.7909 H   0  0  0  0  0  0  0  0  0  0  0  0
   14.4063    0.7746   22.6384 H   0  0  0  0  0  0  0  0  0  0  0  0
    5.0712    1.8129   16.6995 H   0  0  0  0  0  0  0  0  0  0  0  0
    8.1159   -0.6122   17.9919 H   0  0  0  0  0  0  0  0  0  0  0  0
    5.3261    1.9051   21.6628 H   0  0  0  0  0  0  0  0  0  0  0  0
    4.0116    0.7577   21.3067 H   0  0  0  0  0  0  0  0  0  0  0  0
    5.5424    0.1599   21.9444 H   0  0  0  0  0  0  0  0  0  0  0  0
    9.0902   -1.6664   22.2639 H   0  0  0  0  0  0  0  0  0  0  0  0
    8.6579   -0.3097   23.2977 H   0  0  0  0  0  0  0  0  0  0  0  0
   12.1205    3.0636   24.3568 H   0  0  0  0  0  0  0  0  0  0  0  0
   13.7795    2.6710   23.9949 H   0  0  0  0  0  0  0  0  0  0  0  0
   13.5453    3.5133   21.6696 H   0  0  0  0  0  0  0  0  0  0  0  0
   13.1934    4.7424   22.8715 H   0  0  0  0  0  0  0  0  0  0  0  0
   11.6007    4.8490   20.9766 H   0  0  0  0  0  0  0  0  0  0  0  0
   11.0500    3.1865   21.2946 H   0  0  0  0  0  0  0  0  0  0  0  0
    7.3129   -1.4300   20.9567 H   0  0  0  0  0  0  0  0  0  0  0  0
   10.0453    3.8438   23.2359 H   0  0  0  0  0  0  0  0  0  0  0  0
    9.7557    5.1365   22.2373 H   0  0  0  0  0  0  0  0  0  0  0  0
   10.9384    5.2326   23.3970 H   0  0  0  0  0  0  0  0  0  0  0  0
  1  5  2  0  0  0  0
  1  7  1  0  0  0  0
  2  8  2  0  0  0  0
  2  9  1  0  0  0  0
  3  8  1  0  0  0  0
  3 11  2  0  0  0  0
  4  9  2  0  0  0  0
  4 11  1  0  0  0  0
  5 18  1  0  0  0  0
  6 10  1  0  0  0  0
  6 18  2  0  0  0  0
  7 10  2  0  0  0  0
  7 13  1  0  0  0  0
  8 14  1  0  0  0  0
  9 15  1  0  0  0  0
 10 19  1  0  0  0  0
 11 22  1  0  0  0  0
 12 14  1  0  0  0  0
 12 19  1  0  0  0  0
 12 21  2  0  0  0  0
 15 16  1  0  0  0  0
 16 17  1  0  0  0  0
 17 20  1  0  0  0  0
  1 23  1  0  0  0  0
  2 24  1  0  0  0  0
  3 25  1  0  0  0  0
  4 26  1  0  0  0  0
  5 27  1  0  0  0  0
  6 28  1  0  0  0  0
 13 29  1  0  0  0  0
 13 30  1  0  0  0  0
 13 31  1  0  0  0  0
 14 32  1  0  0  0  0
 14 33  1  0  0  0  0
 15 34  1  0  0  0  0
 15 35  1  0  0  0  0
 16 36  1  0  0  0  0
 16 37  1  0  0  0  0
 17 38  1  0  0  0  0
 17 39  1  0  0  0  0
 19 40  1  0  0  0  0
 20 41  1  0  0  0  0
 20 42  1  0  0  0  0
 20 43  1  0  0  0  0
M  CHG  1  20   1
M  END
> <BB_SMILES>
NCCCB(O)O

> <scaffold_SMILES>
Cc1ccncc1NC(=O)Cc1cc(Cl)cc(Br)c1

$$$$
EN300-1722014
  -OEChem-07272002243D

 55 57  0     1  0  0  0  0  0999 V2000
    5.0000    1.4070   18.8080 C   0  0  0  0  0  0  0  0  0  0  0  0
   11.0490    1.0010   23.0460 C   0  0  0  0  0  0  0  0  0  0  0  0
   13.3680    0.4840   22.6240 C   0  0  0  0  0  0  0  0  0  0  0  0
   11.6520   -1.1420   22.1450 C   0  0  0  0  0  0  0  0  0  0  0  0
    5.5330    1.3060   17.5390 C   0  0  0  0  0  0  0  0  0  0  0  0
    7.2400   -0.0390   18.2610 C   0  0  0  0  0  0  0  0  0  0  0  0
   12.3850    1.3610   23.0530 C   0  0  0  0  0  0  0  0  0  0  0  0
    5.6260    0.7590   19.8690 C   0  0  0  0  0  0  0  0  0  0  0  0
   10.6720   -0.2500   22.5660 C   0  0  0  0  0  0  0  0  0  0  0  0
    6.7930    0.0210   19.5790 C   0  0  0  0  0  0  0  0  0  0  0  0
   12.9770   -0.7640   22.1810 C   0  0  0  0  0  0  0  0  0  0  0  0
    8.6020    0.1230   21.2070 C   0  0  0  0  0  0  0  0  0  0  0  0
   11.7068    6.3745   23.1444 C   0  0  0  0  0  0  0  0  0  0  0  0
   12.0090    3.3554   24.6692 C   0  0  0  0  0  0  0  0  0  0  0  0
   12.7762    2.7214   23.5338 C   0  0  2  0  0  0  0  0  0  0  0  0
   11.8494    3.8921   23.2782 C   0  0  1  0  0  0  0  0  0  0  0  0
    5.0980    0.9060   21.2740 C   0  0  0  0  0  0  0  0  0  0  0  0
    9.3882    7.9945   22.7578 C   0  0  0  0  0  0  0  0  0  0  0  0
    8.4306    6.7691   24.7303 C   0  0  0  0  0  0  0  0  0  0  0  0
   10.4948    8.1720   25.0114 C   0  0  0  0  0  0  0  0  0  0  0  0
    9.2100   -0.5900   22.3990 C   0  0  0  0  0  0  0  0  0  0  0  0
    9.7104    7.2671   24.0623 C   0  0  0  0  0  0  0  0  0  0  0  0
    6.6320    0.5940   17.2520 N   0  0  0  0  0  0  0  0  0  0  0  0
    7.5630   -0.5230   20.6330 N   0  0  0  0  0  0  0  0  0  0  0  0
   12.3712    5.1887   22.9122 N   0  0  0  0  0  0  0  0  0  0  0  0
    9.0150    1.2120   20.8220 O   0  0  0  0  0  0  0  0  0  0  0  0
   12.1140    7.4935   22.8498 O   0  0  0  0  0  0  0  0  0  0  0  0
   10.5105    6.1236   23.7593 O   0  0  0  0  0  0  0  0  0  0  0  0
   14.1940   -1.9100   21.6990 Cl  0  0  0  0  0  0  0  0  0  0  0  0
    4.0894    1.9955   18.9731 H   0  0  0  0  0  0  0  0  0  0  0  0
   10.2920    1.6908   23.4149 H   0  0  0  0  0  0  0  0  0  0  0  0
   14.4066    0.7739   22.6379 H   0  0  0  0  0  0  0  0  0  0  0  0
   11.3632   -2.1298   21.7911 H   0  0  0  0  0  0  0  0  0  0  0  0
    5.0712    1.8129   16.6995 H   0  0  0  0  0  0  0  0  0  0  0  0
    8.1159   -0.6122   17.9919 H   0  0  0  0  0  0  0  0  0  0  0  0
   11.1714    2.8182   25.0991 H   0  0  0  0  0  0  0  0  0  0  0  0
   12.5705    3.9417   25.3874 H   0  0  0  0  0  0  0  0  0  0  0  0
   13.8417    2.9342   23.5111 H   0  0  0  0  0  0  0  0  0  0  0  0
   10.9035    3.6866   22.7875 H   0  0  0  0  0  0  0  0  0  0  0  0
    5.1315   -0.0578   21.7951 H   0  0  0  0  0  0  0  0  0  0  0  0
    5.6883    1.6331   21.8452 H   0  0  0  0  0  0  0  0  0  0  0  0
    4.0620    1.2668   21.2722 H   0  0  0  0  0  0  0  0  0  0  0  0
   10.3043    8.3535   22.2753 H   0  0  0  0  0  0  0  0  0  0  0  0
    8.8562    7.3453   22.0547 H   0  0  0  0  0  0  0  0  0  0  0  0
    8.7706    8.8802   22.9463 H   0  0  0  0  0  0  0  0  0  0  0  0
    8.6571    6.2465   25.6667 H   0  0  0  0  0  0  0  0  0  0  0  0
    7.9125    6.0456   24.0905 H   0  0  0  0  0  0  0  0  0  0  0  0
    7.7430    7.5922   24.9502 H   0  0  0  0  0  0  0  0  0  0  0  0
   10.7261    7.6504   25.9472 H   0  0  0  0  0  0  0  0  0  0  0  0
   11.4346    8.5092   24.5624 H   0  0  0  0  0  0  0  0  0  0  0  0
    9.9043    9.0533   25.2865 H   0  0  0  0  0  0  0  0  0  0  0  0
    9.0901   -1.6664   22.2639 H   0  0  0  0  0  0  0  0  0  0  0  0
    8.6579   -0.3097   23.2977 H   0  0  0  0  0  0  0  0  0  0  0  0
    7.3129   -1.4300   20.9567 H   0  0  0  0  0  0  0  0  0  0  0  0
   13.2784    5.2290   22.4582 H   0  0  0  0  0  0  0  0  0  0  0  0
  1  5  2  0  0  0  0
  1  8  1  0  0  0  0
  2  7  1  0  0  0  0
  2  9  2  0  0  0  0
  3  7  2  0  0  0  0
  3 11  1  0  0  0  0
  4  9  1  0  0  0  0
  4 11  2  0  0  0  0
  5 23  1  0  0  0  0
  6 10  1  0  0  0  0
  6 23  2  0  0  0  0
  7 15  1  0  0  0  0
  8 10  2  0  0  0  0
  8 17  1  0  0  0  0
  9 21  1  0  0  0  0
 10 24  1  0  0  0  0
 11 29  1  0  0  0  0
 12 21  1  0  0  0  0
 12 24  1  0  0  0  0
 12 26  2  0  0  0  0
 13 25  1  0  0  0  0
 13 27  2  0  0  0  0
 13 28  1  0  0  0  0
 14 15  1  0  0  0  0
 14 16  1  0  0  0  0
 15 16  1  0  0  0  0
 16 25  1  0  0  0  0
 18 22  1  0  0  0  0
 19 22  1  0  0  0  0
 20 22  1  0  0  0  0
 22 28  1  0  0  0  0
  1 30  1  0  0  0  0
  2 31  1  0  0  0  0
  3 32  1  0  0  0  0
  4 33  1  0  0  0  0
  5 34  1  0  0  0  0
  6 35  1  0  0  0  0
 14 36  1  0  0  0  0
 14 37  1  0  0  0  0
 15 38  1  0  0  0  0
 16 39  1  0  0  0  0
 17 40  1  0  0  0  0
 17 41  1  0  0  0  0
 17 42  1  0  0  0  0
 18 43  1  0  0  0  0
 18 44  1  0  0  0  0
 18 45  1  0  0  0  0
 19 46  1  0  0  0  0
 19 47  1  0  0  0  0
 19 48  1  0  0  0  0
 20 49  1  0  0  0  0
 20 50  1  0  0  0  0
 20 51  1  0  0  0  0
 21 52  1  0  0  0  0
 21 53  1  0  0  0  0
 24 54  1  0  0  0  0
 25 55  1  0  0  0  0
M  END
> <BB_SMILES>
CC(C)(C)OC(=O)N[C@@H]1C[C@H]1B1OC(C)(C)C(C)(C)O1

> <scaffold_SMILES>
Cc1ccncc1NC(=O)Cc1cc(Cl)cc(Br)c1

$$$$
EN300-1704613
  -OEChem-07272002243D

 48 50  0     0  0  0  0  0  0999 V2000
    8.6739    2.0527   26.5347 C   0  0  0  0  0  0  0  0  0  0  0  0
    9.8759    1.3519   26.6336 C   0  0  0  0  0  0  0  0  0  0  0  0
    8.6025    3.2088   25.7575 C   0  0  0  0  0  0  0  0  0  0  0  0
   11.0065    1.8073   25.9554 C   0  0  0  0  0  0  0  0  0  0  0  0
    9.7331    3.6641   25.0792 C   0  0  0  0  0  0  0  0  0  0  0  0
    5.0000    1.4070   18.8080 C   0  0  0  0  0  0  0  0  0  0  0  0
   11.0490    1.0010   23.0460 C   0  0  0  0  0  0  0  0  0  0  0  0
   13.3680    0.4840   22.6240 C   0  0  0  0  0  0  0  0  0  0  0  0
   11.6520   -1.1420   22.1450 C   0  0  0  0  0  0  0  0  0  0  0  0
    5.5330    1.3060   17.5390 C   0  0  0  0  0  0  0  0  0  0  0  0
    7.2400   -0.0390   18.2610 C   0  0  0  0  0  0  0  0  0  0  0  0
   10.9351    2.9634   25.1782 C   0  0  0  0  0  0  0  0  0  0  0  0
   12.3850    1.3610   23.0530 C   0  0  0  0  0  0  0  0  0  0  0  0
    5.6260    0.7590   19.8690 C   0  0  0  0  0  0  0  0  0  0  0  0
   10.6720   -0.2500   22.5660 C   0  0  0  0  0  0  0  0  0  0  0  0
    6.7930    0.0210   19.5790 C   0  0  0  0  0  0  0  0  0  0  0  0
   12.9770   -0.7640   22.1810 C   0  0  0  0  0  0  0  0  0  0  0  0
   12.7726    2.7095   23.5297 C   0  0  0  0  0  0  0  0  0  0  0  0
   12.1139    3.4387   24.4708 C   0  0  0  0  0  0  0  0  0  0  0  0
    8.6020    0.1230   21.2070 C   0  0  0  0  0  0  0  0  0  0  0  0
    5.0980    0.9060   21.2740 C   0  0  0  0  0  0  0  0  0  0  0  0
    9.2100   -0.5900   22.3990 C   0  0  0  0  0  0  0  0  0  0  0  0
   12.6083    4.8156   24.8500 C   0  0  0  0  0  0  0  0  0  0  0  0
    6.6320    0.5940   17.2520 N   0  0  0  0  0  0  0  0  0  0  0  0
    7.5630   -0.5230   20.6330 N   0  0  0  0  0  0  0  0  0  0  0  0
    9.0150    1.2120   20.8220 O   0  0  0  0  0  0  0  0  0  0  0  0
   11.8653    5.4197   25.8148 F   0  0  0  0  0  0  0  0  0  0  0  0
   12.6009    5.6562   23.7822 F   0  0  0  0  0  0  0  0  0  0  0  0
   13.8840    4.7836   25.3152 F   0  0  0  0  0  0  0  0  0  0  0  0
   14.1940   -1.9100   21.6990 Cl  0  0  0  0  0  0  0  0  0  0  0  0
    7.7933    1.6975   27.0617 H   0  0  0  0  0  0  0  0  0  0  0  0
    9.9314    0.4510   27.2379 H   0  0  0  0  0  0  0  0  0  0  0  0
    7.6664    3.7538   25.6794 H   0  0  0  0  0  0  0  0  0  0  0  0
   11.9364    1.2503   26.0423 H   0  0  0  0  0  0  0  0  0  0  0  0
    9.6616    4.5670   24.4774 H   0  0  0  0  0  0  0  0  0  0  0  0
    4.0894    1.9955   18.9731 H   0  0  0  0  0  0  0  0  0  0  0  0
   10.2871    1.6869   23.4136 H   0  0  0  0  0  0  0  0  0  0  0  0
   14.4083    0.7693   22.6351 H   0  0  0  0  0  0  0  0  0  0  0  0
   11.3638   -2.1297   21.7903 H   0  0  0  0  0  0  0  0  0  0  0  0
    5.0712    1.8129   16.6995 H   0  0  0  0  0  0  0  0  0  0  0  0
    8.1159   -0.6122   17.9919 H   0  0  0  0  0  0  0  0  0  0  0  0
   13.6705    3.1025   23.0574 H   0  0  0  0  0  0  0  0  0  0  0  0
    4.2505    1.6010   21.2905 H   0  0  0  0  0  0  0  0  0  0  0  0
    4.7664   -0.0594   21.6758 H   0  0  0  0  0  0  0  0  0  0  0  0
    5.8738    1.2842   21.9513 H   0  0  0  0  0  0  0  0  0  0  0  0
    9.0900   -1.6664   22.2639 H   0  0  0  0  0  0  0  0  0  0  0  0
    8.6578   -0.3097   23.2977 H   0  0  0  0  0  0  0  0  0  0  0  0
    7.3129   -1.4300   20.9567 H   0  0  0  0  0  0  0  0  0  0  0  0
  1  2  1  0  0  0  0
  1  3  2  0  0  0  0
  2  4  2  0  0  0  0
  3  5  1  0  0  0  0
  4 12  1  0  0  0  0
  5 12  2  0  0  0  0
  6 10  2  0  0  0  0
  6 14  1  0  0  0  0
  7 13  1  0  0  0  0
  7 15  2  0  0  0  0
  8 13  2  0  0  0  0
  8 17  1  0  0  0  0
  9 15  1  0  0  0  0
  9 17  2  0  0  0  0
 10 24  1  0  0  0  0
 11 16  1  0  0  0  0
 11 24  2  0  0  0  0
 12 19  1  0  0  0  0
 13 18  1  0  0  0  0
 14 16  2  0  0  0  0
 14 21  1  0  0  0  0
 15 22  1  0  0  0  0
 16 25  1  0  0  0  0
 17 30  1  0  0  0  0
 18 19  2  0  0  0  0
 19 23  1  0  0  0  0
 20 22  1  0  0  0  0
 20 25  1  0  0  0  0
 20 26  2  0  0  0  0
 23 27  1  0  0  0  0
 23 28  1  0  0  0  0
 23 29  1  0  0  0  0
  1 31  1  0  0  0  0
  2 32  1  0  0  0  0
  3 33  1  0  0  0  0
  4 34  1  0  0  0  0
  5 35  1  0  0  0  0
  6 36  1  0  0  0  0
  7 37  1  0  0  0  0
  8 38  1  0  0  0  0
  9 39  1  0  0  0  0
 10 40  1  0  0  0  0
 11 41  1  0  0  0  0
 18 42  1  0  0  0  0
 21 43  1  0  0  0  0
 21 44  1  0  0  0  0
 21 45  1  0  0  0  0
 22 46  1  0  0  0  0
 22 47  1  0  0  0  0
 25 48  1  0  0  0  0
M  END
> <BB_SMILES>
CC1(C)OB(C=C(c2ccccc2)C(F)(F)F)OC1(C)C

> <scaffold_SMILES>
Cc1ccncc1NC(=O)Cc1cc(Cl)cc(Br)c1

$$$$
EN300-1704613
  -OEChem-07272002243D

 48 50  0     0  0  0  0  0  0999 V2000
   13.5554    7.6858   24.4694 C   0  0  0  0  0  0  0  0  0  0  0  0
   12.8723    6.7985   25.3011 C   0  0  0  0  0  0  0  0  0  0  0  0
   13.8449    7.3257   23.1533 C   0  0  0  0  0  0  0  0  0  0  0  0
   12.4788    5.5511   24.8167 C   0  0  0  0  0  0  0  0  0  0  0  0
   13.4514    6.0782   22.6689 C   0  0  0  0  0  0  0  0  0  0  0  0
    5.0000    1.4070   18.8080 C   0  0  0  0  0  0  0  0  0  0  0  0
   11.0490    1.0010   23.0460 C   0  0  0  0  0  0  0  0  0  0  0  0
   13.3680    0.4840   22.6240 C   0  0  0  0  0  0  0  0  0  0  0  0
   11.6520   -1.1420   22.1450 C   0  0  0  0  0  0  0  0  0  0  0  0
    5.5330    1.3060   17.5390 C   0  0  0  0  0  0  0  0  0  0  0  0
    7.2400   -0.0390   18.2610 C   0  0  0  0  0  0  0  0  0  0  0  0
   12.7684    5.1909   23.5005 C   0  0  0  0  0  0  0  0  0  0  0  0
   12.3850    1.3610   23.0530 C   0  0  0  0  0  0  0  0  0  0  0  0
    5.6260    0.7590   19.8690 C   0  0  0  0  0  0  0  0  0  0  0  0
   10.6720   -0.2500   22.5660 C   0  0  0  0  0  0  0  0  0  0  0  0
    6.7930    0.0210   19.5790 C   0  0  0  0  0  0  0  0  0  0  0  0
   12.9770   -0.7640   22.1810 C   0  0  0  0  0  0  0  0  0  0  0  0
   12.7726    2.7095   23.5297 C   0  0  0  0  0  0  0  0  0  0  0  0
   12.3584    3.8901   22.9949 C   0  0  0  0  0  0  0  0  0  0  0  0
    8.6020    0.1230   21.2070 C   0  0  0  0  0  0  0  0  0  0  0  0
    5.0980    0.9060   21.2740 C   0  0  0  0  0  0  0  0  0  0  0  0
    9.2100   -0.5900   22.3990 C   0  0  0  0  0  0  0  0  0  0  0  0
   11.4374    3.9012   21.7967 C   0  0  0  0  0  0  0  0  0  0  0  0
    6.6320    0.5940   17.2520 N   0  0  0  0  0  0  0  0  0  0  0  0
    7.5630   -0.5230   20.6330 N   0  0  0  0  0  0  0  0  0  0  0  0
    9.0150    1.2120   20.8220 O   0  0  0  0  0  0  0  0  0  0  0  0
   11.1209    5.1485   21.3585 F   0  0  0  0  0  0  0  0  0  0  0  0
   10.2581    3.2845   22.0725 F   0  0  0  0  0  0  0  0  0  0  0  0
   11.9814    3.2508   20.7357 F   0  0  0  0  0  0  0  0  0  0  0  0
   14.1940   -1.9100   21.6990 Cl  0  0  0  0  0  0  0  0  0  0  0  0
   13.8607    8.6576   24.8462 H   0  0  0  0  0  0  0  0  0  0  0  0
   12.6457    7.0792   26.3256 H   0  0  0  0  0  0  0  0  0  0  0  0
   14.3758    8.0169   22.5052 H   0  0  0  0  0  0  0  0  0  0  0  0
   11.9471    4.8701   25.4771 H   0  0  0  0  0  0  0  0  0  0  0  0
   13.6845    5.8121   21.6406 H   0  0  0  0  0  0  0  0  0  0  0  0
    4.0894    1.9955   18.9731 H   0  0  0  0  0  0  0  0  0  0  0  0
   10.2871    1.6869   23.4136 H   0  0  0  0  0  0  0  0  0  0  0  0
   14.4083    0.7693   22.6351 H   0  0  0  0  0  0  0  0  0  0  0  0
   11.3638   -2.1297   21.7903 H   0  0  0  0  0  0  0  0  0  0  0  0
    5.0712    1.8129   16.6995 H   0  0  0  0  0  0  0  0  0  0  0  0
    8.1159   -0.6122   17.9919 H   0  0  0  0  0  0  0  0  0  0  0  0
   13.4440    2.6981   24.3857 H   0  0  0  0  0  0  0  0  0  0  0  0
    4.2505    1.6010   21.2905 H   0  0  0  0  0  0  0  0  0  0  0  0
    4.7664   -0.0594   21.6758 H   0  0  0  0  0  0  0  0  0  0  0  0
    5.8738    1.2842   21.9513 H   0  0  0  0  0  0  0  0  0  0  0  0
    9.0900   -1.6664   22.2639 H   0  0  0  0  0  0  0  0  0  0  0  0
    8.6578   -0.3097   23.2977 H   0  0  0  0  0  0  0  0  0  0  0  0
    7.3129   -1.4300   20.9567 H   0  0  0  0  0  0  0  0  0  0  0  0
  1  2  1  0  0  0  0
  1  3  2  0  0  0  0
  2  4  2  0  0  0  0
  3  5  1  0  0  0  0
  4 12  1  0  0  0  0
  5 12  2  0  0  0  0
  6 10  2  0  0  0  0
  6 14  1  0  0  0  0
  7 13  1  0  0  0  0
  7 15  2  0  0  0  0
  8 13  2  0  0  0  0
  8 17  1  0  0  0  0
  9 15  1  0  0  0  0
  9 17  2  0  0  0  0
 10 24  1  0  0  0  0
 11 16  1  0  0  0  0
 11 24  2  0  0  0  0
 12 19  1  0  0  0  0
 13 18  1  0  0  0  0
 14 16  2  0  0  0  0
 14 21  1  0  0  0  0
 15 22  1  0  0  0  0
 16 25  1  0  0  0  0
 17 30  1  0  0  0  0
 18 19  2  0  0  0  0
 19 23  1  0  0  0  0
 20 22  1  0  0  0  0
 20 25  1  0  0  0  0
 20 26  2  0  0  0  0
 23 27  1  0  0  0  0
 23 28  1  0  0  0  0
 23 29  1  0  0  0  0
  1 31  1  0  0  0  0
  2 32  1  0  0  0  0
  3 33  1  0  0  0  0
  4 34  1  0  0  0  0
  5 35  1  0  0  0  0
  6 36  1  0  0  0  0
  7 37  1  0  0  0  0
  8 38  1  0  0  0  0
  9 39  1  0  0  0  0
 10 40  1  0  0  0  0
 11 41  1  0  0  0  0
 18 42  1  0  0  0  0
 21 43  1  0  0  0  0
 21 44  1  0  0  0  0
 21 45  1  0  0  0  0
 22 46  1  0  0  0  0
 22 47  1  0  0  0  0
 25 48  1  0  0  0  0
M  END
> <BB_SMILES>
CC1(C)OB(C=C(c2ccccc2)C(F)(F)F)OC1(C)C

> <scaffold_SMILES>
Cc1ccncc1NC(=O)Cc1cc(Cl)cc(Br)c1

$$$$
EN300-1704696
  -OEChem-07272002243D

 48 50  0     0  0  0  0  0  0999 V2000
    5.0000    1.4070   18.8080 C   0  0  0  0  0  0  0  0  0  0  0  0
   11.0490    1.0010   23.0460 C   0  0  0  0  0  0  0  0  0  0  0  0
   13.3680    0.4840   22.6240 C   0  0  0  0  0  0  0  0  0  0  0  0
   11.6520   -1.1420   22.1450 C   0  0  0  0  0  0  0  0  0  0  0  0
    5.5330    1.3060   17.5390 C   0  0  0  0  0  0  0  0  0  0  0  0
    7.2400   -0.0390   18.2610 C   0  0  0  0  0  0  0  0  0  0  0  0
   12.3850    1.3610   23.0530 C   0  0  0  0  0  0  0  0  0  0  0  0
    5.6260    0.7590   19.8690 C   0  0  0  0  0  0  0  0  0  0  0  0
   10.6720   -0.2500   22.5660 C   0  0  0  0  0  0  0  0  0  0  0  0
    6.7930    0.0210   19.5790 C   0  0  0  0  0  0  0  0  0  0  0  0
   12.9770   -0.7640   22.1810 C   0  0  0  0  0  0  0  0  0  0  0  0
   12.3239    3.8235   22.9955 C   0  0  0  0  0  0  0  0  0  0  0  0
   12.7635    2.6777   23.5184 C   0  0  0  0  0  0  0  0  0  0  0  0
   10.0702    6.0089   23.1646 C   0  0  0  0  0  0  0  0  0  0  0  0
    8.6020    0.1230   21.2070 C   0  0  0  0  0  0  0  0  0  0  0  0
   12.5921    5.2704   23.3279 C   0  0  0  0  0  0  0  0  0  0  0  0
   11.3862    4.1358   21.8556 C   0  0  0  0  0  0  0  0  0  0  0  0
   11.3564    5.5719   22.4407 C   0  0  0  0  0  0  0  0  0  0  0  0
    5.0980    0.9060   21.2740 C   0  0  0  0  0  0  0  0  0  0  0  0
    7.7833    6.4862   22.8094 C   0  0  0  0  0  0  0  0  0  0  0  0
    9.2100   -0.5900   22.3990 C   0  0  0  0  0  0  0  0  0  0  0  0
    6.6320    0.5940   17.2520 N   0  0  0  0  0  0  0  0  0  0  0  0
    7.5630   -0.5230   20.6330 N   0  0  0  0  0  0  0  0  0  0  0  0
   10.0045    6.2424   24.3639 O   0  0  0  0  0  0  0  0  0  0  0  0
    9.0150    1.2120   20.8220 O   0  0  0  0  0  0  0  0  0  0  0  0
    9.0466    6.0883   22.2674 O   0  0  0  0  0  0  0  0  0  0  0  0
   14.1940   -1.9100   21.6990 Cl  0  0  0  0  0  0  0  0  0  0  0  0
    4.0894    1.9955   18.9731 H   0  0  0  0  0  0  0  0  0  0  0  0
   10.2871    1.6869   23.4136 H   0  0  0  0  0  0  0  0  0  0  0  0
   14.4083    0.7693   22.6351 H   0  0  0  0  0  0  0  0  0  0  0  0
   11.3638   -2.1297   21.7903 H   0  0  0  0  0  0  0  0  0  0  0  0
    5.0712    1.8129   16.6995 H   0  0  0  0  0  0  0  0  0  0  0  0
    8.1159   -0.6122   17.9919 H   0  0  0  0  0  0  0  0  0  0  0  0
   13.4358    2.7378   24.3748 H   0  0  0  0  0  0  0  0  0  0  0  0
   12.4817    5.5409   24.3867 H   0  0  0  0  0  0  0  0  0  0  0  0
   13.5290    5.7034   22.9554 H   0  0  0  0  0  0  0  0  0  0  0  0
   11.7963    4.0728   20.8399 H   0  0  0  0  0  0  0  0  0  0  0  0
   10.4259    3.6036   21.8749 H   0  0  0  0  0  0  0  0  0  0  0  0
   11.5945    6.3200   21.6652 H   0  0  0  0  0  0  0  0  0  0  0  0
    5.2627    1.9272   21.6367 H   0  0  0  0  0  0  0  0  0  0  0  0
    4.0238    0.6880   21.3185 H   0  0  0  0  0  0  0  0  0  0  0  0
    5.5943    0.2073   21.9589 H   0  0  0  0  0  0  0  0  0  0  0  0
    7.0373    6.5179   22.0115 H   0  0  0  0  0  0  0  0  0  0  0  0
    7.8786    7.4713   23.2730 H   0  0  0  0  0  0  0  0  0  0  0  0
    7.4753    5.7588   23.5642 H   0  0  0  0  0  0  0  0  0  0  0  0
    9.0900   -1.6664   22.2639 H   0  0  0  0  0  0  0  0  0  0  0  0
    8.6578   -0.3097   23.2977 H   0  0  0  0  0  0  0  0  0  0  0  0
    7.3129   -1.4300   20.9567 H   0  0  0  0  0  0  0  0  0  0  0  0
  1  5  2  0  0  0  0
  1  8  1  0  0  0  0
  2  7  2  0  0  0  0
  2  9  1  0  0  0  0
  3  7  1  0  0  0  0
  3 11  2  0  0  0  0
  4  9  2  0  0  0  0
  4 11  1  0  0  0  0
  5 22  1  0  0  0  0
  6 10  1  0  0  0  0
  6 22  2  0  0  0  0
  7 13  1  0  0  0  0
  8 10  2  0  0  0  0
  8 19  1  0  0  0  0
  9 21  1  0  0  0  0
 10 23  1  0  0  0  0
 11 27  1  0  0  0  0
 12 13  2  0  0  0  0
 12 16  1  0  0  0  0
 12 17  1  0  0  0  0
 14 18  1  0  0  0  0
 14 24  2  0  0  0  0
 14 26  1  0  0  0  0
 15 21  1  0  0  0  0
 15 23  1  0  0  0  0
 15 25  2  0  0  0  0
 16 18  1  0  0  0  0
 17 18  1  0  0  0  0
 20 26  1  0  0  0  0
  1 28  1  0  0  0  0
  2 29  1  0  0  0  0
  3 30  1  0  0  0  0
  4 31  1  0  0  0  0
  5 32  1  0  0  0  0
  6 33  1  0  0  0  0
 13 34  1  0  0  0  0
 16 35  1  0  0  0  0
 16 36  1  0  0  0  0
 17 37  1  0  0  0  0
 17 38  1  0  0  0  0
 18 39  1  0  0  0  0
 19 40  1  0  0  0  0
 19 41  1  0  0  0  0
 19 42  1  0  0  0  0
 20 43  1  0  0  0  0
 20 44  1  0  0  0  0
 20 45  1  0  0  0  0
 21 46  1  0  0  0  0
 21 47  1  0  0  0  0
 23 48  1  0  0  0  0
M  END
> <BB_SMILES>
COC(=O)C1CC(=CB2OC(C)(C)C(C)(C)O2)C1

> <scaffold_SMILES>
Cc1ccncc1NC(=O)Cc1cc(Cl)cc(Br)c1

$$$$
EN300-1732257
  -OEChem-07272002243D

 50 52  0     0  0  0  0  0  0999 V2000
    5.0000    1.4070   18.8080 C   0  0  0  0  0  0  0  0  0  0  0  0
   11.0490    1.0010   23.0460 C   0  0  0  0  0  0  0  0  0  0  0  0
   11.6520   -1.1420   22.1450 C   0  0  0  0  0  0  0  0  0  0  0  0
   13.3680    0.4840   22.6240 C   0  0  0  0  0  0  0  0  0  0  0  0
    5.5330    1.3060   17.5390 C   0  0  0  0  0  0  0  0  0  0  0  0
    7.2400   -0.0390   18.2610 C   0  0  0  0  0  0  0  0  0  0  0  0
    5.6260    0.7590   19.8690 C   0  0  0  0  0  0  0  0  0  0  0  0
   10.6720   -0.2500   22.5660 C   0  0  0  0  0  0  0  0  0  0  0  0
   12.3850    1.3610   23.0530 C   0  0  0  0  0  0  0  0  0  0  0  0
    6.7930    0.0210   19.5790 C   0  0  0  0  0  0  0  0  0  0  0  0
   12.9770   -0.7640   22.1810 C   0  0  0  0  0  0  0  0  0  0  0  0
   11.5024    5.9288   24.3609 C   0  0  0  0  0  0  0  0  0  0  0  0
    8.6020    0.1230   21.2070 C   0  0  0  0  0  0  0  0  0  0  0  0
   11.4747    4.5023   22.1445 C   0  0  0  0  0  0  0  0  0  0  0  0
   13.4365    5.1331   22.7522 C   0  0  0  0  0  0  0  0  0  0  0  0
   12.0162    5.7201   22.9305 C   0  0  0  0  0  0  0  0  0  0  0  0
   12.8045    3.7650   22.4148 C   0  0  0  0  0  0  0  0  0  0  0  0
    5.0980    0.9060   21.2740 C   0  0  0  0  0  0  0  0  0  0  0  0
    9.5718    6.4945   25.6006 C   0  0  0  0  0  0  0  0  0  0  0  0
    9.2100   -0.5900   22.3990 C   0  0  0  0  0  0  0  0  0  0  0  0
   12.7818    2.7451   23.5427 C   0  0  0  0  0  0  0  0  0  0  0  0
    6.6320    0.5940   17.2520 N   0  0  0  0  0  0  0  0  0  0  0  0
    7.5630   -0.5230   20.6330 N   0  0  0  0  0  0  0  0  0  0  0  0
   12.1935    5.8018   25.3626 O   0  0  0  0  0  0  0  0  0  0  0  0
    9.0150    1.2120   20.8220 O   0  0  0  0  0  0  0  0  0  0  0  0
   10.1826    6.2694   24.3261 O   0  0  0  0  0  0  0  0  0  0  0  0
   14.1940   -1.9100   21.6990 Cl  0  0  0  0  0  0  0  0  0  0  0  0
    4.0894    1.9955   18.9731 H   0  0  0  0  0  0  0  0  0  0  0  0
   10.2920    1.6914   23.4138 H   0  0  0  0  0  0  0  0  0  0  0  0
   11.3638   -2.1302   21.7909 H   0  0  0  0  0  0  0  0  0  0  0  0
   14.4063    0.7746   22.6384 H   0  0  0  0  0  0  0  0  0  0  0  0
    5.0712    1.8129   16.6995 H   0  0  0  0  0  0  0  0  0  0  0  0
    8.1159   -0.6122   17.9919 H   0  0  0  0  0  0  0  0  0  0  0  0
   10.5884    4.0311   22.6013 H   0  0  0  0  0  0  0  0  0  0  0  0
   11.2487    4.6875   21.0840 H   0  0  0  0  0  0  0  0  0  0  0  0
   14.0359    5.5837   21.9473 H   0  0  0  0  0  0  0  0  0  0  0  0
   14.0451    5.1425   23.6719 H   0  0  0  0  0  0  0  0  0  0  0  0
   11.8915    6.6582   22.3571 H   0  0  0  0  0  0  0  0  0  0  0  0
   13.2286    3.3216   21.5049 H   0  0  0  0  0  0  0  0  0  0  0  0
    5.5934    1.7425   21.7803 H   0  0  0  0  0  0  0  0  0  0  0  0
    4.0163    1.0885   21.2738 H   0  0  0  0  0  0  0  0  0  0  0  0
    5.2677   -0.0067   21.8586 H   0  0  0  0  0  0  0  0  0  0  0  0
    8.5211    6.7598   25.4602 H   0  0  0  0  0  0  0  0  0  0  0  0
   10.0961    7.3009   26.1195 H   0  0  0  0  0  0  0  0  0  0  0  0
    9.6381    5.5790   26.1932 H   0  0  0  0  0  0  0  0  0  0  0  0
    9.0902   -1.6664   22.2639 H   0  0  0  0  0  0  0  0  0  0  0  0
    8.6579   -0.3097   23.2977 H   0  0  0  0  0  0  0  0  0  0  0  0
   12.0843    3.0677   24.3283 H   0  0  0  0  0  0  0  0  0  0  0  0
   13.7685    2.6932   24.0238 H   0  0  0  0  0  0  0  0  0  0  0  0
    7.3129   -1.4300   20.9567 H   0  0  0  0  0  0  0  0  0  0  0  0
  1  5  2  0  0  0  0
  1  7  1  0  0  0  0
  2  8  1  0  0  0  0
  2  9  2  0  0  0  0
  3  8  2  0  0  0  0
  3 11  1  0  0  0  0
  4  9  1  0  0  0  0
  4 11  2  0  0  0  0
  5 22  1  0  0  0  0
  6 10  1  0  0  0  0
  6 22  2  0  0  0  0
  7 10  2  0  0  0  0
  7 18  1  0  0  0  0
  8 20  1  0  0  0  0
  9 21  1  0  0  0  0
 10 23  1  0  0  0  0
 11 27  1  0  0  0  0
 12 16  1  0  0  0  0
 12 24  2  0  0  0  0
 12 26  1  0  0  0  0
 13 20  1  0  0  0  0
 13 23  1  0  0  0  0
 13 25  2  0  0  0  0
 14 16  1  0  0  0  0
 14 17  1  0  0  0  0
 15 16  1  0  0  0  0
 15 17  1  0  0  0  0
 17 21  1  0  0  0  0
 19 26  1  0  0  0  0
  1 28  1  0  0  0  0
  2 29  1  0  0  0  0
  3 30  1  0  0  0  0
  4 31  1  0  0  0  0
  5 32  1  0  0  0  0
  6 33  1  0  0  0  0
 14 34  1  0  0  0  0
 14 35  1  0  0  0  0
 15 36  1  0  0  0  0
 15 37  1  0  0  0  0
 16 38  1  0  0  0  0
 17 39  1  0  0  0  0
 18 40  1  0  0  0  0
 18 41  1  0  0  0  0
 18 42  1  0  0  0  0
 19 43  1  0  0  0  0
 19 44  1  0  0  0  0
 19 45  1  0  0  0  0
 20 46  1  0  0  0  0
 20 47  1  0  0  0  0
 21 48  1  0  0  0  0
 21 49  1  0  0  0  0
 23 50  1  0  0  0  0
M  END
> <BB_SMILES>
COC(=O)C1CC(CB2OC(C)(C)C(C)(C)O2)C1

> <scaffold_SMILES>
Cc1ccncc1NC(=O)Cc1cc(Cl)cc(Br)c1

$$$$
EN300-1722968
  -OEChem-07272002243D

 50 52  0     0  0  0  0  0  0999 V2000
    5.0000    1.4070   18.8080 C   0  0  0  0  0  0  0  0  0  0  0  0
   11.0490    1.0010   23.0460 C   0  0  0  0  0  0  0  0  0  0  0  0
   11.6520   -1.1420   22.1450 C   0  0  0  0  0  0  0  0  0  0  0  0
   13.3680    0.4840   22.6240 C   0  0  0  0  0  0  0  0  0  0  0  0
    5.5330    1.3060   17.5390 C   0  0  0  0  0  0  0  0  0  0  0  0
    7.2400   -0.0390   18.2610 C   0  0  0  0  0  0  0  0  0  0  0  0
    5.6260    0.7590   19.8690 C   0  0  0  0  0  0  0  0  0  0  0  0
   10.6720   -0.2500   22.5660 C   0  0  0  0  0  0  0  0  0  0  0  0
   12.3850    1.3610   23.0530 C   0  0  0  0  0  0  0  0  0  0  0  0
    6.7930    0.0210   19.5790 C   0  0  0  0  0  0  0  0  0  0  0  0
   12.9770   -0.7640   22.1810 C   0  0  0  0  0  0  0  0  0  0  0  0
    8.6020    0.1230   21.2070 C   0  0  0  0  0  0  0  0  0  0  0  0
   14.0796    3.6124   21.5646 C   0  0  0  0  0  0  0  0  0  0  0  0
   12.6672    5.1873   22.9443 C   0  0  0  0  0  0  0  0  0  0  0  0
   14.1522    4.6604   20.4641 C   0  0  0  0  0  0  0  0  0  0  0  0
   12.7526    6.2206   21.8308 C   0  0  0  0  0  0  0  0  0  0  0  0
   12.8004    3.7571   22.4015 C   0  0  0  0  0  0  0  0  0  0  0  0
    5.0980    0.9060   21.2740 C   0  0  0  0  0  0  0  0  0  0  0  0
    9.2100   -0.5900   22.3990 C   0  0  0  0  0  0  0  0  0  0  0  0
   12.7805    2.7408   23.5412 C   0  0  0  0  0  0  0  0  0  0  0  0
    6.6320    0.5940   17.2520 N   0  0  0  0  0  0  0  0  0  0  0  0
    7.5630   -0.5230   20.6330 N   0  0  0  0  0  0  0  0  0  0  0  0
   14.0203    6.0189   21.0689 N   0  3  0  0  0  0  0  0  0  0  0  0
    9.0150    1.2120   20.8220 O   0  0  0  0  0  0  0  0  0  0  0  0
   14.1940   -1.9100   21.6990 Cl  0  0  0  0  0  0  0  0  0  0  0  0
    4.0894    1.9955   18.9731 H   0  0  0  0  0  0  0  0  0  0  0  0
   10.2920    1.6914   23.4138 H   0  0  0  0  0  0  0  0  0  0  0  0
   11.3638   -2.1302   21.7909 H   0  0  0  0  0  0  0  0  0  0  0  0
   14.4063    0.7746   22.6384 H   0  0  0  0  0  0  0  0  0  0  0  0
    5.0712    1.8129   16.6995 H   0  0  0  0  0  0  0  0  0  0  0  0
    8.1159   -0.6122   17.9919 H   0  0  0  0  0  0  0  0  0  0  0  0
   14.1177    2.6137   21.1136 H   0  0  0  0  0  0  0  0  0  0  0  0
   14.9628    3.7005   22.2107 H   0  0  0  0  0  0  0  0  0  0  0  0
   13.4541    5.3828   23.6842 H   0  0  0  0  0  0  0  0  0  0  0  0
   11.7093    5.2990   23.4662 H   0  0  0  0  0  0  0  0  0  0  0  0
   15.1155    4.6328   19.9464 H   0  0  0  0  0  0  0  0  0  0  0  0
   13.3449    4.5480   19.7329 H   0  0  0  0  0  0  0  0  0  0  0  0
   11.9254    6.1303   21.1193 H   0  0  0  0  0  0  0  0  0  0  0  0
   12.7775    7.2390   22.2294 H   0  0  0  0  0  0  0  0  0  0  0  0
   11.9385    3.5531   21.7521 H   0  0  0  0  0  0  0  0  0  0  0  0
    5.2474    1.9317   21.6305 H   0  0  0  0  0  0  0  0  0  0  0  0
    4.0274    0.6717   21.3216 H   0  0  0  0  0  0  0  0  0  0  0  0
    5.6061    0.2191   21.9621 H   0  0  0  0  0  0  0  0  0  0  0  0
    9.0902   -1.6664   22.2639 H   0  0  0  0  0  0  0  0  0  0  0  0
    8.6579   -0.3097   23.2977 H   0  0  0  0  0  0  0  0  0  0  0  0
   12.0844    3.0766   24.3164 H   0  0  0  0  0  0  0  0  0  0  0  0
   13.7684    2.7015   24.0113 H   0  0  0  0  0  0  0  0  0  0  0  0
    7.3129   -1.4300   20.9567 H   0  0  0  0  0  0  0  0  0  0  0  0
   14.8242    6.1989   21.6867 H   0  0  0  0  0  0  0  0  0  0  0  0
   14.0808    6.7261   20.3235 H   0  0  0  0  0  0  0  0  0  0  0  0
  1  5  2  0  0  0  0
  1  7  1  0  0  0  0
  2  8  2  0  0  0  0
  2  9  1  0  0  0  0
  3  8  1  0  0  0  0
  3 11  2  0  0  0  0
  4  9  2  0  0  0  0
  4 11  1  0  0  0  0
  5 21  1  0  0  0  0
  6 10  1  0  0  0  0
  6 21  2  0  0  0  0
  7 10  2  0  0  0  0
  7 18  1  0  0  0  0
  8 19  1  0  0  0  0
  9 20  1  0  0  0  0
 10 22  1  0  0  0  0
 11 25  1  0  0  0  0
 12 19  1  0  0  0  0
 12 22  1  0  0  0  0
 12 24  2  0  0  0  0
 13 15  1  0  0  0  0
 13 17  1  0  0  0  0
 14 16  1  0  0  0  0
 14 17  1  0  0  0  0
 15 23  1  0  0  0  0
 16 23  1  0  0  0  0
 17 20  1  0  0  0  0
  1 26  1  0  0  0  0
  2 27  1  0  0  0  0
  3 28  1  0  0  0  0
  4 29  1  0  0  0  0
  5 30  1  0  0  0  0
  6 31  1  0  0  0  0
 13 32  1  0  0  0  0
 13 33  1  0  0  0  0
 14 34  1  0  0  0  0
 14 35  1  0  0  0  0
 15 36  1  0  0  0  0
 15 37  1  0  0  0  0
 16 38  1  0  0  0  0
 16 39  1  0  0  0  0
 17 40  1  0  0  0  0
 18 41  1  0  0  0  0
 18 42  1  0  0  0  0
 18 43  1  0  0  0  0
 19 44  1  0  0  0  0
 19 45  1  0  0  0  0
 20 46  1  0  0  0  0
 20 47  1  0  0  0  0
 22 48  1  0  0  0  0
 23 49  1  0  0  0  0
 23 50  1  0  0  0  0
M  CHG  1  23   1
M  END
> <BB_SMILES>
CC1(C)OB(CC2CCNCC2)OC1(C)C

> <scaffold_SMILES>
Cc1ccncc1NC(=O)Cc1cc(Cl)cc(Br)c1

$$$$
EN300-6474796
  -OEChem-07272002243D

 55 58  0     0  0  0  0  0  0999 V2000
    5.0000    1.4070   18.8080 C   0  0  0  0  0  0  0  0  0  0  0  0
   11.0490    1.0010   23.0460 C   0  0  0  0  0  0  0  0  0  0  0  0
   11.6520   -1.1420   22.1450 C   0  0  0  0  0  0  0  0  0  0  0  0
   13.3680    0.4840   22.6240 C   0  0  0  0  0  0  0  0  0  0  0  0
    5.5330    1.3060   17.5390 C   0  0  0  0  0  0  0  0  0  0  0  0
    7.2400   -0.0390   18.2610 C   0  0  0  0  0  0  0  0  0  0  0  0
    5.6260    0.7590   19.8690 C   0  0  0  0  0  0  0  0  0  0  0  0
   10.6720   -0.2500   22.5660 C   0  0  0  0  0  0  0  0  0  0  0  0
   12.3850    1.3610   23.0530 C   0  0  0  0  0  0  0  0  0  0  0  0
    6.7930    0.0210   19.5790 C   0  0  0  0  0  0  0  0  0  0  0  0
   12.9770   -0.7640   22.1810 C   0  0  0  0  0  0  0  0  0  0  0  0
    8.6020    0.1230   21.2070 C   0  0  0  0  0  0  0  0  0  0  0  0
   10.6130    5.7092   23.7209 C   0  0  0  0  0  0  0  0  0  0  0  0
   11.3355    6.7245   21.5421 C   0  0  0  0  0  0  0  0  0  0  0  0
   12.9968    5.2359   22.8308 C   0  0  0  0  0  0  0  0  0  0  0  0
   11.4381    4.1350   21.8033 C   0  0  0  0  0  0  0  0  0  0  0  0
    9.1749    5.9449   23.2696 C   0  0  0  0  0  0  0  0  0  0  0  0
    9.8565    6.8935   21.2133 C   0  0  0  0  0  0  0  0  0  0  0  0
   12.8042    3.7633   22.4150 C   0  0  0  0  0  0  0  0  0  0  0  0
   11.5107    5.5301   22.4889 C   0  0  0  0  0  0  0  0  0  0  0  0
    5.0980    0.9060   21.2740 C   0  0  0  0  0  0  0  0  0  0  0  0
    9.2100   -0.5900   22.3990 C   0  0  0  0  0  0  0  0  0  0  0  0
   12.7817    2.7448   23.5426 C   0  0  0  0  0  0  0  0  0  0  0  0
    6.6320    0.5940   17.2520 N   0  0  0  0  0  0  0  0  0  0  0  0
    7.5630   -0.5230   20.6330 N   0  0  0  0  0  0  0  0  0  0  0  0
    9.0150    1.2120   20.8220 O   0  0  0  0  0  0  0  0  0  0  0  0
    9.1000    7.0856   22.4112 O   0  0  0  0  0  0  0  0  0  0  0  0
   14.1940   -1.9100   21.6990 Cl  0  0  0  0  0  0  0  0  0  0  0  0
    4.0894    1.9955   18.9731 H   0  0  0  0  0  0  0  0  0  0  0  0
   10.2920    1.6914   23.4138 H   0  0  0  0  0  0  0  0  0  0  0  0
   11.3638   -2.1302   21.7909 H   0  0  0  0  0  0  0  0  0  0  0  0
   14.4063    0.7746   22.6384 H   0  0  0  0  0  0  0  0  0  0  0  0
    5.0712    1.8129   16.6995 H   0  0  0  0  0  0  0  0  0  0  0  0
    8.1159   -0.6122   17.9919 H   0  0  0  0  0  0  0  0  0  0  0  0
   10.9602    6.5768   24.2965 H   0  0  0  0  0  0  0  0  0  0  0  0
   10.6609    4.8352   24.3807 H   0  0  0  0  0  0  0  0  0  0  0  0
   11.9111    6.6003   20.6184 H   0  0  0  0  0  0  0  0  0  0  0  0
   11.7002    7.6329   22.0381 H   0  0  0  0  0  0  0  0  0  0  0  0
   13.2506    5.3705   23.8975 H   0  0  0  0  0  0  0  0  0  0  0  0
   13.7483    5.7922   22.2470 H   0  0  0  0  0  0  0  0  0  0  0  0
   11.4064    4.1311   20.7019 H   0  0  0  0  0  0  0  0  0  0  0  0
   10.6027    3.5028   22.1539 H   0  0  0  0  0  0  0  0  0  0  0  0
    8.7628    5.0705   22.7511 H   0  0  0  0  0  0  0  0  0  0  0  0
    8.5405    6.1427   24.1403 H   0  0  0  0  0  0  0  0  0  0  0  0
    9.7148    7.7787   20.5865 H   0  0  0  0  0  0  0  0  0  0  0  0
    9.4584    6.0316   20.6673 H   0  0  0  0  0  0  0  0  0  0  0  0
   13.5327    3.4499   21.6455 H   0  0  0  0  0  0  0  0  0  0  0  0
    4.9534   -0.0800   21.7305 H   0  0  0  0  0  0  0  0  0  0  0  0
    5.7906    1.4826   21.8994 H   0  0  0  0  0  0  0  0  0  0  0  0
    4.1396    1.4397   21.2833 H   0  0  0  0  0  0  0  0  0  0  0  0
    9.0902   -1.6664   22.2639 H   0  0  0  0  0  0  0  0  0  0  0  0
    8.6579   -0.3097   23.2977 H   0  0  0  0  0  0  0  0  0  0  0  0
   12.0848    3.0686   24.3278 H   0  0  0  0  0  0  0  0  0  0  0  0
   13.7687    2.6933   24.0226 H   0  0  0  0  0  0  0  0  0  0  0  0
    7.3129   -1.4300   20.9567 H   0  0  0  0  0  0  0  0  0  0  0  0
  1  5  2  0  0  0  0
  1  7  1  0  0  0  0
  2  8  2  0  0  0  0
  2  9  1  0  0  0  0
  3  8  1  0  0  0  0
  3 11  2  0  0  0  0
  4  9  2  0  0  0  0
  4 11  1  0  0  0  0
  5 24  1  0  0  0  0
  6 10  1  0  0  0  0
  6 24  2  0  0  0  0
  7 10  2  0  0  0  0
  7 21  1  0  0  0  0
  8 22  1  0  0  0  0
  9 23  1  0  0  0  0
 10 25  1  0  0  0  0
 11 28  1  0  0  0  0
 12 22  1  0  0  0  0
 12 25  1  0  0  0  0
 12 26  2  0  0  0  0
 13 17  1  0  0  0  0
 13 20  1  0  0  0  0
 14 18  1  0  0  0  0
 14 20  1  0  0  0  0
 15 19  1  0  0  0  0
 15 20  1  0  0  0  0
 16 19  1  0  0  0  0
 16 20  1  0  0  0  0
 17 27  1  0  0  0  0
 18 27  1  0  0  0  0
 19 23  1  0  0  0  0
  1 29  1  0  0  0  0
  2 30  1  0  0  0  0
  3 31  1  0  0  0  0
  4 32  1  0  0  0  0
  5 33  1  0  0  0  0
  6 34  1  0  0  0  0
 13 35  1  0  0  0  0
 13 36  1  0  0  0  0
 14 37  1  0  0  0  0
 14 38  1  0  0  0  0
 15 39  1  0  0  0  0
 15 40  1  0  0  0  0
 16 41  1  0  0  0  0
 16 42  1  0  0  0  0
 17 43  1  0  0  0  0
 17 44  1  0  0  0  0
 18 45  1  0  0  0  0
 18 46  1  0  0  0  0
 19 47  1  0  0  0  0
 21 48  1  0  0  0  0
 21 49  1  0  0  0  0
 21 50  1  0  0  0  0
 22 51  1  0  0  0  0
 22 52  1  0  0  0  0
 23 53  1  0  0  0  0
 23 54  1  0  0  0  0
 25 55  1  0  0  0  0
M  END
> <BB_SMILES>
CC1(C)OB(CC2CC3(CCOCC3)C2)OC1(C)C

> <scaffold_SMILES>
Cc1ccncc1NC(=O)Cc1cc(Cl)cc(Br)c1

$$$$
EN300-6758786
  -OEChem-07272002243D

 41 43  0     0  0  0  0  0  0999 V2000
    5.0000    1.4070   18.8080 C   0  0  0  0  0  0  0  0  0  0  0  0
   11.0490    1.0010   23.0460 C   0  0  0  0  0  0  0  0  0  0  0  0
   13.3680    0.4840   22.6240 C   0  0  0  0  0  0  0  0  0  0  0  0
   11.6520   -1.1420   22.1450 C   0  0  0  0  0  0  0  0  0  0  0  0
    5.5330    1.3060   17.5390 C   0  0  0  0  0  0  0  0  0  0  0  0
    7.2400   -0.0390   18.2610 C   0  0  0  0  0  0  0  0  0  0  0  0
   12.3850    1.3610   23.0530 C   0  0  0  0  0  0  0  0  0  0  0  0
    5.6260    0.7590   19.8690 C   0  0  0  0  0  0  0  0  0  0  0  0
   10.6720   -0.2500   22.5660 C   0  0  0  0  0  0  0  0  0  0  0  0
    6.7930    0.0210   19.5790 C   0  0  0  0  0  0  0  0  0  0  0  0
   12.9770   -0.7640   22.1810 C   0  0  0  0  0  0  0  0  0  0  0  0
    8.6020    0.1230   21.2070 C   0  0  0  0  0  0  0  0  0  0  0  0
   13.9189    3.5831   22.8222 C   0  0  0  0  0  0  0  0  0  0  0  0
   11.9237    4.0282   23.1846 C   0  0  0  0  0  0  0  0  0  0  0  0
   12.8015    2.8125   23.5638 C   0  0  0  0  0  0  0  0  0  0  0  0
    5.0980    0.9060   21.2740 C   0  0  0  0  0  0  0  0  0  0  0  0
    9.2100   -0.5900   22.3990 C   0  0  0  0  0  0  0  0  0  0  0  0
    6.6320    0.5940   17.2520 N   0  0  0  0  0  0  0  0  0  0  0  0
    7.5630   -0.5230   20.6330 N   0  0  0  0  0  0  0  0  0  0  0  0
   13.1559    4.8196   23.0492 N   0  3  0  0  0  0  0  0  0  0  0  0
    9.0150    1.2120   20.8220 O   0  0  0  0  0  0  0  0  0  0  0  0
   14.1940   -1.9100   21.6990 Cl  0  0  0  0  0  0  0  0  0  0  0  0
    4.0894    1.9955   18.9731 H   0  0  0  0  0  0  0  0  0  0  0  0
   10.2933    1.6925   23.4141 H   0  0  0  0  0  0  0  0  0  0  0  0
   14.4055    0.7762   22.6388 H   0  0  0  0  0  0  0  0  0  0  0  0
   11.3632   -2.1298   21.7913 H   0  0  0  0  0  0  0  0  0  0  0  0
    5.0712    1.8129   16.6995 H   0  0  0  0  0  0  0  0  0  0  0  0
    8.1159   -0.6122   17.9919 H   0  0  0  0  0  0  0  0  0  0  0  0
   14.8967    3.5774   23.3112 H   0  0  0  0  0  0  0  0  0  0  0  0
   14.0352    3.3572   21.7561 H   0  0  0  0  0  0  0  0  0  0  0  0
   11.3740    3.9512   22.2396 H   0  0  0  0  0  0  0  0  0  0  0  0
   11.2568    4.3894   23.9720 H   0  0  0  0  0  0  0  0  0  0  0  0
   12.9896    2.7715   24.6486 H   0  0  0  0  0  0  0  0  0  0  0  0
    4.0900    1.3363   21.2578 H   0  0  0  0  0  0  0  0  0  0  0  0
    5.0561   -0.0637   21.7851 H   0  0  0  0  0  0  0  0  0  0  0  0
    5.7462    1.5559   21.8749 H   0  0  0  0  0  0  0  0  0  0  0  0
    9.0901   -1.6664   22.2639 H   0  0  0  0  0  0  0  0  0  0  0  0
    8.6578   -0.3097   23.2977 H   0  0  0  0  0  0  0  0  0  0  0  0
    7.3129   -1.4300   20.9567 H   0  0  0  0  0  0  0  0  0  0  0  0
   13.4230    5.3152   23.9097 H   0  0  0  0  0  0  0  0  0  0  0  0
   13.1579    5.4745   22.2581 H   0  0  0  0  0  0  0  0  0  0  0  0
  1  5  2  0  0  0  0
  1  8  1  0  0  0  0
  2  7  1  0  0  0  0
  2  9  2  0  0  0  0
  3  7  2  0  0  0  0
  3 11  1  0  0  0  0
  4  9  1  0  0  0  0
  4 11  2  0  0  0  0
  5 18  1  0  0  0  0
  6 10  1  0  0  0  0
  6 18  2  0  0  0  0
  7 15  1  0  0  0  0
  8 10  2  0  0  0  0
  8 16  1  0  0  0  0
  9 17  1  0  0  0  0
 10 19  1  0  0  0  0
 11 22  1  0  0  0  0
 12 17  1  0  0  0  0
 12 19  1  0  0  0  0
 12 21  2  0  0  0  0
 13 15  1  0  0  0  0
 13 20  1  0  0  0  0
 14 15  1  0  0  0  0
 14 20  1  0  0  0  0
  1 23  1  0  0  0  0
  2 24  1  0  0  0  0
  3 25  1  0  0  0  0
  4 26  1  0  0  0  0
  5 27  1  0  0  0  0
  6 28  1  0  0  0  0
 13 29  1  0  0  0  0
 13 30  1  0  0  0  0
 14 31  1  0  0  0  0
 14 32  1  0  0  0  0
 15 33  1  0  0  0  0
 16 34  1  0  0  0  0
 16 35  1  0  0  0  0
 16 36  1  0  0  0  0
 17 37  1  0  0  0  0
 17 38  1  0  0  0  0
 19 39  1  0  0  0  0
 20 40  1  0  0  0  0
 20 41  1  0  0  0  0
M  CHG  1  20   1
M  END
> <BB_SMILES>
CC1(C)OB(C2CNC2)OC1(C)C

> <scaffold_SMILES>
Cc1ccncc1NC(=O)Cc1cc(Cl)cc(Br)c1

$$$$
EN300-6487473
  -OEChem-07272002243D

 47 49  0     1  0  0  0  0  0999 V2000
    5.0000    1.4070   18.8080 C   0  0  0  0  0  0  0  0  0  0  0  0
   11.0490    1.0010   23.0460 C   0  0  0  0  0  0  0  0  0  0  0  0
   13.3680    0.4840   22.6240 C   0  0  0  0  0  0  0  0  0  0  0  0
   11.6520   -1.1420   22.1450 C   0  0  0  0  0  0  0  0  0  0  0  0
    5.5330    1.3060   17.5390 C   0  0  0  0  0  0  0  0  0  0  0  0
    7.2400   -0.0390   18.2610 C   0  0  0  0  0  0  0  0  0  0  0  0
   12.3850    1.3610   23.0530 C   0  0  0  0  0  0  0  0  0  0  0  0
    5.6260    0.7590   19.8690 C   0  0  0  0  0  0  0  0  0  0  0  0
   10.6720   -0.2500   22.5660 C   0  0  0  0  0  0  0  0  0  0  0  0
    6.7930    0.0210   19.5790 C   0  0  0  0  0  0  0  0  0  0  0  0
   12.9770   -0.7640   22.1810 C   0  0  0  0  0  0  0  0  0  0  0  0
    8.6020    0.1230   21.2070 C   0  0  0  0  0  0  0  0  0  0  0  0
   12.8018    4.3688   25.4921 C   0  0  0  0  0  0  0  0  0  0  0  0
   12.4143    2.9672   25.0210 C   0  0  0  0  0  0  0  0  0  0  0  0
   12.2095    5.4455   24.5969 C   0  0  0  0  0  0  0  0  0  0  0  0
   12.1837    3.8550   22.6613 C   0  0  0  0  0  0  0  0  0  0  0  0
   12.7842    2.7542   23.5421 C   0  0  2  0  0  0  0  0  0  0  0  0
    5.0980    0.9060   21.2740 C   0  0  0  0  0  0  0  0  0  0  0  0
    9.2100   -0.5900   22.3990 C   0  0  0  0  0  0  0  0  0  0  0  0
    6.6320    0.5940   17.2520 N   0  0  0  0  0  0  0  0  0  0  0  0
    7.5630   -0.5230   20.6330 N   0  0  0  0  0  0  0  0  0  0  0  0
   12.6147    5.1886   23.1829 N   0  3  0  0  0  0  0  0  0  0  0  0
    9.0150    1.2120   20.8220 O   0  0  0  0  0  0  0  0  0  0  0  0
   14.1940   -1.9100   21.6990 Cl  0  0  0  0  0  0  0  0  0  0  0  0
    4.0894    1.9955   18.9731 H   0  0  0  0  0  0  0  0  0  0  0  0
   10.2922    1.6915   23.4141 H   0  0  0  0  0  0  0  0  0  0  0  0
   14.4065    0.7745   22.6386 H   0  0  0  0  0  0  0  0  0  0  0  0
   11.3638   -2.1301   21.7911 H   0  0  0  0  0  0  0  0  0  0  0  0
    5.0712    1.8129   16.6995 H   0  0  0  0  0  0  0  0  0  0  0  0
    8.1159   -0.6122   17.9919 H   0  0  0  0  0  0  0  0  0  0  0  0
   12.4577    4.5173   26.5218 H   0  0  0  0  0  0  0  0  0  0  0  0
   13.8950    4.4610   25.5065 H   0  0  0  0  0  0  0  0  0  0  0  0
   12.9138    2.2178   25.6475 H   0  0  0  0  0  0  0  0  0  0  0  0
   11.3347    2.8246   25.1644 H   0  0  0  0  0  0  0  0  0  0  0  0
   11.1149    5.4526   24.6273 H   0  0  0  0  0  0  0  0  0  0  0  0
   12.5856    6.4383   24.8618 H   0  0  0  0  0  0  0  0  0  0  0  0
   12.5380    3.7895   21.6271 H   0  0  0  0  0  0  0  0  0  0  0  0
   11.0875    3.8460   22.6603 H   0  0  0  0  0  0  0  0  0  0  0  0
   13.8983    2.8054   23.4536 H   0  0  0  0  0  0  0  0  0  0  0  0
    4.1677    1.4857   21.2714 H   0  0  0  0  0  0  0  0  0  0  0  0
    4.8987   -0.0730   21.7269 H   0  0  0  0  0  0  0  0  0  0  0  0
    5.8251    1.4144   21.9194 H   0  0  0  0  0  0  0  0  0  0  0  0
    9.0902   -1.6664   22.2639 H   0  0  0  0  0  0  0  0  0  0  0  0
    8.6579   -0.3097   23.2977 H   0  0  0  0  0  0  0  0  0  0  0  0
    7.3129   -1.4300   20.9567 H   0  0  0  0  0  0  0  0  0  0  0  0
   12.2228    5.9265   22.5820 H   0  0  0  0  0  0  0  0  0  0  0  0
   13.6371    5.2763   23.0970 H   0  0  0  0  0  0  0  0  0  0  0  0
  1  5  2  0  0  0  0
  1  8  1  0  0  0  0
  2  7  1  0  0  0  0
  2  9  2  0  0  0  0
  3  7  2  0  0  0  0
  3 11  1  0  0  0  0
  4  9  1  0  0  0  0
  4 11  2  0  0  0  0
  5 20  1  0  0  0  0
  6 10  1  0  0  0  0
  6 20  2  0  0  0  0
  7 17  1  1  0  0  0
  8 10  2  0  0  0  0
  8 18  1  0  0  0  0
  9 19  1  0  0  0  0
 10 21  1  0  0  0  0
 11 24  1  0  0  0  0
 12 19  1  0  0  0  0
 12 21  1  0  0  0  0
 12 23  2  0  0  0  0
 13 14  1  0  0  0  0
 13 15  1  0  0  0  0
 14 17  1  0  0  0  0
 15 22  1  0  0  0  0
 16 17  1  0  0  0  0
 16 22  1  0  0  0  0
  1 25  1  0  0  0  0
  2 26  1  0  0  0  0
  3 27  1  0  0  0  0
  4 28  1  0  0  0  0
  5 29  1  0  0  0  0
  6 30  1  0  0  0  0
 13 31  1  0  0  0  0
 13 32  1  0  0  0  0
 14 33  1  0  0  0  0
 14 34  1  0  0  0  0
 15 35  1  0  0  0  0
 15 36  1  0  0  0  0
 16 37  1  0  0  0  0
 16 38  1  0  0  0  0
 17 39  1  0  0  0  0
 18 40  1  0  0  0  0
 18 41  1  0  0  0  0
 18 42  1  0  0  0  0
 19 43  1  0  0  0  0
 19 44  1  0  0  0  0
 21 45  1  0  0  0  0
 22 46  1  0  0  0  0
 22 47  1  0  0  0  0
M  CHG  1  22   1
M  END
> <BB_SMILES>
CC1(C)OB(C2CCCNC2)OC1(C)C

> <scaffold_SMILES>
Cc1ccncc1NC(=O)Cc1cc(Cl)cc(Br)c1

$$$$
EN300-6487473
  -OEChem-07272002243D

 47 49  0     1  0  0  0  0  0999 V2000
    5.0000    1.4070   18.8080 C   0  0  0  0  0  0  0  0  0  0  0  0
   11.0490    1.0010   23.0460 C   0  0  0  0  0  0  0  0  0  0  0  0
   13.3680    0.4840   22.6240 C   0  0  0  0  0  0  0  0  0  0  0  0
   11.6520   -1.1420   22.1450 C   0  0  0  0  0  0  0  0  0  0  0  0
    5.5330    1.3060   17.5390 C   0  0  0  0  0  0  0  0  0  0  0  0
    7.2400   -0.0390   18.2610 C   0  0  0  0  0  0  0  0  0  0  0  0
   12.3850    1.3610   23.0530 C   0  0  0  0  0  0  0  0  0  0  0  0
    5.6260    0.7590   19.8690 C   0  0  0  0  0  0  0  0  0  0  0  0
   10.6720   -0.2500   22.5660 C   0  0  0  0  0  0  0  0  0  0  0  0
    6.7930    0.0210   19.5790 C   0  0  0  0  0  0  0  0  0  0  0  0
   12.9770   -0.7640   22.1810 C   0  0  0  0  0  0  0  0  0  0  0  0
    8.6020    0.1230   21.2070 C   0  0  0  0  0  0  0  0  0  0  0  0
   12.6072    5.2510   23.1633 C   0  0  0  0  0  0  0  0  0  0  0  0
   12.1977    3.8682   22.6571 C   0  0  0  0  0  0  0  0  0  0  0  0
   12.2513    5.4403   24.6292 C   0  0  0  0  0  0  0  0  0  0  0  0
   12.4229    2.9711   25.0148 C   0  0  0  0  0  0  0  0  0  0  0  0
   12.7831    2.7502   23.5407 C   0  0  1  0  0  0  0  0  0  0  0  0
    5.0980    0.9060   21.2740 C   0  0  0  0  0  0  0  0  0  0  0  0
    9.2100   -0.5900   22.3990 C   0  0  0  0  0  0  0  0  0  0  0  0
    6.6320    0.5940   17.2520 N   0  0  0  0  0  0  0  0  0  0  0  0
    7.5630   -0.5230   20.6330 N   0  0  0  0  0  0  0  0  0  0  0  0
   12.8629    4.3385   25.4297 N   0  3  0  0  0  0  0  0  0  0  0  0
    9.0150    1.2120   20.8220 O   0  0  0  0  0  0  0  0  0  0  0  0
   14.1940   -1.9100   21.6990 Cl  0  0  0  0  0  0  0  0  0  0  0  0
    4.0894    1.9955   18.9731 H   0  0  0  0  0  0  0  0  0  0  0  0
   10.2922    1.6915   23.4141 H   0  0  0  0  0  0  0  0  0  0  0  0
   14.4065    0.7745   22.6386 H   0  0  0  0  0  0  0  0  0  0  0  0
   11.3638   -2.1301   21.7911 H   0  0  0  0  0  0  0  0  0  0  0  0
    5.0712    1.8129   16.6995 H   0  0  0  0  0  0  0  0  0  0  0  0
    8.1159   -0.6122   17.9919 H   0  0  0  0  0  0  0  0  0  0  0  0
   13.6872    5.3861   23.0258 H   0  0  0  0  0  0  0  0  0  0  0  0
   12.1121    6.0224   22.5629 H   0  0  0  0  0  0  0  0  0  0  0  0
   11.1014    3.8013   22.6417 H   0  0  0  0  0  0  0  0  0  0  0  0
   12.5321    3.7430   21.6197 H   0  0  0  0  0  0  0  0  0  0  0  0
   12.6512    6.3804   25.0207 H   0  0  0  0  0  0  0  0  0  0  0  0
   11.1703    5.4077   24.7995 H   0  0  0  0  0  0  0  0  0  0  0  0
   11.3444    2.9076   25.2003 H   0  0  0  0  0  0  0  0  0  0  0  0
   12.9357    2.2600   25.6712 H   0  0  0  0  0  0  0  0  0  0  0  0
   13.9036    2.7988   23.4506 H   0  0  0  0  0  0  0  0  0  0  0  0
    4.1052    1.3704   21.2600 H   0  0  0  0  0  0  0  0  0  0  0  0
    5.0214   -0.0681   21.7725 H   0  0  0  0  0  0  0  0  0  0  0  0
    5.7655    1.5259   21.8853 H   0  0  0  0  0  0  0  0  0  0  0  0
    9.0902   -1.6664   22.2639 H   0  0  0  0  0  0  0  0  0  0  0  0
    8.6579   -0.3097   23.2977 H   0  0  0  0  0  0  0  0  0  0  0  0
    7.3129   -1.4300   20.9567 H   0  0  0  0  0  0  0  0  0  0  0  0
   13.8891    4.4010   25.3722 H   0  0  0  0  0  0  0  0  0  0  0  0
   12.6325    4.4778   26.4231 H   0  0  0  0  0  0  0  0  0  0  0  0
  1  5  2  0  0  0  0
  1  8  1  0  0  0  0
  2  7  1  0  0  0  0
  2  9  2  0  0  0  0
  3  7  2  0  0  0  0
  3 11  1  0  0  0  0
  4  9  1  0  0  0  0
  4 11  2  0  0  0  0
  5 20  1  0  0  0  0
  6 10  1  0  0  0  0
  6 20  2  0  0  0  0
  7 17  1  6  0  0  0
  8 10  2  0  0  0  0
  8 18  1  0  0  0  0
  9 19  1  0  0  0  0
 10 21  1  0  0  0  0
 11 24  1  0  0  0  0
 12 19  1  0  0  0  0
 12 21  1  0  0  0  0
 12 23  2  0  0  0  0
 13 14  1  0  0  0  0
 13 15  1  0  0  0  0
 14 17  1  0  0  0  0
 15 22  1  0  0  0  0
 16 17  1  0  0  0  0
 16 22  1  0  0  0  0
  1 25  1  0  0  0  0
  2 26  1  0  0  0  0
  3 27  1  0  0  0  0
  4 28  1  0  0  0  0
  5 29  1  0  0  0  0
  6 30  1  0  0  0  0
 13 31  1  0  0  0  0
 13 32  1  0  0  0  0
 14 33  1  0  0  0  0
 14 34  1  0  0  0  0
 15 35  1  0  0  0  0
 15 36  1  0  0  0  0
 16 37  1  0  0  0  0
 16 38  1  0  0  0  0
 17 39  1  0  0  0  0
 18 40  1  0  0  0  0
 18 41  1  0  0  0  0
 18 42  1  0  0  0  0
 19 43  1  0  0  0  0
 19 44  1  0  0  0  0
 21 45  1  0  0  0  0
 22 46  1  0  0  0  0
 22 47  1  0  0  0  0
M  CHG  1  22   1
M  END
> <BB_SMILES>
CC1(C)OB(C2CCCNC2)OC1(C)C

> <scaffold_SMILES>
Cc1ccncc1NC(=O)Cc1cc(Cl)cc(Br)c1

$$$$
EN300-6489774
  -OEChem-07272002243D

 48 51  0     0  0  0  0  0  0999 V2000
    5.0000    1.4070   18.8080 C   0  0  0  0  0  0  0  0  0  0  0  0
   11.0490    1.0010   23.0460 C   0  0  0  0  0  0  0  0  0  0  0  0
   11.6520   -1.1420   22.1450 C   0  0  0  0  0  0  0  0  0  0  0  0
   13.3680    0.4840   22.6240 C   0  0  0  0  0  0  0  0  0  0  0  0
    5.5330    1.3060   17.5390 C   0  0  0  0  0  0  0  0  0  0  0  0
    7.2400   -0.0390   18.2610 C   0  0  0  0  0  0  0  0  0  0  0  0
    5.6260    0.7590   19.8690 C   0  0  0  0  0  0  0  0  0  0  0  0
   10.6720   -0.2500   22.5660 C   0  0  0  0  0  0  0  0  0  0  0  0
   12.3850    1.3610   23.0530 C   0  0  0  0  0  0  0  0  0  0  0  0
    6.7930    0.0210   19.5790 C   0  0  0  0  0  0  0  0  0  0  0  0
   12.9770   -0.7640   22.1810 C   0  0  0  0  0  0  0  0  0  0  0  0
    8.6020    0.1230   21.2070 C   0  0  0  0  0  0  0  0  0  0  0  0
   12.2292    6.3314   20.5266 C   0  0  0  0  0  0  0  0  0  0  0  0
   11.2291    6.7883   21.5561 C   0  0  0  0  0  0  0  0  0  0  0  0
   12.9769    5.2411   22.8291 C   0  0  0  0  0  0  0  0  0  0  0  0
   11.4341    4.1496   21.8134 C   0  0  0  0  0  0  0  0  0  0  0  0
   12.8039    3.7602   22.4173 C   0  0  0  0  0  0  0  0  0  0  0  0
   11.9896    5.5225   21.7603 C   0  0  0  0  0  0  0  0  0  0  0  0
    5.0980    0.9060   21.2740 C   0  0  0  0  0  0  0  0  0  0  0  0
    9.2100   -0.5900   22.3990 C   0  0  0  0  0  0  0  0  0  0  0  0
   12.7816    2.7446   23.5425 C   0  0  0  0  0  0  0  0  0  0  0  0
    6.6320    0.5940   17.2520 N   0  0  0  0  0  0  0  0  0  0  0  0
    7.5630   -0.5230   20.6330 N   0  0  0  0  0  0  0  0  0  0  0  0
    9.0150    1.2120   20.8220 O   0  0  0  0  0  0  0  0  0  0  0  0
   14.1940   -1.9100   21.6990 Cl  0  0  0  0  0  0  0  0  0  0  0  0
    4.0894    1.9955   18.9731 H   0  0  0  0  0  0  0  0  0  0  0  0
   10.2920    1.6914   23.4138 H   0  0  0  0  0  0  0  0  0  0  0  0
   11.3638   -2.1302   21.7909 H   0  0  0  0  0  0  0  0  0  0  0  0
   14.4063    0.7746   22.6384 H   0  0  0  0  0  0  0  0  0  0  0  0
    5.0712    1.8129   16.6995 H   0  0  0  0  0  0  0  0  0  0  0  0
    8.1159   -0.6122   17.9919 H   0  0  0  0  0  0  0  0  0  0  0  0
   11.8454    5.9583   19.5853 H   0  0  0  0  0  0  0  0  0  0  0  0
   13.1561    6.8857   20.4479 H   0  0  0  0  0  0  0  0  0  0  0  0
   11.4904    7.6465   22.1627 H   0  0  0  0  0  0  0  0  0  0  0  0
   10.1788    6.7191   21.3013 H   0  0  0  0  0  0  0  0  0  0  0  0
   12.6235    5.4890   23.8364 H   0  0  0  0  0  0  0  0  0  0  0  0
   13.9862    5.6399   22.6970 H   0  0  0  0  0  0  0  0  0  0  0  0
   11.1980    3.6665   20.8615 H   0  0  0  0  0  0  0  0  0  0  0  0
   10.5788    4.0432   22.4903 H   0  0  0  0  0  0  0  0  0  0  0  0
   13.5265    3.4581   21.6442 H   0  0  0  0  0  0  0  0  0  0  0  0
    4.1379    0.3869   21.3752 H   0  0  0  0  0  0  0  0  0  0  0  0
    5.7999    0.4892   22.0068 H   0  0  0  0  0  0  0  0  0  0  0  0
    4.9539    1.9619   21.5347 H   0  0  0  0  0  0  0  0  0  0  0  0
    9.0902   -1.6664   22.2639 H   0  0  0  0  0  0  0  0  0  0  0  0
    8.6579   -0.3097   23.2977 H   0  0  0  0  0  0  0  0  0  0  0  0
   12.0843    3.0688   24.3269 H   0  0  0  0  0  0  0  0  0  0  0  0
   13.7685    2.6942   24.0223 H   0  0  0  0  0  0  0  0  0  0  0  0
    7.3129   -1.4300   20.9567 H   0  0  0  0  0  0  0  0  0  0  0  0
  1  5  2  0  0  0  0
  1  7  1  0  0  0  0
  2  8  2  0  0  0  0
  2  9  1  0  0  0  0
  3  8  1  0  0  0  0
  3 11  2  0  0  0  0
  4  9  2  0  0  0  0
  4 11  1  0  0  0  0
  5 22  1  0  0  0  0
  6 10  1  0  0  0  0
  6 22  2  0  0  0  0
  7 10  2  0  0  0  0
  7 19  1  0  0  0  0
  8 20  1  0  0  0  0
  9 21  1  0  0  0  0
 10 23  1  0  0  0  0
 11 25  1  0  0  0  0
 12 20  1  0  0  0  0
 12 23  1  0  0  0  0
 12 24  2  0  0  0  0
 13 14  1  0  0  0  0
 13 18  1  0  0  0  0
 14 18  1  0  0  0  0
 15 17  1  0  0  0  0
 15 18  1  0  0  0  0
 16 17  1  0  0  0  0
 16 18  1  0  0  0  0
 17 21  1  0  0  0  0
  1 26  1  0  0  0  0
  2 27  1  0  0  0  0
  3 28  1  0  0  0  0
  4 29  1  0  0  0  0
  5 30  1  0  0  0  0
  6 31  1  0  0  0  0
 13 32  1  0  0  0  0
 13 33  1  0  0  0  0
 14 34  1  0  0  0  0
 14 35  1  0  0  0  0
 15 36  1  0  0  0  0
 15 37  1  0  0  0  0
 16 38  1  0  0  0  0
 16 39  1  0  0  0  0
 17 40  1  0  0  0  0
 19 41  1  0  0  0  0
 19 42  1  0  0  0  0
 19 43  1  0  0  0  0
 20 44  1  0  0  0  0
 20 45  1  0  0  0  0
 21 46  1  0  0  0  0
 21 47  1  0  0  0  0
 23 48  1  0  0  0  0
M  END
> <BB_SMILES>
CC1(C)OB(CC2CC3(CC3)C2)OC1(C)C

> <scaffold_SMILES>
Cc1ccncc1NC(=O)Cc1cc(Cl)cc(Br)c1

$$$$
EN300-1722935
  -OEChem-07272002243D

 50 52  0     1  0  0  0  0  0999 V2000
    5.0000    1.4070   18.8080 C   0  0  0  0  0  0  0  0  0  0  0  0
   11.0490    1.0010   23.0460 C   0  0  0  0  0  0  0  0  0  0  0  0
   13.3680    0.4840   22.6240 C   0  0  0  0  0  0  0  0  0  0  0  0
   11.6520   -1.1420   22.1450 C   0  0  0  0  0  0  0  0  0  0  0  0
    5.5330    1.3060   17.5390 C   0  0  0  0  0  0  0  0  0  0  0  0
    7.2400   -0.0390   18.2610 C   0  0  0  0  0  0  0  0  0  0  0  0
   12.3850    1.3610   23.0530 C   0  0  0  0  0  0  0  0  0  0  0  0
    5.6260    0.7590   19.8690 C   0  0  0  0  0  0  0  0  0  0  0  0
   10.6720   -0.2500   22.5660 C   0  0  0  0  0  0  0  0  0  0  0  0
    6.7930    0.0210   19.5790 C   0  0  0  0  0  0  0  0  0  0  0  0
   12.9770   -0.7640   22.1810 C   0  0  0  0  0  0  0  0  0  0  0  0
    8.6020    0.1230   21.2070 C   0  0  0  0  0  0  0  0  0  0  0  0
   11.2146    3.7197   25.4075 C   0  0  0  0  0  0  0  0  0  0  0  0
   12.4817    2.9455   25.0448 C   0  0  0  0  0  0  0  0  0  0  0  0
   12.2480    3.8404   22.5901 C   0  0  0  0  0  0  0  0  0  0  0  0
   11.3916    5.2298   25.3410 C   0  0  0  0  0  0  0  0  0  0  0  0
   12.5009    5.2680   23.0500 C   0  0  0  0  0  0  0  0  0  0  0  0
   12.7862    2.7611   23.5445 C   0  0  2  0  0  0  0  0  0  0  0  0
    5.0980    0.9060   21.2740 C   0  0  0  0  0  0  0  0  0  0  0  0
    9.2100   -0.5900   22.3990 C   0  0  0  0  0  0  0  0  0  0  0  0
    6.6320    0.5940   17.2520 N   0  0  0  0  0  0  0  0  0  0  0  0
    7.5630   -0.5230   20.6330 N   0  0  0  0  0  0  0  0  0  0  0  0
   11.3951    5.7278   23.9398 N   0  3  0  0  0  0  0  0  0  0  0  0
    9.0150    1.2120   20.8220 O   0  0  0  0  0  0  0  0  0  0  0  0
   14.1940   -1.9100   21.6990 Cl  0  0  0  0  0  0  0  0  0  0  0  0
    4.0894    1.9955   18.9731 H   0  0  0  0  0  0  0  0  0  0  0  0
   10.2922    1.6915   23.4141 H   0  0  0  0  0  0  0  0  0  0  0  0
   14.4065    0.7745   22.6386 H   0  0  0  0  0  0  0  0  0  0  0  0
   11.3638   -2.1301   21.7911 H   0  0  0  0  0  0  0  0  0  0  0  0
    5.0712    1.8129   16.6995 H   0  0  0  0  0  0  0  0  0  0  0  0
    8.1159   -0.6122   17.9919 H   0  0  0  0  0  0  0  0  0  0  0  0
   10.4279    3.4196   24.7349 H   0  0  0  0  0  0  0  0  0  0  0  0
   10.9187    3.4625   26.4117 H   0  0  0  0  0  0  0  0  0  0  0  0
   13.3251    3.4639   25.5403 H   0  0  0  0  0  0  0  0  0  0  0  0
   12.4501    1.9545   25.5372 H   0  0  0  0  0  0  0  0  0  0  0  0
   11.1760    3.6975   22.4250 H   0  0  0  0  0  0  0  0  0  0  0  0
   12.7226    3.7284   21.6103 H   0  0  0  0  0  0  0  0  0  0  0  0
   10.5578    5.7240   25.8499 H   0  0  0  0  0  0  0  0  0  0  0  0
   12.3184    5.5546   25.8244 H   0  0  0  0  0  0  0  0  0  0  0  0
   13.4370    5.3686   23.5910 H   0  0  0  0  0  0  0  0  0  0  0  0
   12.5045    5.9395   22.1954 H   0  0  0  0  0  0  0  0  0  0  0  0
   13.9472    2.7469   23.4267 H   0  0  0  0  0  0  0  0  0  0  0  0
    5.9251    0.8988   21.9932 H   0  0  0  0  0  0  0  0  0  0  0  0
    4.5404    1.8433   21.3918 H   0  0  0  0  0  0  0  0  0  0  0  0
    4.4086    0.0905   21.5256 H   0  0  0  0  0  0  0  0  0  0  0  0
    9.0902   -1.6664   22.2639 H   0  0  0  0  0  0  0  0  0  0  0  0
    8.6579   -0.3097   23.2977 H   0  0  0  0  0  0  0  0  0  0  0  0
    7.3129   -1.4300   20.9567 H   0  0  0  0  0  0  0  0  0  0  0  0
   10.4738    5.5566   23.4879 H   0  0  0  0  0  0  0  0  0  0  0  0
   11.4543    6.7637   23.9814 H   0  0  0  0  0  0  0  0  0  0  0  0
  1  5  2  0  0  0  0
  1  8  1  0  0  0  0
  2  7  1  0  0  0  0
  2  9  2  0  0  0  0
  3  7  2  0  0  0  0
  3 11  1  0  0  0  0
  4  9  1  0  0  0  0
  4 11  2  0  0  0  0
  5 21  1  0  0  0  0
  6 10  1  0  0  0  0
  6 21  2  0  0  0  0
  7 18  1  1  0  0  0
  8 10  2  0  0  0  0
  8 19  1  0  0  0  0
  9 20  1  0  0  0  0
 10 22  1  0  0  0  0
 11 25  1  0  0  0  0
 12 20  1  0  0  0  0
 12 22  1  0  0  0  0
 12 24  2  0  0  0  0
 13 14  1  0  0  0  0
 13 16  1  0  0  0  0
 14 18  1  0  0  0  0
 15 17  1  0  0  0  0
 15 18  1  0  0  0  0
 16 23  1  0  0  0  0
 17 23  1  0  0  0  0
  1 26  1  0  0  0  0
  2 27  1  0  0  0  0
  3 28  1  0  0  0  0
  4 29  1  0  0  0  0
  5 30  1  0  0  0  0
  6 31  1  0  0  0  0
 13 32  1  0  0  0  0
 13 33  1  0  0  0  0
 14 34  1  0  0  0  0
 14 35  1  0  0  0  0
 15 36  1  0  0  0  0
 15 37  1  0  0  0  0
 16 38  1  0  0  0  0
 16 39  1  0  0  0  0
 17 40  1  0  0  0  0
 17 41  1  0  0  0  0
 18 42  1  0  0  0  0
 19 43  1  0  0  0  0
 19 44  1  0  0  0  0
 19 45  1  0  0  0  0
 20 46  1  0  0  0  0
 20 47  1  0  0  0  0
 22 48  1  0  0  0  0
 23 49  1  0  0  0  0
 23 50  1  0  0  0  0
M  CHG  1  23   1
M  END
> <BB_SMILES>
CC1(C)OB(C2CCCNCC2)OC1(C)C

> <scaffold_SMILES>
Cc1ccncc1NC(=O)Cc1cc(Cl)cc(Br)c1

$$$$
EN300-1722935
  -OEChem-07272002243D

 50 52  0     1  0  0  0  0  0999 V2000
    5.0000    1.4070   18.8080 C   0  0  0  0  0  0  0  0  0  0  0  0
   11.0490    1.0010   23.0460 C   0  0  0  0  0  0  0  0  0  0  0  0
   13.3680    0.4840   22.6240 C   0  0  0  0  0  0  0  0  0  0  0  0
   11.6520   -1.1420   22.1450 C   0  0  0  0  0  0  0  0  0  0  0  0
    5.5330    1.3060   17.5390 C   0  0  0  0  0  0  0  0  0  0  0  0
    7.2400   -0.0390   18.2610 C   0  0  0  0  0  0  0  0  0  0  0  0
   12.3850    1.3610   23.0530 C   0  0  0  0  0  0  0  0  0  0  0  0
    5.6260    0.7590   19.8690 C   0  0  0  0  0  0  0  0  0  0  0  0
   10.6720   -0.2500   22.5660 C   0  0  0  0  0  0  0  0  0  0  0  0
    6.7930    0.0210   19.5790 C   0  0  0  0  0  0  0  0  0  0  0  0
   12.9770   -0.7640   22.1810 C   0  0  0  0  0  0  0  0  0  0  0  0
    8.6020    0.1230   21.2070 C   0  0  0  0  0  0  0  0  0  0  0  0
   12.9071    5.1702   22.5928 C   0  0  0  0  0  0  0  0  0  0  0  0
   12.1477    3.8438   22.6546 C   0  0  0  0  0  0  0  0  0  0  0  0
   12.3832    2.9228   25.0253 C   0  0  0  0  0  0  0  0  0  0  0  0
   13.5866    5.6552   23.8622 C   0  0  0  0  0  0  0  0  0  0  0  0
   13.0212    4.0959   25.7543 C   0  0  0  0  0  0  0  0  0  0  0  0
   12.7862    2.7613   23.5446 C   0  0  1  0  0  0  0  0  0  0  0  0
    5.0980    0.9060   21.2740 C   0  0  0  0  0  0  0  0  0  0  0  0
    9.2100   -0.5900   22.3990 C   0  0  0  0  0  0  0  0  0  0  0  0
    6.6320    0.5940   17.2520 N   0  0  0  0  0  0  0  0  0  0  0  0
    7.5630   -0.5230   20.6330 N   0  0  0  0  0  0  0  0  0  0  0  0
   12.7599    5.3955   25.0726 N   0  3  0  0  0  0  0  0  0  0  0  0
    9.0150    1.2120   20.8220 O   0  0  0  0  0  0  0  0  0  0  0  0
   14.1940   -1.9100   21.6990 Cl  0  0  0  0  0  0  0  0  0  0  0  0
    4.0894    1.9955   18.9731 H   0  0  0  0  0  0  0  0  0  0  0  0
   10.2922    1.6915   23.4141 H   0  0  0  0  0  0  0  0  0  0  0  0
   14.4065    0.7745   22.6386 H   0  0  0  0  0  0  0  0  0  0  0  0
   11.3638   -2.1301   21.7911 H   0  0  0  0  0  0  0  0  0  0  0  0
    5.0712    1.8129   16.6995 H   0  0  0  0  0  0  0  0  0  0  0  0
    8.1159   -0.6122   17.9919 H   0  0  0  0  0  0  0  0  0  0  0  0
   13.6758    5.0966   21.8126 H   0  0  0  0  0  0  0  0  0  0  0  0
   12.2079    5.9414   22.2442 H   0  0  0  0  0  0  0  0  0  0  0  0
   11.1174    4.0340   22.9851 H   0  0  0  0  0  0  0  0  0  0  0  0
   12.0545    3.4801   21.6217 H   0  0  0  0  0  0  0  0  0  0  0  0
   12.6588    2.0124   25.5756 H   0  0  0  0  0  0  0  0  0  0  0  0
   11.2901    2.9953   25.1097 H   0  0  0  0  0  0  0  0  0  0  0  0
   14.5658    5.1868   24.0084 H   0  0  0  0  0  0  0  0  0  0  0  0
   13.7395    6.7387   23.8123 H   0  0  0  0  0  0  0  0  0  0  0  0
   12.5939    4.1867   26.7586 H   0  0  0  0  0  0  0  0  0  0  0  0
   14.1052    3.9782   25.8552 H   0  0  0  0  0  0  0  0  0  0  0  0
   13.8967    2.8057   23.4539 H   0  0  0  0  0  0  0  0  0  0  0  0
    4.0798    1.3115   21.2566 H   0  0  0  0  0  0  0  0  0  0  0  0
    5.0809   -0.0597   21.7940 H   0  0  0  0  0  0  0  0  0  0  0  0
    5.7316    1.5770   21.8672 H   0  0  0  0  0  0  0  0  0  0  0  0
    9.0902   -1.6664   22.2639 H   0  0  0  0  0  0  0  0  0  0  0  0
    8.6579   -0.3097   23.2977 H   0  0  0  0  0  0  0  0  0  0  0  0
    7.3129   -1.4300   20.9567 H   0  0  0  0  0  0  0  0  0  0  0  0
   12.9674    6.1402   25.7526 H   0  0  0  0  0  0  0  0  0  0  0  0
   11.7573    5.5021   24.8635 H   0  0  0  0  0  0  0  0  0  0  0  0
  1  5  2  0  0  0  0
  1  8  1  0  0  0  0
  2  7  1  0  0  0  0
  2  9  2  0  0  0  0
  3  7  2  0  0  0  0
  3 11  1  0  0  0  0
  4  9  1  0  0  0  0
  4 11  2  0  0  0  0
  5 21  1  0  0  0  0
  6 10  1  0  0  0  0
  6 21  2  0  0  0  0
  7 18  1  6  0  0  0
  8 10  2  0  0  0  0
  8 19  1  0  0  0  0
  9 20  1  0  0  0  0
 10 22  1  0  0  0  0
 11 25  1  0  0  0  0
 12 20  1  0  0  0  0
 12 22  1  0  0  0  0
 12 24  2  0  0  0  0
 13 14  1  0  0  0  0
 13 16  1  0  0  0  0
 14 18  1  0  0  0  0
 15 17  1  0  0  0  0
 15 18  1  0  0  0  0
 16 23  1  0  0  0  0
 17 23  1  0  0  0  0
  1 26  1  0  0  0  0
  2 27  1  0  0  0  0
  3 28  1  0  0  0  0
  4 29  1  0  0  0  0
  5 30  1  0  0  0  0
  6 31  1  0  0  0  0
 13 32  1  0  0  0  0
 13 33  1  0  0  0  0
 14 34  1  0  0  0  0
 14 35  1  0  0  0  0
 15 36  1  0  0  0  0
 15 37  1  0  0  0  0
 16 38  1  0  0  0  0
 16 39  1  0  0  0  0
 17 40  1  0  0  0  0
 17 41  1  0  0  0  0
 18 42  1  0  0  0  0
 19 43  1  0  0  0  0
 19 44  1  0  0  0  0
 19 45  1  0  0  0  0
 20 46  1  0  0  0  0
 20 47  1  0  0  0  0
 22 48  1  0  0  0  0
 23 49  1  0  0  0  0
 23 50  1  0  0  0  0
M  CHG  1  23   1
M  END
> <BB_SMILES>
CC1(C)OB(C2CCCNCC2)OC1(C)C

> <scaffold_SMILES>
Cc1ccncc1NC(=O)Cc1cc(Cl)cc(Br)c1

$$$$
EN300-6491326
  -OEChem-07272002243D

 41 43  0     1  0  0  0  0  0999 V2000
    5.0000    1.4070   18.8080 C   0  0  0  0  0  0  0  0  0  0  0  0
   11.0490    1.0010   23.0460 C   0  0  0  0  0  0  0  0  0  0  0  0
   13.3680    0.4840   22.6240 C   0  0  0  0  0  0  0  0  0  0  0  0
   11.6520   -1.1420   22.1450 C   0  0  0  0  0  0  0  0  0  0  0  0
    5.5330    1.3060   17.5390 C   0  0  0  0  0  0  0  0  0  0  0  0
    7.2400   -0.0390   18.2610 C   0  0  0  0  0  0  0  0  0  0  0  0
   12.3850    1.3610   23.0530 C   0  0  0  0  0  0  0  0  0  0  0  0
    5.6260    0.7590   19.8690 C   0  0  0  0  0  0  0  0  0  0  0  0
   10.6720   -0.2500   22.5660 C   0  0  0  0  0  0  0  0  0  0  0  0
    6.7930    0.0210   19.5790 C   0  0  0  0  0  0  0  0  0  0  0  0
   12.9770   -0.7640   22.1810 C   0  0  0  0  0  0  0  0  0  0  0  0
    8.6020    0.1230   21.2070 C   0  0  0  0  0  0  0  0  0  0  0  0
   12.1346    3.9401   22.9084 C   0  0  0  0  0  0  0  0  0  0  0  0
   12.7782    2.7283   23.5363 C   0  0  2  0  0  0  0  0  0  0  0  0
   13.5706    3.6273   22.6183 C   0  0  1  0  0  0  0  0  0  0  0  0
    5.0980    0.9060   21.2740 C   0  0  0  0  0  0  0  0  0  0  0  0
    9.2100   -0.5900   22.3990 C   0  0  0  0  0  0  0  0  0  0  0  0
    6.6320    0.5940   17.2520 N   0  0  0  0  0  0  0  0  0  0  0  0
    7.5630   -0.5230   20.6330 N   0  0  0  0  0  0  0  0  0  0  0  0
   14.5930    4.4837   23.2328 N   0  3  0  0  0  0  0  0  0  0  0  0
    9.0150    1.2120   20.8220 O   0  0  0  0  0  0  0  0  0  0  0  0
   14.1940   -1.9100   21.6990 Cl  0  0  0  0  0  0  0  0  0  0  0  0
    4.0894    1.9955   18.9731 H   0  0  0  0  0  0  0  0  0  0  0  0
   10.2920    1.6908   23.4149 H   0  0  0  0  0  0  0  0  0  0  0  0
   14.4066    0.7739   22.6379 H   0  0  0  0  0  0  0  0  0  0  0  0
   11.3632   -2.1298   21.7911 H   0  0  0  0  0  0  0  0  0  0  0  0
    5.0712    1.8129   16.6995 H   0  0  0  0  0  0  0  0  0  0  0  0
    8.1159   -0.6122   17.9919 H   0  0  0  0  0  0  0  0  0  0  0  0
   11.4183    3.7991   22.1071 H   0  0  0  0  0  0  0  0  0  0  0  0
   11.9046    4.7752   23.5599 H   0  0  0  0  0  0  0  0  0  0  0  0
   12.9868    2.7947   24.5974 H   0  0  0  0  0  0  0  0  0  0  0  0
   13.8095    3.2728   21.6220 H   0  0  0  0  0  0  0  0  0  0  0  0
    4.4452    1.7837   21.3445 H   0  0  0  0  0  0  0  0  0  0  0  0
    4.5267    0.0201   21.5774 H   0  0  0  0  0  0  0  0  0  0  0  0
    5.9169    1.0203   21.9951 H   0  0  0  0  0  0  0  0  0  0  0  0
    9.0901   -1.6664   22.2639 H   0  0  0  0  0  0  0  0  0  0  0  0
    8.6579   -0.3097   23.2977 H   0  0  0  0  0  0  0  0  0  0  0  0
    7.3129   -1.4300   20.9567 H   0  0  0  0  0  0  0  0  0  0  0  0
   15.4763    3.9744   23.3859 H   0  0  0  0  0  0  0  0  0  0  0  0
   14.2879    4.8442   24.1495 H   0  0  0  0  0  0  0  0  0  0  0  0
   14.8119    5.3006   22.6429 H   0  0  0  0  0  0  0  0  0  0  0  0
  1  5  2  0  0  0  0
  1  8  1  0  0  0  0
  2  7  1  0  0  0  0
  2  9  2  0  0  0  0
  3  7  2  0  0  0  0
  3 11  1  0  0  0  0
  4  9  1  0  0  0  0
  4 11  2  0  0  0  0
  5 18  1  0  0  0  0
  6 10  1  0  0  0  0
  6 18  2  0  0  0  0
  7 14  1  0  0  0  0
  8 10  2  0  0  0  0
  8 16  1  0  0  0  0
  9 17  1  0  0  0  0
 10 19  1  0  0  0  0
 11 22  1  0  0  0  0
 12 17  1  0  0  0  0
 12 19  1  0  0  0  0
 12 21  2  0  0  0  0
 13 14  1  0  0  0  0
 13 15  1  0  0  0  0
 14 15  1  0  0  0  0
 15 20  1  0  0  0  0
  1 23  1  0  0  0  0
  2 24  1  0  0  0  0
  3 25  1  0  0  0  0
  4 26  1  0  0  0  0
  5 27  1  0  0  0  0
  6 28  1  0  0  0  0
 13 29  1  0  0  0  0
 13 30  1  0  0  0  0
 14 31  1  0  0  0  0
 15 32  1  0  0  0  0
 16 33  1  0  0  0  0
 16 34  1  0  0  0  0
 16 35  1  0  0  0  0
 17 36  1  0  0  0  0
 17 37  1  0  0  0  0
 19 38  1  0  0  0  0
 20 39  1  0  0  0  0
 20 40  1  0  0  0  0
 20 41  1  0  0  0  0
M  CHG  1  20   1
M  END
> <BB_SMILES>
CC1(C)OB([C@@H]2C[C@H]2N)OC1(C)C

> <scaffold_SMILES>
Cc1ccncc1NC(=O)Cc1cc(Cl)cc(Br)c1

$$$$
EN300-6492049
  -OEChem-07272002243D

 35 36  0     0  0  0  0  0  0999 V2000
    5.0000    1.4070   18.8080 C   0  0  0  0  0  0  0  0  0  0  0  0
   11.0490    1.0010   23.0460 C   0  0  0  0  0  0  0  0  0  0  0  0
   13.3680    0.4840   22.6240 C   0  0  0  0  0  0  0  0  0  0  0  0
   11.6520   -1.1420   22.1450 C   0  0  0  0  0  0  0  0  0  0  0  0
    5.5330    1.3060   17.5390 C   0  0  0  0  0  0  0  0  0  0  0  0
    7.2400   -0.0390   18.2610 C   0  0  0  0  0  0  0  0  0  0  0  0
   12.3850    1.3610   23.0530 C   0  0  0  0  0  0  0  0  0  0  0  0
    5.6260    0.7590   19.8690 C   0  0  0  0  0  0  0  0  0  0  0  0
   10.6720   -0.2500   22.5660 C   0  0  0  0  0  0  0  0  0  0  0  0
    6.7930    0.0210   19.5790 C   0  0  0  0  0  0  0  0  0  0  0  0
   12.9770   -0.7640   22.1810 C   0  0  0  0  0  0  0  0  0  0  0  0
   12.7686    2.6957   23.5248 C   0  0  0  0  0  0  0  0  0  0  0  0
   12.0352    3.8198   23.4148 C   0  0  0  0  0  0  0  0  0  0  0  0
    8.6020    0.1230   21.2070 C   0  0  0  0  0  0  0  0  0  0  0  0
    5.0980    0.9060   21.2740 C   0  0  0  0  0  0  0  0  0  0  0  0
    9.2100   -0.5900   22.3990 C   0  0  0  0  0  0  0  0  0  0  0  0
    6.6320    0.5940   17.2520 N   0  0  0  0  0  0  0  0  0  0  0  0
    7.5630   -0.5230   20.6330 N   0  0  0  0  0  0  0  0  0  0  0  0
    9.0150    1.2120   20.8220 O   0  0  0  0  0  0  0  0  0  0  0  0
   12.5239    4.9869   23.8869 F   0  0  0  0  0  0  0  0  0  0  0  0
   10.8258    3.8048   22.8157 F   0  0  0  0  0  0  0  0  0  0  0  0
   14.1940   -1.9100   21.6990 Cl  0  0  0  0  0  0  0  0  0  0  0  0
    4.0894    1.9955   18.9731 H   0  0  0  0  0  0  0  0  0  0  0  0
   10.2871    1.6869   23.4136 H   0  0  0  0  0  0  0  0  0  0  0  0
   14.4083    0.7693   22.6351 H   0  0  0  0  0  0  0  0  0  0  0  0
   11.3638   -2.1297   21.7903 H   0  0  0  0  0  0  0  0  0  0  0  0
    5.0712    1.8129   16.6995 H   0  0  0  0  0  0  0  0  0  0  0  0
    8.1159   -0.6122   17.9919 H   0  0  0  0  0  0  0  0  0  0  0  0
   13.7551    2.7877   23.9891 H   0  0  0  0  0  0  0  0  0  0  0  0
    4.4450    1.7836   21.3444 H   0  0  0  0  0  0  0  0  0  0  0  0
    4.5270    0.0199   21.5775 H   0  0  0  0  0  0  0  0  0  0  0  0
    5.9169    1.0206   21.9951 H   0  0  0  0  0  0  0  0  0  0  0  0
    9.0900   -1.6664   22.2639 H   0  0  0  0  0  0  0  0  0  0  0  0
    8.6578   -0.3097   23.2977 H   0  0  0  0  0  0  0  0  0  0  0  0
    7.3129   -1.4300   20.9567 H   0  0  0  0  0  0  0  0  0  0  0  0
  1  5  2  0  0  0  0
  1  8  1  0  0  0  0
  2  7  1  0  0  0  0
  2  9  2  0  0  0  0
  3  7  2  0  0  0  0
  3 11  1  0  0  0  0
  4  9  1  0  0  0  0
  4 11  2  0  0  0  0
  5 17  1  0  0  0  0
  6 10  1  0  0  0  0
  6 17  2  0  0  0  0
  7 12  1  0  0  0  0
  8 10  2  0  0  0  0
  8 15  1  0  0  0  0
  9 16  1  0  0  0  0
 10 18  1  0  0  0  0
 11 22  1  0  0  0  0
 12 13  2  0  0  0  0
 13 20  1  0  0  0  0
 13 21  1  0  0  0  0
 14 16  1  0  0  0  0
 14 18  1  0  0  0  0
 14 19  2  0  0  0  0
  1 23  1  0  0  0  0
  2 24  1  0  0  0  0
  3 25  1  0  0  0  0
  4 26  1  0  0  0  0
  5 27  1  0  0  0  0
  6 28  1  0  0  0  0
 12 29  1  0  0  0  0
 15 30  1  0  0  0  0
 15 31  1  0  0  0  0
 15 32  1  0  0  0  0
 16 33  1  0  0  0  0
 16 34  1  0  0  0  0
 18 35  1  0  0  0  0
M  END
> <BB_SMILES>
CC1(C)OB(C=C(F)F)OC1(C)C

> <scaffold_SMILES>
Cc1ccncc1NC(=O)Cc1cc(Cl)cc(Br)c1

$$$$
EN300-6729805
  -OEChem-07272002243D

 57 60  0     1  0  0  0  0  0999 V2000
    5.0000    1.4070   18.8080 C   0  0  0  0  0  0  0  0  0  0  0  0
   11.0490    1.0010   23.0460 C   0  0  0  0  0  0  0  0  0  0  0  0
   13.3680    0.4840   22.6240 C   0  0  0  0  0  0  0  0  0  0  0  0
   11.6520   -1.1420   22.1450 C   0  0  0  0  0  0  0  0  0  0  0  0
    5.5330    1.3060   17.5390 C   0  0  0  0  0  0  0  0  0  0  0  0
    7.2400   -0.0390   18.2610 C   0  0  0  0  0  0  0  0  0  0  0  0
   12.3850    1.3610   23.0530 C   0  0  0  0  0  0  0  0  0  0  0  0
    5.6260    0.7590   19.8690 C   0  0  0  0  0  0  0  0  0  0  0  0
   10.6720   -0.2500   22.5660 C   0  0  0  0  0  0  0  0  0  0  0  0
    6.7930    0.0210   19.5790 C   0  0  0  0  0  0  0  0  0  0  0  0
   12.9770   -0.7640   22.1810 C   0  0  0  0  0  0  0  0  0  0  0  0
   10.0654    5.6196   22.0386 C   0  0  0  0  0  0  0  0  0  0  0  0
    8.6020    0.1230   21.2070 C   0  0  0  0  0  0  0  0  0  0  0  0
   12.1555    5.3019   20.7248 C   0  0  0  0  0  0  0  0  0  0  0  0
   12.4416    3.8567   21.1392 C   0  0  0  0  0  0  0  0  0  0  0  0
   14.0724    3.3965   23.1061 C   0  0  0  0  0  0  0  0  0  0  0  0
   12.2947    5.2991   23.1353 C   0  0  0  0  0  0  0  0  0  0  0  0
   12.7839    2.7484   23.5434 C   0  0  2  0  0  0  0  0  0  0  0  0
   11.5313    5.9305   21.9676 C   0  0  2  0  0  0  0  0  0  0  0  0
   12.7624    3.9564   22.6119 C   0  0  3  0  0  0  0  0  0  0  0  0
    5.0980    0.9060   21.2740 C   0  0  0  0  0  0  0  0  0  0  0  0
    7.3025    7.6209   20.7158 C   0  0  0  0  0  0  0  0  0  0  0  0
    9.2100   -0.5900   22.3990 C   0  0  0  0  0  0  0  0  0  0  0  0
    7.9376    6.4431   21.4237 C   0  0  0  0  0  0  0  0  0  0  0  0
    6.6320    0.5940   17.2520 N   0  0  0  0  0  0  0  0  0  0  0  0
    7.5630   -0.5230   20.6330 N   0  0  0  0  0  0  0  0  0  0  0  0
    9.6021    4.6188   22.5686 O   0  0  0  0  0  0  0  0  0  0  0  0
    9.0150    1.2120   20.8220 O   0  0  0  0  0  0  0  0  0  0  0  0
    9.3585    6.6135   21.4291 O   0  0  0  0  0  0  0  0  0  0  0  0
   14.1940   -1.9100   21.6990 Cl  0  0  0  0  0  0  0  0  0  0  0  0
    4.0894    1.9955   18.9731 H   0  0  0  0  0  0  0  0  0  0  0  0
   10.2920    1.6908   23.4149 H   0  0  0  0  0  0  0  0  0  0  0  0
   14.4066    0.7739   22.6379 H   0  0  0  0  0  0  0  0  0  0  0  0
   11.3632   -2.1298   21.7911 H   0  0  0  0  0  0  0  0  0  0  0  0
    5.0712    1.8129   16.6995 H   0  0  0  0  0  0  0  0  0  0  0  0
    8.1159   -0.6122   17.9919 H   0  0  0  0  0  0  0  0  0  0  0  0
   13.0988    5.8103   20.4902 H   0  0  0  0  0  0  0  0  0  0  0  0
   11.5133    5.3476   19.8396 H   0  0  0  0  0  0  0  0  0  0  0  0
   11.5467    3.2423   20.9885 H   0  0  0  0  0  0  0  0  0  0  0  0
   13.2561    3.4310   20.5446 H   0  0  0  0  0  0  0  0  0  0  0  0
   14.6269    3.9559   23.8515 H   0  0  0  0  0  0  0  0  0  0  0  0
   14.7082    2.8671   22.4052 H   0  0  0  0  0  0  0  0  0  0  0  0
   13.1615    5.9211   23.3879 H   0  0  0  0  0  0  0  0  0  0  0  0
   11.6716    5.1957   24.0304 H   0  0  0  0  0  0  0  0  0  0  0  0
   12.4931    2.9431   24.5837 H   0  0  0  0  0  0  0  0  0  0  0  0
   11.6297    7.0203   21.9628 H   0  0  0  0  0  0  0  0  0  0  0  0
    4.3565    1.7120   21.3187 H   0  0  0  0  0  0  0  0  0  0  0  0
    4.6266   -0.0223   21.6194 H   0  0  0  0  0  0  0  0  0  0  0  0
    5.9066    1.1351   21.9792 H   0  0  0  0  0  0  0  0  0  0  0  0
    7.5396    8.5578   21.2275 H   0  0  0  0  0  0  0  0  0  0  0  0
    7.6540    7.6846   19.6808 H   0  0  0  0  0  0  0  0  0  0  0  0
    6.2142    7.5059   20.6758 H   0  0  0  0  0  0  0  0  0  0  0  0
    9.0901   -1.6664   22.2639 H   0  0  0  0  0  0  0  0  0  0  0  0
    8.6579   -0.3097   23.2977 H   0  0  0  0  0  0  0  0  0  0  0  0
    7.6966    5.5093   20.9069 H   0  0  0  0  0  0  0  0  0  0  0  0
    7.5860    6.3815   22.4579 H   0  0  0  0  0  0  0  0  0  0  0  0
    7.3129   -1.4300   20.9567 H   0  0  0  0  0  0  0  0  0  0  0  0
  1  5  2  0  0  0  0
  1  8  1  0  0  0  0
  2  7  2  0  0  0  0
  2  9  1  0  0  0  0
  3  7  1  0  0  0  0
  3 11  2  0  0  0  0
  4  9  2  0  0  0  0
  4 11  1  0  0  0  0
  5 25  1  0  0  0  0
  6 10  1  0  0  0  0
  6 25  2  0  0  0  0
  7 18  1  1  0  0  0
  8 10  2  0  0  0  0
  8 21  1  0  0  0  0
  9 23  1  0  0  0  0
 10 26  1  0  0  0  0
 11 30  1  0  0  0  0
 12 19  1  1  0  0  0
 12 27  2  0  0  0  0
 12 29  1  0  0  0  0
 13 23  1  0  0  0  0
 13 26  1  0  0  0  0
 13 28  2  0  0  0  0
 14 15  1  0  0  0  0
 14 19  1  0  0  0  0
 15 20  1  0  0  0  0
 16 18  1  0  0  0  0
 16 20  1  0  0  0  0
 17 19  1  0  0  0  0
 17 20  1  0  0  0  0
 18 20  1  0  0  0  0
 22 24  1  0  0  0  0
 24 29  1  0  0  0  0
  1 31  1  0  0  0  0
  2 32  1  0  0  0  0
  3 33  1  0  0  0  0
  4 34  1  0  0  0  0
  5 35  1  0  0  0  0
  6 36  1  0  0  0  0
 14 37  1  0  0  0  0
 14 38  1  0  0  0  0
 15 39  1  0  0  0  0
 15 40  1  0  0  0  0
 16 41  1  0  0  0  0
 16 42  1  0  0  0  0
 17 43  1  0  0  0  0
 17 44  1  0  0  0  0
 18 45  1  0  0  0  0
 19 46  1  0  0  0  0
 21 47  1  0  0  0  0
 21 48  1  0  0  0  0
 21 49  1  0  0  0  0
 22 50  1  0  0  0  0
 22 51  1  0  0  0  0
 22 52  1  0  0  0  0
 23 53  1  0  0  0  0
 23 54  1  0  0  0  0
 24 55  1  0  0  0  0
 24 56  1  0  0  0  0
 26 57  1  0  0  0  0
M  END
> <BB_SMILES>
CCOC(=O)C1CCC2(C1)CC2B1OC(C)(C)C(C)(C)O1

> <scaffold_SMILES>
Cc1ccncc1NC(=O)Cc1cc(Cl)cc(Br)c1

$$$$
EN300-6729805
  -OEChem-07272002243D

 57 60  0     1  0  0  0  0  0999 V2000
    5.0000    1.4070   18.8080 C   0  0  0  0  0  0  0  0  0  0  0  0
   11.0490    1.0010   23.0460 C   0  0  0  0  0  0  0  0  0  0  0  0
   13.3680    0.4840   22.6240 C   0  0  0  0  0  0  0  0  0  0  0  0
   11.6520   -1.1420   22.1450 C   0  0  0  0  0  0  0  0  0  0  0  0
    5.5330    1.3060   17.5390 C   0  0  0  0  0  0  0  0  0  0  0  0
    7.2400   -0.0390   18.2610 C   0  0  0  0  0  0  0  0  0  0  0  0
   12.3850    1.3610   23.0530 C   0  0  0  0  0  0  0  0  0  0  0  0
    5.6260    0.7590   19.8690 C   0  0  0  0  0  0  0  0  0  0  0  0
   10.6720   -0.2500   22.5660 C   0  0  0  0  0  0  0  0  0  0  0  0
    6.7930    0.0210   19.5790 C   0  0  0  0  0  0  0  0  0  0  0  0
   12.9770   -0.7640   22.1810 C   0  0  0  0  0  0  0  0  0  0  0  0
    8.9984    4.4684   22.7990 C   0  0  0  0  0  0  0  0  0  0  0  0
    8.6020    0.1230   21.2070 C   0  0  0  0  0  0  0  0  0  0  0  0
   10.9067    6.0492   23.0306 C   0  0  0  0  0  0  0  0  0  0  0  0
   11.8259    5.1585   23.8675 C   0  0  0  0  0  0  0  0  0  0  0  0
   13.6242    3.6716   22.7006 C   0  0  0  0  0  0  0  0  0  0  0  0
   11.2350    4.0224   21.7589 C   0  0  0  0  0  0  0  0  0  0  0  0
   12.7837    2.7477   23.5431 C   0  0  2  0  0  0  0  0  0  0  0  0
   10.1801    5.0782   22.1051 C   0  0  1  0  0  0  0  0  0  0  0  0
   12.1766    4.0144   22.9472 C   0  0  3  0  0  0  0  0  0  0  0  0
    5.0980    0.9060   21.2740 C   0  0  0  0  0  0  0  0  0  0  0  0
    5.4957    4.5937   21.7480 C   0  0  0  0  0  0  0  0  0  0  0  0
    9.2100   -0.5900   22.3990 C   0  0  0  0  0  0  0  0  0  0  0  0
    6.6546    4.2110   22.6437 C   0  0  0  0  0  0  0  0  0  0  0  0
    6.6320    0.5940   17.2520 N   0  0  0  0  0  0  0  0  0  0  0  0
    7.5630   -0.5230   20.6330 N   0  0  0  0  0  0  0  0  0  0  0  0
    9.0696    3.8306   23.8407 O   0  0  0  0  0  0  0  0  0  0  0  0
    9.0150    1.2120   20.8220 O   0  0  0  0  0  0  0  0  0  0  0  0
    7.8648    4.7380   22.0909 O   0  0  0  0  0  0  0  0  0  0  0  0
   14.1940   -1.9100   21.6990 Cl  0  0  0  0  0  0  0  0  0  0  0  0
    4.0894    1.9955   18.9731 H   0  0  0  0  0  0  0  0  0  0  0  0
   10.2920    1.6908   23.4149 H   0  0  0  0  0  0  0  0  0  0  0  0
   14.4066    0.7739   22.6379 H   0  0  0  0  0  0  0  0  0  0  0  0
   11.3632   -2.1298   21.7911 H   0  0  0  0  0  0  0  0  0  0  0  0
    5.0712    1.8129   16.6995 H   0  0  0  0  0  0  0  0  0  0  0  0
    8.1159   -0.6122   17.9919 H   0  0  0  0  0  0  0  0  0  0  0  0
   10.2356    6.6410   23.6608 H   0  0  0  0  0  0  0  0  0  0  0  0
   11.5133    6.7402   22.4325 H   0  0  0  0  0  0  0  0  0  0  0  0
   12.7014    5.7147   24.2173 H   0  0  0  0  0  0  0  0  0  0  0  0
   11.2884    4.7787   24.7442 H   0  0  0  0  0  0  0  0  0  0  0  0
   14.3883    4.2526   23.2048 H   0  0  0  0  0  0  0  0  0  0  0  0
   13.9166    3.3461   21.7084 H   0  0  0  0  0  0  0  0  0  0  0  0
   10.7842    3.0433   21.5699 H   0  0  0  0  0  0  0  0  0  0  0  0
   11.7788    4.3314   20.8585 H   0  0  0  0  0  0  0  0  0  0  0  0
   12.9889    2.7845   24.6214 H   0  0  0  0  0  0  0  0  0  0  0  0
    9.8037    5.5806   21.2071 H   0  0  0  0  0  0  0  0  0  0  0  0
    5.2481    1.9315   21.6308 H   0  0  0  0  0  0  0  0  0  0  0  0
    4.0272    0.6725   21.3214 H   0  0  0  0  0  0  0  0  0  0  0  0
    5.6055    0.2185   21.9620 H   0  0  0  0  0  0  0  0  0  0  0  0
    5.4015    5.6807   21.6747 H   0  0  0  0  0  0  0  0  0  0  0  0
    5.6327    4.1821   20.7426 H   0  0  0  0  0  0  0  0  0  0  0  0
    4.5571    4.1830   22.1348 H   0  0  0  0  0  0  0  0  0  0  0  0
    9.0901   -1.6664   22.2639 H   0  0  0  0  0  0  0  0  0  0  0  0
    8.6579   -0.3097   23.2977 H   0  0  0  0  0  0  0  0  0  0  0  0
    6.7432    3.1227   22.7127 H   0  0  0  0  0  0  0  0  0  0  0  0
    6.5166    4.6237   23.6475 H   0  0  0  0  0  0  0  0  0  0  0  0
    7.3129   -1.4300   20.9567 H   0  0  0  0  0  0  0  0  0  0  0  0
  1  5  2  0  0  0  0
  1  8  1  0  0  0  0
  2  7  2  0  0  0  0
  2  9  1  0  0  0  0
  3  7  1  0  0  0  0
  3 11  2  0  0  0  0
  4  9  2  0  0  0  0
  4 11  1  0  0  0  0
  5 25  1  0  0  0  0
  6 10  1  0  0  0  0
  6 25  2  0  0  0  0
  7 18  1  1  0  0  0
  8 10  2  0  0  0  0
  8 21  1  0  0  0  0
  9 23  1  0  0  0  0
 10 26  1  0  0  0  0
 11 30  1  0  0  0  0
 12 19  1  6  0  0  0
 12 27  2  0  0  0  0
 12 29  1  0  0  0  0
 13 23  1  0  0  0  0
 13 26  1  0  0  0  0
 13 28  2  0  0  0  0
 14 15  1  0  0  0  0
 14 19  1  0  0  0  0
 15 20  1  0  0  0  0
 16 18  1  0  0  0  0
 16 20  1  0  0  0  0
 17 19  1  0  0  0  0
 17 20  1  0  0  0  0
 18 20  1  0  0  0  0
 22 24  1  0  0  0  0
 24 29  1  0  0  0  0
  1 31  1  0  0  0  0
  2 32  1  0  0  0  0
  3 33  1  0  0  0  0
  4 34  1  0  0  0  0
  5 35  1  0  0  0  0
  6 36  1  0  0  0  0
 14 37  1  0  0  0  0
 14 38  1  0  0  0  0
 15 39  1  0  0  0  0
 15 40  1  0  0  0  0
 16 41  1  0  0  0  0
 16 42  1  0  0  0  0
 17 43  1  0  0  0  0
 17 44  1  0  0  0  0
 18 45  1  0  0  0  0
 19 46  1  0  0  0  0
 21 47  1  0  0  0  0
 21 48  1  0  0  0  0
 21 49  1  0  0  0  0
 22 50  1  0  0  0  0
 22 51  1  0  0  0  0
 22 52  1  0  0  0  0
 23 53  1  0  0  0  0
 23 54  1  0  0  0  0
 24 55  1  0  0  0  0
 24 56  1  0  0  0  0
 26 57  1  0  0  0  0
M  END
> <BB_SMILES>
CCOC(=O)C1CCC2(C1)CC2B1OC(C)(C)C(C)(C)O1

> <scaffold_SMILES>
Cc1ccncc1NC(=O)Cc1cc(Cl)cc(Br)c1

$$$$
EN300-6729805
  -OEChem-07272002243D

 57 60  0     1  0  0  0  0  0999 V2000
    5.0000    1.4070   18.8080 C   0  0  0  0  0  0  0  0  0  0  0  0
   11.0490    1.0010   23.0460 C   0  0  0  0  0  0  0  0  0  0  0  0
   13.3680    0.4840   22.6240 C   0  0  0  0  0  0  0  0  0  0  0  0
   11.6520   -1.1420   22.1450 C   0  0  0  0  0  0  0  0  0  0  0  0
    5.5330    1.3060   17.5390 C   0  0  0  0  0  0  0  0  0  0  0  0
    7.2400   -0.0390   18.2610 C   0  0  0  0  0  0  0  0  0  0  0  0
   12.3850    1.3610   23.0530 C   0  0  0  0  0  0  0  0  0  0  0  0
    5.6260    0.7590   19.8690 C   0  0  0  0  0  0  0  0  0  0  0  0
   10.6720   -0.2500   22.5660 C   0  0  0  0  0  0  0  0  0  0  0  0
    6.7930    0.0210   19.5790 C   0  0  0  0  0  0  0  0  0  0  0  0
   12.9770   -0.7640   22.1810 C   0  0  0  0  0  0  0  0  0  0  0  0
   13.6292    6.7820   21.3026 C   0  0  0  0  0  0  0  0  0  0  0  0
    8.6020    0.1230   21.2070 C   0  0  0  0  0  0  0  0  0  0  0  0
   13.9419    4.4666   20.4426 C   0  0  0  0  0  0  0  0  0  0  0  0
   12.7103    3.8307   21.0918 C   0  0  0  0  0  0  0  0  0  0  0  0
   11.8174    3.9028   23.5197 C   0  0  0  0  0  0  0  0  0  0  0  0
   14.1503    4.8542   22.8139 C   0  0  0  0  0  0  0  0  0  0  0  0
   12.7836    2.7472   23.5430 C   0  0  1  0  0  0  0  0  0  0  0  0
   14.4078    5.5090   21.4547 C   0  0  2  0  0  0  0  0  0  0  0  0
   12.9921    3.9081   22.5747 C   0  0  3  0  0  0  0  0  0  0  0  0
    5.0980    0.9060   21.2740 C   0  0  0  0  0  0  0  0  0  0  0  0
   13.9260    9.8228   23.3163 C   0  0  0  0  0  0  0  0  0  0  0  0
    9.2100   -0.5900   22.3990 C   0  0  0  0  0  0  0  0  0  0  0  0
   13.3686    8.9461   22.2151 C   0  0  0  0  0  0  0  0  0  0  0  0
    6.6320    0.5940   17.2520 N   0  0  0  0  0  0  0  0  0  0  0  0
    7.5630   -0.5230   20.6330 N   0  0  0  0  0  0  0  0  0  0  0  0
   12.7681    6.9611   20.4519 O   0  0  0  0  0  0  0  0  0  0  0  0
    9.0150    1.2120   20.8220 O   0  0  0  0  0  0  0  0  0  0  0  0
   14.0335    7.6792   22.2463 O   0  0  0  0  0  0  0  0  0  0  0  0
   14.1940   -1.9100   21.6990 Cl  0  0  0  0  0  0  0  0  0  0  0  0
    4.0894    1.9955   18.9731 H   0  0  0  0  0  0  0  0  0  0  0  0
   10.2920    1.6908   23.4149 H   0  0  0  0  0  0  0  0  0  0  0  0
   14.4066    0.7739   22.6379 H   0  0  0  0  0  0  0  0  0  0  0  0
   11.3632   -2.1298   21.7911 H   0  0  0  0  0  0  0  0  0  0  0  0
    5.0712    1.8129   16.6995 H   0  0  0  0  0  0  0  0  0  0  0  0
    8.1159   -0.6122   17.9919 H   0  0  0  0  0  0  0  0  0  0  0  0
   14.7219    3.7059   20.3156 H   0  0  0  0  0  0  0  0  0  0  0  0
   13.7079    4.8841   19.4583 H   0  0  0  0  0  0  0  0  0  0  0  0
   11.8150    4.4141   20.8469 H   0  0  0  0  0  0  0  0  0  0  0  0
   12.5647    2.8108   20.7250 H   0  0  0  0  0  0  0  0  0  0  0  0
   10.8262    3.7417   23.1101 H   0  0  0  0  0  0  0  0  0  0  0  0
   11.8288    4.5824   24.3644 H   0  0  0  0  0  0  0  0  0  0  0  0
   15.0325    4.2779   23.1171 H   0  0  0  0  0  0  0  0  0  0  0  0
   13.9332    5.5895   23.5962 H   0  0  0  0  0  0  0  0  0  0  0  0
   13.4610    2.7243   24.4068 H   0  0  0  0  0  0  0  0  0  0  0  0
   15.4649    5.7594   21.3205 H   0  0  0  0  0  0  0  0  0  0  0  0
    4.1677    1.4856   21.2714 H   0  0  0  0  0  0  0  0  0  0  0  0
    4.8988   -0.0730   21.7270 H   0  0  0  0  0  0  0  0  0  0  0  0
    5.8251    1.4144   21.9193 H   0  0  0  0  0  0  0  0  0  0  0  0
   13.7638    9.3676   24.2972 H   0  0  0  0  0  0  0  0  0  0  0  0
   14.9996    9.9845   23.1747 H   0  0  0  0  0  0  0  0  0  0  0  0
   13.4509   10.8093   23.3017 H   0  0  0  0  0  0  0  0  0  0  0  0
    9.0901   -1.6664   22.2639 H   0  0  0  0  0  0  0  0  0  0  0  0
    8.6579   -0.3097   23.2977 H   0  0  0  0  0  0  0  0  0  0  0  0
   13.5340    9.4071   21.2368 H   0  0  0  0  0  0  0  0  0  0  0  0
   12.2960    8.7848   22.3586 H   0  0  0  0  0  0  0  0  0  0  0  0
    7.3129   -1.4300   20.9567 H   0  0  0  0  0  0  0  0  0  0  0  0
  1  5  2  0  0  0  0
  1  8  1  0  0  0  0
  2  7  2  0  0  0  0
  2  9  1  0  0  0  0
  3  7  1  0  0  0  0
  3 11  2  0  0  0  0
  4  9  2  0  0  0  0
  4 11  1  0  0  0  0
  5 25  1  0  0  0  0
  6 10  1  0  0  0  0
  6 25  2  0  0  0  0
  7 18  1  6  0  0  0
  8 10  2  0  0  0  0
  8 21  1  0  0  0  0
  9 23  1  0  0  0  0
 10 26  1  0  0  0  0
 11 30  1  0  0  0  0
 12 19  1  1  0  0  0
 12 27  2  0  0  0  0
 12 29  1  0  0  0  0
 13 23  1  0  0  0  0
 13 26  1  0  0  0  0
 13 28  2  0  0  0  0
 14 15  1  0  0  0  0
 14 19  1  0  0  0  0
 15 20  1  0  0  0  0
 16 18  1  0  0  0  0
 16 20  1  0  0  0  0
 17 19  1  0  0  0  0
 17 20  1  0  0  0  0
 18 20  1  0  0  0  0
 22 24  1  0  0  0  0
 24 29  1  0  0  0  0
  1 31  1  0  0  0  0
  2 32  1  0  0  0  0
  3 33  1  0  0  0  0
  4 34  1  0  0  0  0
  5 35  1  0  0  0  0
  6 36  1  0  0  0  0
 14 37  1  0  0  0  0
 14 38  1  0  0  0  0
 15 39  1  0  0  0  0
 15 40  1  0  0  0  0
 16 41  1  0  0  0  0
 16 42  1  0  0  0  0
 17 43  1  0  0  0  0
 17 44  1  0  0  0  0
 18 45  1  0  0  0  0
 19 46  1  0  0  0  0
 21 47  1  0  0  0  0
 21 48  1  0  0  0  0
 21 49  1  0  0  0  0
 22 50  1  0  0  0  0
 22 51  1  0  0  0  0
 22 52  1  0  0  0  0
 23 53  1  0  0  0  0
 23 54  1  0  0  0  0
 24 55  1  0  0  0  0
 24 56  1  0  0  0  0
 26 57  1  0  0  0  0
M  END
> <BB_SMILES>
CCOC(=O)C1CCC2(C1)CC2B1OC(C)(C)C(C)(C)O1

> <scaffold_SMILES>
Cc1ccncc1NC(=O)Cc1cc(Cl)cc(Br)c1

$$$$
EN300-6729805
  -OEChem-07272002243D

 57 60  0     1  0  0  0  0  0999 V2000
    5.0000    1.4070   18.8080 C   0  0  0  0  0  0  0  0  0  0  0  0
   11.0490    1.0010   23.0460 C   0  0  0  0  0  0  0  0  0  0  0  0
   13.3680    0.4840   22.6240 C   0  0  0  0  0  0  0  0  0  0  0  0
   11.6520   -1.1420   22.1450 C   0  0  0  0  0  0  0  0  0  0  0  0
    5.5330    1.3060   17.5390 C   0  0  0  0  0  0  0  0  0  0  0  0
    7.2400   -0.0390   18.2610 C   0  0  0  0  0  0  0  0  0  0  0  0
   12.3850    1.3610   23.0530 C   0  0  0  0  0  0  0  0  0  0  0  0
    5.6260    0.7590   19.8690 C   0  0  0  0  0  0  0  0  0  0  0  0
   10.6720   -0.2500   22.5660 C   0  0  0  0  0  0  0  0  0  0  0  0
    6.7930    0.0210   19.5790 C   0  0  0  0  0  0  0  0  0  0  0  0
   12.9770   -0.7640   22.1810 C   0  0  0  0  0  0  0  0  0  0  0  0
   13.9951    6.5914   20.7077 C   0  0  0  0  0  0  0  0  0  0  0  0
    8.6020    0.1230   21.2070 C   0  0  0  0  0  0  0  0  0  0  0  0
   12.1644    4.8894   20.5811 C   0  0  0  0  0  0  0  0  0  0  0  0
   11.4380    4.0174   21.6034 C   0  0  0  0  0  0  0  0  0  0  0  0
   11.7795    3.6926   24.1494 C   0  0  0  0  0  0  0  0  0  0  0  0
   13.3690    5.1315   22.6487 C   0  0  0  0  0  0  0  0  0  0  0  0
   12.7836    2.7472   23.5429 C   0  0  1  0  0  0  0  0  0  0  0  0
   12.8717    5.9328   21.4411 C   0  0  1  0  0  0  0  0  0  0  0  0
   12.3643    4.0106   22.7973 C   0  0  3  0  0  0  0  0  0  0  0  0
    5.0980    0.9060   21.2740 C   0  0  0  0  0  0  0  0  0  0  0  0
   16.9067    4.9773   19.1893 C   0  0  0  0  0  0  0  0  0  0  0  0
    9.2100   -0.5900   22.3990 C   0  0  0  0  0  0  0  0  0  0  0  0
   16.0192    6.1416   19.5744 C   0  0  0  0  0  0  0  0  0  0  0  0
    6.6320    0.5940   17.2520 N   0  0  0  0  0  0  0  0  0  0  0  0
    7.5630   -0.5230   20.6330 N   0  0  0  0  0  0  0  0  0  0  0  0
   14.0769    7.7978   20.5202 O   0  0  0  0  0  0  0  0  0  0  0  0
    9.0150    1.2120   20.8220 O   0  0  0  0  0  0  0  0  0  0  0  0
   14.8865    5.6459   20.2951 O   0  0  0  0  0  0  0  0  0  0  0  0
   14.1940   -1.9100   21.6990 Cl  0  0  0  0  0  0  0  0  0  0  0  0
    4.0894    1.9955   18.9731 H   0  0  0  0  0  0  0  0  0  0  0  0
   10.2920    1.6908   23.4149 H   0  0  0  0  0  0  0  0  0  0  0  0
   14.4066    0.7739   22.6379 H   0  0  0  0  0  0  0  0  0  0  0  0
   11.3632   -2.1298   21.7911 H   0  0  0  0  0  0  0  0  0  0  0  0
    5.0712    1.8129   16.6995 H   0  0  0  0  0  0  0  0  0  0  0  0
    8.1159   -0.6122   17.9919 H   0  0  0  0  0  0  0  0  0  0  0  0
   12.8418    4.3021   19.9577 H   0  0  0  0  0  0  0  0  0  0  0  0
   11.4332    5.3828   19.9328 H   0  0  0  0  0  0  0  0  0  0  0  0
   10.4447    4.4183   21.8284 H   0  0  0  0  0  0  0  0  0  0  0  0
   11.3205    3.0007   21.2114 H   0  0  0  0  0  0  0  0  0  0  0  0
   10.7422    3.3813   24.2074 H   0  0  0  0  0  0  0  0  0  0  0  0
   12.0993    4.2799   25.0035 H   0  0  0  0  0  0  0  0  0  0  0  0
   14.3864    4.7565   22.5056 H   0  0  0  0  0  0  0  0  0  0  0  0
   13.3535    5.7666   23.5405 H   0  0  0  0  0  0  0  0  0  0  0  0
   13.7844    2.7759   23.9995 H   0  0  0  0  0  0  0  0  0  0  0  0
   12.1781    6.7290   21.7547 H   0  0  0  0  0  0  0  0  0  0  0  0
    5.8645    0.6124   22.0004 H   0  0  0  0  0  0  0  0  0  0  0  0
    4.8003    1.9416   21.4792 H   0  0  0  0  0  0  0  0  0  0  0  0
    4.2099    0.2814   21.4309 H   0  0  0  0  0  0  0  0  0  0  0  0
   17.2627    4.4476   20.0773 H   0  0  0  0  0  0  0  0  0  0  0  0
   16.3636    4.2725   18.5512 H   0  0  0  0  0  0  0  0  0  0  0  0
   17.7718    5.3251   18.6150 H   0  0  0  0  0  0  0  0  0  0  0  0
    9.0901   -1.6664   22.2639 H   0  0  0  0  0  0  0  0  0  0  0  0
    8.6579   -0.3097   23.2977 H   0  0  0  0  0  0  0  0  0  0  0  0
   15.6666    6.6670   18.6818 H   0  0  0  0  0  0  0  0  0  0  0  0
   16.5630    6.8444   20.2126 H   0  0  0  0  0  0  0  0  0  0  0  0
    7.3129   -1.4300   20.9567 H   0  0  0  0  0  0  0  0  0  0  0  0
  1  5  2  0  0  0  0
  1  8  1  0  0  0  0
  2  7  2  0  0  0  0
  2  9  1  0  0  0  0
  3  7  1  0  0  0  0
  3 11  2  0  0  0  0
  4  9  2  0  0  0  0
  4 11  1  0  0  0  0
  5 25  1  0  0  0  0
  6 10  1  0  0  0  0
  6 25  2  0  0  0  0
  7 18  1  6  0  0  0
  8 10  2  0  0  0  0
  8 21  1  0  0  0  0
  9 23  1  0  0  0  0
 10 26  1  0  0  0  0
 11 30  1  0  0  0  0
 12 19  1  6  0  0  0
 12 27  2  0  0  0  0
 12 29  1  0  0  0  0
 13 23  1  0  0  0  0
 13 26  1  0  0  0  0
 13 28  2  0  0  0  0
 14 15  1  0  0  0  0
 14 19  1  0  0  0  0
 15 20  1  0  0  0  0
 16 18  1  0  0  0  0
 16 20  1  0  0  0  0
 17 19  1  0  0  0  0
 17 20  1  0  0  0  0
 18 20  1  0  0  0  0
 22 24  1  0  0  0  0
 24 29  1  0  0  0  0
  1 31  1  0  0  0  0
  2 32  1  0  0  0  0
  3 33  1  0  0  0  0
  4 34  1  0  0  0  0
  5 35  1  0  0  0  0
  6 36  1  0  0  0  0
 14 37  1  0  0  0  0
 14 38  1  0  0  0  0
 15 39  1  0  0  0  0
 15 40  1  0  0  0  0
 16 41  1  0  0  0  0
 16 42  1  0  0  0  0
 17 43  1  0  0  0  0
 17 44  1  0  0  0  0
 18 45  1  0  0  0  0
 19 46  1  0  0  0  0
 21 47  1  0  0  0  0
 21 48  1  0  0  0  0
 21 49  1  0  0  0  0
 22 50  1  0  0  0  0
 22 51  1  0  0  0  0
 22 52  1  0  0  0  0
 23 53  1  0  0  0  0
 23 54  1  0  0  0  0
 24 55  1  0  0  0  0
 24 56  1  0  0  0  0
 26 57  1  0  0  0  0
M  END
> <BB_SMILES>
CCOC(=O)C1CCC2(C1)CC2B1OC(C)(C)C(C)(C)O1

> <scaffold_SMILES>
Cc1ccncc1NC(=O)Cc1cc(Cl)cc(Br)c1

$$$$
EN300-1425728
  -OEChem-07272002243D

 44 46  0     0  0  0  0  0  0999 V2000
   14.3724    4.1574   24.5706 C   0  0  0  0  0  0  0  0  0  0  0  0
   14.0085    2.8873   24.1237 C   0  0  0  0  0  0  0  0  0  0  0  0
   13.4943    5.2299   24.4146 C   0  0  0  0  0  0  0  0  0  0  0  0
    5.0000    1.4070   18.8080 C   0  0  0  0  0  0  0  0  0  0  0  0
   11.8882    3.7620   23.3645 C   0  0  0  0  0  0  0  0  0  0  0  0
   11.0490    1.0010   23.0460 C   0  0  0  0  0  0  0  0  0  0  0  0
   13.3680    0.4840   22.6240 C   0  0  0  0  0  0  0  0  0  0  0  0
   11.6520   -1.1420   22.1450 C   0  0  0  0  0  0  0  0  0  0  0  0
    5.5330    1.3060   17.5390 C   0  0  0  0  0  0  0  0  0  0  0  0
    7.2400   -0.0390   18.2610 C   0  0  0  0  0  0  0  0  0  0  0  0
   12.7664    2.6895   23.5206 C   0  0  0  0  0  0  0  0  0  0  0  0
   12.3850    1.3610   23.0530 C   0  0  0  0  0  0  0  0  0  0  0  0
   12.2522    5.0322   23.8115 C   0  0  0  0  0  0  0  0  0  0  0  0
    5.6260    0.7590   19.8690 C   0  0  0  0  0  0  0  0  0  0  0  0
   10.6720   -0.2500   22.5660 C   0  0  0  0  0  0  0  0  0  0  0  0
    6.7930    0.0210   19.5790 C   0  0  0  0  0  0  0  0  0  0  0  0
   12.9770   -0.7640   22.1810 C   0  0  0  0  0  0  0  0  0  0  0  0
    8.6020    0.1230   21.2070 C   0  0  0  0  0  0  0  0  0  0  0  0
    5.0980    0.9060   21.2740 C   0  0  0  0  0  0  0  0  0  0  0  0
    9.2100   -0.5900   22.3990 C   0  0  0  0  0  0  0  0  0  0  0  0
   11.3138    6.1795   23.6449 C   0  0  0  0  0  0  0  0  0  0  0  0
    6.6320    0.5940   17.2520 N   0  0  0  0  0  0  0  0  0  0  0  0
    7.5630   -0.5230   20.6330 N   0  0  0  0  0  0  0  0  0  0  0  0
    9.0150    1.2120   20.8220 O   0  0  0  0  0  0  0  0  0  0  0  0
   11.4703    7.0818   24.6488 F   0  0  0  0  0  0  0  0  0  0  0  0
   10.0227    5.7596   23.7022 F   0  0  0  0  0  0  0  0  0  0  0  0
   14.1940   -1.9100   21.6990 Cl  0  0  0  0  0  0  0  0  0  0  0  0
   15.3399    4.3113   25.0399 H   0  0  0  0  0  0  0  0  0  0  0  0
   14.7040    2.0611   24.2527 H   0  0  0  0  0  0  0  0  0  0  0  0
   13.7859    6.2163   24.7659 H   0  0  0  0  0  0  0  0  0  0  0  0
    4.0894    1.9955   18.9731 H   0  0  0  0  0  0  0  0  0  0  0  0
   10.9179    3.6146   22.8946 H   0  0  0  0  0  0  0  0  0  0  0  0
   10.2869    1.6872   23.4130 H   0  0  0  0  0  0  0  0  0  0  0  0
   14.4085    0.7689   22.6365 H   0  0  0  0  0  0  0  0  0  0  0  0
   11.3634   -2.1298   21.7910 H   0  0  0  0  0  0  0  0  0  0  0  0
    5.0712    1.8129   16.6995 H   0  0  0  0  0  0  0  0  0  0  0  0
    8.1159   -0.6122   17.9919 H   0  0  0  0  0  0  0  0  0  0  0  0
    5.7792    1.5210   21.8733 H   0  0  0  0  0  0  0  0  0  0  0  0
    4.1071    1.3766   21.2778 H   0  0  0  0  0  0  0  0  0  0  0  0
    4.9893   -0.0712   21.7607 H   0  0  0  0  0  0  0  0  0  0  0  0
    9.0901   -1.6664   22.2639 H   0  0  0  0  0  0  0  0  0  0  0  0
    8.6579   -0.3097   23.2977 H   0  0  0  0  0  0  0  0  0  0  0  0
   11.4554    6.7027   22.6973 H   0  0  0  0  0  0  0  0  0  0  0  0
    7.3129   -1.4300   20.9567 H   0  0  0  0  0  0  0  0  0  0  0  0
  1  2  2  0  0  0  0
  1  3  1  0  0  0  0
  2 11  1  0  0  0  0
  3 13  2  0  0  0  0
  4  9  2  0  0  0  0
  4 14  1  0  0  0  0
  5 11  2  0  0  0  0
  5 13  1  0  0  0  0
  6 12  1  0  0  0  0
  6 15  2  0  0  0  0
  7 12  2  0  0  0  0
  7 17  1  0  0  0  0
  8 15  1  0  0  0  0
  8 17  2  0  0  0  0
  9 22  1  0  0  0  0
 10 16  1  0  0  0  0
 10 22  2  0  0  0  0
 11 12  1  0  0  0  0
 13 21  1  0  0  0  0
 14 16  2  0  0  0  0
 14 19  1  0  0  0  0
 15 20  1  0  0  0  0
 16 23  1  0  0  0  0
 17 27  1  0  0  0  0
 18 20  1  0  0  0  0
 18 23  1  0  0  0  0
 18 24  2  0  0  0  0
 21 25  1  0  0  0  0
 21 26  1  0  0  0  0
  1 28  1  0  0  0  0
  2 29  1  0  0  0  0
  3 30  1  0  0  0  0
  4 31  1  0  0  0  0
  5 32  1  0  0  0  0
  6 33  1  0  0  0  0
  7 34  1  0  0  0  0
  8 35  1  0  0  0  0
  9 36  1  0  0  0  0
 10 37  1  0  0  0  0
 19 38  1  0  0  0  0
 19 39  1  0  0  0  0
 19 40  1  0  0  0  0
 20 41  1  0  0  0  0
 20 42  1  0  0  0  0
 21 43  1  0  0  0  0
 23 44  1  0  0  0  0
M  END
> <BB_SMILES>
CC1(C)OB(c2cccc(C(F)F)c2)OC1(C)C

> <scaffold_SMILES>
Cc1ccncc1NC(=O)Cc1cc(Cl)cc(Br)c1

$$$$
EN300-1425832
  -OEChem-07272002243D

 51 54  0     0  0  0  0  0  0999 V2000
   14.3720    4.1577   24.5705 C   0  0  0  0  0  0  0  0  0  0  0  0
   14.0084    2.8874   24.1236 C   0  0  0  0  0  0  0  0  0  0  0  0
   13.4936    5.2300   24.4143 C   0  0  0  0  0  0  0  0  0  0  0  0
    5.0000    1.4070   18.8080 C   0  0  0  0  0  0  0  0  0  0  0  0
   11.8879    3.7616   23.3643 C   0  0  0  0  0  0  0  0  0  0  0  0
   11.0490    1.0010   23.0460 C   0  0  0  0  0  0  0  0  0  0  0  0
   13.3680    0.4840   22.6240 C   0  0  0  0  0  0  0  0  0  0  0  0
   11.6520   -1.1420   22.1450 C   0  0  0  0  0  0  0  0  0  0  0  0
    5.5330    1.3060   17.5390 C   0  0  0  0  0  0  0  0  0  0  0  0
    7.2400   -0.0390   18.2610 C   0  0  0  0  0  0  0  0  0  0  0  0
   12.7663    2.6893   23.5205 C   0  0  0  0  0  0  0  0  0  0  0  0
   12.3850    1.3610   23.0530 C   0  0  0  0  0  0  0  0  0  0  0  0
   12.2515    5.0319   23.8112 C   0  0  0  0  0  0  0  0  0  0  0  0
    5.6260    0.7590   19.8690 C   0  0  0  0  0  0  0  0  0  0  0  0
   10.6720   -0.2500   22.5660 C   0  0  0  0  0  0  0  0  0  0  0  0
    6.7930    0.0210   19.5790 C   0  0  0  0  0  0  0  0  0  0  0  0
   12.9770   -0.7640   22.1810 C   0  0  0  0  0  0  0  0  0  0  0  0
    8.6020    0.1230   21.2070 C   0  0  0  0  0  0  0  0  0  0  0  0
   10.8453    6.9000   24.8953 C   0  0  0  0  0  0  0  0  0  0  0  0
    9.8935    6.0131   24.1553 C   0  0  0  0  0  0  0  0  0  0  0  0
   11.3137    6.1778   23.6448 C   0  0  0  0  0  0  0  0  0  0  0  0
    5.0980    0.9060   21.2740 C   0  0  0  0  0  0  0  0  0  0  0  0
   11.5216    6.9943   22.3995 C   0  0  0  0  0  0  0  0  0  0  0  0
    9.2100   -0.5900   22.3990 C   0  0  0  0  0  0  0  0  0  0  0  0
    6.6320    0.5940   17.2520 N   0  0  0  0  0  0  0  0  0  0  0  0
    7.5630   -0.5230   20.6330 N   0  0  0  0  0  0  0  0  0  0  0  0
    9.0150    1.2120   20.8220 O   0  0  0  0  0  0  0  0  0  0  0  0
   14.1940   -1.9100   21.6990 Cl  0  0  0  0  0  0  0  0  0  0  0  0
   15.3390    4.3122   25.0402 H   0  0  0  0  0  0  0  0  0  0  0  0
   14.7038    2.0614   24.2522 H   0  0  0  0  0  0  0  0  0  0  0  0
   13.7871    6.2158   24.7661 H   0  0  0  0  0  0  0  0  0  0  0  0
    4.0894    1.9955   18.9731 H   0  0  0  0  0  0  0  0  0  0  0  0
   10.9177    3.6131   22.8945 H   0  0  0  0  0  0  0  0  0  0  0  0
   10.2869    1.6872   23.4130 H   0  0  0  0  0  0  0  0  0  0  0  0
   14.4085    0.7689   22.6365 H   0  0  0  0  0  0  0  0  0  0  0  0
   11.3634   -2.1298   21.7910 H   0  0  0  0  0  0  0  0  0  0  0  0
    5.0712    1.8129   16.6995 H   0  0  0  0  0  0  0  0  0  0  0  0
    8.1159   -0.6122   17.9919 H   0  0  0  0  0  0  0  0  0  0  0  0
   10.6798    7.9699   24.8442 H   0  0  0  0  0  0  0  0  0  0  0  0
   11.2041    6.5590   25.8597 H   0  0  0  0  0  0  0  0  0  0  0  0
    9.6124    5.0769   24.6238 H   0  0  0  0  0  0  0  0  0  0  0  0
    9.0879    6.4857   23.6053 H   0  0  0  0  0  0  0  0  0  0  0  0
    5.7795    1.5206   21.8735 H   0  0  0  0  0  0  0  0  0  0  0  0
    4.1074    1.3771   21.2778 H   0  0  0  0  0  0  0  0  0  0  0  0
    4.9887   -0.0712   21.7605 H   0  0  0  0  0  0  0  0  0  0  0  0
   10.7983    7.8173   22.3439 H   0  0  0  0  0  0  0  0  0  0  0  0
   11.4004    6.3774   21.5005 H   0  0  0  0  0  0  0  0  0  0  0  0
   12.5290    7.4283   22.3779 H   0  0  0  0  0  0  0  0  0  0  0  0
    9.0901   -1.6664   22.2639 H   0  0  0  0  0  0  0  0  0  0  0  0
    8.6579   -0.3097   23.2977 H   0  0  0  0  0  0  0  0  0  0  0  0
    7.3129   -1.4300   20.9567 H   0  0  0  0  0  0  0  0  0  0  0  0
  1  2  2  0  0  0  0
  1  3  1  0  0  0  0
  2 11  1  0  0  0  0
  3 13  2  0  0  0  0
  4  9  2  0  0  0  0
  4 14  1  0  0  0  0
  5 11  2  0  0  0  0
  5 13  1  0  0  0  0
  6 12  1  0  0  0  0
  6 15  2  0  0  0  0
  7 12  2  0  0  0  0
  7 17  1  0  0  0  0
  8 15  1  0  0  0  0
  8 17  2  0  0  0  0
  9 25  1  0  0  0  0
 10 16  1  0  0  0  0
 10 25  2  0  0  0  0
 11 12  1  0  0  0  0
 13 21  1  0  0  0  0
 14 16  2  0  0  0  0
 14 22  1  0  0  0  0
 15 24  1  0  0  0  0
 16 26  1  0  0  0  0
 17 28  1  0  0  0  0
 18 24  1  0  0  0  0
 18 26  1  0  0  0  0
 18 27  2  0  0  0  0
 19 20  1  0  0  0  0
 19 21  1  0  0  0  0
 20 21  1  0  0  0  0
 21 23  1  0  0  0  0
  1 29  1  0  0  0  0
  2 30  1  0  0  0  0
  3 31  1  0  0  0  0
  4 32  1  0  0  0  0
  5 33  1  0  0  0  0
  6 34  1  0  0  0  0
  7 35  1  0  0  0  0
  8 36  1  0  0  0  0
  9 37  1  0  0  0  0
 10 38  1  0  0  0  0
 19 39  1  0  0  0  0
 19 40  1  0  0  0  0
 20 41  1  0  0  0  0
 20 42  1  0  0  0  0
 22 43  1  0  0  0  0
 22 44  1  0  0  0  0
 22 45  1  0  0  0  0
 23 46  1  0  0  0  0
 23 47  1  0  0  0  0
 23 48  1  0  0  0  0
 24 49  1  0  0  0  0
 24 50  1  0  0  0  0
 26 51  1  0  0  0  0
M  END
> <BB_SMILES>
CC1(c2cccc(B3OC(C)(C)C(C)(C)O3)c2)CC1

> <scaffold_SMILES>
Cc1ccncc1NC(=O)Cc1cc(Cl)cc(Br)c1

$$$$
EN300-6495292
  -OEChem-07272002243D

 50 52  0     0  0  0  0  0  0999 V2000
   14.3731    4.1555   24.5722 C   0  0  0  0  0  0  0  0  0  0  0  0
   14.0087    2.8860   24.1235 C   0  0  0  0  0  0  0  0  0  0  0  0
   13.4951    5.2283   24.4180 C   0  0  0  0  0  0  0  0  0  0  0  0
    5.0000    1.4070   18.8080 C   0  0  0  0  0  0  0  0  0  0  0  0
   11.0490    1.0010   23.0460 C   0  0  0  0  0  0  0  0  0  0  0  0
   11.8883    3.7623   23.3663 C   0  0  0  0  0  0  0  0  0  0  0  0
   13.3680    0.4840   22.6240 C   0  0  0  0  0  0  0  0  0  0  0  0
   11.6520   -1.1420   22.1450 C   0  0  0  0  0  0  0  0  0  0  0  0
    5.5330    1.3060   17.5390 C   0  0  0  0  0  0  0  0  0  0  0  0
    7.2400   -0.0390   18.2610 C   0  0  0  0  0  0  0  0  0  0  0  0
   12.7663    2.6894   23.5206 C   0  0  0  0  0  0  0  0  0  0  0  0
   12.3850    1.3610   23.0530 C   0  0  0  0  0  0  0  0  0  0  0  0
    5.6260    0.7590   19.8690 C   0  0  0  0  0  0  0  0  0  0  0  0
   10.6720   -0.2500   22.5660 C   0  0  0  0  0  0  0  0  0  0  0  0
    6.7930    0.0210   19.5790 C   0  0  0  0  0  0  0  0  0  0  0  0
   12.2527    5.0317   23.8151 C   0  0  0  0  0  0  0  0  0  0  0  0
   12.9770   -0.7640   22.1810 C   0  0  0  0  0  0  0  0  0  0  0  0
    8.6020    0.1230   21.2070 C   0  0  0  0  0  0  0  0  0  0  0  0
    5.0980    0.9060   21.2740 C   0  0  0  0  0  0  0  0  0  0  0  0
    9.6178    6.0288   24.5013 C   0  0  0  0  0  0  0  0  0  0  0  0
   10.6063    6.4635   21.9052 C   0  0  0  0  0  0  0  0  0  0  0  0
    9.2100   -0.5900   22.3990 C   0  0  0  0  0  0  0  0  0  0  0  0
    6.6320    0.5940   17.2520 N   0  0  0  0  0  0  0  0  0  0  0  0
    7.5630   -0.5230   20.6330 N   0  0  0  0  0  0  0  0  0  0  0  0
    9.0150    1.2120   20.8220 O   0  0  0  0  0  0  0  0  0  0  0  0
   11.6630    7.7397   24.0437 O   0  0  0  0  0  0  0  0  0  0  0  0
   11.1421    6.3909   23.6197 P   0  0  0  0  0  0  0  0  0  0  0  0
   14.1940   -1.9100   21.6990 Cl  0  0  0  0  0  0  0  0  0  0  0  0
   15.3404    4.3086   25.0416 H   0  0  0  0  0  0  0  0  0  0  0  0
   14.7041    2.0597   24.2508 H   0  0  0  0  0  0  0  0  0  0  0  0
   13.7836    6.2154   24.7680 H   0  0  0  0  0  0  0  0  0  0  0  0
    4.0894    1.9955   18.9731 H   0  0  0  0  0  0  0  0  0  0  0  0
   10.2869    1.6872   23.4130 H   0  0  0  0  0  0  0  0  0  0  0  0
   10.9172    3.6204   22.8976 H   0  0  0  0  0  0  0  0  0  0  0  0
   14.4085    0.7689   22.6365 H   0  0  0  0  0  0  0  0  0  0  0  0
   11.3634   -2.1298   21.7910 H   0  0  0  0  0  0  0  0  0  0  0  0
    5.0712    1.8129   16.6995 H   0  0  0  0  0  0  0  0  0  0  0  0
    8.1159   -0.6122   17.9919 H   0  0  0  0  0  0  0  0  0  0  0  0
    5.7792    1.5210   21.8733 H   0  0  0  0  0  0  0  0  0  0  0  0
    4.1071    1.3766   21.2778 H   0  0  0  0  0  0  0  0  0  0  0  0
    4.9892   -0.0712   21.7607 H   0  0  0  0  0  0  0  0  0  0  0  0
    8.9154    6.8590   24.3930 H   0  0  0  0  0  0  0  0  0  0  0  0
    9.1583    5.1225   24.0993 H   0  0  0  0  0  0  0  0  0  0  0  0
    9.8257    5.8781   25.5636 H   0  0  0  0  0  0  0  0  0  0  0  0
    9.9170    7.2994   21.7624 H   0  0  0  0  0  0  0  0  0  0  0  0
   11.4688    6.6007   21.2482 H   0  0  0  0  0  0  0  0  0  0  0  0
   10.0980    5.5355   21.6316 H   0  0  0  0  0  0  0  0  0  0  0  0
    9.0901   -1.6664   22.2639 H   0  0  0  0  0  0  0  0  0  0  0  0
    8.6579   -0.3097   23.2977 H   0  0  0  0  0  0  0  0  0  0  0  0
    7.3129   -1.4300   20.9567 H   0  0  0  0  0  0  0  0  0  0  0  0
  1  2  2  0  0  0  0
  1  3  1  0  0  0  0
  2 11  1  0  0  0  0
  3 16  2  0  0  0  0
  4  9  2  0  0  0  0
  4 13  1  0  0  0  0
  5 12  1  0  0  0  0
  5 14  2  0  0  0  0
  6 11  2  0  0  0  0
  6 16  1  0  0  0  0
  7 12  2  0  0  0  0
  7 17  1  0  0  0  0
  8 14  1  0  0  0  0
  8 17  2  0  0  0  0
  9 23  1  0  0  0  0
 10 15  1  0  0  0  0
 10 23  2  0  0  0  0
 11 12  1  0  0  0  0
 13 15  2  0  0  0  0
 13 19  1  0  0  0  0
 14 22  1  0  0  0  0
 15 24  1  0  0  0  0
 16 27  1  0  0  0  0
 17 28  1  0  0  0  0
 18 22  1  0  0  0  0
 18 24  1  0  0  0  0
 18 25  2  0  0  0  0
 20 27  1  0  0  0  0
 21 27  1  0  0  0  0
 26 27  2  0  0  0  0
  1 29  1  0  0  0  0
  2 30  1  0  0  0  0
  3 31  1  0  0  0  0
  4 32  1  0  0  0  0
  5 33  1  0  0  0  0
  6 34  1  0  0  0  0
  7 35  1  0  0  0  0
  8 36  1  0  0  0  0
  9 37  1  0  0  0  0
 10 38  1  0  0  0  0
 19 39  1  0  0  0  0
 19 40  1  0  0  0  0
 19 41  1  0  0  0  0
 20 42  1  0  0  0  0
 20 43  1  0  0  0  0
 20 44  1  0  0  0  0
 21 45  1  0  0  0  0
 21 46  1  0  0  0  0
 21 47  1  0  0  0  0
 22 48  1  0  0  0  0
 22 49  1  0  0  0  0
 24 50  1  0  0  0  0
M  END
> <BB_SMILES>
CC1(C)OB(c2cccc(P(C)(C)=O)c2)OC1(C)C

> <scaffold_SMILES>
Cc1ccncc1NC(=O)Cc1cc(Cl)cc(Br)c1

$$$$
EN300-6746831
  -OEChem-07272002243D

 44 46  0     0  0  0  0  0  0999 V2000
    5.0000    1.4070   18.8080 C   0  0  0  0  0  0  0  0  0  0  0  0
   11.0490    1.0010   23.0460 C   0  0  0  0  0  0  0  0  0  0  0  0
   13.3680    0.4840   22.6240 C   0  0  0  0  0  0  0  0  0  0  0  0
   11.6520   -1.1420   22.1450 C   0  0  0  0  0  0  0  0  0  0  0  0
    5.5330    1.3060   17.5390 C   0  0  0  0  0  0  0  0  0  0  0  0
    7.2400   -0.0390   18.2610 C   0  0  0  0  0  0  0  0  0  0  0  0
   12.3850    1.3610   23.0530 C   0  0  0  0  0  0  0  0  0  0  0  0
    5.6260    0.7590   19.8690 C   0  0  0  0  0  0  0  0  0  0  0  0
   10.6720   -0.2500   22.5660 C   0  0  0  0  0  0  0  0  0  0  0  0
    6.7930    0.0210   19.5790 C   0  0  0  0  0  0  0  0  0  0  0  0
   12.9770   -0.7640   22.1810 C   0  0  0  0  0  0  0  0  0  0  0  0
    8.6020    0.1230   21.2070 C   0  0  0  0  0  0  0  0  0  0  0  0
   13.9446    3.5758   22.8252 C   0  0  0  0  0  0  0  0  0  0  0  0
   11.9003    4.0323   23.1969 C   0  0  0  0  0  0  0  0  0  0  0  0
   12.8020    2.8144   23.5645 C   0  0  0  0  0  0  0  0  0  0  0  0
   13.1877    4.8808   23.1473 C   0  0  0  0  0  0  0  0  0  0  0  0
    5.0980    0.9060   21.2740 C   0  0  0  0  0  0  0  0  0  0  0  0
    9.2100   -0.5900   22.3990 C   0  0  0  0  0  0  0  0  0  0  0  0
    6.6320    0.5940   17.2520 N   0  0  0  0  0  0  0  0  0  0  0  0
    7.5630   -0.5230   20.6330 N   0  0  0  0  0  0  0  0  0  0  0  0
   13.2060    5.8547   22.0517 N   0  3  0  0  0  0  0  0  0  0  0  0
    9.0150    1.2120   20.8220 O   0  0  0  0  0  0  0  0  0  0  0  0
   14.1940   -1.9100   21.6990 Cl  0  0  0  0  0  0  0  0  0  0  0  0
    4.0894    1.9955   18.9731 H   0  0  0  0  0  0  0  0  0  0  0  0
   10.2933    1.6925   23.4141 H   0  0  0  0  0  0  0  0  0  0  0  0
   14.4055    0.7762   22.6388 H   0  0  0  0  0  0  0  0  0  0  0  0
   11.3632   -2.1298   21.7913 H   0  0  0  0  0  0  0  0  0  0  0  0
    5.0712    1.8129   16.6995 H   0  0  0  0  0  0  0  0  0  0  0  0
    8.1159   -0.6122   17.9919 H   0  0  0  0  0  0  0  0  0  0  0  0
   14.9355    3.4858   23.2798 H   0  0  0  0  0  0  0  0  0  0  0  0
   14.0260    3.3391   21.7570 H   0  0  0  0  0  0  0  0  0  0  0  0
   11.3751    3.9308   22.2390 H   0  0  0  0  0  0  0  0  0  0  0  0
   11.1767    4.3251   23.9633 H   0  0  0  0  0  0  0  0  0  0  0  0
   12.9910    2.7756   24.6516 H   0  0  0  0  0  0  0  0  0  0  0  0
   13.4626    5.3299   24.1088 H   0  0  0  0  0  0  0  0  0  0  0  0
    4.0978    1.3541   21.2589 H   0  0  0  0  0  0  0  0  0  0  0  0
    5.0381   -0.0662   21.7786 H   0  0  0  0  0  0  0  0  0  0  0  0
    5.7564    1.5404   21.8803 H   0  0  0  0  0  0  0  0  0  0  0  0
    9.0901   -1.6664   22.2639 H   0  0  0  0  0  0  0  0  0  0  0  0
    8.6578   -0.3097   23.2977 H   0  0  0  0  0  0  0  0  0  0  0  0
    7.3129   -1.4300   20.9567 H   0  0  0  0  0  0  0  0  0  0  0  0
   13.1045    6.8223   22.3958 H   0  0  0  0  0  0  0  0  0  0  0  0
   12.4393    5.6915   21.3803 H   0  0  0  0  0  0  0  0  0  0  0  0
   14.0882    5.8156   21.5175 H   0  0  0  0  0  0  0  0  0  0  0  0
  1  5  2  0  0  0  0
  1  8  1  0  0  0  0
  2  7  1  0  0  0  0
  2  9  2  0  0  0  0
  3  7  2  0  0  0  0
  3 11  1  0  0  0  0
  4  9  1  0  0  0  0
  4 11  2  0  0  0  0
  5 19  1  0  0  0  0
  6 10  1  0  0  0  0
  6 19  2  0  0  0  0
  7 15  1  0  0  0  0
  8 10  2  0  0  0  0
  8 17  1  0  0  0  0
  9 18  1  0  0  0  0
 10 20  1  0  0  0  0
 11 23  1  0  0  0  0
 12 18  1  0  0  0  0
 12 20  1  0  0  0  0
 12 22  2  0  0  0  0
 13 15  1  0  0  0  0
 13 16  1  0  0  0  0
 14 15  1  0  0  0  0
 14 16  1  0  0  0  0
 16 21  1  0  0  0  0
  1 24  1  0  0  0  0
  2 25  1  0  0  0  0
  3 26  1  0  0  0  0
  4 27  1  0  0  0  0
  5 28  1  0  0  0  0
  6 29  1  0  0  0  0
 13 30  1  0  0  0  0
 13 31  1  0  0  0  0
 14 32  1  0  0  0  0
 14 33  1  0  0  0  0
 15 34  1  0  0  0  0
 16 35  1  0  0  0  0
 17 36  1  0  0  0  0
 17 37  1  0  0  0  0
 17 38  1  0  0  0  0
 18 39  1  0  0  0  0
 18 40  1  0  0  0  0
 20 41  1  0  0  0  0
 21 42  1  0  0  0  0
 21 43  1  0  0  0  0
 21 44  1  0  0  0  0
M  CHG  1  21   1
M  END
> <BB_SMILES>
CC1(C)OB(C2CC(N)C2)OC1(C)C

> <scaffold_SMILES>
Cc1ccncc1NC(=O)Cc1cc(Cl)cc(Br)c1

$$$$
EN300-6758786
  -OEChem-07272002243D

 41 43  0     0  0  0  0  0  0999 V2000
    5.0000    1.4070   18.8080 C   0  0  0  0  0  0  0  0  0  0  0  0
   11.0490    1.0010   23.0460 C   0  0  0  0  0  0  0  0  0  0  0  0
   13.3680    0.4840   22.6240 C   0  0  0  0  0  0  0  0  0  0  0  0
   11.6520   -1.1420   22.1450 C   0  0  0  0  0  0  0  0  0  0  0  0
    5.5330    1.3060   17.5390 C   0  0  0  0  0  0  0  0  0  0  0  0
    7.2400   -0.0390   18.2610 C   0  0  0  0  0  0  0  0  0  0  0  0
   12.3850    1.3610   23.0530 C   0  0  0  0  0  0  0  0  0  0  0  0
    5.6260    0.7590   19.8690 C   0  0  0  0  0  0  0  0  0  0  0  0
   10.6720   -0.2500   22.5660 C   0  0  0  0  0  0  0  0  0  0  0  0
    6.7930    0.0210   19.5790 C   0  0  0  0  0  0  0  0  0  0  0  0
   12.9770   -0.7640   22.1810 C   0  0  0  0  0  0  0  0  0  0  0  0
    8.6020    0.1230   21.2070 C   0  0  0  0  0  0  0  0  0  0  0  0
   13.9189    3.5831   22.8222 C   0  0  0  0  0  0  0  0  0  0  0  0
   11.9237    4.0282   23.1846 C   0  0  0  0  0  0  0  0  0  0  0  0
   12.8015    2.8125   23.5638 C   0  0  0  0  0  0  0  0  0  0  0  0
    5.0980    0.9060   21.2740 C   0  0  0  0  0  0  0  0  0  0  0  0
    9.2100   -0.5900   22.3990 C   0  0  0  0  0  0  0  0  0  0  0  0
    6.6320    0.5940   17.2520 N   0  0  0  0  0  0  0  0  0  0  0  0
    7.5630   -0.5230   20.6330 N   0  0  0  0  0  0  0  0  0  0  0  0
   13.1559    4.8196   23.0492 N   0  3  0  0  0  0  0  0  0  0  0  0
    9.0150    1.2120   20.8220 O   0  0  0  0  0  0  0  0  0  0  0  0
   14.1940   -1.9100   21.6990 Cl  0  0  0  0  0  0  0  0  0  0  0  0
    4.0894    1.9955   18.9731 H   0  0  0  0  0  0  0  0  0  0  0  0
   10.2933    1.6925   23.4141 H   0  0  0  0  0  0  0  0  0  0  0  0
   14.4055    0.7762   22.6388 H   0  0  0  0  0  0  0  0  0  0  0  0
   11.3632   -2.1298   21.7913 H   0  0  0  0  0  0  0  0  0  0  0  0
    5.0712    1.8129   16.6995 H   0  0  0  0  0  0  0  0  0  0  0  0
    8.1159   -0.6122   17.9919 H   0  0  0  0  0  0  0  0  0  0  0  0
   14.8967    3.5774   23.3112 H   0  0  0  0  0  0  0  0  0  0  0  0
   14.0352    3.3572   21.7561 H   0  0  0  0  0  0  0  0  0  0  0  0
   11.3740    3.9512   22.2396 H   0  0  0  0  0  0  0  0  0  0  0  0
   11.2568    4.3894   23.9720 H   0  0  0  0  0  0  0  0  0  0  0  0
   12.9896    2.7715   24.6486 H   0  0  0  0  0  0  0  0  0  0  0  0
    4.0900    1.3363   21.2578 H   0  0  0  0  0  0  0  0  0  0  0  0
    5.0561   -0.0637   21.7851 H   0  0  0  0  0  0  0  0  0  0  0  0
    5.7462    1.5559   21.8749 H   0  0  0  0  0  0  0  0  0  0  0  0
    9.0901   -1.6664   22.2639 H   0  0  0  0  0  0  0  0  0  0  0  0
    8.6578   -0.3097   23.2977 H   0  0  0  0  0  0  0  0  0  0  0  0
    7.3129   -1.4300   20.9567 H   0  0  0  0  0  0  0  0  0  0  0  0
   13.4230    5.3152   23.9097 H   0  0  0  0  0  0  0  0  0  0  0  0
   13.1579    5.4745   22.2581 H   0  0  0  0  0  0  0  0  0  0  0  0
  1  5  2  0  0  0  0
  1  8  1  0  0  0  0
  2  7  1  0  0  0  0
  2  9  2  0  0  0  0
  3  7  2  0  0  0  0
  3 11  1  0  0  0  0
  4  9  1  0  0  0  0
  4 11  2  0  0  0  0
  5 18  1  0  0  0  0
  6 10  1  0  0  0  0
  6 18  2  0  0  0  0
  7 15  1  0  0  0  0
  8 10  2  0  0  0  0
  8 16  1  0  0  0  0
  9 17  1  0  0  0  0
 10 19  1  0  0  0  0
 11 22  1  0  0  0  0
 12 17  1  0  0  0  0
 12 19  1  0  0  0  0
 12 21  2  0  0  0  0
 13 15  1  0  0  0  0
 13 20  1  0  0  0  0
 14 15  1  0  0  0  0
 14 20  1  0  0  0  0
  1 23  1  0  0  0  0
  2 24  1  0  0  0  0
  3 25  1  0  0  0  0
  4 26  1  0  0  0  0
  5 27  1  0  0  0  0
  6 28  1  0  0  0  0
 13 29  1  0  0  0  0
 13 30  1  0  0  0  0
 14 31  1  0  0  0  0
 14 32  1  0  0  0  0
 15 33  1  0  0  0  0
 16 34  1  0  0  0  0
 16 35  1  0  0  0  0
 16 36  1  0  0  0  0
 17 37  1  0  0  0  0
 17 38  1  0  0  0  0
 19 39  1  0  0  0  0
 20 40  1  0  0  0  0
 20 41  1  0  0  0  0
M  CHG  1  20   1
M  END
> <BB_SMILES>
CC1(C)OB(C2CNC2)OC1(C)C

> <scaffold_SMILES>
Cc1ccncc1NC(=O)Cc1cc(Cl)cc(Br)c1

$$$$
EN300-384181
  -OEChem-07272002243D

 38 40  0     0  0  0  0  0  0999 V2000
    5.0000    1.4070   18.8080 C   0  0  0  0  0  0  0  0  0  0  0  0
   11.0490    1.0010   23.0460 C   0  0  0  0  0  0  0  0  0  0  0  0
   13.3680    0.4840   22.6240 C   0  0  0  0  0  0  0  0  0  0  0  0
   11.6520   -1.1420   22.1450 C   0  0  0  0  0  0  0  0  0  0  0  0
   12.5606    3.2628   24.7540 C   0  0  0  0  0  0  0  0  0  0  0  0
    5.5330    1.3060   17.5390 C   0  0  0  0  0  0  0  0  0  0  0  0
    7.2400   -0.0390   18.2610 C   0  0  0  0  0  0  0  0  0  0  0  0
   13.6681    4.9707   23.6322 C   0  0  0  0  0  0  0  0  0  0  0  0
   12.3850    1.3610   23.0530 C   0  0  0  0  0  0  0  0  0  0  0  0
    5.6260    0.7590   19.8690 C   0  0  0  0  0  0  0  0  0  0  0  0
   10.6720   -0.2500   22.5660 C   0  0  0  0  0  0  0  0  0  0  0  0
    6.7930    0.0210   19.5790 C   0  0  0  0  0  0  0  0  0  0  0  0
   13.0839    4.5864   24.8190 C   0  0  0  0  0  0  0  0  0  0  0  0
   12.9770   -0.7640   22.1810 C   0  0  0  0  0  0  0  0  0  0  0  0
   12.7645    2.6859   23.5197 C   0  0  0  0  0  0  0  0  0  0  0  0
    8.6020    0.1230   21.2070 C   0  0  0  0  0  0  0  0  0  0  0  0
    5.0980    0.9060   21.2740 C   0  0  0  0  0  0  0  0  0  0  0  0
    9.2100   -0.5900   22.3990 C   0  0  0  0  0  0  0  0  0  0  0  0
    6.6320    0.5940   17.2520 N   0  0  0  0  0  0  0  0  0  0  0  0
    7.5630   -0.5230   20.6330 N   0  0  0  0  0  0  0  0  0  0  0  0
    9.0150    1.2120   20.8220 O   0  0  0  0  0  0  0  0  0  0  0  0
   13.0160    5.3618   25.9025 F   0  0  0  0  0  0  0  0  0  0  0  0
   13.5842    3.7384   22.4461 S   0  0  0  0  0  0  0  0  0  0  0  0
   14.1940   -1.9100   21.6990 Cl  0  0  0  0  0  0  0  0  0  0  0  0
    4.0894    1.9955   18.9731 H   0  0  0  0  0  0  0  0  0  0  0  0
   10.2872    1.6875   23.4133 H   0  0  0  0  0  0  0  0  0  0  0  0
   14.4086    0.7688   22.6369 H   0  0  0  0  0  0  0  0  0  0  0  0
   11.3634   -2.1302   21.7918 H   0  0  0  0  0  0  0  0  0  0  0  0
   12.0606    2.7657   25.5761 H   0  0  0  0  0  0  0  0  0  0  0  0
    5.0712    1.8129   16.6995 H   0  0  0  0  0  0  0  0  0  0  0  0
    8.1159   -0.6122   17.9919 H   0  0  0  0  0  0  0  0  0  0  0  0
   14.1400    5.9162   23.4053 H   0  0  0  0  0  0  0  0  0  0  0  0
    4.4460    1.7843   21.3447 H   0  0  0  0  0  0  0  0  0  0  0  0
    4.5259    0.0205   21.5771 H   0  0  0  0  0  0  0  0  0  0  0  0
    5.9169    1.0193   21.9952 H   0  0  0  0  0  0  0  0  0  0  0  0
    9.0901   -1.6664   22.2639 H   0  0  0  0  0  0  0  0  0  0  0  0
    8.6579   -0.3097   23.2977 H   0  0  0  0  0  0  0  0  0  0  0  0
    7.3129   -1.4300   20.9567 H   0  0  0  0  0  0  0  0  0  0  0  0
  1  6  2  0  0  0  0
  1 10  1  0  0  0  0
  2  9  1  0  0  0  0
  2 11  2  0  0  0  0
  3  9  2  0  0  0  0
  3 14  1  0  0  0  0
  4 11  1  0  0  0  0
  4 14  2  0  0  0  0
  5 13  1  0  0  0  0
  5 15  2  0  0  0  0
  6 19  1  0  0  0  0
  7 12  1  0  0  0  0
  7 19  2  0  0  0  0
  8 13  2  0  0  0  0
  8 23  1  0  0  0  0
  9 15  1  0  0  0  0
 10 12  2  0  0  0  0
 10 17  1  0  0  0  0
 11 18  1  0  0  0  0
 12 20  1  0  0  0  0
 13 22  1  0  0  0  0
 14 24  1  0  0  0  0
 15 23  1  0  0  0  0
 16 18  1  0  0  0  0
 16 20  1  0  0  0  0
 16 21  2  0  0  0  0
  1 25  1  0  0  0  0
  2 26  1  0  0  0  0
  3 27  1  0  0  0  0
  4 28  1  0  0  0  0
  5 29  1  0  0  0  0
  6 30  1  0  0  0  0
  7 31  1  0  0  0  0
  8 32  1  0  0  0  0
 17 33  1  0  0  0  0
 17 34  1  0  0  0  0
 17 35  1  0  0  0  0
 18 36  1  0  0  0  0
 18 37  1  0  0  0  0
 20 38  1  0  0  0  0
M  END
> <BB_SMILES>
OB(O)c1cc(F)cs1

> <scaffold_SMILES>
Cc1ccncc1NC(=O)Cc1cc(Cl)cc(Br)c1

$$$$
EN300-6759922
  -OEChem-07272002243D

 48 51  0     1  0  0  0  0  0999 V2000
    5.0000    1.4070   18.8080 C   0  0  0  0  0  0  0  0  0  0  0  0
   11.0490    1.0010   23.0460 C   0  0  0  0  0  0  0  0  0  0  0  0
   13.3680    0.4840   22.6240 C   0  0  0  0  0  0  0  0  0  0  0  0
   11.6520   -1.1420   22.1450 C   0  0  0  0  0  0  0  0  0  0  0  0
    5.5330    1.3060   17.5390 C   0  0  0  0  0  0  0  0  0  0  0  0
    7.2400   -0.0390   18.2610 C   0  0  0  0  0  0  0  0  0  0  0  0
   12.3850    1.3610   23.0530 C   0  0  0  0  0  0  0  0  0  0  0  0
    5.6260    0.7590   19.8690 C   0  0  0  0  0  0  0  0  0  0  0  0
   10.6720   -0.2500   22.5660 C   0  0  0  0  0  0  0  0  0  0  0  0
    6.7930    0.0210   19.5790 C   0  0  0  0  0  0  0  0  0  0  0  0
   12.9770   -0.7640   22.1810 C   0  0  0  0  0  0  0  0  0  0  0  0
    8.6020    0.1230   21.2070 C   0  0  0  0  0  0  0  0  0  0  0  0
   11.7955    3.8980   23.5031 C   0  0  0  0  0  0  0  0  0  0  0  0
   14.0698    4.8608   22.5529 C   0  0  0  0  0  0  0  0  0  0  0  0
   12.9054    3.8952   21.1071 C   0  0  0  0  0  0  0  0  0  0  0  0
   12.7836    2.7472   23.5429 C   0  0  2  0  0  0  0  0  0  0  0  0
   12.9667    3.8803   22.5817 C   0  0  0  0  0  0  0  0  0  0  0  0
    5.0980    0.9060   21.2740 C   0  0  0  0  0  0  0  0  0  0  0  0
   14.7866    5.2023   20.2361 C   0  0  0  0  0  0  0  0  0  0  0  0
    9.2100   -0.5900   22.3990 C   0  0  0  0  0  0  0  0  0  0  0  0
    6.6320    0.5940   17.2520 N   0  0  0  0  0  0  0  0  0  0  0  0
    7.5630   -0.5230   20.6330 N   0  0  0  0  0  0  0  0  0  0  0  0
   13.6423    5.1744   21.1748 N   0  3  0  0  0  0  0  0  0  0  0  0
    9.0150    1.2120   20.8220 O   0  0  0  0  0  0  0  0  0  0  0  0
   14.1940   -1.9100   21.6990 Cl  0  0  0  0  0  0  0  0  0  0  0  0
    4.0894    1.9955   18.9731 H   0  0  0  0  0  0  0  0  0  0  0  0
   10.2920    1.6908   23.4149 H   0  0  0  0  0  0  0  0  0  0  0  0
   14.4066    0.7739   22.6379 H   0  0  0  0  0  0  0  0  0  0  0  0
   11.3632   -2.1298   21.7911 H   0  0  0  0  0  0  0  0  0  0  0  0
    5.0712    1.8129   16.6995 H   0  0  0  0  0  0  0  0  0  0  0  0
    8.1159   -0.6122   17.9919 H   0  0  0  0  0  0  0  0  0  0  0  0
   10.8117    3.7241   23.0833 H   0  0  0  0  0  0  0  0  0  0  0  0
   11.8058    4.5938   24.3337 H   0  0  0  0  0  0  0  0  0  0  0  0
   13.9863    5.7208   23.2236 H   0  0  0  0  0  0  0  0  0  0  0  0
   15.0726    4.4287   22.6410 H   0  0  0  0  0  0  0  0  0  0  0  0
   13.4429    3.0797   20.6109 H   0  0  0  0  0  0  0  0  0  0  0  0
   11.9170    4.0058   20.6520 H   0  0  0  0  0  0  0  0  0  0  0  0
   13.4592    2.7389   24.4043 H   0  0  0  0  0  0  0  0  0  0  0  0
    4.7095    1.9191   21.4297 H   0  0  0  0  0  0  0  0  0  0  0  0
    4.2923    0.1883   21.4717 H   0  0  0  0  0  0  0  0  0  0  0  0
    5.8844    0.7153   22.0148 H   0  0  0  0  0  0  0  0  0  0  0  0
   15.3621    4.2867   20.3840 H   0  0  0  0  0  0  0  0  0  0  0  0
   14.3858    5.2546   19.2221 H   0  0  0  0  0  0  0  0  0  0  0  0
   15.3867    6.0845   20.4670 H   0  0  0  0  0  0  0  0  0  0  0  0
    9.0901   -1.6664   22.2639 H   0  0  0  0  0  0  0  0  0  0  0  0
    8.6579   -0.3097   23.2977 H   0  0  0  0  0  0  0  0  0  0  0  0
    7.3129   -1.4300   20.9567 H   0  0  0  0  0  0  0  0  0  0  0  0
   13.0355    6.0034   21.1098 H   0  0  0  0  0  0  0  0  0  0  0  0
  1  5  2  0  0  0  0
  1  8  1  0  0  0  0
  2  7  1  0  0  0  0
  2  9  2  0  0  0  0
  3  7  2  0  0  0  0
  3 11  1  0  0  0  0
  4  9  1  0  0  0  0
  4 11  2  0  0  0  0
  5 21  1  0  0  0  0
  6 10  1  0  0  0  0
  6 21  2  0  0  0  0
  7 16  1  1  0  0  0
  8 10  2  0  0  0  0
  8 18  1  0  0  0  0
  9 20  1  0  0  0  0
 10 22  1  0  0  0  0
 11 25  1  0  0  0  0
 12 20  1  0  0  0  0
 12 22  1  0  0  0  0
 12 24  2  0  0  0  0
 13 16  1  0  0  0  0
 13 17  1  0  0  0  0
 14 17  1  0  0  0  0
 14 23  1  0  0  0  0
 15 17  1  0  0  0  0
 15 23  1  0  0  0  0
 16 17  1  0  0  0  0
 19 23  1  0  0  0  0
  1 26  1  0  0  0  0
  2 27  1  0  0  0  0
  3 28  1  0  0  0  0
  4 29  1  0  0  0  0
  5 30  1  0  0  0  0
  6 31  1  0  0  0  0
 13 32  1  0  0  0  0
 13 33  1  0  0  0  0
 14 34  1  0  0  0  0
 14 35  1  0  0  0  0
 15 36  1  0  0  0  0
 15 37  1  0  0  0  0
 16 38  1  0  0  0  0
 18 39  1  0  0  0  0
 18 40  1  0  0  0  0
 18 41  1  0  0  0  0
 19 42  1  0  0  0  0
 19 43  1  0  0  0  0
 19 44  1  0  0  0  0
 20 45  1  0  0  0  0
 20 46  1  0  0  0  0
 22 47  1  0  0  0  0
 23 48  1  0  0  0  0
M  CHG  1  23   1
M  END
> <BB_SMILES>
CN1CC2(CC2B2OC(C)(C)C(C)(C)O2)C1

> <scaffold_SMILES>
Cc1ccncc1NC(=O)Cc1cc(Cl)cc(Br)c1

$$$$
EN300-6759922
  -OEChem-07272002243D

 48 51  0     1  0  0  0  0  0999 V2000
    5.0000    1.4070   18.8080 C   0  0  0  0  0  0  0  0  0  0  0  0
   11.0490    1.0010   23.0460 C   0  0  0  0  0  0  0  0  0  0  0  0
   13.3680    0.4840   22.6240 C   0  0  0  0  0  0  0  0  0  0  0  0
   11.6520   -1.1420   22.1450 C   0  0  0  0  0  0  0  0  0  0  0  0
    5.5330    1.3060   17.5390 C   0  0  0  0  0  0  0  0  0  0  0  0
    7.2400   -0.0390   18.2610 C   0  0  0  0  0  0  0  0  0  0  0  0
   12.3850    1.3610   23.0530 C   0  0  0  0  0  0  0  0  0  0  0  0
    5.6260    0.7590   19.8690 C   0  0  0  0  0  0  0  0  0  0  0  0
   10.6720   -0.2500   22.5660 C   0  0  0  0  0  0  0  0  0  0  0  0
    6.7930    0.0210   19.5790 C   0  0  0  0  0  0  0  0  0  0  0  0
   12.9770   -0.7640   22.1810 C   0  0  0  0  0  0  0  0  0  0  0  0
    8.6020    0.1230   21.2070 C   0  0  0  0  0  0  0  0  0  0  0  0
   13.6238    3.6638   22.6733 C   0  0  0  0  0  0  0  0  0  0  0  0
   11.6741    5.1680   23.6413 C   0  0  0  0  0  0  0  0  0  0  0  0
   11.1378    4.1225   21.9099 C   0  0  0  0  0  0  0  0  0  0  0  0
   12.7836    2.7471   23.5429 C   0  0  1  0  0  0  0  0  0  0  0  0
   12.1909    3.9799   22.9341 C   0  0  0  0  0  0  0  0  0  0  0  0
    5.0980    0.9060   21.2740 C   0  0  0  0  0  0  0  0  0  0  0  0
    9.5701    5.8734   22.6052 C   0  0  0  0  0  0  0  0  0  0  0  0
    9.2100   -0.5900   22.3990 C   0  0  0  0  0  0  0  0  0  0  0  0
    6.6320    0.5940   17.2520 N   0  0  0  0  0  0  0  0  0  0  0  0
    7.5630   -0.5230   20.6330 N   0  0  0  0  0  0  0  0  0  0  0  0
   10.9889    5.5156   22.3803 N   0  3  0  0  0  0  0  0  0  0  0  0
    9.0150    1.2120   20.8220 O   0  0  0  0  0  0  0  0  0  0  0  0
   14.1940   -1.9100   21.6990 Cl  0  0  0  0  0  0  0  0  0  0  0  0
    4.0894    1.9955   18.9731 H   0  0  0  0  0  0  0  0  0  0  0  0
   10.2920    1.6908   23.4149 H   0  0  0  0  0  0  0  0  0  0  0  0
   14.4066    0.7739   22.6379 H   0  0  0  0  0  0  0  0  0  0  0  0
   11.3632   -2.1298   21.7911 H   0  0  0  0  0  0  0  0  0  0  0  0
    5.0712    1.8129   16.6995 H   0  0  0  0  0  0  0  0  0  0  0  0
    8.1159   -0.6122   17.9919 H   0  0  0  0  0  0  0  0  0  0  0  0
   14.3800    4.2640   23.1654 H   0  0  0  0  0  0  0  0  0  0  0  0
   13.9022    3.3270   21.6816 H   0  0  0  0  0  0  0  0  0  0  0  0
   11.0101    4.9501   24.4850 H   0  0  0  0  0  0  0  0  0  0  0  0
   12.4057    5.9227   23.9435 H   0  0  0  0  0  0  0  0  0  0  0  0
   11.4517    4.0657   20.8636 H   0  0  0  0  0  0  0  0  0  0  0  0
   10.2556    3.4901   22.0575 H   0  0  0  0  0  0  0  0  0  0  0  0
   12.9912    2.7988   24.6167 H   0  0  0  0  0  0  0  0  0  0  0  0
    5.3176    1.9084   21.6593 H   0  0  0  0  0  0  0  0  0  0  0  0
    4.0130    0.7482   21.3082 H   0  0  0  0  0  0  0  0  0  0  0  0
    5.5496    0.1661   21.9464 H   0  0  0  0  0  0  0  0  0  0  0  0
    9.1208    5.0888   23.2167 H   0  0  0  0  0  0  0  0  0  0  0  0
    9.5458    6.8353   23.1208 H   0  0  0  0  0  0  0  0  0  0  0  0
    9.0833    5.9382   21.6302 H   0  0  0  0  0  0  0  0  0  0  0  0
    9.0901   -1.6664   22.2639 H   0  0  0  0  0  0  0  0  0  0  0  0
    8.6579   -0.3097   23.2977 H   0  0  0  0  0  0  0  0  0  0  0  0
    7.3129   -1.4300   20.9567 H   0  0  0  0  0  0  0  0  0  0  0  0
   11.5014    6.2013   21.8087 H   0  0  0  0  0  0  0  0  0  0  0  0
  1  5  2  0  0  0  0
  1  8  1  0  0  0  0
  2  7  1  0  0  0  0
  2  9  2  0  0  0  0
  3  7  2  0  0  0  0
  3 11  1  0  0  0  0
  4  9  1  0  0  0  0
  4 11  2  0  0  0  0
  5 21  1  0  0  0  0
  6 10  1  0  0  0  0
  6 21  2  0  0  0  0
  7 16  1  6  0  0  0
  8 10  2  0  0  0  0
  8 18  1  0  0  0  0
  9 20  1  0  0  0  0
 10 22  1  0  0  0  0
 11 25  1  0  0  0  0
 12 20  1  0  0  0  0
 12 22  1  0  0  0  0
 12 24  2  0  0  0  0
 13 16  1  0  0  0  0
 13 17  1  0  0  0  0
 14 17  1  0  0  0  0
 14 23  1  0  0  0  0
 15 17  1  0  0  0  0
 15 23  1  0  0  0  0
 16 17  1  0  0  0  0
 19 23  1  0  0  0  0
  1 26  1  0  0  0  0
  2 27  1  0  0  0  0
  3 28  1  0  0  0  0
  4 29  1  0  0  0  0
  5 30  1  0  0  0  0
  6 31  1  0  0  0  0
 13 32  1  0  0  0  0
 13 33  1  0  0  0  0
 14 34  1  0  0  0  0
 14 35  1  0  0  0  0
 15 36  1  0  0  0  0
 15 37  1  0  0  0  0
 16 38  1  0  0  0  0
 18 39  1  0  0  0  0
 18 40  1  0  0  0  0
 18 41  1  0  0  0  0
 19 42  1  0  0  0  0
 19 43  1  0  0  0  0
 19 44  1  0  0  0  0
 20 45  1  0  0  0  0
 20 46  1  0  0  0  0
 22 47  1  0  0  0  0
 23 48  1  0  0  0  0
M  CHG  1  23   1
M  END
> <BB_SMILES>
CN1CC2(CC2B2OC(C)(C)C(C)(C)O2)C1

> <scaffold_SMILES>
Cc1ccncc1NC(=O)Cc1cc(Cl)cc(Br)c1

$$$$
EN300-6745222
  -OEChem-07272002243D

 64 66  0     1  0  0  0  0  0999 V2000
    5.0000    1.4070   18.8080 C   0  0  0  0  0  0  0  0  0  0  0  0
   11.0490    1.0010   23.0460 C   0  0  0  0  0  0  0  0  0  0  0  0
   13.3680    0.4840   22.6240 C   0  0  0  0  0  0  0  0  0  0  0  0
   11.6520   -1.1420   22.1450 C   0  0  0  0  0  0  0  0  0  0  0  0
    5.5330    1.3060   17.5390 C   0  0  0  0  0  0  0  0  0  0  0  0
    7.2400   -0.0390   18.2610 C   0  0  0  0  0  0  0  0  0  0  0  0
   12.3850    1.3610   23.0530 C   0  0  0  0  0  0  0  0  0  0  0  0
    5.6260    0.7590   19.8690 C   0  0  0  0  0  0  0  0  0  0  0  0
   10.6720   -0.2500   22.5660 C   0  0  0  0  0  0  0  0  0  0  0  0
    6.7930    0.0210   19.5790 C   0  0  0  0  0  0  0  0  0  0  0  0
   12.9770   -0.7640   22.1810 C   0  0  0  0  0  0  0  0  0  0  0  0
    8.6020    0.1230   21.2070 C   0  0  0  0  0  0  0  0  0  0  0  0
   12.8566    4.1358   21.4251 C   0  0  0  0  0  0  0  0  0  0  0  0
   11.7814    5.3488   25.4444 C   0  0  0  0  0  0  0  0  0  0  0  0
   12.8600    4.2823   25.6158 C   0  0  0  0  0  0  0  0  0  0  0  0
   11.5110    5.7657   24.0026 C   0  0  0  0  0  0  0  0  0  0  0  0
   12.4649    2.9198   25.0433 C   0  0  0  0  0  0  0  0  0  0  0  0
   11.0995    4.6131   23.0928 C   0  0  0  0  0  0  0  0  0  0  0  0
   12.7860    2.7604   23.5442 C   0  0  2  0  0  0  0  0  0  0  0  0
    5.0980    0.9060   21.2740 C   0  0  0  0  0  0  0  0  0  0  0  0
   13.8616    5.2453   18.9845 C   0  0  0  0  0  0  0  0  0  0  0  0
   13.4660    7.4827   20.0552 C   0  0  0  0  0  0  0  0  0  0  0  0
   15.1080    5.8802   21.0768 C   0  0  0  0  0  0  0  0  0  0  0  0
    9.2100   -0.5900   22.3990 C   0  0  0  0  0  0  0  0  0  0  0  0
   13.7965    6.0127   20.3042 C   0  0  0  0  0  0  0  0  0  0  0  0
    6.6320    0.5940   17.2520 N   0  0  0  0  0  0  0  0  0  0  0  0
   12.2556    3.8237   22.6600 N   0  0  0  0  0  0  0  0  0  0  0  0
    7.5630   -0.5230   20.6330 N   0  0  0  0  0  0  0  0  0  0  0  0
    9.0150    1.2120   20.8220 O   0  0  0  0  0  0  0  0  0  0  0  0
   13.4280    3.3182   20.7055 O   0  0  0  0  0  0  0  0  0  0  0  0
   12.7409    5.4620   21.0999 O   0  0  0  0  0  0  0  0  0  0  0  0
   14.1940   -1.9100   21.6990 Cl  0  0  0  0  0  0  0  0  0  0  0  0
    4.0894    1.9955   18.9731 H   0  0  0  0  0  0  0  0  0  0  0  0
   10.2922    1.6915   23.4141 H   0  0  0  0  0  0  0  0  0  0  0  0
   14.4065    0.7745   22.6386 H   0  0  0  0  0  0  0  0  0  0  0  0
   11.3638   -2.1301   21.7911 H   0  0  0  0  0  0  0  0  0  0  0  0
    5.0712    1.8129   16.6995 H   0  0  0  0  0  0  0  0  0  0  0  0
    8.1159   -0.6122   17.9919 H   0  0  0  0  0  0  0  0  0  0  0  0
   10.8476    4.9982   25.9018 H   0  0  0  0  0  0  0  0  0  0  0  0
   12.0811    6.2404   26.0089 H   0  0  0  0  0  0  0  0  0  0  0  0
   13.8098    4.6234   25.1874 H   0  0  0  0  0  0  0  0  0  0  0  0
   13.0314    4.1594   26.6928 H   0  0  0  0  0  0  0  0  0  0  0  0
   10.6998    6.5045   24.0133 H   0  0  0  0  0  0  0  0  0  0  0  0
   12.3861    6.2825   23.5897 H   0  0  0  0  0  0  0  0  0  0  0  0
   13.0314    2.1510   25.5878 H   0  0  0  0  0  0  0  0  0  0  0  0
   11.4091    2.7058   25.2545 H   0  0  0  0  0  0  0  0  0  0  0  0
   10.3614    3.9545   23.5631 H   0  0  0  0  0  0  0  0  0  0  0  0
   10.6154    5.0346   22.2042 H   0  0  0  0  0  0  0  0  0  0  0  0
   13.9031    2.7974   23.4501 H   0  0  0  0  0  0  0  0  0  0  0  0
    5.1131   -0.0617   21.7886 H   0  0  0  0  0  0  0  0  0  0  0  0
    5.7002    1.6184   21.8512 H   0  0  0  0  0  0  0  0  0  0  0  0
    4.0687    1.2855   21.2728 H   0  0  0  0  0  0  0  0  0  0  0  0
   14.0986    4.1896   19.1589 H   0  0  0  0  0  0  0  0  0  0  0  0
   12.9153    5.3033   18.4369 H   0  0  0  0  0  0  0  0  0  0  0  0
   14.6578    5.6388   18.3422 H   0  0  0  0  0  0  0  0  0  0  0  0
   13.4182    8.0372   20.9994 H   0  0  0  0  0  0  0  0  0  0  0  0
   12.4811    7.5873   19.5857 H   0  0  0  0  0  0  0  0  0  0  0  0
   14.2102    7.9605   19.4099 H   0  0  0  0  0  0  0  0  0  0  0  0
   15.0615    6.4306   22.0235 H   0  0  0  0  0  0  0  0  0  0  0  0
   15.3426    4.8337   21.2967 H   0  0  0  0  0  0  0  0  0  0  0  0
   15.9402    6.3117   20.5089 H   0  0  0  0  0  0  0  0  0  0  0  0
    9.0902   -1.6664   22.2639 H   0  0  0  0  0  0  0  0  0  0  0  0
    8.6579   -0.3097   23.2977 H   0  0  0  0  0  0  0  0  0  0  0  0
    7.3129   -1.4300   20.9567 H   0  0  0  0  0  0  0  0  0  0  0  0
  1  5  2  0  0  0  0
  1  8  1  0  0  0  0
  2  7  1  0  0  0  0
  2  9  2  0  0  0  0
  3  7  2  0  0  0  0
  3 11  1  0  0  0  0
  4  9  1  0  0  0  0
  4 11  2  0  0  0  0
  5 26  1  0  0  0  0
  6 10  1  0  0  0  0
  6 26  2  0  0  0  0
  7 19  1  1  0  0  0
  8 10  2  0  0  0  0
  8 20  1  0  0  0  0
  9 24  1  0  0  0  0
 10 28  1  0  0  0  0
 11 32  1  0  0  0  0
 12 24  1  0  0  0  0
 12 28  1  0  0  0  0
 12 29  2  0  0  0  0
 13 27  1  0  0  0  0
 13 30  2  0  0  0  0
 13 31  1  0  0  0  0
 14 15  1  0  0  0  0
 14 16  1  0  0  0  0
 15 17  1  0  0  0  0
 16 18  1  0  0  0  0
 17 19  1  0  0  0  0
 18 27  1  0  0  0  0
 19 27  1  0  0  0  0
 21 25  1  0  0  0  0
 22 25  1  0  0  0  0
 23 25  1  0  0  0  0
 25 31  1  0  0  0  0
  1 33  1  0  0  0  0
  2 34  1  0  0  0  0
  3 35  1  0  0  0  0
  4 36  1  0  0  0  0
  5 37  1  0  0  0  0
  6 38  1  0  0  0  0
 14 39  1  0  0  0  0
 14 40  1  0  0  0  0
 15 41  1  0  0  0  0
 15 42  1  0  0  0  0
 16 43  1  0  0  0  0
 16 44  1  0  0  0  0
 17 45  1  0  0  0  0
 17 46  1  0  0  0  0
 18 47  1  0  0  0  0
 18 48  1  0  0  0  0
 19 49  1  0  0  0  0
 20 50  1  0  0  0  0
 20 51  1  0  0  0  0
 20 52  1  0  0  0  0
 21 53  1  0  0  0  0
 21 54  1  0  0  0  0
 21 55  1  0  0  0  0
 22 56  1  0  0  0  0
 22 57  1  0  0  0  0
 22 58  1  0  0  0  0
 23 59  1  0  0  0  0
 23 60  1  0  0  0  0
 23 61  1  0  0  0  0
 24 62  1  0  0  0  0
 24 63  1  0  0  0  0
 28 64  1  0  0  0  0
M  END
> <BB_SMILES>
CC(C)(C)OC(=O)N1CCCCCC1B1OC(C)(C)C(C)(C)O1

> <scaffold_SMILES>
Cc1ccncc1NC(=O)Cc1cc(Cl)cc(Br)c1

$$$$
EN300-6745222
  -OEChem-07272002243D

 64 66  0     1  0  0  0  0  0999 V2000
    5.0000    1.4070   18.8080 C   0  0  0  0  0  0  0  0  0  0  0  0
   11.0490    1.0010   23.0460 C   0  0  0  0  0  0  0  0  0  0  0  0
   13.3680    0.4840   22.6240 C   0  0  0  0  0  0  0  0  0  0  0  0
   11.6520   -1.1420   22.1450 C   0  0  0  0  0  0  0  0  0  0  0  0
    5.5330    1.3060   17.5390 C   0  0  0  0  0  0  0  0  0  0  0  0
    7.2400   -0.0390   18.2610 C   0  0  0  0  0  0  0  0  0  0  0  0
   12.3850    1.3610   23.0530 C   0  0  0  0  0  0  0  0  0  0  0  0
    5.6260    0.7590   19.8690 C   0  0  0  0  0  0  0  0  0  0  0  0
   10.6720   -0.2500   22.5660 C   0  0  0  0  0  0  0  0  0  0  0  0
    6.7930    0.0210   19.5790 C   0  0  0  0  0  0  0  0  0  0  0  0
   12.9770   -0.7640   22.1810 C   0  0  0  0  0  0  0  0  0  0  0  0
    8.6020    0.1230   21.2070 C   0  0  0  0  0  0  0  0  0  0  0  0
   11.4238    4.9006   23.6591 C   0  0  0  0  0  0  0  0  0  0  0  0
   14.4652    4.1715   21.2646 C   0  0  0  0  0  0  0  0  0  0  0  0
   15.0717    3.2521   22.3201 C   0  0  0  0  0  0  0  0  0  0  0  0
   13.1878    3.6018   20.6583 C   0  0  0  0  0  0  0  0  0  0  0  0
   14.2859    3.1274   23.6268 C   0  0  0  0  0  0  0  0  0  0  0  0
   11.9256    3.9433   21.4424 C   0  0  0  0  0  0  0  0  0  0  0  0
   12.7862    2.7613   23.5446 C   0  0  1  0  0  0  0  0  0  0  0  0
    5.0980    0.9060   21.2740 C   0  0  0  0  0  0  0  0  0  0  0  0
    9.4998    5.7658   25.5954 C   0  0  0  0  0  0  0  0  0  0  0  0
   11.3101    5.3803   27.2935 C   0  0  0  0  0  0  0  0  0  0  0  0
   11.6317    7.0996   25.4910 C   0  0  0  0  0  0  0  0  0  0  0  0
    9.2100   -0.5900   22.3990 C   0  0  0  0  0  0  0  0  0  0  0  0
   11.0075    5.7500   25.8430 C   0  0  0  0  0  0  0  0  0  0  0  0
    6.6320    0.5940   17.2520 N   0  0  0  0  0  0  0  0  0  0  0  0
   12.0357    3.8786   22.9044 N   0  0  0  0  0  0  0  0  0  0  0  0
    7.5630   -0.5230   20.6330 N   0  0  0  0  0  0  0  0  0  0  0  0
    9.0150    1.2120   20.8220 O   0  0  0  0  0  0  0  0  0  0  0  0
   10.8026    5.8446   23.1731 O   0  0  0  0  0  0  0  0  0  0  0  0
   11.5956    4.7445   25.0097 O   0  0  0  0  0  0  0  0  0  0  0  0
   14.1940   -1.9100   21.6990 Cl  0  0  0  0  0  0  0  0  0  0  0  0
    4.0894    1.9955   18.9731 H   0  0  0  0  0  0  0  0  0  0  0  0
   10.2922    1.6915   23.4141 H   0  0  0  0  0  0  0  0  0  0  0  0
   14.4065    0.7745   22.6386 H   0  0  0  0  0  0  0  0  0  0  0  0
   11.3638   -2.1301   21.7911 H   0  0  0  0  0  0  0  0  0  0  0  0
    5.0712    1.8129   16.6995 H   0  0  0  0  0  0  0  0  0  0  0  0
    8.1159   -0.6122   17.9919 H   0  0  0  0  0  0  0  0  0  0  0  0
   14.2647    5.1437   21.7012 H   0  0  0  0  0  0  0  0  0  0  0  0
   15.1930    4.3207   20.4739 H   0  0  0  0  0  0  0  0  0  0  0  0
   15.2003    2.2526   21.8987 H   0  0  0  0  0  0  0  0  0  0  0  0
   16.0739    3.6228   22.5495 H   0  0  0  0  0  0  0  0  0  0  0  0
   13.0923    4.0030   19.6479 H   0  0  0  0  0  0  0  0  0  0  0  0
   13.2710    2.5190   20.5681 H   0  0  0  0  0  0  0  0  0  0  0  0
   14.8164    2.4201   24.3014 H   0  0  0  0  0  0  0  0  0  0  0  0
   14.3879    4.0946   24.1671 H   0  0  0  0  0  0  0  0  0  0  0  0
   11.5946    4.9622   21.1480 H   0  0  0  0  0  0  0  0  0  0  0  0
   11.0764    3.2982   21.1338 H   0  0  0  0  0  0  0  0  0  0  0  0
   12.4083    2.8104   24.6544 H   0  0  0  0  0  0  0  0  0  0  0  0
    5.2669    1.9259   21.6384 H   0  0  0  0  0  0  0  0  0  0  0  0
    4.0229    0.6926   21.3177 H   0  0  0  0  0  0  0  0  0  0  0  0
    5.5909    0.2041   21.9580 H   0  0  0  0  0  0  0  0  0  0  0  0
    9.2785    6.0308   24.5553 H   0  0  0  0  0  0  0  0  0  0  0  0
    9.0454    4.7933   25.8107 H   0  0  0  0  0  0  0  0  0  0  0  0
    9.0092    6.5226   26.2182 H   0  0  0  0  0  0  0  0  0  0  0  0
   12.3908    5.3677   27.4756 H   0  0  0  0  0  0  0  0  0  0  0  0
   10.9466    4.3722   27.5233 H   0  0  0  0  0  0  0  0  0  0  0  0
   10.8485    6.0834   27.9943 H   0  0  0  0  0  0  0  0  0  0  0  0
   12.7132    7.0885   25.6686 H   0  0  0  0  0  0  0  0  0  0  0  0
   11.4562    7.3642   24.4433 H   0  0  0  0  0  0  0  0  0  0  0  0
   11.2226    7.8951   26.1243 H   0  0  0  0  0  0  0  0  0  0  0  0
    9.0902   -1.6664   22.2639 H   0  0  0  0  0  0  0  0  0  0  0  0
    8.6579   -0.3097   23.2977 H   0  0  0  0  0  0  0  0  0  0  0  0
    7.3129   -1.4300   20.9567 H   0  0  0  0  0  0  0  0  0  0  0  0
  1  5  2  0  0  0  0
  1  8  1  0  0  0  0
  2  7  1  0  0  0  0
  2  9  2  0  0  0  0
  3  7  2  0  0  0  0
  3 11  1  0  0  0  0
  4  9  1  0  0  0  0
  4 11  2  0  0  0  0
  5 26  1  0  0  0  0
  6 10  1  0  0  0  0
  6 26  2  0  0  0  0
  7 19  1  6  0  0  0
  8 10  2  0  0  0  0
  8 20  1  0  0  0  0
  9 24  1  0  0  0  0
 10 28  1  0  0  0  0
 11 32  1  0  0  0  0
 12 24  1  0  0  0  0
 12 28  1  0  0  0  0
 12 29  2  0  0  0  0
 13 27  1  0  0  0  0
 13 30  2  0  0  0  0
 13 31  1  0  0  0  0
 14 15  1  0  0  0  0
 14 16  1  0  0  0  0
 15 17  1  0  0  0  0
 16 18  1  0  0  0  0
 17 19  1  0  0  0  0
 18 27  1  0  0  0  0
 19 27  1  0  0  0  0
 21 25  1  0  0  0  0
 22 25  1  0  0  0  0
 23 25  1  0  0  0  0
 25 31  1  0  0  0  0
  1 33  1  0  0  0  0
  2 34  1  0  0  0  0
  3 35  1  0  0  0  0
  4 36  1  0  0  0  0
  5 37  1  0  0  0  0
  6 38  1  0  0  0  0
 14 39  1  0  0  0  0
 14 40  1  0  0  0  0
 15 41  1  0  0  0  0
 15 42  1  0  0  0  0
 16 43  1  0  0  0  0
 16 44  1  0  0  0  0
 17 45  1  0  0  0  0
 17 46  1  0  0  0  0
 18 47  1  0  0  0  0
 18 48  1  0  0  0  0
 19 49  1  0  0  0  0
 20 50  1  0  0  0  0
 20 51  1  0  0  0  0
 20 52  1  0  0  0  0
 21 53  1  0  0  0  0
 21 54  1  0  0  0  0
 21 55  1  0  0  0  0
 22 56  1  0  0  0  0
 22 57  1  0  0  0  0
 22 58  1  0  0  0  0
 23 59  1  0  0  0  0
 23 60  1  0  0  0  0
 23 61  1  0  0  0  0
 24 62  1  0  0  0  0
 24 63  1  0  0  0  0
 28 64  1  0  0  0  0
M  END
> <BB_SMILES>
CC(C)(C)OC(=O)N1CCCCCC1B1OC(C)(C)C(C)(C)O1

> <scaffold_SMILES>
Cc1ccncc1NC(=O)Cc1cc(Cl)cc(Br)c1

$$$$
EN300-7427526
  -OEChem-07272002243D

 59 62  0     1  0  0  0  0  0999 V2000
    5.0000    1.4070   18.8080 C   0  0  0  0  0  0  0  0  0  0  0  0
   11.0490    1.0010   23.0460 C   0  0  0  0  0  0  0  0  0  0  0  0
   13.3680    0.4840   22.6240 C   0  0  0  0  0  0  0  0  0  0  0  0
   11.6520   -1.1420   22.1450 C   0  0  0  0  0  0  0  0  0  0  0  0
    5.5330    1.3060   17.5390 C   0  0  0  0  0  0  0  0  0  0  0  0
    7.2400   -0.0390   18.2610 C   0  0  0  0  0  0  0  0  0  0  0  0
   12.3850    1.3610   23.0530 C   0  0  0  0  0  0  0  0  0  0  0  0
    5.6260    0.7590   19.8690 C   0  0  0  0  0  0  0  0  0  0  0  0
   10.6720   -0.2500   22.5660 C   0  0  0  0  0  0  0  0  0  0  0  0
    6.7930    0.0210   19.5790 C   0  0  0  0  0  0  0  0  0  0  0  0
   12.9770   -0.7640   22.1810 C   0  0  0  0  0  0  0  0  0  0  0  0
    8.6020    0.1230   21.2070 C   0  0  0  0  0  0  0  0  0  0  0  0
   10.6963    4.0802   23.1105 C   0  0  0  0  0  0  0  0  0  0  0  0
   13.3002    2.0337   26.0460 C   0  0  0  0  0  0  0  0  0  0  0  0
   11.8204    4.0716   25.3653 C   0  0  0  0  0  0  0  0  0  0  0  0
   12.7832    2.7508   23.5409 C   0  0  2  0  0  0  0  0  0  0  0  0
   13.1225    3.5075   25.8273 C   0  0  2  0  0  0  0  0  0  0  0  0
   13.6975    2.6670   24.7345 C   0  0  2  0  0  0  0  0  0  0  0  0
    5.0980    0.9060   21.2740 C   0  0  0  0  0  0  0  0  0  0  0  0
    7.9354    4.3793   22.4349 C   0  0  0  0  0  0  0  0  0  0  0  0
    8.0402    6.5274   23.7326 C   0  0  0  0  0  0  0  0  0  0  0  0
    9.4613    6.2341   21.6825 C   0  0  0  0  0  0  0  0  0  0  0  0
    9.2100   -0.5900   22.3990 C   0  0  0  0  0  0  0  0  0  0  0  0
    8.8306    5.5330   22.8848 C   0  0  0  0  0  0  0  0  0  0  0  0
    6.6320    0.5940   17.2520 N   0  0  0  0  0  0  0  0  0  0  0  0
   11.6783    3.6170   23.9800 N   0  0  0  0  0  0  0  0  0  0  0  0
    7.5630   -0.5230   20.6330 N   0  0  0  0  0  0  0  0  0  0  0  0
    9.0150    1.2120   20.8220 O   0  0  0  0  0  0  0  0  0  0  0  0
   10.5688    3.7052   21.9470 O   0  0  0  0  0  0  0  0  0  0  0  0
    9.8781    5.0037   23.7051 O   0  0  0  0  0  0  0  0  0  0  0  0
   14.1940   -1.9100   21.6990 Cl  0  0  0  0  0  0  0  0  0  0  0  0
    4.0894    1.9955   18.9731 H   0  0  0  0  0  0  0  0  0  0  0  0
   10.2922    1.6915   23.4141 H   0  0  0  0  0  0  0  0  0  0  0  0
   14.4065    0.7745   22.6386 H   0  0  0  0  0  0  0  0  0  0  0  0
   11.3638   -2.1301   21.7911 H   0  0  0  0  0  0  0  0  0  0  0  0
    5.0712    1.8129   16.6995 H   0  0  0  0  0  0  0  0  0  0  0  0
    8.1159   -0.6122   17.9919 H   0  0  0  0  0  0  0  0  0  0  0  0
   14.0954    1.7172   26.7104 H   0  0  0  0  0  0  0  0  0  0  0  0
   12.4169    1.4086   26.0840 H   0  0  0  0  0  0  0  0  0  0  0  0
   10.9721    3.7058   25.9524 H   0  0  0  0  0  0  0  0  0  0  0  0
   11.8250    5.1662   25.3802 H   0  0  0  0  0  0  0  0  0  0  0  0
   13.3009    3.2743   22.6998 H   0  0  0  0  0  0  0  0  0  0  0  0
   13.7569    4.2024   26.3564 H   0  0  0  0  0  0  0  0  0  0  0  0
   14.7482    2.7587   24.4974 H   0  0  0  0  0  0  0  0  0  0  0  0
    5.6405    1.6983   21.8026 H   0  0  0  0  0  0  0  0  0  0  0  0
    4.0297    1.1551   21.2719 H   0  0  0  0  0  0  0  0  0  0  0  0
    5.2068   -0.0287   21.8380 H   0  0  0  0  0  0  0  0  0  0  0  0
    8.4991    3.6633   21.8260 H   0  0  0  0  0  0  0  0  0  0  0  0
    7.5046    3.8463   23.2887 H   0  0  0  0  0  0  0  0  0  0  0  0
    7.1158    4.7431   21.8046 H   0  0  0  0  0  0  0  0  0  0  0  0
    8.6786    7.3568   24.0576 H   0  0  0  0  0  0  0  0  0  0  0  0
    7.6652    6.0505   24.6454 H   0  0  0  0  0  0  0  0  0  0  0  0
    7.1887    6.9403   23.1821 H   0  0  0  0  0  0  0  0  0  0  0  0
   10.1035    7.0617   22.0050 H   0  0  0  0  0  0  0  0  0  0  0  0
   10.0629    5.5434   21.0827 H   0  0  0  0  0  0  0  0  0  0  0  0
    8.6905    6.6735   21.0391 H   0  0  0  0  0  0  0  0  0  0  0  0
    9.0902   -1.6664   22.2639 H   0  0  0  0  0  0  0  0  0  0  0  0
    8.6579   -0.3097   23.2977 H   0  0  0  0  0  0  0  0  0  0  0  0
    7.3129   -1.4300   20.9567 H   0  0  0  0  0  0  0  0  0  0  0  0
  1  5  2  0  0  0  0
  1  8  1  0  0  0  0
  2  7  1  0  0  0  0
  2  9  2  0  0  0  0
  3  7  2  0  0  0  0
  3 11  1  0  0  0  0
  4  9  1  0  0  0  0
  4 11  2  0  0  0  0
  5 25  1  0  0  0  0
  6 10  1  0  0  0  0
  6 25  2  0  0  0  0
  7 16  1  1  0  0  0
  8 10  2  0  0  0  0
  8 19  1  0  0  0  0
  9 23  1  0  0  0  0
 10 27  1  0  0  0  0
 11 31  1  0  0  0  0
 12 23  1  0  0  0  0
 12 27  1  0  0  0  0
 12 28  2  0  0  0  0
 13 26  1  0  0  0  0
 13 29  2  0  0  0  0
 13 30  1  0  0  0  0
 14 17  1  1  0  0  0
 14 18  1  1  0  0  0
 15 17  1  0  0  0  0
 15 26  1  0  0  0  0
 16 18  1  0  0  0  0
 16 26  1  0  0  0  0
 17 18  1  0  0  0  0
 20 24  1  0  0  0  0
 21 24  1  0  0  0  0
 22 24  1  0  0  0  0
 24 30  1  0  0  0  0
  1 32  1  0  0  0  0
  2 33  1  0  0  0  0
  3 34  1  0  0  0  0
  4 35  1  0  0  0  0
  5 36  1  0  0  0  0
  6 37  1  0  0  0  0
 14 38  1  0  0  0  0
 14 39  1  0  0  0  0
 15 40  1  0  0  0  0
 15 41  1  0  0  0  0
 16 42  1  0  0  0  0
 17 43  1  0  0  0  0
 18 44  1  0  0  0  0
 19 45  1  0  0  0  0
 19 46  1  0  0  0  0
 19 47  1  0  0  0  0
 20 48  1  0  0  0  0
 20 49  1  0  0  0  0
 20 50  1  0  0  0  0
 21 51  1  0  0  0  0
 21 52  1  0  0  0  0
 21 53  1  0  0  0  0
 22 54  1  0  0  0  0
 22 55  1  0  0  0  0
 22 56  1  0  0  0  0
 23 57  1  0  0  0  0
 23 58  1  0  0  0  0
 27 59  1  0  0  0  0
M  END
> <BB_SMILES>
CC(C)(C)OC(=O)N1CC2CC2C1B1OC(C)(C)C(C)(C)O1

> <scaffold_SMILES>
Cc1ccncc1NC(=O)Cc1cc(Cl)cc(Br)c1

$$$$
EN300-7427526
  -OEChem-07272002243D

 59 62  0     1  0  0  0  0  0999 V2000
    5.0000    1.4070   18.8080 C   0  0  0  0  0  0  0  0  0  0  0  0
   11.0490    1.0010   23.0460 C   0  0  0  0  0  0  0  0  0  0  0  0
   13.3680    0.4840   22.6240 C   0  0  0  0  0  0  0  0  0  0  0  0
   11.6520   -1.1420   22.1450 C   0  0  0  0  0  0  0  0  0  0  0  0
    5.5330    1.3060   17.5390 C   0  0  0  0  0  0  0  0  0  0  0  0
    7.2400   -0.0390   18.2610 C   0  0  0  0  0  0  0  0  0  0  0  0
   12.3850    1.3610   23.0530 C   0  0  0  0  0  0  0  0  0  0  0  0
    5.6260    0.7590   19.8690 C   0  0  0  0  0  0  0  0  0  0  0  0
   10.6720   -0.2500   22.5660 C   0  0  0  0  0  0  0  0  0  0  0  0
    6.7930    0.0210   19.5790 C   0  0  0  0  0  0  0  0  0  0  0  0
   12.9770   -0.7640   22.1810 C   0  0  0  0  0  0  0  0  0  0  0  0
    8.6020    0.1230   21.2070 C   0  0  0  0  0  0  0  0  0  0  0  0
   10.8426    3.3756   25.0700 C   0  0  0  0  0  0  0  0  0  0  0  0
   13.9937    4.9203   22.6979 C   0  0  0  0  0  0  0  0  0  0  0  0
   11.4194    4.7325   23.0659 C   0  0  0  0  0  0  0  0  0  0  0  0
   12.7836    2.7520   23.5413 C   0  0  1  0  0  0  0  0  0  0  0  0
   12.6023    4.7451   22.1552 C   0  0  2  0  0  0  0  0  0  0  0  0
   13.4396    3.5436   22.4378 C   0  0  2  0  0  0  0  0  0  0  0  0
    5.0980    0.9060   21.2740 C   0  0  0  0  0  0  0  0  0  0  0  0
    9.9038    4.2397   27.6286 C   0  0  0  0  0  0  0  0  0  0  0  0
    8.0807    5.4108   26.3582 C   0  0  0  0  0  0  0  0  0  0  0  0
    8.2730    2.9090   26.2486 C   0  0  0  0  0  0  0  0  0  0  0  0
    9.2100   -0.5900   22.3990 C   0  0  0  0  0  0  0  0  0  0  0  0
    9.0419    4.2242   26.3670 C   0  0  0  0  0  0  0  0  0  0  0  0
    6.6320    0.5940   17.2520 N   0  0  0  0  0  0  0  0  0  0  0  0
   11.6284    3.5803   23.9427 N   0  0  0  0  0  0  0  0  0  0  0  0
    7.5630   -0.5230   20.6330 N   0  0  0  0  0  0  0  0  0  0  0  0
    9.0150    1.2120   20.8220 O   0  0  0  0  0  0  0  0  0  0  0  0
   10.9756    2.4260   25.8390 O   0  0  0  0  0  0  0  0  0  0  0  0
    9.8992    4.3551   25.2279 O   0  0  0  0  0  0  0  0  0  0  0  0
   14.1940   -1.9100   21.6990 Cl  0  0  0  0  0  0  0  0  0  0  0  0
    4.0894    1.9955   18.9731 H   0  0  0  0  0  0  0  0  0  0  0  0
   10.2922    1.6915   23.4141 H   0  0  0  0  0  0  0  0  0  0  0  0
   14.4065    0.7745   22.6386 H   0  0  0  0  0  0  0  0  0  0  0  0
   11.3638   -2.1301   21.7911 H   0  0  0  0  0  0  0  0  0  0  0  0
    5.0712    1.8129   16.6995 H   0  0  0  0  0  0  0  0  0  0  0  0
    8.1159   -0.6122   17.9919 H   0  0  0  0  0  0  0  0  0  0  0  0
   14.7533    5.2918   22.0207 H   0  0  0  0  0  0  0  0  0  0  0  0
   14.1147    5.2453   23.7239 H   0  0  0  0  0  0  0  0  0  0  0  0
   11.3356    5.6459   23.6629 H   0  0  0  0  0  0  0  0  0  0  0  0
   10.4863    4.5754   22.5154 H   0  0  0  0  0  0  0  0  0  0  0  0
   13.4650    2.6392   24.4131 H   0  0  0  0  0  0  0  0  0  0  0  0
   12.3919    5.0289   21.1357 H   0  0  0  0  0  0  0  0  0  0  0  0
   13.8669    2.9740   21.6251 H   0  0  0  0  0  0  0  0  0  0  0  0
    4.0065    0.8058   21.2820 H   0  0  0  0  0  0  0  0  0  0  0  0
    5.5239    0.1447   21.9391 H   0  0  0  0  0  0  0  0  0  0  0  0
    5.3626    1.8833   21.6965 H   0  0  0  0  0  0  0  0  0  0  0  0
   10.5951    3.3894   27.6387 H   0  0  0  0  0  0  0  0  0  0  0  0
   10.4870    5.1630   27.7073 H   0  0  0  0  0  0  0  0  0  0  0  0
    9.2835    4.1444   28.5271 H   0  0  0  0  0  0  0  0  0  0  0  0
    7.4602    5.4037   25.4547 H   0  0  0  0  0  0  0  0  0  0  0  0
    8.6309    6.3587   26.3473 H   0  0  0  0  0  0  0  0  0  0  0  0
    7.4210    5.4029   27.2319 H   0  0  0  0  0  0  0  0  0  0  0  0
    7.6546    2.8976   25.3437 H   0  0  0  0  0  0  0  0  0  0  0  0
    8.9488    2.0483   26.2162 H   0  0  0  0  0  0  0  0  0  0  0  0
    7.5868    2.7814   27.0936 H   0  0  0  0  0  0  0  0  0  0  0  0
    9.0902   -1.6664   22.2639 H   0  0  0  0  0  0  0  0  0  0  0  0
    8.6579   -0.3097   23.2977 H   0  0  0  0  0  0  0  0  0  0  0  0
    7.3129   -1.4300   20.9567 H   0  0  0  0  0  0  0  0  0  0  0  0
  1  5  2  0  0  0  0
  1  8  1  0  0  0  0
  2  7  1  0  0  0  0
  2  9  2  0  0  0  0
  3  7  2  0  0  0  0
  3 11  1  0  0  0  0
  4  9  1  0  0  0  0
  4 11  2  0  0  0  0
  5 25  1  0  0  0  0
  6 10  1  0  0  0  0
  6 25  2  0  0  0  0
  7 16  1  6  0  0  0
  8 10  2  0  0  0  0
  8 19  1  0  0  0  0
  9 23  1  0  0  0  0
 10 27  1  0  0  0  0
 11 31  1  0  0  0  0
 12 23  1  0  0  0  0
 12 27  1  0  0  0  0
 12 28  2  0  0  0  0
 13 26  1  0  0  0  0
 13 29  2  0  0  0  0
 13 30  1  0  0  0  0
 14 17  1  1  0  0  0
 14 18  1  1  0  0  0
 15 17  1  0  0  0  0
 15 26  1  0  0  0  0
 16 18  1  0  0  0  0
 16 26  1  0  0  0  0
 17 18  1  0  0  0  0
 20 24  1  0  0  0  0
 21 24  1  0  0  0  0
 22 24  1  0  0  0  0
 24 30  1  0  0  0  0
  1 32  1  0  0  0  0
  2 33  1  0  0  0  0
  3 34  1  0  0  0  0
  4 35  1  0  0  0  0
  5 36  1  0  0  0  0
  6 37  1  0  0  0  0
 14 38  1  0  0  0  0
 14 39  1  0  0  0  0
 15 40  1  0  0  0  0
 15 41  1  0  0  0  0
 16 42  1  0  0  0  0
 17 43  1  0  0  0  0
 18 44  1  0  0  0  0
 19 45  1  0  0  0  0
 19 46  1  0  0  0  0
 19 47  1  0  0  0  0
 20 48  1  0  0  0  0
 20 49  1  0  0  0  0
 20 50  1  0  0  0  0
 21 51  1  0  0  0  0
 21 52  1  0  0  0  0
 21 53  1  0  0  0  0
 22 54  1  0  0  0  0
 22 55  1  0  0  0  0
 22 56  1  0  0  0  0
 23 57  1  0  0  0  0
 23 58  1  0  0  0  0
 27 59  1  0  0  0  0
M  END
> <BB_SMILES>
CC(C)(C)OC(=O)N1CC2CC2C1B1OC(C)(C)C(C)(C)O1

> <scaffold_SMILES>
Cc1ccncc1NC(=O)Cc1cc(Cl)cc(Br)c1

$$$$
EN300-7427526
  -OEChem-07272002243D

 59 62  0     1  0  0  0  0  0999 V2000
    5.0000    1.4070   18.8080 C   0  0  0  0  0  0  0  0  0  0  0  0
   11.0490    1.0010   23.0460 C   0  0  0  0  0  0  0  0  0  0  0  0
   13.3680    0.4840   22.6240 C   0  0  0  0  0  0  0  0  0  0  0  0
   11.6520   -1.1420   22.1450 C   0  0  0  0  0  0  0  0  0  0  0  0
    5.5330    1.3060   17.5390 C   0  0  0  0  0  0  0  0  0  0  0  0
    7.2400   -0.0390   18.2610 C   0  0  0  0  0  0  0  0  0  0  0  0
   12.3850    1.3610   23.0530 C   0  0  0  0  0  0  0  0  0  0  0  0
    5.6260    0.7590   19.8690 C   0  0  0  0  0  0  0  0  0  0  0  0
   10.6720   -0.2500   22.5660 C   0  0  0  0  0  0  0  0  0  0  0  0
    6.7930    0.0210   19.5790 C   0  0  0  0  0  0  0  0  0  0  0  0
   12.9770   -0.7640   22.1810 C   0  0  0  0  0  0  0  0  0  0  0  0
    8.6020    0.1230   21.2070 C   0  0  0  0  0  0  0  0  0  0  0  0
   13.7129    3.8316   21.4284 C   0  0  0  0  0  0  0  0  0  0  0  0
   12.0034    4.6044   25.2254 C   0  0  0  0  0  0  0  0  0  0  0  0
   11.7577    4.7859   22.6358 C   0  0  0  0  0  0  0  0  0  0  0  0
   12.7836    2.7520   23.5413 C   0  0  2  0  0  0  0  0  0  0  0  0
   11.1656    4.5174   23.9797 C   0  0  1  0  0  0  0  0  0  0  0  0
   11.7842    3.2810   24.5394 C   0  0  1  0  0  0  0  0  0  0  0  0
    5.0980    0.9060   21.2740 C   0  0  0  0  0  0  0  0  0  0  0  0
   12.5133    3.3267   19.1535 C   0  0  0  0  0  0  0  0  0  0  0  0
   12.3523    5.7994   18.7421 C   0  0  0  0  0  0  0  0  0  0  0  0
   14.5610    4.6307   18.4894 C   0  0  0  0  0  0  0  0  0  0  0  0
    9.2100   -0.5900   22.3990 C   0  0  0  0  0  0  0  0  0  0  0  0
   13.2395    4.6673   19.2554 C   0  0  0  0  0  0  0  0  0  0  0  0
    6.6320    0.5940   17.2520 N   0  0  0  0  0  0  0  0  0  0  0  0
   12.7915    3.7649   22.4663 N   0  0  0  0  0  0  0  0  0  0  0  0
    7.5630   -0.5230   20.6330 N   0  0  0  0  0  0  0  0  0  0  0  0
    9.0150    1.2120   20.8220 O   0  0  0  0  0  0  0  0  0  0  0  0
   14.6001    3.0019   21.2407 O   0  0  0  0  0  0  0  0  0  0  0  0
   13.5192    4.9302   20.6347 O   0  0  0  0  0  0  0  0  0  0  0  0
   14.1940   -1.9100   21.6990 Cl  0  0  0  0  0  0  0  0  0  0  0  0
    4.0894    1.9955   18.9731 H   0  0  0  0  0  0  0  0  0  0  0  0
   10.2922    1.6915   23.4141 H   0  0  0  0  0  0  0  0  0  0  0  0
   14.4065    0.7745   22.6386 H   0  0  0  0  0  0  0  0  0  0  0  0
   11.3638   -2.1301   21.7911 H   0  0  0  0  0  0  0  0  0  0  0  0
    5.0712    1.8129   16.6995 H   0  0  0  0  0  0  0  0  0  0  0  0
    8.1159   -0.6122   17.9919 H   0  0  0  0  0  0  0  0  0  0  0  0
   12.9814    5.0656   25.1630 H   0  0  0  0  0  0  0  0  0  0  0  0
   11.4902    4.7738   26.1643 H   0  0  0  0  0  0  0  0  0  0  0  0
   11.0210    4.6598   21.8360 H   0  0  0  0  0  0  0  0  0  0  0  0
   12.2021    5.7831   22.5606 H   0  0  0  0  0  0  0  0  0  0  0  0
   13.8012    2.6924   23.9864 H   0  0  0  0  0  0  0  0  0  0  0  0
   10.0990    4.6659   24.0474 H   0  0  0  0  0  0  0  0  0  0  0  0
   11.1733    2.5468   25.0445 H   0  0  0  0  0  0  0  0  0  0  0  0
    4.1454    1.4482   21.2669 H   0  0  0  0  0  0  0  0  0  0  0  0
    4.9395   -0.0732   21.7423 H   0  0  0  0  0  0  0  0  0  0  0  0
    5.8068    1.4524   21.9085 H   0  0  0  0  0  0  0  0  0  0  0  0
   13.1468    2.5115   19.5210 H   0  0  0  0  0  0  0  0  0  0  0  0
   11.5809    3.3284   19.7274 H   0  0  0  0  0  0  0  0  0  0  0  0
   12.2771    3.0883   18.1101 H   0  0  0  0  0  0  0  0  0  0  0  0
   12.8693    6.7632   18.8133 H   0  0  0  0  0  0  0  0  0  0  0  0
   11.4448    5.8903   19.3498 H   0  0  0  0  0  0  0  0  0  0  0  0
   12.0572    5.6405   17.6998 H   0  0  0  0  0  0  0  0  0  0  0  0
   15.0821    5.5922   18.5623 H   0  0  0  0  0  0  0  0  0  0  0  0
   15.2257    3.8478   18.8689 H   0  0  0  0  0  0  0  0  0  0  0  0
   14.3878    4.4531   17.4218 H   0  0  0  0  0  0  0  0  0  0  0  0
    9.0902   -1.6664   22.2639 H   0  0  0  0  0  0  0  0  0  0  0  0
    8.6579   -0.3097   23.2977 H   0  0  0  0  0  0  0  0  0  0  0  0
    7.3129   -1.4300   20.9567 H   0  0  0  0  0  0  0  0  0  0  0  0
  1  5  2  0  0  0  0
  1  8  1  0  0  0  0
  2  7  1  0  0  0  0
  2  9  2  0  0  0  0
  3  7  2  0  0  0  0
  3 11  1  0  0  0  0
  4  9  1  0  0  0  0
  4 11  2  0  0  0  0
  5 25  1  0  0  0  0
  6 10  1  0  0  0  0
  6 25  2  0  0  0  0
  7 16  1  1  0  0  0
  8 10  2  0  0  0  0
  8 19  1  0  0  0  0
  9 23  1  0  0  0  0
 10 27  1  0  0  0  0
 11 31  1  0  0  0  0
 12 23  1  0  0  0  0
 12 27  1  0  0  0  0
 12 28  2  0  0  0  0
 13 26  1  0  0  0  0
 13 29  2  0  0  0  0
 13 30  1  0  0  0  0
 14 17  1  6  0  0  0
 14 18  1  6  0  0  0
 15 17  1  0  0  0  0
 15 26  1  0  0  0  0
 16 18  1  0  0  0  0
 16 26  1  0  0  0  0
 17 18  1  0  0  0  0
 20 24  1  0  0  0  0
 21 24  1  0  0  0  0
 22 24  1  0  0  0  0
 24 30  1  0  0  0  0
  1 32  1  0  0  0  0
  2 33  1  0  0  0  0
  3 34  1  0  0  0  0
  4 35  1  0  0  0  0
  5 36  1  0  0  0  0
  6 37  1  0  0  0  0
 14 38  1  0  0  0  0
 14 39  1  0  0  0  0
 15 40  1  0  0  0  0
 15 41  1  0  0  0  0
 16 42  1  0  0  0  0
 17 43  1  0  0  0  0
 18 44  1  0  0  0  0
 19 45  1  0  0  0  0
 19 46  1  0  0  0  0
 19 47  1  0  0  0  0
 20 48  1  0  0  0  0
 20 49  1  0  0  0  0
 20 50  1  0  0  0  0
 21 51  1  0  0  0  0
 21 52  1  0  0  0  0
 21 53  1  0  0  0  0
 22 54  1  0  0  0  0
 22 55  1  0  0  0  0
 22 56  1  0  0  0  0
 23 57  1  0  0  0  0
 23 58  1  0  0  0  0
 27 59  1  0  0  0  0
M  END
> <BB_SMILES>
CC(C)(C)OC(=O)N1CC2CC2C1B1OC(C)(C)C(C)(C)O1

> <scaffold_SMILES>
Cc1ccncc1NC(=O)Cc1cc(Cl)cc(Br)c1

$$$$
EN300-7427526
  -OEChem-07272002243D

 59 62  0     1  0  0  0  0  0999 V2000
    5.0000    1.4070   18.8080 C   0  0  0  0  0  0  0  0  0  0  0  0
   11.0490    1.0010   23.0460 C   0  0  0  0  0  0  0  0  0  0  0  0
   13.3680    0.4840   22.6240 C   0  0  0  0  0  0  0  0  0  0  0  0
   11.6520   -1.1420   22.1450 C   0  0  0  0  0  0  0  0  0  0  0  0
    5.5330    1.3060   17.5390 C   0  0  0  0  0  0  0  0  0  0  0  0
    7.2400   -0.0390   18.2610 C   0  0  0  0  0  0  0  0  0  0  0  0
   12.3850    1.3610   23.0530 C   0  0  0  0  0  0  0  0  0  0  0  0
    5.6260    0.7590   19.8690 C   0  0  0  0  0  0  0  0  0  0  0  0
   10.6720   -0.2500   22.5660 C   0  0  0  0  0  0  0  0  0  0  0  0
    6.7930    0.0210   19.5790 C   0  0  0  0  0  0  0  0  0  0  0  0
   12.9770   -0.7640   22.1810 C   0  0  0  0  0  0  0  0  0  0  0  0
    8.6020    0.1230   21.2070 C   0  0  0  0  0  0  0  0  0  0  0  0
   10.8879    3.3346   25.0818 C   0  0  0  0  0  0  0  0  0  0  0  0
   12.8254    3.8893   21.1411 C   0  0  0  0  0  0  0  0  0  0  0  0
   11.6115    4.8790   23.2273 C   0  0  0  0  0  0  0  0  0  0  0  0
   12.7832    2.7508   23.5409 C   0  0  1  0  0  0  0  0  0  0  0  0
   12.7797    4.8422   22.2992 C   0  0  1  0  0  0  0  0  0  0  0  0
   13.4766    3.5302   22.4549 C   0  0  1  0  0  0  0  0  0  0  0  0
    5.0980    0.9060   21.2740 C   0  0  0  0  0  0  0  0  0  0  0  0
   11.6555    4.7956   27.1165 C   0  0  0  0  0  0  0  0  0  0  0  0
    9.8021    6.4101   26.5994 C   0  0  0  0  0  0  0  0  0  0  0  0
    9.2721    4.1955   27.6589 C   0  0  0  0  0  0  0  0  0  0  0  0
    9.2100   -0.5900   22.3990 C   0  0  0  0  0  0  0  0  0  0  0  0
   10.1944    4.9371   26.6924 C   0  0  0  0  0  0  0  0  0  0  0  0
    6.6320    0.5940   17.2520 N   0  0  0  0  0  0  0  0  0  0  0  0
   11.6774    3.6196   23.9727 N   0  0  0  0  0  0  0  0  0  0  0  0
    7.5630   -0.5230   20.6330 N   0  0  0  0  0  0  0  0  0  0  0  0
    9.0150    1.2120   20.8220 O   0  0  0  0  0  0  0  0  0  0  0  0
   10.9356    2.2816   25.7137 O   0  0  0  0  0  0  0  0  0  0  0  0
   10.0412    4.3668   25.3879 O   0  0  0  0  0  0  0  0  0  0  0  0
   14.1940   -1.9100   21.6990 Cl  0  0  0  0  0  0  0  0  0  0  0  0
    4.0894    1.9955   18.9731 H   0  0  0  0  0  0  0  0  0  0  0  0
   10.2922    1.6915   23.4141 H   0  0  0  0  0  0  0  0  0  0  0  0
   14.4065    0.7745   22.6386 H   0  0  0  0  0  0  0  0  0  0  0  0
   11.3638   -2.1301   21.7911 H   0  0  0  0  0  0  0  0  0  0  0  0
    5.0712    1.8129   16.6995 H   0  0  0  0  0  0  0  0  0  0  0  0
    8.1159   -0.6122   17.9919 H   0  0  0  0  0  0  0  0  0  0  0  0
   11.9107    3.3875   20.8510 H   0  0  0  0  0  0  0  0  0  0  0  0
   13.4762    4.1373   20.3114 H   0  0  0  0  0  0  0  0  0  0  0  0
   11.6786    5.7134   23.9327 H   0  0  0  0  0  0  0  0  0  0  0  0
   10.6556    4.9319   22.6968 H   0  0  0  0  0  0  0  0  0  0  0  0
   13.4670    2.6243   24.4159 H   0  0  0  0  0  0  0  0  0  0  0  0
   13.3587    5.7524   22.2604 H   0  0  0  0  0  0  0  0  0  0  0  0
   14.5559    3.5107   22.5131 H   0  0  0  0  0  0  0  0  0  0  0  0
    4.4514    1.7881   21.3464 H   0  0  0  0  0  0  0  0  0  0  0  0
    4.5202    0.0233   21.5746 H   0  0  0  0  0  0  0  0  0  0  0  0
    5.9171    1.0125   21.9960 H   0  0  0  0  0  0  0  0  0  0  0  0
   11.9410    3.7397   27.1844 H   0  0  0  0  0  0  0  0  0  0  0  0
   12.3300    5.2935   26.4123 H   0  0  0  0  0  0  0  0  0  0  0  0
   11.8169    5.2241   28.1122 H   0  0  0  0  0  0  0  0  0  0  0  0
    8.7545    6.5164   26.2953 H   0  0  0  0  0  0  0  0  0  0  0  0
   10.3983    6.9255   25.8377 H   0  0  0  0  0  0  0  0  0  0  0  0
    9.9398    6.9260   27.5551 H   0  0  0  0  0  0  0  0  0  0  0  0
    8.2240    4.2969   27.3549 H   0  0  0  0  0  0  0  0  0  0  0  0
    9.5154    3.1293   27.7105 H   0  0  0  0  0  0  0  0  0  0  0  0
    9.3438    4.6182   28.6676 H   0  0  0  0  0  0  0  0  0  0  0  0
    9.0902   -1.6664   22.2639 H   0  0  0  0  0  0  0  0  0  0  0  0
    8.6579   -0.3097   23.2977 H   0  0  0  0  0  0  0  0  0  0  0  0
    7.3129   -1.4300   20.9567 H   0  0  0  0  0  0  0  0  0  0  0  0
  1  5  2  0  0  0  0
  1  8  1  0  0  0  0
  2  7  1  0  0  0  0
  2  9  2  0  0  0  0
  3  7  2  0  0  0  0
  3 11  1  0  0  0  0
  4  9  1  0  0  0  0
  4 11  2  0  0  0  0
  5 25  1  0  0  0  0
  6 10  1  0  0  0  0
  6 25  2  0  0  0  0
  7 16  1  6  0  0  0
  8 10  2  0  0  0  0
  8 19  1  0  0  0  0
  9 23  1  0  0  0  0
 10 27  1  0  0  0  0
 11 31  1  0  0  0  0
 12 23  1  0  0  0  0
 12 27  1  0  0  0  0
 12 28  2  0  0  0  0
 13 26  1  0  0  0  0
 13 29  2  0  0  0  0
 13 30  1  0  0  0  0
 14 17  1  6  0  0  0
 14 18  1  6  0  0  0
 15 17  1  0  0  0  0
 15 26  1  0  0  0  0
 16 18  1  0  0  0  0
 16 26  1  0  0  0  0
 17 18  1  0  0  0  0
 20 24  1  0  0  0  0
 21 24  1  0  0  0  0
 22 24  1  0  0  0  0
 24 30  1  0  0  0  0
  1 32  1  0  0  0  0
  2 33  1  0  0  0  0
  3 34  1  0  0  0  0
  4 35  1  0  0  0  0
  5 36  1  0  0  0  0
  6 37  1  0  0  0  0
 14 38  1  0  0  0  0
 14 39  1  0  0  0  0
 15 40  1  0  0  0  0
 15 41  1  0  0  0  0
 16 42  1  0  0  0  0
 17 43  1  0  0  0  0
 18 44  1  0  0  0  0
 19 45  1  0  0  0  0
 19 46  1  0  0  0  0
 19 47  1  0  0  0  0
 20 48  1  0  0  0  0
 20 49  1  0  0  0  0
 20 50  1  0  0  0  0
 21 51  1  0  0  0  0
 21 52  1  0  0  0  0
 21 53  1  0  0  0  0
 22 54  1  0  0  0  0
 22 55  1  0  0  0  0
 22 56  1  0  0  0  0
 23 57  1  0  0  0  0
 23 58  1  0  0  0  0
 27 59  1  0  0  0  0
M  END
> <BB_SMILES>
CC(C)(C)OC(=O)N1CC2CC2C1B1OC(C)(C)C(C)(C)O1

> <scaffold_SMILES>
Cc1ccncc1NC(=O)Cc1cc(Cl)cc(Br)c1

$$$$
EN300-7462510
  -OEChem-07272002243D

 50 52  0     1  0  0  0  0  0999 V2000
    5.0000    1.4070   18.8080 C   0  0  0  0  0  0  0  0  0  0  0  0
   11.0490    1.0010   23.0460 C   0  0  0  0  0  0  0  0  0  0  0  0
   13.3680    0.4840   22.6240 C   0  0  0  0  0  0  0  0  0  0  0  0
   11.6520   -1.1420   22.1450 C   0  0  0  0  0  0  0  0  0  0  0  0
    5.5330    1.3060   17.5390 C   0  0  0  0  0  0  0  0  0  0  0  0
    7.2400   -0.0390   18.2610 C   0  0  0  0  0  0  0  0  0  0  0  0
   12.3850    1.3610   23.0530 C   0  0  0  0  0  0  0  0  0  0  0  0
    5.6260    0.7590   19.8690 C   0  0  0  0  0  0  0  0  0  0  0  0
   10.6720   -0.2500   22.5660 C   0  0  0  0  0  0  0  0  0  0  0  0
    6.7930    0.0210   19.5790 C   0  0  0  0  0  0  0  0  0  0  0  0
   12.9770   -0.7640   22.1810 C   0  0  0  0  0  0  0  0  0  0  0  0
   11.6118    4.9019   24.3773 C   0  0  0  0  0  0  0  0  0  0  0  0
    8.6020    0.1230   21.2070 C   0  0  0  0  0  0  0  0  0  0  0  0
   13.0861    2.9004   25.0121 C   0  0  0  0  0  0  0  0  0  0  0  0
   11.8004    3.4482   24.4648 C   0  0  2  0  0  0  0  0  0  0  0  0
   12.7785    2.7296   23.5367 C   0  0  2  0  0  0  0  0  0  0  0  0
    5.0980    0.9060   21.2740 C   0  0  0  0  0  0  0  0  0  0  0  0
   13.6008    3.5254   22.5575 C   0  0  0  0  0  0  0  0  0  0  0  0
    9.3103    6.7165   22.1866 C   0  0  0  0  0  0  0  0  0  0  0  0
    9.2100   -0.5900   22.3990 C   0  0  0  0  0  0  0  0  0  0  0  0
   10.3767    6.5724   23.2512 C   0  0  0  0  0  0  0  0  0  0  0  0
    6.6320    0.5940   17.2520 N   0  0  0  0  0  0  0  0  0  0  0  0
    7.5630   -0.5230   20.6330 N   0  0  0  0  0  0  0  0  0  0  0  0
   12.2265    5.7146   25.0547 O   0  0  0  0  0  0  0  0  0  0  0  0
    9.0150    1.2120   20.8220 O   0  0  0  0  0  0  0  0  0  0  0  0
   10.6622    5.1828   23.4401 O   0  0  0  0  0  0  0  0  0  0  0  0
   14.1940   -1.9100   21.6990 Cl  0  0  0  0  0  0  0  0  0  0  0  0
    4.0894    1.9955   18.9731 H   0  0  0  0  0  0  0  0  0  0  0  0
   10.2920    1.6908   23.4149 H   0  0  0  0  0  0  0  0  0  0  0  0
   14.4066    0.7739   22.6379 H   0  0  0  0  0  0  0  0  0  0  0  0
   11.3632   -2.1298   21.7911 H   0  0  0  0  0  0  0  0  0  0  0  0
    5.0712    1.8129   16.6995 H   0  0  0  0  0  0  0  0  0  0  0  0
    8.1159   -0.6122   17.9919 H   0  0  0  0  0  0  0  0  0  0  0  0
   13.8645    3.5981   25.3006 H   0  0  0  0  0  0  0  0  0  0  0  0
   13.0258    2.0331   25.6608 H   0  0  0  0  0  0  0  0  0  0  0  0
   10.8980    2.9118   24.7445 H   0  0  0  0  0  0  0  0  0  0  0  0
    4.3897    1.7408   21.3281 H   0  0  0  0  0  0  0  0  0  0  0  0
    4.5877   -0.0075   21.6032 H   0  0  0  0  0  0  0  0  0  0  0  0
    5.9120    1.0912   21.9858 H   0  0  0  0  0  0  0  0  0  0  0  0
   13.8537    4.5093   22.9691 H   0  0  0  0  0  0  0  0  0  0  0  0
   13.0516    3.6798   21.6215 H   0  0  0  0  0  0  0  0  0  0  0  0
   14.5364    3.0057   22.3206 H   0  0  0  0  0  0  0  0  0  0  0  0
    9.6496    6.2975   21.2352 H   0  0  0  0  0  0  0  0  0  0  0  0
    8.3905    6.2056   22.4899 H   0  0  0  0  0  0  0  0  0  0  0  0
    9.0543    7.7707   22.0370 H   0  0  0  0  0  0  0  0  0  0  0  0
    9.0901   -1.6664   22.2639 H   0  0  0  0  0  0  0  0  0  0  0  0
    8.6579   -0.3097   23.2977 H   0  0  0  0  0  0  0  0  0  0  0  0
   10.0311    6.9933   24.2001 H   0  0  0  0  0  0  0  0  0  0  0  0
   11.2952    7.0826   22.9462 H   0  0  0  0  0  0  0  0  0  0  0  0
    7.3129   -1.4300   20.9567 H   0  0  0  0  0  0  0  0  0  0  0  0
  1  5  2  0  0  0  0
  1  8  1  0  0  0  0
  2  7  2  0  0  0  0
  2  9  1  0  0  0  0
  3  7  1  0  0  0  0
  3 11  2  0  0  0  0
  4  9  2  0  0  0  0
  4 11  1  0  0  0  0
  5 22  1  0  0  0  0
  6 10  1  0  0  0  0
  6 22  2  0  0  0  0
  7 16  1  0  0  0  0
  8 10  2  0  0  0  0
  8 17  1  0  0  0  0
  9 20  1  0  0  0  0
 10 23  1  0  0  0  0
 11 27  1  0  0  0  0
 12 15  1  1  0  0  0
 12 24  2  0  0  0  0
 12 26  1  0  0  0  0
 13 20  1  0  0  0  0
 13 23  1  0  0  0  0
 13 25  2  0  0  0  0
 14 15  1  0  0  0  0
 14 16  1  0  0  0  0
 15 16  1  0  0  0  0
 16 18  1  1  0  0  0
 19 21  1  0  0  0  0
 21 26  1  0  0  0  0
  1 28  1  0  0  0  0
  2 29  1  0  0  0  0
  3 30  1  0  0  0  0
  4 31  1  0  0  0  0
  5 32  1  0  0  0  0
  6 33  1  0  0  0  0
 14 34  1  0  0  0  0
 14 35  1  0  0  0  0
 15 36  1  0  0  0  0
 17 37  1  0  0  0  0
 17 38  1  0  0  0  0
 17 39  1  0  0  0  0
 18 40  1  0  0  0  0
 18 41  1  0  0  0  0
 18 42  1  0  0  0  0
 19 43  1  0  0  0  0
 19 44  1  0  0  0  0
 19 45  1  0  0  0  0
 20 46  1  0  0  0  0
 20 47  1  0  0  0  0
 21 48  1  0  0  0  0
 21 49  1  0  0  0  0
 23 50  1  0  0  0  0
M  END
> <BB_SMILES>
CCOC(=O)C1CC1(C)B1OC(C)(C)C(C)(C)O1

> <scaffold_SMILES>
Cc1ccncc1NC(=O)Cc1cc(Cl)cc(Br)c1

$$$$
EN300-7462510
  -OEChem-07272002243D

 50 52  0     1  0  0  0  0  0999 V2000
    5.0000    1.4070   18.8080 C   0  0  0  0  0  0  0  0  0  0  0  0
   11.0490    1.0010   23.0460 C   0  0  0  0  0  0  0  0  0  0  0  0
   13.3680    0.4840   22.6240 C   0  0  0  0  0  0  0  0  0  0  0  0
   11.6520   -1.1420   22.1450 C   0  0  0  0  0  0  0  0  0  0  0  0
    5.5330    1.3060   17.5390 C   0  0  0  0  0  0  0  0  0  0  0  0
    7.2400   -0.0390   18.2610 C   0  0  0  0  0  0  0  0  0  0  0  0
   12.3850    1.3610   23.0530 C   0  0  0  0  0  0  0  0  0  0  0  0
    5.6260    0.7590   19.8690 C   0  0  0  0  0  0  0  0  0  0  0  0
   10.6720   -0.2500   22.5660 C   0  0  0  0  0  0  0  0  0  0  0  0
    6.7930    0.0210   19.5790 C   0  0  0  0  0  0  0  0  0  0  0  0
   12.9770   -0.7640   22.1810 C   0  0  0  0  0  0  0  0  0  0  0  0
   12.9570    3.5717   21.0796 C   0  0  0  0  0  0  0  0  0  0  0  0
    8.6020    0.1230   21.2070 C   0  0  0  0  0  0  0  0  0  0  0  0
   11.7814    3.8563   23.3409 C   0  0  0  0  0  0  0  0  0  0  0  0
   13.0400    3.8372   22.5223 C   0  0  1  0  0  0  0  0  0  0  0  0
   12.7785    2.7293   23.5366 C   0  0  2  0  0  0  0  0  0  0  0  0
    5.0980    0.9060   21.2740 C   0  0  0  0  0  0  0  0  0  0  0  0
   13.6004    2.7341   24.7977 C   0  0  0  0  0  0  0  0  0  0  0  0
   13.8801    4.8729   18.3741 C   0  0  0  0  0  0  0  0  0  0  0  0
    9.2100   -0.5900   22.3990 C   0  0  0  0  0  0  0  0  0  0  0  0
   12.5273    4.6077   18.9997 C   0  0  0  0  0  0  0  0  0  0  0  0
    6.6320    0.5940   17.2520 N   0  0  0  0  0  0  0  0  0  0  0  0
    7.5630   -0.5230   20.6330 N   0  0  0  0  0  0  0  0  0  0  0  0
   13.1481    2.4746   20.5727 O   0  0  0  0  0  0  0  0  0  0  0  0
    9.0150    1.2120   20.8220 O   0  0  0  0  0  0  0  0  0  0  0  0
   12.6406    4.7232   20.4216 O   0  0  0  0  0  0  0  0  0  0  0  0
   14.1940   -1.9100   21.6990 Cl  0  0  0  0  0  0  0  0  0  0  0  0
    4.0894    1.9955   18.9731 H   0  0  0  0  0  0  0  0  0  0  0  0
   10.2920    1.6908   23.4149 H   0  0  0  0  0  0  0  0  0  0  0  0
   14.4066    0.7739   22.6379 H   0  0  0  0  0  0  0  0  0  0  0  0
   11.3632   -2.1298   21.7911 H   0  0  0  0  0  0  0  0  0  0  0  0
    5.0712    1.8129   16.6995 H   0  0  0  0  0  0  0  0  0  0  0  0
    8.1159   -0.6122   17.9919 H   0  0  0  0  0  0  0  0  0  0  0  0
   11.6966    4.6119   24.1141 H   0  0  0  0  0  0  0  0  0  0  0  0
   10.8404    3.6386   22.8476 H   0  0  0  0  0  0  0  0  0  0  0  0
   13.7903    4.5776   22.7839 H   0  0  0  0  0  0  0  0  0  0  0  0
    4.2184    1.5601   21.2827 H   0  0  0  0  0  0  0  0  0  0  0  0
    4.8147   -0.0666   21.6947 H   0  0  0  0  0  0  0  0  0  0  0  0
    5.8579    1.3329   21.9402 H   0  0  0  0  0  0  0  0  0  0  0  0
   13.8535    3.7584   25.0958 H   0  0  0  0  0  0  0  0  0  0  0  0
   14.5366    2.1812   24.6564 H   0  0  0  0  0  0  0  0  0  0  0  0
   13.0518    2.2664   25.6238 H   0  0  0  0  0  0  0  0  0  0  0  0
   14.2310    5.8801   18.6155 H   0  0  0  0  0  0  0  0  0  0  0  0
   14.6187    4.1467   18.7292 H   0  0  0  0  0  0  0  0  0  0  0  0
   13.8289    4.7682   17.2853 H   0  0  0  0  0  0  0  0  0  0  0  0
    9.0901   -1.6664   22.2639 H   0  0  0  0  0  0  0  0  0  0  0  0
    8.6579   -0.3097   23.2977 H   0  0  0  0  0  0  0  0  0  0  0  0
   12.1823    3.5988   18.7544 H   0  0  0  0  0  0  0  0  0  0  0  0
   11.7909    5.3346   18.6445 H   0  0  0  0  0  0  0  0  0  0  0  0
    7.3129   -1.4300   20.9567 H   0  0  0  0  0  0  0  0  0  0  0  0
  1  5  2  0  0  0  0
  1  8  1  0  0  0  0
  2  7  2  0  0  0  0
  2  9  1  0  0  0  0
  3  7  1  0  0  0  0
  3 11  2  0  0  0  0
  4  9  2  0  0  0  0
  4 11  1  0  0  0  0
  5 22  1  0  0  0  0
  6 10  1  0  0  0  0
  6 22  2  0  0  0  0
  7 16  1  0  0  0  0
  8 10  2  0  0  0  0
  8 17  1  0  0  0  0
  9 20  1  0  0  0  0
 10 23  1  0  0  0  0
 11 27  1  0  0  0  0
 12 15  1  6  0  0  0
 12 24  2  0  0  0  0
 12 26  1  0  0  0  0
 13 20  1  0  0  0  0
 13 23  1  0  0  0  0
 13 25  2  0  0  0  0
 14 15  1  0  0  0  0
 14 16  1  0  0  0  0
 15 16  1  0  0  0  0
 16 18  1  1  0  0  0
 19 21  1  0  0  0  0
 21 26  1  0  0  0  0
  1 28  1  0  0  0  0
  2 29  1  0  0  0  0
  3 30  1  0  0  0  0
  4 31  1  0  0  0  0
  5 32  1  0  0  0  0
  6 33  1  0  0  0  0
 14 34  1  0  0  0  0
 14 35  1  0  0  0  0
 15 36  1  0  0  0  0
 17 37  1  0  0  0  0
 17 38  1  0  0  0  0
 17 39  1  0  0  0  0
 18 40  1  0  0  0  0
 18 41  1  0  0  0  0
 18 42  1  0  0  0  0
 19 43  1  0  0  0  0
 19 44  1  0  0  0  0
 19 45  1  0  0  0  0
 20 46  1  0  0  0  0
 20 47  1  0  0  0  0
 21 48  1  0  0  0  0
 21 49  1  0  0  0  0
 23 50  1  0  0  0  0
M  END
> <BB_SMILES>
CCOC(=O)C1CC1(C)B1OC(C)(C)C(C)(C)O1

> <scaffold_SMILES>
Cc1ccncc1NC(=O)Cc1cc(Cl)cc(Br)c1

$$$$
EN300-7462510
  -OEChem-07272002243D

 50 52  0     1  0  0  0  0  0999 V2000
    5.0000    1.4070   18.8080 C   0  0  0  0  0  0  0  0  0  0  0  0
   11.0490    1.0010   23.0460 C   0  0  0  0  0  0  0  0  0  0  0  0
   13.3680    0.4840   22.6240 C   0  0  0  0  0  0  0  0  0  0  0  0
   11.6520   -1.1420   22.1450 C   0  0  0  0  0  0  0  0  0  0  0  0
    5.5330    1.3060   17.5390 C   0  0  0  0  0  0  0  0  0  0  0  0
    7.2400   -0.0390   18.2610 C   0  0  0  0  0  0  0  0  0  0  0  0
   12.3850    1.3610   23.0530 C   0  0  0  0  0  0  0  0  0  0  0  0
    5.6260    0.7590   19.8690 C   0  0  0  0  0  0  0  0  0  0  0  0
   10.6720   -0.2500   22.5660 C   0  0  0  0  0  0  0  0  0  0  0  0
    6.7930    0.0210   19.5790 C   0  0  0  0  0  0  0  0  0  0  0  0
   12.9770   -0.7640   22.1810 C   0  0  0  0  0  0  0  0  0  0  0  0
   12.1458    3.7541   21.2282 C   0  0  0  0  0  0  0  0  0  0  0  0
    8.6020    0.1230   21.2070 C   0  0  0  0  0  0  0  0  0  0  0  0
   14.0204    3.3577   22.9325 C   0  0  0  0  0  0  0  0  0  0  0  0
   12.6710    3.9200   22.5904 C   0  0  2  0  0  0  0  0  0  0  0  0
   12.7784    2.7293   23.5366 C   0  0  1  0  0  0  0  0  0  0  0  0
    5.0980    0.9060   21.2740 C   0  0  0  0  0  0  0  0  0  0  0  0
   12.5090    2.9763   24.9969 C   0  0  0  0  0  0  0  0  0  0  0  0
   13.8094    4.6147   18.0849 C   0  0  0  0  0  0  0  0  0  0  0  0
    9.2100   -0.5900   22.3990 C   0  0  0  0  0  0  0  0  0  0  0  0
   12.6853    4.0894   18.9522 C   0  0  0  0  0  0  0  0  0  0  0  0
    6.6320    0.5940   17.2520 N   0  0  0  0  0  0  0  0  0  0  0  0
    7.5630   -0.5230   20.6330 N   0  0  0  0  0  0  0  0  0  0  0  0
   11.0439    3.2886   20.9707 O   0  0  0  0  0  0  0  0  0  0  0  0
    9.0150    1.2120   20.8220 O   0  0  0  0  0  0  0  0  0  0  0  0
   13.0693    4.1942   20.3269 O   0  0  0  0  0  0  0  0  0  0  0  0
   14.1940   -1.9100   21.6990 Cl  0  0  0  0  0  0  0  0  0  0  0  0
    4.0894    1.9955   18.9731 H   0  0  0  0  0  0  0  0  0  0  0  0
   10.2920    1.6908   23.4149 H   0  0  0  0  0  0  0  0  0  0  0  0
   14.4066    0.7739   22.6379 H   0  0  0  0  0  0  0  0  0  0  0  0
   11.3632   -2.1298   21.7911 H   0  0  0  0  0  0  0  0  0  0  0  0
    5.0712    1.8129   16.6995 H   0  0  0  0  0  0  0  0  0  0  0  0
    8.1159   -0.6122   17.9919 H   0  0  0  0  0  0  0  0  0  0  0  0
   14.5613    2.8105   22.1681 H   0  0  0  0  0  0  0  0  0  0  0  0
   14.6639    3.9503   23.5734 H   0  0  0  0  0  0  0  0  0  0  0  0
   12.4303    4.8821   23.0331 H   0  0  0  0  0  0  0  0  0  0  0  0
    4.3129    1.6703   21.3067 H   0  0  0  0  0  0  0  0  0  0  0  0
    4.6809   -0.0396   21.6416 H   0  0  0  0  0  0  0  0  0  0  0  0
    5.8962    1.1946   21.9691 H   0  0  0  0  0  0  0  0  0  0  0  0
   12.8168    3.9883   25.2856 H   0  0  0  0  0  0  0  0  0  0  0  0
   13.0594    2.2634   25.6221 H   0  0  0  0  0  0  0  0  0  0  0  0
   11.4410    2.8699   25.2210 H   0  0  0  0  0  0  0  0  0  0  0  0
   14.0179    5.6644   18.3099 H   0  0  0  0  0  0  0  0  0  0  0  0
   14.7227    4.0314   18.2413 H   0  0  0  0  0  0  0  0  0  0  0  0
   13.5524    4.5252   17.0241 H   0  0  0  0  0  0  0  0  0  0  0  0
    9.0901   -1.6664   22.2639 H   0  0  0  0  0  0  0  0  0  0  0  0
    8.6579   -0.3097   23.2977 H   0  0  0  0  0  0  0  0  0  0  0  0
   12.4818    3.0393   18.7222 H   0  0  0  0  0  0  0  0  0  0  0  0
   11.7739    4.6739   18.7952 H   0  0  0  0  0  0  0  0  0  0  0  0
    7.3129   -1.4300   20.9567 H   0  0  0  0  0  0  0  0  0  0  0  0
  1  5  2  0  0  0  0
  1  8  1  0  0  0  0
  2  7  2  0  0  0  0
  2  9  1  0  0  0  0
  3  7  1  0  0  0  0
  3 11  2  0  0  0  0
  4  9  2  0  0  0  0
  4 11  1  0  0  0  0
  5 22  1  0  0  0  0
  6 10  1  0  0  0  0
  6 22  2  0  0  0  0
  7 16  1  0  0  0  0
  8 10  2  0  0  0  0
  8 17  1  0  0  0  0
  9 20  1  0  0  0  0
 10 23  1  0  0  0  0
 11 27  1  0  0  0  0
 12 15  1  1  0  0  0
 12 24  2  0  0  0  0
 12 26  1  0  0  0  0
 13 20  1  0  0  0  0
 13 23  1  0  0  0  0
 13 25  2  0  0  0  0
 14 15  1  0  0  0  0
 14 16  1  0  0  0  0
 15 16  1  0  0  0  0
 16 18  1  6  0  0  0
 19 21  1  0  0  0  0
 21 26  1  0  0  0  0
  1 28  1  0  0  0  0
  2 29  1  0  0  0  0
  3 30  1  0  0  0  0
  4 31  1  0  0  0  0
  5 32  1  0  0  0  0
  6 33  1  0  0  0  0
 14 34  1  0  0  0  0
 14 35  1  0  0  0  0
 15 36  1  0  0  0  0
 17 37  1  0  0  0  0
 17 38  1  0  0  0  0
 17 39  1  0  0  0  0
 18 40  1  0  0  0  0
 18 41  1  0  0  0  0
 18 42  1  0  0  0  0
 19 43  1  0  0  0  0
 19 44  1  0  0  0  0
 19 45  1  0  0  0  0
 20 46  1  0  0  0  0
 20 47  1  0  0  0  0
 21 48  1  0  0  0  0
 21 49  1  0  0  0  0
 23 50  1  0  0  0  0
M  END
> <BB_SMILES>
CCOC(=O)C1CC1(C)B1OC(C)(C)C(C)(C)O1

> <scaffold_SMILES>
Cc1ccncc1NC(=O)Cc1cc(Cl)cc(Br)c1

$$$$
EN300-7462510
  -OEChem-07272002243D

 50 52  0     1  0  0  0  0  0999 V2000
    5.0000    1.4070   18.8080 C   0  0  0  0  0  0  0  0  0  0  0  0
   11.0490    1.0010   23.0460 C   0  0  0  0  0  0  0  0  0  0  0  0
   13.3680    0.4840   22.6240 C   0  0  0  0  0  0  0  0  0  0  0  0
   11.6520   -1.1420   22.1450 C   0  0  0  0  0  0  0  0  0  0  0  0
    5.5330    1.3060   17.5390 C   0  0  0  0  0  0  0  0  0  0  0  0
    7.2400   -0.0390   18.2610 C   0  0  0  0  0  0  0  0  0  0  0  0
   12.3850    1.3610   23.0530 C   0  0  0  0  0  0  0  0  0  0  0  0
    5.6260    0.7590   19.8690 C   0  0  0  0  0  0  0  0  0  0  0  0
   10.6720   -0.2500   22.5660 C   0  0  0  0  0  0  0  0  0  0  0  0
    6.7930    0.0210   19.5790 C   0  0  0  0  0  0  0  0  0  0  0  0
   12.9770   -0.7640   22.1810 C   0  0  0  0  0  0  0  0  0  0  0  0
   12.2425    5.2169   22.9767 C   0  0  0  0  0  0  0  0  0  0  0  0
    8.6020    0.1230   21.2070 C   0  0  0  0  0  0  0  0  0  0  0  0
   14.0187    3.3664   22.9388 C   0  0  0  0  0  0  0  0  0  0  0  0
   12.6669    3.8812   22.5386 C   0  0  1  0  0  0  0  0  0  0  0  0
   12.7786    2.7299   23.5368 C   0  0  1  0  0  0  0  0  0  0  0  0
    5.0980    0.9060   21.2740 C   0  0  0  0  0  0  0  0  0  0  0  0
   12.5045    2.9773   24.9970 C   0  0  0  0  0  0  0  0  0  0  0  0
    9.6273    6.6841   23.9109 C   0  0  0  0  0  0  0  0  0  0  0  0
    9.2100   -0.5900   22.3990 C   0  0  0  0  0  0  0  0  0  0  0  0
   10.5353    6.8286   22.7083 C   0  0  0  0  0  0  0  0  0  0  0  0
    6.6320    0.5940   17.2520 N   0  0  0  0  0  0  0  0  0  0  0  0
    7.5630   -0.5230   20.6330 N   0  0  0  0  0  0  0  0  0  0  0  0
   12.8677    5.9091   23.7686 O   0  0  0  0  0  0  0  0  0  0  0  0
    9.0150    1.2120   20.8220 O   0  0  0  0  0  0  0  0  0  0  0  0
   11.0668    5.5440   22.3685 O   0  0  0  0  0  0  0  0  0  0  0  0
   14.1940   -1.9100   21.6990 Cl  0  0  0  0  0  0  0  0  0  0  0  0
    4.0894    1.9955   18.9731 H   0  0  0  0  0  0  0  0  0  0  0  0
   10.2920    1.6908   23.4149 H   0  0  0  0  0  0  0  0  0  0  0  0
   14.4066    0.7739   22.6379 H   0  0  0  0  0  0  0  0  0  0  0  0
   11.3632   -2.1298   21.7911 H   0  0  0  0  0  0  0  0  0  0  0  0
    5.0712    1.8129   16.6995 H   0  0  0  0  0  0  0  0  0  0  0  0
    8.1159   -0.6122   17.9919 H   0  0  0  0  0  0  0  0  0  0  0  0
   14.5838    2.8115   22.1977 H   0  0  0  0  0  0  0  0  0  0  0  0
   14.6403    3.9856   23.5762 H   0  0  0  0  0  0  0  0  0  0  0  0
   12.3432    3.6339   21.5314 H   0  0  0  0  0  0  0  0  0  0  0  0
    5.8197    1.4478   21.8962 H   0  0  0  0  0  0  0  0  0  0  0  0
    4.1471    1.4527   21.2848 H   0  0  0  0  0  0  0  0  0  0  0  0
    4.9085   -0.0734   21.7306 H   0  0  0  0  0  0  0  0  0  0  0  0
   12.8126    3.9888   25.2860 H   0  0  0  0  0  0  0  0  0  0  0  0
   13.0521    2.2636   25.6232 H   0  0  0  0  0  0  0  0  0  0  0  0
   11.4358    2.8719   25.2167 H   0  0  0  0  0  0  0  0  0  0  0  0
    8.7953    6.0089   23.6927 H   0  0  0  0  0  0  0  0  0  0  0  0
   10.1833    6.2942   24.7698 H   0  0  0  0  0  0  0  0  0  0  0  0
    9.2235    7.6575   24.2085 H   0  0  0  0  0  0  0  0  0  0  0  0
    9.0901   -1.6664   22.2639 H   0  0  0  0  0  0  0  0  0  0  0  0
    8.6579   -0.3097   23.2977 H   0  0  0  0  0  0  0  0  0  0  0  0
   11.3652    7.5051   22.9331 H   0  0  0  0  0  0  0  0  0  0  0  0
    9.9781    7.2175   21.8508 H   0  0  0  0  0  0  0  0  0  0  0  0
    7.3129   -1.4300   20.9567 H   0  0  0  0  0  0  0  0  0  0  0  0
  1  5  2  0  0  0  0
  1  8  1  0  0  0  0
  2  7  2  0  0  0  0
  2  9  1  0  0  0  0
  3  7  1  0  0  0  0
  3 11  2  0  0  0  0
  4  9  2  0  0  0  0
  4 11  1  0  0  0  0
  5 22  1  0  0  0  0
  6 10  1  0  0  0  0
  6 22  2  0  0  0  0
  7 16  1  0  0  0  0
  8 10  2  0  0  0  0
  8 17  1  0  0  0  0
  9 20  1  0  0  0  0
 10 23  1  0  0  0  0
 11 27  1  0  0  0  0
 12 15  1  6  0  0  0
 12 24  2  0  0  0  0
 12 26  1  0  0  0  0
 13 20  1  0  0  0  0
 13 23  1  0  0  0  0
 13 25  2  0  0  0  0
 14 15  1  0  0  0  0
 14 16  1  0  0  0  0
 15 16  1  0  0  0  0
 16 18  1  6  0  0  0
 19 21  1  0  0  0  0
 21 26  1  0  0  0  0
  1 28  1  0  0  0  0
  2 29  1  0  0  0  0
  3 30  1  0  0  0  0
  4 31  1  0  0  0  0
  5 32  1  0  0  0  0
  6 33  1  0  0  0  0
 14 34  1  0  0  0  0
 14 35  1  0  0  0  0
 15 36  1  0  0  0  0
 17 37  1  0  0  0  0
 17 38  1  0  0  0  0
 17 39  1  0  0  0  0
 18 40  1  0  0  0  0
 18 41  1  0  0  0  0
 18 42  1  0  0  0  0
 19 43  1  0  0  0  0
 19 44  1  0  0  0  0
 19 45  1  0  0  0  0
 20 46  1  0  0  0  0
 20 47  1  0  0  0  0
 21 48  1  0  0  0  0
 21 49  1  0  0  0  0
 23 50  1  0  0  0  0
M  END
> <BB_SMILES>
CCOC(=O)C1CC1(C)B1OC(C)(C)C(C)(C)O1

> <scaffold_SMILES>
Cc1ccncc1NC(=O)Cc1cc(Cl)cc(Br)c1

$$$$
EN300-1722947
  -OEChem-07272002243D

 48 51  0     1  0  0  0  0  0999 V2000
    5.0000    1.4070   18.8080 C   0  0  0  0  0  0  0  0  0  0  0  0
   11.0490    1.0010   23.0460 C   0  0  0  0  0  0  0  0  0  0  0  0
   13.3680    0.4840   22.6240 C   0  0  0  0  0  0  0  0  0  0  0  0
   11.6520   -1.1420   22.1450 C   0  0  0  0  0  0  0  0  0  0  0  0
    5.5330    1.3060   17.5390 C   0  0  0  0  0  0  0  0  0  0  0  0
    7.2400   -0.0390   18.2610 C   0  0  0  0  0  0  0  0  0  0  0  0
   12.3850    1.3610   23.0530 C   0  0  0  0  0  0  0  0  0  0  0  0
    5.6260    0.7590   19.8690 C   0  0  0  0  0  0  0  0  0  0  0  0
   10.6720   -0.2500   22.5660 C   0  0  0  0  0  0  0  0  0  0  0  0
    6.7930    0.0210   19.5790 C   0  0  0  0  0  0  0  0  0  0  0  0
   12.9770   -0.7640   22.1810 C   0  0  0  0  0  0  0  0  0  0  0  0
    8.6020    0.1230   21.2070 C   0  0  0  0  0  0  0  0  0  0  0  0
   11.9071    5.2408   23.5652 C   0  0  0  0  0  0  0  0  0  0  0  0
   12.4327    3.1333   24.9734 C   0  0  0  0  0  0  0  0  0  0  0  0
   13.0356    5.5023   22.5794 C   0  0  0  0  0  0  0  0  0  0  0  0
   14.0854    3.2782   22.9718 C   0  0  0  0  0  0  0  0  0  0  0  0
   11.6914    3.7794   23.8355 C   0  0  2  0  0  0  0  0  0  0  0  0
   12.7866    2.7579   23.5467 C   0  0  1  0  0  0  0  0  0  0  0  0
    5.0980    0.9060   21.2740 C   0  0  0  0  0  0  0  0  0  0  0  0
    9.2100   -0.5900   22.3990 C   0  0  0  0  0  0  0  0  0  0  0  0
    6.6320    0.5940   17.2520 N   0  0  0  0  0  0  0  0  0  0  0  0
    7.5630   -0.5230   20.6330 N   0  0  0  0  0  0  0  0  0  0  0  0
   14.2544    4.7677   23.0283 N   0  3  0  0  0  0  0  0  0  0  0  0
    9.0150    1.2120   20.8220 O   0  0  0  0  0  0  0  0  0  0  0  0
   14.1940   -1.9100   21.6990 Cl  0  0  0  0  0  0  0  0  0  0  0  0
    4.0894    1.9955   18.9731 H   0  0  0  0  0  0  0  0  0  0  0  0
   10.2920    1.6908   23.4149 H   0  0  0  0  0  0  0  0  0  0  0  0
   14.4066    0.7739   22.6379 H   0  0  0  0  0  0  0  0  0  0  0  0
   11.3632   -2.1298   21.7911 H   0  0  0  0  0  0  0  0  0  0  0  0
    5.0712    1.8129   16.6995 H   0  0  0  0  0  0  0  0  0  0  0  0
    8.1159   -0.6122   17.9919 H   0  0  0  0  0  0  0  0  0  0  0  0
   12.1043    5.7663   24.5078 H   0  0  0  0  0  0  0  0  0  0  0  0
   10.9830    5.6714   23.1616 H   0  0  0  0  0  0  0  0  0  0  0  0
   13.1408    3.7259   25.5414 H   0  0  0  0  0  0  0  0  0  0  0  0
   11.8871    2.4198   25.5816 H   0  0  0  0  0  0  0  0  0  0  0  0
   12.7959    5.1505   21.5704 H   0  0  0  0  0  0  0  0  0  0  0  0
   13.2931    6.5648   22.5405 H   0  0  0  0  0  0  0  0  0  0  0  0
   14.9457    2.8504   23.4975 H   0  0  0  0  0  0  0  0  0  0  0  0
   14.1667    3.0149   21.9105 H   0  0  0  0  0  0  0  0  0  0  0  0
   10.6567    3.4883   23.6945 H   0  0  0  0  0  0  0  0  0  0  0  0
    4.0976    1.3536   21.2589 H   0  0  0  0  0  0  0  0  0  0  0  0
    5.0385   -0.0661   21.7788 H   0  0  0  0  0  0  0  0  0  0  0  0
    5.7561    1.5408   21.8802 H   0  0  0  0  0  0  0  0  0  0  0  0
    9.0901   -1.6664   22.2639 H   0  0  0  0  0  0  0  0  0  0  0  0
    8.6579   -0.3097   23.2977 H   0  0  0  0  0  0  0  0  0  0  0  0
    7.3129   -1.4300   20.9567 H   0  0  0  0  0  0  0  0  0  0  0  0
   15.0582    5.0404   22.4461 H   0  0  0  0  0  0  0  0  0  0  0  0
   14.4951    5.0541   23.9874 H   0  0  0  0  0  0  0  0  0  0  0  0
  1  5  2  0  0  0  0
  1  8  1  0  0  0  0
  2  7  1  0  0  0  0
  2  9  2  0  0  0  0
  3  7  2  0  0  0  0
  3 11  1  0  0  0  0
  4  9  1  0  0  0  0
  4 11  2  0  0  0  0
  5 21  1  0  0  0  0
  6 10  1  0  0  0  0
  6 21  2  0  0  0  0
  7 18  1  1  0  0  0
  8 10  2  0  0  0  0
  8 19  1  0  0  0  0
  9 20  1  0  0  0  0
 10 22  1  0  0  0  0
 11 25  1  0  0  0  0
 12 20  1  0  0  0  0
 12 22  1  0  0  0  0
 12 24  2  0  0  0  0
 13 15  1  0  0  0  0
 13 17  1  1  0  0  0
 14 17  1  0  0  0  0
 14 18  1  0  0  0  0
 15 23  1  0  0  0  0
 16 18  1  0  0  0  0
 16 23  1  0  0  0  0
 17 18  1  0  0  0  0
  1 26  1  0  0  0  0
  2 27  1  0  0  0  0
  3 28  1  0  0  0  0
  4 29  1  0  0  0  0
  5 30  1  0  0  0  0
  6 31  1  0  0  0  0
 13 32  1  0  0  0  0
 13 33  1  0  0  0  0
 14 34  1  0  0  0  0
 14 35  1  0  0  0  0
 15 36  1  0  0  0  0
 15 37  1  0  0  0  0
 16 38  1  0  0  0  0
 16 39  1  0  0  0  0
 17 40  1  0  0  0  0
 19 41  1  0  0  0  0
 19 42  1  0  0  0  0
 19 43  1  0  0  0  0
 20 44  1  0  0  0  0
 20 45  1  0  0  0  0
 22 46  1  0  0  0  0
 23 47  1  0  0  0  0
 23 48  1  0  0  0  0
M  CHG  1  23   1
M  END
> <BB_SMILES>
CC1(C)OB(C23CNCCC2C3)OC1(C)C

> <scaffold_SMILES>
Cc1ccncc1NC(=O)Cc1cc(Cl)cc(Br)c1

$$$$
EN300-1722947
  -OEChem-07272002243D

 48 51  0     1  0  0  0  0  0999 V2000
    5.0000    1.4070   18.8080 C   0  0  0  0  0  0  0  0  0  0  0  0
   11.0490    1.0010   23.0460 C   0  0  0  0  0  0  0  0  0  0  0  0
   13.3680    0.4840   22.6240 C   0  0  0  0  0  0  0  0  0  0  0  0
   11.6520   -1.1420   22.1450 C   0  0  0  0  0  0  0  0  0  0  0  0
    5.5330    1.3060   17.5390 C   0  0  0  0  0  0  0  0  0  0  0  0
    7.2400   -0.0390   18.2610 C   0  0  0  0  0  0  0  0  0  0  0  0
   12.3850    1.3610   23.0530 C   0  0  0  0  0  0  0  0  0  0  0  0
    5.6260    0.7590   19.8690 C   0  0  0  0  0  0  0  0  0  0  0  0
   10.6720   -0.2500   22.5660 C   0  0  0  0  0  0  0  0  0  0  0  0
    6.7930    0.0210   19.5790 C   0  0  0  0  0  0  0  0  0  0  0  0
   12.9770   -0.7640   22.1810 C   0  0  0  0  0  0  0  0  0  0  0  0
    8.6020    0.1230   21.2070 C   0  0  0  0  0  0  0  0  0  0  0  0
   10.7790    3.9641   22.8179 C   0  0  0  0  0  0  0  0  0  0  0  0
   13.5008    3.5171   22.4261 C   0  0  0  0  0  0  0  0  0  0  0  0
   10.2110    3.9789   24.2598 C   0  0  0  0  0  0  0  0  0  0  0  0
   12.4851    2.9469   25.0006 C   0  0  0  0  0  0  0  0  0  0  0  0
   12.2452    4.0577   22.9586 C   0  0  2  0  0  0  0  0  0  0  0  0
   12.7813    2.7392   23.5401 C   0  0  2  0  0  0  0  0  0  0  0  0
    5.0980    0.9060   21.2740 C   0  0  0  0  0  0  0  0  0  0  0  0
    9.2100   -0.5900   22.3990 C   0  0  0  0  0  0  0  0  0  0  0  0
    6.6320    0.5940   17.2520 N   0  0  0  0  0  0  0  0  0  0  0  0
    7.5630   -0.5230   20.6330 N   0  0  0  0  0  0  0  0  0  0  0  0
   10.9688    3.0491   25.2019 N   0  3  0  0  0  0  0  0  0  0  0  0
    9.0150    1.2120   20.8220 O   0  0  0  0  0  0  0  0  0  0  0  0
   14.1940   -1.9100   21.6990 Cl  0  0  0  0  0  0  0  0  0  0  0  0
    4.0894    1.9955   18.9731 H   0  0  0  0  0  0  0  0  0  0  0  0
   10.2920    1.6908   23.4149 H   0  0  0  0  0  0  0  0  0  0  0  0
   14.4066    0.7739   22.6379 H   0  0  0  0  0  0  0  0  0  0  0  0
   11.3632   -2.1298   21.7911 H   0  0  0  0  0  0  0  0  0  0  0  0
    5.0712    1.8129   16.6995 H   0  0  0  0  0  0  0  0  0  0  0  0
    8.1159   -0.6122   17.9919 H   0  0  0  0  0  0  0  0  0  0  0  0
   10.4556    3.0635   22.2852 H   0  0  0  0  0  0  0  0  0  0  0  0
   10.3902    4.8242   22.2622 H   0  0  0  0  0  0  0  0  0  0  0  0
   13.4906    3.1369   21.4109 H   0  0  0  0  0  0  0  0  0  0  0  0
   14.4313    4.0050   22.6947 H   0  0  0  0  0  0  0  0  0  0  0  0
   10.3109    4.9777   24.6990 H   0  0  0  0  0  0  0  0  0  0  0  0
    9.1593    3.6798   24.2890 H   0  0  0  0  0  0  0  0  0  0  0  0
   12.8169    2.1048   25.6171 H   0  0  0  0  0  0  0  0  0  0  0  0
   12.9203    3.8667   25.4086 H   0  0  0  0  0  0  0  0  0  0  0  0
   12.4494    5.0101   23.4567 H   0  0  0  0  0  0  0  0  0  0  0  0
    4.1642    1.4800   21.2707 H   0  0  0  0  0  0  0  0  0  0  0  0
    4.9050   -0.0731   21.7293 H   0  0  0  0  0  0  0  0  0  0  0  0
    5.8224    1.4202   21.9177 H   0  0  0  0  0  0  0  0  0  0  0  0
    9.0901   -1.6664   22.2639 H   0  0  0  0  0  0  0  0  0  0  0  0
    8.6579   -0.3097   23.2977 H   0  0  0  0  0  0  0  0  0  0  0  0
    7.3129   -1.4300   20.9567 H   0  0  0  0  0  0  0  0  0  0  0  0
   10.7726    3.3171   26.1761 H   0  0  0  0  0  0  0  0  0  0  0  0
   10.5736    2.1049   25.0928 H   0  0  0  0  0  0  0  0  0  0  0  0
  1  5  2  0  0  0  0
  1  8  1  0  0  0  0
  2  7  1  0  0  0  0
  2  9  2  0  0  0  0
  3  7  2  0  0  0  0
  3 11  1  0  0  0  0
  4  9  1  0  0  0  0
  4 11  2  0  0  0  0
  5 21  1  0  0  0  0
  6 10  1  0  0  0  0
  6 21  2  0  0  0  0
  7 18  1  6  0  0  0
  8 10  2  0  0  0  0
  8 19  1  0  0  0  0
  9 20  1  0  0  0  0
 10 22  1  0  0  0  0
 11 25  1  0  0  0  0
 12 20  1  0  0  0  0
 12 22  1  0  0  0  0
 12 24  2  0  0  0  0
 13 15  1  0  0  0  0
 13 17  1  1  0  0  0
 14 17  1  0  0  0  0
 14 18  1  0  0  0  0
 15 23  1  0  0  0  0
 16 18  1  0  0  0  0
 16 23  1  0  0  0  0
 17 18  1  0  0  0  0
  1 26  1  0  0  0  0
  2 27  1  0  0  0  0
  3 28  1  0  0  0  0
  4 29  1  0  0  0  0
  5 30  1  0  0  0  0
  6 31  1  0  0  0  0
 13 32  1  0  0  0  0
 13 33  1  0  0  0  0
 14 34  1  0  0  0  0
 14 35  1  0  0  0  0
 15 36  1  0  0  0  0
 15 37  1  0  0  0  0
 16 38  1  0  0  0  0
 16 39  1  0  0  0  0
 17 40  1  0  0  0  0
 19 41  1  0  0  0  0
 19 42  1  0  0  0  0
 19 43  1  0  0  0  0
 20 44  1  0  0  0  0
 20 45  1  0  0  0  0
 22 46  1  0  0  0  0
 23 47  1  0  0  0  0
 23 48  1  0  0  0  0
M  CHG  1  23   1
M  END
> <BB_SMILES>
CC1(C)OB(C23CNCCC2C3)OC1(C)C

> <scaffold_SMILES>
Cc1ccncc1NC(=O)Cc1cc(Cl)cc(Br)c1

$$$$
EN300-1722947
  -OEChem-07272002243D

 48 51  0     1  0  0  0  0  0999 V2000
    5.0000    1.4070   18.8080 C   0  0  0  0  0  0  0  0  0  0  0  0
   11.0490    1.0010   23.0460 C   0  0  0  0  0  0  0  0  0  0  0  0
   13.3680    0.4840   22.6240 C   0  0  0  0  0  0  0  0  0  0  0  0
   11.6520   -1.1420   22.1450 C   0  0  0  0  0  0  0  0  0  0  0  0
    5.5330    1.3060   17.5390 C   0  0  0  0  0  0  0  0  0  0  0  0
    7.2400   -0.0390   18.2610 C   0  0  0  0  0  0  0  0  0  0  0  0
   12.3850    1.3610   23.0530 C   0  0  0  0  0  0  0  0  0  0  0  0
    5.6260    0.7590   19.8690 C   0  0  0  0  0  0  0  0  0  0  0  0
   10.6720   -0.2500   22.5660 C   0  0  0  0  0  0  0  0  0  0  0  0
    6.7930    0.0210   19.5790 C   0  0  0  0  0  0  0  0  0  0  0  0
   12.9770   -0.7640   22.1810 C   0  0  0  0  0  0  0  0  0  0  0  0
    8.6020    0.1230   21.2070 C   0  0  0  0  0  0  0  0  0  0  0  0
   11.4248    4.0406   21.9492 C   0  0  0  0  0  0  0  0  0  0  0  0
   11.7975    3.2481   24.5999 C   0  0  0  0  0  0  0  0  0  0  0  0
   12.6200    3.8157   20.9858 C   0  0  0  0  0  0  0  0  0  0  0  0
   14.1153    3.1966   23.0022 C   0  0  0  0  0  0  0  0  0  0  0  0
   11.9232    3.9987   23.3418 C   0  0  1  0  0  0  0  0  0  0  0  0
   12.7812    2.7388   23.5400 C   0  0  1  0  0  0  0  0  0  0  0  0
    5.0980    0.9060   21.2740 C   0  0  0  0  0  0  0  0  0  0  0  0
    9.2100   -0.5900   22.3990 C   0  0  0  0  0  0  0  0  0  0  0  0
    6.6320    0.5940   17.2520 N   0  0  0  0  0  0  0  0  0  0  0  0
    7.5630   -0.5230   20.6330 N   0  0  0  0  0  0  0  0  0  0  0  0
   13.9542    3.9940   21.6988 N   0  3  0  0  0  0  0  0  0  0  0  0
    9.0150    1.2120   20.8220 O   0  0  0  0  0  0  0  0  0  0  0  0
   14.1940   -1.9100   21.6990 Cl  0  0  0  0  0  0  0  0  0  0  0  0
    4.0894    1.9955   18.9731 H   0  0  0  0  0  0  0  0  0  0  0  0
   10.2920    1.6908   23.4149 H   0  0  0  0  0  0  0  0  0  0  0  0
   14.4066    0.7739   22.6379 H   0  0  0  0  0  0  0  0  0  0  0  0
   11.3632   -2.1298   21.7911 H   0  0  0  0  0  0  0  0  0  0  0  0
    5.0712    1.8129   16.6995 H   0  0  0  0  0  0  0  0  0  0  0  0
    8.1159   -0.6122   17.9919 H   0  0  0  0  0  0  0  0  0  0  0  0
   10.9796    5.0225   21.7504 H   0  0  0  0  0  0  0  0  0  0  0  0
   10.6433    3.2950   21.7672 H   0  0  0  0  0  0  0  0  0  0  0  0
   12.2249    3.6721   25.5018 H   0  0  0  0  0  0  0  0  0  0  0  0
   10.8683    2.7166   24.7720 H   0  0  0  0  0  0  0  0  0  0  0  0
   12.6221    2.7989   20.5798 H   0  0  0  0  0  0  0  0  0  0  0  0
   12.6049    4.5252   20.1531 H   0  0  0  0  0  0  0  0  0  0  0  0
   14.6407    3.8548   23.7028 H   0  0  0  0  0  0  0  0  0  0  0  0
   14.7725    2.3547   22.7586 H   0  0  0  0  0  0  0  0  0  0  0  0
   12.3487    4.9856   23.5479 H   0  0  0  0  0  0  0  0  0  0  0  0
    5.4608    1.8391   21.7204 H   0  0  0  0  0  0  0  0  0  0  0  0
    4.0012    0.9158   21.2862 H   0  0  0  0  0  0  0  0  0  0  0  0
    5.4168    0.0684   21.9068 H   0  0  0  0  0  0  0  0  0  0  0  0
    9.0901   -1.6664   22.2639 H   0  0  0  0  0  0  0  0  0  0  0  0
    8.6579   -0.3097   23.2977 H   0  0  0  0  0  0  0  0  0  0  0  0
    7.3129   -1.4300   20.9567 H   0  0  0  0  0  0  0  0  0  0  0  0
   14.7221    3.7558   21.0562 H   0  0  0  0  0  0  0  0  0  0  0  0
   14.0748    4.9941   21.9115 H   0  0  0  0  0  0  0  0  0  0  0  0
  1  5  2  0  0  0  0
  1  8  1  0  0  0  0
  2  7  1  0  0  0  0
  2  9  2  0  0  0  0
  3  7  2  0  0  0  0
  3 11  1  0  0  0  0
  4  9  1  0  0  0  0
  4 11  2  0  0  0  0
  5 21  1  0  0  0  0
  6 10  1  0  0  0  0
  6 21  2  0  0  0  0
  7 18  1  1  0  0  0
  8 10  2  0  0  0  0
  8 19  1  0  0  0  0
  9 20  1  0  0  0  0
 10 22  1  0  0  0  0
 11 25  1  0  0  0  0
 12 20  1  0  0  0  0
 12 22  1  0  0  0  0
 12 24  2  0  0  0  0
 13 15  1  0  0  0  0
 13 17  1  6  0  0  0
 14 17  1  0  0  0  0
 14 18  1  0  0  0  0
 15 23  1  0  0  0  0
 16 18  1  0  0  0  0
 16 23  1  0  0  0  0
 17 18  1  0  0  0  0
  1 26  1  0  0  0  0
  2 27  1  0  0  0  0
  3 28  1  0  0  0  0
  4 29  1  0  0  0  0
  5 30  1  0  0  0  0
  6 31  1  0  0  0  0
 13 32  1  0  0  0  0
 13 33  1  0  0  0  0
 14 34  1  0  0  0  0
 14 35  1  0  0  0  0
 15 36  1  0  0  0  0
 15 37  1  0  0  0  0
 16 38  1  0  0  0  0
 16 39  1  0  0  0  0
 17 40  1  0  0  0  0
 19 41  1  0  0  0  0
 19 42  1  0  0  0  0
 19 43  1  0  0  0  0
 20 44  1  0  0  0  0
 20 45  1  0  0  0  0
 22 46  1  0  0  0  0
 23 47  1  0  0  0  0
 23 48  1  0  0  0  0
M  CHG  1  23   1
M  END
> <BB_SMILES>
CC1(C)OB(C23CNCCC2C3)OC1(C)C

> <scaffold_SMILES>
Cc1ccncc1NC(=O)Cc1cc(Cl)cc(Br)c1

$$$$
EN300-1722947
  -OEChem-07272002243D

 48 51  0     1  0  0  0  0  0999 V2000
    5.0000    1.4070   18.8080 C   0  0  0  0  0  0  0  0  0  0  0  0
   11.0490    1.0010   23.0460 C   0  0  0  0  0  0  0  0  0  0  0  0
   13.3680    0.4840   22.6240 C   0  0  0  0  0  0  0  0  0  0  0  0
   11.6520   -1.1420   22.1450 C   0  0  0  0  0  0  0  0  0  0  0  0
    5.5330    1.3060   17.5390 C   0  0  0  0  0  0  0  0  0  0  0  0
    7.2400   -0.0390   18.2610 C   0  0  0  0  0  0  0  0  0  0  0  0
   12.3850    1.3610   23.0530 C   0  0  0  0  0  0  0  0  0  0  0  0
    5.6260    0.7590   19.8690 C   0  0  0  0  0  0  0  0  0  0  0  0
   10.6720   -0.2500   22.5660 C   0  0  0  0  0  0  0  0  0  0  0  0
    6.7930    0.0210   19.5790 C   0  0  0  0  0  0  0  0  0  0  0  0
   12.9770   -0.7640   22.1810 C   0  0  0  0  0  0  0  0  0  0  0  0
    8.6020    0.1230   21.2070 C   0  0  0  0  0  0  0  0  0  0  0  0
   14.5590    4.6495   23.0799 C   0  0  0  0  0  0  0  0  0  0  0  0
   13.7221    2.8463   24.7380 C   0  0  0  0  0  0  0  0  0  0  0  0
   13.3789    5.4236   22.5126 C   0  0  0  0  0  0  0  0  0  0  0  0
   11.7070    3.8079   23.4062 C   0  0  0  0  0  0  0  0  0  0  0  0
   14.2318    3.2131   23.3714 C   0  0  1  0  0  0  0  0  0  0  0  0
   12.7866    2.7578   23.5467 C   0  0  2  0  0  0  0  0  0  0  0  0
    5.0980    0.9060   21.2740 C   0  0  0  0  0  0  0  0  0  0  0  0
    9.2100   -0.5900   22.3990 C   0  0  0  0  0  0  0  0  0  0  0  0
    6.6320    0.5940   17.2520 N   0  0  0  0  0  0  0  0  0  0  0  0
    7.5630   -0.5230   20.6330 N   0  0  0  0  0  0  0  0  0  0  0  0
   12.1956    5.2262   23.4003 N   0  3  0  0  0  0  0  0  0  0  0  0
    9.0150    1.2120   20.8220 O   0  0  0  0  0  0  0  0  0  0  0  0
   14.1940   -1.9100   21.6990 Cl  0  0  0  0  0  0  0  0  0  0  0  0
    4.0894    1.9955   18.9731 H   0  0  0  0  0  0  0  0  0  0  0  0
   10.2920    1.6908   23.4149 H   0  0  0  0  0  0  0  0  0  0  0  0
   14.4066    0.7739   22.6379 H   0  0  0  0  0  0  0  0  0  0  0  0
   11.3632   -2.1298   21.7911 H   0  0  0  0  0  0  0  0  0  0  0  0
    5.0712    1.8129   16.6995 H   0  0  0  0  0  0  0  0  0  0  0  0
    8.1159   -0.6122   17.9919 H   0  0  0  0  0  0  0  0  0  0  0  0
   15.3838    4.6900   22.3586 H   0  0  0  0  0  0  0  0  0  0  0  0
   14.9240    5.1384   23.9916 H   0  0  0  0  0  0  0  0  0  0  0  0
   14.0946    1.9278   25.1787 H   0  0  0  0  0  0  0  0  0  0  0  0
   13.5584    3.6334   25.4651 H   0  0  0  0  0  0  0  0  0  0  0  0
   13.5847    6.4975   22.4803 H   0  0  0  0  0  0  0  0  0  0  0  0
   13.0972    5.0782   21.5121 H   0  0  0  0  0  0  0  0  0  0  0  0
   11.1697    3.6800   22.4589 H   0  0  0  0  0  0  0  0  0  0  0  0
   10.9815    3.7355   24.2236 H   0  0  0  0  0  0  0  0  0  0  0  0
   14.9402    2.5332   22.9118 H   0  0  0  0  0  0  0  0  0  0  0  0
    4.1972    1.5306   21.2778 H   0  0  0  0  0  0  0  0  0  0  0  0
    4.8485   -0.0702   21.7078 H   0  0  0  0  0  0  0  0  0  0  0  0
    5.8455    1.3662   21.9321 H   0  0  0  0  0  0  0  0  0  0  0  0
    9.0901   -1.6664   22.2639 H   0  0  0  0  0  0  0  0  0  0  0  0
    8.6579   -0.3097   23.2977 H   0  0  0  0  0  0  0  0  0  0  0  0
    7.3129   -1.4300   20.9567 H   0  0  0  0  0  0  0  0  0  0  0  0
   12.4330    5.5160   24.3593 H   0  0  0  0  0  0  0  0  0  0  0  0
   11.4308    5.8476   23.1030 H   0  0  0  0  0  0  0  0  0  0  0  0
  1  5  2  0  0  0  0
  1  8  1  0  0  0  0
  2  7  1  0  0  0  0
  2  9  2  0  0  0  0
  3  7  2  0  0  0  0
  3 11  1  0  0  0  0
  4  9  1  0  0  0  0
  4 11  2  0  0  0  0
  5 21  1  0  0  0  0
  6 10  1  0  0  0  0
  6 21  2  0  0  0  0
  7 18  1  6  0  0  0
  8 10  2  0  0  0  0
  8 19  1  0  0  0  0
  9 20  1  0  0  0  0
 10 22  1  0  0  0  0
 11 25  1  0  0  0  0
 12 20  1  0  0  0  0
 12 22  1  0  0  0  0
 12 24  2  0  0  0  0
 13 15  1  0  0  0  0
 13 17  1  6  0  0  0
 14 17  1  0  0  0  0
 14 18  1  0  0  0  0
 15 23  1  0  0  0  0
 16 18  1  0  0  0  0
 16 23  1  0  0  0  0
 17 18  1  0  0  0  0
  1 26  1  0  0  0  0
  2 27  1  0  0  0  0
  3 28  1  0  0  0  0
  4 29  1  0  0  0  0
  5 30  1  0  0  0  0
  6 31  1  0  0  0  0
 13 32  1  0  0  0  0
 13 33  1  0  0  0  0
 14 34  1  0  0  0  0
 14 35  1  0  0  0  0
 15 36  1  0  0  0  0
 15 37  1  0  0  0  0
 16 38  1  0  0  0  0
 16 39  1  0  0  0  0
 17 40  1  0  0  0  0
 19 41  1  0  0  0  0
 19 42  1  0  0  0  0
 19 43  1  0  0  0  0
 20 44  1  0  0  0  0
 20 45  1  0  0  0  0
 22 46  1  0  0  0  0
 23 47  1  0  0  0  0
 23 48  1  0  0  0  0
M  CHG  1  23   1
M  END
> <BB_SMILES>
CC1(C)OB(C23CNCCC2C3)OC1(C)C

> <scaffold_SMILES>
Cc1ccncc1NC(=O)Cc1cc(Cl)cc(Br)c1

$$$$
EN300-7537541
  -OEChem-07272002243D

 43 46  0     1  0  0  0  0  0999 V2000
    5.0000    1.4070   18.8080 C   0  0  0  0  0  0  0  0  0  0  0  0
   11.0490    1.0010   23.0460 C   0  0  0  0  0  0  0  0  0  0  0  0
   13.3680    0.4840   22.6240 C   0  0  0  0  0  0  0  0  0  0  0  0
   11.6520   -1.1420   22.1450 C   0  0  0  0  0  0  0  0  0  0  0  0
    5.5330    1.3060   17.5390 C   0  0  0  0  0  0  0  0  0  0  0  0
    7.2400   -0.0390   18.2610 C   0  0  0  0  0  0  0  0  0  0  0  0
   12.3850    1.3610   23.0530 C   0  0  0  0  0  0  0  0  0  0  0  0
    5.6260    0.7590   19.8690 C   0  0  0  0  0  0  0  0  0  0  0  0
   10.6720   -0.2500   22.5660 C   0  0  0  0  0  0  0  0  0  0  0  0
    6.7930    0.0210   19.5790 C   0  0  0  0  0  0  0  0  0  0  0  0
   12.9770   -0.7640   22.1810 C   0  0  0  0  0  0  0  0  0  0  0  0
    8.6020    0.1230   21.2070 C   0  0  0  0  0  0  0  0  0  0  0  0
   14.3898    4.7850   23.2066 C   0  0  0  0  0  0  0  0  0  0  0  0
   12.1521    5.2853   23.6143 C   0  0  0  0  0  0  0  0  0  0  0  0
   12.7834    2.7466   23.5428 C   0  0  1  0  0  0  0  0  0  0  0  0
   13.5917    3.6605   22.6454 C   0  0  2  0  0  0  0  0  0  0  0  0
   12.1746    3.9773   22.9036 C   0  0  2  0  0  0  0  0  0  0  0  0
    5.0980    0.9060   21.2740 C   0  0  0  0  0  0  0  0  0  0  0  0
    9.2100   -0.5900   22.3990 C   0  0  0  0  0  0  0  0  0  0  0  0
    6.6320    0.5940   17.2520 N   0  0  0  0  0  0  0  0  0  0  0  0
    7.5630   -0.5230   20.6330 N   0  0  0  0  0  0  0  0  0  0  0  0
    9.0150    1.2120   20.8220 O   0  0  0  0  0  0  0  0  0  0  0  0
   13.5012    5.5471   24.0456 O   0  0  0  0  0  0  0  0  0  0  0  0
   14.1940   -1.9100   21.6990 Cl  0  0  0  0  0  0  0  0  0  0  0  0
    4.0894    1.9955   18.9731 H   0  0  0  0  0  0  0  0  0  0  0  0
   10.2920    1.6908   23.4149 H   0  0  0  0  0  0  0  0  0  0  0  0
   14.4066    0.7739   22.6379 H   0  0  0  0  0  0  0  0  0  0  0  0
   11.3632   -2.1298   21.7911 H   0  0  0  0  0  0  0  0  0  0  0  0
    5.0712    1.8129   16.6995 H   0  0  0  0  0  0  0  0  0  0  0  0
    8.1159   -0.6122   17.9919 H   0  0  0  0  0  0  0  0  0  0  0  0
   15.2346    4.4361   23.8069 H   0  0  0  0  0  0  0  0  0  0  0  0
   14.7595    5.4423   22.4130 H   0  0  0  0  0  0  0  0  0  0  0  0
   11.8437    6.0942   22.9442 H   0  0  0  0  0  0  0  0  0  0  0  0
   11.4950    5.2724   24.4882 H   0  0  0  0  0  0  0  0  0  0  0  0
   12.9910    2.8020   24.6118 H   0  0  0  0  0  0  0  0  0  0  0  0
   13.9013    3.3297   21.6657 H   0  0  0  0  0  0  0  0  0  0  0  0
   11.4462    3.8785   22.1132 H   0  0  0  0  0  0  0  0  0  0  0  0
    4.0534    1.2375   21.2544 H   0  0  0  0  0  0  0  0  0  0  0  0
    5.1532   -0.0441   21.8195 H   0  0  0  0  0  0  0  0  0  0  0  0
    5.6860    1.6361   21.8439 H   0  0  0  0  0  0  0  0  0  0  0  0
    9.0901   -1.6664   22.2639 H   0  0  0  0  0  0  0  0  0  0  0  0
    8.6579   -0.3097   23.2977 H   0  0  0  0  0  0  0  0  0  0  0  0
    7.3129   -1.4300   20.9567 H   0  0  0  0  0  0  0  0  0  0  0  0
  1  5  2  0  0  0  0
  1  8  1  0  0  0  0
  2  7  1  0  0  0  0
  2  9  2  0  0  0  0
  3  7  2  0  0  0  0
  3 11  1  0  0  0  0
  4  9  1  0  0  0  0
  4 11  2  0  0  0  0
  5 20  1  0  0  0  0
  6 10  1  0  0  0  0
  6 20  2  0  0  0  0
  7 15  1  0  0  0  0
  8 10  2  0  0  0  0
  8 18  1  0  0  0  0
  9 19  1  0  0  0  0
 10 21  1  0  0  0  0
 11 24  1  0  0  0  0
 12 19  1  0  0  0  0
 12 21  1  0  0  0  0
 12 22  2  0  0  0  0
 13 16  1  0  0  0  0
 13 23  1  0  0  0  0
 14 17  1  0  0  0  0
 14 23  1  0  0  0  0
 15 16  1  0  0  0  0
 15 17  1  0  0  0  0
 16 17  1  0  0  0  0
  1 25  1  0  0  0  0
  2 26  1  0  0  0  0
  3 27  1  0  0  0  0
  4 28  1  0  0  0  0
  5 29  1  0  0  0  0
  6 30  1  0  0  0  0
 13 31  1  0  0  0  0
 13 32  1  0  0  0  0
 14 33  1  0  0  0  0
 14 34  1  0  0  0  0
 15 35  1  0  0  0  0
 16 36  1  0  0  0  0
 17 37  1  0  0  0  0
 18 38  1  0  0  0  0
 18 39  1  0  0  0  0
 18 40  1  0  0  0  0
 19 41  1  0  0  0  0
 19 42  1  0  0  0  0
 21 43  1  0  0  0  0
M  END
> <BB_SMILES>
CC1(C)OB([C@H]2[C@@H]3COC[C@@H]32)OC1(C)C

> <scaffold_SMILES>
Cc1ccncc1NC(=O)Cc1cc(Cl)cc(Br)c1

$$$$
EN300-26572603
  -OEChem-07272002243D

 51 54  0     1  0  0  0  0  0999 V2000
    5.0000    1.4070   18.8080 C   0  0  0  0  0  0  0  0  0  0  0  0
   11.0490    1.0010   23.0460 C   0  0  0  0  0  0  0  0  0  0  0  0
   13.3680    0.4840   22.6240 C   0  0  0  0  0  0  0  0  0  0  0  0
   11.6520   -1.1420   22.1450 C   0  0  0  0  0  0  0  0  0  0  0  0
    5.5330    1.3060   17.5390 C   0  0  0  0  0  0  0  0  0  0  0  0
    7.2400   -0.0390   18.2610 C   0  0  0  0  0  0  0  0  0  0  0  0
   12.3850    1.3610   23.0530 C   0  0  0  0  0  0  0  0  0  0  0  0
    5.6260    0.7590   19.8690 C   0  0  0  0  0  0  0  0  0  0  0  0
   10.6720   -0.2500   22.5660 C   0  0  0  0  0  0  0  0  0  0  0  0
    6.7930    0.0210   19.5790 C   0  0  0  0  0  0  0  0  0  0  0  0
   12.9770   -0.7640   22.1810 C   0  0  0  0  0  0  0  0  0  0  0  0
    8.6020    0.1230   21.2070 C   0  0  0  0  0  0  0  0  0  0  0  0
   12.6847    3.7585   21.0977 C   0  0  0  0  0  0  0  0  0  0  0  0
   14.1252    4.8623   22.8646 C   0  0  0  0  0  0  0  0  0  0  0  0
   12.4438    5.1209   20.4477 C   0  0  0  0  0  0  0  0  0  0  0  0
   13.8832    6.2226   22.2138 C   0  0  0  0  0  0  0  0  0  0  0  0
   11.8043    3.8984   23.5258 C   0  0  0  0  0  0  0  0  0  0  0  0
   12.7839    2.7483   23.5433 C   0  0  2  0  0  0  0  0  0  0  0  0
   12.9771    3.9152   22.5780 C   0  0  0  0  0  0  0  0  0  0  0  0
   13.5904    6.0805   20.7279 C   0  0  0  0  0  0  0  0  0  0  0  0
    5.0980    0.9060   21.2740 C   0  0  0  0  0  0  0  0  0  0  0  0
    9.2100   -0.5900   22.3990 C   0  0  0  0  0  0  0  0  0  0  0  0
    6.6320    0.5940   17.2520 N   0  0  0  0  0  0  0  0  0  0  0  0
    7.5630   -0.5230   20.6330 N   0  0  0  0  0  0  0  0  0  0  0  0
    9.0150    1.2120   20.8220 O   0  0  0  0  0  0  0  0  0  0  0  0
   13.2981    7.2979   20.2066 F   0  0  0  0  0  0  0  0  0  0  0  0
   14.7070    5.6452   20.0893 F   0  0  0  0  0  0  0  0  0  0  0  0
   14.1940   -1.9100   21.6990 Cl  0  0  0  0  0  0  0  0  0  0  0  0
    4.0894    1.9955   18.9731 H   0  0  0  0  0  0  0  0  0  0  0  0
   10.2920    1.6908   23.4149 H   0  0  0  0  0  0  0  0  0  0  0  0
   14.4066    0.7739   22.6379 H   0  0  0  0  0  0  0  0  0  0  0  0
   11.3632   -2.1298   21.7911 H   0  0  0  0  0  0  0  0  0  0  0  0
    5.0712    1.8129   16.6995 H   0  0  0  0  0  0  0  0  0  0  0  0
    8.1159   -0.6122   17.9919 H   0  0  0  0  0  0  0  0  0  0  0  0
   11.8071    3.1253   20.9235 H   0  0  0  0  0  0  0  0  0  0  0  0
   13.5369    3.2630   20.6165 H   0  0  0  0  0  0  0  0  0  0  0  0
   15.0530    4.4242   22.4761 H   0  0  0  0  0  0  0  0  0  0  0  0
   14.2679    5.0000   23.9433 H   0  0  0  0  0  0  0  0  0  0  0  0
   12.3258    4.9935   19.3660 H   0  0  0  0  0  0  0  0  0  0  0  0
   11.5080    5.5548   20.8206 H   0  0  0  0  0  0  0  0  0  0  0  0
   13.0422    6.7288   22.7026 H   0  0  0  0  0  0  0  0  0  0  0  0
   14.7638    6.8585   22.3574 H   0  0  0  0  0  0  0  0  0  0  0  0
   10.8128    3.7309   23.1201 H   0  0  0  0  0  0  0  0  0  0  0  0
   11.8136    4.5787   24.3702 H   0  0  0  0  0  0  0  0  0  0  0  0
   13.4597    2.7238   24.4052 H   0  0  0  0  0  0  0  0  0  0  0  0
    5.1007    1.9607   21.5723 H   0  0  0  0  0  0  0  0  0  0  0  0
    4.0735    0.5224   21.3545 H   0  0  0  0  0  0  0  0  0  0  0  0
    5.7082    0.3390   21.9880 H   0  0  0  0  0  0  0  0  0  0  0  0
    9.0901   -1.6664   22.2639 H   0  0  0  0  0  0  0  0  0  0  0  0
    8.6579   -0.3097   23.2977 H   0  0  0  0  0  0  0  0  0  0  0  0
    7.3129   -1.4300   20.9567 H   0  0  0  0  0  0  0  0  0  0  0  0
  1  5  2  0  0  0  0
  1  8  1  0  0  0  0
  2  7  1  0  0  0  0
  2  9  2  0  0  0  0
  3  7  2  0  0  0  0
  3 11  1  0  0  0  0
  4  9  1  0  0  0  0
  4 11  2  0  0  0  0
  5 23  1  0  0  0  0
  6 10  1  0  0  0  0
  6 23  2  0  0  0  0
  7 18  1  1  0  0  0
  8 10  2  0  0  0  0
  8 21  1  0  0  0  0
  9 22  1  0  0  0  0
 10 24  1  0  0  0  0
 11 28  1  0  0  0  0
 12 22  1  0  0  0  0
 12 24  1  0  0  0  0
 12 25  2  0  0  0  0
 13 15  1  0  0  0  0
 13 19  1  0  0  0  0
 14 16  1  0  0  0  0
 14 19  1  0  0  0  0
 15 20  1  0  0  0  0
 16 20  1  0  0  0  0
 17 18  1  0  0  0  0
 17 19  1  0  0  0  0
 18 19  1  0  0  0  0
 20 26  1  0  0  0  0
 20 27  1  0  0  0  0
  1 29  1  0  0  0  0
  2 30  1  0  0  0  0
  3 31  1  0  0  0  0
  4 32  1  0  0  0  0
  5 33  1  0  0  0  0
  6 34  1  0  0  0  0
 13 35  1  0  0  0  0
 13 36  1  0  0  0  0
 14 37  1  0  0  0  0
 14 38  1  0  0  0  0
 15 39  1  0  0  0  0
 15 40  1  0  0  0  0
 16 41  1  0  0  0  0
 16 42  1  0  0  0  0
 17 43  1  0  0  0  0
 17 44  1  0  0  0  0
 18 45  1  0  0  0  0
 21 46  1  0  0  0  0
 21 47  1  0  0  0  0
 21 48  1  0  0  0  0
 22 49  1  0  0  0  0
 22 50  1  0  0  0  0
 24 51  1  0  0  0  0
M  END
> <BB_SMILES>
CC1(C)OB(C2CC23CCC(F)(F)CC3)OC1(C)C

> <scaffold_SMILES>
Cc1ccncc1NC(=O)Cc1cc(Cl)cc(Br)c1

$$$$
EN300-26572603
  -OEChem-07272002243D

 51 54  0     1  0  0  0  0  0999 V2000
    5.0000    1.4070   18.8080 C   0  0  0  0  0  0  0  0  0  0  0  0
   11.0490    1.0010   23.0460 C   0  0  0  0  0  0  0  0  0  0  0  0
   13.3680    0.4840   22.6240 C   0  0  0  0  0  0  0  0  0  0  0  0
   11.6520   -1.1420   22.1450 C   0  0  0  0  0  0  0  0  0  0  0  0
    5.5330    1.3060   17.5390 C   0  0  0  0  0  0  0  0  0  0  0  0
    7.2400   -0.0390   18.2610 C   0  0  0  0  0  0  0  0  0  0  0  0
   12.3850    1.3610   23.0530 C   0  0  0  0  0  0  0  0  0  0  0  0
    5.6260    0.7590   19.8690 C   0  0  0  0  0  0  0  0  0  0  0  0
   10.6720   -0.2500   22.5660 C   0  0  0  0  0  0  0  0  0  0  0  0
    6.7930    0.0210   19.5790 C   0  0  0  0  0  0  0  0  0  0  0  0
   12.9770   -0.7640   22.1810 C   0  0  0  0  0  0  0  0  0  0  0  0
    8.6020    0.1230   21.2070 C   0  0  0  0  0  0  0  0  0  0  0  0
   11.8926    5.1765   23.8864 C   0  0  0  0  0  0  0  0  0  0  0  0
   11.2707    3.9943   21.7341 C   0  0  0  0  0  0  0  0  0  0  0  0
   10.4259    5.1724   24.3093 C   0  0  0  0  0  0  0  0  0  0  0  0
    9.7983    4.0279   22.1408 C   0  0  0  0  0  0  0  0  0  0  0  0
   13.6290    3.6763   22.7049 C   0  0  0  0  0  0  0  0  0  0  0  0
   12.7840    2.7487   23.5435 C   0  0  1  0  0  0  0  0  0  0  0  0
   12.1816    4.0216   22.9478 C   0  0  0  0  0  0  0  0  0  0  0  0
    9.5064    5.1736   23.0977 C   0  0  0  0  0  0  0  0  0  0  0  0
    5.0980    0.9060   21.2740 C   0  0  0  0  0  0  0  0  0  0  0  0
    9.2100   -0.5900   22.3990 C   0  0  0  0  0  0  0  0  0  0  0  0
    6.6320    0.5940   17.2520 N   0  0  0  0  0  0  0  0  0  0  0  0
    7.5630   -0.5230   20.6330 N   0  0  0  0  0  0  0  0  0  0  0  0
    9.0150    1.2120   20.8220 O   0  0  0  0  0  0  0  0  0  0  0  0
    9.6338    6.3537   22.4380 F   0  0  0  0  0  0  0  0  0  0  0  0
    8.2161    5.0999   23.5093 F   0  0  0  0  0  0  0  0  0  0  0  0
   14.1940   -1.9100   21.6990 Cl  0  0  0  0  0  0  0  0  0  0  0  0
    4.0894    1.9955   18.9731 H   0  0  0  0  0  0  0  0  0  0  0  0
   10.2920    1.6908   23.4149 H   0  0  0  0  0  0  0  0  0  0  0  0
   14.4066    0.7739   22.6379 H   0  0  0  0  0  0  0  0  0  0  0  0
   11.3632   -2.1298   21.7911 H   0  0  0  0  0  0  0  0  0  0  0  0
    5.0712    1.8129   16.6995 H   0  0  0  0  0  0  0  0  0  0  0  0
    8.1159   -0.6122   17.9919 H   0  0  0  0  0  0  0  0  0  0  0  0
   12.1297    6.1384   23.4181 H   0  0  0  0  0  0  0  0  0  0  0  0
   12.5355    5.0859   24.7699 H   0  0  0  0  0  0  0  0  0  0  0  0
   11.4756    3.0809   21.1564 H   0  0  0  0  0  0  0  0  0  0  0  0
   11.4694    4.8407   21.0610 H   0  0  0  0  0  0  0  0  0  0  0  0
   10.2245    4.2894   24.9246 H   0  0  0  0  0  0  0  0  0  0  0  0
   10.2102    6.0500   24.9296 H   0  0  0  0  0  0  0  0  0  0  0  0
    9.1645    4.1287   21.2500 H   0  0  0  0  0  0  0  0  0  0  0  0
    9.5282    3.0756   22.6131 H   0  0  0  0  0  0  0  0  0  0  0  0
   14.3915    4.2576   23.2128 H   0  0  0  0  0  0  0  0  0  0  0  0
   13.9254    3.3557   21.7117 H   0  0  0  0  0  0  0  0  0  0  0  0
   12.9882    2.7805   24.6228 H   0  0  0  0  0  0  0  0  0  0  0  0
    5.8006    1.4842   21.8852 H   0  0  0  0  0  0  0  0  0  0  0  0
    4.1268    1.4159   21.2811 H   0  0  0  0  0  0  0  0  0  0  0  0
    4.9480   -0.0732   21.7454 H   0  0  0  0  0  0  0  0  0  0  0  0
    9.0901   -1.6664   22.2639 H   0  0  0  0  0  0  0  0  0  0  0  0
    8.6579   -0.3097   23.2977 H   0  0  0  0  0  0  0  0  0  0  0  0
    7.3129   -1.4300   20.9567 H   0  0  0  0  0  0  0  0  0  0  0  0
  1  5  2  0  0  0  0
  1  8  1  0  0  0  0
  2  7  1  0  0  0  0
  2  9  2  0  0  0  0
  3  7  2  0  0  0  0
  3 11  1  0  0  0  0
  4  9  1  0  0  0  0
  4 11  2  0  0  0  0
  5 23  1  0  0  0  0
  6 10  1  0  0  0  0
  6 23  2  0  0  0  0
  7 18  1  6  0  0  0
  8 10  2  0  0  0  0
  8 21  1  0  0  0  0
  9 22  1  0  0  0  0
 10 24  1  0  0  0  0
 11 28  1  0  0  0  0
 12 22  1  0  0  0  0
 12 24  1  0  0  0  0
 12 25  2  0  0  0  0
 13 15  1  0  0  0  0
 13 19  1  0  0  0  0
 14 16  1  0  0  0  0
 14 19  1  0  0  0  0
 15 20  1  0  0  0  0
 16 20  1  0  0  0  0
 17 18  1  0  0  0  0
 17 19  1  0  0  0  0
 18 19  1  0  0  0  0
 20 26  1  0  0  0  0
 20 27  1  0  0  0  0
  1 29  1  0  0  0  0
  2 30  1  0  0  0  0
  3 31  1  0  0  0  0
  4 32  1  0  0  0  0
  5 33  1  0  0  0  0
  6 34  1  0  0  0  0
 13 35  1  0  0  0  0
 13 36  1  0  0  0  0
 14 37  1  0  0  0  0
 14 38  1  0  0  0  0
 15 39  1  0  0  0  0
 15 40  1  0  0  0  0
 16 41  1  0  0  0  0
 16 42  1  0  0  0  0
 17 43  1  0  0  0  0
 17 44  1  0  0  0  0
 18 45  1  0  0  0  0
 21 46  1  0  0  0  0
 21 47  1  0  0  0  0
 21 48  1  0  0  0  0
 22 49  1  0  0  0  0
 22 50  1  0  0  0  0
 24 51  1  0  0  0  0
M  END
> <BB_SMILES>
CC1(C)OB(C2CC23CCC(F)(F)CC3)OC1(C)C

> <scaffold_SMILES>
Cc1ccncc1NC(=O)Cc1cc(Cl)cc(Br)c1

$$$$
EN300-26624333
  -OEChem-07272002243D

 48 51  0     1  0  0  0  0  0999 V2000
   11.9979    3.3352   24.4892 C   0  0  0  0  0  0  0  0  0  0  0  0
   13.8994    3.3138   22.9990 C   0  0  0  0  0  0  0  0  0  0  0  0
   12.3625    4.6050   24.9364 C   0  0  0  0  0  0  0  0  0  0  0  0
   14.2641    4.5838   23.4462 C   0  0  0  0  0  0  0  0  0  0  0  0
    5.0000    1.4070   18.8080 C   0  0  0  0  0  0  0  0  0  0  0  0
   11.0490    1.0010   23.0460 C   0  0  0  0  0  0  0  0  0  0  0  0
   13.3680    0.4840   22.6240 C   0  0  0  0  0  0  0  0  0  0  0  0
   11.6520   -1.1420   22.1450 C   0  0  0  0  0  0  0  0  0  0  0  0
    5.5330    1.3060   17.5390 C   0  0  0  0  0  0  0  0  0  0  0  0
    7.2400   -0.0390   18.2610 C   0  0  0  0  0  0  0  0  0  0  0  0
   12.7664    2.6895   23.5206 C   0  0  0  0  0  0  0  0  0  0  0  0
   12.3850    1.3610   23.0530 C   0  0  0  0  0  0  0  0  0  0  0  0
   13.4956    5.2294   24.4149 C   0  0  0  0  0  0  0  0  0  0  0  0
    5.6260    0.7590   19.8690 C   0  0  0  0  0  0  0  0  0  0  0  0
   10.6720   -0.2500   22.5660 C   0  0  0  0  0  0  0  0  0  0  0  0
    6.7930    0.0210   19.5790 C   0  0  0  0  0  0  0  0  0  0  0  0
   12.9770   -0.7640   22.1810 C   0  0  0  0  0  0  0  0  0  0  0  0
    8.6020    0.1230   21.2070 C   0  0  0  0  0  0  0  0  0  0  0  0
   13.6443    6.9499   26.3443 C   0  0  0  0  0  0  0  0  0  0  0  0
   13.8850    6.5862   24.8917 C   0  0  2  0  0  0  0  0  0  0  0  0
   12.8268    7.5611   25.2716 C   0  0  0  0  0  0  0  0  0  0  0  0
    5.0980    0.9060   21.2740 C   0  0  0  0  0  0  0  0  0  0  0  0
    9.2100   -0.5900   22.3990 C   0  0  0  0  0  0  0  0  0  0  0  0
    6.6320    0.5940   17.2520 N   0  0  0  0  0  0  0  0  0  0  0  0
    7.5630   -0.5230   20.6330 N   0  0  0  0  0  0  0  0  0  0  0  0
    9.0150    1.2120   20.8220 O   0  0  0  0  0  0  0  0  0  0  0  0
   11.4889    7.2558   25.1553 F   0  0  0  0  0  0  0  0  0  0  0  0
   12.9706    8.8947   24.9598 F   0  0  0  0  0  0  0  0  0  0  0  0
   14.1940   -1.9100   21.6990 Cl  0  0  0  0  0  0  0  0  0  0  0  0
   11.1118    2.8611   24.9050 H   0  0  0  0  0  0  0  0  0  0  0  0
   14.5084    2.8232   22.2435 H   0  0  0  0  0  0  0  0  0  0  0  0
   11.7570    5.0990   25.6919 H   0  0  0  0  0  0  0  0  0  0  0  0
   15.1490    5.0620   23.0339 H   0  0  0  0  0  0  0  0  0  0  0  0
    4.0894    1.9955   18.9731 H   0  0  0  0  0  0  0  0  0  0  0  0
   10.2869    1.6872   23.4130 H   0  0  0  0  0  0  0  0  0  0  0  0
   14.4085    0.7689   22.6365 H   0  0  0  0  0  0  0  0  0  0  0  0
   11.3634   -2.1298   21.7910 H   0  0  0  0  0  0  0  0  0  0  0  0
    5.0712    1.8129   16.6995 H   0  0  0  0  0  0  0  0  0  0  0  0
    8.1159   -0.6122   17.9919 H   0  0  0  0  0  0  0  0  0  0  0  0
   13.1654    6.2287   26.9953 H   0  0  0  0  0  0  0  0  0  0  0  0
   14.3875    7.5695   26.8307 H   0  0  0  0  0  0  0  0  0  0  0  0
   14.7765    6.9974   24.4354 H   0  0  0  0  0  0  0  0  0  0  0  0
    4.1751    1.4974   21.2730 H   0  0  0  0  0  0  0  0  0  0  0  0
    4.8858   -0.0725   21.7220 H   0  0  0  0  0  0  0  0  0  0  0  0
    5.8306    1.4021   21.9227 H   0  0  0  0  0  0  0  0  0  0  0  0
    9.0901   -1.6664   22.2639 H   0  0  0  0  0  0  0  0  0  0  0  0
    8.6579   -0.3097   23.2977 H   0  0  0  0  0  0  0  0  0  0  0  0
    7.3129   -1.4300   20.9567 H   0  0  0  0  0  0  0  0  0  0  0  0
  1  3  2  0  0  0  0
  1 11  1  0  0  0  0
  2  4  1  0  0  0  0
  2 11  2  0  0  0  0
  3 13  1  0  0  0  0
  4 13  2  0  0  0  0
  5  9  2  0  0  0  0
  5 14  1  0  0  0  0
  6 12  1  0  0  0  0
  6 15  2  0  0  0  0
  7 12  2  0  0  0  0
  7 17  1  0  0  0  0
  8 15  1  0  0  0  0
  8 17  2  0  0  0  0
  9 24  1  0  0  0  0
 10 16  1  0  0  0  0
 10 24  2  0  0  0  0
 11 12  1  0  0  0  0
 13 20  1  1  0  0  0
 14 16  2  0  0  0  0
 14 22  1  0  0  0  0
 15 23  1  0  0  0  0
 16 25  1  0  0  0  0
 17 29  1  0  0  0  0
 18 23  1  0  0  0  0
 18 25  1  0  0  0  0
 18 26  2  0  0  0  0
 19 20  1  0  0  0  0
 19 21  1  0  0  0  0
 20 21  1  0  0  0  0
 21 27  1  0  0  0  0
 21 28  1  0  0  0  0
  1 30  1  0  0  0  0
  2 31  1  0  0  0  0
  3 32  1  0  0  0  0
  4 33  1  0  0  0  0
  5 34  1  0  0  0  0
  6 35  1  0  0  0  0
  7 36  1  0  0  0  0
  8 37  1  0  0  0  0
  9 38  1  0  0  0  0
 10 39  1  0  0  0  0
 19 40  1  0  0  0  0
 19 41  1  0  0  0  0
 20 42  1  0  0  0  0
 22 43  1  0  0  0  0
 22 44  1  0  0  0  0
 22 45  1  0  0  0  0
 23 46  1  0  0  0  0
 23 47  1  0  0  0  0
 25 48  1  0  0  0  0
M  END
> <BB_SMILES>
CC1(C)OB(c2ccc(C3CC3(F)F)cc2)OC1(C)C

> <scaffold_SMILES>
Cc1ccncc1NC(=O)Cc1cc(Cl)cc(Br)c1

$$$$
EN300-26624333
  -OEChem-07272002243D

 48 51  0     1  0  0  0  0  0999 V2000
   11.9979    3.3352   24.4892 C   0  0  0  0  0  0  0  0  0  0  0  0
   13.8994    3.3138   22.9990 C   0  0  0  0  0  0  0  0  0  0  0  0
   12.3625    4.6050   24.9364 C   0  0  0  0  0  0  0  0  0  0  0  0
   14.2641    4.5838   23.4462 C   0  0  0  0  0  0  0  0  0  0  0  0
    5.0000    1.4070   18.8080 C   0  0  0  0  0  0  0  0  0  0  0  0
   11.0490    1.0010   23.0460 C   0  0  0  0  0  0  0  0  0  0  0  0
   13.3680    0.4840   22.6240 C   0  0  0  0  0  0  0  0  0  0  0  0
   11.6520   -1.1420   22.1450 C   0  0  0  0  0  0  0  0  0  0  0  0
    5.5330    1.3060   17.5390 C   0  0  0  0  0  0  0  0  0  0  0  0
    7.2400   -0.0390   18.2610 C   0  0  0  0  0  0  0  0  0  0  0  0
   12.7664    2.6895   23.5206 C   0  0  0  0  0  0  0  0  0  0  0  0
   12.3850    1.3610   23.0530 C   0  0  0  0  0  0  0  0  0  0  0  0
   13.4956    5.2294   24.4149 C   0  0  0  0  0  0  0  0  0  0  0  0
    5.6260    0.7590   19.8690 C   0  0  0  0  0  0  0  0  0  0  0  0
   10.6720   -0.2500   22.5660 C   0  0  0  0  0  0  0  0  0  0  0  0
    6.7930    0.0210   19.5790 C   0  0  0  0  0  0  0  0  0  0  0  0
   12.9770   -0.7640   22.1810 C   0  0  0  0  0  0  0  0  0  0  0  0
    8.6020    0.1230   21.2070 C   0  0  0  0  0  0  0  0  0  0  0  0
   14.0701    7.6945   23.8731 C   0  0  0  0  0  0  0  0  0  0  0  0
   13.8850    6.5862   24.8917 C   0  0  1  0  0  0  0  0  0  0  0  0
   12.9104    7.7067   24.7939 C   0  0  0  0  0  0  0  0  0  0  0  0
    5.0980    0.9060   21.2740 C   0  0  0  0  0  0  0  0  0  0  0  0
    9.2100   -0.5900   22.3990 C   0  0  0  0  0  0  0  0  0  0  0  0
    6.6320    0.5940   17.2520 N   0  0  0  0  0  0  0  0  0  0  0  0
    7.5630   -0.5230   20.6330 N   0  0  0  0  0  0  0  0  0  0  0  0
    9.0150    1.2120   20.8220 O   0  0  0  0  0  0  0  0  0  0  0  0
   11.6344    7.5128   24.3136 F   0  0  0  0  0  0  0  0  0  0  0  0
   12.8304    8.6426   25.8009 F   0  0  0  0  0  0  0  0  0  0  0  0
   14.1940   -1.9100   21.6990 Cl  0  0  0  0  0  0  0  0  0  0  0  0
   11.1118    2.8611   24.9050 H   0  0  0  0  0  0  0  0  0  0  0  0
   14.5084    2.8232   22.2435 H   0  0  0  0  0  0  0  0  0  0  0  0
   11.7570    5.0990   25.6919 H   0  0  0  0  0  0  0  0  0  0  0  0
   15.1490    5.0620   23.0339 H   0  0  0  0  0  0  0  0  0  0  0  0
    4.0894    1.9955   18.9731 H   0  0  0  0  0  0  0  0  0  0  0  0
   10.2869    1.6872   23.4130 H   0  0  0  0  0  0  0  0  0  0  0  0
   14.4085    0.7689   22.6365 H   0  0  0  0  0  0  0  0  0  0  0  0
   11.3634   -2.1298   21.7910 H   0  0  0  0  0  0  0  0  0  0  0  0
    5.0712    1.8129   16.6995 H   0  0  0  0  0  0  0  0  0  0  0  0
    8.1159   -0.6122   17.9919 H   0  0  0  0  0  0  0  0  0  0  0  0
   14.8661    8.4072   24.0513 H   0  0  0  0  0  0  0  0  0  0  0  0
   13.8830    7.4827   22.8275 H   0  0  0  0  0  0  0  0  0  0  0  0
   14.5526    6.6020   25.7437 H   0  0  0  0  0  0  0  0  0  0  0  0
    4.1751    1.4974   21.2730 H   0  0  0  0  0  0  0  0  0  0  0  0
    4.8858   -0.0725   21.7220 H   0  0  0  0  0  0  0  0  0  0  0  0
    5.8306    1.4021   21.9227 H   0  0  0  0  0  0  0  0  0  0  0  0
    9.0901   -1.6664   22.2639 H   0  0  0  0  0  0  0  0  0  0  0  0
    8.6579   -0.3097   23.2977 H   0  0  0  0  0  0  0  0  0  0  0  0
    7.3129   -1.4300   20.9567 H   0  0  0  0  0  0  0  0  0  0  0  0
  1  3  2  0  0  0  0
  1 11  1  0  0  0  0
  2  4  1  0  0  0  0
  2 11  2  0  0  0  0
  3 13  1  0  0  0  0
  4 13  2  0  0  0  0
  5  9  2  0  0  0  0
  5 14  1  0  0  0  0
  6 12  1  0  0  0  0
  6 15  2  0  0  0  0
  7 12  2  0  0  0  0
  7 17  1  0  0  0  0
  8 15  1  0  0  0  0
  8 17  2  0  0  0  0
  9 24  1  0  0  0  0
 10 16  1  0  0  0  0
 10 24  2  0  0  0  0
 11 12  1  0  0  0  0
 13 20  1  6  0  0  0
 14 16  2  0  0  0  0
 14 22  1  0  0  0  0
 15 23  1  0  0  0  0
 16 25  1  0  0  0  0
 17 29  1  0  0  0  0
 18 23  1  0  0  0  0
 18 25  1  0  0  0  0
 18 26  2  0  0  0  0
 19 20  1  0  0  0  0
 19 21  1  0  0  0  0
 20 21  1  0  0  0  0
 21 27  1  0  0  0  0
 21 28  1  0  0  0  0
  1 30  1  0  0  0  0
  2 31  1  0  0  0  0
  3 32  1  0  0  0  0
  4 33  1  0  0  0  0
  5 34  1  0  0  0  0
  6 35  1  0  0  0  0
  7 36  1  0  0  0  0
  8 37  1  0  0  0  0
  9 38  1  0  0  0  0
 10 39  1  0  0  0  0
 19 40  1  0  0  0  0
 19 41  1  0  0  0  0
 20 42  1  0  0  0  0
 22 43  1  0  0  0  0
 22 44  1  0  0  0  0
 22 45  1  0  0  0  0
 23 46  1  0  0  0  0
 23 47  1  0  0  0  0
 25 48  1  0  0  0  0
M  END
> <BB_SMILES>
CC1(C)OB(c2ccc(C3CC3(F)F)cc2)OC1(C)C

> <scaffold_SMILES>
Cc1ccncc1NC(=O)Cc1cc(Cl)cc(Br)c1

$$$$
