TRY-UNI-2eddb1ff-7
  -OEChem-08122015583D

 40 42  0     1  0  0  0  0  0999 V2000
    6.6320    0.5940   17.2520 N   0  0  0  0  0  0  0  0  0  0  0  0
    5.0980    0.9060   21.2740 C   0  0  0  0  0  0  0  0  0  0  0  0
    9.0150    1.2120   20.8220 O   0  0  0  0  0  0  0  0  0  0  0  0
   14.1940   -1.9100   21.6990 Cl  0  0  0  0  0  0  0  0  0  0  0  0
    5.6260    0.7590   19.8690 C   0  0  0  0  0  0  0  0  0  0  0  0
    7.5630   -0.5230   20.6330 N   0  0  0  0  0  0  0  0  0  0  0  0
   12.7170    2.6360   23.4450 O   0  0  0  0  0  0  0  0  0  0  0  0
    5.0000    1.4070   18.8080 C   0  0  0  0  0  0  0  0  0  0  0  0
   12.0750    4.6580   22.1930 N   0  0  0  0  0  0  0  0  0  0  0  0
   13.2020    6.6930   21.8710 O   0  0  0  0  0  0  0  0  0  0  0  0
    5.5330    1.3060   17.5390 C   0  0  0  0  0  0  0  0  0  0  0  0
    7.2400   -0.0390   18.2610 C   0  0  0  0  0  0  0  0  0  0  0  0
    6.7930    0.0210   19.5790 C   0  0  0  0  0  0  0  0  0  0  0  0
    8.6020    0.1230   21.2070 C   0  0  0  0  0  0  0  0  0  0  0  0
    9.2100   -0.5900   22.3990 C   0  0  0  0  0  0  0  0  0  0  0  0
   10.6720   -0.2500   22.5660 C   0  0  0  0  0  0  0  0  0  0  0  0
   11.6520   -1.1420   22.1450 C   0  0  0  0  0  0  0  0  0  0  0  0
   12.9770   -0.7640   22.1810 C   0  0  0  0  0  0  0  0  0  0  0  0
   13.3680    0.4840   22.6240 C   0  0  0  0  0  0  0  0  0  0  0  0
   12.3850    1.3610   23.0530 C   0  0  0  0  0  0  0  0  0  0  0  0
   12.9780    3.4700   22.3070 C   0  0  1  0  0  0  0  0  0  0  0  0
   14.0670    4.4610   22.7270 C   0  0  0  0  0  0  0  0  0  0  0  0
   13.1090    5.5190   22.2110 C   0  0  0  0  0  0  0  0  0  0  0  0
   11.0490    1.0010   23.0460 C   0  0  0  0  0  0  0  0  0  0  0  0
    4.2146    1.5614   21.2676 H   0  0  0  0  0  0  0  0  0  0  0  0
    4.8178   -0.0830   21.6656 H   0  0  0  0  0  0  0  0  0  0  0  0
    5.8767    1.3466   21.9140 H   0  0  0  0  0  0  0  0  0  0  0  0
    7.3262   -1.4337   20.9714 H   0  0  0  0  0  0  0  0  0  0  0  0
    4.1033    1.9849   18.9767 H   0  0  0  0  0  0  0  0  0  0  0  0
   11.0833    4.7693   22.1283 H   0  0  0  0  0  0  0  0  0  0  0  0
    5.0381    1.8287   16.7338 H   0  0  0  0  0  0  0  0  0  0  0  0
    8.1205   -0.6253   18.0434 H   0  0  0  0  0  0  0  0  0  0  0  0
    8.6681   -0.2905   23.3082 H   0  0  0  0  0  0  0  0  0  0  0  0
    9.1107   -1.6758   22.2538 H   0  0  0  0  0  0  0  0  0  0  0  0
   11.3767   -2.1249   21.7920 H   0  0  0  0  0  0  0  0  0  0  0  0
   14.4099    0.7682   22.6357 H   0  0  0  0  0  0  0  0  0  0  0  0
   13.1802    2.9479   21.3601 H   0  0  0  0  0  0  0  0  0  0  0  0
   14.2732    4.5015   23.8067 H   0  0  0  0  0  0  0  0  0  0  0  0
   15.0151    4.3776   22.1755 H   0  0  0  0  0  0  0  0  0  0  0  0
   10.3009    1.6886   23.4119 H   0  0  0  0  0  0  0  0  0  0  0  0
  1 11  2  0  0  0  0
  1 12  1  0  0  0  0
  2  5  1  0  0  0  0
  3 14  2  0  0  0  0
  4 18  1  0  0  0  0
  5  8  2  0  0  0  0
  5 13  1  0  0  0  0
  6 13  1  0  0  0  0
  6 14  1  0  0  0  0
  7 20  1  0  0  0  0
  7 21  1  0  0  0  0
  8 11  1  0  0  0  0
  9 21  1  0  0  0  0
  9 23  1  0  0  0  0
 10 23  2  0  0  0  0
 12 13  2  0  0  0  0
 14 15  1  0  0  0  0
 15 16  1  0  0  0  0
 16 17  2  0  0  0  0
 16 24  1  0  0  0  0
 17 18  1  0  0  0  0
 18 19  2  0  0  0  0
 19 20  1  0  0  0  0
 20 24  2  0  0  0  0
 21 22  1  0  0  0  0
 22 23  1  0  0  0  0
  2 25  1  0  0  0  0
  2 26  1  0  0  0  0
  2 27  1  0  0  0  0
  6 28  1  0  0  0  0
  8 29  1  0  0  0  0
  9 30  1  0  0  0  0
 11 31  1  0  0  0  0
 12 32  1  0  0  0  0
 15 33  1  0  0  0  0
 15 34  1  0  0  0  0
 17 35  1  0  0  0  0
 19 36  1  0  0  0  0
 21 37  1  0  0  0  0
 22 38  1  0  0  0  0
 22 39  1  0  0  0  0
 24 40  1  0  0  0  0
M  END
> <canonical_CID>
TRY-UNI-2eddb1ff-7

> <r_inhibition_at_20_uM>

> <r_inhibition_at_50_uM>
87.191315835

> <r_avg_IC50>
0.940748777754165

> <f_inhibition_at_20_uM>
94.4703

> <f_inhibition_at_50_uM>
97.00562

> <f_avg_IC50>
3.6098563119233

> <f_avg_pIC50>
5.44251008457101

> <relative_solubility_at_20_uM>
0.99

> <relative_solubility_at_100_uM>
1.0

> <trypsin_IC50>
99.0

> <NMR_std_ratio>
304.016753887219

> <acrylamide>
False

> <chloroacetamide>
False

> <series>
3-aminopyridine-like

> <clash_score>
0.0

$$$$
RAL-THA-6b94ceba-6
  -OEChem-08122015583D

 35 36  0     0  0  0  0  0  0999 V2000
    5.0000    1.4070   18.8080 C   0  0  0  0  0  0  0  0  0  0  0  0
   11.0490    1.0010   23.0460 C   0  0  0  0  0  0  0  0  0  0  0  0
   13.3680    0.4840   22.6240 C   0  0  0  0  0  0  0  0  0  0  0  0
   11.6520   -1.1420   22.1450 C   0  0  0  0  0  0  0  0  0  0  0  0
    5.5330    1.3060   17.5390 C   0  0  0  0  0  0  0  0  0  0  0  0
    7.2400   -0.0390   18.2610 C   0  0  0  0  0  0  0  0  0  0  0  0
   12.3850    1.3610   23.0530 C   0  0  0  0  0  0  0  0  0  0  0  0
    5.6260    0.7590   19.8690 C   0  0  0  0  0  0  0  0  0  0  0  0
   10.6720   -0.2500   22.5660 C   0  0  0  0  0  0  0  0  0  0  0  0
    6.7930    0.0210   19.5790 C   0  0  0  0  0  0  0  0  0  0  0  0
   12.9770   -0.7640   22.1810 C   0  0  0  0  0  0  0  0  0  0  0  0
   12.7684    2.6964   23.5225 C   0  0  0  0  0  0  0  0  0  0  0  0
    8.6020    0.1230   21.2070 C   0  0  0  0  0  0  0  0  0  0  0  0
    5.0980    0.9060   21.2740 C   0  0  0  0  0  0  0  0  0  0  0  0
    9.2100   -0.5900   22.3990 C   0  0  0  0  0  0  0  0  0  0  0  0
    6.6320    0.5940   17.2520 N   0  0  0  0  0  0  0  0  0  0  0  0
   14.1217    3.0215   23.5146 N   0  0  0  0  0  0  0  0  0  0  0  0
    7.5630   -0.5230   20.6330 N   0  0  0  0  0  0  0  0  0  0  0  0
   11.9199    3.5085   23.9312 O   0  0  0  0  0  0  0  0  0  0  0  0
    9.0150    1.2120   20.8220 O   0  0  0  0  0  0  0  0  0  0  0  0
   14.1940   -1.9100   21.6990 Cl  0  0  0  0  0  0  0  0  0  0  0  0
    4.0894    1.9955   18.9731 H   0  0  0  0  0  0  0  0  0  0  0  0
   10.2907    1.6899   23.4144 H   0  0  0  0  0  0  0  0  0  0  0  0
   14.4069    0.7733   22.6365 H   0  0  0  0  0  0  0  0  0  0  0  0
   11.3632   -2.1297   21.7904 H   0  0  0  0  0  0  0  0  0  0  0  0
    5.0712    1.8129   16.6995 H   0  0  0  0  0  0  0  0  0  0  0  0
    8.1159   -0.6122   17.9919 H   0  0  0  0  0  0  0  0  0  0  0  0
    4.4454    1.7839   21.3446 H   0  0  0  0  0  0  0  0  0  0  0  0
    4.5265    0.0202   21.5773 H   0  0  0  0  0  0  0  0  0  0  0  0
    5.9169    1.0201   21.9951 H   0  0  0  0  0  0  0  0  0  0  0  0
    9.0901   -1.6664   22.2639 H   0  0  0  0  0  0  0  0  0  0  0  0
    8.6579   -0.3097   23.2977 H   0  0  0  0  0  0  0  0  0  0  0  0
   14.7945    2.3360   23.1889 H   0  0  0  0  0  0  0  0  0  0  0  0
   14.4502    3.9293   23.8276 H   0  0  0  0  0  0  0  0  0  0  0  0
    7.3129   -1.4300   20.9567 H   0  0  0  0  0  0  0  0  0  0  0  0
  1  5  2  0  0  0  0
  1  8  1  0  0  0  0
  2  7  1  0  0  0  0
  2  9  2  0  0  0  0
  3  7  2  0  0  0  0
  3 11  1  0  0  0  0
  4  9  1  0  0  0  0
  4 11  2  0  0  0  0
  5 16  1  0  0  0  0
  6 10  1  0  0  0  0
  6 16  2  0  0  0  0
  7 12  1  0  0  0  0
  8 10  2  0  0  0  0
  8 14  1  0  0  0  0
  9 15  1  0  0  0  0
 10 18  1  0  0  0  0
 11 21  1  0  0  0  0
 12 17  1  0  0  0  0
 12 19  2  0  0  0  0
 13 15  1  0  0  0  0
 13 18  1  0  0  0  0
 13 20  2  0  0  0  0
  1 22  1  0  0  0  0
  2 23  1  0  0  0  0
  3 24  1  0  0  0  0
  4 25  1  0  0  0  0
  5 26  1  0  0  0  0
  6 27  1  0  0  0  0
 14 28  1  0  0  0  0
 14 29  1  0  0  0  0
 14 30  1  0  0  0  0
 15 31  1  0  0  0  0
 15 32  1  0  0  0  0
 17 33  1  0  0  0  0
 17 34  1  0  0  0  0
 18 35  1  0  0  0  0
M  END
> <CID (canonical)>
RAL-THA-6b94ceba-6

> <CID (old format)>

> <Postera Link>
https://covid.postera.ai/covid/submissions/6b94ceba-f352-4275-ad8d-e766e56e6fa4/6

> <InChIKey>
QAXWUCVTFPVAHE-UHFFFAOYSA-N

> <creator>
Ralph Robinson, Thames Pharma Partners

> <rationale>
Follow up of beta lactam TRY-UNI-2eddb1ff-7: beta-lactam replacements, generally retaining the H-bond donor proximal to the phenyl ring. Relative synthetic ease taken into account.

> <Submission Notes>

> <fragments>

> <Structure ID>

> <Fragalysis Link>

> <Enamine - REAL Space>
False

> <Enamine - Extended REAL Space>
False

> <Enamine - SCR>
False

> <Enamine - BB>
False

> <Mcule>

> <Mcule Ultimate>

> <In Molport or Mcule>

> <In eMolecules>

> <MW>
303.08

> <cLogP>
2.32

> <TPSA>
85.08

> <Rotatable Bonds>
4

> <Fraction sp3>
0.13

> <HBA>
3

> <HBD>
2

> <Covalent Fragment>

> <covalent_warhead>
False

> <Acrylamide>
False

> <Acrylamide Adduct>
False

> <Chloroacetamide>
False

> <Chloroacetamide Adduct>
False

> <Vinylsulfonamide>
False

> <Vinylsulfonamide Adduct>
False

> <Nitrile>

> <Nitrile Adduct>

> <series>
3-aminopyridine-like

> <Order Date>

> <Maker>

> <Shipment Date>

> <CDD_name>
CVD-0011605

> <CDD_mol_ID>
80157840.0

> <r_inhibition_at_20_uM>

> <r_inhibition_at_50_uM>

> <r_avg_IC50>

> <r_curve_IC50>

> <r_max_inhibition_reading>

> <r_min_inhibition_reading>

> <r_hill_slope>

> <r_R2>

> <r_concentration_uM>

> <r_inhibition_list>

> <f_inhibition_at_20_uM>

> <f_inhibition_at_50_uM>

> <f_avg_IC50>

> <f_avg_pIC50>

> <f_curve_IC50>

> <f_max_inhibition_reading>

> <f_min_inhibition_reading>

> <f_hill_slope>

> <f_R2>

> <f_concentration_uM>

> <f_inhibition_list>

> <relative_solubility_at_20_uM>

> <relative_solubility_at_100_uM>

> <trypsin_IC50>

> <NMR_std_ratio>

> <structure_ID>

> <structure_LINK>

> <ORDERED>
FALSE

> <MAKER>

> <ORDER_DATE>

> <MADE>
FALSE

> <SHIPMENT_DATE>

> <ASSAYED>
FALSE

> <clash_score>
0

> <docking_score>
-10.849082946777344

$$$$
RAL-THA-6b94ceba-2
  -OEChem-08122015583D

 41 43  0     0  0  0  0  0  0999 V2000
    5.0000    1.4070   18.8080 C   0  0  0  0  0  0  0  0  0  0  0  0
   11.0490    1.0010   23.0460 C   0  0  0  0  0  0  0  0  0  0  0  0
   11.6520   -1.1420   22.1450 C   0  0  0  0  0  0  0  0  0  0  0  0
   13.3680    0.4840   22.6240 C   0  0  0  0  0  0  0  0  0  0  0  0
    5.5330    1.3060   17.5390 C   0  0  0  0  0  0  0  0  0  0  0  0
    7.2400   -0.0390   18.2610 C   0  0  0  0  0  0  0  0  0  0  0  0
   13.5472    6.8744   23.2098 C   0  0  0  0  0  0  0  0  0  0  0  0
    5.6260    0.7590   19.8690 C   0  0  0  0  0  0  0  0  0  0  0  0
   10.6720   -0.2500   22.5660 C   0  0  0  0  0  0  0  0  0  0  0  0
    6.7930    0.0210   19.5790 C   0  0  0  0  0  0  0  0  0  0  0  0
   12.3850    1.3610   23.0530 C   0  0  0  0  0  0  0  0  0  0  0  0
   12.9770   -0.7640   22.1810 C   0  0  0  0  0  0  0  0  0  0  0  0
   13.3660    4.8394   22.7820 C   0  0  0  0  0  0  0  0  0  0  0  0
    8.6020    0.1230   21.2070 C   0  0  0  0  0  0  0  0  0  0  0  0
    5.0980    0.9060   21.2740 C   0  0  0  0  0  0  0  0  0  0  0  0
    9.2100   -0.5900   22.3990 C   0  0  0  0  0  0  0  0  0  0  0  0
   12.9780    3.4700   22.3070 C   0  0  0  0  0  0  0  0  0  0  0  0
    6.6320    0.5940   17.2520 N   0  0  0  0  0  0  0  0  0  0  0  0
   12.7689    5.9812   22.5308 N   0  0  0  0  0  0  0  0  0  0  0  0
   14.5883    6.3571   23.8654 N   0  0  0  0  0  0  0  0  0  0  0  0
   14.4495    5.0545   23.5755 N   0  0  0  0  0  0  0  0  0  0  0  0
    7.5630   -0.5230   20.6330 N   0  0  0  0  0  0  0  0  0  0  0  0
    9.0150    1.2120   20.8220 O   0  0  0  0  0  0  0  0  0  0  0  0
   12.7170    2.6360   23.4450 O   0  0  0  0  0  0  0  0  0  0  0  0
   14.1940   -1.9100   21.6990 Cl  0  0  0  0  0  0  0  0  0  0  0  0
    4.0894    1.9955   18.9731 H   0  0  0  0  0  0  0  0  0  0  0  0
   10.2940    1.6937   23.4123 H   0  0  0  0  0  0  0  0  0  0  0  0
   11.3634   -2.1301   21.7911 H   0  0  0  0  0  0  0  0  0  0  0  0
   14.4053    0.7775   22.6398 H   0  0  0  0  0  0  0  0  0  0  0  0
    5.0712    1.8129   16.6995 H   0  0  0  0  0  0  0  0  0  0  0  0
    8.1159   -0.6122   17.9919 H   0  0  0  0  0  0  0  0  0  0  0  0
   13.3494    7.9358   23.2274 H   0  0  0  0  0  0  0  0  0  0  0  0
    4.7838   -0.0684   21.6655 H   0  0  0  0  0  0  0  0  0  0  0  0
    5.8615    1.3219   21.9428 H   0  0  0  0  0  0  0  0  0  0  0  0
    4.2399    1.5888   21.3054 H   0  0  0  0  0  0  0  0  0  0  0  0
    9.0901   -1.6664   22.2639 H   0  0  0  0  0  0  0  0  0  0  0  0
    8.6578   -0.3097   23.2977 H   0  0  0  0  0  0  0  0  0  0  0  0
   12.0797    3.5122   21.6816 H   0  0  0  0  0  0  0  0  0  0  0  0
   13.7819    3.0240   21.7116 H   0  0  0  0  0  0  0  0  0  0  0  0
   15.1184    4.3905   23.9478 H   0  0  0  0  0  0  0  0  0  0  0  0
    7.3129   -1.4300   20.9567 H   0  0  0  0  0  0  0  0  0  0  0  0
  1  5  2  0  0  0  0
  1  8  1  0  0  0  0
  2  9  2  0  0  0  0
  2 11  1  0  0  0  0
  3  9  1  0  0  0  0
  3 12  2  0  0  0  0
  4 11  2  0  0  0  0
  4 12  1  0  0  0  0
  5 18  1  0  0  0  0
  6 10  1  0  0  0  0
  6 18  2  0  0  0  0
  7 19  1  0  0  0  0
  7 20  2  0  0  0  0
  8 10  2  0  0  0  0
  8 15  1  0  0  0  0
  9 16  1  0  0  0  0
 10 22  1  0  0  0  0
 11 24  1  0  0  0  0
 12 25  1  0  0  0  0
 13 17  1  0  0  0  0
 13 19  2  0  0  0  0
 13 21  1  0  0  0  0
 14 16  1  0  0  0  0
 14 22  1  0  0  0  0
 14 23  2  0  0  0  0
 17 24  1  0  0  0  0
 20 21  1  0  0  0  0
  1 26  1  0  0  0  0
  2 27  1  0  0  0  0
  3 28  1  0  0  0  0
  4 29  1  0  0  0  0
  5 30  1  0  0  0  0
  6 31  1  0  0  0  0
  7 32  1  0  0  0  0
 15 33  1  0  0  0  0
 15 34  1  0  0  0  0
 15 35  1  0  0  0  0
 16 36  1  0  0  0  0
 16 37  1  0  0  0  0
 17 38  1  0  0  0  0
 17 39  1  0  0  0  0
 21 40  1  0  0  0  0
 22 41  1  0  0  0  0
M  END
> <CID (canonical)>
RAL-THA-6b94ceba-2

> <CID (old format)>

> <Postera Link>
https://covid.postera.ai/covid/submissions/6b94ceba-f352-4275-ad8d-e766e56e6fa4/2

> <InChIKey>
CGZHAQKIMHZAPY-UHFFFAOYSA-N

> <creator>
Ralph Robinson, Thames Pharma Partners

> <rationale>
Follow up of beta lactam TRY-UNI-2eddb1ff-7: beta-lactam replacements, generally retaining the H-bond donor proximal to the phenyl ring. Relative synthetic ease taken into account.

> <Submission Notes>

> <fragments>

> <Structure ID>

> <Fragalysis Link>

> <Enamine - REAL Space>
False

> <Enamine - Extended REAL Space>
False

> <Enamine - SCR>
False

> <Enamine - BB>
False

> <Mcule>

> <Mcule Ultimate>

> <In Molport or Mcule>

> <In eMolecules>

> <MW>
357.1

> <cLogP>
2.92

> <TPSA>
92.79

> <Rotatable Bonds>
6

> <Fraction sp3>
0.18

> <HBA>
5

> <HBD>
2

> <Covalent Fragment>

> <covalent_warhead>
False

> <Acrylamide>
False

> <Acrylamide Adduct>
False

> <Chloroacetamide>
False

> <Chloroacetamide Adduct>
False

> <Vinylsulfonamide>
False

> <Vinylsulfonamide Adduct>
False

> <Nitrile>

> <Nitrile Adduct>

> <series>
3-aminopyridine-like

> <Order Date>

> <Maker>

> <Shipment Date>

> <CDD_name>
CVD-0011601

> <CDD_mol_ID>
80157836.0

> <r_inhibition_at_20_uM>

> <r_inhibition_at_50_uM>

> <r_avg_IC50>

> <r_curve_IC50>

> <r_max_inhibition_reading>

> <r_min_inhibition_reading>

> <r_hill_slope>

> <r_R2>

> <r_concentration_uM>

> <r_inhibition_list>

> <f_inhibition_at_20_uM>

> <f_inhibition_at_50_uM>

> <f_avg_IC50>

> <f_avg_pIC50>

> <f_curve_IC50>

> <f_max_inhibition_reading>

> <f_min_inhibition_reading>

> <f_hill_slope>

> <f_R2>

> <f_concentration_uM>

> <f_inhibition_list>

> <relative_solubility_at_20_uM>

> <relative_solubility_at_100_uM>

> <trypsin_IC50>

> <NMR_std_ratio>

> <structure_ID>

> <structure_LINK>

> <ORDERED>
FALSE

> <MAKER>

> <ORDER_DATE>

> <MADE>
FALSE

> <SHIPMENT_DATE>

> <ASSAYED>
FALSE

> <clash_score>
0.8174383769903432

> <docking_score>
-11.719831466674805

$$$$
RAL-THA-6b94ceba-7
  -OEChem-08122015583D

 38 39  0     0  0  0  0  0  0999 V2000
    5.0000    1.4070   18.8080 C   0  0  0  0  0  0  0  0  0  0  0  0
   11.0490    1.0010   23.0460 C   0  0  0  0  0  0  0  0  0  0  0  0
   13.3680    0.4840   22.6240 C   0  0  0  0  0  0  0  0  0  0  0  0
   11.6520   -1.1420   22.1450 C   0  0  0  0  0  0  0  0  0  0  0  0
    5.5330    1.3060   17.5390 C   0  0  0  0  0  0  0  0  0  0  0  0
    7.2400   -0.0390   18.2610 C   0  0  0  0  0  0  0  0  0  0  0  0
   12.3850    1.3610   23.0530 C   0  0  0  0  0  0  0  0  0  0  0  0
    5.6260    0.7590   19.8690 C   0  0  0  0  0  0  0  0  0  0  0  0
   10.6720   -0.2500   22.5660 C   0  0  0  0  0  0  0  0  0  0  0  0
    6.7930    0.0210   19.5790 C   0  0  0  0  0  0  0  0  0  0  0  0
   12.9770   -0.7640   22.1810 C   0  0  0  0  0  0  0  0  0  0  0  0
   12.7684    2.6964   23.5225 C   0  0  0  0  0  0  0  0  0  0  0  0
    8.6020    0.1230   21.2070 C   0  0  0  0  0  0  0  0  0  0  0  0
    5.0980    0.9060   21.2740 C   0  0  0  0  0  0  0  0  0  0  0  0
   12.0509    5.0837   23.7886 C   0  0  0  0  0  0  0  0  0  0  0  0
    9.2100   -0.5900   22.3990 C   0  0  0  0  0  0  0  0  0  0  0  0
    6.6320    0.5940   17.2520 N   0  0  0  0  0  0  0  0  0  0  0  0
    7.5630   -0.5230   20.6330 N   0  0  0  0  0  0  0  0  0  0  0  0
   11.8154    3.7135   23.3937 N   0  0  0  0  0  0  0  0  0  0  0  0
   13.9023    2.8987   23.9921 O   0  0  0  0  0  0  0  0  0  0  0  0
    9.0150    1.2120   20.8220 O   0  0  0  0  0  0  0  0  0  0  0  0
   14.1940   -1.9100   21.6990 Cl  0  0  0  0  0  0  0  0  0  0  0  0
    4.0894    1.9955   18.9731 H   0  0  0  0  0  0  0  0  0  0  0  0
   10.2907    1.6899   23.4144 H   0  0  0  0  0  0  0  0  0  0  0  0
   14.4069    0.7733   22.6365 H   0  0  0  0  0  0  0  0  0  0  0  0
   11.3632   -2.1297   21.7904 H   0  0  0  0  0  0  0  0  0  0  0  0
    5.0712    1.8129   16.6995 H   0  0  0  0  0  0  0  0  0  0  0  0
    8.1159   -0.6122   17.9919 H   0  0  0  0  0  0  0  0  0  0  0  0
    4.4454    1.7839   21.3446 H   0  0  0  0  0  0  0  0  0  0  0  0
    4.5265    0.0202   21.5773 H   0  0  0  0  0  0  0  0  0  0  0  0
    5.9169    1.0201   21.9951 H   0  0  0  0  0  0  0  0  0  0  0  0
   11.6879    5.2374   24.8155 H   0  0  0  0  0  0  0  0  0  0  0  0
   13.1291    5.2975   23.7451 H   0  0  0  0  0  0  0  0  0  0  0  0
   11.5153    5.7593   23.1055 H   0  0  0  0  0  0  0  0  0  0  0  0
    9.0901   -1.6664   22.2639 H   0  0  0  0  0  0  0  0  0  0  0  0
    8.6579   -0.3097   23.2977 H   0  0  0  0  0  0  0  0  0  0  0  0
    7.3129   -1.4300   20.9567 H   0  0  0  0  0  0  0  0  0  0  0  0
   10.9283    3.5082   22.9458 H   0  0  0  0  0  0  0  0  0  0  0  0
  1  5  2  0  0  0  0
  1  8  1  0  0  0  0
  2  7  2  0  0  0  0
  2  9  1  0  0  0  0
  3  7  1  0  0  0  0
  3 11  2  0  0  0  0
  4  9  2  0  0  0  0
  4 11  1  0  0  0  0
  5 17  1  0  0  0  0
  6 10  1  0  0  0  0
  6 17  2  0  0  0  0
  7 12  1  0  0  0  0
  8 10  2  0  0  0  0
  8 14  1  0  0  0  0
  9 16  1  0  0  0  0
 10 18  1  0  0  0  0
 11 22  1  0  0  0  0
 12 19  1  0  0  0  0
 12 20  2  0  0  0  0
 13 16  1  0  0  0  0
 13 18  1  0  0  0  0
 13 21  2  0  0  0  0
 15 19  1  0  0  0  0
  1 23  1  0  0  0  0
  2 24  1  0  0  0  0
  3 25  1  0  0  0  0
  4 26  1  0  0  0  0
  5 27  1  0  0  0  0
  6 28  1  0  0  0  0
 14 29  1  0  0  0  0
 14 30  1  0  0  0  0
 14 31  1  0  0  0  0
 15 32  1  0  0  0  0
 15 33  1  0  0  0  0
 15 34  1  0  0  0  0
 16 35  1  0  0  0  0
 16 36  1  0  0  0  0
 18 37  1  0  0  0  0
 19 38  1  0  0  0  0
M  END
> <CID (canonical)>
RAL-THA-6b94ceba-7

> <CID (old format)>

> <Postera Link>
https://covid.postera.ai/covid/submissions/6b94ceba-f352-4275-ad8d-e766e56e6fa4/7

> <InChIKey>
FLSUUSNRZPAOBF-UHFFFAOYSA-N

> <creator>
Ralph Robinson, Thames Pharma Partners

> <rationale>
Follow up of beta lactam TRY-UNI-2eddb1ff-7: beta-lactam replacements, generally retaining the H-bond donor proximal to the phenyl ring. Relative synthetic ease taken into account.

> <Submission Notes>

> <fragments>

> <Structure ID>

> <Fragalysis Link>

> <Enamine - REAL Space>
False

> <Enamine - Extended REAL Space>
False

> <Enamine - SCR>
False

> <Enamine - BB>
False

> <Mcule>

> <Mcule Ultimate>

> <In Molport or Mcule>

> <In eMolecules>

> <MW>
317.09

> <cLogP>
2.58

> <TPSA>
71.09

> <Rotatable Bonds>
4

> <Fraction sp3>
0.19

> <HBA>
3

> <HBD>
2

> <Covalent Fragment>

> <covalent_warhead>
False

> <Acrylamide>
False

> <Acrylamide Adduct>
False

> <Chloroacetamide>
False

> <Chloroacetamide Adduct>
False

> <Vinylsulfonamide>
False

> <Vinylsulfonamide Adduct>
False

> <Nitrile>

> <Nitrile Adduct>

> <series>
3-aminopyridine-like

> <Order Date>

> <Maker>

> <Shipment Date>

> <CDD_name>
CVD-0011606

> <CDD_mol_ID>
80157841.0

> <r_inhibition_at_20_uM>

> <r_inhibition_at_50_uM>

> <r_avg_IC50>

> <r_curve_IC50>

> <r_max_inhibition_reading>

> <r_min_inhibition_reading>

> <r_hill_slope>

> <r_R2>

> <r_concentration_uM>

> <r_inhibition_list>

> <f_inhibition_at_20_uM>

> <f_inhibition_at_50_uM>

> <f_avg_IC50>

> <f_avg_pIC50>

> <f_curve_IC50>

> <f_max_inhibition_reading>

> <f_min_inhibition_reading>

> <f_hill_slope>

> <f_R2>

> <f_concentration_uM>

> <f_inhibition_list>

> <relative_solubility_at_20_uM>

> <relative_solubility_at_100_uM>

> <trypsin_IC50>

> <NMR_std_ratio>

> <structure_ID>

> <structure_LINK>

> <ORDERED>
FALSE

> <MAKER>

> <ORDER_DATE>

> <MADE>
FALSE

> <SHIPMENT_DATE>

> <ASSAYED>
FALSE

> <clash_score>
0

> <docking_score>
-10.589906692504883

$$$$
RAL-THA-6b94ceba-5
  -OEChem-08122015583D

 41 42  0     0  0  0  0  0  0999 V2000
    5.0000    1.4070   18.8080 C   0  0  0  0  0  0  0  0  0  0  0  0
   11.0490    1.0010   23.0460 C   0  0  0  0  0  0  0  0  0  0  0  0
   11.6520   -1.1420   22.1450 C   0  0  0  0  0  0  0  0  0  0  0  0
   13.3680    0.4840   22.6240 C   0  0  0  0  0  0  0  0  0  0  0  0
    5.5330    1.3060   17.5390 C   0  0  0  0  0  0  0  0  0  0  0  0
    7.2400   -0.0390   18.2610 C   0  0  0  0  0  0  0  0  0  0  0  0
    5.6260    0.7590   19.8690 C   0  0  0  0  0  0  0  0  0  0  0  0
   10.6720   -0.2500   22.5660 C   0  0  0  0  0  0  0  0  0  0  0  0
   12.3850    1.3610   23.0530 C   0  0  0  0  0  0  0  0  0  0  0  0
    6.7930    0.0210   19.5790 C   0  0  0  0  0  0  0  0  0  0  0  0
   12.9770   -0.7640   22.1810 C   0  0  0  0  0  0  0  0  0  0  0  0
   11.5531    4.8218   24.0905 C   0  0  0  0  0  0  0  0  0  0  0  0
    8.6020    0.1230   21.2070 C   0  0  0  0  0  0  0  0  0  0  0  0
    5.0980    0.9060   21.2740 C   0  0  0  0  0  0  0  0  0  0  0  0
   10.4387    5.7080   23.6419 C   0  0  0  0  0  0  0  0  0  0  0  0
    9.2100   -0.5900   22.3990 C   0  0  0  0  0  0  0  0  0  0  0  0
   12.7773    2.7295   23.5372 C   0  0  0  0  0  0  0  0  0  0  0  0
    6.6320    0.5940   17.2520 N   0  0  0  0  0  0  0  0  0  0  0  0
    7.5630   -0.5230   20.6330 N   0  0  0  0  0  0  0  0  0  0  0  0
   11.7543    3.7128   23.2868 N   0  0  0  0  0  0  0  0  0  0  0  0
   12.1926    5.1161   25.0936 O   0  0  0  0  0  0  0  0  0  0  0  0
    9.0150    1.2120   20.8220 O   0  0  0  0  0  0  0  0  0  0  0  0
   14.1940   -1.9100   21.6990 Cl  0  0  0  0  0  0  0  0  0  0  0  0
    4.0894    1.9955   18.9731 H   0  0  0  0  0  0  0  0  0  0  0  0
   10.2920    1.6914   23.4138 H   0  0  0  0  0  0  0  0  0  0  0  0
   11.3638   -2.1302   21.7909 H   0  0  0  0  0  0  0  0  0  0  0  0
   14.4063    0.7746   22.6384 H   0  0  0  0  0  0  0  0  0  0  0  0
    5.0712    1.8129   16.6995 H   0  0  0  0  0  0  0  0  0  0  0  0
    8.1159   -0.6122   17.9919 H   0  0  0  0  0  0  0  0  0  0  0  0
    4.7841   -0.0685   21.6656 H   0  0  0  0  0  0  0  0  0  0  0  0
    5.8614    1.3222   21.9428 H   0  0  0  0  0  0  0  0  0  0  0  0
    4.2397    1.5885   21.3053 H   0  0  0  0  0  0  0  0  0  0  0  0
    9.4713    5.4250   24.0870 H   0  0  0  0  0  0  0  0  0  0  0  0
   10.5955    6.7597   23.9308 H   0  0  0  0  0  0  0  0  0  0  0  0
   10.2622    5.7295   22.5546 H   0  0  0  0  0  0  0  0  0  0  0  0
    9.0902   -1.6664   22.2639 H   0  0  0  0  0  0  0  0  0  0  0  0
    8.6579   -0.3097   23.2977 H   0  0  0  0  0  0  0  0  0  0  0  0
   12.9737    2.7255   24.6185 H   0  0  0  0  0  0  0  0  0  0  0  0
   13.6965    3.0818   23.0492 H   0  0  0  0  0  0  0  0  0  0  0  0
    7.3129   -1.4300   20.9567 H   0  0  0  0  0  0  0  0  0  0  0  0
   11.1492    3.5856   22.4786 H   0  0  0  0  0  0  0  0  0  0  0  0
  1  5  2  0  0  0  0
  1  7  1  0  0  0  0
  2  8  1  0  0  0  0
  2  9  2  0  0  0  0
  3  8  2  0  0  0  0
  3 11  1  0  0  0  0
  4  9  1  0  0  0  0
  4 11  2  0  0  0  0
  5 18  1  0  0  0  0
  6 10  1  0  0  0  0
  6 18  2  0  0  0  0
  7 10  2  0  0  0  0
  7 14  1  0  0  0  0
  8 16  1  0  0  0  0
  9 17  1  0  0  0  0
 10 19  1  0  0  0  0
 11 23  1  0  0  0  0
 12 15  1  0  0  0  0
 12 20  1  0  0  0  0
 12 21  2  0  0  0  0
 13 16  1  0  0  0  0
 13 19  1  0  0  0  0
 13 22  2  0  0  0  0
 17 20  1  0  0  0  0
  1 24  1  0  0  0  0
  2 25  1  0  0  0  0
  3 26  1  0  0  0  0
  4 27  1  0  0  0  0
  5 28  1  0  0  0  0
  6 29  1  0  0  0  0
 14 30  1  0  0  0  0
 14 31  1  0  0  0  0
 14 32  1  0  0  0  0
 15 33  1  0  0  0  0
 15 34  1  0  0  0  0
 15 35  1  0  0  0  0
 16 36  1  0  0  0  0
 16 37  1  0  0  0  0
 17 38  1  0  0  0  0
 17 39  1  0  0  0  0
 19 40  1  0  0  0  0
 20 41  1  0  0  0  0
M  END
> <CID (canonical)>
RAL-THA-6b94ceba-5

> <CID (old format)>

> <Postera Link>
https://covid.postera.ai/covid/submissions/6b94ceba-f352-4275-ad8d-e766e56e6fa4/5

> <InChIKey>
XDVRTJWPDGZLAS-UHFFFAOYSA-N

> <creator>
Ralph Robinson, Thames Pharma Partners

> <rationale>
Follow up of beta lactam TRY-UNI-2eddb1ff-7: beta-lactam replacements, generally retaining the H-bond donor proximal to the phenyl ring. Relative synthetic ease taken into account.

> <Submission Notes>

> <fragments>

> <Structure ID>

> <Fragalysis Link>

> <Enamine - REAL Space>
False

> <Enamine - Extended REAL Space>
False

> <Enamine - SCR>
False

> <Enamine - BB>
False

> <Mcule>

> <Mcule Ultimate>

> <In Molport or Mcule>

> <In eMolecules>

> <MW>
331.11

> <cLogP>
2.86

> <TPSA>
71.09

> <Rotatable Bonds>
5

> <Fraction sp3>
0.24

> <HBA>
3

> <HBD>
2

> <Covalent Fragment>

> <covalent_warhead>
False

> <Acrylamide>
False

> <Acrylamide Adduct>
False

> <Chloroacetamide>
False

> <Chloroacetamide Adduct>
False

> <Vinylsulfonamide>
False

> <Vinylsulfonamide Adduct>
False

> <Nitrile>

> <Nitrile Adduct>

> <series>
3-aminopyridine-like

> <Order Date>

> <Maker>

> <Shipment Date>

> <CDD_name>
CVD-0011604

> <CDD_mol_ID>
80157839.0

> <r_inhibition_at_20_uM>

> <r_inhibition_at_50_uM>

> <r_avg_IC50>

> <r_curve_IC50>

> <r_max_inhibition_reading>

> <r_min_inhibition_reading>

> <r_hill_slope>

> <r_R2>

> <r_concentration_uM>

> <r_inhibition_list>

> <f_inhibition_at_20_uM>

> <f_inhibition_at_50_uM>

> <f_avg_IC50>

> <f_avg_pIC50>

> <f_curve_IC50>

> <f_max_inhibition_reading>

> <f_min_inhibition_reading>

> <f_hill_slope>

> <f_R2>

> <f_concentration_uM>

> <f_inhibition_list>

> <relative_solubility_at_20_uM>

> <relative_solubility_at_100_uM>

> <trypsin_IC50>

> <NMR_std_ratio>

> <structure_ID>

> <structure_LINK>

> <ORDERED>
FALSE

> <MAKER>

> <ORDER_DATE>

> <MADE>
FALSE

> <SHIPMENT_DATE>

> <ASSAYED>
FALSE

> <clash_score>
0

> <docking_score>
-11.168615341186523

$$$$
RAL-THA-6b94ceba-3
  -OEChem-08122015583D

 42 44  0     0  0  0  0  0  0999 V2000
    5.0000    1.4070   18.8080 C   0  0  0  0  0  0  0  0  0  0  0  0
   11.0490    1.0010   23.0460 C   0  0  0  0  0  0  0  0  0  0  0  0
   11.6520   -1.1420   22.1450 C   0  0  0  0  0  0  0  0  0  0  0  0
   13.3680    0.4840   22.6240 C   0  0  0  0  0  0  0  0  0  0  0  0
    5.5330    1.3060   17.5390 C   0  0  0  0  0  0  0  0  0  0  0  0
    7.2400   -0.0390   18.2610 C   0  0  0  0  0  0  0  0  0  0  0  0
   13.1248    5.7475   23.6173 C   0  0  0  0  0  0  0  0  0  0  0  0
   11.6557    6.8576   22.5498 C   0  0  0  0  0  0  0  0  0  0  0  0
    5.6260    0.7590   19.8690 C   0  0  0  0  0  0  0  0  0  0  0  0
   10.6720   -0.2500   22.5660 C   0  0  0  0  0  0  0  0  0  0  0  0
    6.7930    0.0210   19.5790 C   0  0  0  0  0  0  0  0  0  0  0  0
   12.3850    1.3610   23.0530 C   0  0  0  0  0  0  0  0  0  0  0  0
   12.9770   -0.7640   22.1810 C   0  0  0  0  0  0  0  0  0  0  0  0
   12.6448    4.8911   22.6546 C   0  0  0  0  0  0  0  0  0  0  0  0
    8.6020    0.1230   21.2070 C   0  0  0  0  0  0  0  0  0  0  0  0
    5.0980    0.9060   21.2740 C   0  0  0  0  0  0  0  0  0  0  0  0
    9.2100   -0.5900   22.3990 C   0  0  0  0  0  0  0  0  0  0  0  0
   12.9780    3.4700   22.3070 C   0  0  0  0  0  0  0  0  0  0  0  0
    6.6320    0.5940   17.2520 N   0  0  0  0  0  0  0  0  0  0  0  0
   12.5048    6.9699   23.5470 N   0  0  0  0  0  0  0  0  0  0  0  0
   11.7041    5.6163   21.9789 N   0  0  0  0  0  0  0  0  0  0  0  0
    7.5630   -0.5230   20.6330 N   0  0  0  0  0  0  0  0  0  0  0  0
    9.0150    1.2120   20.8220 O   0  0  0  0  0  0  0  0  0  0  0  0
   12.7170    2.6360   23.4450 O   0  0  0  0  0  0  0  0  0  0  0  0
   14.1940   -1.9100   21.6990 Cl  0  0  0  0  0  0  0  0  0  0  0  0
    4.0894    1.9955   18.9731 H   0  0  0  0  0  0  0  0  0  0  0  0
   10.2940    1.6937   23.4123 H   0  0  0  0  0  0  0  0  0  0  0  0
   11.3634   -2.1301   21.7911 H   0  0  0  0  0  0  0  0  0  0  0  0
   14.4053    0.7775   22.6398 H   0  0  0  0  0  0  0  0  0  0  0  0
    5.0712    1.8129   16.6995 H   0  0  0  0  0  0  0  0  0  0  0  0
    8.1159   -0.6122   17.9919 H   0  0  0  0  0  0  0  0  0  0  0  0
   13.8853    5.5483   24.3589 H   0  0  0  0  0  0  0  0  0  0  0  0
   10.9853    7.6272   22.1944 H   0  0  0  0  0  0  0  0  0  0  0  0
    4.7838   -0.0684   21.6655 H   0  0  0  0  0  0  0  0  0  0  0  0
    5.8615    1.3219   21.9428 H   0  0  0  0  0  0  0  0  0  0  0  0
    4.2399    1.5888   21.3054 H   0  0  0  0  0  0  0  0  0  0  0  0
    9.0901   -1.6664   22.2639 H   0  0  0  0  0  0  0  0  0  0  0  0
    8.6578   -0.3097   23.2977 H   0  0  0  0  0  0  0  0  0  0  0  0
   12.3738    3.1212   21.4625 H   0  0  0  0  0  0  0  0  0  0  0  0
   14.0329    3.3763   22.0274 H   0  0  0  0  0  0  0  0  0  0  0  0
   11.1455    5.2967   21.1984 H   0  0  0  0  0  0  0  0  0  0  0  0
    7.3129   -1.4300   20.9567 H   0  0  0  0  0  0  0  0  0  0  0  0
  1  5  2  0  0  0  0
  1  9  1  0  0  0  0
  2 10  2  0  0  0  0
  2 12  1  0  0  0  0
  3 10  1  0  0  0  0
  3 13  2  0  0  0  0
  4 12  2  0  0  0  0
  4 13  1  0  0  0  0
  5 19  1  0  0  0  0
  6 11  1  0  0  0  0
  6 19  2  0  0  0  0
  7 14  2  0  0  0  0
  7 20  1  0  0  0  0
  8 20  2  0  0  0  0
  8 21  1  0  0  0  0
  9 11  2  0  0  0  0
  9 16  1  0  0  0  0
 10 17  1  0  0  0  0
 11 22  1  0  0  0  0
 12 24  1  0  0  0  0
 13 25  1  0  0  0  0
 14 18  1  0  0  0  0
 14 21  1  0  0  0  0
 15 17  1  0  0  0  0
 15 22  1  0  0  0  0
 15 23  2  0  0  0  0
 18 24  1  0  0  0  0
  1 26  1  0  0  0  0
  2 27  1  0  0  0  0
  3 28  1  0  0  0  0
  4 29  1  0  0  0  0
  5 30  1  0  0  0  0
  6 31  1  0  0  0  0
  7 32  1  0  0  0  0
  8 33  1  0  0  0  0
 16 34  1  0  0  0  0
 16 35  1  0  0  0  0
 16 36  1  0  0  0  0
 17 37  1  0  0  0  0
 17 38  1  0  0  0  0
 18 39  1  0  0  0  0
 18 40  1  0  0  0  0
 21 41  1  0  0  0  0
 22 42  1  0  0  0  0
M  END
> <CID (canonical)>
RAL-THA-6b94ceba-3

> <CID (old format)>

> <Postera Link>
https://covid.postera.ai/covid/submissions/6b94ceba-f352-4275-ad8d-e766e56e6fa4/3

> <InChIKey>
OMVPMUJKMSXWDT-UHFFFAOYSA-N

> <creator>
Ralph Robinson, Thames Pharma Partners

> <rationale>
Follow up of beta lactam TRY-UNI-2eddb1ff-7: beta-lactam replacements, generally retaining the H-bond donor proximal to the phenyl ring. Relative synthetic ease taken into account.

> <Submission Notes>

> <fragments>

> <Structure ID>

> <Fragalysis Link>

> <Enamine - REAL Space>
False

> <Enamine - Extended REAL Space>
False

> <Enamine - SCR>
False

> <Enamine - BB>
False

> <Mcule>

> <Mcule Ultimate>

> <In Molport or Mcule>

> <In eMolecules>

> <MW>
356.1

> <cLogP>
3.53

> <TPSA>
79.9

> <Rotatable Bonds>
6

> <Fraction sp3>
0.17

> <HBA>
4

> <HBD>
2

> <Covalent Fragment>

> <covalent_warhead>
False

> <Acrylamide>
False

> <Acrylamide Adduct>
False

> <Chloroacetamide>
False

> <Chloroacetamide Adduct>
False

> <Vinylsulfonamide>
False

> <Vinylsulfonamide Adduct>
False

> <Nitrile>

> <Nitrile Adduct>

> <series>
3-aminopyridine-like

> <Order Date>

> <Maker>

> <Shipment Date>

> <CDD_name>
CVD-0011602

> <CDD_mol_ID>
80157837.0

> <r_inhibition_at_20_uM>

> <r_inhibition_at_50_uM>

> <r_avg_IC50>

> <r_curve_IC50>

> <r_max_inhibition_reading>

> <r_min_inhibition_reading>

> <r_hill_slope>

> <r_R2>

> <r_concentration_uM>

> <r_inhibition_list>

> <f_inhibition_at_20_uM>

> <f_inhibition_at_50_uM>

> <f_avg_IC50>

> <f_avg_pIC50>

> <f_curve_IC50>

> <f_max_inhibition_reading>

> <f_min_inhibition_reading>

> <f_hill_slope>

> <f_R2>

> <f_concentration_uM>

> <f_inhibition_list>

> <relative_solubility_at_20_uM>

> <relative_solubility_at_100_uM>

> <trypsin_IC50>

> <NMR_std_ratio>

> <structure_ID>

> <structure_LINK>

> <ORDERED>
FALSE

> <MAKER>

> <ORDER_DATE>

> <MADE>
FALSE

> <SHIPMENT_DATE>

> <ASSAYED>
FALSE

> <clash_score>
0

> <docking_score>
-12.212947845458984

$$$$
RAL-THA-6b94ceba-4
  -OEChem-08122015583D

 42 44  0     0  0  0  0  0  0999 V2000
    5.0000    1.4070   18.8080 C   0  0  0  0  0  0  0  0  0  0  0  0
   12.8068    6.0761   22.5714 C   0  0  0  0  0  0  0  0  0  0  0  0
   11.0490    1.0010   23.0460 C   0  0  0  0  0  0  0  0  0  0  0  0
   11.6520   -1.1420   22.1450 C   0  0  0  0  0  0  0  0  0  0  0  0
   13.3680    0.4840   22.6240 C   0  0  0  0  0  0  0  0  0  0  0  0
    5.5330    1.3060   17.5390 C   0  0  0  0  0  0  0  0  0  0  0  0
   13.6364    6.9633   23.2831 C   0  0  0  0  0  0  0  0  0  0  0  0
    7.2400   -0.0390   18.2610 C   0  0  0  0  0  0  0  0  0  0  0  0
    5.6260    0.7590   19.8690 C   0  0  0  0  0  0  0  0  0  0  0  0
   10.6720   -0.2500   22.5660 C   0  0  0  0  0  0  0  0  0  0  0  0
    6.7930    0.0210   19.5790 C   0  0  0  0  0  0  0  0  0  0  0  0
   12.3850    1.3610   23.0530 C   0  0  0  0  0  0  0  0  0  0  0  0
   12.9770   -0.7640   22.1810 C   0  0  0  0  0  0  0  0  0  0  0  0
   13.3660    4.8394   22.7820 C   0  0  0  0  0  0  0  0  0  0  0  0
    8.6020    0.1230   21.2070 C   0  0  0  0  0  0  0  0  0  0  0  0
    5.0980    0.9060   21.2740 C   0  0  0  0  0  0  0  0  0  0  0  0
    9.2100   -0.5900   22.3990 C   0  0  0  0  0  0  0  0  0  0  0  0
   12.9780    3.4700   22.3070 C   0  0  0  0  0  0  0  0  0  0  0  0
    6.6320    0.5940   17.2520 N   0  0  0  0  0  0  0  0  0  0  0  0
   14.6458    6.3429   23.8998 N   0  0  0  0  0  0  0  0  0  0  0  0
   14.4540    5.0527   23.5764 N   0  0  0  0  0  0  0  0  0  0  0  0
    7.5630   -0.5230   20.6330 N   0  0  0  0  0  0  0  0  0  0  0  0
    9.0150    1.2120   20.8220 O   0  0  0  0  0  0  0  0  0  0  0  0
   12.7170    2.6360   23.4450 O   0  0  0  0  0  0  0  0  0  0  0  0
   14.1940   -1.9100   21.6990 Cl  0  0  0  0  0  0  0  0  0  0  0  0
    4.0894    1.9955   18.9731 H   0  0  0  0  0  0  0  0  0  0  0  0
   11.9276    6.3041   21.9866 H   0  0  0  0  0  0  0  0  0  0  0  0
   10.2940    1.6937   23.4123 H   0  0  0  0  0  0  0  0  0  0  0  0
   11.3634   -2.1301   21.7911 H   0  0  0  0  0  0  0  0  0  0  0  0
   14.4053    0.7775   22.6398 H   0  0  0  0  0  0  0  0  0  0  0  0
    5.0712    1.8129   16.6995 H   0  0  0  0  0  0  0  0  0  0  0  0
   13.5478    8.0360   23.3776 H   0  0  0  0  0  0  0  0  0  0  0  0
    8.1159   -0.6122   17.9919 H   0  0  0  0  0  0  0  0  0  0  0  0
    4.7838   -0.0684   21.6655 H   0  0  0  0  0  0  0  0  0  0  0  0
    5.8615    1.3219   21.9428 H   0  0  0  0  0  0  0  0  0  0  0  0
    4.2399    1.5888   21.3054 H   0  0  0  0  0  0  0  0  0  0  0  0
    9.0901   -1.6664   22.2639 H   0  0  0  0  0  0  0  0  0  0  0  0
    8.6578   -0.3097   23.2977 H   0  0  0  0  0  0  0  0  0  0  0  0
   12.0797    3.5122   21.6816 H   0  0  0  0  0  0  0  0  0  0  0  0
   13.7819    3.0240   21.7116 H   0  0  0  0  0  0  0  0  0  0  0  0
   15.1074    4.3674   23.9352 H   0  0  0  0  0  0  0  0  0  0  0  0
    7.3129   -1.4300   20.9567 H   0  0  0  0  0  0  0  0  0  0  0  0
  1  6  2  0  0  0  0
  1  9  1  0  0  0  0
  2  7  1  0  0  0  0
  2 14  2  0  0  0  0
  3 10  2  0  0  0  0
  3 12  1  0  0  0  0
  4 10  1  0  0  0  0
  4 13  2  0  0  0  0
  5 12  2  0  0  0  0
  5 13  1  0  0  0  0
  6 19  1  0  0  0  0
  7 20  2  0  0  0  0
  8 11  1  0  0  0  0
  8 19  2  0  0  0  0
  9 11  2  0  0  0  0
  9 16  1  0  0  0  0
 10 17  1  0  0  0  0
 11 22  1  0  0  0  0
 12 24  1  0  0  0  0
 13 25  1  0  0  0  0
 14 18  1  0  0  0  0
 14 21  1  0  0  0  0
 15 17  1  0  0  0  0
 15 22  1  0  0  0  0
 15 23  2  0  0  0  0
 18 24  1  0  0  0  0
 20 21  1  0  0  0  0
  1 26  1  0  0  0  0
  2 27  1  0  0  0  0
  3 28  1  0  0  0  0
  4 29  1  0  0  0  0
  5 30  1  0  0  0  0
  6 31  1  0  0  0  0
  7 32  1  0  0  0  0
  8 33  1  0  0  0  0
 16 34  1  0  0  0  0
 16 35  1  0  0  0  0
 16 36  1  0  0  0  0
 17 37  1  0  0  0  0
 17 38  1  0  0  0  0
 18 39  1  0  0  0  0
 18 40  1  0  0  0  0
 21 41  1  0  0  0  0
 22 42  1  0  0  0  0
M  END
> <CID (canonical)>
RAL-THA-6b94ceba-4

> <CID (old format)>

> <Postera Link>
https://covid.postera.ai/covid/submissions/6b94ceba-f352-4275-ad8d-e766e56e6fa4/4

> <InChIKey>
QABDFSLPZXHOOA-UHFFFAOYSA-N

> <creator>
Ralph Robinson, Thames Pharma Partners

> <rationale>
Follow up of beta lactam TRY-UNI-2eddb1ff-7: beta-lactam replacements, generally retaining the H-bond donor proximal to the phenyl ring. Relative synthetic ease taken into account.

> <Submission Notes>

> <fragments>

> <Structure ID>

> <Fragalysis Link>

> <Enamine - REAL Space>
False

> <Enamine - Extended REAL Space>
False

> <Enamine - SCR>
False

> <Enamine - BB>
False

> <Mcule>

> <Mcule Ultimate>

> <In Molport or Mcule>

> <In eMolecules>

> <MW>
356.1

> <cLogP>
3.53

> <TPSA>
79.9

> <Rotatable Bonds>
6

> <Fraction sp3>
0.17

> <HBA>
4

> <HBD>
2

> <Covalent Fragment>

> <covalent_warhead>
False

> <Acrylamide>
False

> <Acrylamide Adduct>
False

> <Chloroacetamide>
False

> <Chloroacetamide Adduct>
False

> <Vinylsulfonamide>
False

> <Vinylsulfonamide Adduct>
False

> <Nitrile>

> <Nitrile Adduct>

> <series>
3-aminopyridine-like

> <Order Date>

> <Maker>

> <Shipment Date>

> <CDD_name>
CVD-0011603

> <CDD_mol_ID>
80157838.0

> <r_inhibition_at_20_uM>

> <r_inhibition_at_50_uM>

> <r_avg_IC50>

> <r_curve_IC50>

> <r_max_inhibition_reading>

> <r_min_inhibition_reading>

> <r_hill_slope>

> <r_R2>

> <r_concentration_uM>

> <r_inhibition_list>

> <f_inhibition_at_20_uM>

> <f_inhibition_at_50_uM>

> <f_avg_IC50>

> <f_avg_pIC50>

> <f_curve_IC50>

> <f_max_inhibition_reading>

> <f_min_inhibition_reading>

> <f_hill_slope>

> <f_R2>

> <f_concentration_uM>

> <f_inhibition_list>

> <relative_solubility_at_20_uM>

> <relative_solubility_at_100_uM>

> <trypsin_IC50>

> <NMR_std_ratio>

> <structure_ID>

> <structure_LINK>

> <ORDERED>
FALSE

> <MAKER>

> <ORDER_DATE>

> <MADE>
FALSE

> <SHIPMENT_DATE>

> <ASSAYED>
FALSE

> <clash_score>
0.8343084279865367

> <docking_score>
-11.663593292236328

$$$$
RAL-THA-6b94ceba-1
  -OEChem-08122015583D

 42 44  0     0  0  0  0  0  0999 V2000
    5.0000    1.4070   18.8080 C   0  0  0  0  0  0  0  0  0  0  0  0
   11.0490    1.0010   23.0460 C   0  0  0  0  0  0  0  0  0  0  0  0
   11.6520   -1.1420   22.1450 C   0  0  0  0  0  0  0  0  0  0  0  0
   13.3680    0.4840   22.6240 C   0  0  0  0  0  0  0  0  0  0  0  0
    5.5330    1.3060   17.5390 C   0  0  0  0  0  0  0  0  0  0  0  0
   12.7099    6.9549   23.1715 C   0  0  0  0  0  0  0  0  0  0  0  0
    7.2400   -0.0390   18.2610 C   0  0  0  0  0  0  0  0  0  0  0  0
   11.3745    6.6439   23.0677 C   0  0  0  0  0  0  0  0  0  0  0  0
    5.6260    0.7590   19.8690 C   0  0  0  0  0  0  0  0  0  0  0  0
   10.6720   -0.2500   22.5660 C   0  0  0  0  0  0  0  0  0  0  0  0
    6.7930    0.0210   19.5790 C   0  0  0  0  0  0  0  0  0  0  0  0
   12.3850    1.3610   23.0530 C   0  0  0  0  0  0  0  0  0  0  0  0
   12.9770   -0.7640   22.1810 C   0  0  0  0  0  0  0  0  0  0  0  0
   12.6448    4.8911   22.6546 C   0  0  0  0  0  0  0  0  0  0  0  0
    8.6020    0.1230   21.2070 C   0  0  0  0  0  0  0  0  0  0  0  0
    5.0980    0.9060   21.2740 C   0  0  0  0  0  0  0  0  0  0  0  0
    9.2100   -0.5900   22.3990 C   0  0  0  0  0  0  0  0  0  0  0  0
   12.9780    3.4700   22.3070 C   0  0  0  0  0  0  0  0  0  0  0  0
    6.6320    0.5940   17.2520 N   0  0  0  0  0  0  0  0  0  0  0  0
   13.4954    5.8596   22.9128 N   0  0  0  0  0  0  0  0  0  0  0  0
   11.3487    5.3187   22.7356 N   0  0  0  0  0  0  0  0  0  0  0  0
    7.5630   -0.5230   20.6330 N   0  0  0  0  0  0  0  0  0  0  0  0
    9.0150    1.2120   20.8220 O   0  0  0  0  0  0  0  0  0  0  0  0
   12.7170    2.6360   23.4450 O   0  0  0  0  0  0  0  0  0  0  0  0
   14.1940   -1.9100   21.6990 Cl  0  0  0  0  0  0  0  0  0  0  0  0
    4.0894    1.9955   18.9731 H   0  0  0  0  0  0  0  0  0  0  0  0
   10.2940    1.6937   23.4123 H   0  0  0  0  0  0  0  0  0  0  0  0
   11.3634   -2.1301   21.7911 H   0  0  0  0  0  0  0  0  0  0  0  0
   14.4053    0.7775   22.6398 H   0  0  0  0  0  0  0  0  0  0  0  0
    5.0712    1.8129   16.6995 H   0  0  0  0  0  0  0  0  0  0  0  0
   13.1455    7.9120   23.4178 H   0  0  0  0  0  0  0  0  0  0  0  0
    8.1159   -0.6122   17.9919 H   0  0  0  0  0  0  0  0  0  0  0  0
   10.4715    7.2227   23.1955 H   0  0  0  0  0  0  0  0  0  0  0  0
    4.7838   -0.0684   21.6655 H   0  0  0  0  0  0  0  0  0  0  0  0
    5.8615    1.3219   21.9428 H   0  0  0  0  0  0  0  0  0  0  0  0
    4.2399    1.5888   21.3054 H   0  0  0  0  0  0  0  0  0  0  0  0
    9.0901   -1.6664   22.2639 H   0  0  0  0  0  0  0  0  0  0  0  0
    8.6578   -0.3097   23.2977 H   0  0  0  0  0  0  0  0  0  0  0  0
   12.3738    3.1212   21.4625 H   0  0  0  0  0  0  0  0  0  0  0  0
   14.0329    3.3763   22.0274 H   0  0  0  0  0  0  0  0  0  0  0  0
   10.5214    4.7575   22.5814 H   0  0  0  0  0  0  0  0  0  0  0  0
    7.3129   -1.4300   20.9567 H   0  0  0  0  0  0  0  0  0  0  0  0
  1  5  2  0  0  0  0
  1  9  1  0  0  0  0
  2 10  2  0  0  0  0
  2 12  1  0  0  0  0
  3 10  1  0  0  0  0
  3 13  2  0  0  0  0
  4 12  2  0  0  0  0
  4 13  1  0  0  0  0
  5 19  1  0  0  0  0
  6  8  2  0  0  0  0
  6 20  1  0  0  0  0
  7 11  1  0  0  0  0
  7 19  2  0  0  0  0
  8 21  1  0  0  0  0
  9 11  2  0  0  0  0
  9 16  1  0  0  0  0
 10 17  1  0  0  0  0
 11 22  1  0  0  0  0
 12 24  1  0  0  0  0
 13 25  1  0  0  0  0
 14 18  1  0  0  0  0
 14 20  2  0  0  0  0
 14 21  1  0  0  0  0
 15 17  1  0  0  0  0
 15 22  1  0  0  0  0
 15 23  2  0  0  0  0
 18 24  1  0  0  0  0
  1 26  1  0  0  0  0
  2 27  1  0  0  0  0
  3 28  1  0  0  0  0
  4 29  1  0  0  0  0
  5 30  1  0  0  0  0
  6 31  1  0  0  0  0
  7 32  1  0  0  0  0
  8 33  1  0  0  0  0
 16 34  1  0  0  0  0
 16 35  1  0  0  0  0
 16 36  1  0  0  0  0
 17 37  1  0  0  0  0
 17 38  1  0  0  0  0
 18 39  1  0  0  0  0
 18 40  1  0  0  0  0
 21 41  1  0  0  0  0
 22 42  1  0  0  0  0
M  END
> <CID (canonical)>
RAL-THA-6b94ceba-1

> <CID (old format)>

> <Postera Link>
https://covid.postera.ai/covid/submissions/6b94ceba-f352-4275-ad8d-e766e56e6fa4/1

> <InChIKey>
VFBYPWUSCBXRKO-UHFFFAOYSA-N

> <creator>
Ralph Robinson, Thames Pharma Partners

> <rationale>
Follow up of beta lactam TRY-UNI-2eddb1ff-7: beta-lactam replacements, generally retaining the H-bond donor proximal to the phenyl ring. Relative synthetic ease taken into account.

> <Submission Notes>

> <fragments>

> <Structure ID>

> <Fragalysis Link>

> <Enamine - REAL Space>
False

> <Enamine - Extended REAL Space>
False

> <Enamine - SCR>
False

> <Enamine - BB>
False

> <Mcule>

> <Mcule Ultimate>

> <In Molport or Mcule>

> <In eMolecules>

> <MW>
356.1

> <cLogP>
3.53

> <TPSA>
79.9

> <Rotatable Bonds>
6

> <Fraction sp3>
0.17

> <HBA>
4

> <HBD>
2

> <Covalent Fragment>

> <covalent_warhead>
False

> <Acrylamide>
False

> <Acrylamide Adduct>
False

> <Chloroacetamide>
False

> <Chloroacetamide Adduct>
False

> <Vinylsulfonamide>
False

> <Vinylsulfonamide Adduct>
False

> <Nitrile>

> <Nitrile Adduct>

> <series>
3-aminopyridine-like

> <Order Date>

> <Maker>

> <Shipment Date>

> <CDD_name>
CVD-0011600

> <CDD_mol_ID>
80157835.0

> <r_inhibition_at_20_uM>

> <r_inhibition_at_50_uM>

> <r_avg_IC50>

> <r_curve_IC50>

> <r_max_inhibition_reading>

> <r_min_inhibition_reading>

> <r_hill_slope>

> <r_R2>

> <r_concentration_uM>

> <r_inhibition_list>

> <f_inhibition_at_20_uM>

> <f_inhibition_at_50_uM>

> <f_avg_IC50>

> <f_avg_pIC50>

> <f_curve_IC50>

> <f_max_inhibition_reading>

> <f_min_inhibition_reading>

> <f_hill_slope>

> <f_R2>

> <f_concentration_uM>

> <f_inhibition_list>

> <relative_solubility_at_20_uM>

> <relative_solubility_at_100_uM>

> <trypsin_IC50>

> <NMR_std_ratio>

> <structure_ID>

> <structure_LINK>

> <ORDERED>
FALSE

> <MAKER>

> <ORDER_DATE>

> <MADE>
FALSE

> <SHIPMENT_DATE>

> <ASSAYED>
FALSE

> <clash_score>
0

> <docking_score>
-10.966204643249512

$$$$
RAL-THA-6b94ceba-8
  -OEChem-08122015583D

 42 43  0     0  0  0  0  0  0999 V2000
    5.0000    1.4070   18.8080 C   0  0  0  0  0  0  0  0  0  0  0  0
   11.0490    1.0010   23.0460 C   0  0  0  0  0  0  0  0  0  0  0  0
   11.6520   -1.1420   22.1450 C   0  0  0  0  0  0  0  0  0  0  0  0
   13.3680    0.4840   22.6240 C   0  0  0  0  0  0  0  0  0  0  0  0
    5.5330    1.3060   17.5390 C   0  0  0  0  0  0  0  0  0  0  0  0
    7.2400   -0.0390   18.2610 C   0  0  0  0  0  0  0  0  0  0  0  0
    5.6260    0.7590   19.8690 C   0  0  0  0  0  0  0  0  0  0  0  0
   10.6720   -0.2500   22.5660 C   0  0  0  0  0  0  0  0  0  0  0  0
   12.3850    1.3610   23.0530 C   0  0  0  0  0  0  0  0  0  0  0  0
    6.7930    0.0210   19.5790 C   0  0  0  0  0  0  0  0  0  0  0  0
   12.9770   -0.7640   22.1810 C   0  0  0  0  0  0  0  0  0  0  0  0
    8.6020    0.1230   21.2070 C   0  0  0  0  0  0  0  0  0  0  0  0
   11.5348    4.8272   24.0772 C   0  0  0  0  0  0  0  0  0  0  0  0
    5.0980    0.9060   21.2740 C   0  0  0  0  0  0  0  0  0  0  0  0
   12.3271    5.9394   26.0162 C   0  0  0  0  0  0  0  0  0  0  0  0
    9.2100   -0.5900   22.3990 C   0  0  0  0  0  0  0  0  0  0  0  0
   12.7799    2.7385   23.5403 C   0  0  0  0  0  0  0  0  0  0  0  0
    6.6320    0.5940   17.2520 N   0  0  0  0  0  0  0  0  0  0  0  0
    7.5630   -0.5230   20.6330 N   0  0  0  0  0  0  0  0  0  0  0  0
   11.7495    3.7187   23.2855 N   0  0  0  0  0  0  0  0  0  0  0  0
    9.0150    1.2120   20.8220 O   0  0  0  0  0  0  0  0  0  0  0  0
   10.6730    5.6810   23.8959 O   0  0  0  0  0  0  0  0  0  0  0  0
   12.4328    4.8379   25.1072 O   0  0  0  0  0  0  0  0  0  0  0  0
   14.1940   -1.9100   21.6990 Cl  0  0  0  0  0  0  0  0  0  0  0  0
    4.0894    1.9955   18.9731 H   0  0  0  0  0  0  0  0  0  0  0  0
   10.2920    1.6914   23.4138 H   0  0  0  0  0  0  0  0  0  0  0  0
   11.3638   -2.1302   21.7909 H   0  0  0  0  0  0  0  0  0  0  0  0
   14.4063    0.7746   22.6384 H   0  0  0  0  0  0  0  0  0  0  0  0
    5.0712    1.8129   16.6995 H   0  0  0  0  0  0  0  0  0  0  0  0
    8.1159   -0.6122   17.9919 H   0  0  0  0  0  0  0  0  0  0  0  0
    5.9130    0.7987   21.9991 H   0  0  0  0  0  0  0  0  0  0  0  0
    4.6269    1.8858   21.4198 H   0  0  0  0  0  0  0  0  0  0  0  0
    4.3343    0.1490   21.4915 H   0  0  0  0  0  0  0  0  0  0  0  0
   13.0890    5.8454   26.7938 H   0  0  0  0  0  0  0  0  0  0  0  0
   11.3311    5.9474   26.4661 H   0  0  0  0  0  0  0  0  0  0  0  0
   12.4839    6.8704   25.4663 H   0  0  0  0  0  0  0  0  0  0  0  0
    9.0902   -1.6664   22.2639 H   0  0  0  0  0  0  0  0  0  0  0  0
    8.6579   -0.3097   23.2977 H   0  0  0  0  0  0  0  0  0  0  0  0
   12.9736    2.7254   24.6185 H   0  0  0  0  0  0  0  0  0  0  0  0
   13.6967    3.0812   23.0493 H   0  0  0  0  0  0  0  0  0  0  0  0
    7.3129   -1.4300   20.9567 H   0  0  0  0  0  0  0  0  0  0  0  0
   11.1494    3.5836   22.4777 H   0  0  0  0  0  0  0  0  0  0  0  0
  1  5  2  0  0  0  0
  1  7  1  0  0  0  0
  2  8  1  0  0  0  0
  2  9  2  0  0  0  0
  3  8  2  0  0  0  0
  3 11  1  0  0  0  0
  4  9  1  0  0  0  0
  4 11  2  0  0  0  0
  5 18  1  0  0  0  0
  6 10  1  0  0  0  0
  6 18  2  0  0  0  0
  7 10  2  0  0  0  0
  7 14  1  0  0  0  0
  8 16  1  0  0  0  0
  9 17  1  0  0  0  0
 10 19  1  0  0  0  0
 11 24  1  0  0  0  0
 12 16  1  0  0  0  0
 12 19  1  0  0  0  0
 12 21  2  0  0  0  0
 13 20  1  0  0  0  0
 13 22  2  0  0  0  0
 13 23  1  0  0  0  0
 15 23  1  0  0  0  0
 17 20  1  0  0  0  0
  1 25  1  0  0  0  0
  2 26  1  0  0  0  0
  3 27  1  0  0  0  0
  4 28  1  0  0  0  0
  5 29  1  0  0  0  0
  6 30  1  0  0  0  0
 14 31  1  0  0  0  0
 14 32  1  0  0  0  0
 14 33  1  0  0  0  0
 15 34  1  0  0  0  0
 15 35  1  0  0  0  0
 15 36  1  0  0  0  0
 16 37  1  0  0  0  0
 16 38  1  0  0  0  0
 17 39  1  0  0  0  0
 17 40  1  0  0  0  0
 19 41  1  0  0  0  0
 20 42  1  0  0  0  0
M  END
> <CID (canonical)>
RAL-THA-6b94ceba-8

> <CID (old format)>

> <Postera Link>
https://covid.postera.ai/covid/submissions/6b94ceba-f352-4275-ad8d-e766e56e6fa4/8

> <InChIKey>
KUCGXGBCDLPEAW-UHFFFAOYSA-N

> <creator>
Ralph Robinson, Thames Pharma Partners

> <rationale>
Follow up of beta lactam TRY-UNI-2eddb1ff-7: beta-lactam replacements, generally retaining the H-bond donor proximal to the phenyl ring. Relative synthetic ease taken into account.

> <Submission Notes>

> <fragments>

> <Structure ID>

> <Fragalysis Link>

> <Enamine - REAL Space>
False

> <Enamine - Extended REAL Space>
False

> <Enamine - SCR>
False

> <Enamine - BB>
False

> <Mcule>

> <Mcule Ultimate>

> <In Molport or Mcule>

> <In eMolecules>

> <MW>
347.1

> <cLogP>
3.08

> <TPSA>
80.32

> <Rotatable Bonds>
5

> <Fraction sp3>
0.24

> <HBA>
4

> <HBD>
2

> <Covalent Fragment>

> <covalent_warhead>
False

> <Acrylamide>
False

> <Acrylamide Adduct>
False

> <Chloroacetamide>
False

> <Chloroacetamide Adduct>
False

> <Vinylsulfonamide>
False

> <Vinylsulfonamide Adduct>
False

> <Nitrile>

> <Nitrile Adduct>

> <series>
3-aminopyridine-like

> <Order Date>

> <Maker>

> <Shipment Date>

> <CDD_name>
CVD-0011607

> <CDD_mol_ID>
80157842.0

> <r_inhibition_at_20_uM>

> <r_inhibition_at_50_uM>

> <r_avg_IC50>

> <r_curve_IC50>

> <r_max_inhibition_reading>

> <r_min_inhibition_reading>

> <r_hill_slope>

> <r_R2>

> <r_concentration_uM>

> <r_inhibition_list>

> <f_inhibition_at_20_uM>

> <f_inhibition_at_50_uM>

> <f_avg_IC50>

> <f_avg_pIC50>

> <f_curve_IC50>

> <f_max_inhibition_reading>

> <f_min_inhibition_reading>

> <f_hill_slope>

> <f_R2>

> <f_concentration_uM>

> <f_inhibition_list>

> <relative_solubility_at_20_uM>

> <relative_solubility_at_100_uM>

> <trypsin_IC50>

> <NMR_std_ratio>

> <structure_ID>

> <structure_LINK>

> <ORDERED>
FALSE

> <MAKER>

> <ORDER_DATE>

> <MADE>
FALSE

> <SHIPMENT_DATE>

> <ASSAYED>
FALSE

> <clash_score>
0

> <docking_score>
-11.337638854980469

$$$$
RAL-THA-6b94ceba-9
  -OEChem-08122015593D

 38 40  0     0  0  0  0  0  0999 V2000
    5.0000    1.4070   18.8080 C   0  0  0  0  0  0  0  0  0  0  0  0
   11.0490    1.0010   23.0460 C   0  0  0  0  0  0  0  0  0  0  0  0
   13.3680    0.4840   22.6240 C   0  0  0  0  0  0  0  0  0  0  0  0
   11.6520   -1.1420   22.1450 C   0  0  0  0  0  0  0  0  0  0  0  0
    5.5330    1.3060   17.5390 C   0  0  0  0  0  0  0  0  0  0  0  0
   13.7933    4.3526   24.3527 C   0  0  0  0  0  0  0  0  0  0  0  0
    7.2400   -0.0390   18.2610 C   0  0  0  0  0  0  0  0  0  0  0  0
   12.5860    4.8461   23.9174 C   0  0  0  0  0  0  0  0  0  0  0  0
   12.3850    1.3610   23.0530 C   0  0  0  0  0  0  0  0  0  0  0  0
    5.6260    0.7590   19.8690 C   0  0  0  0  0  0  0  0  0  0  0  0
   10.6720   -0.2500   22.5660 C   0  0  0  0  0  0  0  0  0  0  0  0
    6.7930    0.0210   19.5790 C   0  0  0  0  0  0  0  0  0  0  0  0
   12.9770   -0.7640   22.1810 C   0  0  0  0  0  0  0  0  0  0  0  0
   12.7645    2.6858   23.5197 C   0  0  0  0  0  0  0  0  0  0  0  0
    8.6020    0.1230   21.2070 C   0  0  0  0  0  0  0  0  0  0  0  0
    5.0980    0.9060   21.2740 C   0  0  0  0  0  0  0  0  0  0  0  0
    9.2100   -0.5900   22.3990 C   0  0  0  0  0  0  0  0  0  0  0  0
    6.6320    0.5940   17.2520 N   0  0  0  0  0  0  0  0  0  0  0  0
   13.8983    3.0074   24.1019 N   0  0  0  0  0  0  0  0  0  0  0  0
   11.9381    3.7668   23.3858 N   0  0  0  0  0  0  0  0  0  0  0  0
    7.5630   -0.5230   20.6330 N   0  0  0  0  0  0  0  0  0  0  0  0
    9.0150    1.2120   20.8220 O   0  0  0  0  0  0  0  0  0  0  0  0
   14.1940   -1.9100   21.6990 Cl  0  0  0  0  0  0  0  0  0  0  0  0
    4.0894    1.9955   18.9731 H   0  0  0  0  0  0  0  0  0  0  0  0
   10.2872    1.6875   23.4133 H   0  0  0  0  0  0  0  0  0  0  0  0
   14.4086    0.7688   22.6369 H   0  0  0  0  0  0  0  0  0  0  0  0
   11.3634   -2.1302   21.7918 H   0  0  0  0  0  0  0  0  0  0  0  0
    5.0712    1.8129   16.6995 H   0  0  0  0  0  0  0  0  0  0  0  0
   14.5922    4.8975   24.8340 H   0  0  0  0  0  0  0  0  0  0  0  0
    8.1159   -0.6122   17.9919 H   0  0  0  0  0  0  0  0  0  0  0  0
   12.1432    5.8313   23.9371 H   0  0  0  0  0  0  0  0  0  0  0  0
    4.4460    1.7843   21.3447 H   0  0  0  0  0  0  0  0  0  0  0  0
    4.5259    0.0205   21.5771 H   0  0  0  0  0  0  0  0  0  0  0  0
    5.9169    1.0193   21.9952 H   0  0  0  0  0  0  0  0  0  0  0  0
    9.0901   -1.6664   22.2639 H   0  0  0  0  0  0  0  0  0  0  0  0
    8.6579   -0.3097   23.2977 H   0  0  0  0  0  0  0  0  0  0  0  0
   11.0152    3.7712   22.9712 H   0  0  0  0  0  0  0  0  0  0  0  0
    7.3129   -1.4300   20.9567 H   0  0  0  0  0  0  0  0  0  0  0  0
  1  5  2  0  0  0  0
  1 10  1  0  0  0  0
  2  9  1  0  0  0  0
  2 11  2  0  0  0  0
  3  9  2  0  0  0  0
  3 13  1  0  0  0  0
  4 11  1  0  0  0  0
  4 13  2  0  0  0  0
  5 18  1  0  0  0  0
  6  8  2  0  0  0  0
  6 19  1  0  0  0  0
  7 12  1  0  0  0  0
  7 18  2  0  0  0  0
  8 20  1  0  0  0  0
  9 14  1  0  0  0  0
 10 12  2  0  0  0  0
 10 16  1  0  0  0  0
 11 17  1  0  0  0  0
 12 21  1  0  0  0  0
 13 23  1  0  0  0  0
 14 19  2  0  0  0  0
 14 20  1  0  0  0  0
 15 17  1  0  0  0  0
 15 21  1  0  0  0  0
 15 22  2  0  0  0  0
  1 24  1  0  0  0  0
  2 25  1  0  0  0  0
  3 26  1  0  0  0  0
  4 27  1  0  0  0  0
  5 28  1  0  0  0  0
  6 29  1  0  0  0  0
  7 30  1  0  0  0  0
  8 31  1  0  0  0  0
 16 32  1  0  0  0  0
 16 33  1  0  0  0  0
 16 34  1  0  0  0  0
 17 35  1  0  0  0  0
 17 36  1  0  0  0  0
 20 37  1  0  0  0  0
 21 38  1  0  0  0  0
M  END
> <CID (canonical)>
RAL-THA-6b94ceba-9

> <CID (old format)>

> <Postera Link>
https://covid.postera.ai/covid/submissions/6b94ceba-f352-4275-ad8d-e766e56e6fa4/9

> <InChIKey>
VQUKTACGBSLSGF-UHFFFAOYSA-N

> <creator>
Ralph Robinson, Thames Pharma Partners

> <rationale>
Follow up of beta lactam TRY-UNI-2eddb1ff-7: beta-lactam replacements, generally retaining the H-bond donor proximal to the phenyl ring. Relative synthetic ease taken into account.

> <Submission Notes>

> <fragments>

> <Structure ID>

> <Fragalysis Link>

> <Enamine - REAL Space>
False

> <Enamine - Extended REAL Space>
False

> <Enamine - SCR>
False

> <Enamine - BB>
False

> <Mcule>

> <Mcule Ultimate>

> <In Molport or Mcule>

> <In eMolecules>

> <MW>
326.09

> <cLogP>
3.61

> <TPSA>
70.67

> <Rotatable Bonds>
4

> <Fraction sp3>
0.12

> <HBA>
3

> <HBD>
2

> <Covalent Fragment>

> <covalent_warhead>
False

> <Acrylamide>
False

> <Acrylamide Adduct>
False

> <Chloroacetamide>
False

> <Chloroacetamide Adduct>
False

> <Vinylsulfonamide>
False

> <Vinylsulfonamide Adduct>
False

> <Nitrile>

> <Nitrile Adduct>

> <series>
3-aminopyridine-like

> <Order Date>

> <Maker>

> <Shipment Date>

> <CDD_name>
CVD-0011608

> <CDD_mol_ID>
80157843.0

> <r_inhibition_at_20_uM>

> <r_inhibition_at_50_uM>

> <r_avg_IC50>

> <r_curve_IC50>

> <r_max_inhibition_reading>

> <r_min_inhibition_reading>

> <r_hill_slope>

> <r_R2>

> <r_concentration_uM>

> <r_inhibition_list>

> <f_inhibition_at_20_uM>

> <f_inhibition_at_50_uM>

> <f_avg_IC50>

> <f_avg_pIC50>

> <f_curve_IC50>

> <f_max_inhibition_reading>

> <f_min_inhibition_reading>

> <f_hill_slope>

> <f_R2>

> <f_concentration_uM>

> <f_inhibition_list>

> <relative_solubility_at_20_uM>

> <relative_solubility_at_100_uM>

> <trypsin_IC50>

> <NMR_std_ratio>

> <structure_ID>

> <structure_LINK>

> <ORDERED>
FALSE

> <MAKER>

> <ORDER_DATE>

> <MADE>
FALSE

> <SHIPMENT_DATE>

> <ASSAYED>
FALSE

> <clash_score>
0

> <docking_score>
-9.87631893157959

$$$$
RAL-THA-6b94ceba-10
  -OEChem-08122015593D

 37 39  0     0  0  0  0  0  0999 V2000
    5.0000    1.4070   18.8080 C   0  0  0  0  0  0  0  0  0  0  0  0
   11.0490    1.0010   23.0460 C   0  0  0  0  0  0  0  0  0  0  0  0
   13.3680    0.4840   22.6240 C   0  0  0  0  0  0  0  0  0  0  0  0
   11.6520   -1.1420   22.1450 C   0  0  0  0  0  0  0  0  0  0  0  0
    5.5330    1.3060   17.5390 C   0  0  0  0  0  0  0  0  0  0  0  0
    7.2400   -0.0390   18.2610 C   0  0  0  0  0  0  0  0  0  0  0  0
   12.8809    4.7071   24.0278 C   0  0  0  0  0  0  0  0  0  0  0  0
   12.3850    1.3610   23.0530 C   0  0  0  0  0  0  0  0  0  0  0  0
    5.6260    0.7590   19.8690 C   0  0  0  0  0  0  0  0  0  0  0  0
   10.6720   -0.2500   22.5660 C   0  0  0  0  0  0  0  0  0  0  0  0
    6.7930    0.0210   19.5790 C   0  0  0  0  0  0  0  0  0  0  0  0
   12.9770   -0.7640   22.1810 C   0  0  0  0  0  0  0  0  0  0  0  0
   12.7645    2.6859   23.5197 C   0  0  0  0  0  0  0  0  0  0  0  0
    8.6020    0.1230   21.2070 C   0  0  0  0  0  0  0  0  0  0  0  0
    5.0980    0.9060   21.2740 C   0  0  0  0  0  0  0  0  0  0  0  0
    9.2100   -0.5900   22.3990 C   0  0  0  0  0  0  0  0  0  0  0  0
    6.6320    0.5940   17.2520 N   0  0  0  0  0  0  0  0  0  0  0  0
   12.0550    3.7880   23.4465 N   0  0  0  0  0  0  0  0  0  0  0  0
   14.0567    4.2429   24.4560 N   0  0  0  0  0  0  0  0  0  0  0  0
   13.9569    2.9481   24.1190 N   0  0  0  0  0  0  0  0  0  0  0  0
    7.5630   -0.5230   20.6330 N   0  0  0  0  0  0  0  0  0  0  0  0
    9.0150    1.2120   20.8220 O   0  0  0  0  0  0  0  0  0  0  0  0
   14.1940   -1.9100   21.6990 Cl  0  0  0  0  0  0  0  0  0  0  0  0
    4.0894    1.9955   18.9731 H   0  0  0  0  0  0  0  0  0  0  0  0
   10.2872    1.6875   23.4133 H   0  0  0  0  0  0  0  0  0  0  0  0
   14.4086    0.7688   22.6369 H   0  0  0  0  0  0  0  0  0  0  0  0
   11.3634   -2.1302   21.7918 H   0  0  0  0  0  0  0  0  0  0  0  0
    5.0712    1.8129   16.6995 H   0  0  0  0  0  0  0  0  0  0  0  0
    8.1159   -0.6122   17.9919 H   0  0  0  0  0  0  0  0  0  0  0  0
   12.6171    5.7476   24.1438 H   0  0  0  0  0  0  0  0  0  0  0  0
    4.4460    1.7843   21.3447 H   0  0  0  0  0  0  0  0  0  0  0  0
    4.5259    0.0205   21.5771 H   0  0  0  0  0  0  0  0  0  0  0  0
    5.9169    1.0193   21.9952 H   0  0  0  0  0  0  0  0  0  0  0  0
    9.0901   -1.6664   22.2639 H   0  0  0  0  0  0  0  0  0  0  0  0
    8.6579   -0.3097   23.2977 H   0  0  0  0  0  0  0  0  0  0  0  0
   14.7272    2.3228   24.3257 H   0  0  0  0  0  0  0  0  0  0  0  0
    7.3129   -1.4300   20.9567 H   0  0  0  0  0  0  0  0  0  0  0  0
  1  5  2  0  0  0  0
  1  9  1  0  0  0  0
  2  8  1  0  0  0  0
  2 10  2  0  0  0  0
  3  8  2  0  0  0  0
  3 12  1  0  0  0  0
  4 10  1  0  0  0  0
  4 12  2  0  0  0  0
  5 17  1  0  0  0  0
  6 11  1  0  0  0  0
  6 17  2  0  0  0  0
  7 18  1  0  0  0  0
  7 19  2  0  0  0  0
  8 13  1  0  0  0  0
  9 11  2  0  0  0  0
  9 15  1  0  0  0  0
 10 16  1  0  0  0  0
 11 21  1  0  0  0  0
 12 23  1  0  0  0  0
 13 18  2  0  0  0  0
 13 20  1  0  0  0  0
 14 16  1  0  0  0  0
 14 21  1  0  0  0  0
 14 22  2  0  0  0  0
 19 20  1  0  0  0  0
  1 24  1  0  0  0  0
  2 25  1  0  0  0  0
  3 26  1  0  0  0  0
  4 27  1  0  0  0  0
  5 28  1  0  0  0  0
  6 29  1  0  0  0  0
  7 30  1  0  0  0  0
 15 31  1  0  0  0  0
 15 32  1  0  0  0  0
 15 33  1  0  0  0  0
 16 34  1  0  0  0  0
 16 35  1  0  0  0  0
 20 36  1  0  0  0  0
 21 37  1  0  0  0  0
M  END
> <CID (canonical)>
RAL-THA-6b94ceba-10

> <CID (old format)>

> <Postera Link>
https://covid.postera.ai/covid/submissions/6b94ceba-f352-4275-ad8d-e766e56e6fa4/10

> <InChIKey>
ICTLZPFPOQFOCC-UHFFFAOYSA-N

> <creator>
Ralph Robinson, Thames Pharma Partners

> <rationale>
Follow up of beta lactam TRY-UNI-2eddb1ff-7: beta-lactam replacements, generally retaining the H-bond donor proximal to the phenyl ring. Relative synthetic ease taken into account.

> <Submission Notes>

> <fragments>

> <Structure ID>

> <Fragalysis Link>

> <Enamine - REAL Space>
False

> <Enamine - Extended REAL Space>
False

> <Enamine - SCR>
False

> <Enamine - BB>
False

> <Mcule>

> <Mcule Ultimate>

> <In Molport or Mcule>

> <In eMolecules>

> <MW>
327.09

> <cLogP>
3.01

> <TPSA>
83.56

> <Rotatable Bonds>
4

> <Fraction sp3>
0.12

> <HBA>
4

> <HBD>
2

> <Covalent Fragment>

> <covalent_warhead>
False

> <Acrylamide>
False

> <Acrylamide Adduct>
False

> <Chloroacetamide>
False

> <Chloroacetamide Adduct>
False

> <Vinylsulfonamide>
False

> <Vinylsulfonamide Adduct>
False

> <Nitrile>

> <Nitrile Adduct>

> <series>
3-aminopyridine-like

> <Order Date>

> <Maker>

> <Shipment Date>

> <CDD_name>
CVD-0011609

> <CDD_mol_ID>
80157844.0

> <r_inhibition_at_20_uM>

> <r_inhibition_at_50_uM>

> <r_avg_IC50>

> <r_curve_IC50>

> <r_max_inhibition_reading>

> <r_min_inhibition_reading>

> <r_hill_slope>

> <r_R2>

> <r_concentration_uM>

> <r_inhibition_list>

> <f_inhibition_at_20_uM>

> <f_inhibition_at_50_uM>

> <f_avg_IC50>

> <f_avg_pIC50>

> <f_curve_IC50>

> <f_max_inhibition_reading>

> <f_min_inhibition_reading>

> <f_hill_slope>

> <f_R2>

> <f_concentration_uM>

> <f_inhibition_list>

> <relative_solubility_at_20_uM>

> <relative_solubility_at_100_uM>

> <trypsin_IC50>

> <NMR_std_ratio>

> <structure_ID>

> <structure_LINK>

> <ORDERED>
FALSE

> <MAKER>

> <ORDER_DATE>

> <MADE>
FALSE

> <SHIPMENT_DATE>

> <ASSAYED>
FALSE

> <clash_score>
0

> <docking_score>
-10.152955055236816

$$$$
RAL-THA-6b94ceba-11
  -OEChem-08122015593D

 38 40  0     0  0  0  0  0  0999 V2000
    5.0000    1.4070   18.8080 C   0  0  0  0  0  0  0  0  0  0  0  0
   11.0490    1.0010   23.0460 C   0  0  0  0  0  0  0  0  0  0  0  0
   13.3680    0.4840   22.6240 C   0  0  0  0  0  0  0  0  0  0  0  0
   11.6520   -1.1420   22.1450 C   0  0  0  0  0  0  0  0  0  0  0  0
    5.5330    1.3060   17.5390 C   0  0  0  0  0  0  0  0  0  0  0  0
    7.2400   -0.0390   18.2610 C   0  0  0  0  0  0  0  0  0  0  0  0
   12.1018    3.8902   23.4904 C   0  0  0  0  0  0  0  0  0  0  0  0
   13.9714    4.2922   24.4250 C   0  0  0  0  0  0  0  0  0  0  0  0
   12.3850    1.3610   23.0530 C   0  0  0  0  0  0  0  0  0  0  0  0
    5.6260    0.7590   19.8690 C   0  0  0  0  0  0  0  0  0  0  0  0
   10.6720   -0.2500   22.5660 C   0  0  0  0  0  0  0  0  0  0  0  0
    6.7930    0.0210   19.5790 C   0  0  0  0  0  0  0  0  0  0  0  0
   12.9770   -0.7640   22.1810 C   0  0  0  0  0  0  0  0  0  0  0  0
   12.7645    2.6858   23.5197 C   0  0  0  0  0  0  0  0  0  0  0  0
    8.6020    0.1230   21.2070 C   0  0  0  0  0  0  0  0  0  0  0  0
    5.0980    0.9060   21.2740 C   0  0  0  0  0  0  0  0  0  0  0  0
    9.2100   -0.5900   22.3990 C   0  0  0  0  0  0  0  0  0  0  0  0
    6.6320    0.5940   17.2520 N   0  0  0  0  0  0  0  0  0  0  0  0
   12.8586    4.8862   24.0552 N   0  0  0  0  0  0  0  0  0  0  0  0
   13.9607    2.9592   24.1208 N   0  0  0  0  0  0  0  0  0  0  0  0
    7.5630   -0.5230   20.6330 N   0  0  0  0  0  0  0  0  0  0  0  0
    9.0150    1.2120   20.8220 O   0  0  0  0  0  0  0  0  0  0  0  0
   14.1940   -1.9100   21.6990 Cl  0  0  0  0  0  0  0  0  0  0  0  0
    4.0894    1.9955   18.9731 H   0  0  0  0  0  0  0  0  0  0  0  0
   10.2872    1.6875   23.4133 H   0  0  0  0  0  0  0  0  0  0  0  0
   14.4086    0.7688   22.6369 H   0  0  0  0  0  0  0  0  0  0  0  0
   11.3634   -2.1302   21.7918 H   0  0  0  0  0  0  0  0  0  0  0  0
    5.0712    1.8129   16.6995 H   0  0  0  0  0  0  0  0  0  0  0  0
    8.1159   -0.6122   17.9919 H   0  0  0  0  0  0  0  0  0  0  0  0
   11.1172    4.0948   23.0942 H   0  0  0  0  0  0  0  0  0  0  0  0
   14.8126    4.7634   24.9129 H   0  0  0  0  0  0  0  0  0  0  0  0
    4.4460    1.7843   21.3447 H   0  0  0  0  0  0  0  0  0  0  0  0
    4.5259    0.0205   21.5771 H   0  0  0  0  0  0  0  0  0  0  0  0
    5.9169    1.0193   21.9952 H   0  0  0  0  0  0  0  0  0  0  0  0
    9.0901   -1.6664   22.2639 H   0  0  0  0  0  0  0  0  0  0  0  0
    8.6579   -0.3097   23.2977 H   0  0  0  0  0  0  0  0  0  0  0  0
   14.7030    2.2993   24.3129 H   0  0  0  0  0  0  0  0  0  0  0  0
    7.3129   -1.4300   20.9567 H   0  0  0  0  0  0  0  0  0  0  0  0
  1  5  2  0  0  0  0
  1 10  1  0  0  0  0
  2  9  1  0  0  0  0
  2 11  2  0  0  0  0
  3  9  2  0  0  0  0
  3 13  1  0  0  0  0
  4 11  1  0  0  0  0
  4 13  2  0  0  0  0
  5 18  1  0  0  0  0
  6 12  1  0  0  0  0
  6 18  2  0  0  0  0
  7 14  2  0  0  0  0
  7 19  1  0  0  0  0
  8 19  2  0  0  0  0
  8 20  1  0  0  0  0
  9 14  1  0  0  0  0
 10 12  2  0  0  0  0
 10 16  1  0  0  0  0
 11 17  1  0  0  0  0
 12 21  1  0  0  0  0
 13 23  1  0  0  0  0
 14 20  1  0  0  0  0
 15 17  1  0  0  0  0
 15 21  1  0  0  0  0
 15 22  2  0  0  0  0
  1 24  1  0  0  0  0
  2 25  1  0  0  0  0
  3 26  1  0  0  0  0
  4 27  1  0  0  0  0
  5 28  1  0  0  0  0
  6 29  1  0  0  0  0
  7 30  1  0  0  0  0
  8 31  1  0  0  0  0
 16 32  1  0  0  0  0
 16 33  1  0  0  0  0
 16 34  1  0  0  0  0
 17 35  1  0  0  0  0
 17 36  1  0  0  0  0
 20 37  1  0  0  0  0
 21 38  1  0  0  0  0
M  END
> <CID (canonical)>
RAL-THA-6b94ceba-11

> <CID (old format)>

> <Postera Link>
https://covid.postera.ai/covid/submissions/6b94ceba-f352-4275-ad8d-e766e56e6fa4/11

> <InChIKey>
YFORZWZJTRCGKY-UHFFFAOYSA-N

> <creator>
Ralph Robinson, Thames Pharma Partners

> <rationale>
Follow up of beta lactam TRY-UNI-2eddb1ff-7: beta-lactam replacements, generally retaining the H-bond donor proximal to the phenyl ring. Relative synthetic ease taken into account.

> <Submission Notes>

> <fragments>

> <Structure ID>

> <Fragalysis Link>

> <Enamine - REAL Space>
False

> <Enamine - Extended REAL Space>
False

> <Enamine - SCR>
False

> <Enamine - BB>
False

> <Mcule>

> <Mcule Ultimate>

> <In Molport or Mcule>

> <In eMolecules>

> <MW>
326.09

> <cLogP>
3.61

> <TPSA>
70.67

> <Rotatable Bonds>
4

> <Fraction sp3>
0.12

> <HBA>
3

> <HBD>
2

> <Covalent Fragment>

> <covalent_warhead>
False

> <Acrylamide>
False

> <Acrylamide Adduct>
False

> <Chloroacetamide>
False

> <Chloroacetamide Adduct>
False

> <Vinylsulfonamide>
False

> <Vinylsulfonamide Adduct>
False

> <Nitrile>

> <Nitrile Adduct>

> <series>
3-aminopyridine-like

> <Order Date>

> <Maker>

> <Shipment Date>

> <CDD_name>
CVD-0011610

> <CDD_mol_ID>
80157845.0

> <r_inhibition_at_20_uM>

> <r_inhibition_at_50_uM>

> <r_avg_IC50>

> <r_curve_IC50>

> <r_max_inhibition_reading>

> <r_min_inhibition_reading>

> <r_hill_slope>

> <r_R2>

> <r_concentration_uM>

> <r_inhibition_list>

> <f_inhibition_at_20_uM>

> <f_inhibition_at_50_uM>

> <f_avg_IC50>

> <f_avg_pIC50>

> <f_curve_IC50>

> <f_max_inhibition_reading>

> <f_min_inhibition_reading>

> <f_hill_slope>

> <f_R2>

> <f_concentration_uM>

> <f_inhibition_list>

> <relative_solubility_at_20_uM>

> <relative_solubility_at_100_uM>

> <trypsin_IC50>

> <NMR_std_ratio>

> <structure_ID>

> <structure_LINK>

> <ORDERED>
FALSE

> <MAKER>

> <ORDER_DATE>

> <MADE>
FALSE

> <SHIPMENT_DATE>

> <ASSAYED>
FALSE

> <clash_score>
0

> <docking_score>
-9.854048728942871

$$$$
RAL-THA-6b94ceba-15
  -OEChem-08122015593D

 39 40  0     0  0  0  0  0  0999 V2000
    5.0000    1.4070   18.8080 C   0  0  0  0  0  0  0  0  0  0  0  0
   11.0490    1.0010   23.0460 C   0  0  0  0  0  0  0  0  0  0  0  0
   11.6520   -1.1420   22.1450 C   0  0  0  0  0  0  0  0  0  0  0  0
   13.3680    0.4840   22.6240 C   0  0  0  0  0  0  0  0  0  0  0  0
    5.5330    1.3060   17.5390 C   0  0  0  0  0  0  0  0  0  0  0  0
    7.2400   -0.0390   18.2610 C   0  0  0  0  0  0  0  0  0  0  0  0
    5.6260    0.7590   19.8690 C   0  0  0  0  0  0  0  0  0  0  0  0
   10.6720   -0.2500   22.5660 C   0  0  0  0  0  0  0  0  0  0  0  0
   12.3850    1.3610   23.0530 C   0  0  0  0  0  0  0  0  0  0  0  0
    6.7930    0.0210   19.5790 C   0  0  0  0  0  0  0  0  0  0  0  0
   12.9770   -0.7640   22.1810 C   0  0  0  0  0  0  0  0  0  0  0  0
    8.6020    0.1230   21.2070 C   0  0  0  0  0  0  0  0  0  0  0  0
    5.0980    0.9060   21.2740 C   0  0  0  0  0  0  0  0  0  0  0  0
    9.2100   -0.5900   22.3990 C   0  0  0  0  0  0  0  0  0  0  0  0
   12.7773    2.7295   23.5372 C   0  0  0  0  0  0  0  0  0  0  0  0
    6.6320    0.5940   17.2520 N   0  0  0  0  0  0  0  0  0  0  0  0
   11.7540    3.6450   21.2643 N   0  0  0  0  0  0  0  0  0  0  0  0
    7.5630   -0.5230   20.6330 N   0  0  0  0  0  0  0  0  0  0  0  0
    9.0150    1.2120   20.8220 O   0  0  0  0  0  0  0  0  0  0  0  0
   13.4572    5.0608   22.5726 O   0  0  0  0  0  0  0  0  0  0  0  0
   14.2340    2.9720   21.3815 O   0  0  0  0  0  0  0  0  0  0  0  0
   13.2217    3.6966   22.1308 S   0  0  0  0  0  0  0  0  0  0  0  0
   14.1940   -1.9100   21.6990 Cl  0  0  0  0  0  0  0  0  0  0  0  0
    4.0894    1.9955   18.9731 H   0  0  0  0  0  0  0  0  0  0  0  0
   10.2920    1.6914   23.4138 H   0  0  0  0  0  0  0  0  0  0  0  0
   11.3638   -2.1302   21.7909 H   0  0  0  0  0  0  0  0  0  0  0  0
   14.4063    0.7746   22.6384 H   0  0  0  0  0  0  0  0  0  0  0  0
    5.0712    1.8129   16.6995 H   0  0  0  0  0  0  0  0  0  0  0  0
    8.1159   -0.6122   17.9919 H   0  0  0  0  0  0  0  0  0  0  0  0
    4.7841   -0.0685   21.6656 H   0  0  0  0  0  0  0  0  0  0  0  0
    5.8614    1.3222   21.9428 H   0  0  0  0  0  0  0  0  0  0  0  0
    4.2397    1.5885   21.3053 H   0  0  0  0  0  0  0  0  0  0  0  0
    9.0902   -1.6664   22.2639 H   0  0  0  0  0  0  0  0  0  0  0  0
    8.6579   -0.3097   23.2977 H   0  0  0  0  0  0  0  0  0  0  0  0
   13.6400    2.7001   24.2124 H   0  0  0  0  0  0  0  0  0  0  0  0
   11.9550    3.2402   24.0512 H   0  0  0  0  0  0  0  0  0  0  0  0
   11.4876    2.7538   20.8280 H   0  0  0  0  0  0  0  0  0  0  0  0
   10.9587    4.1766   21.6392 H   0  0  0  0  0  0  0  0  0  0  0  0
    7.3129   -1.4300   20.9567 H   0  0  0  0  0  0  0  0  0  0  0  0
  1  5  2  0  0  0  0
  1  7  1  0  0  0  0
  2  8  2  0  0  0  0
  2  9  1  0  0  0  0
  3  8  1  0  0  0  0
  3 11  2  0  0  0  0
  4  9  2  0  0  0  0
  4 11  1  0  0  0  0
  5 16  1  0  0  0  0
  6 10  1  0  0  0  0
  6 16  2  0  0  0  0
  7 10  2  0  0  0  0
  7 13  1  0  0  0  0
  8 14  1  0  0  0  0
  9 15  1  0  0  0  0
 10 18  1  0  0  0  0
 11 23  1  0  0  0  0
 12 14  1  0  0  0  0
 12 18  1  0  0  0  0
 12 19  2  0  0  0  0
 15 22  1  0  0  0  0
 17 22  1  0  0  0  0
 20 22  2  0  0  0  0
 21 22  2  0  0  0  0
  1 24  1  0  0  0  0
  2 25  1  0  0  0  0
  3 26  1  0  0  0  0
  4 27  1  0  0  0  0
  5 28  1  0  0  0  0
  6 29  1  0  0  0  0
 13 30  1  0  0  0  0
 13 31  1  0  0  0  0
 13 32  1  0  0  0  0
 14 33  1  0  0  0  0
 14 34  1  0  0  0  0
 15 35  1  0  0  0  0
 15 36  1  0  0  0  0
 17 37  1  0  0  0  0
 17 38  1  0  0  0  0
 18 39  1  0  0  0  0
M  END
> <CID (canonical)>
RAL-THA-6b94ceba-15

> <CID (old format)>

> <Postera Link>
https://covid.postera.ai/covid/submissions/6b94ceba-f352-4275-ad8d-e766e56e6fa4/15

> <InChIKey>
JLGPYKILCDOGRL-UHFFFAOYSA-N

> <creator>
Ralph Robinson, Thames Pharma Partners

> <rationale>
Follow up of beta lactam TRY-UNI-2eddb1ff-7: beta-lactam replacements, generally retaining the H-bond donor proximal to the phenyl ring. Relative synthetic ease taken into account.

> <Submission Notes>

> <fragments>

> <Structure ID>

> <Fragalysis Link>

> <Enamine - REAL Space>
False

> <Enamine - Extended REAL Space>
False

> <Enamine - SCR>
False

> <Enamine - BB>
False

> <Mcule>

> <Mcule Ultimate>

> <In Molport or Mcule>

> <In eMolecules>

> <MW>
353.06

> <cLogP>
2.01

> <TPSA>
102.15

> <Rotatable Bonds>
5

> <Fraction sp3>
0.2

> <HBA>
4

> <HBD>
2

> <Covalent Fragment>

> <covalent_warhead>
False

> <Acrylamide>
False

> <Acrylamide Adduct>
False

> <Chloroacetamide>
False

> <Chloroacetamide Adduct>
False

> <Vinylsulfonamide>
False

> <Vinylsulfonamide Adduct>
False

> <Nitrile>

> <Nitrile Adduct>

> <series>
3-aminopyridine-like

> <Order Date>

> <Maker>

> <Shipment Date>

> <CDD_name>
CVD-0011614

> <CDD_mol_ID>
80157849.0

> <r_inhibition_at_20_uM>

> <r_inhibition_at_50_uM>

> <r_avg_IC50>

> <r_curve_IC50>

> <r_max_inhibition_reading>

> <r_min_inhibition_reading>

> <r_hill_slope>

> <r_R2>

> <r_concentration_uM>

> <r_inhibition_list>

> <f_inhibition_at_20_uM>

> <f_inhibition_at_50_uM>

> <f_avg_IC50>

> <f_avg_pIC50>

> <f_curve_IC50>

> <f_max_inhibition_reading>

> <f_min_inhibition_reading>

> <f_hill_slope>

> <f_R2>

> <f_concentration_uM>

> <f_inhibition_list>

> <relative_solubility_at_20_uM>

> <relative_solubility_at_100_uM>

> <trypsin_IC50>

> <NMR_std_ratio>

> <structure_ID>

> <structure_LINK>

> <ORDERED>
FALSE

> <MAKER>

> <ORDER_DATE>

> <MADE>
FALSE

> <SHIPMENT_DATE>

> <ASSAYED>
FALSE

> <clash_score>
0

> <docking_score>
-10.183237075805664

$$$$
RAL-THA-6b94ceba-13
  -OEChem-08122015593D

 36 37  0     0  0  0  0  0  0999 V2000
    5.0000    1.4070   18.8080 C   0  0  0  0  0  0  0  0  0  0  0  0
   11.0490    1.0010   23.0460 C   0  0  0  0  0  0  0  0  0  0  0  0
   11.6520   -1.1420   22.1450 C   0  0  0  0  0  0  0  0  0  0  0  0
   13.3680    0.4840   22.6240 C   0  0  0  0  0  0  0  0  0  0  0  0
    5.5330    1.3060   17.5390 C   0  0  0  0  0  0  0  0  0  0  0  0
    7.2400   -0.0390   18.2610 C   0  0  0  0  0  0  0  0  0  0  0  0
    5.6260    0.7590   19.8690 C   0  0  0  0  0  0  0  0  0  0  0  0
   10.6720   -0.2500   22.5660 C   0  0  0  0  0  0  0  0  0  0  0  0
    6.7930    0.0210   19.5790 C   0  0  0  0  0  0  0  0  0  0  0  0
   12.3850    1.3610   23.0530 C   0  0  0  0  0  0  0  0  0  0  0  0
   12.9770   -0.7640   22.1810 C   0  0  0  0  0  0  0  0  0  0  0  0
    8.6020    0.1230   21.2070 C   0  0  0  0  0  0  0  0  0  0  0  0
    5.0980    0.9060   21.2740 C   0  0  0  0  0  0  0  0  0  0  0  0
    9.2100   -0.5900   22.3990 C   0  0  0  0  0  0  0  0  0  0  0  0
    6.6320    0.5940   17.2520 N   0  0  0  0  0  0  0  0  0  0  0  0
   11.3173    3.6159   24.0177 N   0  0  0  0  0  0  0  0  0  0  0  0
    7.5630   -0.5230   20.6330 N   0  0  0  0  0  0  0  0  0  0  0  0
    9.0150    1.2120   20.8220 O   0  0  0  0  0  0  0  0  0  0  0  0
   13.6244    2.8110   24.8392 O   0  0  0  0  0  0  0  0  0  0  0  0
   13.3941    3.7080   22.4961 O   0  0  0  0  0  0  0  0  0  0  0  0
   12.8442    2.9610   23.6187 S   0  0  0  0  0  0  0  0  0  0  0  0
   14.1940   -1.9100   21.6990 Cl  0  0  0  0  0  0  0  0  0  0  0  0
    4.0894    1.9955   18.9731 H   0  0  0  0  0  0  0  0  0  0  0  0
   10.2906    1.6899   23.4139 H   0  0  0  0  0  0  0  0  0  0  0  0
   11.3635   -2.1301   21.7920 H   0  0  0  0  0  0  0  0  0  0  0  0
   14.4065    0.7735   22.6368 H   0  0  0  0  0  0  0  0  0  0  0  0
    5.0712    1.8129   16.6995 H   0  0  0  0  0  0  0  0  0  0  0  0
    8.1159   -0.6122   17.9919 H   0  0  0  0  0  0  0  0  0  0  0  0
    4.7849   -0.0686   21.6660 H   0  0  0  0  0  0  0  0  0  0  0  0
    5.8612    1.3230   21.9426 H   0  0  0  0  0  0  0  0  0  0  0  0
    4.2391    1.5878   21.3052 H   0  0  0  0  0  0  0  0  0  0  0  0
    9.0901   -1.6664   22.2639 H   0  0  0  0  0  0  0  0  0  0  0  0
    8.6579   -0.3097   23.2977 H   0  0  0  0  0  0  0  0  0  0  0  0
   11.0908    3.7396   25.0121 H   0  0  0  0  0  0  0  0  0  0  0  0
   10.9342    4.3504   23.4102 H   0  0  0  0  0  0  0  0  0  0  0  0
    7.3129   -1.4300   20.9567 H   0  0  0  0  0  0  0  0  0  0  0  0
  1  5  2  0  0  0  0
  1  7  1  0  0  0  0
  2  8  2  0  0  0  0
  2 10  1  0  0  0  0
  3  8  1  0  0  0  0
  3 11  2  0  0  0  0
  4 10  2  0  0  0  0
  4 11  1  0  0  0  0
  5 15  1  0  0  0  0
  6  9  1  0  0  0  0
  6 15  2  0  0  0  0
  7  9  2  0  0  0  0
  7 13  1  0  0  0  0
  8 14  1  0  0  0  0
  9 17  1  0  0  0  0
 10 21  1  0  0  0  0
 11 22  1  0  0  0  0
 12 14  1  0  0  0  0
 12 17  1  0  0  0  0
 12 18  2  0  0  0  0
 16 21  1  0  0  0  0
 19 21  2  0  0  0  0
 20 21  2  0  0  0  0
  1 23  1  0  0  0  0
  2 24  1  0  0  0  0
  3 25  1  0  0  0  0
  4 26  1  0  0  0  0
  5 27  1  0  0  0  0
  6 28  1  0  0  0  0
 13 29  1  0  0  0  0
 13 30  1  0  0  0  0
 13 31  1  0  0  0  0
 14 32  1  0  0  0  0
 14 33  1  0  0  0  0
 16 34  1  0  0  0  0
 16 35  1  0  0  0  0
 17 36  1  0  0  0  0
M  END
> <CID (canonical)>
RAL-THA-6b94ceba-13

> <CID (old format)>

> <Postera Link>
https://covid.postera.ai/covid/submissions/6b94ceba-f352-4275-ad8d-e766e56e6fa4/13

> <InChIKey>
SJZQDLPMQMTZPX-UHFFFAOYSA-N

> <creator>
Ralph Robinson, Thames Pharma Partners

> <rationale>
Follow up of beta lactam TRY-UNI-2eddb1ff-7: beta-lactam replacements, generally retaining the H-bond donor proximal to the phenyl ring. Relative synthetic ease taken into account.

> <Submission Notes>

> <fragments>

> <Structure ID>

> <Fragalysis Link>

> <Enamine - REAL Space>
False

> <Enamine - Extended REAL Space>
False

> <Enamine - SCR>
False

> <Enamine - BB>
False

> <Mcule>

> <Mcule Ultimate>

> <In Molport or Mcule>

> <In eMolecules>

> <MW>
339.04

> <cLogP>
1.87

> <TPSA>
102.15

> <Rotatable Bonds>
4

> <Fraction sp3>
0.14

> <HBA>
4

> <HBD>
2

> <Covalent Fragment>

> <covalent_warhead>
False

> <Acrylamide>
False

> <Acrylamide Adduct>
False

> <Chloroacetamide>
False

> <Chloroacetamide Adduct>
False

> <Vinylsulfonamide>
False

> <Vinylsulfonamide Adduct>
False

> <Nitrile>

> <Nitrile Adduct>

> <series>
3-aminopyridine-like

> <Order Date>

> <Maker>

> <Shipment Date>

> <CDD_name>
CVD-0011612

> <CDD_mol_ID>
80157847.0

> <r_inhibition_at_20_uM>

> <r_inhibition_at_50_uM>

> <r_avg_IC50>

> <r_curve_IC50>

> <r_max_inhibition_reading>

> <r_min_inhibition_reading>

> <r_hill_slope>

> <r_R2>

> <r_concentration_uM>

> <r_inhibition_list>

> <f_inhibition_at_20_uM>

> <f_inhibition_at_50_uM>

> <f_avg_IC50>

> <f_avg_pIC50>

> <f_curve_IC50>

> <f_max_inhibition_reading>

> <f_min_inhibition_reading>

> <f_hill_slope>

> <f_R2>

> <f_concentration_uM>

> <f_inhibition_list>

> <relative_solubility_at_20_uM>

> <relative_solubility_at_100_uM>

> <trypsin_IC50>

> <NMR_std_ratio>

> <structure_ID>

> <structure_LINK>

> <ORDERED>
FALSE

> <MAKER>

> <ORDER_DATE>

> <MADE>
FALSE

> <SHIPMENT_DATE>

> <ASSAYED>
FALSE

> <clash_score>
0.7158818188767019

> <docking_score>
-9.638198852539062

$$$$
RAL-THA-6b94ceba-12
  -OEChem-08122015593D

 42 43  0     0  0  0  0  0  0999 V2000
    5.0000    1.4070   18.8080 C   0  0  0  0  0  0  0  0  0  0  0  0
   11.0490    1.0010   23.0460 C   0  0  0  0  0  0  0  0  0  0  0  0
   11.6520   -1.1420   22.1450 C   0  0  0  0  0  0  0  0  0  0  0  0
   13.3680    0.4840   22.6240 C   0  0  0  0  0  0  0  0  0  0  0  0
    5.5330    1.3060   17.5390 C   0  0  0  0  0  0  0  0  0  0  0  0
    7.2400   -0.0390   18.2610 C   0  0  0  0  0  0  0  0  0  0  0  0
    5.6260    0.7590   19.8690 C   0  0  0  0  0  0  0  0  0  0  0  0
   10.6720   -0.2500   22.5660 C   0  0  0  0  0  0  0  0  0  0  0  0
   12.3850    1.3610   23.0530 C   0  0  0  0  0  0  0  0  0  0  0  0
    6.7930    0.0210   19.5790 C   0  0  0  0  0  0  0  0  0  0  0  0
   12.9770   -0.7640   22.1810 C   0  0  0  0  0  0  0  0  0  0  0  0
    8.6020    0.1230   21.2070 C   0  0  0  0  0  0  0  0  0  0  0  0
    5.0980    0.9060   21.2740 C   0  0  0  0  0  0  0  0  0  0  0  0
   12.9075    5.9315   22.2876 C   0  0  0  0  0  0  0  0  0  0  0  0
    9.2100   -0.5900   22.3990 C   0  0  0  0  0  0  0  0  0  0  0  0
   12.7799    2.7385   23.5403 C   0  0  0  0  0  0  0  0  0  0  0  0
    6.6320    0.5940   17.2520 N   0  0  0  0  0  0  0  0  0  0  0  0
    7.5630   -0.5230   20.6330 N   0  0  0  0  0  0  0  0  0  0  0  0
   11.7279    3.7377   23.2803 N   0  0  0  0  0  0  0  0  0  0  0  0
    9.0150    1.2120   20.8220 O   0  0  0  0  0  0  0  0  0  0  0  0
   12.8876    5.4304   24.8564 O   0  0  0  0  0  0  0  0  0  0  0  0
   10.7291    6.0616   23.7168 O   0  0  0  0  0  0  0  0  0  0  0  0
   12.0022    5.3669   23.7102 S   0  0  0  0  0  0  0  0  0  0  0  0
   14.1940   -1.9100   21.6990 Cl  0  0  0  0  0  0  0  0  0  0  0  0
    4.0894    1.9955   18.9731 H   0  0  0  0  0  0  0  0  0  0  0  0
   10.2920    1.6914   23.4138 H   0  0  0  0  0  0  0  0  0  0  0  0
   11.3638   -2.1302   21.7909 H   0  0  0  0  0  0  0  0  0  0  0  0
   14.4063    0.7746   22.6384 H   0  0  0  0  0  0  0  0  0  0  0  0
    5.0712    1.8129   16.6995 H   0  0  0  0  0  0  0  0  0  0  0  0
    8.1159   -0.6122   17.9919 H   0  0  0  0  0  0  0  0  0  0  0  0
    5.3120    1.9105   21.6570 H   0  0  0  0  0  0  0  0  0  0  0  0
    4.0140    0.7419   21.3092 H   0  0  0  0  0  0  0  0  0  0  0  0
    5.5543    0.1702   21.9478 H   0  0  0  0  0  0  0  0  0  0  0  0
   13.1538    6.9846   22.4318 H   0  0  0  0  0  0  0  0  0  0  0  0
   13.8167    5.3348   22.1990 H   0  0  0  0  0  0  0  0  0  0  0  0
   12.2781    5.8031   21.4058 H   0  0  0  0  0  0  0  0  0  0  0  0
    9.0902   -1.6664   22.2639 H   0  0  0  0  0  0  0  0  0  0  0  0
    8.6579   -0.3097   23.2977 H   0  0  0  0  0  0  0  0  0  0  0  0
   12.9737    2.7257   24.6185 H   0  0  0  0  0  0  0  0  0  0  0  0
   13.6964    3.0818   23.0492 H   0  0  0  0  0  0  0  0  0  0  0  0
    7.3129   -1.4300   20.9567 H   0  0  0  0  0  0  0  0  0  0  0  0
   11.1955    3.5680   22.4171 H   0  0  0  0  0  0  0  0  0  0  0  0
  1  5  2  0  0  0  0
  1  7  1  0  0  0  0
  2  8  2  0  0  0  0
  2  9  1  0  0  0  0
  3  8  1  0  0  0  0
  3 11  2  0  0  0  0
  4  9  2  0  0  0  0
  4 11  1  0  0  0  0
  5 17  1  0  0  0  0
  6 10  1  0  0  0  0
  6 17  2  0  0  0  0
  7 10  2  0  0  0  0
  7 13  1  0  0  0  0
  8 15  1  0  0  0  0
  9 16  1  0  0  0  0
 10 18  1  0  0  0  0
 11 24  1  0  0  0  0
 12 15  1  0  0  0  0
 12 18  1  0  0  0  0
 12 20  2  0  0  0  0
 14 23  1  0  0  0  0
 16 19  1  0  0  0  0
 19 23  1  0  0  0  0
 21 23  2  0  0  0  0
 22 23  2  0  0  0  0
  1 25  1  0  0  0  0
  2 26  1  0  0  0  0
  3 27  1  0  0  0  0
  4 28  1  0  0  0  0
  5 29  1  0  0  0  0
  6 30  1  0  0  0  0
 13 31  1  0  0  0  0
 13 32  1  0  0  0  0
 13 33  1  0  0  0  0
 14 34  1  0  0  0  0
 14 35  1  0  0  0  0
 14 36  1  0  0  0  0
 15 37  1  0  0  0  0
 15 38  1  0  0  0  0
 16 39  1  0  0  0  0
 16 40  1  0  0  0  0
 18 41  1  0  0  0  0
 19 42  1  0  0  0  0
M  END
> <CID (canonical)>
RAL-THA-6b94ceba-12

> <CID (old format)>

> <Postera Link>
https://covid.postera.ai/covid/submissions/6b94ceba-f352-4275-ad8d-e766e56e6fa4/12

> <InChIKey>
QSEQGWMIIJUKJZ-UHFFFAOYSA-N

> <creator>
Ralph Robinson, Thames Pharma Partners

> <rationale>
Follow up of beta lactam TRY-UNI-2eddb1ff-7: beta-lactam replacements, generally retaining the H-bond donor proximal to the phenyl ring. Relative synthetic ease taken into account.

> <Submission Notes>

> <fragments>

> <Structure ID>

> <Fragalysis Link>

> <Enamine - REAL Space>
False

> <Enamine - Extended REAL Space>
False

> <Enamine - SCR>
False

> <Enamine - BB>
False

> <Mcule>

> <Mcule Ultimate>

> <In Molport or Mcule>

> <In eMolecules>

> <MW>
367.08

> <cLogP>
2.27

> <TPSA>
88.16

> <Rotatable Bonds>
6

> <Fraction sp3>
0.25

> <HBA>
4

> <HBD>
2

> <Covalent Fragment>

> <covalent_warhead>
False

> <Acrylamide>
False

> <Acrylamide Adduct>
False

> <Chloroacetamide>
False

> <Chloroacetamide Adduct>
False

> <Vinylsulfonamide>
False

> <Vinylsulfonamide Adduct>
False

> <Nitrile>

> <Nitrile Adduct>

> <series>
3-aminopyridine-like

> <Order Date>

> <Maker>

> <Shipment Date>

> <CDD_name>
CVD-0011611

> <CDD_mol_ID>
80157846.0

> <r_inhibition_at_20_uM>

> <r_inhibition_at_50_uM>

> <r_avg_IC50>

> <r_curve_IC50>

> <r_max_inhibition_reading>

> <r_min_inhibition_reading>

> <r_hill_slope>

> <r_R2>

> <r_concentration_uM>

> <r_inhibition_list>

> <f_inhibition_at_20_uM>

> <f_inhibition_at_50_uM>

> <f_avg_IC50>

> <f_avg_pIC50>

> <f_curve_IC50>

> <f_max_inhibition_reading>

> <f_min_inhibition_reading>

> <f_hill_slope>

> <f_R2>

> <f_concentration_uM>

> <f_inhibition_list>

> <relative_solubility_at_20_uM>

> <relative_solubility_at_100_uM>

> <trypsin_IC50>

> <NMR_std_ratio>

> <structure_ID>

> <structure_LINK>

> <ORDERED>
FALSE

> <MAKER>

> <ORDER_DATE>

> <MADE>
FALSE

> <SHIPMENT_DATE>

> <ASSAYED>
FALSE

> <clash_score>
0

> <docking_score>
-11.276102066040039

$$$$
RAL-THA-6b94ceba-14
  -OEChem-08122015593D

 39 40  0     0  0  0  0  0  0999 V2000
    5.0000    1.4070   18.8080 C   0  0  0  0  0  0  0  0  0  0  0  0
   11.0490    1.0010   23.0460 C   0  0  0  0  0  0  0  0  0  0  0  0
   11.6520   -1.1420   22.1450 C   0  0  0  0  0  0  0  0  0  0  0  0
   13.3680    0.4840   22.6240 C   0  0  0  0  0  0  0  0  0  0  0  0
    5.5330    1.3060   17.5390 C   0  0  0  0  0  0  0  0  0  0  0  0
    7.2400   -0.0390   18.2610 C   0  0  0  0  0  0  0  0  0  0  0  0
    5.6260    0.7590   19.8690 C   0  0  0  0  0  0  0  0  0  0  0  0
   10.6720   -0.2500   22.5660 C   0  0  0  0  0  0  0  0  0  0  0  0
    6.7930    0.0210   19.5790 C   0  0  0  0  0  0  0  0  0  0  0  0
   12.3850    1.3610   23.0530 C   0  0  0  0  0  0  0  0  0  0  0  0
   12.9770   -0.7640   22.1810 C   0  0  0  0  0  0  0  0  0  0  0  0
    8.6020    0.1230   21.2070 C   0  0  0  0  0  0  0  0  0  0  0  0
    5.0980    0.9060   21.2740 C   0  0  0  0  0  0  0  0  0  0  0  0
   12.3918    5.3033   22.2427 C   0  0  0  0  0  0  0  0  0  0  0  0
    9.2100   -0.5900   22.3990 C   0  0  0  0  0  0  0  0  0  0  0  0
    6.6320    0.5940   17.2520 N   0  0  0  0  0  0  0  0  0  0  0  0
    7.5630   -0.5230   20.6330 N   0  0  0  0  0  0  0  0  0  0  0  0
   12.7890    3.8893   22.1847 N   0  0  0  0  0  0  0  0  0  0  0  0
    9.0150    1.2120   20.8220 O   0  0  0  0  0  0  0  0  0  0  0  0
   11.8167    3.4495   24.5294 O   0  0  0  0  0  0  0  0  0  0  0  0
   14.2262    2.8913   24.0746 O   0  0  0  0  0  0  0  0  0  0  0  0
   12.8442    2.9610   23.6187 S   0  0  0  0  0  0  0  0  0  0  0  0
   14.1940   -1.9100   21.6990 Cl  0  0  0  0  0  0  0  0  0  0  0  0
    4.0894    1.9955   18.9731 H   0  0  0  0  0  0  0  0  0  0  0  0
   10.2906    1.6899   23.4139 H   0  0  0  0  0  0  0  0  0  0  0  0
   11.3635   -2.1301   21.7920 H   0  0  0  0  0  0  0  0  0  0  0  0
   14.4065    0.7735   22.6368 H   0  0  0  0  0  0  0  0  0  0  0  0
    5.0712    1.8129   16.6995 H   0  0  0  0  0  0  0  0  0  0  0  0
    8.1159   -0.6122   17.9919 H   0  0  0  0  0  0  0  0  0  0  0  0
    4.7849   -0.0686   21.6660 H   0  0  0  0  0  0  0  0  0  0  0  0
    5.8612    1.3230   21.9426 H   0  0  0  0  0  0  0  0  0  0  0  0
    4.2391    1.5878   21.3052 H   0  0  0  0  0  0  0  0  0  0  0  0
   12.6190    5.7079   23.2401 H   0  0  0  0  0  0  0  0  0  0  0  0
   12.9468    5.8714   21.4816 H   0  0  0  0  0  0  0  0  0  0  0  0
   11.3123    5.3890   22.0496 H   0  0  0  0  0  0  0  0  0  0  0  0
    9.0901   -1.6664   22.2639 H   0  0  0  0  0  0  0  0  0  0  0  0
    8.6579   -0.3097   23.2977 H   0  0  0  0  0  0  0  0  0  0  0  0
    7.3129   -1.4300   20.9567 H   0  0  0  0  0  0  0  0  0  0  0  0
   12.6202    3.4101   21.2918 H   0  0  0  0  0  0  0  0  0  0  0  0
  1  5  2  0  0  0  0
  1  7  1  0  0  0  0
  2  8  1  0  0  0  0
  2 10  2  0  0  0  0
  3  8  2  0  0  0  0
  3 11  1  0  0  0  0
  4 10  1  0  0  0  0
  4 11  2  0  0  0  0
  5 16  1  0  0  0  0
  6  9  1  0  0  0  0
  6 16  2  0  0  0  0
  7  9  2  0  0  0  0
  7 13  1  0  0  0  0
  8 15  1  0  0  0  0
  9 17  1  0  0  0  0
 10 22  1  0  0  0  0
 11 23  1  0  0  0  0
 12 15  1  0  0  0  0
 12 17  1  0  0  0  0
 12 19  2  0  0  0  0
 14 18  1  0  0  0  0
 18 22  1  0  0  0  0
 20 22  2  0  0  0  0
 21 22  2  0  0  0  0
  1 24  1  0  0  0  0
  2 25  1  0  0  0  0
  3 26  1  0  0  0  0
  4 27  1  0  0  0  0
  5 28  1  0  0  0  0
  6 29  1  0  0  0  0
 13 30  1  0  0  0  0
 13 31  1  0  0  0  0
 13 32  1  0  0  0  0
 14 33  1  0  0  0  0
 14 34  1  0  0  0  0
 14 35  1  0  0  0  0
 15 36  1  0  0  0  0
 15 37  1  0  0  0  0
 17 38  1  0  0  0  0
 18 39  1  0  0  0  0
M  END
> <CID (canonical)>
RAL-THA-6b94ceba-14

> <CID (old format)>

> <Postera Link>
https://covid.postera.ai/covid/submissions/6b94ceba-f352-4275-ad8d-e766e56e6fa4/14

> <InChIKey>
BMPFUELEOGTRTO-UHFFFAOYSA-N

> <creator>
Ralph Robinson, Thames Pharma Partners

> <rationale>
Follow up of beta lactam TRY-UNI-2eddb1ff-7: beta-lactam replacements, generally retaining the H-bond donor proximal to the phenyl ring. Relative synthetic ease taken into account.

> <Submission Notes>

> <fragments>

> <Structure ID>

> <Fragalysis Link>

> <Enamine - REAL Space>
False

> <Enamine - Extended REAL Space>
False

> <Enamine - SCR>
False

> <Enamine - BB>
False

> <Mcule>

> <Mcule Ultimate>

> <In Molport or Mcule>

> <In eMolecules>

> <MW>
353.06

> <cLogP>
2.13

> <TPSA>
88.16

> <Rotatable Bonds>
5

> <Fraction sp3>
0.2

> <HBA>
4

> <HBD>
2

> <Covalent Fragment>

> <covalent_warhead>
False

> <Acrylamide>
False

> <Acrylamide Adduct>
False

> <Chloroacetamide>
False

> <Chloroacetamide Adduct>
False

> <Vinylsulfonamide>
False

> <Vinylsulfonamide Adduct>
False

> <Nitrile>

> <Nitrile Adduct>

> <series>
3-aminopyridine-like

> <Order Date>

> <Maker>

> <Shipment Date>

> <CDD_name>
CVD-0011613

> <CDD_mol_ID>
80157848.0

> <r_inhibition_at_20_uM>

> <r_inhibition_at_50_uM>

> <r_avg_IC50>

> <r_curve_IC50>

> <r_max_inhibition_reading>

> <r_min_inhibition_reading>

> <r_hill_slope>

> <r_R2>

> <r_concentration_uM>

> <r_inhibition_list>

> <f_inhibition_at_20_uM>

> <f_inhibition_at_50_uM>

> <f_avg_IC50>

> <f_avg_pIC50>

> <f_curve_IC50>

> <f_max_inhibition_reading>

> <f_min_inhibition_reading>

> <f_hill_slope>

> <f_R2>

> <f_concentration_uM>

> <f_inhibition_list>

> <relative_solubility_at_20_uM>

> <relative_solubility_at_100_uM>

> <trypsin_IC50>

> <NMR_std_ratio>

> <structure_ID>

> <structure_LINK>

> <ORDERED>
FALSE

> <MAKER>

> <ORDER_DATE>

> <MADE>
FALSE

> <SHIPMENT_DATE>

> <ASSAYED>
FALSE

> <clash_score>
0.644414787104187

> <docking_score>
-9.106683731079102

$$$$
RAL-THA-6b94ceba-16
  -OEChem-08122015593D

 42 43  0     0  0  0  0  0  0999 V2000
    5.0000    1.4070   18.8080 C   0  0  0  0  0  0  0  0  0  0  0  0
   11.0490    1.0010   23.0460 C   0  0  0  0  0  0  0  0  0  0  0  0
   11.6520   -1.1420   22.1450 C   0  0  0  0  0  0  0  0  0  0  0  0
   13.3680    0.4840   22.6240 C   0  0  0  0  0  0  0  0  0  0  0  0
    5.5330    1.3060   17.5390 C   0  0  0  0  0  0  0  0  0  0  0  0
    7.2400   -0.0390   18.2610 C   0  0  0  0  0  0  0  0  0  0  0  0
    5.6260    0.7590   19.8690 C   0  0  0  0  0  0  0  0  0  0  0  0
   10.6720   -0.2500   22.5660 C   0  0  0  0  0  0  0  0  0  0  0  0
   12.3850    1.3610   23.0530 C   0  0  0  0  0  0  0  0  0  0  0  0
    6.7930    0.0210   19.5790 C   0  0  0  0  0  0  0  0  0  0  0  0
   12.9770   -0.7640   22.1810 C   0  0  0  0  0  0  0  0  0  0  0  0
    8.6020    0.1230   21.2070 C   0  0  0  0  0  0  0  0  0  0  0  0
    5.0980    0.9060   21.2740 C   0  0  0  0  0  0  0  0  0  0  0  0
   11.7345    5.9149   22.7774 C   0  0  0  0  0  0  0  0  0  0  0  0
    9.2100   -0.5900   22.3990 C   0  0  0  0  0  0  0  0  0  0  0  0
   12.7789    2.7351   23.5391 C   0  0  0  0  0  0  0  0  0  0  0  0
    6.6320    0.5940   17.2520 N   0  0  0  0  0  0  0  0  0  0  0  0
    7.5630   -0.5230   20.6330 N   0  0  0  0  0  0  0  0  0  0  0  0
   13.0655    5.2821   22.7518 N   0  0  0  0  0  0  0  0  0  0  0  0
    9.0150    1.2120   20.8220 O   0  0  0  0  0  0  0  0  0  0  0  0
   14.6182    3.4369   21.8144 O   0  0  0  0  0  0  0  0  0  0  0  0
   12.1967    3.5053   21.1157 O   0  0  0  0  0  0  0  0  0  0  0  0
   13.2261    3.7052   22.1176 S   0  0  0  0  0  0  0  0  0  0  0  0
   14.1940   -1.9100   21.6990 Cl  0  0  0  0  0  0  0  0  0  0  0  0
    4.0894    1.9955   18.9731 H   0  0  0  0  0  0  0  0  0  0  0  0
   10.2920    1.6914   23.4138 H   0  0  0  0  0  0  0  0  0  0  0  0
   11.3638   -2.1302   21.7909 H   0  0  0  0  0  0  0  0  0  0  0  0
   14.4063    0.7746   22.6384 H   0  0  0  0  0  0  0  0  0  0  0  0
    5.0712    1.8129   16.6995 H   0  0  0  0  0  0  0  0  0  0  0  0
    8.1159   -0.6122   17.9919 H   0  0  0  0  0  0  0  0  0  0  0  0
    5.1407    1.9554   21.5879 H   0  0  0  0  0  0  0  0  0  0  0  0
    4.0589    0.5618   21.3449 H   0  0  0  0  0  0  0  0  0  0  0  0
    5.6824    0.3051   21.9818 H   0  0  0  0  0  0  0  0  0  0  0  0
   11.1663    5.6110   21.8859 H   0  0  0  0  0  0  0  0  0  0  0  0
   11.1950    5.5973   23.6818 H   0  0  0  0  0  0  0  0  0  0  0  0
   11.8488    7.0089   22.7839 H   0  0  0  0  0  0  0  0  0  0  0  0
    9.0902   -1.6664   22.2639 H   0  0  0  0  0  0  0  0  0  0  0  0
    8.6579   -0.3097   23.2977 H   0  0  0  0  0  0  0  0  0  0  0  0
   13.6400    2.6999   24.2124 H   0  0  0  0  0  0  0  0  0  0  0  0
   11.9552    3.2406   24.0511 H   0  0  0  0  0  0  0  0  0  0  0  0
    7.3129   -1.4300   20.9567 H   0  0  0  0  0  0  0  0  0  0  0  0
   13.6568    5.5213   23.5583 H   0  0  0  0  0  0  0  0  0  0  0  0
  1  5  2  0  0  0  0
  1  7  1  0  0  0  0
  2  8  1  0  0  0  0
  2  9  2  0  0  0  0
  3  8  2  0  0  0  0
  3 11  1  0  0  0  0
  4  9  1  0  0  0  0
  4 11  2  0  0  0  0
  5 17  1  0  0  0  0
  6 10  1  0  0  0  0
  6 17  2  0  0  0  0
  7 10  2  0  0  0  0
  7 13  1  0  0  0  0
  8 15  1  0  0  0  0
  9 16  1  0  0  0  0
 10 18  1  0  0  0  0
 11 24  1  0  0  0  0
 12 15  1  0  0  0  0
 12 18  1  0  0  0  0
 12 20  2  0  0  0  0
 14 19  1  0  0  0  0
 16 23  1  0  0  0  0
 19 23  1  0  0  0  0
 21 23  2  0  0  0  0
 22 23  2  0  0  0  0
  1 25  1  0  0  0  0
  2 26  1  0  0  0  0
  3 27  1  0  0  0  0
  4 28  1  0  0  0  0
  5 29  1  0  0  0  0
  6 30  1  0  0  0  0
 13 31  1  0  0  0  0
 13 32  1  0  0  0  0
 13 33  1  0  0  0  0
 14 34  1  0  0  0  0
 14 35  1  0  0  0  0
 14 36  1  0  0  0  0
 15 37  1  0  0  0  0
 15 38  1  0  0  0  0
 16 39  1  0  0  0  0
 16 40  1  0  0  0  0
 18 41  1  0  0  0  0
 19 42  1  0  0  0  0
M  END
> <CID (canonical)>
RAL-THA-6b94ceba-16

> <CID (old format)>

> <Postera Link>
https://covid.postera.ai/covid/submissions/6b94ceba-f352-4275-ad8d-e766e56e6fa4/16

> <InChIKey>
YNOBYWDZFDYVNH-UHFFFAOYSA-N

> <creator>
Ralph Robinson, Thames Pharma Partners

> <rationale>
Follow up of beta lactam TRY-UNI-2eddb1ff-7: beta-lactam replacements, generally retaining the H-bond donor proximal to the phenyl ring. Relative synthetic ease taken into account.

> <Submission Notes>

> <fragments>

> <Structure ID>

> <Fragalysis Link>

> <Enamine - REAL Space>
False

> <Enamine - Extended REAL Space>
False

> <Enamine - SCR>
False

> <Enamine - BB>
False

> <Mcule>

> <Mcule Ultimate>

> <In Molport or Mcule>

> <In eMolecules>

> <MW>
367.08

> <cLogP>
2.27

> <TPSA>
88.16

> <Rotatable Bonds>
6

> <Fraction sp3>
0.25

> <HBA>
4

> <HBD>
2

> <Covalent Fragment>

> <covalent_warhead>
False

> <Acrylamide>
False

> <Acrylamide Adduct>
False

> <Chloroacetamide>
False

> <Chloroacetamide Adduct>
False

> <Vinylsulfonamide>
False

> <Vinylsulfonamide Adduct>
False

> <Nitrile>

> <Nitrile Adduct>

> <series>
3-aminopyridine-like

> <Order Date>

> <Maker>

> <Shipment Date>

> <CDD_name>
CVD-0011615

> <CDD_mol_ID>
80157850.0

> <r_inhibition_at_20_uM>

> <r_inhibition_at_50_uM>

> <r_avg_IC50>

> <r_curve_IC50>

> <r_max_inhibition_reading>

> <r_min_inhibition_reading>

> <r_hill_slope>

> <r_R2>

> <r_concentration_uM>

> <r_inhibition_list>

> <f_inhibition_at_20_uM>

> <f_inhibition_at_50_uM>

> <f_avg_IC50>

> <f_avg_pIC50>

> <f_curve_IC50>

> <f_max_inhibition_reading>

> <f_min_inhibition_reading>

> <f_hill_slope>

> <f_R2>

> <f_concentration_uM>

> <f_inhibition_list>

> <relative_solubility_at_20_uM>

> <relative_solubility_at_100_uM>

> <trypsin_IC50>

> <NMR_std_ratio>

> <structure_ID>

> <structure_LINK>

> <ORDERED>
FALSE

> <MAKER>

> <ORDER_DATE>

> <MADE>
FALSE

> <SHIPMENT_DATE>

> <ASSAYED>
FALSE

> <clash_score>
0

> <docking_score>
-10.840558052062988

$$$$
