TRY-UNI-714a760b-15_1
  -OEChem-07262101013D

 36 37  0     1  0  0  0  0  0999 V2000
   11.9780    0.4600   23.9150 C   0  0  0  0  0  0  0  0  0  0  0  0
   10.6560    0.0720   23.7350 C   0  0  0  0  0  0  0  0  0  0  0  0
   12.9840   -0.1200   23.1530 C   0  0  0  0  0  0  0  0  0  0  0  0
   11.3360   -1.5050   22.0650 C   0  0  0  0  0  0  0  0  0  0  0  0
    5.3260    0.8481   17.4311 C   0  0  0  0  0  0  0  0  0  0  0  0
    6.9285   -0.5452   18.3079 C   0  0  0  0  0  0  0  0  0  0  0  0
   10.3220   -0.8940   22.7910 C   0  0  0  0  0  0  0  0  0  0  0  0
    5.5617    0.7119   19.7938 C   0  0  0  0  0  0  0  0  0  0  0  0
    4.9125    1.2533   18.6899 C   0  0  0  0  0  0  0  0  0  0  0  0
    6.5902   -0.2052   19.6078 C   0  0  0  0  0  0  0  0  0  0  0  0
   12.6400   -1.1000   22.2390 C   0  0  0  0  0  0  0  0  0  0  0  0
    8.3880   -0.3240   21.3070 C   0  0  0  0  0  0  0  0  0  0  0  0
    5.1559    1.1147   21.1768 C   0  0  0  0  0  0  0  0  0  0  0  0
    8.6719   -2.6843   22.1478 C   0  0  0  0  0  0  0  0  0  0  0  0
    8.8810   -1.1900   22.4510 C   0  0  1  0  0  0  0  0  0  0  0  0
    6.3208   -0.0404   17.2108 N   0  0  0  0  0  0  0  0  0  0  0  0
    3.8668    2.1838   18.8266 N   0  0  0  0  0  0  0  0  0  0  0  0
    7.2820   -0.7860   20.6970 N   0  0  0  0  0  0  0  0  0  0  0  0
    8.9170    0.7530   21.0260 O   0  0  0  0  0  0  0  0  0  0  0  0
   13.8840   -1.8490   21.2740 Cl  0  0  0  0  0  0  0  0  0  0  0  0
   12.2249    1.2198   24.6546 H   0  0  0  0  0  0  0  0  0  0  0  0
    9.8763    0.5350   24.3454 H   0  0  0  0  0  0  0  0  0  0  0  0
   14.0077    0.1988   23.2842 H   0  0  0  0  0  0  0  0  0  0  0  0
   11.0892   -2.3009   21.3624 H   0  0  0  0  0  0  0  0  0  0  0  0
    4.8577    1.2354   16.5309 H   0  0  0  0  0  0  0  0  0  0  0  0
    7.7223   -1.2560   18.0982 H   0  0  0  0  0  0  0  0  0  0  0  0
    4.3718    0.4470   21.5489 H   0  0  0  0  0  0  0  0  0  0  0  0
    6.0084    1.0742   21.8643 H   0  0  0  0  0  0  0  0  0  0  0  0
    4.7788    2.1437   21.1920 H   0  0  0  0  0  0  0  0  0  0  0  0
    9.2843   -3.0131   21.3007 H   0  0  0  0  0  0  0  0  0  0  0  0
    8.9296   -3.3200   23.0024 H   0  0  0  0  0  0  0  0  0  0  0  0
    7.6214   -2.8709   21.8984 H   0  0  0  0  0  0  0  0  0  0  0  0
    8.2360   -0.9649   23.3210 H   0  0  0  0  0  0  0  0  0  0  0  0
    3.4560    2.5862   18.0062 H   0  0  0  0  0  0  0  0  0  0  0  0
    3.6096    2.5035   19.7407 H   0  0  0  0  0  0  0  0  0  0  0  0
    6.8824   -1.6524   21.0513 H   0  0  0  0  0  0  0  0  0  0  0  0
  1  2  2  0  0  0  0
  1  3  1  0  0  0  0
  2  7  1  0  0  0  0
  3 11  2  0  0  0  0
  4  7  2  0  0  0  0
  4 11  1  0  0  0  0
  5  9  2  0  0  0  0
  5 16  1  0  0  0  0
  6 10  1  0  0  0  0
  6 16  2  0  0  0  0
  7 15  1  0  0  0  0
  8  9  1  0  0  0  0
  8 10  2  0  0  0  0
  8 13  1  0  0  0  0
  9 17  1  0  0  0  0
 10 18  1  0  0  0  0
 11 20  1  0  0  0  0
 12 15  1  0  0  0  0
 12 18  1  0  0  0  0
 12 19  2  0  0  0  0
 14 15  1  1  0  0  0
  1 21  1  0  0  0  0
  2 22  1  0  0  0  0
  3 23  1  0  0  0  0
  4 24  1  0  0  0  0
  5 25  1  0  0  0  0
  6 26  1  0  0  0  0
 13 27  1  0  0  0  0
 13 28  1  0  0  0  0
 13 29  1  0  0  0  0
 14 30  1  0  0  0  0
 14 31  1  0  0  0  0
 14 32  1  0  0  0  0
 15 33  1  0  0  0  0
 17 34  1  0  0  0  0
 17 35  1  0  0  0  0
 18 36  1  0  0  0  0
M  END
> <compound>
TRY-UNI-714a760b-15

> <compound_smiles>
Cc1c(cncc1NC(=O)C(C)c2cccc(c2)Cl)N

> <enantiomer_smiles>
Cc1c(cncc1NC(=O)[C@@H](C)c2cccc(c2)Cl)N

> <scaffold>
chlorobenzene-linker

> <clash_score>
0

> <docking_score>
-10.98184871673584

> <overlap_score>
0.9071784615516663

> <MMFF_internal_energy>
111.90943101177248

> <docked_smiles>
Cc1c(cncc1NC(=O)[C@@H](C)c2cccc(c2)Cl)N

$$$$
TRY-UNI-714a760b-18_1
  -OEChem-07262101013D

 34 35  0     1  0  0  0  0  0999 V2000
   11.9780    0.4600   23.9150 C   0  0  0  0  0  0  0  0  0  0  0  0
   10.6560    0.0720   23.7350 C   0  0  0  0  0  0  0  0  0  0  0  0
   12.9840   -0.1200   23.1530 C   0  0  0  0  0  0  0  0  0  0  0  0
    4.9120    1.2553   18.6939 C   0  0  0  0  0  0  0  0  0  0  0  0
   11.3360   -1.5050   22.0650 C   0  0  0  0  0  0  0  0  0  0  0  0
    5.3237    0.8516   17.4340 C   0  0  0  0  0  0  0  0  0  0  0  0
    6.9267   -0.5437   18.3070 C   0  0  0  0  0  0  0  0  0  0  0  0
   10.3220   -0.8940   22.7910 C   0  0  0  0  0  0  0  0  0  0  0  0
    5.5624    0.7121   19.7963 C   0  0  0  0  0  0  0  0  0  0  0  0
    6.5902   -0.2052   19.6078 C   0  0  0  0  0  0  0  0  0  0  0  0
   12.6400   -1.1000   22.2390 C   0  0  0  0  0  0  0  0  0  0  0  0
    8.3880   -0.3240   21.3070 C   0  0  0  0  0  0  0  0  0  0  0  0
    5.1392    1.1301   21.1663 C   0  0  0  0  0  0  0  0  0  0  0  0
    8.6719   -2.6843   22.1478 C   0  0  0  0  0  0  0  0  0  0  0  0
    8.8810   -1.1900   22.4510 C   0  0  1  0  0  0  0  0  0  0  0  0
    6.3179   -0.0371   17.2114 N   0  0  0  0  0  0  0  0  0  0  0  0
    7.2820   -0.7860   20.6970 N   0  0  0  0  0  0  0  0  0  0  0  0
    8.9170    0.7530   21.0260 O   0  0  0  0  0  0  0  0  0  0  0  0
   13.8840   -1.8490   21.2740 Cl  0  0  0  0  0  0  0  0  0  0  0  0
   12.2249    1.2198   24.6546 H   0  0  0  0  0  0  0  0  0  0  0  0
    9.8763    0.5350   24.3454 H   0  0  0  0  0  0  0  0  0  0  0  0
   14.0077    0.1988   23.2842 H   0  0  0  0  0  0  0  0  0  0  0  0
    4.1067    1.9732   18.8067 H   0  0  0  0  0  0  0  0  0  0  0  0
   11.0892   -2.3009   21.3624 H   0  0  0  0  0  0  0  0  0  0  0  0
    4.8487    1.2458   16.5417 H   0  0  0  0  0  0  0  0  0  0  0  0
    7.7200   -1.2544   18.0953 H   0  0  0  0  0  0  0  0  0  0  0  0
    4.3492    0.4676   21.5385 H   0  0  0  0  0  0  0  0  0  0  0  0
    5.9816    1.0985   21.8682 H   0  0  0  0  0  0  0  0  0  0  0  0
    4.7612    2.1600   21.1673 H   0  0  0  0  0  0  0  0  0  0  0  0
    9.2843   -3.0131   21.3007 H   0  0  0  0  0  0  0  0  0  0  0  0
    8.9296   -3.3200   23.0024 H   0  0  0  0  0  0  0  0  0  0  0  0
    7.6214   -2.8709   21.8984 H   0  0  0  0  0  0  0  0  0  0  0  0
    8.2360   -0.9649   23.3210 H   0  0  0  0  0  0  0  0  0  0  0  0
    6.8824   -1.6524   21.0513 H   0  0  0  0  0  0  0  0  0  0  0  0
  1  2  2  0  0  0  0
  1  3  1  0  0  0  0
  2  8  1  0  0  0  0
  3 11  2  0  0  0  0
  4  6  2  0  0  0  0
  4  9  1  0  0  0  0
  5  8  2  0  0  0  0
  5 11  1  0  0  0  0
  6 16  1  0  0  0  0
  7 10  1  0  0  0  0
  7 16  2  0  0  0  0
  8 15  1  0  0  0  0
  9 10  2  0  0  0  0
  9 13  1  0  0  0  0
 10 17  1  0  0  0  0
 11 19  1  0  0  0  0
 12 15  1  0  0  0  0
 12 17  1  0  0  0  0
 12 18  2  0  0  0  0
 14 15  1  1  0  0  0
  1 20  1  0  0  0  0
  2 21  1  0  0  0  0
  3 22  1  0  0  0  0
  4 23  1  0  0  0  0
  5 24  1  0  0  0  0
  6 25  1  0  0  0  0
  7 26  1  0  0  0  0
 13 27  1  0  0  0  0
 13 28  1  0  0  0  0
 13 29  1  0  0  0  0
 14 30  1  0  0  0  0
 14 31  1  0  0  0  0
 14 32  1  0  0  0  0
 15 33  1  0  0  0  0
 17 34  1  0  0  0  0
M  END
> <compound>
TRY-UNI-714a760b-18

> <compound_smiles>
Cc1ccncc1NC(=O)C(C)c2cccc(c2)Cl

> <enantiomer_smiles>
Cc1ccncc1NC(=O)[C@@H](C)c2cccc(c2)Cl

> <scaffold>
chlorobenzene-linker

> <canonical_CID>
TRY-UNI-714a760b-18

> <r_inhibition_at_20_uM>

> <r_inhibition_at_50_uM>

> <r_avg_IC50>
12.9676931084341

> <f_inhibition_at_20_uM>

> <f_inhibition_at_50_uM>

> <f_avg_IC50>
26.1796376915625

> <f_avg_pIC50>

> <relative_solubility_at_20_uM>

> <relative_solubility_at_100_uM>

> <trypsin_IC50>
99.0

> <NMR_std_ratio>

> <acrylamide>
False

> <chloroacetamide>
False

> <series>
3-aminopyridine-like

> <frag_id>
x2649

> <clash_score>
0

> <docking_score>
-10.434356689453125

> <overlap_score>
0.8682984113693237

> <MMFF_internal_energy>
89.91005467104961

> <docked_smiles>
Cc1ccncc1NC(=O)[C@@H](C)c2cccc(c2)Cl

$$$$
TRY-UNI-714a760b-6_1
  -OEChem-07262101013D

 31 32  0     0  0  0  0  0  0999 V2000
   11.9780    0.4600   23.9150 C   0  0  0  0  0  0  0  0  0  0  0  0
   10.6560    0.0720   23.7350 C   0  0  0  0  0  0  0  0  0  0  0  0
   12.9840   -0.1200   23.1530 C   0  0  0  0  0  0  0  0  0  0  0  0
    4.9108    1.2541   18.6938 C   0  0  0  0  0  0  0  0  0  0  0  0
   11.3360   -1.5050   22.0650 C   0  0  0  0  0  0  0  0  0  0  0  0
    5.3261    0.8544   17.4338 C   0  0  0  0  0  0  0  0  0  0  0  0
    6.9308   -0.5388   18.3067 C   0  0  0  0  0  0  0  0  0  0  0  0
   10.3220   -0.8940   22.7910 C   0  0  0  0  0  0  0  0  0  0  0  0
    5.5603    0.7100   19.7962 C   0  0  0  0  0  0  0  0  0  0  0  0
    6.5908   -0.2043   19.6076 C   0  0  0  0  0  0  0  0  0  0  0  0
   12.6400   -1.1000   22.2390 C   0  0  0  0  0  0  0  0  0  0  0  0
    8.3880   -0.3240   21.3070 C   0  0  0  0  0  0  0  0  0  0  0  0
    5.1333    1.1236   21.1664 C   0  0  0  0  0  0  0  0  0  0  0  0
    8.8810   -1.1900   22.4510 C   0  0  0  0  0  0  0  0  0  0  0  0
    6.3229   -0.0312   17.2111 N   0  0  0  0  0  0  0  0  0  0  0  0
    7.2820   -0.7860   20.6970 N   0  0  0  0  0  0  0  0  0  0  0  0
    8.9170    0.7530   21.0260 O   0  0  0  0  0  0  0  0  0  0  0  0
   13.8840   -1.8490   21.2740 Cl  0  0  0  0  0  0  0  0  0  0  0  0
   12.2249    1.2198   24.6546 H   0  0  0  0  0  0  0  0  0  0  0  0
    9.8763    0.5350   24.3454 H   0  0  0  0  0  0  0  0  0  0  0  0
   14.0077    0.1988   23.2842 H   0  0  0  0  0  0  0  0  0  0  0  0
    4.1035    1.9697   18.8067 H   0  0  0  0  0  0  0  0  0  0  0  0
   11.0892   -2.3009   21.3624 H   0  0  0  0  0  0  0  0  0  0  0  0
    4.8519    1.2496   16.5415 H   0  0  0  0  0  0  0  0  0  0  0  0
    7.7264   -1.2471   18.0949 H   0  0  0  0  0  0  0  0  0  0  0  0
    4.3443    0.4582   21.5353 H   0  0  0  0  0  0  0  0  0  0  0  0
    5.9744    1.0925   21.8699 H   0  0  0  0  0  0  0  0  0  0  0  0
    4.7528    2.1526   21.1690 H   0  0  0  0  0  0  0  0  0  0  0  0
    8.7709   -2.2387   22.1706 H   0  0  0  0  0  0  0  0  0  0  0  0
    8.2491   -1.0157   23.3232 H   0  0  0  0  0  0  0  0  0  0  0  0
    6.8973   -1.6552   21.0612 H   0  0  0  0  0  0  0  0  0  0  0  0
  1  2  2  0  0  0  0
  1  3  1  0  0  0  0
  2  8  1  0  0  0  0
  3 11  2  0  0  0  0
  4  6  2  0  0  0  0
  4  9  1  0  0  0  0
  5  8  2  0  0  0  0
  5 11  1  0  0  0  0
  6 15  1  0  0  0  0
  7 10  1  0  0  0  0
  7 15  2  0  0  0  0
  8 14  1  0  0  0  0
  9 10  2  0  0  0  0
  9 13  1  0  0  0  0
 10 16  1  0  0  0  0
 11 18  1  0  0  0  0
 12 14  1  0  0  0  0
 12 16  1  0  0  0  0
 12 17  2  0  0  0  0
  1 19  1  0  0  0  0
  2 20  1  0  0  0  0
  3 21  1  0  0  0  0
  4 22  1  0  0  0  0
  5 23  1  0  0  0  0
  6 24  1  0  0  0  0
  7 25  1  0  0  0  0
 13 26  1  0  0  0  0
 13 27  1  0  0  0  0
 13 28  1  0  0  0  0
 14 29  1  0  0  0  0
 14 30  1  0  0  0  0
 16 31  1  0  0  0  0
M  END
> <compound>
TRY-UNI-714a760b-6

> <compound_smiles>
Cc1ccncc1NC(=O)Cc2cccc(c2)Cl

> <enantiomer_smiles>
Cc1ccncc1NC(=O)Cc2cccc(c2)Cl

> <scaffold>
chlorobenzene-linker

> <canonical_CID>
TRY-UNI-714a760b-6

> <r_inhibition_at_20_uM>

> <r_inhibition_at_50_uM>

> <r_avg_IC50>
13.8951649217851

> <f_inhibition_at_20_uM>

> <f_inhibition_at_50_uM>

> <f_avg_IC50>
24.5666191954425

> <f_avg_pIC50>

> <relative_solubility_at_20_uM>

> <relative_solubility_at_100_uM>

> <trypsin_IC50>
99.0

> <NMR_std_ratio>

> <acrylamide>
False

> <chloroacetamide>
False

> <series>
3-aminopyridine-like

> <frag_id>
x2646

> <clash_score>
0

> <docking_score>
-10.645476341247559

> <overlap_score>
0.8576565980911255

> <MMFF_internal_energy>
77.66126578544304

> <docked_smiles>
Cc1ccncc1NC(=O)Cc2cccc(c2)Cl

$$$$
TRY-UNI-714a760b-15_2
  -OEChem-07262101013D

 36 37  0     1  0  0  0  0  0999 V2000
   11.9780    0.4600   23.9150 C   0  0  0  0  0  0  0  0  0  0  0  0
   10.6560    0.0720   23.7350 C   0  0  0  0  0  0  0  0  0  0  0  0
   12.9840   -0.1200   23.1530 C   0  0  0  0  0  0  0  0  0  0  0  0
   11.3360   -1.5050   22.0650 C   0  0  0  0  0  0  0  0  0  0  0  0
    5.3260    0.8481   17.4311 C   0  0  0  0  0  0  0  0  0  0  0  0
    6.9285   -0.5452   18.3079 C   0  0  0  0  0  0  0  0  0  0  0  0
   10.3220   -0.8940   22.7910 C   0  0  0  0  0  0  0  0  0  0  0  0
    5.5617    0.7119   19.7938 C   0  0  0  0  0  0  0  0  0  0  0  0
    4.9125    1.2533   18.6899 C   0  0  0  0  0  0  0  0  0  0  0  0
    6.5902   -0.2052   19.6078 C   0  0  0  0  0  0  0  0  0  0  0  0
   12.6400   -1.1000   22.2390 C   0  0  0  0  0  0  0  0  0  0  0  0
    8.3880   -0.3240   21.3070 C   0  0  0  0  0  0  0  0  0  0  0  0
    5.1559    1.1147   21.1768 C   0  0  0  0  0  0  0  0  0  0  0  0
    7.9670   -1.0352   23.6784 C   0  0  0  0  0  0  0  0  0  0  0  0
    8.8810   -1.1900   22.4510 C   0  0  2  0  0  0  0  0  0  0  0  0
    6.3208   -0.0404   17.2108 N   0  0  0  0  0  0  0  0  0  0  0  0
    3.8668    2.1838   18.8266 N   0  0  0  0  0  0  0  0  0  0  0  0
    7.2820   -0.7860   20.6970 N   0  0  0  0  0  0  0  0  0  0  0  0
    8.9170    0.7530   21.0260 O   0  0  0  0  0  0  0  0  0  0  0  0
   13.8840   -1.8490   21.2740 Cl  0  0  0  0  0  0  0  0  0  0  0  0
   12.2249    1.2198   24.6546 H   0  0  0  0  0  0  0  0  0  0  0  0
    9.8763    0.5350   24.3454 H   0  0  0  0  0  0  0  0  0  0  0  0
   14.0077    0.1988   23.2842 H   0  0  0  0  0  0  0  0  0  0  0  0
   11.0892   -2.3009   21.3624 H   0  0  0  0  0  0  0  0  0  0  0  0
    4.8577    1.2354   16.5309 H   0  0  0  0  0  0  0  0  0  0  0  0
    7.7223   -1.2560   18.0982 H   0  0  0  0  0  0  0  0  0  0  0  0
    4.3718    0.4470   21.5489 H   0  0  0  0  0  0  0  0  0  0  0  0
    6.0084    1.0742   21.8643 H   0  0  0  0  0  0  0  0  0  0  0  0
    4.7788    2.1437   21.1920 H   0  0  0  0  0  0  0  0  0  0  0  0
    8.0088   -0.0193   24.0871 H   0  0  0  0  0  0  0  0  0  0  0  0
    6.9216   -1.2406   23.4222 H   0  0  0  0  0  0  0  0  0  0  0  0
    8.2585   -1.7315   24.4726 H   0  0  0  0  0  0  0  0  0  0  0  0
    8.7806   -2.2413   22.1242 H   0  0  0  0  0  0  0  0  0  0  0  0
    3.4560    2.5862   18.0062 H   0  0  0  0  0  0  0  0  0  0  0  0
    3.6096    2.5035   19.7407 H   0  0  0  0  0  0  0  0  0  0  0  0
    6.8824   -1.6524   21.0513 H   0  0  0  0  0  0  0  0  0  0  0  0
  1  2  2  0  0  0  0
  1  3  1  0  0  0  0
  2  7  1  0  0  0  0
  3 11  2  0  0  0  0
  4  7  2  0  0  0  0
  4 11  1  0  0  0  0
  5  9  2  0  0  0  0
  5 16  1  0  0  0  0
  6 10  1  0  0  0  0
  6 16  2  0  0  0  0
  7 15  1  0  0  0  0
  8  9  1  0  0  0  0
  8 10  2  0  0  0  0
  8 13  1  0  0  0  0
  9 17  1  0  0  0  0
 10 18  1  0  0  0  0
 11 20  1  0  0  0  0
 12 15  1  0  0  0  0
 12 18  1  0  0  0  0
 12 19  2  0  0  0  0
 14 15  1  6  0  0  0
  1 21  1  0  0  0  0
  2 22  1  0  0  0  0
  3 23  1  0  0  0  0
  4 24  1  0  0  0  0
  5 25  1  0  0  0  0
  6 26  1  0  0  0  0
 13 27  1  0  0  0  0
 13 28  1  0  0  0  0
 13 29  1  0  0  0  0
 14 30  1  0  0  0  0
 14 31  1  0  0  0  0
 14 32  1  0  0  0  0
 15 33  1  0  0  0  0
 17 34  1  0  0  0  0
 17 35  1  0  0  0  0
 18 36  1  0  0  0  0
M  END
> <compound>
TRY-UNI-714a760b-15

> <compound_smiles>
Cc1c(cncc1NC(=O)C(C)c2cccc(c2)Cl)N

> <enantiomer_smiles>
Cc1c(cncc1NC(=O)[C@H](C)c2cccc(c2)Cl)N

> <scaffold>
chlorobenzene-linker

> <clash_score>
0

> <docking_score>
-11.233406066894531

> <overlap_score>
0.9068979620933533

> <MMFF_internal_energy>
106.36541709622917

> <docked_smiles>
Cc1c(cncc1NC(=O)[C@H](C)c2cccc(c2)Cl)N

$$$$
TRY-UNI-714a760b-3_1
  -OEChem-07262101013D

 33 34  0     0  0  0  0  0  0999 V2000
   11.9780    0.4600   23.9150 C   0  0  0  0  0  0  0  0  0  0  0  0
   10.6560    0.0720   23.7350 C   0  0  0  0  0  0  0  0  0  0  0  0
   12.9840   -0.1200   23.1530 C   0  0  0  0  0  0  0  0  0  0  0  0
   11.3360   -1.5050   22.0650 C   0  0  0  0  0  0  0  0  0  0  0  0
    5.3284    0.8510   17.4308 C   0  0  0  0  0  0  0  0  0  0  0  0
    6.9326   -0.5404   18.3076 C   0  0  0  0  0  0  0  0  0  0  0  0
   10.3220   -0.8940   22.7910 C   0  0  0  0  0  0  0  0  0  0  0  0
    5.5597    0.7098   19.7937 C   0  0  0  0  0  0  0  0  0  0  0  0
    4.9113    1.2521   18.6898 C   0  0  0  0  0  0  0  0  0  0  0  0
    6.5908   -0.2043   19.6076 C   0  0  0  0  0  0  0  0  0  0  0  0
   12.6400   -1.1000   22.2390 C   0  0  0  0  0  0  0  0  0  0  0  0
    8.3880   -0.3240   21.3070 C   0  0  0  0  0  0  0  0  0  0  0  0
    5.1501    1.1082   21.1769 C   0  0  0  0  0  0  0  0  0  0  0  0
    8.8810   -1.1900   22.4510 C   0  0  0  0  0  0  0  0  0  0  0  0
    6.3259   -0.0345   17.2105 N   0  0  0  0  0  0  0  0  0  0  0  0
    3.8630    2.1797   18.8266 N   0  0  0  0  0  0  0  0  0  0  0  0
    7.2820   -0.7860   20.6970 N   0  0  0  0  0  0  0  0  0  0  0  0
    8.9170    0.7530   21.0260 O   0  0  0  0  0  0  0  0  0  0  0  0
   13.8840   -1.8490   21.2740 Cl  0  0  0  0  0  0  0  0  0  0  0  0
   12.2249    1.2198   24.6546 H   0  0  0  0  0  0  0  0  0  0  0  0
    9.8763    0.5350   24.3454 H   0  0  0  0  0  0  0  0  0  0  0  0
   14.0077    0.1988   23.2842 H   0  0  0  0  0  0  0  0  0  0  0  0
   11.0892   -2.3009   21.3624 H   0  0  0  0  0  0  0  0  0  0  0  0
    4.8609    1.2392   16.5307 H   0  0  0  0  0  0  0  0  0  0  0  0
    7.7286   -1.2486   18.0978 H   0  0  0  0  0  0  0  0  0  0  0  0
    4.3669    0.4377   21.5458 H   0  0  0  0  0  0  0  0  0  0  0  0
    6.0012    1.0683   21.8660 H   0  0  0  0  0  0  0  0  0  0  0  0
    4.7704    2.1362   21.1937 H   0  0  0  0  0  0  0  0  0  0  0  0
    8.7709   -2.2387   22.1706 H   0  0  0  0  0  0  0  0  0  0  0  0
    8.2491   -1.0157   23.3232 H   0  0  0  0  0  0  0  0  0  0  0  0
    3.4528    2.5830   18.0063 H   0  0  0  0  0  0  0  0  0  0  0  0
    3.6032    2.4966   19.7409 H   0  0  0  0  0  0  0  0  0  0  0  0
    6.8973   -1.6552   21.0612 H   0  0  0  0  0  0  0  0  0  0  0  0
  1  2  2  0  0  0  0
  1  3  1  0  0  0  0
  2  7  1  0  0  0  0
  3 11  2  0  0  0  0
  4  7  2  0  0  0  0
  4 11  1  0  0  0  0
  5  9  2  0  0  0  0
  5 15  1  0  0  0  0
  6 10  1  0  0  0  0
  6 15  2  0  0  0  0
  7 14  1  0  0  0  0
  8  9  1  0  0  0  0
  8 10  2  0  0  0  0
  8 13  1  0  0  0  0
  9 16  1  0  0  0  0
 10 17  1  0  0  0  0
 11 19  1  0  0  0  0
 12 14  1  0  0  0  0
 12 17  1  0  0  0  0
 12 18  2  0  0  0  0
  1 20  1  0  0  0  0
  2 21  1  0  0  0  0
  3 22  1  0  0  0  0
  4 23  1  0  0  0  0
  5 24  1  0  0  0  0
  6 25  1  0  0  0  0
 13 26  1  0  0  0  0
 13 27  1  0  0  0  0
 13 28  1  0  0  0  0
 14 29  1  0  0  0  0
 14 30  1  0  0  0  0
 16 31  1  0  0  0  0
 16 32  1  0  0  0  0
 17 33  1  0  0  0  0
M  END
> <compound>
TRY-UNI-714a760b-3

> <compound_smiles>
Cc1c(cncc1NC(=O)Cc2cccc(c2)Cl)N

> <enantiomer_smiles>
Cc1c(cncc1NC(=O)Cc2cccc(c2)Cl)N

> <scaffold>
chlorobenzene-linker

> <canonical_CID>
TRY-UNI-714a760b-3

> <r_inhibition_at_20_uM>

> <r_inhibition_at_50_uM>

> <r_avg_IC50>
8.20169805953648

> <f_inhibition_at_20_uM>

> <f_inhibition_at_50_uM>

> <f_avg_IC50>
4.22233976382304

> <f_avg_pIC50>

> <relative_solubility_at_20_uM>

> <relative_solubility_at_100_uM>

> <trypsin_IC50>

> <NMR_std_ratio>

> <acrylamide>
False

> <chloroacetamide>
False

> <series>
3-aminopyridine-like

> <frag_id>
x11317

> <clash_score>
0

> <docking_score>
-11.193290710449219

> <overlap_score>
0.8966695070266724

> <MMFF_internal_energy>
99.66314081824493

> <docked_smiles>
Cc1c(cncc1NC(=O)Cc2cccc(c2)Cl)N

$$$$
TRY-UNI-714a760b-18_2
  -OEChem-07262101013D

 34 35  0     1  0  0  0  0  0999 V2000
   11.9780    0.4600   23.9150 C   0  0  0  0  0  0  0  0  0  0  0  0
   10.6560    0.0720   23.7350 C   0  0  0  0  0  0  0  0  0  0  0  0
   12.9840   -0.1200   23.1530 C   0  0  0  0  0  0  0  0  0  0  0  0
    4.9120    1.2553   18.6939 C   0  0  0  0  0  0  0  0  0  0  0  0
   11.3360   -1.5050   22.0650 C   0  0  0  0  0  0  0  0  0  0  0  0
    5.3237    0.8516   17.4340 C   0  0  0  0  0  0  0  0  0  0  0  0
    6.9267   -0.5437   18.3070 C   0  0  0  0  0  0  0  0  0  0  0  0
   10.3220   -0.8940   22.7910 C   0  0  0  0  0  0  0  0  0  0  0  0
    5.5624    0.7121   19.7963 C   0  0  0  0  0  0  0  0  0  0  0  0
    6.5902   -0.2052   19.6078 C   0  0  0  0  0  0  0  0  0  0  0  0
   12.6400   -1.1000   22.2390 C   0  0  0  0  0  0  0  0  0  0  0  0
    8.3880   -0.3240   21.3070 C   0  0  0  0  0  0  0  0  0  0  0  0
    5.1392    1.1301   21.1663 C   0  0  0  0  0  0  0  0  0  0  0  0
    7.9670   -1.0352   23.6784 C   0  0  0  0  0  0  0  0  0  0  0  0
    8.8810   -1.1900   22.4510 C   0  0  2  0  0  0  0  0  0  0  0  0
    6.3179   -0.0371   17.2114 N   0  0  0  0  0  0  0  0  0  0  0  0
    7.2820   -0.7860   20.6970 N   0  0  0  0  0  0  0  0  0  0  0  0
    8.9170    0.7530   21.0260 O   0  0  0  0  0  0  0  0  0  0  0  0
   13.8840   -1.8490   21.2740 Cl  0  0  0  0  0  0  0  0  0  0  0  0
   12.2249    1.2198   24.6546 H   0  0  0  0  0  0  0  0  0  0  0  0
    9.8763    0.5350   24.3454 H   0  0  0  0  0  0  0  0  0  0  0  0
   14.0077    0.1988   23.2842 H   0  0  0  0  0  0  0  0  0  0  0  0
    4.1067    1.9732   18.8067 H   0  0  0  0  0  0  0  0  0  0  0  0
   11.0892   -2.3009   21.3624 H   0  0  0  0  0  0  0  0  0  0  0  0
    4.8487    1.2458   16.5417 H   0  0  0  0  0  0  0  0  0  0  0  0
    7.7200   -1.2544   18.0953 H   0  0  0  0  0  0  0  0  0  0  0  0
    4.3492    0.4676   21.5385 H   0  0  0  0  0  0  0  0  0  0  0  0
    5.9816    1.0985   21.8682 H   0  0  0  0  0  0  0  0  0  0  0  0
    4.7612    2.1600   21.1673 H   0  0  0  0  0  0  0  0  0  0  0  0
    8.0088   -0.0193   24.0871 H   0  0  0  0  0  0  0  0  0  0  0  0
    6.9216   -1.2406   23.4222 H   0  0  0  0  0  0  0  0  0  0  0  0
    8.2585   -1.7315   24.4726 H   0  0  0  0  0  0  0  0  0  0  0  0
    8.7806   -2.2413   22.1242 H   0  0  0  0  0  0  0  0  0  0  0  0
    6.8824   -1.6524   21.0513 H   0  0  0  0  0  0  0  0  0  0  0  0
  1  2  2  0  0  0  0
  1  3  1  0  0  0  0
  2  8  1  0  0  0  0
  3 11  2  0  0  0  0
  4  6  2  0  0  0  0
  4  9  1  0  0  0  0
  5  8  2  0  0  0  0
  5 11  1  0  0  0  0
  6 16  1  0  0  0  0
  7 10  1  0  0  0  0
  7 16  2  0  0  0  0
  8 15  1  0  0  0  0
  9 10  2  0  0  0  0
  9 13  1  0  0  0  0
 10 17  1  0  0  0  0
 11 19  1  0  0  0  0
 12 15  1  0  0  0  0
 12 17  1  0  0  0  0
 12 18  2  0  0  0  0
 14 15  1  6  0  0  0
  1 20  1  0  0  0  0
  2 21  1  0  0  0  0
  3 22  1  0  0  0  0
  4 23  1  0  0  0  0
  5 24  1  0  0  0  0
  6 25  1  0  0  0  0
  7 26  1  0  0  0  0
 13 27  1  0  0  0  0
 13 28  1  0  0  0  0
 13 29  1  0  0  0  0
 14 30  1  0  0  0  0
 14 31  1  0  0  0  0
 14 32  1  0  0  0  0
 15 33  1  0  0  0  0
 17 34  1  0  0  0  0
M  END
> <compound>
TRY-UNI-714a760b-18

> <compound_smiles>
Cc1ccncc1NC(=O)C(C)c2cccc(c2)Cl

> <enantiomer_smiles>
Cc1ccncc1NC(=O)[C@H](C)c2cccc(c2)Cl

> <scaffold>
chlorobenzene-linker

> <canonical_CID>
TRY-UNI-714a760b-18

> <r_inhibition_at_20_uM>

> <r_inhibition_at_50_uM>

> <r_avg_IC50>
12.9676931084341

> <f_inhibition_at_20_uM>

> <f_inhibition_at_50_uM>

> <f_avg_IC50>
26.1796376915625

> <f_avg_pIC50>

> <relative_solubility_at_20_uM>

> <relative_solubility_at_100_uM>

> <trypsin_IC50>
99.0

> <NMR_std_ratio>

> <acrylamide>
False

> <chloroacetamide>
False

> <series>
3-aminopyridine-like

> <frag_id>
x2649

> <clash_score>
0

> <docking_score>
-10.685931205749512

> <overlap_score>
0.8680161833763123

> <MMFF_internal_energy>
84.36751732290625

> <docked_smiles>
Cc1ccncc1NC(=O)[C@H](C)c2cccc(c2)Cl

$$$$
ADA-UNI-f8e79267-10_1
  -OEChem-07262101013D

 41 42  0     1  0  0  0  0  0999 V2000
   11.9780    0.4600   23.9150 C   0  0  0  0  0  0  0  0  0  0  0  0
    4.6077    0.7518   18.6399 C   0  0  0  0  0  0  0  0  0  0  0  0
   10.6560    0.0720   23.7350 C   0  0  0  0  0  0  0  0  0  0  0  0
    5.2608    0.1829   19.7276 C   0  0  0  0  0  0  0  0  0  0  0  0
   12.9840   -0.1200   23.1530 C   0  0  0  0  0  0  0  0  0  0  0  0
   11.3360   -1.5050   22.0650 C   0  0  0  0  0  0  0  0  0  0  0  0
    5.3233    0.9103   17.4641 C   0  0  0  0  0  0  0  0  0  0  0  0
    7.2175   -0.0035   18.3886 C   0  0  0  0  0  0  0  0  0  0  0  0
   10.3220   -0.8940   22.7910 C   0  0  0  0  0  0  0  0  0  0  0  0
    6.5908   -0.2046   19.6079 C   0  0  0  0  0  0  0  0  0  0  0  0
   12.6400   -1.1000   22.2390 C   0  0  0  0  0  0  0  0  0  0  0  0
    8.3880   -0.3240   21.3070 C   0  0  0  0  0  0  0  0  0  0  0  0
    5.9556   -4.2283   25.7391 C   0  0  0  0  0  0  0  0  0  0  0  0
    7.3122   -3.3629   23.8287 C   0  0  0  0  0  0  0  0  0  0  0  0
    8.7123   -3.3858   23.2478 C   0  0  0  0  0  0  0  0  0  0  0  0
    8.8810   -1.1900   22.4510 C   0  0  1  0  0  0  0  0  0  0  0  0
    6.6160    0.5460   17.3098 N   0  0  0  0  0  0  0  0  0  0  0  0
    7.2820   -0.7860   20.6970 N   0  0  0  0  0  0  0  0  0  0  0  0
    7.2777   -4.1956   25.0574 N   0  3  0  0  0  0  0  0  0  0  0  0
    8.9170    0.7530   21.0260 O   0  0  0  0  0  0  0  0  0  0  0  0
    8.7610   -2.5625   22.0928 O   0  0  0  0  0  0  0  0  0  0  0  0
   13.8840   -1.8490   21.2740 Cl  0  0  0  0  0  0  0  0  0  0  0  0
   12.2249    1.2198   24.6546 H   0  0  0  0  0  0  0  0  0  0  0  0
    3.5712    1.0614   18.7105 H   0  0  0  0  0  0  0  0  0  0  0  0
    9.8763    0.5350   24.3454 H   0  0  0  0  0  0  0  0  0  0  0  0
    4.7245    0.0463   20.6629 H   0  0  0  0  0  0  0  0  0  0  0  0
   14.0077    0.1988   23.2842 H   0  0  0  0  0  0  0  0  0  0  0  0
   11.0892   -2.3009   21.3624 H   0  0  0  0  0  0  0  0  0  0  0  0
    4.8594    1.3498   16.5872 H   0  0  0  0  0  0  0  0  0  0  0  0
    8.2547   -0.2857   18.2337 H   0  0  0  0  0  0  0  0  0  0  0  0
    5.2188   -4.5937   25.0213 H   0  0  0  0  0  0  0  0  0  0  0  0
    6.0373   -4.9011   26.5948 H   0  0  0  0  0  0  0  0  0  0  0  0
    5.7200   -3.2118   26.0601 H   0  0  0  0  0  0  0  0  0  0  0  0
    6.5751   -3.7924   23.1445 H   0  0  0  0  0  0  0  0  0  0  0  0
    7.0138   -2.3539   24.1251 H   0  0  0  0  0  0  0  0  0  0  0  0
    9.4238   -2.9865   23.9773 H   0  0  0  0  0  0  0  0  0  0  0  0
    9.0204   -4.4004   22.9750 H   0  0  0  0  0  0  0  0  0  0  0  0
    8.2310   -1.0350   23.3254 H   0  0  0  0  0  0  0  0  0  0  0  0
    6.8826   -1.6525   21.0512 H   0  0  0  0  0  0  0  0  0  0  0  0
    7.9882   -3.8527   25.7197 H   0  0  0  0  0  0  0  0  0  0  0  0
    7.5580   -5.1586   24.8228 H   0  0  0  0  0  0  0  0  0  0  0  0
  1  3  2  0  0  0  0
  1  5  1  0  0  0  0
  2  4  2  0  0  0  0
  2  7  1  0  0  0  0
  3  9  1  0  0  0  0
  4 10  1  0  0  0  0
  5 11  2  0  0  0  0
  6  9  2  0  0  0  0
  6 11  1  0  0  0  0
  7 17  2  0  0  0  0
  8 10  2  0  0  0  0
  8 17  1  0  0  0  0
  9 16  1  0  0  0  0
 10 18  1  0  0  0  0
 11 22  1  0  0  0  0
 12 16  1  1  0  0  0
 12 18  1  0  0  0  0
 12 20  2  0  0  0  0
 13 19  1  0  0  0  0
 14 15  1  0  0  0  0
 14 19  1  0  0  0  0
 15 21  1  0  0  0  0
 16 21  1  0  0  0  0
  1 23  1  0  0  0  0
  2 24  1  0  0  0  0
  3 25  1  0  0  0  0
  4 26  1  0  0  0  0
  5 27  1  0  0  0  0
  6 28  1  0  0  0  0
  7 29  1  0  0  0  0
  8 30  1  0  0  0  0
 13 31  1  0  0  0  0
 13 32  1  0  0  0  0
 13 33  1  0  0  0  0
 14 34  1  0  0  0  0
 14 35  1  0  0  0  0
 15 36  1  0  0  0  0
 15 37  1  0  0  0  0
 16 38  1  0  0  0  0
 18 39  1  0  0  0  0
 19 40  1  0  0  0  0
 19 41  1  0  0  0  0
M  CHG  1  19   1
M  END
> <compound>
ADA-UNI-f8e79267-10

> <compound_smiles>
CNCCOC(c1cccc(c1)Cl)C(=O)Nc2cccnc2

> <enantiomer_smiles>
CNCCO[C@@H](c1cccc(c1)Cl)C(=O)Nc2cccnc2

> <scaffold>
chlorobenzene-linker

> <clash_score>
0

> <docking_score>
-8.78650951385498

> <overlap_score>
0.8117958903312683

> <MMFF_internal_energy>
147.2707488240374

> <docked_smiles>
C[NH2+]CCO[C@@H](c1cccc(c1)Cl)C(=O)Nc2cccnc2

$$$$
AGN-NEW-c7b24fe3-1_1
  -OEChem-07262101013D

 32 33  0     0  0  0  0  0  0999 V2000
   11.9780    0.4600   23.9150 C   0  0  0  0  0  0  0  0  0  0  0  0
    4.5800    0.7403   18.6863 C   0  0  0  0  0  0  0  0  0  0  0  0
   10.6560    0.0720   23.7350 C   0  0  0  0  0  0  0  0  0  0  0  0
    5.2598    0.1693   19.7564 C   0  0  0  0  0  0  0  0  0  0  0  0
   12.9840   -0.1200   23.1530 C   0  0  0  0  0  0  0  0  0  0  0  0
   11.3360   -1.5050   22.0650 C   0  0  0  0  0  0  0  0  0  0  0  0
    5.2708    0.9150   17.4980 C   0  0  0  0  0  0  0  0  0  0  0  0
   10.3220   -0.8940   22.7910 C   0  0  0  0  0  0  0  0  0  0  0  0
    6.5908   -0.2043   19.6076 C   0  0  0  0  0  0  0  0  0  0  0  0
   12.6400   -1.1000   22.2390 C   0  0  0  0  0  0  0  0  0  0  0  0
    7.1915    0.0125   18.3780 C   0  0  0  0  0  0  0  0  0  0  0  0
    9.3816    0.3083   17.3144 C   0  0  0  0  0  0  0  0  0  0  0  0
    8.5831   -0.3501   18.1406 C   0  0  0  0  0  0  0  0  0  0  0  0
    8.3880   -0.3240   21.3070 C   0  0  0  0  0  0  0  0  0  0  0  0
    8.8810   -1.1900   22.4510 C   0  0  0  0  0  0  0  0  0  0  0  0
    6.5636    0.5645   17.3156 N   0  0  0  0  0  0  0  0  0  0  0  0
    7.2820   -0.7860   20.6970 N   0  0  0  0  0  0  0  0  0  0  0  0
    8.9170    0.7530   21.0260 O   0  0  0  0  0  0  0  0  0  0  0  0
   13.8840   -1.8490   21.2740 Cl  0  0  0  0  0  0  0  0  0  0  0  0
   12.2249    1.2198   24.6546 H   0  0  0  0  0  0  0  0  0  0  0  0
    3.5423    1.0395   18.7797 H   0  0  0  0  0  0  0  0  0  0  0  0
    9.8763    0.5350   24.3454 H   0  0  0  0  0  0  0  0  0  0  0  0
    4.7420    0.0208   20.7004 H   0  0  0  0  0  0  0  0  0  0  0  0
   14.0077    0.1988   23.2842 H   0  0  0  0  0  0  0  0  0  0  0  0
   11.0892   -2.3009   21.3624 H   0  0  0  0  0  0  0  0  0  0  0  0
    4.7855    1.3566   16.6339 H   0  0  0  0  0  0  0  0  0  0  0  0
   10.4096   -0.0248   17.2076 H   0  0  0  0  0  0  0  0  0  0  0  0
    9.0892    1.1763   16.7357 H   0  0  0  0  0  0  0  0  0  0  0  0
    8.9697   -1.1855   18.6983 H   0  0  0  0  0  0  0  0  0  0  0  0
    8.7709   -2.2387   22.1706 H   0  0  0  0  0  0  0  0  0  0  0  0
    8.2491   -1.0157   23.3232 H   0  0  0  0  0  0  0  0  0  0  0  0
    6.8973   -1.6552   21.0612 H   0  0  0  0  0  0  0  0  0  0  0  0
  1  3  2  0  0  0  0
  1  5  1  0  0  0  0
  2  4  1  0  0  0  0
  2  7  2  0  0  0  0
  3  8  1  0  0  0  0
  4  9  2  0  0  0  0
  5 10  2  0  0  0  0
  6  8  2  0  0  0  0
  6 10  1  0  0  0  0
  7 16  1  0  0  0  0
  8 15  1  0  0  0  0
  9 11  1  0  0  0  0
  9 17  1  0  0  0  0
 10 19  1  0  0  0  0
 11 13  1  0  0  0  0
 11 16  2  0  0  0  0
 12 13  2  0  0  0  0
 14 15  1  0  0  0  0
 14 17  1  0  0  0  0
 14 18  2  0  0  0  0
  1 20  1  0  0  0  0
  2 21  1  0  0  0  0
  3 22  1  0  0  0  0
  4 23  1  0  0  0  0
  5 24  1  0  0  0  0
  6 25  1  0  0  0  0
  7 26  1  0  0  0  0
 12 27  1  0  0  0  0
 12 28  1  0  0  0  0
 13 29  1  0  0  0  0
 15 30  1  0  0  0  0
 15 31  1  0  0  0  0
 17 32  1  0  0  0  0
M  END
> <compound>
AGN-NEW-c7b24fe3-1

> <compound_smiles>
C=Cc1c(cccn1)NC(=O)Cc2cccc(c2)Cl

> <enantiomer_smiles>
C=Cc1c(cccn1)NC(=O)Cc2cccc(c2)Cl

> <scaffold>
chlorobenzene-linker

> <clash_score>
0.6248209985777767

> <docking_score>
-7.14807653427124

> <overlap_score>
0.8114041090011597

> <MMFF_internal_energy>
85.05756006881582

> <docked_smiles>
C=Cc1c(cccn1)NC(=O)Cc2cccc(c2)Cl

$$$$
ADA-UNI-f8e79267-10_2
  -OEChem-07262101013D

 41 42  0     1  0  0  0  0  0999 V2000
   11.9780    0.4600   23.9150 C   0  0  0  0  0  0  0  0  0  0  0  0
    4.6077    0.7519   18.6399 C   0  0  0  0  0  0  0  0  0  0  0  0
   10.6560    0.0720   23.7350 C   0  0  0  0  0  0  0  0  0  0  0  0
    5.2608    0.1829   19.7276 C   0  0  0  0  0  0  0  0  0  0  0  0
   12.9840   -0.1200   23.1530 C   0  0  0  0  0  0  0  0  0  0  0  0
   11.3360   -1.5050   22.0650 C   0  0  0  0  0  0  0  0  0  0  0  0
    5.3233    0.9103   17.4641 C   0  0  0  0  0  0  0  0  0  0  0  0
    7.2175   -0.0035   18.3886 C   0  0  0  0  0  0  0  0  0  0  0  0
   10.3220   -0.8940   22.7910 C   0  0  0  0  0  0  0  0  0  0  0  0
    6.5908   -0.2046   19.6079 C   0  0  0  0  0  0  0  0  0  0  0  0
   12.6400   -1.1000   22.2390 C   0  0  0  0  0  0  0  0  0  0  0  0
    8.3880   -0.3240   21.3070 C   0  0  0  0  0  0  0  0  0  0  0  0
    6.3833   -5.4279   24.6357 C   0  0  0  0  0  0  0  0  0  0  0  0
    7.2239   -3.1580   24.0194 C   0  0  0  0  0  0  0  0  0  0  0  0
    8.1409   -2.0504   24.4993 C   0  0  0  0  0  0  0  0  0  0  0  0
    8.8810   -1.1900   22.4510 C   0  0  2  0  0  0  0  0  0  0  0  0
    6.6160    0.5460   17.3098 N   0  0  0  0  0  0  0  0  0  0  0  0
    7.2820   -0.7860   20.6970 N   0  0  0  0  0  0  0  0  0  0  0  0
    7.2700   -4.2852   24.9846 N   0  3  0  0  0  0  0  0  0  0  0  0
    8.9170    0.7530   21.0260 O   0  0  0  0  0  0  0  0  0  0  0  0
    8.0740   -0.9548   23.5995 O   0  0  0  0  0  0  0  0  0  0  0  0
   13.8840   -1.8490   21.2740 Cl  0  0  0  0  0  0  0  0  0  0  0  0
   12.2249    1.2198   24.6546 H   0  0  0  0  0  0  0  0  0  0  0  0
    3.5712    1.0614   18.7105 H   0  0  0  0  0  0  0  0  0  0  0  0
    9.8763    0.5350   24.3454 H   0  0  0  0  0  0  0  0  0  0  0  0
    4.7245    0.0463   20.6629 H   0  0  0  0  0  0  0  0  0  0  0  0
   14.0077    0.1988   23.2842 H   0  0  0  0  0  0  0  0  0  0  0  0
   11.0892   -2.3009   21.3624 H   0  0  0  0  0  0  0  0  0  0  0  0
    4.8594    1.3498   16.5872 H   0  0  0  0  0  0  0  0  0  0  0  0
    8.2547   -0.2857   18.2337 H   0  0  0  0  0  0  0  0  0  0  0  0
    6.6657   -5.7781   23.6412 H   0  0  0  0  0  0  0  0  0  0  0  0
    6.5337   -6.2082   25.3841 H   0  0  0  0  0  0  0  0  0  0  0  0
    5.3531   -5.0669   24.6466 H   0  0  0  0  0  0  0  0  0  0  0  0
    7.5394   -3.5652   23.0546 H   0  0  0  0  0  0  0  0  0  0  0  0
    6.1826   -2.8286   23.9713 H   0  0  0  0  0  0  0  0  0  0  0  0
    7.8159   -1.6992   25.4836 H   0  0  0  0  0  0  0  0  0  0  0  0
    9.1798   -2.3883   24.5719 H   0  0  0  0  0  0  0  0  0  0  0  0
    8.7497   -2.2492   22.1840 H   0  0  0  0  0  0  0  0  0  0  0  0
    6.8826   -1.6525   21.0512 H   0  0  0  0  0  0  0  0  0  0  0  0
    7.0188   -3.9396   25.9219 H   0  0  0  0  0  0  0  0  0  0  0  0
    8.2392   -4.6247   25.0639 H   0  0  0  0  0  0  0  0  0  0  0  0
  1  3  2  0  0  0  0
  1  5  1  0  0  0  0
  2  4  2  0  0  0  0
  2  7  1  0  0  0  0
  3  9  1  0  0  0  0
  4 10  1  0  0  0  0
  5 11  2  0  0  0  0
  6  9  2  0  0  0  0
  6 11  1  0  0  0  0
  7 17  2  0  0  0  0
  8 10  2  0  0  0  0
  8 17  1  0  0  0  0
  9 16  1  0  0  0  0
 10 18  1  0  0  0  0
 11 22  1  0  0  0  0
 12 16  1  6  0  0  0
 12 18  1  0  0  0  0
 12 20  2  0  0  0  0
 13 19  1  0  0  0  0
 14 15  1  0  0  0  0
 14 19  1  0  0  0  0
 15 21  1  0  0  0  0
 16 21  1  0  0  0  0
  1 23  1  0  0  0  0
  2 24  1  0  0  0  0
  3 25  1  0  0  0  0
  4 26  1  0  0  0  0
  5 27  1  0  0  0  0
  6 28  1  0  0  0  0
  7 29  1  0  0  0  0
  8 30  1  0  0  0  0
 13 31  1  0  0  0  0
 13 32  1  0  0  0  0
 13 33  1  0  0  0  0
 14 34  1  0  0  0  0
 14 35  1  0  0  0  0
 15 36  1  0  0  0  0
 15 37  1  0  0  0  0
 16 38  1  0  0  0  0
 18 39  1  0  0  0  0
 19 40  1  0  0  0  0
 19 41  1  0  0  0  0
M  CHG  1  19   1
M  END
> <compound>
ADA-UNI-f8e79267-10

> <compound_smiles>
CNCCOC(c1cccc(c1)Cl)C(=O)Nc2cccnc2

> <enantiomer_smiles>
CNCCO[C@H](c1cccc(c1)Cl)C(=O)Nc2cccnc2

> <scaffold>
chlorobenzene-linker

> <clash_score>
0

> <docking_score>
-9.28940200805664

> <overlap_score>
0.8114692568778992

> <MMFF_internal_energy>
150.82452861353912

> <docked_smiles>
C[NH2+]CCO[C@H](c1cccc(c1)Cl)C(=O)Nc2cccnc2

$$$$
AGN-NEW-c7b24fe3-4_1
  -OEChem-07262101013D

 29 30  0     0  0  0  0  0  0999 V2000
    8.5561   -0.3360   18.1246 C   0  0  0  0  0  0  0  0  0  0  0  0
   11.9780    0.4600   23.9150 C   0  0  0  0  0  0  0  0  0  0  0  0
    4.5824    0.7422   18.6830 C   0  0  0  0  0  0  0  0  0  0  0  0
   10.6560    0.0720   23.7350 C   0  0  0  0  0  0  0  0  0  0  0  0
    5.2598    0.1701   19.7541 C   0  0  0  0  0  0  0  0  0  0  0  0
   12.9840   -0.1200   23.1530 C   0  0  0  0  0  0  0  0  0  0  0  0
   11.3360   -1.5050   22.0650 C   0  0  0  0  0  0  0  0  0  0  0  0
    5.2756    0.9171   17.4961 C   0  0  0  0  0  0  0  0  0  0  0  0
    7.1941    0.0128   18.3793 C   0  0  0  0  0  0  0  0  0  0  0  0
   10.3220   -0.8940   22.7910 C   0  0  0  0  0  0  0  0  0  0  0  0
    6.5908   -0.2043   19.6076 C   0  0  0  0  0  0  0  0  0  0  0  0
   12.6400   -1.1000   22.2390 C   0  0  0  0  0  0  0  0  0  0  0  0
    8.3880   -0.3240   21.3070 C   0  0  0  0  0  0  0  0  0  0  0  0
    8.8810   -1.1900   22.4510 C   0  0  0  0  0  0  0  0  0  0  0  0
    9.6624   -0.6194   17.9179 N   0  0  0  0  0  0  0  0  0  0  0  0
    6.5686    0.5659   17.3160 N   0  0  0  0  0  0  0  0  0  0  0  0
    7.2820   -0.7860   20.6970 N   0  0  0  0  0  0  0  0  0  0  0  0
    8.9170    0.7530   21.0260 O   0  0  0  0  0  0  0  0  0  0  0  0
   13.8840   -1.8490   21.2740 Cl  0  0  0  0  0  0  0  0  0  0  0  0
   12.2249    1.2198   24.6546 H   0  0  0  0  0  0  0  0  0  0  0  0
    3.5445    1.0412   18.7741 H   0  0  0  0  0  0  0  0  0  0  0  0
    9.8763    0.5350   24.3454 H   0  0  0  0  0  0  0  0  0  0  0  0
    4.7402    0.0211   20.6970 H   0  0  0  0  0  0  0  0  0  0  0  0
   14.0077    0.1988   23.2842 H   0  0  0  0  0  0  0  0  0  0  0  0
   11.0892   -2.3009   21.3624 H   0  0  0  0  0  0  0  0  0  0  0  0
    4.7923    1.3583   16.6306 H   0  0  0  0  0  0  0  0  0  0  0  0
    8.7709   -2.2387   22.1706 H   0  0  0  0  0  0  0  0  0  0  0  0
    8.2491   -1.0157   23.3232 H   0  0  0  0  0  0  0  0  0  0  0  0
    6.8973   -1.6552   21.0612 H   0  0  0  0  0  0  0  0  0  0  0  0
  1  9  1  0  0  0  0
  1 15  3  0  0  0  0
  2  4  1  0  0  0  0
  2  6  2  0  0  0  0
  3  5  2  0  0  0  0
  3  8  1  0  0  0  0
  4 10  2  0  0  0  0
  5 11  1  0  0  0  0
  6 12  1  0  0  0  0
  7 10  1  0  0  0  0
  7 12  2  0  0  0  0
  8 16  2  0  0  0  0
  9 11  2  0  0  0  0
  9 16  1  0  0  0  0
 10 14  1  0  0  0  0
 11 17  1  0  0  0  0
 12 19  1  0  0  0  0
 13 14  1  0  0  0  0
 13 17  1  0  0  0  0
 13 18  2  0  0  0  0
  2 20  1  0  0  0  0
  3 21  1  0  0  0  0
  4 22  1  0  0  0  0
  5 23  1  0  0  0  0
  6 24  1  0  0  0  0
  7 25  1  0  0  0  0
  8 26  1  0  0  0  0
 14 27  1  0  0  0  0
 14 28  1  0  0  0  0
 17 29  1  0  0  0  0
M  END
> <compound>
AGN-NEW-c7b24fe3-4

> <compound_smiles>
c1cc(cc(c1)Cl)CC(=O)Nc2cccnc2C#N

> <enantiomer_smiles>
c1cc(cc(c1)Cl)CC(=O)Nc2cccnc2C#N

> <scaffold>
chlorobenzene-linker

> <clash_score>
1.244557686803321

> <docking_score>
-7.4545769691467285

> <overlap_score>
0.811344563961029

> <MMFF_internal_energy>
104.77455217200033

> <docked_smiles>
c1cc(cc(c1)Cl)CC(=O)Nc2cccnc2C#N

$$$$
AGN-NEW-cce853d0-2_1
  -OEChem-07262101013D

 39 40  0     0  0  0  0  0  0999 V2000
   11.9780    0.4600   23.9150 C   0  0  0  0  0  0  0  0  0  0  0  0
    4.8921    1.2736   18.7623 C   0  0  0  0  0  0  0  0  0  0  0  0
   10.6560    0.0720   23.7350 C   0  0  0  0  0  0  0  0  0  0  0  0
    5.5661    0.7068   19.8383 C   0  0  0  0  0  0  0  0  0  0  0  0
   12.9840   -0.1200   23.1530 C   0  0  0  0  0  0  0  0  0  0  0  0
    5.2779    0.8992   17.4853 C   0  0  0  0  0  0  0  0  0  0  0  0
   10.3220   -0.8940   22.7910 C   0  0  0  0  0  0  0  0  0  0  0  0
    6.5908   -0.2043   19.6076 C   0  0  0  0  0  0  0  0  0  0  0  0
   11.3360   -1.5050   22.0650 C   0  0  0  0  0  0  0  0  0  0  0  0
   12.6400   -1.1000   22.2390 C   0  0  0  0  0  0  0  0  0  0  0  0
    6.9004   -0.5127   18.2928 C   0  0  0  0  0  0  0  0  0  0  0  0
    9.5591   -4.7814   19.9212 C   0  0  0  0  0  0  0  0  0  0  0  0
   10.8824   -4.6366   20.0425 C   0  0  0  0  0  0  0  0  0  0  0  0
   11.4598   -3.8569   21.1756 C   0  0  0  0  0  0  0  0  0  0  0  0
    8.3880   -0.3240   21.3070 C   0  0  0  0  0  0  0  0  0  0  0  0
    7.9932   -1.4833   17.9805 C   0  0  0  0  0  0  0  0  0  0  0  0
    8.8810   -1.1900   22.4510 C   0  0  0  0  0  0  0  0  0  0  0  0
    6.2682    0.0175   17.2219 N   0  0  0  0  0  0  0  0  0  0  0  0
   11.0129   -2.5316   21.1656 N   0  0  0  0  0  0  0  0  0  0  0  0
    7.2820   -0.7860   20.6970 N   0  0  0  0  0  0  0  0  0  0  0  0
   12.2255   -4.3761   21.9791 O   0  0  0  0  0  0  0  0  0  0  0  0
    8.9170    0.7530   21.0260 O   0  0  0  0  0  0  0  0  0  0  0  0
   13.8840   -1.8490   21.2740 Cl  0  0  0  0  0  0  0  0  0  0  0  0
   12.2251    1.2205   24.6538 H   0  0  0  0  0  0  0  0  0  0  0  0
    4.0899    1.9858   18.9191 H   0  0  0  0  0  0  0  0  0  0  0  0
    9.8774    0.5351   24.3467 H   0  0  0  0  0  0  0  0  0  0  0  0
    5.2850    0.9831   20.8512 H   0  0  0  0  0  0  0  0  0  0  0  0
   14.0071    0.1991   23.2875 H   0  0  0  0  0  0  0  0  0  0  0  0
    4.7826    1.3126   16.6128 H   0  0  0  0  0  0  0  0  0  0  0  0
    9.1036   -5.3406   19.1116 H   0  0  0  0  0  0  0  0  0  0  0  0
    8.8950   -4.3295   20.6506 H   0  0  0  0  0  0  0  0  0  0  0  0
   11.5469   -5.0883   19.3140 H   0  0  0  0  0  0  0  0  0  0  0  0
    7.5908   -2.5009   17.9223 H   0  0  0  0  0  0  0  0  0  0  0  0
    8.4753   -1.2419   17.0256 H   0  0  0  0  0  0  0  0  0  0  0  0
    8.7751   -1.4589   18.7491 H   0  0  0  0  0  0  0  0  0  0  0  0
    8.7723   -2.2386   22.1712 H   0  0  0  0  0  0  0  0  0  0  0  0
    8.2505   -1.0156   23.3237 H   0  0  0  0  0  0  0  0  0  0  0  0
   10.3723   -2.2780   20.4066 H   0  0  0  0  0  0  0  0  0  0  0  0
    6.8973   -1.6552   21.0612 H   0  0  0  0  0  0  0  0  0  0  0  0
  1  3  2  0  0  0  0
  1  5  1  0  0  0  0
  2  4  1  0  0  0  0
  2  6  2  0  0  0  0
  3  7  1  0  0  0  0
  4  8  2  0  0  0  0
  5 10  2  0  0  0  0
  6 18  1  0  0  0  0
  7  9  2  0  0  0  0
  7 17  1  0  0  0  0
  8 11  1  0  0  0  0
  8 20  1  0  0  0  0
  9 10  1  0  0  0  0
  9 19  1  0  0  0  0
 10 23  1  0  0  0  0
 11 16  1  0  0  0  0
 11 18  2  0  0  0  0
 12 13  2  0  0  0  0
 13 14  1  0  0  0  0
 14 19  1  0  0  0  0
 14 21  2  0  0  0  0
 15 17  1  0  0  0  0
 15 20  1  0  0  0  0
 15 22  2  0  0  0  0
  1 24  1  0  0  0  0
  2 25  1  0  0  0  0
  3 26  1  0  0  0  0
  4 27  1  0  0  0  0
  5 28  1  0  0  0  0
  6 29  1  0  0  0  0
 12 30  1  0  0  0  0
 12 31  1  0  0  0  0
 13 32  1  0  0  0  0
 16 33  1  0  0  0  0
 16 34  1  0  0  0  0
 16 35  1  0  0  0  0
 17 36  1  0  0  0  0
 17 37  1  0  0  0  0
 19 38  1  0  0  0  0
 20 39  1  0  0  0  0
M  END
> <compound>
AGN-NEW-cce853d0-2

> <compound_smiles>
Cc1c(cccn1)NC(=O)Cc2cccc(c2NC(=O)C=C)Cl

> <enantiomer_smiles>
Cc1c(cccn1)NC(=O)Cc2cccc(c2NC(=O)C=C)Cl

> <scaffold>
chlorobenzene-linker

> <clash_score>
8.965833723391157

> <docking_score>
-5.490439414978027

> <overlap_score>
0.8297322988510132

> <MMFF_internal_energy>
95.11452015677862

> <docked_smiles>
Cc1c(cccn1)NC(=O)Cc2cccc(c2NC(=O)C=C)Cl

$$$$
ADA-UNI-f8e79267-7_1
  -OEChem-07262101013D

 43 44  0     1  0  0  0  0  0999 V2000
   11.9780    0.4600   23.9150 C   0  0  0  0  0  0  0  0  0  0  0  0
    6.3316    1.5281   17.9602 C   0  0  0  0  0  0  0  0  0  0  0  0
   10.6560    0.0720   23.7350 C   0  0  0  0  0  0  0  0  0  0  0  0
    7.0314    0.9806   19.0296 C   0  0  0  0  0  0  0  0  0  0  0  0
   12.9840   -0.1200   23.1530 C   0  0  0  0  0  0  0  0  0  0  0  0
   11.3360   -1.5050   22.0650 C   0  0  0  0  0  0  0  0  0  0  0  0
    5.2062    0.8568   17.5098 C   0  0  0  0  0  0  0  0  0  0  0  0
    5.4537   -0.7982   19.0839 C   0  0  0  0  0  0  0  0  0  0  0  0
   10.3220   -0.8940   22.7910 C   0  0  0  0  0  0  0  0  0  0  0  0
    6.5908   -0.2046   19.6079 C   0  0  0  0  0  0  0  0  0  0  0  0
   12.6400   -1.1000   22.2390 C   0  0  0  0  0  0  0  0  0  0  0  0
    8.3880   -0.3240   21.3070 C   0  0  0  0  0  0  0  0  0  0  0  0
    6.0304   -6.0483   26.5863 C   0  0  0  0  0  0  0  0  0  0  0  0
    7.3187   -3.3802   23.8238 C   0  0  0  0  0  0  0  0  0  0  0  0
    8.7232   -3.3944   23.2486 C   0  0  0  0  0  0  0  0  0  0  0  0
    8.8810   -1.1900   22.4510 C   0  0  1  0  0  0  0  0  0  0  0  0
    4.7476   -0.2963   18.0460 N   0  0  0  0  0  0  0  0  0  0  0  0
    7.2820   -0.7860   20.6970 N   0  0  0  0  0  0  0  0  0  0  0  0
    7.2560   -4.2699   24.9973 N   0  0  0  0  0  0  0  0  0  0  0  0
    8.9170    0.7530   21.0260 O   0  0  0  0  0  0  0  0  0  0  0  0
    4.6957   -4.6134   24.8514 O   0  0  0  0  0  0  0  0  0  0  0  0
    5.6902   -3.4775   26.8706 O   0  0  0  0  0  0  0  0  0  0  0  0
    8.7700   -2.5628   22.0961 O   0  0  0  0  0  0  0  0  0  0  0  0
    5.7700   -4.4678   25.8140 S   0  0  0  0  0  0  0  0  0  0  0  0
   13.8840   -1.8490   21.2740 Cl  0  0  0  0  0  0  0  0  0  0  0  0
   12.2249    1.2198   24.6546 H   0  0  0  0  0  0  0  0  0  0  0  0
    6.6569    2.4511   17.4939 H   0  0  0  0  0  0  0  0  0  0  0  0
    9.8763    0.5350   24.3454 H   0  0  0  0  0  0  0  0  0  0  0  0
    7.9181    1.4853   19.4042 H   0  0  0  0  0  0  0  0  0  0  0  0
   14.0077    0.1988   23.2842 H   0  0  0  0  0  0  0  0  0  0  0  0
   11.0892   -2.3009   21.3624 H   0  0  0  0  0  0  0  0  0  0  0  0
    4.6261    1.2423   16.6779 H   0  0  0  0  0  0  0  0  0  0  0  0
    5.0608   -1.7243   19.4929 H   0  0  0  0  0  0  0  0  0  0  0  0
    5.1358   -6.3049   27.1558 H   0  0  0  0  0  0  0  0  0  0  0  0
    6.2114   -6.7877   25.8047 H   0  0  0  0  0  0  0  0  0  0  0  0
    6.8952   -5.9703   27.2469 H   0  0  0  0  0  0  0  0  0  0  0  0
    7.0300   -2.3732   24.1410 H   0  0  0  0  0  0  0  0  0  0  0  0
    6.5999   -3.7422   23.0824 H   0  0  0  0  0  0  0  0  0  0  0  0
    8.9929   -4.4102   22.9434 H   0  0  0  0  0  0  0  0  0  0  0  0
    9.4590   -3.0325   23.9741 H   0  0  0  0  0  0  0  0  0  0  0  0
    8.2397   -1.0344   23.3287 H   0  0  0  0  0  0  0  0  0  0  0  0
    6.8826   -1.6525   21.0512 H   0  0  0  0  0  0  0  0  0  0  0  0
    8.1064   -4.2586   25.5753 H   0  0  0  0  0  0  0  0  0  0  0  0
  1  3  2  0  0  0  0
  1  5  1  0  0  0  0
  2  4  2  0  0  0  0
  2  7  1  0  0  0  0
  3  9  1  0  0  0  0
  4 10  1  0  0  0  0
  5 11  2  0  0  0  0
  6  9  2  0  0  0  0
  6 11  1  0  0  0  0
  7 17  2  0  0  0  0
  8 10  2  0  0  0  0
  8 17  1  0  0  0  0
  9 16  1  0  0  0  0
 10 18  1  0  0  0  0
 11 25  1  0  0  0  0
 12 16  1  1  0  0  0
 12 18  1  0  0  0  0
 12 20  2  0  0  0  0
 13 24  1  0  0  0  0
 14 15  1  0  0  0  0
 14 19  1  0  0  0  0
 15 23  1  0  0  0  0
 16 23  1  0  0  0  0
 19 24  1  0  0  0  0
 21 24  2  0  0  0  0
 22 24  2  0  0  0  0
  1 26  1  0  0  0  0
  2 27  1  0  0  0  0
  3 28  1  0  0  0  0
  4 29  1  0  0  0  0
  5 30  1  0  0  0  0
  6 31  1  0  0  0  0
  7 32  1  0  0  0  0
  8 33  1  0  0  0  0
 13 34  1  0  0  0  0
 13 35  1  0  0  0  0
 13 36  1  0  0  0  0
 14 37  1  0  0  0  0
 14 38  1  0  0  0  0
 15 39  1  0  0  0  0
 15 40  1  0  0  0  0
 16 41  1  0  0  0  0
 18 42  1  0  0  0  0
 19 43  1  0  0  0  0
M  END
> <compound>
ADA-UNI-f8e79267-7

> <compound_smiles>
CS(=O)(=O)NCCOC(c1cccc(c1)Cl)C(=O)Nc2cccnc2

> <enantiomer_smiles>
CS(=O)(=O)NCCO[C@@H](c1cccc(c1)Cl)C(=O)Nc2cccnc2

> <scaffold>
chlorobenzene-linker

> <clash_score>
0

> <docking_score>
-4.241889953613281

> <overlap_score>
0.7501997351646423

> <MMFF_internal_energy>
48.31421015660567

> <docked_smiles>
CS(=O)(=O)NCCO[C@@H](c1cccc(c1)Cl)C(=O)Nc2cccnc2

$$$$
ADA-UNI-f8e79267-7_2
  -OEChem-07262101013D

 43 44  0     1  0  0  0  0  0999 V2000
   11.9780    0.4600   23.9150 C   0  0  0  0  0  0  0  0  0  0  0  0
    6.5568    1.1092   17.5937 C   0  0  0  0  0  0  0  0  0  0  0  0
   10.6560    0.0720   23.7350 C   0  0  0  0  0  0  0  0  0  0  0  0
    7.2629    0.5504   18.6531 C   0  0  0  0  0  0  0  0  0  0  0  0
   12.9840   -0.1200   23.1530 C   0  0  0  0  0  0  0  0  0  0  0  0
   11.3360   -1.5050   22.0650 C   0  0  0  0  0  0  0  0  0  0  0  0
    5.1907    0.8852   17.5348 C   0  0  0  0  0  0  0  0  0  0  0  0
    5.2232   -0.3697   19.4589 C   0  0  0  0  0  0  0  0  0  0  0  0
   10.3220   -0.8940   22.7910 C   0  0  0  0  0  0  0  0  0  0  0  0
    6.5908   -0.2046   19.6079 C   0  0  0  0  0  0  0  0  0  0  0  0
   12.6400   -1.1000   22.2390 C   0  0  0  0  0  0  0  0  0  0  0  0
    8.3880   -0.3240   21.3070 C   0  0  0  0  0  0  0  0  0  0  0  0
    6.2329   -5.3227   24.9939 C   0  0  0  0  0  0  0  0  0  0  0  0
    6.9495   -1.9968   25.4471 C   0  0  0  0  0  0  0  0  0  0  0  0
    8.1456   -2.0490   24.5141 C   0  0  0  0  0  0  0  0  0  0  0  0
    8.8810   -1.1900   22.4510 C   0  0  2  0  0  0  0  0  0  0  0  0
    4.5032    0.1575   18.4433 N   0  0  0  0  0  0  0  0  0  0  0  0
    7.2820   -0.7860   20.6970 N   0  0  0  0  0  0  0  0  0  0  0  0
    6.9896   -3.1476   26.3672 N   0  0  0  0  0  0  0  0  0  0  0  0
    8.9170    0.7530   21.0260 O   0  0  0  0  0  0  0  0  0  0  0  0
    4.4821   -3.6257   25.9452 O   0  0  0  0  0  0  0  0  0  0  0  0
    5.7769   -5.0758   27.5506 O   0  0  0  0  0  0  0  0  0  0  0  0
    8.0836   -0.9571   23.6054 O   0  0  0  0  0  0  0  0  0  0  0  0
    5.7137   -4.2816   26.3387 S   0  0  0  0  0  0  0  0  0  0  0  0
   13.8840   -1.8490   21.2740 Cl  0  0  0  0  0  0  0  0  0  0  0  0
   12.2249    1.2198   24.6546 H   0  0  0  0  0  0  0  0  0  0  0  0
    7.0600    1.7014   16.8379 H   0  0  0  0  0  0  0  0  0  0  0  0
    9.8763    0.5350   24.3454 H   0  0  0  0  0  0  0  0  0  0  0  0
    8.3356    0.7094   18.7251 H   0  0  0  0  0  0  0  0  0  0  0  0
   14.0077    0.1988   23.2842 H   0  0  0  0  0  0  0  0  0  0  0  0
   11.0892   -2.3009   21.3624 H   0  0  0  0  0  0  0  0  0  0  0  0
    4.5949    1.2986   16.7277 H   0  0  0  0  0  0  0  0  0  0  0  0
    4.6434   -0.9483   20.1720 H   0  0  0  0  0  0  0  0  0  0  0  0
    5.4900   -6.1109   24.8619 H   0  0  0  0  0  0  0  0  0  0  0  0
    6.3059   -4.7112   24.0933 H   0  0  0  0  0  0  0  0  0  0  0  0
    7.2043   -5.7510   25.2454 H   0  0  0  0  0  0  0  0  0  0  0  0
    6.9520   -1.0797   26.0446 H   0  0  0  0  0  0  0  0  0  0  0  0
    6.0180   -2.0494   24.8754 H   0  0  0  0  0  0  0  0  0  0  0  0
    8.1261   -2.9751   23.9312 H   0  0  0  0  0  0  0  0  0  0  0  0
    9.0894   -1.9945   25.0663 H   0  0  0  0  0  0  0  0  0  0  0  0
    8.7586   -2.2486   22.1865 H   0  0  0  0  0  0  0  0  0  0  0  0
    6.8826   -1.6525   21.0512 H   0  0  0  0  0  0  0  0  0  0  0  0
    7.9352   -3.5158   26.5338 H   0  0  0  0  0  0  0  0  0  0  0  0
  1  3  2  0  0  0  0
  1  5  1  0  0  0  0
  2  4  2  0  0  0  0
  2  7  1  0  0  0  0
  3  9  1  0  0  0  0
  4 10  1  0  0  0  0
  5 11  2  0  0  0  0
  6  9  2  0  0  0  0
  6 11  1  0  0  0  0
  7 17  2  0  0  0  0
  8 10  2  0  0  0  0
  8 17  1  0  0  0  0
  9 16  1  0  0  0  0
 10 18  1  0  0  0  0
 11 25  1  0  0  0  0
 12 16  1  6  0  0  0
 12 18  1  0  0  0  0
 12 20  2  0  0  0  0
 13 24  1  0  0  0  0
 14 15  1  0  0  0  0
 14 19  1  0  0  0  0
 15 23  1  0  0  0  0
 16 23  1  0  0  0  0
 19 24  1  0  0  0  0
 21 24  2  0  0  0  0
 22 24  2  0  0  0  0
  1 26  1  0  0  0  0
  2 27  1  0  0  0  0
  3 28  1  0  0  0  0
  4 29  1  0  0  0  0
  5 30  1  0  0  0  0
  6 31  1  0  0  0  0
  7 32  1  0  0  0  0
  8 33  1  0  0  0  0
 13 34  1  0  0  0  0
 13 35  1  0  0  0  0
 13 36  1  0  0  0  0
 14 37  1  0  0  0  0
 14 38  1  0  0  0  0
 15 39  1  0  0  0  0
 15 40  1  0  0  0  0
 16 41  1  0  0  0  0
 18 42  1  0  0  0  0
 19 43  1  0  0  0  0
M  END
> <compound>
ADA-UNI-f8e79267-7

> <compound_smiles>
CS(=O)(=O)NCCOC(c1cccc(c1)Cl)C(=O)Nc2cccnc2

> <enantiomer_smiles>
CS(=O)(=O)NCCO[C@H](c1cccc(c1)Cl)C(=O)Nc2cccnc2

> <scaffold>
chlorobenzene-linker

> <clash_score>
0

> <docking_score>
-4.70521354675293

> <overlap_score>
0.7715965509414673

> <MMFF_internal_energy>
54.946287711692

> <docked_smiles>
CS(=O)(=O)NCCO[C@H](c1cccc(c1)Cl)C(=O)Nc2cccnc2

$$$$
AGN-NEW-c7b24fe3-5_1
  -OEChem-07262101013D

 30 31  0     0  0  0  0  0  0999 V2000
    9.7006   -0.6295   17.9105 C   0  0  0  0  0  0  0  0  0  0  0  0
    8.5561   -0.3360   18.1246 C   0  0  0  0  0  0  0  0  0  0  0  0
   11.9780    0.4600   23.9150 C   0  0  0  0  0  0  0  0  0  0  0  0
    4.5824    0.7422   18.6830 C   0  0  0  0  0  0  0  0  0  0  0  0
   10.6560    0.0720   23.7350 C   0  0  0  0  0  0  0  0  0  0  0  0
    5.2598    0.1701   19.7541 C   0  0  0  0  0  0  0  0  0  0  0  0
   12.9840   -0.1200   23.1530 C   0  0  0  0  0  0  0  0  0  0  0  0
   11.3360   -1.5050   22.0650 C   0  0  0  0  0  0  0  0  0  0  0  0
    5.2756    0.9171   17.4961 C   0  0  0  0  0  0  0  0  0  0  0  0
    7.1941    0.0128   18.3793 C   0  0  0  0  0  0  0  0  0  0  0  0
   10.3220   -0.8940   22.7910 C   0  0  0  0  0  0  0  0  0  0  0  0
    6.5908   -0.2043   19.6076 C   0  0  0  0  0  0  0  0  0  0  0  0
   12.6400   -1.1000   22.2390 C   0  0  0  0  0  0  0  0  0  0  0  0
    8.3880   -0.3240   21.3070 C   0  0  0  0  0  0  0  0  0  0  0  0
    8.8810   -1.1900   22.4510 C   0  0  0  0  0  0  0  0  0  0  0  0
    6.5686    0.5659   17.3160 N   0  0  0  0  0  0  0  0  0  0  0  0
    7.2820   -0.7860   20.6970 N   0  0  0  0  0  0  0  0  0  0  0  0
    8.9170    0.7530   21.0260 O   0  0  0  0  0  0  0  0  0  0  0  0
   13.8840   -1.8490   21.2740 Cl  0  0  0  0  0  0  0  0  0  0  0  0
   10.7155   -0.8902   17.7207 H   0  0  0  0  0  0  0  0  0  0  0  0
   12.2249    1.2198   24.6546 H   0  0  0  0  0  0  0  0  0  0  0  0
    3.5445    1.0412   18.7741 H   0  0  0  0  0  0  0  0  0  0  0  0
    9.8763    0.5350   24.3454 H   0  0  0  0  0  0  0  0  0  0  0  0
    4.7402    0.0211   20.6970 H   0  0  0  0  0  0  0  0  0  0  0  0
   14.0077    0.1988   23.2842 H   0  0  0  0  0  0  0  0  0  0  0  0
   11.0892   -2.3009   21.3624 H   0  0  0  0  0  0  0  0  0  0  0  0
    4.7923    1.3583   16.6306 H   0  0  0  0  0  0  0  0  0  0  0  0
    8.7709   -2.2387   22.1706 H   0  0  0  0  0  0  0  0  0  0  0  0
    8.2491   -1.0157   23.3232 H   0  0  0  0  0  0  0  0  0  0  0  0
    6.8973   -1.6552   21.0612 H   0  0  0  0  0  0  0  0  0  0  0  0
  1  2  3  0  0  0  0
  2 10  1  0  0  0  0
  3  5  2  0  0  0  0
  3  7  1  0  0  0  0
  4  6  1  0  0  0  0
  4  9  2  0  0  0  0
  5 11  1  0  0  0  0
  6 12  2  0  0  0  0
  7 13  2  0  0  0  0
  8 11  2  0  0  0  0
  8 13  1  0  0  0  0
  9 16  1  0  0  0  0
 10 12  1  0  0  0  0
 10 16  2  0  0  0  0
 11 15  1  0  0  0  0
 12 17  1  0  0  0  0
 13 19  1  0  0  0  0
 14 15  1  0  0  0  0
 14 17  1  0  0  0  0
 14 18  2  0  0  0  0
  1 20  1  0  0  0  0
  3 21  1  0  0  0  0
  4 22  1  0  0  0  0
  5 23  1  0  0  0  0
  6 24  1  0  0  0  0
  7 25  1  0  0  0  0
  8 26  1  0  0  0  0
  9 27  1  0  0  0  0
 15 28  1  0  0  0  0
 15 29  1  0  0  0  0
 17 30  1  0  0  0  0
M  END
> <compound>
AGN-NEW-c7b24fe3-5

> <compound_smiles>
C#Cc1c(cccn1)NC(=O)Cc2cccc(c2)Cl

> <enantiomer_smiles>
C#Cc1c(cccn1)NC(=O)Cc2cccc(c2)Cl

> <scaffold>
chlorobenzene-linker

> <clash_score>
1.262153496968646

> <docking_score>
-7.392298698425293

> <overlap_score>
0.811273992061615

> <MMFF_internal_energy>
81.04604330094637

> <docked_smiles>
C#Cc1c(cccn1)NC(=O)Cc2cccc(c2)Cl

$$$$
JAN-GHE-83b26c96-1_2
  -OEChem-07262101013D

 36 37  0     1  0  0  0  0  0999 V2000
   11.9780    0.4600   23.9150 C   0  0  0  0  0  0  0  0  0  0  0  0
   10.6560    0.0720   23.7350 C   0  0  0  0  0  0  0  0  0  0  0  0
   12.9840   -0.1200   23.1530 C   0  0  0  0  0  0  0  0  0  0  0  0
   11.3360   -1.5050   22.0650 C   0  0  0  0  0  0  0  0  0  0  0  0
    5.0147    1.2812   18.6887 C   0  0  0  0  0  0  0  0  0  0  0  0
    6.9736   -0.5053   18.3249 C   0  0  0  0  0  0  0  0  0  0  0  0
   10.3220   -0.8940   22.7910 C   0  0  0  0  0  0  0  0  0  0  0  0
    5.6103    0.7383   19.8094 C   0  0  0  0  0  0  0  0  0  0  0  0
    6.6234   -0.1854   19.6213 C   0  0  0  0  0  0  0  0  0  0  0  0
   12.6400   -1.1000   22.2390 C   0  0  0  0  0  0  0  0  0  0  0  0
    8.3880   -0.3240   21.3070 C   0  0  0  0  0  0  0  0  0  0  0  0
    5.1573    1.1513   21.1673 C   0  0  0  0  0  0  0  0  0  0  0  0
    8.3237   -1.9869   24.8313 C   0  0  0  0  0  0  0  0  0  0  0  0
    7.9456   -1.0591   23.6834 C   0  0  0  0  0  0  0  0  0  0  0  0
    8.8810   -1.1900   22.4510 C   0  0  2  0  0  0  0  0  0  0  0  0
    5.3778    0.9497   17.4315 N   0  0  0  0  0  0  0  0  0  0  0  0
    6.3732    0.0415   17.2467 N   0  0  0  0  0  0  0  0  0  0  0  0
    7.2820   -0.7860   20.6970 N   0  0  0  0  0  0  0  0  0  0  0  0
    8.9170    0.7530   21.0260 O   0  0  0  0  0  0  0  0  0  0  0  0
   13.8840   -1.8490   21.2740 Cl  0  0  0  0  0  0  0  0  0  0  0  0
   12.2249    1.2198   24.6546 H   0  0  0  0  0  0  0  0  0  0  0  0
    9.8763    0.5350   24.3454 H   0  0  0  0  0  0  0  0  0  0  0  0
   14.0077    0.1988   23.2842 H   0  0  0  0  0  0  0  0  0  0  0  0
   11.0892   -2.3009   21.3624 H   0  0  0  0  0  0  0  0  0  0  0  0
    4.2153    2.0103   18.7604 H   0  0  0  0  0  0  0  0  0  0  0  0
    7.7576   -1.2206   18.1007 H   0  0  0  0  0  0  0  0  0  0  0  0
    4.3480    0.4977   21.5168 H   0  0  0  0  0  0  0  0  0  0  0  0
    5.9790    1.1047   21.8945 H   0  0  0  0  0  0  0  0  0  0  0  0
    4.7917    2.1871   21.1691 H   0  0  0  0  0  0  0  0  0  0  0  0
    9.3469   -1.7788   25.1601 H   0  0  0  0  0  0  0  0  0  0  0  0
    8.2786   -3.0377   24.5298 H   0  0  0  0  0  0  0  0  0  0  0  0
    7.6578   -1.8433   25.6882 H   0  0  0  0  0  0  0  0  0  0  0  0
    6.9174   -1.2943   23.3796 H   0  0  0  0  0  0  0  0  0  0  0  0
    7.9269   -0.0254   24.0497 H   0  0  0  0  0  0  0  0  0  0  0  0
    8.7969   -2.2428   22.1167 H   0  0  0  0  0  0  0  0  0  0  0  0
    6.8881   -1.6542   21.0522 H   0  0  0  0  0  0  0  0  0  0  0  0
  1  2  2  0  0  0  0
  1  3  1  0  0  0  0
  2  7  1  0  0  0  0
  3 10  2  0  0  0  0
  4  7  2  0  0  0  0
  4 10  1  0  0  0  0
  5  8  1  0  0  0  0
  5 16  2  0  0  0  0
  6  9  1  0  0  0  0
  6 17  2  0  0  0  0
  7 15  1  0  0  0  0
  8  9  2  0  0  0  0
  8 12  1  0  0  0  0
  9 18  1  0  0  0  0
 10 20  1  0  0  0  0
 11 15  1  0  0  0  0
 11 18  1  0  0  0  0
 11 19  2  0  0  0  0
 13 14  1  0  0  0  0
 14 15  1  6  0  0  0
 16 17  1  0  0  0  0
  1 21  1  0  0  0  0
  2 22  1  0  0  0  0
  3 23  1  0  0  0  0
  4 24  1  0  0  0  0
  5 25  1  0  0  0  0
  6 26  1  0  0  0  0
 12 27  1  0  0  0  0
 12 28  1  0  0  0  0
 12 29  1  0  0  0  0
 13 30  1  0  0  0  0
 13 31  1  0  0  0  0
 13 32  1  0  0  0  0
 14 33  1  0  0  0  0
 14 34  1  0  0  0  0
 15 35  1  0  0  0  0
 18 36  1  0  0  0  0
M  END
> <compound>
JAN-GHE-83b26c96-1

> <compound_smiles>
CCC(c1cccc(c1)Cl)C(=O)Nc2cnncc2C

> <enantiomer_smiles>
CC[C@H](c1cccc(c1)Cl)C(=O)Nc2cnncc2C

> <scaffold>
chlorobenzene-linker

> <clash_score>
0

> <docking_score>
-10.726192474365234

> <overlap_score>
0.8703824877738953

> <MMFF_internal_energy>
79.96190000174644

> <docked_smiles>
CC[C@H](c1cccc(c1)Cl)C(=O)Nc2cnncc2C

$$$$
JAN-GHE-83b26c96-2_1
  -OEChem-07262101013D

 38 39  0     1  0  0  0  0  0999 V2000
   11.9780    0.4600   23.9150 C   0  0  0  0  0  0  0  0  0  0  0  0
   10.6560    0.0720   23.7350 C   0  0  0  0  0  0  0  0  0  0  0  0
   12.9840   -0.1200   23.1530 C   0  0  0  0  0  0  0  0  0  0  0  0
    4.9152    1.2538   18.6857 C   0  0  0  0  0  0  0  0  0  0  0  0
   11.3360   -1.5050   22.0650 C   0  0  0  0  0  0  0  0  0  0  0  0
    5.3304    0.8470   17.4280 C   0  0  0  0  0  0  0  0  0  0  0  0
    6.9303   -0.5468   18.3088 C   0  0  0  0  0  0  0  0  0  0  0  0
   10.3220   -0.8940   22.7910 C   0  0  0  0  0  0  0  0  0  0  0  0
    5.5622    0.7129   19.7912 C   0  0  0  0  0  0  0  0  0  0  0  0
    6.5902   -0.2052   19.6078 C   0  0  0  0  0  0  0  0  0  0  0  0
   12.6400   -1.1000   22.2390 C   0  0  0  0  0  0  0  0  0  0  0  0
    4.1557    2.0114   21.4222 C   0  0  0  0  0  0  0  0  0  0  0  0
    8.3880   -0.3240   21.3070 C   0  0  0  0  0  0  0  0  0  0  0  0
    4.0371    2.1622   22.9181 C   0  0  0  0  0  0  0  0  0  0  0  0
    8.6719   -2.6843   22.1478 C   0  0  0  0  0  0  0  0  0  0  0  0
    8.8810   -1.1900   22.4510 C   0  0  1  0  0  0  0  0  0  0  0  0
    6.3248   -0.0425   17.2102 N   0  0  0  0  0  0  0  0  0  0  0  0
    5.1638    1.1056   21.0721 N   0  0  0  0  0  0  0  0  0  0  0  0
    7.2820   -0.7860   20.6970 N   0  0  0  0  0  0  0  0  0  0  0  0
    3.4192    2.6380   20.6674 O   0  0  0  0  0  0  0  0  0  0  0  0
    8.9170    0.7530   21.0260 O   0  0  0  0  0  0  0  0  0  0  0  0
   13.8840   -1.8490   21.2740 Cl  0  0  0  0  0  0  0  0  0  0  0  0
   12.2249    1.2198   24.6546 H   0  0  0  0  0  0  0  0  0  0  0  0
    9.8763    0.5350   24.3454 H   0  0  0  0  0  0  0  0  0  0  0  0
   14.0077    0.1988   23.2842 H   0  0  0  0  0  0  0  0  0  0  0  0
    4.1092    1.9725   18.7919 H   0  0  0  0  0  0  0  0  0  0  0  0
   11.0892   -2.3009   21.3624 H   0  0  0  0  0  0  0  0  0  0  0  0
    4.8580    1.2402   16.5338 H   0  0  0  0  0  0  0  0  0  0  0  0
    7.7244   -1.2579   18.1009 H   0  0  0  0  0  0  0  0  0  0  0  0
    4.6911    2.9685   23.2619 H   0  0  0  0  0  0  0  0  0  0  0  0
    4.3347    1.2311   23.4087 H   0  0  0  0  0  0  0  0  0  0  0  0
    3.0020    2.3892   23.1895 H   0  0  0  0  0  0  0  0  0  0  0  0
    9.2843   -3.0131   21.3007 H   0  0  0  0  0  0  0  0  0  0  0  0
    8.9296   -3.3200   23.0024 H   0  0  0  0  0  0  0  0  0  0  0  0
    7.6214   -2.8709   21.8984 H   0  0  0  0  0  0  0  0  0  0  0  0
    8.2360   -0.9649   23.3210 H   0  0  0  0  0  0  0  0  0  0  0  0
    5.6702    0.6788   21.8550 H   0  0  0  0  0  0  0  0  0  0  0  0
    6.8824   -1.6524   21.0513 H   0  0  0  0  0  0  0  0  0  0  0  0
  1  2  2  0  0  0  0
  1  3  1  0  0  0  0
  2  8  1  0  0  0  0
  3 11  2  0  0  0  0
  4  6  2  0  0  0  0
  4  9  1  0  0  0  0
  5  8  2  0  0  0  0
  5 11  1  0  0  0  0
  6 17  1  0  0  0  0
  7 10  1  0  0  0  0
  7 17  2  0  0  0  0
  8 16  1  0  0  0  0
  9 10  2  0  0  0  0
  9 18  1  0  0  0  0
 10 19  1  0  0  0  0
 11 22  1  0  0  0  0
 12 14  1  0  0  0  0
 12 18  1  0  0  0  0
 12 20  2  0  0  0  0
 13 16  1  0  0  0  0
 13 19  1  0  0  0  0
 13 21  2  0  0  0  0
 15 16  1  1  0  0  0
  1 23  1  0  0  0  0
  2 24  1  0  0  0  0
  3 25  1  0  0  0  0
  4 26  1  0  0  0  0
  5 27  1  0  0  0  0
  6 28  1  0  0  0  0
  7 29  1  0  0  0  0
 14 30  1  0  0  0  0
 14 31  1  0  0  0  0
 14 32  1  0  0  0  0
 15 33  1  0  0  0  0
 15 34  1  0  0  0  0
 15 35  1  0  0  0  0
 16 36  1  0  0  0  0
 18 37  1  0  0  0  0
 19 38  1  0  0  0  0
M  END
> <compound>
JAN-GHE-83b26c96-2

> <compound_smiles>
CC(c1cccc(c1)Cl)C(=O)Nc2cnccc2NC(=O)C

> <enantiomer_smiles>
C[C@@H](c1cccc(c1)Cl)C(=O)Nc2cnccc2NC(=O)C

> <scaffold>
chlorobenzene-linker

> <clash_score>
0

> <docking_score>
-10.191350936889648

> <overlap_score>
0.9619635343551636

> <MMFF_internal_energy>
74.4657028536799

> <docked_smiles>
C[C@@H](c1cccc(c1)Cl)C(=O)Nc2cnccc2NC(=O)C

$$$$
JAN-GHE-83b26c96-1_1
  -OEChem-07262101013D

 36 37  0     1  0  0  0  0  0999 V2000
   11.9780    0.4600   23.9150 C   0  0  0  0  0  0  0  0  0  0  0  0
   10.6560    0.0720   23.7350 C   0  0  0  0  0  0  0  0  0  0  0  0
   12.9840   -0.1200   23.1530 C   0  0  0  0  0  0  0  0  0  0  0  0
   11.3360   -1.5050   22.0650 C   0  0  0  0  0  0  0  0  0  0  0  0
    5.0148    1.2812   18.6887 C   0  0  0  0  0  0  0  0  0  0  0  0
    6.9736   -0.5053   18.3249 C   0  0  0  0  0  0  0  0  0  0  0  0
   10.3220   -0.8940   22.7910 C   0  0  0  0  0  0  0  0  0  0  0  0
    5.6103    0.7383   19.8094 C   0  0  0  0  0  0  0  0  0  0  0  0
    6.6234   -0.1854   19.6213 C   0  0  0  0  0  0  0  0  0  0  0  0
   12.6400   -1.1000   22.2390 C   0  0  0  0  0  0  0  0  0  0  0  0
    8.3880   -0.3240   21.3070 C   0  0  0  0  0  0  0  0  0  0  0  0
    5.1573    1.1513   21.1673 C   0  0  0  0  0  0  0  0  0  0  0  0
    9.0183   -3.6036   23.2963 C   0  0  0  0  0  0  0  0  0  0  0  0
    8.6424   -2.6911   22.1355 C   0  0  0  0  0  0  0  0  0  0  0  0
    8.8810   -1.1900   22.4510 C   0  0  1  0  0  0  0  0  0  0  0  0
    5.3778    0.9497   17.4315 N   0  0  0  0  0  0  0  0  0  0  0  0
    6.3732    0.0415   17.2467 N   0  0  0  0  0  0  0  0  0  0  0  0
    7.2820   -0.7860   20.6970 N   0  0  0  0  0  0  0  0  0  0  0  0
    8.9170    0.7530   21.0260 O   0  0  0  0  0  0  0  0  0  0  0  0
   13.8840   -1.8490   21.2740 Cl  0  0  0  0  0  0  0  0  0  0  0  0
   12.2249    1.2198   24.6546 H   0  0  0  0  0  0  0  0  0  0  0  0
    9.8763    0.5350   24.3454 H   0  0  0  0  0  0  0  0  0  0  0  0
   14.0077    0.1988   23.2842 H   0  0  0  0  0  0  0  0  0  0  0  0
   11.0892   -2.3009   21.3624 H   0  0  0  0  0  0  0  0  0  0  0  0
    4.2153    2.0104   18.7604 H   0  0  0  0  0  0  0  0  0  0  0  0
    7.7576   -1.2206   18.1007 H   0  0  0  0  0  0  0  0  0  0  0  0
    4.3480    0.4977   21.5168 H   0  0  0  0  0  0  0  0  0  0  0  0
    5.9790    1.1047   21.8945 H   0  0  0  0  0  0  0  0  0  0  0  0
    4.7917    2.1871   21.1691 H   0  0  0  0  0  0  0  0  0  0  0  0
    8.4348   -3.3402   24.1843 H   0  0  0  0  0  0  0  0  0  0  0  0
   10.0774   -3.5093   23.5544 H   0  0  0  0  0  0  0  0  0  0  0  0
    8.8122   -4.6513   23.0552 H   0  0  0  0  0  0  0  0  0  0  0  0
    9.2441   -2.9819   21.2647 H   0  0  0  0  0  0  0  0  0  0  0  0
    7.5969   -2.8751   21.8594 H   0  0  0  0  0  0  0  0  0  0  0  0
    8.2468   -0.9569   23.3287 H   0  0  0  0  0  0  0  0  0  0  0  0
    6.8881   -1.6542   21.0522 H   0  0  0  0  0  0  0  0  0  0  0  0
  1  2  2  0  0  0  0
  1  3  1  0  0  0  0
  2  7  1  0  0  0  0
  3 10  2  0  0  0  0
  4  7  2  0  0  0  0
  4 10  1  0  0  0  0
  5  8  1  0  0  0  0
  5 16  2  0  0  0  0
  6  9  1  0  0  0  0
  6 17  2  0  0  0  0
  7 15  1  0  0  0  0
  8  9  2  0  0  0  0
  8 12  1  0  0  0  0
  9 18  1  0  0  0  0
 10 20  1  0  0  0  0
 11 15  1  0  0  0  0
 11 18  1  0  0  0  0
 11 19  2  0  0  0  0
 13 14  1  0  0  0  0
 14 15  1  1  0  0  0
 16 17  1  0  0  0  0
  1 21  1  0  0  0  0
  2 22  1  0  0  0  0
  3 23  1  0  0  0  0
  4 24  1  0  0  0  0
  5 25  1  0  0  0  0
  6 26  1  0  0  0  0
 12 27  1  0  0  0  0
 12 28  1  0  0  0  0
 12 29  1  0  0  0  0
 13 30  1  0  0  0  0
 13 31  1  0  0  0  0
 13 32  1  0  0  0  0
 14 33  1  0  0  0  0
 14 34  1  0  0  0  0
 15 35  1  0  0  0  0
 18 36  1  0  0  0  0
M  END
> <compound>
JAN-GHE-83b26c96-1

> <compound_smiles>
CCC(c1cccc(c1)Cl)C(=O)Nc2cnncc2C

> <enantiomer_smiles>
CC[C@@H](c1cccc(c1)Cl)C(=O)Nc2cnncc2C

> <scaffold>
chlorobenzene-linker

> <clash_score>
0

> <docking_score>
-9.897302627563477

> <overlap_score>
0.8707705736160278

> <MMFF_internal_energy>
86.16713549709047

> <docked_smiles>
CC[C@@H](c1cccc(c1)Cl)C(=O)Nc2cnncc2C

$$$$
JAN-GHE-83b26c96-5_1
  -OEChem-07262101013D

 34 35  0     1  0  0  0  0  0999 V2000
   11.9780    0.4600   23.9150 C   0  0  0  0  0  0  0  0  0  0  0  0
   10.6560    0.0720   23.7350 C   0  0  0  0  0  0  0  0  0  0  0  0
   12.9840   -0.1200   23.1530 C   0  0  0  0  0  0  0  0  0  0  0  0
    4.9120    1.2553   18.6939 C   0  0  0  0  0  0  0  0  0  0  0  0
   11.3360   -1.5050   22.0650 C   0  0  0  0  0  0  0  0  0  0  0  0
    5.3237    0.8516   17.4340 C   0  0  0  0  0  0  0  0  0  0  0  0
    6.9267   -0.5437   18.3070 C   0  0  0  0  0  0  0  0  0  0  0  0
   10.3220   -0.8940   22.7910 C   0  0  0  0  0  0  0  0  0  0  0  0
    5.5624    0.7121   19.7963 C   0  0  0  0  0  0  0  0  0  0  0  0
    6.5902   -0.2052   19.6078 C   0  0  0  0  0  0  0  0  0  0  0  0
   12.6400   -1.1000   22.2390 C   0  0  0  0  0  0  0  0  0  0  0  0
    8.3880   -0.3240   21.3070 C   0  0  0  0  0  0  0  0  0  0  0  0
    5.1392    1.1301   21.1663 C   0  0  0  0  0  0  0  0  0  0  0  0
    8.6719   -2.6843   22.1478 C   0  0  0  0  0  0  0  0  0  0  0  0
    8.8810   -1.1900   22.4510 C   0  0  1  0  0  0  0  0  0  0  0  0
    6.3179   -0.0371   17.2114 N   0  0  0  0  0  0  0  0  0  0  0  0
    7.2820   -0.7860   20.6970 N   0  0  0  0  0  0  0  0  0  0  0  0
    8.9170    0.7530   21.0260 O   0  0  0  0  0  0  0  0  0  0  0  0
   13.8840   -1.8490   21.2740 Cl  0  0  0  0  0  0  0  0  0  0  0  0
   12.2249    1.2198   24.6546 H   0  0  0  0  0  0  0  0  0  0  0  0
    9.8763    0.5350   24.3454 H   0  0  0  0  0  0  0  0  0  0  0  0
   14.0077    0.1988   23.2842 H   0  0  0  0  0  0  0  0  0  0  0  0
    4.1067    1.9732   18.8067 H   0  0  0  0  0  0  0  0  0  0  0  0
   11.0892   -2.3009   21.3624 H   0  0  0  0  0  0  0  0  0  0  0  0
    4.8487    1.2458   16.5417 H   0  0  0  0  0  0  0  0  0  0  0  0
    7.7200   -1.2544   18.0953 H   0  0  0  0  0  0  0  0  0  0  0  0
    4.3492    0.4676   21.5385 H   0  0  0  0  0  0  0  0  0  0  0  0
    5.9816    1.0985   21.8682 H   0  0  0  0  0  0  0  0  0  0  0  0
    4.7612    2.1600   21.1673 H   0  0  0  0  0  0  0  0  0  0  0  0
    9.2843   -3.0131   21.3007 H   0  0  0  0  0  0  0  0  0  0  0  0
    8.9296   -3.3200   23.0024 H   0  0  0  0  0  0  0  0  0  0  0  0
    7.6214   -2.8709   21.8984 H   0  0  0  0  0  0  0  0  0  0  0  0
    8.2360   -0.9649   23.3210 H   0  0  0  0  0  0  0  0  0  0  0  0
    6.8824   -1.6524   21.0513 H   0  0  0  0  0  0  0  0  0  0  0  0
  1  2  2  0  0  0  0
  1  3  1  0  0  0  0
  2  8  1  0  0  0  0
  3 11  2  0  0  0  0
  4  6  2  0  0  0  0
  4  9  1  0  0  0  0
  5  8  2  0  0  0  0
  5 11  1  0  0  0  0
  6 16  1  0  0  0  0
  7 10  1  0  0  0  0
  7 16  2  0  0  0  0
  8 15  1  0  0  0  0
  9 10  2  0  0  0  0
  9 13  1  0  0  0  0
 10 17  1  0  0  0  0
 11 19  1  0  0  0  0
 12 15  1  0  0  0  0
 12 17  1  0  0  0  0
 12 18  2  0  0  0  0
 14 15  1  0  0  0  0
  1 20  1  0  0  0  0
  2 21  1  0  0  0  0
  3 22  1  0  0  0  0
  4 23  1  0  0  0  0
  5 24  1  0  0  0  0
  6 25  1  0  0  0  0
  7 26  1  0  0  0  0
 13 27  1  0  0  0  0
 13 28  1  0  0  0  0
 13 29  1  0  0  0  0
 14 30  1  0  0  0  0
 14 31  1  0  0  0  0
 14 32  1  0  0  0  0
 15 33  1  0  0  0  0
 17 34  1  0  0  0  0
M  END
> <compound>
JAN-GHE-83b26c96-5

> <compound_smiles>
Cc1ccncc1NC(=O)[C@@H](C)c2cccc(c2)Cl

> <enantiomer_smiles>
Cc1ccncc1NC(=O)[C@@H](C)c2cccc(c2)Cl

> <scaffold>
chlorobenzene-linker

> <clash_score>
0

> <docking_score>
-10.434356689453125

> <overlap_score>
0.8682984113693237

> <MMFF_internal_energy>
89.91005467104961

> <docked_smiles>
Cc1ccncc1NC(=O)[C@@H](C)c2cccc(c2)Cl

$$$$
JAN-GHE-83b26c96-2_2
  -OEChem-07262101013D

 38 39  0     1  0  0  0  0  0999 V2000
   11.9780    0.4600   23.9150 C   0  0  0  0  0  0  0  0  0  0  0  0
   10.6560    0.0720   23.7350 C   0  0  0  0  0  0  0  0  0  0  0  0
   12.9840   -0.1200   23.1530 C   0  0  0  0  0  0  0  0  0  0  0  0
    4.9152    1.2538   18.6857 C   0  0  0  0  0  0  0  0  0  0  0  0
   11.3360   -1.5050   22.0650 C   0  0  0  0  0  0  0  0  0  0  0  0
    5.3304    0.8470   17.4280 C   0  0  0  0  0  0  0  0  0  0  0  0
    6.9303   -0.5468   18.3088 C   0  0  0  0  0  0  0  0  0  0  0  0
   10.3220   -0.8940   22.7910 C   0  0  0  0  0  0  0  0  0  0  0  0
    5.5622    0.7129   19.7912 C   0  0  0  0  0  0  0  0  0  0  0  0
    6.5902   -0.2052   19.6078 C   0  0  0  0  0  0  0  0  0  0  0  0
   12.6400   -1.1000   22.2390 C   0  0  0  0  0  0  0  0  0  0  0  0
    4.1557    2.0114   21.4222 C   0  0  0  0  0  0  0  0  0  0  0  0
    8.3880   -0.3240   21.3070 C   0  0  0  0  0  0  0  0  0  0  0  0
    4.0371    2.1622   22.9181 C   0  0  0  0  0  0  0  0  0  0  0  0
    7.9670   -1.0352   23.6784 C   0  0  0  0  0  0  0  0  0  0  0  0
    8.8810   -1.1900   22.4510 C   0  0  2  0  0  0  0  0  0  0  0  0
    6.3248   -0.0425   17.2102 N   0  0  0  0  0  0  0  0  0  0  0  0
    5.1638    1.1056   21.0721 N   0  0  0  0  0  0  0  0  0  0  0  0
    7.2820   -0.7860   20.6970 N   0  0  0  0  0  0  0  0  0  0  0  0
    3.4192    2.6381   20.6674 O   0  0  0  0  0  0  0  0  0  0  0  0
    8.9170    0.7530   21.0260 O   0  0  0  0  0  0  0  0  0  0  0  0
   13.8840   -1.8490   21.2740 Cl  0  0  0  0  0  0  0  0  0  0  0  0
   12.2249    1.2198   24.6546 H   0  0  0  0  0  0  0  0  0  0  0  0
    9.8763    0.5350   24.3454 H   0  0  0  0  0  0  0  0  0  0  0  0
   14.0077    0.1988   23.2842 H   0  0  0  0  0  0  0  0  0  0  0  0
    4.1092    1.9725   18.7919 H   0  0  0  0  0  0  0  0  0  0  0  0
   11.0892   -2.3009   21.3624 H   0  0  0  0  0  0  0  0  0  0  0  0
    4.8580    1.2402   16.5338 H   0  0  0  0  0  0  0  0  0  0  0  0
    7.7244   -1.2579   18.1009 H   0  0  0  0  0  0  0  0  0  0  0  0
    4.6911    2.9685   23.2619 H   0  0  0  0  0  0  0  0  0  0  0  0
    4.3347    1.2311   23.4087 H   0  0  0  0  0  0  0  0  0  0  0  0
    3.0020    2.3892   23.1895 H   0  0  0  0  0  0  0  0  0  0  0  0
    8.0088   -0.0193   24.0871 H   0  0  0  0  0  0  0  0  0  0  0  0
    6.9216   -1.2406   23.4222 H   0  0  0  0  0  0  0  0  0  0  0  0
    8.2585   -1.7315   24.4726 H   0  0  0  0  0  0  0  0  0  0  0  0
    8.7806   -2.2413   22.1242 H   0  0  0  0  0  0  0  0  0  0  0  0
    5.6702    0.6788   21.8550 H   0  0  0  0  0  0  0  0  0  0  0  0
    6.8824   -1.6524   21.0513 H   0  0  0  0  0  0  0  0  0  0  0  0
  1  2  2  0  0  0  0
  1  3  1  0  0  0  0
  2  8  1  0  0  0  0
  3 11  2  0  0  0  0
  4  6  2  0  0  0  0
  4  9  1  0  0  0  0
  5  8  2  0  0  0  0
  5 11  1  0  0  0  0
  6 17  1  0  0  0  0
  7 10  1  0  0  0  0
  7 17  2  0  0  0  0
  8 16  1  0  0  0  0
  9 10  2  0  0  0  0
  9 18  1  0  0  0  0
 10 19  1  0  0  0  0
 11 22  1  0  0  0  0
 12 14  1  0  0  0  0
 12 18  1  0  0  0  0
 12 20  2  0  0  0  0
 13 16  1  0  0  0  0
 13 19  1  0  0  0  0
 13 21  2  0  0  0  0
 15 16  1  6  0  0  0
  1 23  1  0  0  0  0
  2 24  1  0  0  0  0
  3 25  1  0  0  0  0
  4 26  1  0  0  0  0
  5 27  1  0  0  0  0
  6 28  1  0  0  0  0
  7 29  1  0  0  0  0
 14 30  1  0  0  0  0
 14 31  1  0  0  0  0
 14 32  1  0  0  0  0
 15 33  1  0  0  0  0
 15 34  1  0  0  0  0
 15 35  1  0  0  0  0
 16 36  1  0  0  0  0
 18 37  1  0  0  0  0
 19 38  1  0  0  0  0
M  END
> <compound>
JAN-GHE-83b26c96-2

> <compound_smiles>
CC(c1cccc(c1)Cl)C(=O)Nc2cnccc2NC(=O)C

> <enantiomer_smiles>
C[C@H](c1cccc(c1)Cl)C(=O)Nc2cnccc2NC(=O)C

> <scaffold>
chlorobenzene-linker

> <clash_score>
0

> <docking_score>
-10.44294261932373

> <overlap_score>
0.9616862535476685

> <MMFF_internal_energy>
68.84601037902037

> <docked_smiles>
C[C@H](c1cccc(c1)Cl)C(=O)Nc2cnccc2NC(=O)C

$$$$
JAN-GHE-83b26c96-6_2
  -OEChem-07262101013D

 39 40  0     1  0  0  0  0  0999 V2000
   11.9780    0.4600   23.9150 C   0  0  0  0  0  0  0  0  0  0  0  0
   10.6560    0.0720   23.7350 C   0  0  0  0  0  0  0  0  0  0  0  0
   12.9840   -0.1200   23.1530 C   0  0  0  0  0  0  0  0  0  0  0  0
   11.3360   -1.5050   22.0650 C   0  0  0  0  0  0  0  0  0  0  0  0
    7.2091   -0.0033   18.3910 C   0  0  0  0  0  0  0  0  0  0  0  0
    5.3116    0.8930   17.5175 C   0  0  0  0  0  0  0  0  0  0  0  0
   10.3220   -0.8940   22.7910 C   0  0  0  0  0  0  0  0  0  0  0  0
    6.5901   -0.2052   19.6078 C   0  0  0  0  0  0  0  0  0  0  0  0
   12.6400   -1.1000   22.2390 C   0  0  0  0  0  0  0  0  0  0  0  0
    5.2713    0.1942   19.6802 C   0  0  0  0  0  0  0  0  0  0  0  0
    8.3880   -0.3240   21.3070 C   0  0  0  0  0  0  0  0  0  0  0  0
    7.9670   -1.0352   23.6784 C   0  0  0  0  0  0  0  0  0  0  0  0
    5.0911    0.8384   22.1105 C   0  0  0  0  0  0  0  0  0  0  0  0
    4.3557   -1.4517   21.3556 C   0  0  0  0  0  0  0  0  0  0  0  0
    8.8810   -1.1900   22.4510 C   0  0  2  0  0  0  0  0  0  0  0  0
    4.4961    0.0257   20.9463 C   0  0  0  0  0  0  0  0  0  0  0  0
    6.5976    0.5452   17.3208 N   0  0  0  0  0  0  0  0  0  0  0  0
    4.5984    0.7491   18.6508 N   0  0  0  0  0  0  0  0  0  0  0  0
    7.2820   -0.7860   20.6970 N   0  0  0  0  0  0  0  0  0  0  0  0
    8.9170    0.7530   21.0260 O   0  0  0  0  0  0  0  0  0  0  0  0
   13.8840   -1.8490   21.2740 Cl  0  0  0  0  0  0  0  0  0  0  0  0
   12.2249    1.2198   24.6546 H   0  0  0  0  0  0  0  0  0  0  0  0
    9.8763    0.5350   24.3454 H   0  0  0  0  0  0  0  0  0  0  0  0
   14.0077    0.1988   23.2842 H   0  0  0  0  0  0  0  0  0  0  0  0
   11.0892   -2.3009   21.3624 H   0  0  0  0  0  0  0  0  0  0  0  0
    8.2459   -0.2818   18.2286 H   0  0  0  0  0  0  0  0  0  0  0  0
    4.7950    1.3338   16.6735 H   0  0  0  0  0  0  0  0  0  0  0  0
    8.0088   -0.0193   24.0871 H   0  0  0  0  0  0  0  0  0  0  0  0
    6.9216   -1.2406   23.4222 H   0  0  0  0  0  0  0  0  0  0  0  0
    8.2585   -1.7315   24.4726 H   0  0  0  0  0  0  0  0  0  0  0  0
    6.1209    0.5358   22.3294 H   0  0  0  0  0  0  0  0  0  0  0  0
    4.5052    0.7102   23.0271 H   0  0  0  0  0  0  0  0  0  0  0  0
    5.1019    1.9065   21.8661 H   0  0  0  0  0  0  0  0  0  0  0  0
    5.3425   -1.9007   21.5151 H   0  0  0  0  0  0  0  0  0  0  0  0
    3.8441   -2.0333   20.5810 H   0  0  0  0  0  0  0  0  0  0  0  0
    3.7849   -1.5610   22.2842 H   0  0  0  0  0  0  0  0  0  0  0  0
    8.7806   -2.2413   22.1242 H   0  0  0  0  0  0  0  0  0  0  0  0
    3.4661    0.4027   20.8055 H   0  0  0  0  0  0  0  0  0  0  0  0
    6.8824   -1.6524   21.0513 H   0  0  0  0  0  0  0  0  0  0  0  0
  1  2  2  0  0  0  0
  1  3  1  0  0  0  0
  2  7  1  0  0  0  0
  3  9  2  0  0  0  0
  4  7  2  0  0  0  0
  4  9  1  0  0  0  0
  5  8  2  0  0  0  0
  5 17  1  0  0  0  0
  6 17  2  0  0  0  0
  6 18  1  0  0  0  0
  7 15  1  0  0  0  0
  8 10  1  0  0  0  0
  8 19  1  0  0  0  0
  9 21  1  0  0  0  0
 10 16  1  0  0  0  0
 10 18  2  0  0  0  0
 11 15  1  0  0  0  0
 11 19  1  0  0  0  0
 11 20  2  0  0  0  0
 12 15  1  6  0  0  0
 13 16  1  0  0  0  0
 14 16  1  0  0  0  0
  1 22  1  0  0  0  0
  2 23  1  0  0  0  0
  3 24  1  0  0  0  0
  4 25  1  0  0  0  0
  5 26  1  0  0  0  0
  6 27  1  0  0  0  0
 12 28  1  0  0  0  0
 12 29  1  0  0  0  0
 12 30  1  0  0  0  0
 13 31  1  0  0  0  0
 13 32  1  0  0  0  0
 13 33  1  0  0  0  0
 14 34  1  0  0  0  0
 14 35  1  0  0  0  0
 14 36  1  0  0  0  0
 15 37  1  0  0  0  0
 16 38  1  0  0  0  0
 19 39  1  0  0  0  0
M  END
> <compound>
JAN-GHE-83b26c96-6

> <compound_smiles>
CC(C)c1c(cncn1)NC(=O)C(C)c2cccc(c2)Cl

> <enantiomer_smiles>
C[C@H](c1cccc(c1)Cl)C(=O)Nc2cncnc2C(C)C

> <scaffold>
chlorobenzene-linker

> <clash_score>
0

> <docking_score>
-7.362449645996094

> <overlap_score>
0.8781970143318176

> <MMFF_internal_energy>
81.70037301270499

> <docked_smiles>
C[C@H](c1cccc(c1)Cl)C(=O)Nc2cncnc2C(C)C

$$$$
JAN-GHE-83b26c96-7_1
  -OEChem-07262101013D

 39 40  0     1  0  0  0  0  0999 V2000
   11.9780    0.4600   23.9150 C   0  0  0  0  0  0  0  0  0  0  0  0
   10.6560    0.0720   23.7350 C   0  0  0  0  0  0  0  0  0  0  0  0
   12.9840   -0.1200   23.1530 C   0  0  0  0  0  0  0  0  0  0  0  0
   11.3360   -1.5050   22.0650 C   0  0  0  0  0  0  0  0  0  0  0  0
    7.2089   -0.0074   18.3896 C   0  0  0  0  0  0  0  0  0  0  0  0
    5.3140    0.8957   17.5174 C   0  0  0  0  0  0  0  0  0  0  0  0
   10.3220   -0.8940   22.7910 C   0  0  0  0  0  0  0  0  0  0  0  0
    6.5910   -0.2042   19.6077 C   0  0  0  0  0  0  0  0  0  0  0  0
   12.6400   -1.1000   22.2390 C   0  0  0  0  0  0  0  0  0  0  0  0
    5.2740    0.2013   19.6815 C   0  0  0  0  0  0  0  0  0  0  0  0
    8.3880   -0.3240   21.3070 C   0  0  0  0  0  0  0  0  0  0  0  0
    4.5001    0.0388   20.9491 C   0  0  0  0  0  0  0  0  0  0  0  0
    6.6023   -1.8304   23.4552 C   0  0  0  0  0  0  0  0  0  0  0  0
    8.5716   -1.6512   24.9678 C   0  0  0  0  0  0  0  0  0  0  0  0
    8.8810   -1.1900   22.4510 C   0  0  1  0  0  0  0  0  0  0  0  0
    7.9212   -1.0824   23.6974 C   0  0  0  0  0  0  0  0  0  0  0  0
    6.5981    0.5417   17.3192 N   0  0  0  0  0  0  0  0  0  0  0  0
    4.6020    0.7572   18.6520 N   0  0  0  0  0  0  0  0  0  0  0  0
    7.2820   -0.7860   20.6970 N   0  0  0  0  0  0  0  0  0  0  0  0
    8.9170    0.7530   21.0260 O   0  0  0  0  0  0  0  0  0  0  0  0
   13.8840   -1.8490   21.2740 Cl  0  0  0  0  0  0  0  0  0  0  0  0
   12.2249    1.2198   24.6546 H   0  0  0  0  0  0  0  0  0  0  0  0
    9.8763    0.5350   24.3454 H   0  0  0  0  0  0  0  0  0  0  0  0
   14.0077    0.1988   23.2842 H   0  0  0  0  0  0  0  0  0  0  0  0
   11.0892   -2.3009   21.3624 H   0  0  0  0  0  0  0  0  0  0  0  0
    8.2442   -0.2909   18.2260 H   0  0  0  0  0  0  0  0  0  0  0  0
    4.7980    1.3371   16.6732 H   0  0  0  0  0  0  0  0  0  0  0  0
    4.6082    0.9309   21.5765 H   0  0  0  0  0  0  0  0  0  0  0  0
    3.4341   -0.1185   20.7447 H   0  0  0  0  0  0  0  0  0  0  0  0
    4.8488   -0.8328   21.5166 H   0  0  0  0  0  0  0  0  0  0  0  0
    6.7806   -2.8926   23.2550 H   0  0  0  0  0  0  0  0  0  0  0  0
    6.0499   -1.4115   22.6089 H   0  0  0  0  0  0  0  0  0  0  0  0
    5.9489   -1.7580   24.3316 H   0  0  0  0  0  0  0  0  0  0  0  0
    8.8373   -2.7060   24.8380 H   0  0  0  0  0  0  0  0  0  0  0  0
    9.4798   -1.1041   25.2376 H   0  0  0  0  0  0  0  0  0  0  0  0
    7.8860   -1.5790   25.8194 H   0  0  0  0  0  0  0  0  0  0  0  0
    8.8095   -2.2556   22.1282 H   0  0  0  0  0  0  0  0  0  0  0  0
    7.6804   -0.0293   23.8914 H   0  0  0  0  0  0  0  0  0  0  0  0
    6.8782   -1.6497   21.0528 H   0  0  0  0  0  0  0  0  0  0  0  0
  1  2  2  0  0  0  0
  1  3  1  0  0  0  0
  2  7  1  0  0  0  0
  3  9  2  0  0  0  0
  4  7  2  0  0  0  0
  4  9  1  0  0  0  0
  5  8  2  0  0  0  0
  5 17  1  0  0  0  0
  6 17  2  0  0  0  0
  6 18  1  0  0  0  0
  7 15  1  0  0  0  0
  8 10  1  0  0  0  0
  8 19  1  0  0  0  0
  9 21  1  0  0  0  0
 10 12  1  0  0  0  0
 10 18  2  0  0  0  0
 11 15  1  1  0  0  0
 11 19  1  0  0  0  0
 11 20  2  0  0  0  0
 13 16  1  0  0  0  0
 14 16  1  0  0  0  0
 15 16  1  0  0  0  0
  1 22  1  0  0  0  0
  2 23  1  0  0  0  0
  3 24  1  0  0  0  0
  4 25  1  0  0  0  0
  5 26  1  0  0  0  0
  6 27  1  0  0  0  0
 12 28  1  0  0  0  0
 12 29  1  0  0  0  0
 12 30  1  0  0  0  0
 13 31  1  0  0  0  0
 13 32  1  0  0  0  0
 13 33  1  0  0  0  0
 14 34  1  0  0  0  0
 14 35  1  0  0  0  0
 14 36  1  0  0  0  0
 15 37  1  0  0  0  0
 16 38  1  0  0  0  0
 19 39  1  0  0  0  0
M  END
> <compound>
JAN-GHE-83b26c96-7

> <compound_smiles>
Cc1c(cncn1)NC(=O)C(c2cccc(c2)Cl)C(C)C

> <enantiomer_smiles>
Cc1c(cncn1)NC(=O)[C@@H](c2cccc(c2)Cl)C(C)C

> <scaffold>
chlorobenzene-linker

> <clash_score>
0

> <docking_score>
-8.139396667480469

> <overlap_score>
0.8484144806861877

> <MMFF_internal_energy>
90.66437038457963

> <docked_smiles>
Cc1c(cncn1)NC(=O)[C@@H](c2cccc(c2)Cl)C(C)C

$$$$
JAN-GHE-83b26c96-6_1
  -OEChem-07262101013D

 39 40  0     1  0  0  0  0  0999 V2000
   11.9780    0.4600   23.9150 C   0  0  0  0  0  0  0  0  0  0  0  0
   10.6560    0.0720   23.7350 C   0  0  0  0  0  0  0  0  0  0  0  0
   12.9840   -0.1200   23.1530 C   0  0  0  0  0  0  0  0  0  0  0  0
   11.3360   -1.5050   22.0650 C   0  0  0  0  0  0  0  0  0  0  0  0
    7.2091   -0.0033   18.3910 C   0  0  0  0  0  0  0  0  0  0  0  0
    5.3116    0.8930   17.5175 C   0  0  0  0  0  0  0  0  0  0  0  0
   10.3220   -0.8940   22.7910 C   0  0  0  0  0  0  0  0  0  0  0  0
    6.5902   -0.2052   19.6078 C   0  0  0  0  0  0  0  0  0  0  0  0
   12.6400   -1.1000   22.2390 C   0  0  0  0  0  0  0  0  0  0  0  0
    5.2713    0.1942   19.6802 C   0  0  0  0  0  0  0  0  0  0  0  0
    8.3880   -0.3240   21.3070 C   0  0  0  0  0  0  0  0  0  0  0  0
    8.6719   -2.6843   22.1478 C   0  0  0  0  0  0  0  0  0  0  0  0
    5.0911    0.8384   22.1105 C   0  0  0  0  0  0  0  0  0  0  0  0
    4.3557   -1.4517   21.3556 C   0  0  0  0  0  0  0  0  0  0  0  0
    8.8810   -1.1900   22.4510 C   0  0  1  0  0  0  0  0  0  0  0  0
    4.4961    0.0257   20.9463 C   0  0  0  0  0  0  0  0  0  0  0  0
    6.5976    0.5452   17.3208 N   0  0  0  0  0  0  0  0  0  0  0  0
    4.5984    0.7491   18.6508 N   0  0  0  0  0  0  0  0  0  0  0  0
    7.2820   -0.7860   20.6970 N   0  0  0  0  0  0  0  0  0  0  0  0
    8.9170    0.7530   21.0260 O   0  0  0  0  0  0  0  0  0  0  0  0
   13.8840   -1.8490   21.2740 Cl  0  0  0  0  0  0  0  0  0  0  0  0
   12.2249    1.2198   24.6546 H   0  0  0  0  0  0  0  0  0  0  0  0
    9.8763    0.5350   24.3454 H   0  0  0  0  0  0  0  0  0  0  0  0
   14.0077    0.1988   23.2842 H   0  0  0  0  0  0  0  0  0  0  0  0
   11.0892   -2.3009   21.3624 H   0  0  0  0  0  0  0  0  0  0  0  0
    8.2459   -0.2818   18.2286 H   0  0  0  0  0  0  0  0  0  0  0  0
    4.7950    1.3338   16.6735 H   0  0  0  0  0  0  0  0  0  0  0  0
    9.2843   -3.0131   21.3007 H   0  0  0  0  0  0  0  0  0  0  0  0
    8.9296   -3.3200   23.0024 H   0  0  0  0  0  0  0  0  0  0  0  0
    7.6214   -2.8709   21.8984 H   0  0  0  0  0  0  0  0  0  0  0  0
    6.1209    0.5358   22.3294 H   0  0  0  0  0  0  0  0  0  0  0  0
    4.5052    0.7102   23.0271 H   0  0  0  0  0  0  0  0  0  0  0  0
    5.1019    1.9065   21.8661 H   0  0  0  0  0  0  0  0  0  0  0  0
    5.3425   -1.9007   21.5151 H   0  0  0  0  0  0  0  0  0  0  0  0
    3.8441   -2.0333   20.5810 H   0  0  0  0  0  0  0  0  0  0  0  0
    3.7849   -1.5610   22.2842 H   0  0  0  0  0  0  0  0  0  0  0  0
    8.2360   -0.9649   23.3210 H   0  0  0  0  0  0  0  0  0  0  0  0
    3.4661    0.4027   20.8055 H   0  0  0  0  0  0  0  0  0  0  0  0
    6.8824   -1.6524   21.0513 H   0  0  0  0  0  0  0  0  0  0  0  0
  1  2  2  0  0  0  0
  1  3  1  0  0  0  0
  2  7  1  0  0  0  0
  3  9  2  0  0  0  0
  4  7  2  0  0  0  0
  4  9  1  0  0  0  0
  5  8  2  0  0  0  0
  5 17  1  0  0  0  0
  6 17  2  0  0  0  0
  6 18  1  0  0  0  0
  7 15  1  0  0  0  0
  8 10  1  0  0  0  0
  8 19  1  0  0  0  0
  9 21  1  0  0  0  0
 10 16  1  0  0  0  0
 10 18  2  0  0  0  0
 11 15  1  0  0  0  0
 11 19  1  0  0  0  0
 11 20  2  0  0  0  0
 12 15  1  1  0  0  0
 13 16  1  0  0  0  0
 14 16  1  0  0  0  0
  1 22  1  0  0  0  0
  2 23  1  0  0  0  0
  3 24  1  0  0  0  0
  4 25  1  0  0  0  0
  5 26  1  0  0  0  0
  6 27  1  0  0  0  0
 12 28  1  0  0  0  0
 12 29  1  0  0  0  0
 12 30  1  0  0  0  0
 13 31  1  0  0  0  0
 13 32  1  0  0  0  0
 13 33  1  0  0  0  0
 14 34  1  0  0  0  0
 14 35  1  0  0  0  0
 14 36  1  0  0  0  0
 15 37  1  0  0  0  0
 16 38  1  0  0  0  0
 19 39  1  0  0  0  0
M  END
> <compound>
JAN-GHE-83b26c96-6

> <compound_smiles>
CC(C)c1c(cncn1)NC(=O)C(C)c2cccc(c2)Cl

> <enantiomer_smiles>
C[C@@H](c1cccc(c1)Cl)C(=O)Nc2cncnc2C(C)C

> <scaffold>
chlorobenzene-linker

> <clash_score>
0

> <docking_score>
-7.110856056213379

> <overlap_score>
0.8784831166267395

> <MMFF_internal_energy>
86.6108451907747

> <docked_smiles>
C[C@@H](c1cccc(c1)Cl)C(=O)Nc2cncnc2C(C)C

$$$$
JAN-GHE-83b26c96-8_2
  -OEChem-07262101013D

 40 41  0     1  0  0  0  0  0999 V2000
   11.9780    0.4600   23.9150 C   0  0  0  0  0  0  0  0  0  0  0  0
   10.6560    0.0720   23.7350 C   0  0  0  0  0  0  0  0  0  0  0  0
   12.9840   -0.1200   23.1530 C   0  0  0  0  0  0  0  0  0  0  0  0
    4.9154    1.2590   18.6938 C   0  0  0  0  0  0  0  0  0  0  0  0
   11.3360   -1.5050   22.0650 C   0  0  0  0  0  0  0  0  0  0  0  0
    5.3245    0.8523   17.4341 C   0  0  0  0  0  0  0  0  0  0  0  0
    6.9245   -0.5462   18.3071 C   0  0  0  0  0  0  0  0  0  0  0  0
   10.3220   -0.8940   22.7910 C   0  0  0  0  0  0  0  0  0  0  0  0
    5.5656    0.7157   19.7962 C   0  0  0  0  0  0  0  0  0  0  0  0
    6.5905   -0.2048   19.6078 C   0  0  0  0  0  0  0  0  0  0  0  0
   12.6400   -1.1000   22.2390 C   0  0  0  0  0  0  0  0  0  0  0  0
    8.3880   -0.3240   21.3070 C   0  0  0  0  0  0  0  0  0  0  0  0
    5.1452    1.1368   21.1661 C   0  0  0  0  0  0  0  0  0  0  0  0
    7.3961   -1.9652   25.9907 C   0  0  0  0  0  0  0  0  0  0  0  0
    8.3477   -2.0625   24.8083 C   0  0  0  0  0  0  0  0  0  0  0  0
    7.9817   -1.0558   23.7121 C   0  0  0  0  0  0  0  0  0  0  0  0
    8.8810   -1.1900   22.4510 C   0  0  2  0  0  0  0  0  0  0  0  0
    6.3158   -0.0394   17.2115 N   0  0  0  0  0  0  0  0  0  0  0  0
    7.2820   -0.7860   20.6970 N   0  0  0  0  0  0  0  0  0  0  0  0
    8.9170    0.7530   21.0260 O   0  0  0  0  0  0  0  0  0  0  0  0
   13.8840   -1.8490   21.2740 Cl  0  0  0  0  0  0  0  0  0  0  0  0
   12.2249    1.2198   24.6546 H   0  0  0  0  0  0  0  0  0  0  0  0
    9.8763    0.5350   24.3454 H   0  0  0  0  0  0  0  0  0  0  0  0
   14.0077    0.1988   23.2842 H   0  0  0  0  0  0  0  0  0  0  0  0
    4.1123    1.9794   18.8066 H   0  0  0  0  0  0  0  0  0  0  0  0
   11.0892   -2.3009   21.3624 H   0  0  0  0  0  0  0  0  0  0  0  0
    4.8495    1.2466   16.5417 H   0  0  0  0  0  0  0  0  0  0  0  0
    7.7156   -1.2595   18.0955 H   0  0  0  0  0  0  0  0  0  0  0  0
    4.3538    0.4771   21.5402 H   0  0  0  0  0  0  0  0  0  0  0  0
    5.9884    1.1038   21.8670 H   0  0  0  0  0  0  0  0  0  0  0  0
    4.7702    2.1678   21.1661 H   0  0  0  0  0  0  0  0  0  0  0  0
    7.4060   -0.9583   26.4200 H   0  0  0  0  0  0  0  0  0  0  0  0
    6.3703   -2.2007   25.6895 H   0  0  0  0  0  0  0  0  0  0  0  0
    7.6907   -2.6712   26.7733 H   0  0  0  0  0  0  0  0  0  0  0  0
    8.3127   -3.0808   24.4040 H   0  0  0  0  0  0  0  0  0  0  0  0
    9.3702   -1.8887   25.1608 H   0  0  0  0  0  0  0  0  0  0  0  0
    8.0351   -0.0395   24.1226 H   0  0  0  0  0  0  0  0  0  0  0  0
    6.9351   -1.2208   23.4231 H   0  0  0  0  0  0  0  0  0  0  0  0
    8.8046   -2.2495   22.1323 H   0  0  0  0  0  0  0  0  0  0  0  0
    6.8800   -1.6507   21.0527 H   0  0  0  0  0  0  0  0  0  0  0  0
  1  2  2  0  0  0  0
  1  3  1  0  0  0  0
  2  8  1  0  0  0  0
  3 11  2  0  0  0  0
  4  6  2  0  0  0  0
  4  9  1  0  0  0  0
  5  8  2  0  0  0  0
  5 11  1  0  0  0  0
  6 18  1  0  0  0  0
  7 10  1  0  0  0  0
  7 18  2  0  0  0  0
  8 17  1  0  0  0  0
  9 10  2  0  0  0  0
  9 13  1  0  0  0  0
 10 19  1  0  0  0  0
 11 21  1  0  0  0  0
 12 17  1  0  0  0  0
 12 19  1  0  0  0  0
 12 20  2  0  0  0  0
 14 15  1  0  0  0  0
 15 16  1  0  0  0  0
 16 17  1  6  0  0  0
  1 22  1  0  0  0  0
  2 23  1  0  0  0  0
  3 24  1  0  0  0  0
  4 25  1  0  0  0  0
  5 26  1  0  0  0  0
  6 27  1  0  0  0  0
  7 28  1  0  0  0  0
 13 29  1  0  0  0  0
 13 30  1  0  0  0  0
 13 31  1  0  0  0  0
 14 32  1  0  0  0  0
 14 33  1  0  0  0  0
 14 34  1  0  0  0  0
 15 35  1  0  0  0  0
 15 36  1  0  0  0  0
 16 37  1  0  0  0  0
 16 38  1  0  0  0  0
 17 39  1  0  0  0  0
 19 40  1  0  0  0  0
M  END
> <compound>
JAN-GHE-83b26c96-8

> <compound_smiles>
CCCC(c1cccc(c1)Cl)C(=O)Nc2cnccc2C

> <enantiomer_smiles>
CCC[C@H](c1cccc(c1)Cl)C(=O)Nc2cnccc2C

> <scaffold>
chlorobenzene-linker

> <canonical_CID>
JAN-GHE-83b26c96-8

> <r_inhibition_at_20_uM>

> <r_inhibition_at_50_uM>

> <r_avg_IC50>
5.47937183813606

> <f_inhibition_at_20_uM>

> <f_inhibition_at_50_uM>

> <f_avg_IC50>
17.3103456122319

> <f_avg_pIC50>

> <relative_solubility_at_20_uM>

> <relative_solubility_at_100_uM>

> <trypsin_IC50>
99.0

> <NMR_std_ratio>

> <acrylamide>
False

> <chloroacetamide>
False

> <series>
3-aminopyridine-like

> <frag_id>
x10423

> <clash_score>
0

> <docking_score>
-10.958524703979492

> <overlap_score>
0.8663089275360107

> <MMFF_internal_energy>
84.93207761427561

> <docked_smiles>
CCC[C@H](c1cccc(c1)Cl)C(=O)Nc2cnccc2C

$$$$
JAN-GHE-83b26c96-8_1
  -OEChem-07262101013D

 40 41  0     1  0  0  0  0  0999 V2000
   11.9780    0.4600   23.9150 C   0  0  0  0  0  0  0  0  0  0  0  0
   10.6560    0.0720   23.7350 C   0  0  0  0  0  0  0  0  0  0  0  0
   12.9840   -0.1200   23.1530 C   0  0  0  0  0  0  0  0  0  0  0  0
    4.9154    1.2590   18.6938 C   0  0  0  0  0  0  0  0  0  0  0  0
   11.3360   -1.5050   22.0650 C   0  0  0  0  0  0  0  0  0  0  0  0
    5.3245    0.8523   17.4341 C   0  0  0  0  0  0  0  0  0  0  0  0
    6.9245   -0.5462   18.3071 C   0  0  0  0  0  0  0  0  0  0  0  0
   10.3220   -0.8940   22.7910 C   0  0  0  0  0  0  0  0  0  0  0  0
    5.5656    0.7157   19.7962 C   0  0  0  0  0  0  0  0  0  0  0  0
    6.5905   -0.2048   19.6078 C   0  0  0  0  0  0  0  0  0  0  0  0
   12.6400   -1.1000   22.2390 C   0  0  0  0  0  0  0  0  0  0  0  0
    8.3880   -0.3240   21.3070 C   0  0  0  0  0  0  0  0  0  0  0  0
    5.1452    1.1368   21.1661 C   0  0  0  0  0  0  0  0  0  0  0  0
    8.9826   -5.0627   23.0128 C   0  0  0  0  0  0  0  0  0  0  0  0
    9.1152   -3.5845   23.3449 C   0  0  0  0  0  0  0  0  0  0  0  0
    8.6877   -2.7059   22.1641 C   0  0  0  0  0  0  0  0  0  0  0  0
    8.8810   -1.1900   22.4510 C   0  0  1  0  0  0  0  0  0  0  0  0
    6.3158   -0.0394   17.2115 N   0  0  0  0  0  0  0  0  0  0  0  0
    7.2820   -0.7860   20.6970 N   0  0  0  0  0  0  0  0  0  0  0  0
    8.9170    0.7530   21.0260 O   0  0  0  0  0  0  0  0  0  0  0  0
   13.8840   -1.8490   21.2740 Cl  0  0  0  0  0  0  0  0  0  0  0  0
   12.2249    1.2198   24.6546 H   0  0  0  0  0  0  0  0  0  0  0  0
    9.8763    0.5350   24.3454 H   0  0  0  0  0  0  0  0  0  0  0  0
   14.0077    0.1988   23.2842 H   0  0  0  0  0  0  0  0  0  0  0  0
    4.1123    1.9794   18.8066 H   0  0  0  0  0  0  0  0  0  0  0  0
   11.0892   -2.3009   21.3624 H   0  0  0  0  0  0  0  0  0  0  0  0
    4.8495    1.2466   16.5417 H   0  0  0  0  0  0  0  0  0  0  0  0
    7.7156   -1.2594   18.0955 H   0  0  0  0  0  0  0  0  0  0  0  0
    4.3538    0.4771   21.5402 H   0  0  0  0  0  0  0  0  0  0  0  0
    5.9884    1.1038   21.8670 H   0  0  0  0  0  0  0  0  0  0  0  0
    4.7702    2.1678   21.1661 H   0  0  0  0  0  0  0  0  0  0  0  0
    7.9516   -5.3129   22.7431 H   0  0  0  0  0  0  0  0  0  0  0  0
    9.6333   -5.3370   22.1764 H   0  0  0  0  0  0  0  0  0  0  0  0
    9.2652   -5.6720   23.8769 H   0  0  0  0  0  0  0  0  0  0  0  0
   10.1569   -3.3694   23.6096 H   0  0  0  0  0  0  0  0  0  0  0  0
    8.5043   -3.3629   24.2268 H   0  0  0  0  0  0  0  0  0  0  0  0
    7.6395   -2.9173   21.9174 H   0  0  0  0  0  0  0  0  0  0  0  0
    9.2791   -2.9930   21.2843 H   0  0  0  0  0  0  0  0  0  0  0  0
    8.2561   -0.9661   23.3396 H   0  0  0  0  0  0  0  0  0  0  0  0
    6.8800   -1.6507   21.0527 H   0  0  0  0  0  0  0  0  0  0  0  0
  1  2  2  0  0  0  0
  1  3  1  0  0  0  0
  2  8  1  0  0  0  0
  3 11  2  0  0  0  0
  4  6  2  0  0  0  0
  4  9  1  0  0  0  0
  5  8  2  0  0  0  0
  5 11  1  0  0  0  0
  6 18  1  0  0  0  0
  7 10  1  0  0  0  0
  7 18  2  0  0  0  0
  8 17  1  0  0  0  0
  9 10  2  0  0  0  0
  9 13  1  0  0  0  0
 10 19  1  0  0  0  0
 11 21  1  0  0  0  0
 12 17  1  0  0  0  0
 12 19  1  0  0  0  0
 12 20  2  0  0  0  0
 14 15  1  0  0  0  0
 15 16  1  0  0  0  0
 16 17  1  1  0  0  0
  1 22  1  0  0  0  0
  2 23  1  0  0  0  0
  3 24  1  0  0  0  0
  4 25  1  0  0  0  0
  5 26  1  0  0  0  0
  6 27  1  0  0  0  0
  7 28  1  0  0  0  0
 13 29  1  0  0  0  0
 13 30  1  0  0  0  0
 13 31  1  0  0  0  0
 14 32  1  0  0  0  0
 14 33  1  0  0  0  0
 14 34  1  0  0  0  0
 15 35  1  0  0  0  0
 15 36  1  0  0  0  0
 16 37  1  0  0  0  0
 16 38  1  0  0  0  0
 17 39  1  0  0  0  0
 19 40  1  0  0  0  0
M  END
> <compound>
JAN-GHE-83b26c96-8

> <compound_smiles>
CCCC(c1cccc(c1)Cl)C(=O)Nc2cnccc2C

> <enantiomer_smiles>
CCC[C@@H](c1cccc(c1)Cl)C(=O)Nc2cnccc2C

> <scaffold>
chlorobenzene-linker

> <canonical_CID>
JAN-GHE-83b26c96-8

> <r_inhibition_at_20_uM>

> <r_inhibition_at_50_uM>

> <r_avg_IC50>
5.47937183813606

> <f_inhibition_at_20_uM>

> <f_inhibition_at_50_uM>

> <f_avg_IC50>
17.3103456122319

> <f_avg_pIC50>

> <relative_solubility_at_20_uM>

> <relative_solubility_at_100_uM>

> <trypsin_IC50>
99.0

> <NMR_std_ratio>

> <acrylamide>
False

> <chloroacetamide>
False

> <series>
3-aminopyridine-like

> <frag_id>
x10423

> <clash_score>
0

> <docking_score>
-9.262825012207031

> <overlap_score>
0.8667083382606506

> <MMFF_internal_energy>
89.4974014778378

> <docked_smiles>
CCC[C@@H](c1cccc(c1)Cl)C(=O)Nc2cnccc2C

$$$$
JAN-GHE-83b26c96-4_1
  -OEChem-07262101013D

 34 35  0     1  0  0  0  0  0999 V2000
   11.9780    0.4600   23.9150 C   0  0  0  0  0  0  0  0  0  0  0  0
   10.6560    0.0720   23.7350 C   0  0  0  0  0  0  0  0  0  0  0  0
   12.9840   -0.1200   23.1530 C   0  0  0  0  0  0  0  0  0  0  0  0
    4.9120    1.2553   18.6939 C   0  0  0  0  0  0  0  0  0  0  0  0
   11.3360   -1.5050   22.0650 C   0  0  0  0  0  0  0  0  0  0  0  0
    5.3237    0.8516   17.4340 C   0  0  0  0  0  0  0  0  0  0  0  0
    6.9267   -0.5437   18.3070 C   0  0  0  0  0  0  0  0  0  0  0  0
   10.3220   -0.8940   22.7910 C   0  0  0  0  0  0  0  0  0  0  0  0
    5.5624    0.7121   19.7963 C   0  0  0  0  0  0  0  0  0  0  0  0
    6.5902   -0.2052   19.6078 C   0  0  0  0  0  0  0  0  0  0  0  0
   12.6400   -1.1000   22.2390 C   0  0  0  0  0  0  0  0  0  0  0  0
    8.3880   -0.3240   21.3070 C   0  0  0  0  0  0  0  0  0  0  0  0
    5.1392    1.1301   21.1663 C   0  0  0  0  0  0  0  0  0  0  0  0
    7.9670   -1.0352   23.6784 C   0  0  0  0  0  0  0  0  0  0  0  0
    8.8810   -1.1900   22.4510 C   0  0  2  0  0  0  0  0  0  0  0  0
    6.3179   -0.0371   17.2114 N   0  0  0  0  0  0  0  0  0  0  0  0
    7.2820   -0.7860   20.6970 N   0  0  0  0  0  0  0  0  0  0  0  0
    8.9170    0.7530   21.0260 O   0  0  0  0  0  0  0  0  0  0  0  0
   13.8840   -1.8490   21.2740 Cl  0  0  0  0  0  0  0  0  0  0  0  0
   12.2249    1.2198   24.6546 H   0  0  0  0  0  0  0  0  0  0  0  0
    9.8763    0.5350   24.3454 H   0  0  0  0  0  0  0  0  0  0  0  0
   14.0077    0.1988   23.2842 H   0  0  0  0  0  0  0  0  0  0  0  0
    4.1067    1.9732   18.8067 H   0  0  0  0  0  0  0  0  0  0  0  0
   11.0892   -2.3009   21.3624 H   0  0  0  0  0  0  0  0  0  0  0  0
    4.8487    1.2458   16.5417 H   0  0  0  0  0  0  0  0  0  0  0  0
    7.7200   -1.2544   18.0953 H   0  0  0  0  0  0  0  0  0  0  0  0
    4.3492    0.4676   21.5385 H   0  0  0  0  0  0  0  0  0  0  0  0
    5.9816    1.0985   21.8682 H   0  0  0  0  0  0  0  0  0  0  0  0
    4.7612    2.1600   21.1673 H   0  0  0  0  0  0  0  0  0  0  0  0
    8.0088   -0.0193   24.0871 H   0  0  0  0  0  0  0  0  0  0  0  0
    6.9216   -1.2406   23.4222 H   0  0  0  0  0  0  0  0  0  0  0  0
    8.2585   -1.7315   24.4726 H   0  0  0  0  0  0  0  0  0  0  0  0
    8.7806   -2.2413   22.1242 H   0  0  0  0  0  0  0  0  0  0  0  0
    6.8824   -1.6524   21.0513 H   0  0  0  0  0  0  0  0  0  0  0  0
  1  2  2  0  0  0  0
  1  3  1  0  0  0  0
  2  8  1  0  0  0  0
  3 11  2  0  0  0  0
  4  6  2  0  0  0  0
  4  9  1  0  0  0  0
  5  8  2  0  0  0  0
  5 11  1  0  0  0  0
  6 16  1  0  0  0  0
  7 10  1  0  0  0  0
  7 16  2  0  0  0  0
  8 15  1  0  0  0  0
  9 10  2  0  0  0  0
  9 13  1  0  0  0  0
 10 17  1  0  0  0  0
 11 19  1  0  0  0  0
 12 15  1  0  0  0  0
 12 17  1  0  0  0  0
 12 18  2  0  0  0  0
 14 15  1  0  0  0  0
  1 20  1  0  0  0  0
  2 21  1  0  0  0  0
  3 22  1  0  0  0  0
  4 23  1  0  0  0  0
  5 24  1  0  0  0  0
  6 25  1  0  0  0  0
  7 26  1  0  0  0  0
 13 27  1  0  0  0  0
 13 28  1  0  0  0  0
 13 29  1  0  0  0  0
 14 30  1  0  0  0  0
 14 31  1  0  0  0  0
 14 32  1  0  0  0  0
 15 33  1  0  0  0  0
 17 34  1  0  0  0  0
M  END
> <compound>
JAN-GHE-83b26c96-4

> <compound_smiles>
Cc1ccncc1NC(=O)[C@H](C)c2cccc(c2)Cl

> <enantiomer_smiles>
Cc1ccncc1NC(=O)[C@H](C)c2cccc(c2)Cl

> <scaffold>
chlorobenzene-linker

> <clash_score>
0

> <docking_score>
-10.685931205749512

> <overlap_score>
0.8680161833763123

> <MMFF_internal_energy>
84.36751732290625

> <docked_smiles>
Cc1ccncc1NC(=O)[C@H](C)c2cccc(c2)Cl

$$$$
ADA-UNI-f8e79267-11_2
  -OEChem-07262101013D

 40 41  0     1  0  0  0  0  0999 V2000
   11.9780    0.4600   23.9150 C   0  0  0  0  0  0  0  0  0  0  0  0
    4.9004    1.2616   18.7262 C   0  0  0  0  0  0  0  0  0  0  0  0
   10.6560    0.0720   23.7350 C   0  0  0  0  0  0  0  0  0  0  0  0
    5.5620    0.7073   19.8163 C   0  0  0  0  0  0  0  0  0  0  0  0
   12.9840   -0.1200   23.1530 C   0  0  0  0  0  0  0  0  0  0  0  0
   11.3360   -1.5050   22.0650 C   0  0  0  0  0  0  0  0  0  0  0  0
    5.3016    0.8735   17.4580 C   0  0  0  0  0  0  0  0  0  0  0  0
    6.9156   -0.5279   18.3003 C   0  0  0  0  0  0  0  0  0  0  0  0
   10.3220   -0.8940   22.7910 C   0  0  0  0  0  0  0  0  0  0  0  0
    6.5901   -0.2053   19.6079 C   0  0  0  0  0  0  0  0  0  0  0  0
   12.6400   -1.1000   22.2390 C   0  0  0  0  0  0  0  0  0  0  0  0
    8.3880   -0.3240   21.3070 C   0  0  0  0  0  0  0  0  0  0  0  0
    5.8524   -2.0544   25.6200 C   0  0  0  0  0  0  0  0  0  0  0  0
    7.9452   -1.0525   23.6865 C   0  0  0  0  0  0  0  0  0  0  0  0
    8.2256   -2.0105   24.8423 C   0  0  0  0  0  0  0  0  0  0  0  0
    8.8810   -1.1900   22.4510 C   0  0  2  0  0  0  0  0  0  0  0  0
    6.2957   -0.0102   17.2161 N   0  0  0  0  0  0  0  0  0  0  0  0
    7.2820   -0.7860   20.6970 N   0  0  0  0  0  0  0  0  0  0  0  0
    7.2773   -1.7827   25.9572 N   0  3  0  0  0  0  0  0  0  0  0  0
    8.9170    0.7530   21.0260 O   0  0  0  0  0  0  0  0  0  0  0  0
   13.8840   -1.8490   21.2740 Cl  0  0  0  0  0  0  0  0  0  0  0  0
   12.2249    1.2198   24.6546 H   0  0  0  0  0  0  0  0  0  0  0  0
    4.0961    1.9750   18.8650 H   0  0  0  0  0  0  0  0  0  0  0  0
    9.8763    0.5350   24.3454 H   0  0  0  0  0  0  0  0  0  0  0  0
    5.2687    0.9932   20.8229 H   0  0  0  0  0  0  0  0  0  0  0  0
   14.0077    0.1988   23.2842 H   0  0  0  0  0  0  0  0  0  0  0  0
   11.0892   -2.3009   21.3624 H   0  0  0  0  0  0  0  0  0  0  0  0
    4.8178    1.2777   16.5750 H   0  0  0  0  0  0  0  0  0  0  0  0
    7.7089   -1.2342   18.0738 H   0  0  0  0  0  0  0  0  0  0  0  0
    5.7820   -3.0876   25.2752 H   0  0  0  0  0  0  0  0  0  0  0  0
    5.2599   -1.9009   26.5239 H   0  0  0  0  0  0  0  0  0  0  0  0
    5.5564   -1.3573   24.8337 H   0  0  0  0  0  0  0  0  0  0  0  0
    7.9978   -0.0280   24.0773 H   0  0  0  0  0  0  0  0  0  0  0  0
    6.9055   -1.1905   23.3592 H   0  0  0  0  0  0  0  0  0  0  0  0
    8.1370   -3.0613   24.5530 H   0  0  0  0  0  0  0  0  0  0  0  0
    9.2273   -1.8385   25.2479 H   0  0  0  0  0  0  0  0  0  0  0  0
    8.7965   -2.2385   22.1066 H   0  0  0  0  0  0  0  0  0  0  0  0
    6.8977   -1.6550   21.0615 H   0  0  0  0  0  0  0  0  0  0  0  0
    7.3620   -0.8088   26.2854 H   0  0  0  0  0  0  0  0  0  0  0  0
    7.5466   -2.3690   26.7616 H   0  0  0  0  0  0  0  0  0  0  0  0
  1  3  2  0  0  0  0
  1  5  1  0  0  0  0
  2  4  2  0  0  0  0
  2  7  1  0  0  0  0
  3  9  1  0  0  0  0
  4 10  1  0  0  0  0
  5 11  2  0  0  0  0
  6  9  2  0  0  0  0
  6 11  1  0  0  0  0
  7 17  2  0  0  0  0
  8 10  2  0  0  0  0
  8 17  1  0  0  0  0
  9 16  1  0  0  0  0
 10 18  1  0  0  0  0
 11 21  1  0  0  0  0
 12 16  1  0  0  0  0
 12 18  1  0  0  0  0
 12 20  2  0  0  0  0
 13 19  1  0  0  0  0
 14 15  1  0  0  0  0
 14 16  1  6  0  0  0
 15 19  1  0  0  0  0
  1 22  1  0  0  0  0
  2 23  1  0  0  0  0
  3 24  1  0  0  0  0
  4 25  1  0  0  0  0
  5 26  1  0  0  0  0
  6 27  1  0  0  0  0
  7 28  1  0  0  0  0
  8 29  1  0  0  0  0
 13 30  1  0  0  0  0
 13 31  1  0  0  0  0
 13 32  1  0  0  0  0
 14 33  1  0  0  0  0
 14 34  1  0  0  0  0
 15 35  1  0  0  0  0
 15 36  1  0  0  0  0
 16 37  1  0  0  0  0
 18 38  1  0  0  0  0
 19 39  1  0  0  0  0
 19 40  1  0  0  0  0
M  CHG  1  19   1
M  END
> <compound>
ADA-UNI-f8e79267-11

> <compound_smiles>
CNCCC(c1cccc(c1)Cl)C(=O)Nc2cccnc2

> <enantiomer_smiles>
CNCC[C@H](c1cccc(c1)Cl)C(=O)Nc2cccnc2

> <scaffold>
chlorobenzene-linker

> <clash_score>
0

> <docking_score>
-10.166204452514648

> <overlap_score>
0.8188920021057129

> <MMFF_internal_energy>
87.91780630695844

> <docked_smiles>
C[NH2+]CC[C@H](c1cccc(c1)Cl)C(=O)Nc2cccnc2

$$$$
ADA-UNI-f8e79267-11_1
  -OEChem-07262101013D

 40 41  0     1  0  0  0  0  0999 V2000
   11.9780    0.4600   23.9150 C   0  0  0  0  0  0  0  0  0  0  0  0
    4.9004    1.2616   18.7262 C   0  0  0  0  0  0  0  0  0  0  0  0
   10.6560    0.0720   23.7350 C   0  0  0  0  0  0  0  0  0  0  0  0
    5.5620    0.7073   19.8163 C   0  0  0  0  0  0  0  0  0  0  0  0
   12.9840   -0.1200   23.1530 C   0  0  0  0  0  0  0  0  0  0  0  0
   11.3360   -1.5050   22.0650 C   0  0  0  0  0  0  0  0  0  0  0  0
    5.3016    0.8735   17.4581 C   0  0  0  0  0  0  0  0  0  0  0  0
    6.9156   -0.5279   18.3003 C   0  0  0  0  0  0  0  0  0  0  0  0
   10.3220   -0.8940   22.7910 C   0  0  0  0  0  0  0  0  0  0  0  0
    6.5901   -0.2053   19.6079 C   0  0  0  0  0  0  0  0  0  0  0  0
   12.6400   -1.1000   22.2390 C   0  0  0  0  0  0  0  0  0  0  0  0
    8.3880   -0.3240   21.3070 C   0  0  0  0  0  0  0  0  0  0  0  0
    6.7972   -3.5845   24.3459 C   0  0  0  0  0  0  0  0  0  0  0  0
    8.6467   -2.6941   22.1305 C   0  0  0  0  0  0  0  0  0  0  0  0
    9.0380   -3.6619   23.2451 C   0  0  0  0  0  0  0  0  0  0  0  0
    8.8810   -1.1900   22.4510 C   0  0  1  0  0  0  0  0  0  0  0  0
    6.2957   -0.0102   17.2161 N   0  0  0  0  0  0  0  0  0  0  0  0
    7.2820   -0.7860   20.6970 N   0  0  0  0  0  0  0  0  0  0  0  0
    8.2669   -3.3838   24.4789 N   0  3  0  0  0  0  0  0  0  0  0  0
    8.9170    0.7530   21.0260 O   0  0  0  0  0  0  0  0  0  0  0  0
   13.8840   -1.8490   21.2740 Cl  0  0  0  0  0  0  0  0  0  0  0  0
   12.2249    1.2198   24.6546 H   0  0  0  0  0  0  0  0  0  0  0  0
    4.0960    1.9750   18.8650 H   0  0  0  0  0  0  0  0  0  0  0  0
    9.8763    0.5350   24.3454 H   0  0  0  0  0  0  0  0  0  0  0  0
    5.2687    0.9932   20.8229 H   0  0  0  0  0  0  0  0  0  0  0  0
   14.0077    0.1988   23.2842 H   0  0  0  0  0  0  0  0  0  0  0  0
   11.0892   -2.3009   21.3624 H   0  0  0  0  0  0  0  0  0  0  0  0
    4.8178    1.2777   16.5750 H   0  0  0  0  0  0  0  0  0  0  0  0
    7.7088   -1.2342   18.0738 H   0  0  0  0  0  0  0  0  0  0  0  0
    6.6285   -4.6138   24.0242 H   0  0  0  0  0  0  0  0  0  0  0  0
    6.3449   -3.3991   25.3220 H   0  0  0  0  0  0  0  0  0  0  0  0
    6.4292   -2.8756   23.6017 H   0  0  0  0  0  0  0  0  0  0  0  0
    7.5899   -2.8670   21.8892 H   0  0  0  0  0  0  0  0  0  0  0  0
    9.2042   -2.9597   21.2218 H   0  0  0  0  0  0  0  0  0  0  0  0
    8.8582   -4.7077   22.9811 H   0  0  0  0  0  0  0  0  0  0  0  0
   10.0937   -3.5394   23.5057 H   0  0  0  0  0  0  0  0  0  0  0  0
    8.2445   -0.9482   23.3232 H   0  0  0  0  0  0  0  0  0  0  0  0
    6.8977   -1.6550   21.0615 H   0  0  0  0  0  0  0  0  0  0  0  0
    8.4444   -2.4146   24.7827 H   0  0  0  0  0  0  0  0  0  0  0  0
    8.6165   -3.9808   25.2436 H   0  0  0  0  0  0  0  0  0  0  0  0
  1  3  2  0  0  0  0
  1  5  1  0  0  0  0
  2  4  2  0  0  0  0
  2  7  1  0  0  0  0
  3  9  1  0  0  0  0
  4 10  1  0  0  0  0
  5 11  2  0  0  0  0
  6  9  2  0  0  0  0
  6 11  1  0  0  0  0
  7 17  2  0  0  0  0
  8 10  2  0  0  0  0
  8 17  1  0  0  0  0
  9 16  1  0  0  0  0
 10 18  1  0  0  0  0
 11 21  1  0  0  0  0
 12 16  1  0  0  0  0
 12 18  1  0  0  0  0
 12 20  2  0  0  0  0
 13 19  1  0  0  0  0
 14 15  1  0  0  0  0
 14 16  1  1  0  0  0
 15 19  1  0  0  0  0
  1 22  1  0  0  0  0
  2 23  1  0  0  0  0
  3 24  1  0  0  0  0
  4 25  1  0  0  0  0
  5 26  1  0  0  0  0
  6 27  1  0  0  0  0
  7 28  1  0  0  0  0
  8 29  1  0  0  0  0
 13 30  1  0  0  0  0
 13 31  1  0  0  0  0
 13 32  1  0  0  0  0
 14 33  1  0  0  0  0
 14 34  1  0  0  0  0
 15 35  1  0  0  0  0
 15 36  1  0  0  0  0
 16 37  1  0  0  0  0
 18 38  1  0  0  0  0
 19 39  1  0  0  0  0
 19 40  1  0  0  0  0
M  CHG  1  19   1
M  END
> <compound>
ADA-UNI-f8e79267-11

> <compound_smiles>
CNCCC(c1cccc(c1)Cl)C(=O)Nc2cccnc2

> <enantiomer_smiles>
CNCC[C@@H](c1cccc(c1)Cl)C(=O)Nc2cccnc2

> <scaffold>
chlorobenzene-linker

> <clash_score>
0

> <docking_score>
-9.873257637023926

> <overlap_score>
0.8199464082717896

> <MMFF_internal_energy>
96.90717450669254

> <docked_smiles>
C[NH2+]CC[C@@H](c1cccc(c1)Cl)C(=O)Nc2cccnc2

$$$$
JAN-GHE-83b26c96-10_1
  -OEChem-07262101013D

 40 41  0     1  0  0  0  0  0999 V2000
   11.9780    0.4600   23.9150 C   0  0  0  0  0  0  0  0  0  0  0  0
   10.6560    0.0720   23.7350 C   0  0  0  0  0  0  0  0  0  0  0  0
   12.9840   -0.1200   23.1530 C   0  0  0  0  0  0  0  0  0  0  0  0
    5.3703    1.5988   18.5865 C   0  0  0  0  0  0  0  0  0  0  0  0
   11.3360   -1.5050   22.0650 C   0  0  0  0  0  0  0  0  0  0  0  0
    5.2777    0.8183   17.4454 C   0  0  0  0  0  0  0  0  0  0  0  0
    6.4434   -0.9043   18.4210 C   0  0  0  0  0  0  0  0  0  0  0  0
   10.3220   -0.8940   22.7910 C   0  0  0  0  0  0  0  0  0  0  0  0
    6.0409    1.0704   19.6838 C   0  0  0  0  0  0  0  0  0  0  0  0
    6.5908   -0.2044   19.6077 C   0  0  0  0  0  0  0  0  0  0  0  0
   12.6400   -1.1000   22.2390 C   0  0  0  0  0  0  0  0  0  0  0  0
    8.3880   -0.3240   21.3070 C   0  0  0  0  0  0  0  0  0  0  0  0
    6.1562    1.8904   20.9268 C   0  0  0  0  0  0  0  0  0  0  0  0
    6.5268   -1.2570   23.2606 C   0  0  0  0  0  0  0  0  0  0  0  0
    8.3837   -1.9078   24.7866 C   0  0  0  0  0  0  0  0  0  0  0  0
    8.8810   -1.1900   22.4510 C   0  0  1  0  0  0  0  0  0  0  0  0
    5.7989   -0.4241   17.3340 N   0  0  0  0  0  0  0  0  0  0  0  0
    7.2820   -0.7860   20.6970 N   0  0  0  0  0  0  0  0  0  0  0  0
    7.9651   -1.0393   23.6347 N   0  3  0  0  0  0  0  0  0  0  0  0
    8.9170    0.7530   21.0260 O   0  0  0  0  0  0  0  0  0  0  0  0
   13.8840   -1.8490   21.2740 Cl  0  0  0  0  0  0  0  0  0  0  0  0
   12.2249    1.2198   24.6546 H   0  0  0  0  0  0  0  0  0  0  0  0
    9.8763    0.5350   24.3454 H   0  0  0  0  0  0  0  0  0  0  0  0
   14.0077    0.1988   23.2842 H   0  0  0  0  0  0  0  0  0  0  0  0
    4.9304    2.5900   18.6133 H   0  0  0  0  0  0  0  0  0  0  0  0
   11.0892   -2.3009   21.3624 H   0  0  0  0  0  0  0  0  0  0  0  0
    4.7649    1.1846   16.5621 H   0  0  0  0  0  0  0  0  0  0  0  0
    6.8502   -1.9040   18.3003 H   0  0  0  0  0  0  0  0  0  0  0  0
    5.3039    1.6984   21.5888 H   0  0  0  0  0  0  0  0  0  0  0  0
    7.0803    1.6584   21.4704 H   0  0  0  0  0  0  0  0  0  0  0  0
    6.1834    2.9620   20.6935 H   0  0  0  0  0  0  0  0  0  0  0  0
    6.4226   -2.2891   22.9209 H   0  0  0  0  0  0  0  0  0  0  0  0
    5.9190   -1.0726   24.1484 H   0  0  0  0  0  0  0  0  0  0  0  0
    6.2791   -0.5544   22.4625 H   0  0  0  0  0  0  0  0  0  0  0  0
    8.3035   -2.9483   24.4667 H   0  0  0  0  0  0  0  0  0  0  0  0
    9.4146   -1.6532   25.0397 H   0  0  0  0  0  0  0  0  0  0  0  0
    7.7120   -1.7013   25.6220 H   0  0  0  0  0  0  0  0  0  0  0  0
    8.7698   -2.2472   22.1731 H   0  0  0  0  0  0  0  0  0  0  0  0
    6.8974   -1.6551   21.0612 H   0  0  0  0  0  0  0  0  0  0  0  0
    8.0462   -0.0639   23.9520 H   0  0  0  0  0  0  0  0  0  0  0  0
  1  2  2  0  0  0  0
  1  3  1  0  0  0  0
  2  8  1  0  0  0  0
  3 11  2  0  0  0  0
  4  6  2  0  0  0  0
  4  9  1  0  0  0  0
  5  8  2  0  0  0  0
  5 11  1  0  0  0  0
  6 17  1  0  0  0  0
  7 10  1  0  0  0  0
  7 17  2  0  0  0  0
  8 16  1  0  0  0  0
  9 10  2  0  0  0  0
  9 13  1  0  0  0  0
 10 18  1  0  0  0  0
 11 21  1  0  0  0  0
 12 16  1  1  0  0  0
 12 18  1  0  0  0  0
 12 20  2  0  0  0  0
 14 19  1  0  0  0  0
 15 19  1  0  0  0  0
 16 19  1  0  0  0  0
  1 22  1  0  0  0  0
  2 23  1  0  0  0  0
  3 24  1  0  0  0  0
  4 25  1  0  0  0  0
  5 26  1  0  0  0  0
  6 27  1  0  0  0  0
  7 28  1  0  0  0  0
 13 29  1  0  0  0  0
 13 30  1  0  0  0  0
 13 31  1  0  0  0  0
 14 32  1  0  0  0  0
 14 33  1  0  0  0  0
 14 34  1  0  0  0  0
 15 35  1  0  0  0  0
 15 36  1  0  0  0  0
 15 37  1  0  0  0  0
 16 38  1  0  0  0  0
 18 39  1  0  0  0  0
 19 40  1  0  0  0  0
M  CHG  1  19   1
M  END
> <compound>
JAN-GHE-83b26c96-10

> <compound_smiles>
Cc1ccncc1NC(=O)C(c2cccc(c2)Cl)N(C)C

> <enantiomer_smiles>
Cc1ccncc1NC(=O)[C@@H](c2cccc(c2)Cl)N(C)C

> <scaffold>
chlorobenzene-linker

> <clash_score>
0

> <docking_score>
-7.0038251876831055

> <overlap_score>
0.8168959021568298

> <MMFF_internal_energy>
145.39019902676705

> <docked_smiles>
Cc1ccncc1NC(=O)[C@@H](c2cccc(c2)Cl)[NH+](C)C

$$$$
ADA-UNI-f8e79267-8_1
  -OEChem-07262101013D

 42 43  0     1  0  0  0  0  0999 V2000
   11.9780    0.4600   23.9150 C   0  0  0  0  0  0  0  0  0  0  0  0
    4.6050    0.7460   18.6390 C   0  0  0  0  0  0  0  0  0  0  0  0
   10.6560    0.0720   23.7350 C   0  0  0  0  0  0  0  0  0  0  0  0
    5.2588    0.1777   19.7266 C   0  0  0  0  0  0  0  0  0  0  0  0
   12.9840   -0.1200   23.1530 C   0  0  0  0  0  0  0  0  0  0  0  0
   11.3360   -1.5050   22.0650 C   0  0  0  0  0  0  0  0  0  0  0  0
    5.3214    0.9085   17.4642 C   0  0  0  0  0  0  0  0  0  0  0  0
    7.2176   -0.0005   18.3896 C   0  0  0  0  0  0  0  0  0  0  0  0
   10.3220   -0.8940   22.7910 C   0  0  0  0  0  0  0  0  0  0  0  0
    6.5901   -0.2054   19.6079 C   0  0  0  0  0  0  0  0  0  0  0  0
   12.6400   -1.1000   22.2390 C   0  0  0  0  0  0  0  0  0  0  0  0
    8.3880   -0.3240   21.3070 C   0  0  0  0  0  0  0  0  0  0  0  0
    7.0627   -5.5850   25.3968 C   0  0  0  0  0  0  0  0  0  0  0  0
    8.6429   -2.6941   22.1307 C   0  0  0  0  0  0  0  0  0  0  0  0
    8.9478   -3.6365   23.2946 C   0  0  0  0  0  0  0  0  0  0  0  0
    8.8810   -1.1900   22.4510 C   0  0  1  0  0  0  0  0  0  0  0  0
    6.6155    0.5486   17.3109 N   0  0  0  0  0  0  0  0  0  0  0  0
    7.2820   -0.7860   20.6970 N   0  0  0  0  0  0  0  0  0  0  0  0
    8.1111   -3.2999   24.4665 N   0  0  0  0  0  0  0  0  0  0  0  0
    8.9170    0.7530   21.0260 O   0  0  0  0  0  0  0  0  0  0  0  0
    6.0343   -4.3462   23.3332 O   0  0  0  0  0  0  0  0  0  0  0  0
    5.8216   -3.3011   25.6177 O   0  0  0  0  0  0  0  0  0  0  0  0
    6.5887   -4.0477   24.6392 S   0  0  0  0  0  0  0  0  0  0  0  0
   13.8840   -1.8490   21.2740 Cl  0  0  0  0  0  0  0  0  0  0  0  0
   12.2249    1.2198   24.6546 H   0  0  0  0  0  0  0  0  0  0  0  0
    3.5675    1.0521   18.7088 H   0  0  0  0  0  0  0  0  0  0  0  0
    9.8763    0.5350   24.3454 H   0  0  0  0  0  0  0  0  0  0  0  0
    4.7219    0.0381   20.6612 H   0  0  0  0  0  0  0  0  0  0  0  0
   14.0077    0.1988   23.2842 H   0  0  0  0  0  0  0  0  0  0  0  0
   11.0892   -2.3009   21.3624 H   0  0  0  0  0  0  0  0  0  0  0  0
    4.8571    1.3477   16.5874 H   0  0  0  0  0  0  0  0  0  0  0  0
    8.2558   -0.2791   18.2355 H   0  0  0  0  0  0  0  0  0  0  0  0
    6.1621   -6.1769   25.5675 H   0  0  0  0  0  0  0  0  0  0  0  0
    7.7411   -6.1073   24.7206 H   0  0  0  0  0  0  0  0  0  0  0  0
    7.5600   -5.3638   26.3423 H   0  0  0  0  0  0  0  0  0  0  0  0
    9.2630   -2.9826   21.2710 H   0  0  0  0  0  0  0  0  0  0  0  0
    7.6028   -2.8553   21.8199 H   0  0  0  0  0  0  0  0  0  0  0  0
    9.9983   -3.5347   23.5871 H   0  0  0  0  0  0  0  0  0  0  0  0
    8.7784   -4.6827   23.0235 H   0  0  0  0  0  0  0  0  0  0  0  0
    8.2465   -0.9512   23.3262 H   0  0  0  0  0  0  0  0  0  0  0  0
    6.8977   -1.6551   21.0615 H   0  0  0  0  0  0  0  0  0  0  0  0
    8.6503   -3.1305   25.3232 H   0  0  0  0  0  0  0  0  0  0  0  0
  1  3  2  0  0  0  0
  1  5  1  0  0  0  0
  2  4  2  0  0  0  0
  2  7  1  0  0  0  0
  3  9  1  0  0  0  0
  4 10  1  0  0  0  0
  5 11  2  0  0  0  0
  6  9  2  0  0  0  0
  6 11  1  0  0  0  0
  7 17  2  0  0  0  0
  8 10  2  0  0  0  0
  8 17  1  0  0  0  0
  9 16  1  0  0  0  0
 10 18  1  0  0  0  0
 11 24  1  0  0  0  0
 12 16  1  0  0  0  0
 12 18  1  0  0  0  0
 12 20  2  0  0  0  0
 13 23  1  0  0  0  0
 14 15  1  0  0  0  0
 14 16  1  1  0  0  0
 15 19  1  0  0  0  0
 19 23  1  0  0  0  0
 21 23  2  0  0  0  0
 22 23  2  0  0  0  0
  1 25  1  0  0  0  0
  2 26  1  0  0  0  0
  3 27  1  0  0  0  0
  4 28  1  0  0  0  0
  5 29  1  0  0  0  0
  6 30  1  0  0  0  0
  7 31  1  0  0  0  0
  8 32  1  0  0  0  0
 13 33  1  0  0  0  0
 13 34  1  0  0  0  0
 13 35  1  0  0  0  0
 14 36  1  0  0  0  0
 14 37  1  0  0  0  0
 15 38  1  0  0  0  0
 15 39  1  0  0  0  0
 16 40  1  0  0  0  0
 18 41  1  0  0  0  0
 19 42  1  0  0  0  0
M  END
> <compound>
ADA-UNI-f8e79267-8

> <compound_smiles>
CS(=O)(=O)NCCC(c1cccc(c1)Cl)C(=O)Nc2cccnc2

> <enantiomer_smiles>
CS(=O)(=O)NCC[C@@H](c1cccc(c1)Cl)C(=O)Nc2cccnc2

> <scaffold>
chlorobenzene-linker

> <clash_score>
0

> <docking_score>
-9.423957824707031

> <overlap_score>
0.8048673272132874

> <MMFF_internal_energy>
9.040665544621612

> <docked_smiles>
CS(=O)(=O)NCC[C@@H](c1cccc(c1)Cl)C(=O)Nc2cccnc2

$$$$
JAN-GHE-83b26c96-9_1
  -OEChem-07262101013D

 40 41  0     1  0  0  0  0  0999 V2000
   11.9780    0.4600   23.9150 C   0  0  0  0  0  0  0  0  0  0  0  0
   10.6560    0.0720   23.7350 C   0  0  0  0  0  0  0  0  0  0  0  0
   12.9840   -0.1200   23.1530 C   0  0  0  0  0  0  0  0  0  0  0  0
    4.6267    0.7618   18.6112 C   0  0  0  0  0  0  0  0  0  0  0  0
   11.3360   -1.5050   22.0650 C   0  0  0  0  0  0  0  0  0  0  0  0
    5.3566    0.9062   17.4423 C   0  0  0  0  0  0  0  0  0  0  0  0
    7.2328   -0.0167   18.3941 C   0  0  0  0  0  0  0  0  0  0  0  0
   10.3220   -0.8940   22.7910 C   0  0  0  0  0  0  0  0  0  0  0  0
    5.2630    0.1951   19.7099 C   0  0  0  0  0  0  0  0  0  0  0  0
    6.5910   -0.2042   19.6077 C   0  0  0  0  0  0  0  0  0  0  0  0
   12.6400   -1.1000   22.2390 C   0  0  0  0  0  0  0  0  0  0  0  0
    8.3880   -0.3240   21.3070 C   0  0  0  0  0  0  0  0  0  0  0  0
    4.5001    0.0281   20.9830 C   0  0  0  0  0  0  0  0  0  0  0  0
    6.6023   -1.8304   23.4552 C   0  0  0  0  0  0  0  0  0  0  0  0
    8.5716   -1.6512   24.9678 C   0  0  0  0  0  0  0  0  0  0  0  0
    8.8810   -1.1900   22.4510 C   0  0  1  0  0  0  0  0  0  0  0  0
    7.9212   -1.0824   23.6974 C   0  0  0  0  0  0  0  0  0  0  0  0
    6.6478    0.5302   17.3050 N   0  0  0  0  0  0  0  0  0  0  0  0
    7.2820   -0.7860   20.6970 N   0  0  0  0  0  0  0  0  0  0  0  0
    8.9170    0.7530   21.0260 O   0  0  0  0  0  0  0  0  0  0  0  0
   13.8840   -1.8490   21.2740 Cl  0  0  0  0  0  0  0  0  0  0  0  0
   12.2249    1.2198   24.6546 H   0  0  0  0  0  0  0  0  0  0  0  0
    9.8763    0.5350   24.3454 H   0  0  0  0  0  0  0  0  0  0  0  0
   14.0077    0.1988   23.2842 H   0  0  0  0  0  0  0  0  0  0  0  0
    3.5920    1.0839   18.6581 H   0  0  0  0  0  0  0  0  0  0  0  0
   11.0892   -2.3009   21.3624 H   0  0  0  0  0  0  0  0  0  0  0  0
    4.9063    1.3427   16.5568 H   0  0  0  0  0  0  0  0  0  0  0  0
    8.2692   -0.3085   18.2520 H   0  0  0  0  0  0  0  0  0  0  0  0
    4.0015   -0.9479   21.0017 H   0  0  0  0  0  0  0  0  0  0  0  0
    5.1627    0.0990   21.8544 H   0  0  0  0  0  0  0  0  0  0  0  0
    3.7401    0.8113   21.0952 H   0  0  0  0  0  0  0  0  0  0  0  0
    6.7806   -2.8926   23.2550 H   0  0  0  0  0  0  0  0  0  0  0  0
    6.0499   -1.4115   22.6089 H   0  0  0  0  0  0  0  0  0  0  0  0
    5.9489   -1.7580   24.3316 H   0  0  0  0  0  0  0  0  0  0  0  0
    8.8373   -2.7060   24.8380 H   0  0  0  0  0  0  0  0  0  0  0  0
    9.4798   -1.1041   25.2376 H   0  0  0  0  0  0  0  0  0  0  0  0
    7.8860   -1.5790   25.8194 H   0  0  0  0  0  0  0  0  0  0  0  0
    8.8095   -2.2556   22.1282 H   0  0  0  0  0  0  0  0  0  0  0  0
    7.6804   -0.0293   23.8914 H   0  0  0  0  0  0  0  0  0  0  0  0
    6.8782   -1.6497   21.0528 H   0  0  0  0  0  0  0  0  0  0  0  0
  1  2  2  0  0  0  0
  1  3  1  0  0  0  0
  2  8  1  0  0  0  0
  3 11  2  0  0  0  0
  4  6  2  0  0  0  0
  4  9  1  0  0  0  0
  5  8  2  0  0  0  0
  5 11  1  0  0  0  0
  6 18  1  0  0  0  0
  7 10  1  0  0  0  0
  7 18  2  0  0  0  0
  8 16  1  0  0  0  0
  9 10  2  0  0  0  0
  9 13  1  0  0  0  0
 10 19  1  0  0  0  0
 11 21  1  0  0  0  0
 12 16  1  1  0  0  0
 12 19  1  0  0  0  0
 12 20  2  0  0  0  0
 14 17  1  0  0  0  0
 15 17  1  0  0  0  0
 16 17  1  0  0  0  0
  1 22  1  0  0  0  0
  2 23  1  0  0  0  0
  3 24  1  0  0  0  0
  4 25  1  0  0  0  0
  5 26  1  0  0  0  0
  6 27  1  0  0  0  0
  7 28  1  0  0  0  0
 13 29  1  0  0  0  0
 13 30  1  0  0  0  0
 13 31  1  0  0  0  0
 14 32  1  0  0  0  0
 14 33  1  0  0  0  0
 14 34  1  0  0  0  0
 15 35  1  0  0  0  0
 15 36  1  0  0  0  0
 15 37  1  0  0  0  0
 16 38  1  0  0  0  0
 17 39  1  0  0  0  0
 19 40  1  0  0  0  0
M  END
> <compound>
JAN-GHE-83b26c96-9

> <compound_smiles>
Cc1ccncc1NC(=O)C(c2cccc(c2)Cl)C(C)C

> <enantiomer_smiles>
Cc1ccncc1NC(=O)[C@@H](c2cccc(c2)Cl)C(C)C

> <scaffold>
chlorobenzene-linker

> <clash_score>
0

> <docking_score>
-9.018451690673828

> <overlap_score>
0.845665693283081

> <MMFF_internal_energy>
97.15530603795746

> <docked_smiles>
Cc1ccncc1NC(=O)[C@@H](c2cccc(c2)Cl)C(C)C

$$$$
JAN-GHE-83b26c96-9_2
  -OEChem-07262101013D

 40 41  0     1  0  0  0  0  0999 V2000
   11.9780    0.4600   23.9150 C   0  0  0  0  0  0  0  0  0  0  0  0
   10.6560    0.0720   23.7350 C   0  0  0  0  0  0  0  0  0  0  0  0
   12.9840   -0.1200   23.1530 C   0  0  0  0  0  0  0  0  0  0  0  0
    4.9179    1.2620   18.6936 C   0  0  0  0  0  0  0  0  0  0  0  0
   11.3360   -1.5050   22.0650 C   0  0  0  0  0  0  0  0  0  0  0  0
    5.3258    0.8540   17.4339 C   0  0  0  0  0  0  0  0  0  0  0  0
    6.9239   -0.5467   18.3070 C   0  0  0  0  0  0  0  0  0  0  0  0
   10.3220   -0.8940   22.7910 C   0  0  0  0  0  0  0  0  0  0  0  0
    5.5676    0.7181   19.7960 C   0  0  0  0  0  0  0  0  0  0  0  0
    6.5910   -0.2042   19.6077 C   0  0  0  0  0  0  0  0  0  0  0  0
   12.6400   -1.1000   22.2390 C   0  0  0  0  0  0  0  0  0  0  0  0
    8.3880   -0.3240   21.3070 C   0  0  0  0  0  0  0  0  0  0  0  0
    5.1486    1.1407   21.1659 C   0  0  0  0  0  0  0  0  0  0  0  0
    9.0371   -3.1309   20.7472 C   0  0  0  0  0  0  0  0  0  0  0  0
    9.3824   -3.6071   23.1664 C   0  0  0  0  0  0  0  0  0  0  0  0
    8.8810   -1.1900   22.4510 C   0  0  2  0  0  0  0  0  0  0  0  0
    8.6236   -2.7197   22.1677 C   0  0  0  0  0  0  0  0  0  0  0  0
    6.3156   -0.0395   17.2114 N   0  0  0  0  0  0  0  0  0  0  0  0
    7.2820   -0.7860   20.6970 N   0  0  0  0  0  0  0  0  0  0  0  0
    8.9170    0.7530   21.0260 O   0  0  0  0  0  0  0  0  0  0  0  0
   13.8840   -1.8490   21.2740 Cl  0  0  0  0  0  0  0  0  0  0  0  0
   12.2249    1.2198   24.6546 H   0  0  0  0  0  0  0  0  0  0  0  0
    9.8763    0.5350   24.3454 H   0  0  0  0  0  0  0  0  0  0  0  0
   14.0077    0.1988   23.2842 H   0  0  0  0  0  0  0  0  0  0  0  0
    4.1161    1.9838   18.8063 H   0  0  0  0  0  0  0  0  0  0  0  0
   11.0892   -2.3009   21.3624 H   0  0  0  0  0  0  0  0  0  0  0  0
    4.8511    1.2486   16.5416 H   0  0  0  0  0  0  0  0  0  0  0  0
    7.7137   -1.2614   18.0954 H   0  0  0  0  0  0  0  0  0  0  0  0
    4.3562    0.4824   21.5406 H   0  0  0  0  0  0  0  0  0  0  0  0
    5.9919    1.1066   21.8665 H   0  0  0  0  0  0  0  0  0  0  0  0
    4.7752    2.1723   21.1655 H   0  0  0  0  0  0  0  0  0  0  0  0
   10.1017   -2.9403   20.5739 H   0  0  0  0  0  0  0  0  0  0  0  0
    8.4652   -2.5898   19.9876 H   0  0  0  0  0  0  0  0  0  0  0  0
    8.8553   -4.1990   20.5844 H   0  0  0  0  0  0  0  0  0  0  0  0
   10.4633   -3.4405   23.1018 H   0  0  0  0  0  0  0  0  0  0  0  0
    9.0712   -3.4141   24.1973 H   0  0  0  0  0  0  0  0  0  0  0  0
    9.1925   -4.6670   22.9646 H   0  0  0  0  0  0  0  0  0  0  0  0
    8.2561   -0.9611   23.3466 H   0  0  0  0  0  0  0  0  0  0  0  0
    7.5531   -2.9329   22.2819 H   0  0  0  0  0  0  0  0  0  0  0  0
    6.8782   -1.6497   21.0528 H   0  0  0  0  0  0  0  0  0  0  0  0
  1  2  2  0  0  0  0
  1  3  1  0  0  0  0
  2  8  1  0  0  0  0
  3 11  2  0  0  0  0
  4  6  2  0  0  0  0
  4  9  1  0  0  0  0
  5  8  2  0  0  0  0
  5 11  1  0  0  0  0
  6 18  1  0  0  0  0
  7 10  1  0  0  0  0
  7 18  2  0  0  0  0
  8 16  1  0  0  0  0
  9 10  2  0  0  0  0
  9 13  1  0  0  0  0
 10 19  1  0  0  0  0
 11 21  1  0  0  0  0
 12 16  1  6  0  0  0
 12 19  1  0  0  0  0
 12 20  2  0  0  0  0
 14 17  1  0  0  0  0
 15 17  1  0  0  0  0
 16 17  1  0  0  0  0
  1 22  1  0  0  0  0
  2 23  1  0  0  0  0
  3 24  1  0  0  0  0
  4 25  1  0  0  0  0
  5 26  1  0  0  0  0
  6 27  1  0  0  0  0
  7 28  1  0  0  0  0
 13 29  1  0  0  0  0
 13 30  1  0  0  0  0
 13 31  1  0  0  0  0
 14 32  1  0  0  0  0
 14 33  1  0  0  0  0
 14 34  1  0  0  0  0
 15 35  1  0  0  0  0
 15 36  1  0  0  0  0
 15 37  1  0  0  0  0
 16 38  1  0  0  0  0
 17 39  1  0  0  0  0
 19 40  1  0  0  0  0
M  END
> <compound>
JAN-GHE-83b26c96-9

> <compound_smiles>
Cc1ccncc1NC(=O)C(c2cccc(c2)Cl)C(C)C

> <enantiomer_smiles>
Cc1ccncc1NC(=O)[C@H](c2cccc(c2)Cl)C(C)C

> <scaffold>
chlorobenzene-linker

> <clash_score>
0

> <docking_score>
-8.874612808227539

> <overlap_score>
0.8696075081825256

> <MMFF_internal_energy>
120.43727622343293

> <docked_smiles>
Cc1ccncc1NC(=O)[C@H](c2cccc(c2)Cl)C(C)C

$$$$
JAN-GHE-83b26c96-22_1
  -OEChem-07262101013D

 37 38  0     0  0  0  0  0  0999 V2000
   11.9780    0.4600   23.9150 C   0  0  0  0  0  0  0  0  0  0  0  0
   10.6560    0.0720   23.7350 C   0  0  0  0  0  0  0  0  0  0  0  0
   12.9840   -0.1200   23.1530 C   0  0  0  0  0  0  0  0  0  0  0  0
    4.9143    1.2580   18.6936 C   0  0  0  0  0  0  0  0  0  0  0  0
   11.3360   -1.5050   22.0650 C   0  0  0  0  0  0  0  0  0  0  0  0
    5.3173    0.8445   17.4341 C   0  0  0  0  0  0  0  0  0  0  0  0
    6.9161   -0.5554   18.3072 C   0  0  0  0  0  0  0  0  0  0  0  0
   10.3220   -0.8940   22.7910 C   0  0  0  0  0  0  0  0  0  0  0  0
    5.5669    0.7174   19.7959 C   0  0  0  0  0  0  0  0  0  0  0  0
    6.5881   -0.2073   19.6076 C   0  0  0  0  0  0  0  0  0  0  0  0
   12.6400   -1.1000   22.2390 C   0  0  0  0  0  0  0  0  0  0  0  0
    8.3880   -0.3240   21.3070 C   0  0  0  0  0  0  0  0  0  0  0  0
    5.1531    1.1459   21.1655 C   0  0  0  0  0  0  0  0  0  0  0  0
    8.7851   -2.6925   22.0505 C   0  0  0  0  0  0  0  0  0  0  0  0
    7.8868   -1.0071   23.6371 C   0  0  0  0  0  0  0  0  0  0  0  0
    8.8810   -1.1900   22.4510 C   0  0  0  0  0  0  0  0  0  0  0  0
    6.3049   -0.0515   17.2117 N   0  0  0  0  0  0  0  0  0  0  0  0
    7.2820   -0.7860   20.6970 N   0  0  0  0  0  0  0  0  0  0  0  0
    8.9170    0.7530   21.0260 O   0  0  0  0  0  0  0  0  0  0  0  0
   13.8840   -1.8490   21.2740 Cl  0  0  0  0  0  0  0  0  0  0  0  0
   12.2249    1.2198   24.6546 H   0  0  0  0  0  0  0  0  0  0  0  0
    9.8763    0.5350   24.3454 H   0  0  0  0  0  0  0  0  0  0  0  0
   14.0077    0.1988   23.2842 H   0  0  0  0  0  0  0  0  0  0  0  0
    4.1139    1.9815   18.8062 H   0  0  0  0  0  0  0  0  0  0  0  0
   11.0892   -2.3009   21.3624 H   0  0  0  0  0  0  0  0  0  0  0  0
    4.8402    1.2364   16.5418 H   0  0  0  0  0  0  0  0  0  0  0  0
    7.7041   -1.2721   18.0957 H   0  0  0  0  0  0  0  0  0  0  0  0
    4.3610    0.4903   21.5454 H   0  0  0  0  0  0  0  0  0  0  0  0
    5.9988    1.1132   21.8634 H   0  0  0  0  0  0  0  0  0  0  0  0
    4.7813    2.1781   21.1623 H   0  0  0  0  0  0  0  0  0  0  0  0
    7.7562   -2.9760   21.7988 H   0  0  0  0  0  0  0  0  0  0  0  0
    9.1239   -3.3622   22.8498 H   0  0  0  0  0  0  0  0  0  0  0  0
    9.4121   -2.8991   21.1748 H   0  0  0  0  0  0  0  0  0  0  0  0
    6.8529   -1.2397   23.3585 H   0  0  0  0  0  0  0  0  0  0  0  0
    7.9045    0.0237   24.0100 H   0  0  0  0  0  0  0  0  0  0  0  0
    8.1455   -1.6627   24.4776 H   0  0  0  0  0  0  0  0  0  0  0  0
    6.8755   -1.6471   21.0548 H   0  0  0  0  0  0  0  0  0  0  0  0
  1  2  2  0  0  0  0
  1  3  1  0  0  0  0
  2  8  1  0  0  0  0
  3 11  2  0  0  0  0
  4  6  2  0  0  0  0
  4  9  1  0  0  0  0
  5  8  2  0  0  0  0
  5 11  1  0  0  0  0
  6 17  1  0  0  0  0
  7 10  1  0  0  0  0
  7 17  2  0  0  0  0
  8 16  1  0  0  0  0
  9 10  2  0  0  0  0
  9 13  1  0  0  0  0
 10 18  1  0  0  0  0
 11 20  1  0  0  0  0
 12 16  1  0  0  0  0
 12 18  1  0  0  0  0
 12 19  2  0  0  0  0
 14 16  1  0  0  0  0
 15 16  1  0  0  0  0
  1 21  1  0  0  0  0
  2 22  1  0  0  0  0
  3 23  1  0  0  0  0
  4 24  1  0  0  0  0
  5 25  1  0  0  0  0
  6 26  1  0  0  0  0
  7 27  1  0  0  0  0
 13 28  1  0  0  0  0
 13 29  1  0  0  0  0
 13 30  1  0  0  0  0
 14 31  1  0  0  0  0
 14 32  1  0  0  0  0
 14 33  1  0  0  0  0
 15 34  1  0  0  0  0
 15 35  1  0  0  0  0
 15 36  1  0  0  0  0
 18 37  1  0  0  0  0
M  END
> <compound>
JAN-GHE-83b26c96-22

> <compound_smiles>
Cc1ccncc1NC(=O)C(C)(C)c2cccc(c2)Cl

> <enantiomer_smiles>
Cc1ccncc1NC(=O)C(C)(C)c2cccc(c2)Cl

> <scaffold>
chlorobenzene-linker

> <canonical_CID>
JAN-GHE-83b26c96-22

> <r_inhibition_at_20_uM>

> <r_inhibition_at_50_uM>

> <r_avg_IC50>
24.522808858117

> <f_inhibition_at_20_uM>

> <f_inhibition_at_50_uM>

> <f_avg_IC50>
96.9383202483582

> <f_avg_pIC50>

> <relative_solubility_at_20_uM>

> <relative_solubility_at_100_uM>

> <trypsin_IC50>
99.0

> <NMR_std_ratio>

> <acrylamide>
False

> <chloroacetamide>
False

> <series>
3-aminopyridine-like

> <frag_id>
x10422

> <clash_score>
0

> <docking_score>
-10.27585506439209

> <overlap_score>
0.8779082298278809

> <MMFF_internal_energy>
102.19149644894031

> <docked_smiles>
Cc1ccncc1NC(=O)C(C)(C)c2cccc(c2)Cl

$$$$
JAN-GHE-83b26c96-16_1
  -OEChem-07262101013D

 37 38  0     0  0  0  0  0  0999 V2000
   11.9780    0.4600   23.9150 C   0  0  0  0  0  0  0  0  0  0  0  0
    4.9772    1.7533   19.1660 C   0  0  0  0  0  0  0  0  0  0  0  0
   10.6560    0.0720   23.7350 C   0  0  0  0  0  0  0  0  0  0  0  0
    5.6018    0.9511   20.1145 C   0  0  0  0  0  0  0  0  0  0  0  0
   12.9840   -0.1200   23.1530 C   0  0  0  0  0  0  0  0  0  0  0  0
   11.3360   -1.5050   22.0650 C   0  0  0  0  0  0  0  0  0  0  0  0
    5.3890    1.6395   17.8480 C   0  0  0  0  0  0  0  0  0  0  0  0
    6.9437    0.0334   18.3786 C   0  0  0  0  0  0  0  0  0  0  0  0
   10.3220   -0.8940   22.7910 C   0  0  0  0  0  0  0  0  0  0  0  0
    6.6049    0.0720   19.7216 C   0  0  0  0  0  0  0  0  0  0  0  0
   12.6400   -1.1000   22.2390 C   0  0  0  0  0  0  0  0  0  0  0  0
    8.3880   -0.3240   21.3070 C   0  0  0  0  0  0  0  0  0  0  0  0
    4.9706   -3.2332   22.4876 C   0  0  0  0  0  0  0  0  0  0  0  0
    8.8810   -1.1900   22.4510 C   0  0  0  0  0  0  0  0  0  0  0  0
    5.6144   -1.9039   22.1197 C   0  0  0  0  0  0  0  0  0  0  0  0
    6.6646   -2.0414   21.0240 C   0  0  0  0  0  0  0  0  0  0  0  0
    6.3596    0.7973   17.4283 N   0  0  0  0  0  0  0  0  0  0  0  0
    7.2820   -0.7860   20.6970 N   0  0  0  0  0  0  0  0  0  0  0  0
    8.9170    0.7530   21.0260 O   0  0  0  0  0  0  0  0  0  0  0  0
   13.8840   -1.8490   21.2740 Cl  0  0  0  0  0  0  0  0  0  0  0  0
   12.2249    1.2198   24.6546 H   0  0  0  0  0  0  0  0  0  0  0  0
    4.1929    2.4457   19.4497 H   0  0  0  0  0  0  0  0  0  0  0  0
    9.8763    0.5350   24.3454 H   0  0  0  0  0  0  0  0  0  0  0  0
    5.2994    1.0189   21.1562 H   0  0  0  0  0  0  0  0  0  0  0  0
   14.0077    0.1988   23.2842 H   0  0  0  0  0  0  0  0  0  0  0  0
   11.0892   -2.3009   21.3624 H   0  0  0  0  0  0  0  0  0  0  0  0
    4.9338    2.2439   17.0703 H   0  0  0  0  0  0  0  0  0  0  0  0
    7.7188   -0.6324   18.0109 H   0  0  0  0  0  0  0  0  0  0  0  0
    4.4834   -3.6868   21.6187 H   0  0  0  0  0  0  0  0  0  0  0  0
    5.7308   -3.9316   22.8522 H   0  0  0  0  0  0  0  0  0  0  0  0
    4.2228   -3.1094   23.2769 H   0  0  0  0  0  0  0  0  0  0  0  0
    8.8006   -2.2403   22.1717 H   0  0  0  0  0  0  0  0  0  0  0  0
    8.2668   -1.0117   23.3332 H   0  0  0  0  0  0  0  0  0  0  0  0
    6.0892   -1.4851   23.0145 H   0  0  0  0  0  0  0  0  0  0  0  0
    4.8340   -1.2001   21.8069 H   0  0  0  0  0  0  0  0  0  0  0  0
    7.4628   -2.7144   21.3527 H   0  0  0  0  0  0  0  0  0  0  0  0
    6.2304   -2.4505   20.1063 H   0  0  0  0  0  0  0  0  0  0  0  0
  1  3  2  0  0  0  0
  1  5  1  0  0  0  0
  2  4  2  0  0  0  0
  2  7  1  0  0  0  0
  3  9  1  0  0  0  0
  4 10  1  0  0  0  0
  5 11  2  0  0  0  0
  6  9  2  0  0  0  0
  6 11  1  0  0  0  0
  7 17  2  0  0  0  0
  8 10  2  0  0  0  0
  8 17  1  0  0  0  0
  9 14  1  0  0  0  0
 10 18  1  0  0  0  0
 11 20  1  0  0  0  0
 12 14  1  0  0  0  0
 12 18  1  0  0  0  0
 12 19  2  0  0  0  0
 13 15  1  0  0  0  0
 15 16  1  0  0  0  0
 16 18  1  0  0  0  0
  1 21  1  0  0  0  0
  2 22  1  0  0  0  0
  3 23  1  0  0  0  0
  4 24  1  0  0  0  0
  5 25  1  0  0  0  0
  6 26  1  0  0  0  0
  7 27  1  0  0  0  0
  8 28  1  0  0  0  0
 13 29  1  0  0  0  0
 13 30  1  0  0  0  0
 13 31  1  0  0  0  0
 14 32  1  0  0  0  0
 14 33  1  0  0  0  0
 15 34  1  0  0  0  0
 15 35  1  0  0  0  0
 16 36  1  0  0  0  0
 16 37  1  0  0  0  0
M  END
> <compound>
JAN-GHE-83b26c96-16

> <compound_smiles>
CCCN(c1cccnc1)C(=O)Cc2cccc(c2)Cl

> <enantiomer_smiles>
CCCN(c1cccnc1)C(=O)Cc2cccc(c2)Cl

> <scaffold>
chlorobenzene-linker

> <clash_score>
0.7643022506561578

> <docking_score>
-7.760279178619385

> <overlap_score>
0.8322089314460754

> <MMFF_internal_energy>
90.284203624737

> <docked_smiles>
CCCN(c1cccnc1)C(=O)Cc2cccc(c2)Cl

$$$$
JAN-GHE-83b26c96-7_2
  -OEChem-07262101013D

 39 40  0     1  0  0  0  0  0999 V2000
   11.9780    0.4600   23.9150 C   0  0  0  0  0  0  0  0  0  0  0  0
   10.6560    0.0720   23.7350 C   0  0  0  0  0  0  0  0  0  0  0  0
   12.9840   -0.1200   23.1530 C   0  0  0  0  0  0  0  0  0  0  0  0
   11.3360   -1.5050   22.0650 C   0  0  0  0  0  0  0  0  0  0  0  0
    7.2089   -0.0074   18.3896 C   0  0  0  0  0  0  0  0  0  0  0  0
    5.3140    0.8957   17.5173 C   0  0  0  0  0  0  0  0  0  0  0  0
   10.3220   -0.8940   22.7910 C   0  0  0  0  0  0  0  0  0  0  0  0
    6.5910   -0.2042   19.6077 C   0  0  0  0  0  0  0  0  0  0  0  0
   12.6400   -1.1000   22.2390 C   0  0  0  0  0  0  0  0  0  0  0  0
    5.2740    0.2013   19.6814 C   0  0  0  0  0  0  0  0  0  0  0  0
    8.3880   -0.3240   21.3070 C   0  0  0  0  0  0  0  0  0  0  0  0
    4.5001    0.0388   20.9491 C   0  0  0  0  0  0  0  0  0  0  0  0
    9.0371   -3.1309   20.7472 C   0  0  0  0  0  0  0  0  0  0  0  0
    9.3824   -3.6071   23.1664 C   0  0  0  0  0  0  0  0  0  0  0  0
    8.8810   -1.1900   22.4510 C   0  0  2  0  0  0  0  0  0  0  0  0
    8.6236   -2.7197   22.1677 C   0  0  0  0  0  0  0  0  0  0  0  0
    6.5981    0.5417   17.3192 N   0  0  0  0  0  0  0  0  0  0  0  0
    4.6020    0.7572   18.6520 N   0  0  0  0  0  0  0  0  0  0  0  0
    7.2820   -0.7860   20.6970 N   0  0  0  0  0  0  0  0  0  0  0  0
    8.9170    0.7530   21.0260 O   0  0  0  0  0  0  0  0  0  0  0  0
   13.8840   -1.8490   21.2740 Cl  0  0  0  0  0  0  0  0  0  0  0  0
   12.2249    1.2198   24.6546 H   0  0  0  0  0  0  0  0  0  0  0  0
    9.8763    0.5350   24.3454 H   0  0  0  0  0  0  0  0  0  0  0  0
   14.0077    0.1988   23.2842 H   0  0  0  0  0  0  0  0  0  0  0  0
   11.0892   -2.3009   21.3624 H   0  0  0  0  0  0  0  0  0  0  0  0
    8.2442   -0.2909   18.2260 H   0  0  0  0  0  0  0  0  0  0  0  0
    4.7980    1.3371   16.6732 H   0  0  0  0  0  0  0  0  0  0  0  0
    4.6082    0.9309   21.5765 H   0  0  0  0  0  0  0  0  0  0  0  0
    3.4341   -0.1185   20.7447 H   0  0  0  0  0  0  0  0  0  0  0  0
    4.8488   -0.8328   21.5166 H   0  0  0  0  0  0  0  0  0  0  0  0
   10.1017   -2.9403   20.5739 H   0  0  0  0  0  0  0  0  0  0  0  0
    8.4652   -2.5898   19.9876 H   0  0  0  0  0  0  0  0  0  0  0  0
    8.8553   -4.1990   20.5844 H   0  0  0  0  0  0  0  0  0  0  0  0
   10.4633   -3.4405   23.1018 H   0  0  0  0  0  0  0  0  0  0  0  0
    9.0712   -3.4141   24.1973 H   0  0  0  0  0  0  0  0  0  0  0  0
    9.1925   -4.6670   22.9646 H   0  0  0  0  0  0  0  0  0  0  0  0
    8.2561   -0.9611   23.3466 H   0  0  0  0  0  0  0  0  0  0  0  0
    7.5531   -2.9329   22.2819 H   0  0  0  0  0  0  0  0  0  0  0  0
    6.8782   -1.6497   21.0528 H   0  0  0  0  0  0  0  0  0  0  0  0
  1  2  2  0  0  0  0
  1  3  1  0  0  0  0
  2  7  1  0  0  0  0
  3  9  2  0  0  0  0
  4  7  2  0  0  0  0
  4  9  1  0  0  0  0
  5  8  2  0  0  0  0
  5 17  1  0  0  0  0
  6 17  2  0  0  0  0
  6 18  1  0  0  0  0
  7 15  1  0  0  0  0
  8 10  1  0  0  0  0
  8 19  1  0  0  0  0
  9 21  1  0  0  0  0
 10 12  1  0  0  0  0
 10 18  2  0  0  0  0
 11 15  1  6  0  0  0
 11 19  1  0  0  0  0
 11 20  2  0  0  0  0
 13 16  1  0  0  0  0
 14 16  1  0  0  0  0
 15 16  1  0  0  0  0
  1 22  1  0  0  0  0
  2 23  1  0  0  0  0
  3 24  1  0  0  0  0
  4 25  1  0  0  0  0
  5 26  1  0  0  0  0
  6 27  1  0  0  0  0
 12 28  1  0  0  0  0
 12 29  1  0  0  0  0
 12 30  1  0  0  0  0
 13 31  1  0  0  0  0
 13 32  1  0  0  0  0
 13 33  1  0  0  0  0
 14 34  1  0  0  0  0
 14 35  1  0  0  0  0
 14 36  1  0  0  0  0
 15 37  1  0  0  0  0
 16 38  1  0  0  0  0
 19 39  1  0  0  0  0
M  END
> <compound>
JAN-GHE-83b26c96-7

> <compound_smiles>
Cc1c(cncn1)NC(=O)C(c2cccc(c2)Cl)C(C)C

> <enantiomer_smiles>
Cc1c(cncn1)NC(=O)[C@H](c2cccc(c2)Cl)C(C)C

> <scaffold>
chlorobenzene-linker

> <clash_score>
0

> <docking_score>
-6.462163925170898

> <overlap_score>
0.8495182991027832

> <MMFF_internal_energy>
105.5620671166924

> <docked_smiles>
Cc1c(cncn1)NC(=O)[C@H](c2cccc(c2)Cl)C(C)C

$$$$
ADA-UNI-f8e79267-8_2
  -OEChem-07262101013D

 42 43  0     1  0  0  0  0  0999 V2000
   11.9780    0.4600   23.9150 C   0  0  0  0  0  0  0  0  0  0  0  0
    4.6050    0.7460   18.6390 C   0  0  0  0  0  0  0  0  0  0  0  0
   10.6560    0.0720   23.7350 C   0  0  0  0  0  0  0  0  0  0  0  0
    5.2588    0.1777   19.7266 C   0  0  0  0  0  0  0  0  0  0  0  0
   12.9840   -0.1200   23.1530 C   0  0  0  0  0  0  0  0  0  0  0  0
   11.3360   -1.5050   22.0650 C   0  0  0  0  0  0  0  0  0  0  0  0
    5.3214    0.9085   17.4642 C   0  0  0  0  0  0  0  0  0  0  0  0
    7.2176   -0.0005   18.3896 C   0  0  0  0  0  0  0  0  0  0  0  0
   10.3220   -0.8940   22.7910 C   0  0  0  0  0  0  0  0  0  0  0  0
    6.5901   -0.2054   19.6079 C   0  0  0  0  0  0  0  0  0  0  0  0
   12.6400   -1.1000   22.2390 C   0  0  0  0  0  0  0  0  0  0  0  0
    8.3880   -0.3240   21.3070 C   0  0  0  0  0  0  0  0  0  0  0  0
    8.3359   -4.8330   26.7278 C   0  0  0  0  0  0  0  0  0  0  0  0
    7.9424   -1.0543   23.6852 C   0  0  0  0  0  0  0  0  0  0  0  0
    8.3059   -1.9496   24.8693 C   0  0  0  0  0  0  0  0  0  0  0  0
    8.8810   -1.1900   22.4510 C   0  0  2  0  0  0  0  0  0  0  0  0
    6.6155    0.5486   17.3109 N   0  0  0  0  0  0  0  0  0  0  0  0
    7.2820   -0.7860   20.6970 N   0  0  0  0  0  0  0  0  0  0  0  0
    8.2399   -3.3747   24.4805 N   0  0  0  0  0  0  0  0  0  0  0  0
    8.9170    0.7530   21.0260 O   0  0  0  0  0  0  0  0  0  0  0  0
   10.5020   -3.8379   25.6470 O   0  0  0  0  0  0  0  0  0  0  0  0
    9.2951   -5.7101   24.4659 O   0  0  0  0  0  0  0  0  0  0  0  0
    9.2696   -4.4924   25.2533 S   0  0  0  0  0  0  0  0  0  0  0  0
   13.8840   -1.8490   21.2740 Cl  0  0  0  0  0  0  0  0  0  0  0  0
   12.2249    1.2198   24.6546 H   0  0  0  0  0  0  0  0  0  0  0  0
    3.5675    1.0522   18.7088 H   0  0  0  0  0  0  0  0  0  0  0  0
    9.8763    0.5350   24.3454 H   0  0  0  0  0  0  0  0  0  0  0  0
    4.7219    0.0381   20.6612 H   0  0  0  0  0  0  0  0  0  0  0  0
   14.0077    0.1988   23.2842 H   0  0  0  0  0  0  0  0  0  0  0  0
   11.0892   -2.3009   21.3624 H   0  0  0  0  0  0  0  0  0  0  0  0
    4.8572    1.3477   16.5874 H   0  0  0  0  0  0  0  0  0  0  0  0
    8.2558   -0.2791   18.2355 H   0  0  0  0  0  0  0  0  0  0  0  0
    8.8932   -5.5524   27.3299 H   0  0  0  0  0  0  0  0  0  0  0  0
    8.2028   -3.8984   27.2747 H   0  0  0  0  0  0  0  0  0  0  0  0
    7.3694   -5.2463   26.4355 H   0  0  0  0  0  0  0  0  0  0  0  0
    6.9136   -1.2811   23.3738 H   0  0  0  0  0  0  0  0  0  0  0  0
    7.9300   -0.0129   24.0314 H   0  0  0  0  0  0  0  0  0  0  0  0
    7.5953   -1.7875   25.6868 H   0  0  0  0  0  0  0  0  0  0  0  0
    9.3072   -1.7295   25.2510 H   0  0  0  0  0  0  0  0  0  0  0  0
    8.7981   -2.2405   22.1108 H   0  0  0  0  0  0  0  0  0  0  0  0
    6.8977   -1.6551   21.0615 H   0  0  0  0  0  0  0  0  0  0  0  0
    7.2937   -3.6945   24.2443 H   0  0  0  0  0  0  0  0  0  0  0  0
  1  3  2  0  0  0  0
  1  5  1  0  0  0  0
  2  4  2  0  0  0  0
  2  7  1  0  0  0  0
  3  9  1  0  0  0  0
  4 10  1  0  0  0  0
  5 11  2  0  0  0  0
  6  9  2  0  0  0  0
  6 11  1  0  0  0  0
  7 17  2  0  0  0  0
  8 10  2  0  0  0  0
  8 17  1  0  0  0  0
  9 16  1  0  0  0  0
 10 18  1  0  0  0  0
 11 24  1  0  0  0  0
 12 16  1  0  0  0  0
 12 18  1  0  0  0  0
 12 20  2  0  0  0  0
 13 23  1  0  0  0  0
 14 15  1  0  0  0  0
 14 16  1  6  0  0  0
 15 19  1  0  0  0  0
 19 23  1  0  0  0  0
 21 23  2  0  0  0  0
 22 23  2  0  0  0  0
  1 25  1  0  0  0  0
  2 26  1  0  0  0  0
  3 27  1  0  0  0  0
  4 28  1  0  0  0  0
  5 29  1  0  0  0  0
  6 30  1  0  0  0  0
  7 31  1  0  0  0  0
  8 32  1  0  0  0  0
 13 33  1  0  0  0  0
 13 34  1  0  0  0  0
 13 35  1  0  0  0  0
 14 36  1  0  0  0  0
 14 37  1  0  0  0  0
 15 38  1  0  0  0  0
 15 39  1  0  0  0  0
 16 40  1  0  0  0  0
 18 41  1  0  0  0  0
 19 42  1  0  0  0  0
M  END
> <compound>
ADA-UNI-f8e79267-8

> <compound_smiles>
CS(=O)(=O)NCCC(c1cccc(c1)Cl)C(=O)Nc2cccnc2

> <enantiomer_smiles>
CS(=O)(=O)NCC[C@H](c1cccc(c1)Cl)C(=O)Nc2cccnc2

> <scaffold>
chlorobenzene-linker

> <clash_score>
0

> <docking_score>
-9.144267082214355

> <overlap_score>
0.8045823574066162

> <MMFF_internal_energy>
5.469600188339944

> <docked_smiles>
CS(=O)(=O)NCC[C@H](c1cccc(c1)Cl)C(=O)Nc2cccnc2

$$$$
JAN-GHE-83b26c96-3_2
  -OEChem-07262101013D

 38 40  0     1  0  0  0  0  0999 V2000
   11.9780    0.4600   23.9150 C   0  0  0  0  0  0  0  0  0  0  0  0
   10.6560    0.0720   23.7350 C   0  0  0  0  0  0  0  0  0  0  0  0
   12.9840   -0.1200   23.1530 C   0  0  0  0  0  0  0  0  0  0  0  0
    4.3905    2.2722   22.7323 C   0  0  0  0  0  0  0  0  0  0  0  0
    4.9165    1.2517   18.6800 C   0  0  0  0  0  0  0  0  0  0  0  0
   11.3360   -1.5050   22.0650 C   0  0  0  0  0  0  0  0  0  0  0  0
    4.8021    0.9826   23.1187 C   0  0  0  0  0  0  0  0  0  0  0  0
    5.3342    0.8429   17.4238 C   0  0  0  0  0  0  0  0  0  0  0  0
    6.9328   -0.5490   18.3100 C   0  0  0  0  0  0  0  0  0  0  0  0
    4.6382    2.3215   21.3822 C   0  0  0  0  0  0  0  0  0  0  0  0
   10.3220   -0.8940   22.7910 C   0  0  0  0  0  0  0  0  0  0  0  0
    5.5616    0.7130   19.7877 C   0  0  0  0  0  0  0  0  0  0  0  0
    6.5902   -0.2052   19.6078 C   0  0  0  0  0  0  0  0  0  0  0  0
   12.6400   -1.1000   22.2390 C   0  0  0  0  0  0  0  0  0  0  0  0
    8.3880   -0.3240   21.3070 C   0  0  0  0  0  0  0  0  0  0  0  0
    7.9670   -1.0352   23.6784 C   0  0  0  0  0  0  0  0  0  0  0  0
    8.8810   -1.1900   22.4510 C   0  0  2  0  0  0  0  0  0  0  0  0
    6.3292   -0.0468   17.2095 N   0  0  0  0  0  0  0  0  0  0  0  0
    5.2752    0.2645   22.0967 N   0  0  0  0  0  0  0  0  0  0  0  0
    5.1624    1.1057   21.0548 N   0  0  0  0  0  0  0  0  0  0  0  0
    7.2820   -0.7860   20.6970 N   0  0  0  0  0  0  0  0  0  0  0  0
    8.9170    0.7530   21.0260 O   0  0  0  0  0  0  0  0  0  0  0  0
   13.8840   -1.8490   21.2740 Cl  0  0  0  0  0  0  0  0  0  0  0  0
   12.2249    1.2198   24.6546 H   0  0  0  0  0  0  0  0  0  0  0  0
    9.8763    0.5350   24.3454 H   0  0  0  0  0  0  0  0  0  0  0  0
   14.0077    0.1988   23.2842 H   0  0  0  0  0  0  0  0  0  0  0  0
    3.9721    3.0562   23.3461 H   0  0  0  0  0  0  0  0  0  0  0  0
    4.1099    1.9711   18.7804 H   0  0  0  0  0  0  0  0  0  0  0  0
   11.0892   -2.3009   21.3624 H   0  0  0  0  0  0  0  0  0  0  0  0
    4.7771    0.5356   24.1024 H   0  0  0  0  0  0  0  0  0  0  0  0
    4.8635    1.2333   16.5276 H   0  0  0  0  0  0  0  0  0  0  0  0
    7.7269   -1.2608   18.1040 H   0  0  0  0  0  0  0  0  0  0  0  0
    4.4852    3.1037   20.6504 H   0  0  0  0  0  0  0  0  0  0  0  0
    8.0088   -0.0193   24.0871 H   0  0  0  0  0  0  0  0  0  0  0  0
    6.9216   -1.2406   23.4222 H   0  0  0  0  0  0  0  0  0  0  0  0
    8.2585   -1.7315   24.4726 H   0  0  0  0  0  0  0  0  0  0  0  0
    8.7806   -2.2413   22.1242 H   0  0  0  0  0  0  0  0  0  0  0  0
    6.8824   -1.6524   21.0513 H   0  0  0  0  0  0  0  0  0  0  0  0
  1  2  2  0  0  0  0
  1  3  1  0  0  0  0
  2 11  1  0  0  0  0
  3 14  2  0  0  0  0
  4  7  1  0  0  0  0
  4 10  2  0  0  0  0
  5  8  2  0  0  0  0
  5 12  1  0  0  0  0
  6 11  2  0  0  0  0
  6 14  1  0  0  0  0
  7 19  2  0  0  0  0
  8 18  1  0  0  0  0
  9 13  1  0  0  0  0
  9 18  2  0  0  0  0
 10 20  1  0  0  0  0
 11 17  1  0  0  0  0
 12 13  2  0  0  0  0
 12 20  1  0  0  0  0
 13 21  1  0  0  0  0
 14 23  1  0  0  0  0
 15 17  1  0  0  0  0
 15 21  1  0  0  0  0
 15 22  2  0  0  0  0
 16 17  1  6  0  0  0
 19 20  1  0  0  0  0
  1 24  1  0  0  0  0
  2 25  1  0  0  0  0
  3 26  1  0  0  0  0
  4 27  1  0  0  0  0
  5 28  1  0  0  0  0
  6 29  1  0  0  0  0
  7 30  1  0  0  0  0
  8 31  1  0  0  0  0
  9 32  1  0  0  0  0
 10 33  1  0  0  0  0
 16 34  1  0  0  0  0
 16 35  1  0  0  0  0
 16 36  1  0  0  0  0
 17 37  1  0  0  0  0
 21 38  1  0  0  0  0
M  END
> <compound>
JAN-GHE-83b26c96-3

> <compound_smiles>
CC(c1cccc(c1)Cl)C(=O)Nc2cnccc2n3cccn3

> <enantiomer_smiles>
C[C@H](c1cccc(c1)Cl)C(=O)Nc2cnccc2n3cccn3

> <scaffold>
chlorobenzene-linker

> <clash_score>
0

> <docking_score>
-11.091032028198242

> <overlap_score>
0.9441733360290527

> <MMFF_internal_energy>
100.11715280536242

> <docked_smiles>
C[C@H](c1cccc(c1)Cl)C(=O)Nc2cnccc2n3cccn3

$$$$
JAN-GHE-83b26c96-15_1
  -OEChem-07262101013D

 34 35  0     0  0  0  0  0  0999 V2000
   11.9780    0.4600   23.9150 C   0  0  0  0  0  0  0  0  0  0  0  0
   10.6560    0.0720   23.7350 C   0  0  0  0  0  0  0  0  0  0  0  0
   12.9840   -0.1200   23.1530 C   0  0  0  0  0  0  0  0  0  0  0  0
    5.0456    1.1464   18.3940 C   0  0  0  0  0  0  0  0  0  0  0  0
   11.3360   -1.5050   22.0650 C   0  0  0  0  0  0  0  0  0  0  0  0
    4.4829    1.9974   19.3315 C   0  0  0  0  0  0  0  0  0  0  0  0
    5.6961    1.0601   21.0425 C   0  0  0  0  0  0  0  0  0  0  0  0
   10.3220   -0.8940   22.7910 C   0  0  0  0  0  0  0  0  0  0  0  0
    5.9786    0.2156   18.8372 C   0  0  0  0  0  0  0  0  0  0  0  0
    6.3156    0.1650   20.1853 C   0  0  0  0  0  0  0  0  0  0  0  0
   12.6400   -1.1000   22.2390 C   0  0  0  0  0  0  0  0  0  0  0  0
    8.3880   -0.3240   21.3070 C   0  0  0  0  0  0  0  0  0  0  0  0
    6.6007   -0.7148   17.8482 C   0  0  0  0  0  0  0  0  0  0  0  0
    7.0202   -2.2244   20.5317 C   0  0  0  0  0  0  0  0  0  0  0  0
    8.8810   -1.1900   22.4510 C   0  0  0  0  0  0  0  0  0  0  0  0
    4.7851    1.9782   20.6490 N   0  0  0  0  0  0  0  0  0  0  0  0
    7.2820   -0.7860   20.6970 N   0  0  0  0  0  0  0  0  0  0  0  0
    8.9170    0.7530   21.0260 O   0  0  0  0  0  0  0  0  0  0  0  0
   13.8840   -1.8490   21.2740 Cl  0  0  0  0  0  0  0  0  0  0  0  0
   12.2249    1.2198   24.6546 H   0  0  0  0  0  0  0  0  0  0  0  0
    9.8763    0.5350   24.3454 H   0  0  0  0  0  0  0  0  0  0  0  0
   14.0077    0.1988   23.2842 H   0  0  0  0  0  0  0  0  0  0  0  0
    4.7608    1.2115   17.3494 H   0  0  0  0  0  0  0  0  0  0  0  0
   11.0892   -2.3009   21.3624 H   0  0  0  0  0  0  0  0  0  0  0  0
    3.7499    2.7413   19.0369 H   0  0  0  0  0  0  0  0  0  0  0  0
    5.9176    1.0700   22.1056 H   0  0  0  0  0  0  0  0  0  0  0  0
    7.5137   -0.2726   17.4331 H   0  0  0  0  0  0  0  0  0  0  0  0
    6.8572   -1.6744   18.3137 H   0  0  0  0  0  0  0  0  0  0  0  0
    5.9118   -0.9342   17.0230 H   0  0  0  0  0  0  0  0  0  0  0  0
    7.4510   -2.5690   19.5800 H   0  0  0  0  0  0  0  0  0  0  0  0
    7.4791   -2.7785   21.3638 H   0  0  0  0  0  0  0  0  0  0  0  0
    5.9345   -2.4013   20.5280 H   0  0  0  0  0  0  0  0  0  0  0  0
    8.7925   -2.2408   22.1686 H   0  0  0  0  0  0  0  0  0  0  0  0
    8.2587   -1.0122   23.3300 H   0  0  0  0  0  0  0  0  0  0  0  0
  1  2  2  0  0  0  0
  1  3  1  0  0  0  0
  2  8  1  0  0  0  0
  3 11  2  0  0  0  0
  4  6  2  0  0  0  0
  4  9  1  0  0  0  0
  5  8  2  0  0  0  0
  5 11  1  0  0  0  0
  6 16  1  0  0  0  0
  7 10  1  0  0  0  0
  7 16  2  0  0  0  0
  8 15  1  0  0  0  0
  9 10  2  0  0  0  0
  9 13  1  0  0  0  0
 10 17  1  0  0  0  0
 11 19  1  0  0  0  0
 12 15  1  0  0  0  0
 12 17  1  0  0  0  0
 12 18  2  0  0  0  0
 14 17  1  0  0  0  0
  1 20  1  0  0  0  0
  2 21  1  0  0  0  0
  3 22  1  0  0  0  0
  4 23  1  0  0  0  0
  5 24  1  0  0  0  0
  6 25  1  0  0  0  0
  7 26  1  0  0  0  0
 13 27  1  0  0  0  0
 13 28  1  0  0  0  0
 13 29  1  0  0  0  0
 14 30  1  0  0  0  0
 14 31  1  0  0  0  0
 14 32  1  0  0  0  0
 15 33  1  0  0  0  0
 15 34  1  0  0  0  0
M  END
> <compound>
JAN-GHE-83b26c96-15

> <compound_smiles>
Cc1ccncc1N(C)C(=O)Cc2cccc(c2)Cl

> <enantiomer_smiles>
Cc1ccncc1N(C)C(=O)Cc2cccc(c2)Cl

> <scaffold>
chlorobenzene-linker

> <clash_score>
0

> <docking_score>
-7.505177021026611

> <overlap_score>
0.8694437146186829

> <MMFF_internal_energy>
103.94522070928818

> <docked_smiles>
Cc1ccncc1N(C)C(=O)Cc2cccc(c2)Cl

$$$$
JAN-GHE-83b26c96-3_1
  -OEChem-07262101013D

 38 40  0     1  0  0  0  0  0999 V2000
   11.9780    0.4600   23.9150 C   0  0  0  0  0  0  0  0  0  0  0  0
   10.6560    0.0720   23.7350 C   0  0  0  0  0  0  0  0  0  0  0  0
   12.9840   -0.1200   23.1530 C   0  0  0  0  0  0  0  0  0  0  0  0
    4.3905    2.2722   22.7323 C   0  0  0  0  0  0  0  0  0  0  0  0
    4.9165    1.2517   18.6800 C   0  0  0  0  0  0  0  0  0  0  0  0
   11.3360   -1.5050   22.0650 C   0  0  0  0  0  0  0  0  0  0  0  0
    4.8021    0.9826   23.1187 C   0  0  0  0  0  0  0  0  0  0  0  0
    5.3342    0.8429   17.4238 C   0  0  0  0  0  0  0  0  0  0  0  0
    6.9328   -0.5490   18.3100 C   0  0  0  0  0  0  0  0  0  0  0  0
    4.6382    2.3215   21.3822 C   0  0  0  0  0  0  0  0  0  0  0  0
   10.3220   -0.8940   22.7910 C   0  0  0  0  0  0  0  0  0  0  0  0
    5.5616    0.7130   19.7877 C   0  0  0  0  0  0  0  0  0  0  0  0
    6.5902   -0.2052   19.6078 C   0  0  0  0  0  0  0  0  0  0  0  0
   12.6400   -1.1000   22.2390 C   0  0  0  0  0  0  0  0  0  0  0  0
    8.3880   -0.3240   21.3070 C   0  0  0  0  0  0  0  0  0  0  0  0
    8.6719   -2.6843   22.1478 C   0  0  0  0  0  0  0  0  0  0  0  0
    8.8810   -1.1900   22.4510 C   0  0  1  0  0  0  0  0  0  0  0  0
    6.3292   -0.0468   17.2094 N   0  0  0  0  0  0  0  0  0  0  0  0
    5.2752    0.2645   22.0967 N   0  0  0  0  0  0  0  0  0  0  0  0
    5.1624    1.1057   21.0548 N   0  0  0  0  0  0  0  0  0  0  0  0
    7.2820   -0.7860   20.6970 N   0  0  0  0  0  0  0  0  0  0  0  0
    8.9170    0.7530   21.0260 O   0  0  0  0  0  0  0  0  0  0  0  0
   13.8840   -1.8490   21.2740 Cl  0  0  0  0  0  0  0  0  0  0  0  0
   12.2249    1.2198   24.6546 H   0  0  0  0  0  0  0  0  0  0  0  0
    9.8763    0.5350   24.3454 H   0  0  0  0  0  0  0  0  0  0  0  0
   14.0077    0.1988   23.2842 H   0  0  0  0  0  0  0  0  0  0  0  0
    3.9721    3.0562   23.3461 H   0  0  0  0  0  0  0  0  0  0  0  0
    4.1099    1.9711   18.7804 H   0  0  0  0  0  0  0  0  0  0  0  0
   11.0892   -2.3009   21.3624 H   0  0  0  0  0  0  0  0  0  0  0  0
    4.7771    0.5356   24.1024 H   0  0  0  0  0  0  0  0  0  0  0  0
    4.8635    1.2333   16.5276 H   0  0  0  0  0  0  0  0  0  0  0  0
    7.7269   -1.2608   18.1040 H   0  0  0  0  0  0  0  0  0  0  0  0
    4.4852    3.1037   20.6504 H   0  0  0  0  0  0  0  0  0  0  0  0
    9.2843   -3.0131   21.3007 H   0  0  0  0  0  0  0  0  0  0  0  0
    8.9296   -3.3200   23.0024 H   0  0  0  0  0  0  0  0  0  0  0  0
    7.6214   -2.8709   21.8984 H   0  0  0  0  0  0  0  0  0  0  0  0
    8.2360   -0.9649   23.3210 H   0  0  0  0  0  0  0  0  0  0  0  0
    6.8824   -1.6524   21.0513 H   0  0  0  0  0  0  0  0  0  0  0  0
  1  2  2  0  0  0  0
  1  3  1  0  0  0  0
  2 11  1  0  0  0  0
  3 14  2  0  0  0  0
  4  7  1  0  0  0  0
  4 10  2  0  0  0  0
  5  8  2  0  0  0  0
  5 12  1  0  0  0  0
  6 11  2  0  0  0  0
  6 14  1  0  0  0  0
  7 19  2  0  0  0  0
  8 18  1  0  0  0  0
  9 13  1  0  0  0  0
  9 18  2  0  0  0  0
 10 20  1  0  0  0  0
 11 17  1  0  0  0  0
 12 13  2  0  0  0  0
 12 20  1  0  0  0  0
 13 21  1  0  0  0  0
 14 23  1  0  0  0  0
 15 17  1  0  0  0  0
 15 21  1  0  0  0  0
 15 22  2  0  0  0  0
 16 17  1  1  0  0  0
 19 20  1  0  0  0  0
  1 24  1  0  0  0  0
  2 25  1  0  0  0  0
  3 26  1  0  0  0  0
  4 27  1  0  0  0  0
  5 28  1  0  0  0  0
  6 29  1  0  0  0  0
  7 30  1  0  0  0  0
  8 31  1  0  0  0  0
  9 32  1  0  0  0  0
 10 33  1  0  0  0  0
 16 34  1  0  0  0  0
 16 35  1  0  0  0  0
 16 36  1  0  0  0  0
 17 37  1  0  0  0  0
 21 38  1  0  0  0  0
M  END
> <compound>
JAN-GHE-83b26c96-3

> <compound_smiles>
CC(c1cccc(c1)Cl)C(=O)Nc2cnccc2n3cccn3

> <enantiomer_smiles>
C[C@@H](c1cccc(c1)Cl)C(=O)Nc2cnccc2n3cccn3

> <scaffold>
chlorobenzene-linker

> <clash_score>
0

> <docking_score>
-10.839466094970703

> <overlap_score>
0.9444740414619446

> <MMFF_internal_energy>
104.87385549054059

> <docked_smiles>
C[C@@H](c1cccc(c1)Cl)C(=O)Nc2cnccc2n3cccn3

$$$$
JAN-GHE-83b26c96-10_2
  -OEChem-07262101013D

 40 41  0     1  0  0  0  0  0999 V2000
   11.9780    0.4600   23.9150 C   0  0  0  0  0  0  0  0  0  0  0  0
   10.6560    0.0720   23.7350 C   0  0  0  0  0  0  0  0  0  0  0  0
   12.9840   -0.1200   23.1530 C   0  0  0  0  0  0  0  0  0  0  0  0
    4.6233    0.7519   18.6083 C   0  0  0  0  0  0  0  0  0  0  0  0
   11.3360   -1.5050   22.0650 C   0  0  0  0  0  0  0  0  0  0  0  0
    5.3563    0.9065   17.4426 C   0  0  0  0  0  0  0  0  0  0  0  0
    7.2356   -0.0072   18.3973 C   0  0  0  0  0  0  0  0  0  0  0  0
   10.3220   -0.8940   22.7910 C   0  0  0  0  0  0  0  0  0  0  0  0
    5.2597    0.1850   19.7069 C   0  0  0  0  0  0  0  0  0  0  0  0
    6.5908   -0.2044   19.6077 C   0  0  0  0  0  0  0  0  0  0  0  0
   12.6400   -1.1000   22.2390 C   0  0  0  0  0  0  0  0  0  0  0  0
    8.3880   -0.3240   21.3070 C   0  0  0  0  0  0  0  0  0  0  0  0
    4.4934    0.0071   20.9765 C   0  0  0  0  0  0  0  0  0  0  0  0
    8.9688   -2.9379   20.6745 C   0  0  0  0  0  0  0  0  0  0  0  0
    9.3572   -3.5596   23.0543 C   0  0  0  0  0  0  0  0  0  0  0  0
    8.8810   -1.1900   22.4510 C   0  0  2  0  0  0  0  0  0  0  0  0
    6.6506    0.5402   17.3084 N   0  0  0  0  0  0  0  0  0  0  0  0
    7.2820   -0.7860   20.6970 N   0  0  0  0  0  0  0  0  0  0  0  0
    8.6434   -2.6354   22.1094 N   0  3  0  0  0  0  0  0  0  0  0  0
    8.9170    0.7530   21.0260 O   0  0  0  0  0  0  0  0  0  0  0  0
   13.8840   -1.8490   21.2740 Cl  0  0  0  0  0  0  0  0  0  0  0  0
   12.2249    1.2198   24.6546 H   0  0  0  0  0  0  0  0  0  0  0  0
    9.8763    0.5350   24.3454 H   0  0  0  0  0  0  0  0  0  0  0  0
   14.0077    0.1988   23.2842 H   0  0  0  0  0  0  0  0  0  0  0  0
    3.5862    1.0665   18.6529 H   0  0  0  0  0  0  0  0  0  0  0  0
   11.0892   -2.3009   21.3624 H   0  0  0  0  0  0  0  0  0  0  0  0
    4.9061    1.3435   16.5574 H   0  0  0  0  0  0  0  0  0  0  0  0
    8.2746   -0.2910   18.2577 H   0  0  0  0  0  0  0  0  0  0  0  0
    4.0017   -0.9724   20.9892 H   0  0  0  0  0  0  0  0  0  0  0  0
    5.1524    0.0790   21.8505 H   0  0  0  0  0  0  0  0  0  0  0  0
    3.7275    0.7845   21.0893 H   0  0  0  0  0  0  0  0  0  0  0  0
   10.0361   -2.7610   20.5297 H   0  0  0  0  0  0  0  0  0  0  0  0
    8.7151   -3.9830   20.4875 H   0  0  0  0  0  0  0  0  0  0  0  0
    8.3722   -2.2712   20.0489 H   0  0  0  0  0  0  0  0  0  0  0  0
   10.4295   -3.3907   22.9402 H   0  0  0  0  0  0  0  0  0  0  0  0
    9.0278   -3.3213   24.0674 H   0  0  0  0  0  0  0  0  0  0  0  0
    9.0904   -4.5834   22.7854 H   0  0  0  0  0  0  0  0  0  0  0  0
    8.2445   -1.0188   23.3300 H   0  0  0  0  0  0  0  0  0  0  0  0
    6.8974   -1.6551   21.0612 H   0  0  0  0  0  0  0  0  0  0  0  0
    7.6359   -2.8067   22.2291 H   0  0  0  0  0  0  0  0  0  0  0  0
  1  2  2  0  0  0  0
  1  3  1  0  0  0  0
  2  8  1  0  0  0  0
  3 11  2  0  0  0  0
  4  6  2  0  0  0  0
  4  9  1  0  0  0  0
  5  8  2  0  0  0  0
  5 11  1  0  0  0  0
  6 17  1  0  0  0  0
  7 10  1  0  0  0  0
  7 17  2  0  0  0  0
  8 16  1  0  0  0  0
  9 10  2  0  0  0  0
  9 13  1  0  0  0  0
 10 18  1  0  0  0  0
 11 21  1  0  0  0  0
 12 16  1  6  0  0  0
 12 18  1  0  0  0  0
 12 20  2  0  0  0  0
 14 19  1  0  0  0  0
 15 19  1  0  0  0  0
 16 19  1  0  0  0  0
  1 22  1  0  0  0  0
  2 23  1  0  0  0  0
  3 24  1  0  0  0  0
  4 25  1  0  0  0  0
  5 26  1  0  0  0  0
  6 27  1  0  0  0  0
  7 28  1  0  0  0  0
 13 29  1  0  0  0  0
 13 30  1  0  0  0  0
 13 31  1  0  0  0  0
 14 32  1  0  0  0  0
 14 33  1  0  0  0  0
 14 34  1  0  0  0  0
 15 35  1  0  0  0  0
 15 36  1  0  0  0  0
 15 37  1  0  0  0  0
 16 38  1  0  0  0  0
 18 39  1  0  0  0  0
 19 40  1  0  0  0  0
M  CHG  1  19   1
M  END
> <compound>
JAN-GHE-83b26c96-10

> <compound_smiles>
Cc1ccncc1NC(=O)C(c2cccc(c2)Cl)N(C)C

> <enantiomer_smiles>
Cc1ccncc1NC(=O)[C@H](c2cccc(c2)Cl)N(C)C

> <scaffold>
chlorobenzene-linker

> <clash_score>
0

> <docking_score>
-7.1185150146484375

> <overlap_score>
0.8484156727790833

> <MMFF_internal_energy>
172.3931427409165

> <docked_smiles>
Cc1ccncc1NC(=O)[C@H](c2cccc(c2)Cl)[NH+](C)C

$$$$
ALP-POS-95b75b4d-6_1
  -OEChem-07262101013D

 29 30  0     0  0  0  0  0  0999 V2000
   11.9780    0.4600   23.9150 C   0  0  0  0  0  0  0  0  0  0  0  0
   10.6560    0.0720   23.7350 C   0  0  0  0  0  0  0  0  0  0  0  0
   12.9840   -0.1200   23.1530 C   0  0  0  0  0  0  0  0  0  0  0  0
   11.3360   -1.5050   22.0650 C   0  0  0  0  0  0  0  0  0  0  0  0
   10.3220   -0.8940   22.7910 C   0  0  0  0  0  0  0  0  0  0  0  0
   12.6400   -1.1000   22.2390 C   0  0  0  0  0  0  0  0  0  0  0  0
    5.5136    1.8934   18.6659 C   0  0  0  0  0  0  0  0  0  0  0  0
    5.4283    1.1891   17.5296 C   0  0  0  0  0  0  0  0  0  0  0  0
    6.5151   -0.7238   18.4452 C   0  0  0  0  0  0  0  0  0  0  0  0
    6.6800   -0.1588   19.6501 C   0  0  0  0  0  0  0  0  0  0  0  0
    6.1693    1.2392   19.8408 C   0  0  0  0  0  0  0  0  0  0  0  0
    8.3880   -0.3240   21.3070 C   0  0  0  0  0  0  0  0  0  0  0  0
    8.8810   -1.1900   22.4510 C   0  0  0  0  0  0  0  0  0  0  0  0
    5.9081   -0.0847   17.3983 N   0  0  0  0  0  0  0  0  0  0  0  0
    7.2820   -0.7860   20.6970 N   0  0  0  0  0  0  0  0  0  0  0  0
    6.2774    1.8335   20.9082 O   0  0  0  0  0  0  0  0  0  0  0  0
    8.9170    0.7530   21.0260 O   0  0  0  0  0  0  0  0  0  0  0  0
   13.8840   -1.8490   21.2740 Cl  0  0  0  0  0  0  0  0  0  0  0  0
   12.2249    1.2198   24.6546 H   0  0  0  0  0  0  0  0  0  0  0  0
    9.8763    0.5350   24.3454 H   0  0  0  0  0  0  0  0  0  0  0  0
   14.0077    0.1988   23.2842 H   0  0  0  0  0  0  0  0  0  0  0  0
   11.0892   -2.3009   21.3624 H   0  0  0  0  0  0  0  0  0  0  0  0
    5.1323    2.9014   18.7640 H   0  0  0  0  0  0  0  0  0  0  0  0
    4.9702    1.5856   16.6323 H   0  0  0  0  0  0  0  0  0  0  0  0
    6.8484   -1.7272   18.2084 H   0  0  0  0  0  0  0  0  0  0  0  0
    8.2535   -1.0146   23.3240 H   0  0  0  0  0  0  0  0  0  0  0  0
    8.7756   -2.2377   22.1724 H   0  0  0  0  0  0  0  0  0  0  0  0
    5.8113   -0.5627   16.5118 H   0  0  0  0  0  0  0  0  0  0  0  0
    6.8638   -1.6497   21.0281 H   0  0  0  0  0  0  0  0  0  0  0  0
  1  2  1  0  0  0  0
  1  3  2  0  0  0  0
  2  5  2  0  0  0  0
  3  6  1  0  0  0  0
  4  5  1  0  0  0  0
  4  6  2  0  0  0  0
  5 13  1  0  0  0  0
  6 18  1  0  0  0  0
  7  8  2  0  0  0  0
  7 11  1  0  0  0  0
  8 14  1  0  0  0  0
  9 10  2  0  0  0  0
  9 14  1  0  0  0  0
 10 11  1  0  0  0  0
 10 15  1  0  0  0  0
 11 16  2  0  0  0  0
 12 13  1  0  0  0  0
 12 15  1  0  0  0  0
 12 17  2  0  0  0  0
  1 19  1  0  0  0  0
  2 20  1  0  0  0  0
  3 21  1  0  0  0  0
  4 22  1  0  0  0  0
  7 23  1  0  0  0  0
  8 24  1  0  0  0  0
  9 25  1  0  0  0  0
 13 26  1  0  0  0  0
 13 27  1  0  0  0  0
 14 28  1  0  0  0  0
 15 29  1  0  0  0  0
M  END
> <compound>
ALP-POS-95b75b4d-6

> <compound_smiles>
c1cc(cc(c1)Cl)CC(=O)Nc2cnccc2O

> <enantiomer_smiles>
c1cc(cc(c1)Cl)CC(=O)Nc2cnccc2O

> <scaffold>
chlorobenzene-linker

> <clash_score>
0

> <docking_score>
-6.8131608963012695

> <overlap_score>
0.8031830787658691

> <MMFF_internal_energy>
85.39141971794042

> <docked_smiles>
c1cc(cc(c1)Cl)CC(=O)Nc2c[nH]ccc2=O

$$$$
ALP-POS-95b75b4d-5_1
  -OEChem-07262101013D

 35 37  0     0  0  0  0  0  0999 V2000
   11.9780    0.4600   23.9150 C   0  0  0  0  0  0  0  0  0  0  0  0
   10.6560    0.0720   23.7350 C   0  0  0  0  0  0  0  0  0  0  0  0
   12.9840   -0.1200   23.1530 C   0  0  0  0  0  0  0  0  0  0  0  0
    4.6265    0.7569   18.6065 C   0  0  0  0  0  0  0  0  0  0  0  0
   11.3360   -1.5050   22.0650 C   0  0  0  0  0  0  0  0  0  0  0  0
    5.3611    0.9105   17.4418 C   0  0  0  0  0  0  0  0  0  0  0  0
    7.2374   -0.0079   18.3980 C   0  0  0  0  0  0  0  0  0  0  0  0
    5.2605    0.1881   19.7055 C   0  0  0  0  0  0  0  0  0  0  0  0
   10.3220   -0.8940   22.7910 C   0  0  0  0  0  0  0  0  0  0  0  0
    6.5908   -0.2043   19.6076 C   0  0  0  0  0  0  0  0  0  0  0  0
   12.6400   -1.1000   22.2390 C   0  0  0  0  0  0  0  0  0  0  0  0
    8.3880   -0.3240   21.3070 C   0  0  0  0  0  0  0  0  0  0  0  0
    3.0272   -0.3232   20.8992 C   0  0  0  0  0  0  0  0  0  0  0  0
    3.4599    1.0354   21.3543 C   0  0  0  0  0  0  0  0  0  0  0  0
    4.4935    0.0091   20.9739 C   0  0  0  0  0  0  0  0  0  0  0  0
    8.8810   -1.1900   22.4510 C   0  0  0  0  0  0  0  0  0  0  0  0
    6.6548    0.5415   17.3087 N   0  0  0  0  0  0  0  0  0  0  0  0
    7.2820   -0.7860   20.6970 N   0  0  0  0  0  0  0  0  0  0  0  0
    8.9170    0.7530   21.0260 O   0  0  0  0  0  0  0  0  0  0  0  0
   13.8840   -1.8490   21.2740 Cl  0  0  0  0  0  0  0  0  0  0  0  0
   12.2249    1.2198   24.6546 H   0  0  0  0  0  0  0  0  0  0  0  0
    9.8763    0.5350   24.3454 H   0  0  0  0  0  0  0  0  0  0  0  0
   14.0077    0.1988   23.2842 H   0  0  0  0  0  0  0  0  0  0  0  0
    3.5898    1.0729   18.6489 H   0  0  0  0  0  0  0  0  0  0  0  0
   11.0892   -2.3009   21.3624 H   0  0  0  0  0  0  0  0  0  0  0  0
    4.9139    1.3494   16.5561 H   0  0  0  0  0  0  0  0  0  0  0  0
    8.2759   -0.2937   18.2591 H   0  0  0  0  0  0  0  0  0  0  0  0
    2.6328   -1.0031   21.6453 H   0  0  0  0  0  0  0  0  0  0  0  0
    2.5497   -0.4008   19.9300 H   0  0  0  0  0  0  0  0  0  0  0  0
    3.2749    1.8710   20.6896 H   0  0  0  0  0  0  0  0  0  0  0  0
    3.3562    1.2725   22.4064 H   0  0  0  0  0  0  0  0  0  0  0  0
    5.0497   -0.4392   21.7861 H   0  0  0  0  0  0  0  0  0  0  0  0
    8.7709   -2.2387   22.1706 H   0  0  0  0  0  0  0  0  0  0  0  0
    8.2491   -1.0157   23.3232 H   0  0  0  0  0  0  0  0  0  0  0  0
    6.8973   -1.6552   21.0612 H   0  0  0  0  0  0  0  0  0  0  0  0
  1  2  1  0  0  0  0
  1  3  2  0  0  0  0
  2  9  2  0  0  0  0
  3 11  1  0  0  0  0
  4  6  2  0  0  0  0
  4  8  1  0  0  0  0
  5  9  1  0  0  0  0
  5 11  2  0  0  0  0
  6 17  1  0  0  0  0
  7 10  1  0  0  0  0
  7 17  2  0  0  0  0
  8 10  2  0  0  0  0
  8 15  1  0  0  0  0
  9 16  1  0  0  0  0
 10 18  1  0  0  0  0
 11 20  1  0  0  0  0
 12 16  1  0  0  0  0
 12 18  1  0  0  0  0
 12 19  2  0  0  0  0
 13 14  1  0  0  0  0
 13 15  1  0  0  0  0
 14 15  1  0  0  0  0
  1 21  1  0  0  0  0
  2 22  1  0  0  0  0
  3 23  1  0  0  0  0
  4 24  1  0  0  0  0
  5 25  1  0  0  0  0
  6 26  1  0  0  0  0
  7 27  1  0  0  0  0
 13 28  1  0  0  0  0
 13 29  1  0  0  0  0
 14 30  1  0  0  0  0
 14 31  1  0  0  0  0
 15 32  1  0  0  0  0
 16 33  1  0  0  0  0
 16 34  1  0  0  0  0
 18 35  1  0  0  0  0
M  END
> <compound>
ALP-POS-95b75b4d-5

> <compound_smiles>
c1cc(cc(c1)Cl)CC(=O)Nc2cnccc2C3CC3

> <enantiomer_smiles>
c1cc(cc(c1)Cl)CC(=O)Nc2cnccc2C3CC3

> <scaffold>
chlorobenzene-linker

> <canonical_CID>
ALP-POS-95b75b4d-5

> <r_inhibition_at_20_uM>

> <r_inhibition_at_50_uM>

> <r_avg_IC50>
7.39797406776628

> <f_inhibition_at_20_uM>

> <f_inhibition_at_50_uM>

> <f_avg_IC50>
7.1736359117104

> <f_avg_pIC50>

> <relative_solubility_at_20_uM>

> <relative_solubility_at_100_uM>

> <trypsin_IC50>

> <NMR_std_ratio>

> <acrylamide>
False

> <chloroacetamide>
False

> <series>
3-aminopyridine-like

> <frag_id>
x11543

> <clash_score>
1.9998773845197908

> <docking_score>
-7.8810296058654785

> <overlap_score>
0.8768176436424255

> <MMFF_internal_energy>
86.52719246778344

> <docked_smiles>
c1cc(cc(c1)Cl)CC(=O)Nc2cnccc2C3CC3

$$$$
ALP-POS-95b75b4d-8_1
  -OEChem-07262101013D

 28 29  0     0  0  0  0  0  0999 V2000
   11.9780    0.4600   23.9150 C   0  0  0  0  0  0  0  0  0  0  0  0
   10.6560    0.0720   23.7350 C   0  0  0  0  0  0  0  0  0  0  0  0
   12.9840   -0.1200   23.1530 C   0  0  0  0  0  0  0  0  0  0  0  0
    4.6351    0.7556   18.5886 C   0  0  0  0  0  0  0  0  0  0  0  0
   11.3360   -1.5050   22.0650 C   0  0  0  0  0  0  0  0  0  0  0  0
    5.3787    0.9048   17.4290 C   0  0  0  0  0  0  0  0  0  0  0  0
    7.2468   -0.0123   18.4024 C   0  0  0  0  0  0  0  0  0  0  0  0
   10.3220   -0.8940   22.7910 C   0  0  0  0  0  0  0  0  0  0  0  0
    6.5908   -0.2043   19.6076 C   0  0  0  0  0  0  0  0  0  0  0  0
   12.6400   -1.1000   22.2390 C   0  0  0  0  0  0  0  0  0  0  0  0
    5.2601    0.1896   19.6942 C   0  0  0  0  0  0  0  0  0  0  0  0
    8.3880   -0.3240   21.3070 C   0  0  0  0  0  0  0  0  0  0  0  0
    8.8810   -1.1900   22.4510 C   0  0  0  0  0  0  0  0  0  0  0  0
    6.6730    0.5341   17.3070 N   0  0  0  0  0  0  0  0  0  0  0  0
    7.2820   -0.7860   20.6970 N   0  0  0  0  0  0  0  0  0  0  0  0
    8.9170    0.7530   21.0260 O   0  0  0  0  0  0  0  0  0  0  0  0
   13.8840   -1.8490   21.2740 Cl  0  0  0  0  0  0  0  0  0  0  0  0
    4.3529   -0.0061   21.1494 Cl  0  0  0  0  0  0  0  0  0  0  0  0
   12.2249    1.2198   24.6546 H   0  0  0  0  0  0  0  0  0  0  0  0
    9.8763    0.5350   24.3454 H   0  0  0  0  0  0  0  0  0  0  0  0
   14.0077    0.1988   23.2842 H   0  0  0  0  0  0  0  0  0  0  0  0
    3.5987    1.0752   18.6168 H   0  0  0  0  0  0  0  0  0  0  0  0
   11.0892   -2.3009   21.3624 H   0  0  0  0  0  0  0  0  0  0  0  0
    4.9374    1.3401   16.5382 H   0  0  0  0  0  0  0  0  0  0  0  0
    8.2858   -0.2997   18.2723 H   0  0  0  0  0  0  0  0  0  0  0  0
    8.7709   -2.2387   22.1706 H   0  0  0  0  0  0  0  0  0  0  0  0
    8.2491   -1.0157   23.3232 H   0  0  0  0  0  0  0  0  0  0  0  0
    6.8973   -1.6552   21.0612 H   0  0  0  0  0  0  0  0  0  0  0  0
  1  2  1  0  0  0  0
  1  3  2  0  0  0  0
  2  8  2  0  0  0  0
  3 10  1  0  0  0  0
  4  6  2  0  0  0  0
  4 11  1  0  0  0  0
  5  8  1  0  0  0  0
  5 10  2  0  0  0  0
  6 14  1  0  0  0  0
  7  9  1  0  0  0  0
  7 14  2  0  0  0  0
  8 13  1  0  0  0  0
  9 11  2  0  0  0  0
  9 15  1  0  0  0  0
 10 17  1  0  0  0  0
 11 18  1  0  0  0  0
 12 13  1  0  0  0  0
 12 15  1  0  0  0  0
 12 16  2  0  0  0  0
  1 19  1  0  0  0  0
  2 20  1  0  0  0  0
  3 21  1  0  0  0  0
  4 22  1  0  0  0  0
  5 23  1  0  0  0  0
  6 24  1  0  0  0  0
  7 25  1  0  0  0  0
 13 26  1  0  0  0  0
 13 27  1  0  0  0  0
 15 28  1  0  0  0  0
M  END
> <compound>
ALP-POS-95b75b4d-8

> <compound_smiles>
c1cc(cc(c1)Cl)CC(=O)Nc2cnccc2Cl

> <enantiomer_smiles>
c1cc(cc(c1)Cl)CC(=O)Nc2cnccc2Cl

> <scaffold>
chlorobenzene-linker

> <clash_score>
0

> <docking_score>
-8.827742576599121

> <overlap_score>
0.8298012018203735

> <MMFF_internal_energy>
63.88096163915004

> <docked_smiles>
c1cc(cc(c1)Cl)CC(=O)Nc2cnccc2Cl

$$$$
TRY-UNI-2eddb1ff-5_1
  -OEChem-07262101013D

 34 35  0     1  0  0  0  0  0999 V2000
   11.9780    0.4600   23.9150 C   0  0  0  0  0  0  0  0  0  0  0  0
   10.6560    0.0720   23.7350 C   0  0  0  0  0  0  0  0  0  0  0  0
   12.9840   -0.1200   23.1530 C   0  0  0  0  0  0  0  0  0  0  0  0
    4.9120    1.2553   18.6939 C   0  0  0  0  0  0  0  0  0  0  0  0
   11.3360   -1.5050   22.0650 C   0  0  0  0  0  0  0  0  0  0  0  0
    5.3237    0.8516   17.4340 C   0  0  0  0  0  0  0  0  0  0  0  0
    6.9267   -0.5437   18.3070 C   0  0  0  0  0  0  0  0  0  0  0  0
   10.3220   -0.8940   22.7910 C   0  0  0  0  0  0  0  0  0  0  0  0
    5.5624    0.7121   19.7963 C   0  0  0  0  0  0  0  0  0  0  0  0
    6.5902   -0.2052   19.6078 C   0  0  0  0  0  0  0  0  0  0  0  0
   12.6400   -1.1000   22.2390 C   0  0  0  0  0  0  0  0  0  0  0  0
    8.3880   -0.3240   21.3070 C   0  0  0  0  0  0  0  0  0  0  0  0
    5.1392    1.1301   21.1663 C   0  0  0  0  0  0  0  0  0  0  0  0
    7.9670   -1.0352   23.6784 C   0  0  0  0  0  0  0  0  0  0  0  0
    8.8810   -1.1900   22.4510 C   0  0  2  0  0  0  0  0  0  0  0  0
    6.3179   -0.0371   17.2114 N   0  0  0  0  0  0  0  0  0  0  0  0
    7.2820   -0.7860   20.6970 N   0  0  0  0  0  0  0  0  0  0  0  0
    8.9170    0.7530   21.0260 O   0  0  0  0  0  0  0  0  0  0  0  0
   13.8840   -1.8490   21.2740 Cl  0  0  0  0  0  0  0  0  0  0  0  0
   12.2249    1.2198   24.6546 H   0  0  0  0  0  0  0  0  0  0  0  0
    9.8763    0.5350   24.3454 H   0  0  0  0  0  0  0  0  0  0  0  0
   14.0077    0.1988   23.2842 H   0  0  0  0  0  0  0  0  0  0  0  0
    4.1067    1.9732   18.8067 H   0  0  0  0  0  0  0  0  0  0  0  0
   11.0892   -2.3009   21.3624 H   0  0  0  0  0  0  0  0  0  0  0  0
    4.8487    1.2458   16.5417 H   0  0  0  0  0  0  0  0  0  0  0  0
    7.7200   -1.2544   18.0953 H   0  0  0  0  0  0  0  0  0  0  0  0
    4.3492    0.4676   21.5385 H   0  0  0  0  0  0  0  0  0  0  0  0
    5.9816    1.0985   21.8682 H   0  0  0  0  0  0  0  0  0  0  0  0
    4.7612    2.1600   21.1673 H   0  0  0  0  0  0  0  0  0  0  0  0
    8.0088   -0.0193   24.0871 H   0  0  0  0  0  0  0  0  0  0  0  0
    6.9216   -1.2406   23.4222 H   0  0  0  0  0  0  0  0  0  0  0  0
    8.2585   -1.7315   24.4726 H   0  0  0  0  0  0  0  0  0  0  0  0
    8.7806   -2.2413   22.1242 H   0  0  0  0  0  0  0  0  0  0  0  0
    6.8824   -1.6524   21.0513 H   0  0  0  0  0  0  0  0  0  0  0  0
  1  2  2  0  0  0  0
  1  3  1  0  0  0  0
  2  8  1  0  0  0  0
  3 11  2  0  0  0  0
  4  6  2  0  0  0  0
  4  9  1  0  0  0  0
  5  8  2  0  0  0  0
  5 11  1  0  0  0  0
  6 16  1  0  0  0  0
  7 10  1  0  0  0  0
  7 16  2  0  0  0  0
  8 15  1  0  0  0  0
  9 10  2  0  0  0  0
  9 13  1  0  0  0  0
 10 17  1  0  0  0  0
 11 19  1  0  0  0  0
 12 15  1  0  0  0  0
 12 17  1  0  0  0  0
 12 18  2  0  0  0  0
 14 15  1  0  0  0  0
  1 20  1  0  0  0  0
  2 21  1  0  0  0  0
  3 22  1  0  0  0  0
  4 23  1  0  0  0  0
  5 24  1  0  0  0  0
  6 25  1  0  0  0  0
  7 26  1  0  0  0  0
 13 27  1  0  0  0  0
 13 28  1  0  0  0  0
 13 29  1  0  0  0  0
 14 30  1  0  0  0  0
 14 31  1  0  0  0  0
 14 32  1  0  0  0  0
 15 33  1  0  0  0  0
 17 34  1  0  0  0  0
M  END
> <compound>
TRY-UNI-2eddb1ff-5

> <compound_smiles>
Cc1ccncc1NC(=O)[C@H](C)c2cccc(c2)Cl

> <enantiomer_smiles>
Cc1ccncc1NC(=O)[C@H](C)c2cccc(c2)Cl

> <scaffold>
chlorobenzene-linker

> <clash_score>
0

> <docking_score>
-10.685931205749512

> <overlap_score>
0.8680161833763123

> <MMFF_internal_energy>
84.36751732290625

> <docked_smiles>
Cc1ccncc1NC(=O)[C@H](C)c2cccc(c2)Cl

$$$$
TRY-UNI-2eddb1ff-4_1
  -OEChem-07262101013D

 34 35  0     1  0  0  0  0  0999 V2000
   11.9780    0.4600   23.9150 C   0  0  0  0  0  0  0  0  0  0  0  0
   10.6560    0.0720   23.7350 C   0  0  0  0  0  0  0  0  0  0  0  0
   12.9840   -0.1200   23.1530 C   0  0  0  0  0  0  0  0  0  0  0  0
    4.9120    1.2553   18.6939 C   0  0  0  0  0  0  0  0  0  0  0  0
   11.3360   -1.5050   22.0650 C   0  0  0  0  0  0  0  0  0  0  0  0
    5.3237    0.8516   17.4340 C   0  0  0  0  0  0  0  0  0  0  0  0
    6.9267   -0.5437   18.3070 C   0  0  0  0  0  0  0  0  0  0  0  0
   10.3220   -0.8940   22.7910 C   0  0  0  0  0  0  0  0  0  0  0  0
    5.5624    0.7121   19.7963 C   0  0  0  0  0  0  0  0  0  0  0  0
    6.5902   -0.2052   19.6078 C   0  0  0  0  0  0  0  0  0  0  0  0
   12.6400   -1.1000   22.2390 C   0  0  0  0  0  0  0  0  0  0  0  0
    8.3880   -0.3240   21.3070 C   0  0  0  0  0  0  0  0  0  0  0  0
    5.1392    1.1301   21.1663 C   0  0  0  0  0  0  0  0  0  0  0  0
    8.6719   -2.6843   22.1478 C   0  0  0  0  0  0  0  0  0  0  0  0
    8.8810   -1.1900   22.4510 C   0  0  1  0  0  0  0  0  0  0  0  0
    6.3179   -0.0371   17.2114 N   0  0  0  0  0  0  0  0  0  0  0  0
    7.2820   -0.7860   20.6970 N   0  0  0  0  0  0  0  0  0  0  0  0
    8.9170    0.7530   21.0260 O   0  0  0  0  0  0  0  0  0  0  0  0
   13.8840   -1.8490   21.2740 Cl  0  0  0  0  0  0  0  0  0  0  0  0
   12.2249    1.2198   24.6546 H   0  0  0  0  0  0  0  0  0  0  0  0
    9.8763    0.5350   24.3454 H   0  0  0  0  0  0  0  0  0  0  0  0
   14.0077    0.1988   23.2842 H   0  0  0  0  0  0  0  0  0  0  0  0
    4.1067    1.9732   18.8067 H   0  0  0  0  0  0  0  0  0  0  0  0
   11.0892   -2.3009   21.3624 H   0  0  0  0  0  0  0  0  0  0  0  0
    4.8487    1.2458   16.5417 H   0  0  0  0  0  0  0  0  0  0  0  0
    7.7200   -1.2544   18.0953 H   0  0  0  0  0  0  0  0  0  0  0  0
    4.3492    0.4676   21.5385 H   0  0  0  0  0  0  0  0  0  0  0  0
    5.9816    1.0985   21.8682 H   0  0  0  0  0  0  0  0  0  0  0  0
    4.7612    2.1600   21.1673 H   0  0  0  0  0  0  0  0  0  0  0  0
    9.2843   -3.0131   21.3007 H   0  0  0  0  0  0  0  0  0  0  0  0
    8.9296   -3.3200   23.0024 H   0  0  0  0  0  0  0  0  0  0  0  0
    7.6214   -2.8709   21.8984 H   0  0  0  0  0  0  0  0  0  0  0  0
    8.2360   -0.9649   23.3210 H   0  0  0  0  0  0  0  0  0  0  0  0
    6.8824   -1.6524   21.0513 H   0  0  0  0  0  0  0  0  0  0  0  0
  1  2  2  0  0  0  0
  1  3  1  0  0  0  0
  2  8  1  0  0  0  0
  3 11  2  0  0  0  0
  4  6  2  0  0  0  0
  4  9  1  0  0  0  0
  5  8  2  0  0  0  0
  5 11  1  0  0  0  0
  6 16  1  0  0  0  0
  7 10  1  0  0  0  0
  7 16  2  0  0  0  0
  8 15  1  0  0  0  0
  9 10  2  0  0  0  0
  9 13  1  0  0  0  0
 10 17  1  0  0  0  0
 11 19  1  0  0  0  0
 12 15  1  0  0  0  0
 12 17  1  0  0  0  0
 12 18  2  0  0  0  0
 14 15  1  0  0  0  0
  1 20  1  0  0  0  0
  2 21  1  0  0  0  0
  3 22  1  0  0  0  0
  4 23  1  0  0  0  0
  5 24  1  0  0  0  0
  6 25  1  0  0  0  0
  7 26  1  0  0  0  0
 13 27  1  0  0  0  0
 13 28  1  0  0  0  0
 13 29  1  0  0  0  0
 14 30  1  0  0  0  0
 14 31  1  0  0  0  0
 14 32  1  0  0  0  0
 15 33  1  0  0  0  0
 17 34  1  0  0  0  0
M  END
> <compound>
TRY-UNI-2eddb1ff-4

> <compound_smiles>
Cc1ccncc1NC(=O)[C@@H](C)c2cccc(c2)Cl

> <enantiomer_smiles>
Cc1ccncc1NC(=O)[C@@H](C)c2cccc(c2)Cl

> <scaffold>
chlorobenzene-linker

> <clash_score>
0

> <docking_score>
-10.434356689453125

> <overlap_score>
0.8682984113693237

> <MMFF_internal_energy>
89.91005467104961

> <docked_smiles>
Cc1ccncc1NC(=O)[C@@H](C)c2cccc(c2)Cl

$$$$
ALP-POS-95b75b4d-7_1
  -OEChem-07262101013D

 33 34  0     0  0  0  0  0  0999 V2000
   11.9780    0.4600   23.9150 C   0  0  0  0  0  0  0  0  0  0  0  0
   10.6560    0.0720   23.7350 C   0  0  0  0  0  0  0  0  0  0  0  0
   12.9840   -0.1200   23.1530 C   0  0  0  0  0  0  0  0  0  0  0  0
    4.6297    0.7541   18.5976 C   0  0  0  0  0  0  0  0  0  0  0  0
   11.3360   -1.5050   22.0650 C   0  0  0  0  0  0  0  0  0  0  0  0
    5.3684    0.9058   17.4353 C   0  0  0  0  0  0  0  0  0  0  0  0
    7.2416   -0.0099   18.4000 C   0  0  0  0  0  0  0  0  0  0  0  0
   10.3220   -0.8940   22.7910 C   0  0  0  0  0  0  0  0  0  0  0  0
    6.5908   -0.2043   19.6076 C   0  0  0  0  0  0  0  0  0  0  0  0
    5.2599    0.1876   19.7000 C   0  0  0  0  0  0  0  0  0  0  0  0
   12.6400   -1.1000   22.2390 C   0  0  0  0  0  0  0  0  0  0  0  0
    8.3880   -0.3240   21.3070 C   0  0  0  0  0  0  0  0  0  0  0  0
    8.8810   -1.1900   22.4510 C   0  0  0  0  0  0  0  0  0  0  0  0
    6.6627    0.5371   17.3076 N   0  0  0  0  0  0  0  0  0  0  0  0
    3.6973   -1.5759   20.9461 N   0  0  0  0  0  0  0  0  0  0  0  0
    7.2820   -0.7860   20.6970 N   0  0  0  0  0  0  0  0  0  0  0  0
    8.9170    0.7530   21.0260 O   0  0  0  0  0  0  0  0  0  0  0  0
    5.2880   -0.0571   22.2909 O   0  0  0  0  0  0  0  0  0  0  0  0
    3.2614    0.9518   21.1853 O   0  0  0  0  0  0  0  0  0  0  0  0
    4.3489   -0.0147   21.1805 S   0  0  0  0  0  0  0  0  0  0  0  0
   13.8840   -1.8490   21.2740 Cl  0  0  0  0  0  0  0  0  0  0  0  0
   12.2249    1.2198   24.6546 H   0  0  0  0  0  0  0  0  0  0  0  0
    9.8763    0.5350   24.3454 H   0  0  0  0  0  0  0  0  0  0  0  0
   14.0077    0.1988   23.2842 H   0  0  0  0  0  0  0  0  0  0  0  0
    3.5932    1.0714   18.6349 H   0  0  0  0  0  0  0  0  0  0  0  0
   11.0892   -2.3009   21.3624 H   0  0  0  0  0  0  0  0  0  0  0  0
    4.9231    1.3425   16.5474 H   0  0  0  0  0  0  0  0  0  0  0  0
    8.2810   -0.2947   18.2656 H   0  0  0  0  0  0  0  0  0  0  0  0
    8.7709   -2.2387   22.1706 H   0  0  0  0  0  0  0  0  0  0  0  0
    8.2491   -1.0157   23.3232 H   0  0  0  0  0  0  0  0  0  0  0  0
    2.9535   -1.6869   20.2462 H   0  0  0  0  0  0  0  0  0  0  0  0
    4.3368   -2.3779   21.0030 H   0  0  0  0  0  0  0  0  0  0  0  0
    6.8973   -1.6552   21.0612 H   0  0  0  0  0  0  0  0  0  0  0  0
  1  2  1  0  0  0  0
  1  3  2  0  0  0  0
  2  8  2  0  0  0  0
  3 11  1  0  0  0  0
  4  6  2  0  0  0  0
  4 10  1  0  0  0  0
  5  8  1  0  0  0  0
  5 11  2  0  0  0  0
  6 14  1  0  0  0  0
  7  9  1  0  0  0  0
  7 14  2  0  0  0  0
  8 13  1  0  0  0  0
  9 10  2  0  0  0  0
  9 16  1  0  0  0  0
 10 20  1  0  0  0  0
 11 21  1  0  0  0  0
 12 13  1  0  0  0  0
 12 16  1  0  0  0  0
 12 17  2  0  0  0  0
 15 20  1  0  0  0  0
 18 20  2  0  0  0  0
 19 20  2  0  0  0  0
  1 22  1  0  0  0  0
  2 23  1  0  0  0  0
  3 24  1  0  0  0  0
  4 25  1  0  0  0  0
  5 26  1  0  0  0  0
  6 27  1  0  0  0  0
  7 28  1  0  0  0  0
 13 29  1  0  0  0  0
 13 30  1  0  0  0  0
 15 31  1  0  0  0  0
 15 32  1  0  0  0  0
 16 33  1  0  0  0  0
M  END
> <compound>
ALP-POS-95b75b4d-7

> <compound_smiles>
c1cc(cc(c1)Cl)CC(=O)Nc2cnccc2S(=O)(=O)N

> <enantiomer_smiles>
c1cc(cc(c1)Cl)CC(=O)Nc2cnccc2S(=O)(=O)N

> <scaffold>
chlorobenzene-linker

> <clash_score>
1.466549308535142

> <docking_score>
-8.393312454223633

> <overlap_score>
0.878398060798645

> <MMFF_internal_energy>
-15.715026960947025

> <docked_smiles>
c1cc(cc(c1)Cl)CC(=O)Nc2cnccc2S(=O)(=O)N

$$$$
JAN-GHE-5a013bed-10_1
  -OEChem-07262101013D

 28 29  0     0  0  0  0  0  0999 V2000
   11.9780    0.4600   23.9150 C   0  0  0  0  0  0  0  0  0  0  0  0
   10.6560    0.0720   23.7350 C   0  0  0  0  0  0  0  0  0  0  0  0
   12.9840   -0.1200   23.1530 C   0  0  0  0  0  0  0  0  0  0  0  0
   11.3360   -1.5050   22.0650 C   0  0  0  0  0  0  0  0  0  0  0  0
    7.2536   -0.0155   18.4056 C   0  0  0  0  0  0  0  0  0  0  0  0
    5.3914    0.9002   17.4198 C   0  0  0  0  0  0  0  0  0  0  0  0
   10.3220   -0.8940   22.7910 C   0  0  0  0  0  0  0  0  0  0  0  0
    6.5908   -0.2043   19.6076 C   0  0  0  0  0  0  0  0  0  0  0  0
   12.6400   -1.1000   22.2390 C   0  0  0  0  0  0  0  0  0  0  0  0
    4.6413    0.7542   18.5756 C   0  0  0  0  0  0  0  0  0  0  0  0
    5.2599    0.1906   19.6860 C   0  0  0  0  0  0  0  0  0  0  0  0
    8.3880   -0.3240   21.3070 C   0  0  0  0  0  0  0  0  0  0  0  0
    8.8810   -1.1900   22.4510 C   0  0  0  0  0  0  0  0  0  0  0  0
    6.6862    0.5285   17.3058 N   0  0  0  0  0  0  0  0  0  0  0  0
    7.2820   -0.7860   20.6970 N   0  0  0  0  0  0  0  0  0  0  0  0
    8.9170    0.7530   21.0260 O   0  0  0  0  0  0  0  0  0  0  0  0
   13.8840   -1.8490   21.2740 Cl  0  0  0  0  0  0  0  0  0  0  0  0
    2.9987    1.2749   18.5659 Cl  0  0  0  0  0  0  0  0  0  0  0  0
    4.3880   -0.0309   21.1697 Cl  0  0  0  0  0  0  0  0  0  0  0  0
   12.2249    1.2198   24.6546 H   0  0  0  0  0  0  0  0  0  0  0  0
    9.8763    0.5350   24.3454 H   0  0  0  0  0  0  0  0  0  0  0  0
   14.0077    0.1988   23.2842 H   0  0  0  0  0  0  0  0  0  0  0  0
   11.0892   -2.3009   21.3624 H   0  0  0  0  0  0  0  0  0  0  0  0
    8.2940   -0.3017   18.2819 H   0  0  0  0  0  0  0  0  0  0  0  0
    4.9694    1.3336   16.5178 H   0  0  0  0  0  0  0  0  0  0  0  0
    8.7709   -2.2387   22.1706 H   0  0  0  0  0  0  0  0  0  0  0  0
    8.2491   -1.0157   23.3232 H   0  0  0  0  0  0  0  0  0  0  0  0
    6.8973   -1.6552   21.0612 H   0  0  0  0  0  0  0  0  0  0  0  0
  1  2  1  0  0  0  0
  1  3  2  0  0  0  0
  2  7  2  0  0  0  0
  3  9  1  0  0  0  0
  4  7  1  0  0  0  0
  4  9  2  0  0  0  0
  5  8  1  0  0  0  0
  5 14  2  0  0  0  0
  6 10  2  0  0  0  0
  6 14  1  0  0  0  0
  7 13  1  0  0  0  0
  8 11  2  0  0  0  0
  8 15  1  0  0  0  0
  9 17  1  0  0  0  0
 10 11  1  0  0  0  0
 10 18  1  0  0  0  0
 11 19  1  0  0  0  0
 12 13  1  0  0  0  0
 12 15  1  0  0  0  0
 12 16  2  0  0  0  0
  1 20  1  0  0  0  0
  2 21  1  0  0  0  0
  3 22  1  0  0  0  0
  4 23  1  0  0  0  0
  5 24  1  0  0  0  0
  6 25  1  0  0  0  0
 13 26  1  0  0  0  0
 13 27  1  0  0  0  0
 15 28  1  0  0  0  0
M  END
> <compound>
JAN-GHE-5a013bed-10

> <compound_smiles>
c1cc(cc(c1)Cl)CC(=O)Nc2cncc(c2Cl)Cl

> <enantiomer_smiles>
c1cc(cc(c1)Cl)CC(=O)Nc2cncc(c2Cl)Cl

> <scaffold>
chlorobenzene-linker

> <clash_score>
0

> <docking_score>
-7.991703033447266

> <overlap_score>
0.8486049175262451

> <MMFF_internal_energy>
81.72880491853155

> <docked_smiles>
c1cc(cc(c1)Cl)CC(=O)Nc2cncc(c2Cl)Cl

$$$$
JAN-GHE-5a013bed-11_1
  -OEChem-07262101013D

 23 24  0     0  0  0  0  0  0999 V2000
   11.9780    0.4600   23.9150 C   0  0  0  0  0  0  0  0  0  0  0  0
   10.6560    0.0720   23.7350 C   0  0  0  0  0  0  0  0  0  0  0  0
   12.9840   -0.1200   23.1530 C   0  0  0  0  0  0  0  0  0  0  0  0
   11.3360   -1.5050   22.0650 C   0  0  0  0  0  0  0  0  0  0  0  0
   10.3220   -0.8940   22.7910 C   0  0  0  0  0  0  0  0  0  0  0  0
   12.6400   -1.1000   22.2390 C   0  0  0  0  0  0  0  0  0  0  0  0
    6.5418   -0.1622   19.6645 C   0  0  0  0  0  0  0  0  0  0  0  0
    8.3880   -0.3240   21.3070 C   0  0  0  0  0  0  0  0  0  0  0  0
    8.8810   -1.1900   22.4510 C   0  0  0  0  0  0  0  0  0  0  0  0
    5.9177    1.2496   18.2016 N   0  5  0  0  0  0  0  0  0  0  0  0
    6.8732    1.0330   19.1401 N   0  0  0  0  0  0  0  0  0  0  0  0
    5.4404   -0.7084   19.1151 N   0  0  0  0  0  0  0  0  0  0  0  0
    5.0569    0.2034   18.1866 N   0  0  0  0  0  0  0  0  0  0  0  0
    7.2820   -0.7860   20.6970 N   0  0  0  0  0  0  0  0  0  0  0  0
    8.9170    0.7530   21.0260 O   0  0  0  0  0  0  0  0  0  0  0  0
   13.8840   -1.8490   21.2740 Cl  0  0  0  0  0  0  0  0  0  0  0  0
   12.2249    1.2198   24.6546 H   0  0  0  0  0  0  0  0  0  0  0  0
    9.8763    0.5350   24.3454 H   0  0  0  0  0  0  0  0  0  0  0  0
   14.0077    0.1988   23.2842 H   0  0  0  0  0  0  0  0  0  0  0  0
   11.0892   -2.3009   21.3624 H   0  0  0  0  0  0  0  0  0  0  0  0
    8.7709   -2.2387   22.1706 H   0  0  0  0  0  0  0  0  0  0  0  0
    8.2491   -1.0157   23.3232 H   0  0  0  0  0  0  0  0  0  0  0  0
    6.9372   -1.6894   21.0149 H   0  0  0  0  0  0  0  0  0  0  0  0
  1  2  1  0  0  0  0
  1  3  2  0  0  0  0
  2  5  2  0  0  0  0
  3  6  1  0  0  0  0
  4  5  1  0  0  0  0
  4  6  2  0  0  0  0
  5  9  1  0  0  0  0
  6 16  1  0  0  0  0
  7 11  2  0  0  0  0
  7 12  1  0  0  0  0
  7 14  1  0  0  0  0
  8  9  1  0  0  0  0
  8 14  1  0  0  0  0
  8 15  2  0  0  0  0
 10 11  1  0  0  0  0
 10 13  1  0  0  0  0
 12 13  2  0  0  0  0
  1 17  1  0  0  0  0
  2 18  1  0  0  0  0
  3 19  1  0  0  0  0
  4 20  1  0  0  0  0
  9 21  1  0  0  0  0
  9 22  1  0  0  0  0
 14 23  1  0  0  0  0
M  CHG  1  10  -1
M  END
> <compound>
JAN-GHE-5a013bed-11

> <compound_smiles>
c1cc(cc(c1)Cl)CC(=O)Nc2[nH]nnn2

> <enantiomer_smiles>
c1cc(cc(c1)Cl)CC(=O)Nc2[nH]nnn2

> <scaffold>
chlorobenzene-linker

> <canonical_CID>
JAN-GHE-5a013bed-11

> <r_inhibition_at_20_uM>

> <r_inhibition_at_50_uM>

> <r_avg_IC50>

> <f_inhibition_at_20_uM>

> <f_inhibition_at_50_uM>

> <f_avg_IC50>
45.2867094312226

> <f_avg_pIC50>

> <relative_solubility_at_20_uM>

> <relative_solubility_at_100_uM>

> <trypsin_IC50>
99.0

> <NMR_std_ratio>

> <acrylamide>
False

> <chloroacetamide>
False

> <series>
3-aminopyridine-like

> <frag_id>

> <clash_score>
0

> <docking_score>
-5.46585750579834

> <overlap_score>
0.7367515563964844

> <MMFF_internal_energy>
-27.58963369966613

> <docked_smiles>
c1cc(cc(c1)Cl)CC(=O)Nc2n[n-]nn2

$$$$
BAR-COM-ebf5acce-4_1
  -OEChem-07262101013D

 42 44  0     0  0  0  0  0  0999 V2000
   11.9780    0.4600   23.9150 C   0  0  0  0  0  0  0  0  0  0  0  0
    5.6649   -3.3784   22.7121 C   0  0  0  0  0  0  0  0  0  0  0  0
   10.6560    0.0720   23.7350 C   0  0  0  0  0  0  0  0  0  0  0  0
   12.9840   -0.1200   23.1530 C   0  0  0  0  0  0  0  0  0  0  0  0
    5.6293   -4.4226   21.7946 C   0  0  0  0  0  0  0  0  0  0  0  0
    6.2190   -2.1569   22.3456 C   0  0  0  0  0  0  0  0  0  0  0  0
    5.1297    1.5096   18.6757 C   0  0  0  0  0  0  0  0  0  0  0  0
   11.3360   -1.5050   22.0650 C   0  0  0  0  0  0  0  0  0  0  0  0
    5.6609    1.2304   17.4268 C   0  0  0  0  0  0  0  0  0  0  0  0
    7.1568   -0.2780   18.3015 C   0  0  0  0  0  0  0  0  0  0  0  0
   10.3220   -0.8940   22.7910 C   0  0  0  0  0  0  0  0  0  0  0  0
    5.6626    0.8432   19.7735 C   0  0  0  0  0  0  0  0  0  0  0  0
    6.6959   -0.0693   19.5914 C   0  0  0  0  0  0  0  0  0  0  0  0
   12.6400   -1.1000   22.2390 C   0  0  0  0  0  0  0  0  0  0  0  0
    6.1569   -4.1961   20.5336 C   0  0  0  0  0  0  0  0  0  0  0  0
    6.7204   -2.0320   21.0600 C   0  0  0  0  0  0  0  0  0  0  0  0
    8.3880   -0.3240   21.3070 C   0  0  0  0  0  0  0  0  0  0  0  0
    5.1093    1.1255   21.1317 C   0  0  0  0  0  0  0  0  0  0  0  0
    8.8810   -1.1900   22.4510 C   0  0  0  0  0  0  0  0  0  0  0  0
    6.6643    0.3506   17.2107 N   0  0  0  0  0  0  0  0  0  0  0  0
    6.7034   -3.0236   20.1412 N   0  0  0  0  0  0  0  0  0  0  0  0
    6.1132   -5.2698   19.6099 N   0  0  0  0  0  0  0  0  0  0  0  0
    7.2820   -0.7860   20.6970 N   0  0  0  0  0  0  0  0  0  0  0  0
    8.9170    0.7530   21.0260 O   0  0  0  0  0  0  0  0  0  0  0  0
   13.8840   -1.8490   21.2740 Cl  0  0  0  0  0  0  0  0  0  0  0  0
   12.2249    1.2198   24.6546 H   0  0  0  0  0  0  0  0  0  0  0  0
    5.2614   -3.5162   23.7107 H   0  0  0  0  0  0  0  0  0  0  0  0
    9.8763    0.5350   24.3454 H   0  0  0  0  0  0  0  0  0  0  0  0
   14.0077    0.1988   23.2842 H   0  0  0  0  0  0  0  0  0  0  0  0
    5.1986   -5.3791   22.0722 H   0  0  0  0  0  0  0  0  0  0  0  0
    6.2508   -1.3368   23.0555 H   0  0  0  0  0  0  0  0  0  0  0  0
    4.3236    2.2274   18.7837 H   0  0  0  0  0  0  0  0  0  0  0  0
   11.0892   -2.3009   21.3624 H   0  0  0  0  0  0  0  0  0  0  0  0
    5.2803    1.7237   16.5385 H   0  0  0  0  0  0  0  0  0  0  0  0
    7.9610   -0.9781   18.0952 H   0  0  0  0  0  0  0  0  0  0  0  0
    4.2804    0.4433   21.3534 H   0  0  0  0  0  0  0  0  0  0  0  0
    5.8775    1.0054   21.9054 H   0  0  0  0  0  0  0  0  0  0  0  0
    4.7422    2.1568   21.2035 H   0  0  0  0  0  0  0  0  0  0  0  0
    8.7679   -2.2431   22.1594 H   0  0  0  0  0  0  0  0  0  0  0  0
    8.2854   -1.0410   23.3609 H   0  0  0  0  0  0  0  0  0  0  0  0
    5.7540   -6.1494   19.9110 H   0  0  0  0  0  0  0  0  0  0  0  0
    6.5282   -5.1488   18.7117 H   0  0  0  0  0  0  0  0  0  0  0  0
  1  3  2  0  0  0  0
  1  4  1  0  0  0  0
  2  5  1  0  0  0  0
  2  6  2  0  0  0  0
  3 11  1  0  0  0  0
  4 14  2  0  0  0  0
  5 15  2  0  0  0  0
  6 16  1  0  0  0  0
  7  9  2  0  0  0  0
  7 12  1  0  0  0  0
  8 11  2  0  0  0  0
  8 14  1  0  0  0  0
  9 20  1  0  0  0  0
 10 13  1  0  0  0  0
 10 20  2  0  0  0  0
 11 19  1  0  0  0  0
 12 13  2  0  0  0  0
 12 18  1  0  0  0  0
 13 23  1  0  0  0  0
 14 25  1  0  0  0  0
 15 21  1  0  0  0  0
 15 22  1  0  0  0  0
 16 21  2  0  0  0  0
 16 23  1  0  0  0  0
 17 19  1  0  0  0  0
 17 23  1  0  0  0  0
 17 24  2  0  0  0  0
  1 26  1  0  0  0  0
  2 27  1  0  0  0  0
  3 28  1  0  0  0  0
  4 29  1  0  0  0  0
  5 30  1  0  0  0  0
  6 31  1  0  0  0  0
  7 32  1  0  0  0  0
  8 33  1  0  0  0  0
  9 34  1  0  0  0  0
 10 35  1  0  0  0  0
 18 36  1  0  0  0  0
 18 37  1  0  0  0  0
 18 38  1  0  0  0  0
 19 39  1  0  0  0  0
 19 40  1  0  0  0  0
 22 41  1  0  0  0  0
 22 42  1  0  0  0  0
M  END
> <compound>
BAR-COM-ebf5acce-4

> <compound_smiles>
Cc1ccncc1N(c2cccc(n2)N)C(=O)Cc3cccc(c3)Cl

> <enantiomer_smiles>
Cc1ccncc1N(c2cccc(n2)N)C(=O)Cc3cccc(c3)Cl

> <scaffold>
chlorobenzene-linker

> <clash_score>
0.6070438585355872

> <docking_score>
-5.279077529907227

> <overlap_score>
0.8644837737083435

> <MMFF_internal_energy>
67.98318972999361

> <docked_smiles>
Cc1ccncc1N(c2cccc(n2)N)C(=O)Cc3cccc(c3)Cl

$$$$
EDG-MED-0da5ad92-1_1
  -OEChem-07262101013D

 34 35  0     0  0  0  0  0  0999 V2000
   11.9780    0.4600   23.9150 C   0  0  0  0  0  0  0  0  0  0  0  0
   10.6560    0.0720   23.7350 C   0  0  0  0  0  0  0  0  0  0  0  0
   12.9840   -0.1200   23.1530 C   0  0  0  0  0  0  0  0  0  0  0  0
    5.0456    1.1464   18.3940 C   0  0  0  0  0  0  0  0  0  0  0  0
   11.3360   -1.5050   22.0650 C   0  0  0  0  0  0  0  0  0  0  0  0
    4.4829    1.9974   19.3315 C   0  0  0  0  0  0  0  0  0  0  0  0
    5.6961    1.0601   21.0425 C   0  0  0  0  0  0  0  0  0  0  0  0
   10.3220   -0.8940   22.7910 C   0  0  0  0  0  0  0  0  0  0  0  0
    5.9786    0.2156   18.8372 C   0  0  0  0  0  0  0  0  0  0  0  0
    6.3156    0.1650   20.1853 C   0  0  0  0  0  0  0  0  0  0  0  0
   12.6400   -1.1000   22.2390 C   0  0  0  0  0  0  0  0  0  0  0  0
    8.3880   -0.3240   21.3070 C   0  0  0  0  0  0  0  0  0  0  0  0
    6.6007   -0.7148   17.8482 C   0  0  0  0  0  0  0  0  0  0  0  0
    7.0202   -2.2244   20.5317 C   0  0  0  0  0  0  0  0  0  0  0  0
    8.8810   -1.1900   22.4510 C   0  0  0  0  0  0  0  0  0  0  0  0
    4.7851    1.9782   20.6490 N   0  0  0  0  0  0  0  0  0  0  0  0
    7.2820   -0.7860   20.6970 N   0  0  0  0  0  0  0  0  0  0  0  0
    8.9170    0.7530   21.0260 O   0  0  0  0  0  0  0  0  0  0  0  0
   13.8840   -1.8490   21.2740 Cl  0  0  0  0  0  0  0  0  0  0  0  0
   12.2249    1.2198   24.6546 H   0  0  0  0  0  0  0  0  0  0  0  0
    9.8763    0.5350   24.3454 H   0  0  0  0  0  0  0  0  0  0  0  0
   14.0077    0.1988   23.2842 H   0  0  0  0  0  0  0  0  0  0  0  0
    4.7608    1.2115   17.3494 H   0  0  0  0  0  0  0  0  0  0  0  0
   11.0892   -2.3009   21.3624 H   0  0  0  0  0  0  0  0  0  0  0  0
    3.7499    2.7413   19.0369 H   0  0  0  0  0  0  0  0  0  0  0  0
    5.9176    1.0700   22.1056 H   0  0  0  0  0  0  0  0  0  0  0  0
    7.5137   -0.2726   17.4331 H   0  0  0  0  0  0  0  0  0  0  0  0
    6.8572   -1.6744   18.3137 H   0  0  0  0  0  0  0  0  0  0  0  0
    5.9118   -0.9342   17.0230 H   0  0  0  0  0  0  0  0  0  0  0  0
    7.4510   -2.5690   19.5800 H   0  0  0  0  0  0  0  0  0  0  0  0
    7.4791   -2.7785   21.3638 H   0  0  0  0  0  0  0  0  0  0  0  0
    5.9345   -2.4013   20.5280 H   0  0  0  0  0  0  0  0  0  0  0  0
    8.7925   -2.2408   22.1686 H   0  0  0  0  0  0  0  0  0  0  0  0
    8.2587   -1.0122   23.3300 H   0  0  0  0  0  0  0  0  0  0  0  0
  1  2  2  0  0  0  0
  1  3  1  0  0  0  0
  2  8  1  0  0  0  0
  3 11  2  0  0  0  0
  4  6  2  0  0  0  0
  4  9  1  0  0  0  0
  5  8  2  0  0  0  0
  5 11  1  0  0  0  0
  6 16  1  0  0  0  0
  7 10  1  0  0  0  0
  7 16  2  0  0  0  0
  8 15  1  0  0  0  0
  9 10  2  0  0  0  0
  9 13  1  0  0  0  0
 10 17  1  0  0  0  0
 11 19  1  0  0  0  0
 12 15  1  0  0  0  0
 12 17  1  0  0  0  0
 12 18  2  0  0  0  0
 14 17  1  0  0  0  0
  1 20  1  0  0  0  0
  2 21  1  0  0  0  0
  3 22  1  0  0  0  0
  4 23  1  0  0  0  0
  5 24  1  0  0  0  0
  6 25  1  0  0  0  0
  7 26  1  0  0  0  0
 13 27  1  0  0  0  0
 13 28  1  0  0  0  0
 13 29  1  0  0  0  0
 14 30  1  0  0  0  0
 14 31  1  0  0  0  0
 14 32  1  0  0  0  0
 15 33  1  0  0  0  0
 15 34  1  0  0  0  0
M  END
> <compound>
EDG-MED-0da5ad92-1

> <compound_smiles>
Cc1ccncc1N(C)C(=O)Cc2cccc(c2)Cl

> <enantiomer_smiles>
Cc1ccncc1N(C)C(=O)Cc2cccc(c2)Cl

> <scaffold>
chlorobenzene-linker

> <clash_score>
0

> <docking_score>
-7.505177021026611

> <overlap_score>
0.8694437146186829

> <MMFF_internal_energy>
103.94522070928818

> <docked_smiles>
Cc1ccncc1N(C)C(=O)Cc2cccc(c2)Cl

$$$$
JAN-GHE-5a013bed-9_1
  -OEChem-07262101013D

 27 28  0     0  0  0  0  0  0999 V2000
   11.9780    0.4600   23.9150 C   0  0  0  0  0  0  0  0  0  0  0  0
   10.6560    0.0720   23.7350 C   0  0  0  0  0  0  0  0  0  0  0  0
   12.9840   -0.1200   23.1530 C   0  0  0  0  0  0  0  0  0  0  0  0
   11.3360   -1.5050   22.0650 C   0  0  0  0  0  0  0  0  0  0  0  0
    5.2701    0.1850   19.6995 C   0  0  0  0  0  0  0  0  0  0  0  0
    7.1928    0.0105   18.3846 C   0  0  0  0  0  0  0  0  0  0  0  0
    5.2781    0.8994   17.5416 C   0  0  0  0  0  0  0  0  0  0  0  0
   10.3220   -0.8940   22.7910 C   0  0  0  0  0  0  0  0  0  0  0  0
    6.5908   -0.2043   19.6076 C   0  0  0  0  0  0  0  0  0  0  0  0
   12.6400   -1.1000   22.2390 C   0  0  0  0  0  0  0  0  0  0  0  0
    8.3880   -0.3240   21.3070 C   0  0  0  0  0  0  0  0  0  0  0  0
    8.8810   -1.1900   22.4510 C   0  0  0  0  0  0  0  0  0  0  0  0
    4.5803    0.7421   18.6826 N   0  0  0  0  0  0  0  0  0  0  0  0
    6.5639    0.5620   17.3260 N   0  0  0  0  0  0  0  0  0  0  0  0
    7.2820   -0.7860   20.6970 N   0  0  0  0  0  0  0  0  0  0  0  0
    8.9170    0.7530   21.0260 O   0  0  0  0  0  0  0  0  0  0  0  0
   13.8840   -1.8490   21.2740 Cl  0  0  0  0  0  0  0  0  0  0  0  0
   12.2249    1.2198   24.6546 H   0  0  0  0  0  0  0  0  0  0  0  0
    9.8763    0.5350   24.3454 H   0  0  0  0  0  0  0  0  0  0  0  0
   14.0077    0.1988   23.2842 H   0  0  0  0  0  0  0  0  0  0  0  0
   11.0892   -2.3009   21.3624 H   0  0  0  0  0  0  0  0  0  0  0  0
    4.7052    0.0600   20.6182 H   0  0  0  0  0  0  0  0  0  0  0  0
    8.2290   -0.2611   18.2082 H   0  0  0  0  0  0  0  0  0  0  0  0
    4.7476    1.3410   16.7070 H   0  0  0  0  0  0  0  0  0  0  0  0
    8.7709   -2.2387   22.1706 H   0  0  0  0  0  0  0  0  0  0  0  0
    8.2491   -1.0157   23.3232 H   0  0  0  0  0  0  0  0  0  0  0  0
    6.8973   -1.6552   21.0612 H   0  0  0  0  0  0  0  0  0  0  0  0
  1  2  1  0  0  0  0
  1  3  2  0  0  0  0
  2  8  2  0  0  0  0
  3 10  1  0  0  0  0
  4  8  1  0  0  0  0
  4 10  2  0  0  0  0
  5  9  1  0  0  0  0
  5 13  2  0  0  0  0
  6  9  2  0  0  0  0
  6 14  1  0  0  0  0
  7 13  1  0  0  0  0
  7 14  2  0  0  0  0
  8 12  1  0  0  0  0
  9 15  1  0  0  0  0
 10 17  1  0  0  0  0
 11 12  1  0  0  0  0
 11 15  1  0  0  0  0
 11 16  2  0  0  0  0
  1 18  1  0  0  0  0
  2 19  1  0  0  0  0
  3 20  1  0  0  0  0
  4 21  1  0  0  0  0
  5 22  1  0  0  0  0
  6 23  1  0  0  0  0
  7 24  1  0  0  0  0
 12 25  1  0  0  0  0
 12 26  1  0  0  0  0
 15 27  1  0  0  0  0
M  END
> <compound>
JAN-GHE-5a013bed-9

> <compound_smiles>
c1cc(cc(c1)Cl)CC(=O)Nc2cncnc2

> <enantiomer_smiles>
c1cc(cc(c1)Cl)CC(=O)Nc2cncnc2

> <scaffold>
chlorobenzene-linker

> <clash_score>
0

> <docking_score>
-8.306558609008789

> <overlap_score>
0.8036894202232361

> <MMFF_internal_energy>
59.63308221881034

> <docked_smiles>
c1cc(cc(c1)Cl)CC(=O)Nc2cncnc2

$$$$
JAN-GHE-5a013bed-1_1
  -OEChem-07262101013D

 31 32  0     0  0  0  0  0  0999 V2000
   11.9780    0.4600   23.9150 C   0  0  0  0  0  0  0  0  0  0  0  0
   10.6560    0.0720   23.7350 C   0  0  0  0  0  0  0  0  0  0  0  0
   12.9840   -0.1200   23.1530 C   0  0  0  0  0  0  0  0  0  0  0  0
   11.3360   -1.5050   22.0650 C   0  0  0  0  0  0  0  0  0  0  0  0
   10.3220   -0.8940   22.7910 C   0  0  0  0  0  0  0  0  0  0  0  0
   12.6400   -1.1000   22.2390 C   0  0  0  0  0  0  0  0  0  0  0  0
    5.2924    1.1481   18.4367 C   0  0  0  0  0  0  0  0  0  0  0  0
    5.6242    0.8008   19.7221 C   0  0  0  0  0  0  0  0  0  0  0  0
    8.3880   -0.3240   21.3070 C   0  0  0  0  0  0  0  0  0  0  0  0
    4.2863    2.1083   17.9626 C   0  0  0  0  0  0  0  0  0  0  0  0
    5.1116    1.2480   21.0291 C   0  0  0  0  0  0  0  0  0  0  0  0
    8.8810   -1.1900   22.4510 C   0  0  0  0  0  0  0  0  0  0  0  0
    6.0663    0.4443   17.5563 N   0  0  0  0  0  0  0  0  0  0  0  0
    6.8767   -0.3384   18.2604 N   0  0  0  0  0  0  0  0  0  0  0  0
    6.6099   -0.1233   19.5587 N   0  0  0  0  0  0  0  0  0  0  0  0
    7.2820   -0.7860   20.6970 N   0  0  0  0  0  0  0  0  0  0  0  0
    8.9170    0.7530   21.0260 O   0  0  0  0  0  0  0  0  0  0  0  0
   13.8840   -1.8490   21.2740 Cl  0  0  0  0  0  0  0  0  0  0  0  0
   12.2249    1.2198   24.6546 H   0  0  0  0  0  0  0  0  0  0  0  0
    9.8763    0.5350   24.3454 H   0  0  0  0  0  0  0  0  0  0  0  0
   14.0077    0.1988   23.2842 H   0  0  0  0  0  0  0  0  0  0  0  0
   11.0892   -2.3009   21.3624 H   0  0  0  0  0  0  0  0  0  0  0  0
    4.7144    3.1208   17.8525 H   0  0  0  0  0  0  0  0  0  0  0  0
    3.8609    1.8222   16.9827 H   0  0  0  0  0  0  0  0  0  0  0  0
    3.4241    2.1881   18.6508 H   0  0  0  0  0  0  0  0  0  0  0  0
    4.2677    0.6209   21.3635 H   0  0  0  0  0  0  0  0  0  0  0  0
    5.8863    1.2105   21.8153 H   0  0  0  0  0  0  0  0  0  0  0  0
    4.7586    2.2942   21.0021 H   0  0  0  0  0  0  0  0  0  0  0  0
    8.2454   -1.0138   23.3201 H   0  0  0  0  0  0  0  0  0  0  0  0
    8.7729   -2.2397   22.1737 H   0  0  0  0  0  0  0  0  0  0  0  0
    6.8794   -1.6525   21.0431 H   0  0  0  0  0  0  0  0  0  0  0  0
  1  2  2  0  0  0  0
  1  3  1  0  0  0  0
  2  5  1  0  0  0  0
  3  6  2  0  0  0  0
  4  5  2  0  0  0  0
  4  6  1  0  0  0  0
  5 12  1  0  0  0  0
  6 18  1  0  0  0  0
  7  8  2  0  0  0  0
  7 10  1  0  0  0  0
  7 13  1  0  0  0  0
  8 11  1  0  0  0  0
  8 15  1  0  0  0  0
  9 12  1  0  0  0  0
  9 16  1  0  0  0  0
  9 17  2  0  0  0  0
 13 14  2  0  0  0  0
 14 15  1  0  0  0  0
 15 16  1  0  0  0  0
  1 19  1  0  0  0  0
  2 20  1  0  0  0  0
  3 21  1  0  0  0  0
  4 22  1  0  0  0  0
 10 23  1  0  0  0  0
 10 24  1  0  0  0  0
 10 25  1  0  0  0  0
 11 26  1  0  0  0  0
 11 27  1  0  0  0  0
 11 28  1  0  0  0  0
 12 29  1  0  0  0  0
 12 30  1  0  0  0  0
 16 31  1  0  0  0  0
M  END
> <compound>
JAN-GHE-5a013bed-1

> <compound_smiles>
Cc1c(n(nn1)NC(=O)Cc2cccc(c2)Cl)C

> <enantiomer_smiles>
Cc1c(n(nn1)NC(=O)Cc2cccc(c2)Cl)C

> <scaffold>
chlorobenzene-linker

> <canonical_CID>
JAN-GHE-5a013bed-1

> <r_inhibition_at_20_uM>

> <r_inhibition_at_50_uM>

> <r_avg_IC50>
73.3563140602343

> <f_inhibition_at_20_uM>

> <f_inhibition_at_50_uM>

> <f_avg_IC50>
14.1625652028387

> <f_avg_pIC50>

> <relative_solubility_at_20_uM>

> <relative_solubility_at_100_uM>

> <trypsin_IC50>

> <NMR_std_ratio>

> <acrylamide>
False

> <chloroacetamide>
False

> <series>
3-aminopyridine-like

> <frag_id>

> <clash_score>
0

> <docking_score>
-7.261919021606445

> <overlap_score>
0.8610333800315857

> <MMFF_internal_energy>
-12.117171822376791

> <docked_smiles>
Cc1c(n(nn1)NC(=O)Cc2cccc(c2)Cl)C

$$$$
BAR-COM-ebf5acce-13_1
  -OEChem-07262101013D

 43 45  0     0  0  0  0  0  0999 V2000
    6.6739   -3.1577   18.8227 C   0  0  0  0  0  0  0  0  0  0  0  0
   11.9780    0.4600   23.9150 C   0  0  0  0  0  0  0  0  0  0  0  0
   10.6560    0.0720   23.7350 C   0  0  0  0  0  0  0  0  0  0  0  0
   12.9840   -0.1200   23.1530 C   0  0  0  0  0  0  0  0  0  0  0  0
    5.0183    1.7875   19.1339 C   0  0  0  0  0  0  0  0  0  0  0  0
   11.3360   -1.5050   22.0650 C   0  0  0  0  0  0  0  0  0  0  0  0
    5.4493    1.6644   17.8228 C   0  0  0  0  0  0  0  0  0  0  0  0
    6.9760    0.0416   18.3829 C   0  0  0  0  0  0  0  0  0  0  0  0
   10.3220   -0.8940   22.7910 C   0  0  0  0  0  0  0  0  0  0  0  0
    5.6182    0.9810   20.0946 C   0  0  0  0  0  0  0  0  0  0  0  0
    6.6167    0.0887   19.7202 C   0  0  0  0  0  0  0  0  0  0  0  0
   12.6400   -1.1000   22.2390 C   0  0  0  0  0  0  0  0  0  0  0  0
    8.3880   -0.3240   21.3070 C   0  0  0  0  0  0  0  0  0  0  0  0
    8.7901   -3.2203   20.1933 C   0  0  0  0  0  0  0  0  0  0  0  0
    7.3241   -4.5102   20.8496 C   0  0  0  0  0  0  0  0  0  0  0  0
    7.2516   -3.1384   20.1509 C   0  0  0  0  0  0  0  0  0  0  0  0
    5.1734    1.0934   21.5160 C   0  0  0  0  0  0  0  0  0  0  0  0
    8.8810   -1.1900   22.4510 C   0  0  0  0  0  0  0  0  0  0  0  0
    6.6629   -2.0299   21.0148 C   0  0  0  0  0  0  0  0  0  0  0  0
    6.2112   -3.1731   17.7588 N   0  0  0  0  0  0  0  0  0  0  0  0
    6.4161    0.8092   17.4211 N   0  0  0  0  0  0  0  0  0  0  0  0
    7.2820   -0.7860   20.6970 N   0  0  0  0  0  0  0  0  0  0  0  0
    8.9170    0.7530   21.0260 O   0  0  0  0  0  0  0  0  0  0  0  0
    8.7415   -4.3467   21.1041 O   0  0  0  0  0  0  0  0  0  0  0  0
   13.8840   -1.8490   21.2740 Cl  0  0  0  0  0  0  0  0  0  0  0  0
   12.2249    1.2198   24.6546 H   0  0  0  0  0  0  0  0  0  0  0  0
    9.8763    0.5350   24.3454 H   0  0  0  0  0  0  0  0  0  0  0  0
   14.0077    0.1988   23.2842 H   0  0  0  0  0  0  0  0  0  0  0  0
    4.2370    2.4938   19.3931 H   0  0  0  0  0  0  0  0  0  0  0  0
   11.0892   -2.3009   21.3624 H   0  0  0  0  0  0  0  0  0  0  0  0
    5.0135    2.2709   17.0358 H   0  0  0  0  0  0  0  0  0  0  0  0
    7.7485   -0.6347   18.0288 H   0  0  0  0  0  0  0  0  0  0  0  0
    9.2947   -3.4967   19.2608 H   0  0  0  0  0  0  0  0  0  0  0  0
    9.3053   -2.3637   20.6386 H   0  0  0  0  0  0  0  0  0  0  0  0
    6.7568   -4.6074   21.7806 H   0  0  0  0  0  0  0  0  0  0  0  0
    7.1409   -5.3911   20.2244 H   0  0  0  0  0  0  0  0  0  0  0  0
    4.3500    0.3970   21.7124 H   0  0  0  0  0  0  0  0  0  0  0  0
    5.9946    0.8677   22.2073 H   0  0  0  0  0  0  0  0  0  0  0  0
    4.8333    2.1109   21.7454 H   0  0  0  0  0  0  0  0  0  0  0  0
    8.8006   -2.2403   22.1717 H   0  0  0  0  0  0  0  0  0  0  0  0
    8.2668   -1.0117   23.3332 H   0  0  0  0  0  0  0  0  0  0  0  0
    5.5939   -1.9878   20.8076 H   0  0  0  0  0  0  0  0  0  0  0  0
    6.8492   -2.2937   22.0556 H   0  0  0  0  0  0  0  0  0  0  0  0
  1 16  1  0  0  0  0
  1 20  3  0  0  0  0
  2  3  2  0  0  0  0
  2  4  1  0  0  0  0
  3  9  1  0  0  0  0
  4 12  2  0  0  0  0
  5  7  2  0  0  0  0
  5 10  1  0  0  0  0
  6  9  2  0  0  0  0
  6 12  1  0  0  0  0
  7 21  1  0  0  0  0
  8 11  1  0  0  0  0
  8 21  2  0  0  0  0
  9 18  1  0  0  0  0
 10 11  2  0  0  0  0
 10 17  1  0  0  0  0
 11 22  1  0  0  0  0
 12 25  1  0  0  0  0
 13 18  1  0  0  0  0
 13 22  1  0  0  0  0
 13 23  2  0  0  0  0
 14 16  1  0  0  0  0
 14 24  1  0  0  0  0
 15 16  1  0  0  0  0
 15 24  1  0  0  0  0
 16 19  1  0  0  0  0
 19 22  1  0  0  0  0
  2 26  1  0  0  0  0
  3 27  1  0  0  0  0
  4 28  1  0  0  0  0
  5 29  1  0  0  0  0
  6 30  1  0  0  0  0
  7 31  1  0  0  0  0
  8 32  1  0  0  0  0
 14 33  1  0  0  0  0
 14 34  1  0  0  0  0
 15 35  1  0  0  0  0
 15 36  1  0  0  0  0
 17 37  1  0  0  0  0
 17 38  1  0  0  0  0
 17 39  1  0  0  0  0
 18 40  1  0  0  0  0
 18 41  1  0  0  0  0
 19 42  1  0  0  0  0
 19 43  1  0  0  0  0
M  END
> <compound>
BAR-COM-ebf5acce-13

> <compound_smiles>
Cc1ccncc1N(CC2(COC2)C#N)C(=O)Cc3cccc(c3)Cl

> <enantiomer_smiles>
Cc1ccncc1N(CC2(COC2)C#N)C(=O)Cc3cccc(c3)Cl

> <scaffold>
chlorobenzene-linker

> <clash_score>
2.8493448369310777

> <docking_score>
-3.560157299041748

> <overlap_score>
0.863545835018158

> <MMFF_internal_energy>
108.44343898172778

> <docked_smiles>
Cc1ccncc1N(CC2(COC2)C#N)C(=O)Cc3cccc(c3)Cl

$$$$
JAN-GHE-5a013bed-2_1
  -OEChem-07262101013D

 32 34  0     0  0  0  0  0  0999 V2000
    3.4999    2.3696   19.1941 C   0  0  0  0  0  0  0  0  0  0  0  0
    3.8756    2.1167   20.5154 C   0  0  0  0  0  0  0  0  0  0  0  0
   11.9780    0.4600   23.9150 C   0  0  0  0  0  0  0  0  0  0  0  0
   10.6560    0.0720   23.7350 C   0  0  0  0  0  0  0  0  0  0  0  0
    4.1598    1.7502   18.1253 C   0  0  0  0  0  0  0  0  0  0  0  0
    4.9215    1.2382   20.8172 C   0  0  0  0  0  0  0  0  0  0  0  0
   12.9840   -0.1200   23.1530 C   0  0  0  0  0  0  0  0  0  0  0  0
   11.3360   -1.5050   22.0650 C   0  0  0  0  0  0  0  0  0  0  0  0
    6.8334   -0.5242   18.3421 C   0  0  0  0  0  0  0  0  0  0  0  0
   10.3220   -0.8940   22.7910 C   0  0  0  0  0  0  0  0  0  0  0  0
    5.2130    0.8647   18.4101 C   0  0  0  0  0  0  0  0  0  0  0  0
    5.5643    0.6328   19.7369 C   0  0  0  0  0  0  0  0  0  0  0  0
   12.6400   -1.1000   22.2390 C   0  0  0  0  0  0  0  0  0  0  0  0
    8.3880   -0.3240   21.3070 C   0  0  0  0  0  0  0  0  0  0  0  0
    8.8810   -1.1900   22.4510 C   0  0  0  0  0  0  0  0  0  0  0  0
    6.0120    0.1373   17.5581 N   0  0  0  0  0  0  0  0  0  0  0  0
    6.6033   -0.2593   19.6635 N   0  0  0  0  0  0  0  0  0  0  0  0
    7.2820   -0.7860   20.6970 N   0  0  0  0  0  0  0  0  0  0  0  0
    8.9170    0.7530   21.0260 O   0  0  0  0  0  0  0  0  0  0  0  0
   13.8840   -1.8490   21.2740 Cl  0  0  0  0  0  0  0  0  0  0  0  0
    2.6830    3.0570   18.9912 H   0  0  0  0  0  0  0  0  0  0  0  0
    3.3440    2.6104   21.3254 H   0  0  0  0  0  0  0  0  0  0  0  0
   12.2249    1.2198   24.6546 H   0  0  0  0  0  0  0  0  0  0  0  0
    9.8763    0.5350   24.3454 H   0  0  0  0  0  0  0  0  0  0  0  0
    3.8597    1.9526   17.1021 H   0  0  0  0  0  0  0  0  0  0  0  0
    5.2121    1.0425   21.8433 H   0  0  0  0  0  0  0  0  0  0  0  0
   14.0077    0.1988   23.2842 H   0  0  0  0  0  0  0  0  0  0  0  0
   11.0892   -2.3009   21.3624 H   0  0  0  0  0  0  0  0  0  0  0  0
    7.6078   -1.2035   18.0119 H   0  0  0  0  0  0  0  0  0  0  0  0
    8.2520   -1.0134   23.3227 H   0  0  0  0  0  0  0  0  0  0  0  0
    8.7794   -2.2394   22.1763 H   0  0  0  0  0  0  0  0  0  0  0  0
    6.8842   -1.7078   21.0924 H   0  0  0  0  0  0  0  0  0  0  0  0
  1  2  1  0  0  0  0
  1  5  2  0  0  0  0
  2  6  2  0  0  0  0
  3  4  2  0  0  0  0
  3  7  1  0  0  0  0
  4 10  1  0  0  0  0
  5 11  1  0  0  0  0
  6 12  1  0  0  0  0
  7 13  2  0  0  0  0
  8 10  2  0  0  0  0
  8 13  1  0  0  0  0
  9 16  2  0  0  0  0
  9 17  1  0  0  0  0
 10 15  1  0  0  0  0
 11 12  2  0  0  0  0
 11 16  1  0  0  0  0
 12 17  1  0  0  0  0
 13 20  1  0  0  0  0
 14 15  1  0  0  0  0
 14 18  1  0  0  0  0
 14 19  2  0  0  0  0
 17 18  1  0  0  0  0
  1 21  1  0  0  0  0
  2 22  1  0  0  0  0
  3 23  1  0  0  0  0
  4 24  1  0  0  0  0
  5 25  1  0  0  0  0
  6 26  1  0  0  0  0
  7 27  1  0  0  0  0
  8 28  1  0  0  0  0
  9 29  1  0  0  0  0
 15 30  1  0  0  0  0
 15 31  1  0  0  0  0
 18 32  1  0  0  0  0
M  END
> <compound>
JAN-GHE-5a013bed-2

> <compound_smiles>
c1ccc2c(c1)ncn2NC(=O)Cc3cccc(c3)Cl

> <enantiomer_smiles>
c1ccc2c(c1)ncn2NC(=O)Cc3cccc(c3)Cl

> <scaffold>
chlorobenzene-linker

> <canonical_CID>
JAN-GHE-5a013bed-2

> <r_inhibition_at_20_uM>

> <r_inhibition_at_50_uM>

> <r_avg_IC50>
4.2651979935473

> <f_inhibition_at_20_uM>

> <f_inhibition_at_50_uM>

> <f_avg_IC50>
8.30346802415843

> <f_avg_pIC50>

> <relative_solubility_at_20_uM>

> <relative_solubility_at_100_uM>

> <trypsin_IC50>
99.0

> <NMR_std_ratio>

> <acrylamide>
False

> <chloroacetamide>
False

> <series>
3-aminopyridine-like

> <frag_id>
x10466

> <clash_score>
0

> <docking_score>
-9.022806167602539

> <overlap_score>
0.9522425532341003

> <MMFF_internal_energy>
34.33608715205001

> <docked_smiles>
c1ccc2c(c1)ncn2NC(=O)Cc3cccc(c3)Cl

$$$$
BAR-COM-ebf5acce-5_1
  -OEChem-07262101013D

 42 44  0     0  0  0  0  0  0999 V2000
   11.9780    0.4600   23.9150 C   0  0  0  0  0  0  0  0  0  0  0  0
   10.6560    0.0720   23.7350 C   0  0  0  0  0  0  0  0  0  0  0  0
   12.9840   -0.1200   23.1530 C   0  0  0  0  0  0  0  0  0  0  0  0
    5.1297    1.5096   18.6757 C   0  0  0  0  0  0  0  0  0  0  0  0
   11.3360   -1.5050   22.0650 C   0  0  0  0  0  0  0  0  0  0  0  0
    5.6609    1.2304   17.4268 C   0  0  0  0  0  0  0  0  0  0  0  0
    7.1568   -0.2780   18.3015 C   0  0  0  0  0  0  0  0  0  0  0  0
    5.7849   -3.8090   21.9557 C   0  0  0  0  0  0  0  0  0  0  0  0
   10.3220   -0.8940   22.7910 C   0  0  0  0  0  0  0  0  0  0  0  0
    5.6626    0.8432   19.7735 C   0  0  0  0  0  0  0  0  0  0  0  0
    6.6959   -0.0693   19.5914 C   0  0  0  0  0  0  0  0  0  0  0  0
    6.1501   -2.4769   22.2276 C   0  0  0  0  0  0  0  0  0  0  0  0
   12.6400   -1.1000   22.2390 C   0  0  0  0  0  0  0  0  0  0  0  0
    6.7204   -2.0320   21.0600 C   0  0  0  0  0  0  0  0  0  0  0  0
    8.3880   -0.3240   21.3070 C   0  0  0  0  0  0  0  0  0  0  0  0
    5.1093    1.1255   21.1317 C   0  0  0  0  0  0  0  0  0  0  0  0
    5.3696   -2.4207   24.4734 C   0  0  0  0  0  0  0  0  0  0  0  0
    8.8810   -1.1900   22.4510 C   0  0  0  0  0  0  0  0  0  0  0  0
    6.6643    0.3506   17.2107 N   0  0  0  0  0  0  0  0  0  0  0  0
    6.0968   -4.1857   20.7127 N   0  0  0  0  0  0  0  0  0  0  0  0
    6.6640   -3.0836   20.1933 N   0  0  0  0  0  0  0  0  0  0  0  0
    7.2820   -0.7860   20.6970 N   0  0  0  0  0  0  0  0  0  0  0  0
    8.9170    0.7530   21.0260 O   0  0  0  0  0  0  0  0  0  0  0  0
    5.9940   -1.7708   23.3539 O   0  0  0  0  0  0  0  0  0  0  0  0
   13.8840   -1.8490   21.2740 Cl  0  0  0  0  0  0  0  0  0  0  0  0
   12.2249    1.2198   24.6546 H   0  0  0  0  0  0  0  0  0  0  0  0
    9.8763    0.5350   24.3454 H   0  0  0  0  0  0  0  0  0  0  0  0
   14.0077    0.1988   23.2842 H   0  0  0  0  0  0  0  0  0  0  0  0
    4.3236    2.2274   18.7837 H   0  0  0  0  0  0  0  0  0  0  0  0
   11.0892   -2.3009   21.3624 H   0  0  0  0  0  0  0  0  0  0  0  0
    5.2803    1.7237   16.5385 H   0  0  0  0  0  0  0  0  0  0  0  0
    7.9610   -0.9781   18.0952 H   0  0  0  0  0  0  0  0  0  0  0  0
    5.3044   -4.5218   22.6106 H   0  0  0  0  0  0  0  0  0  0  0  0
    4.2804    0.4433   21.3534 H   0  0  0  0  0  0  0  0  0  0  0  0
    5.8775    1.0054   21.9054 H   0  0  0  0  0  0  0  0  0  0  0  0
    4.7422    2.1568   21.2035 H   0  0  0  0  0  0  0  0  0  0  0  0
    5.3118   -1.7248   25.3139 H   0  0  0  0  0  0  0  0  0  0  0  0
    5.9517   -3.3017   24.7554 H   0  0  0  0  0  0  0  0  0  0  0  0
    4.3609   -2.7288   24.1883 H   0  0  0  0  0  0  0  0  0  0  0  0
    8.7679   -2.2431   22.1594 H   0  0  0  0  0  0  0  0  0  0  0  0
    8.2854   -1.0410   23.3609 H   0  0  0  0  0  0  0  0  0  0  0  0
    6.9927   -3.1180   19.2365 H   0  0  0  0  0  0  0  0  0  0  0  0
  1  2  2  0  0  0  0
  1  3  1  0  0  0  0
  2  9  1  0  0  0  0
  3 13  2  0  0  0  0
  4  6  2  0  0  0  0
  4 10  1  0  0  0  0
  5  9  2  0  0  0  0
  5 13  1  0  0  0  0
  6 19  1  0  0  0  0
  7 11  1  0  0  0  0
  7 19  2  0  0  0  0
  8 12  1  0  0  0  0
  8 20  2  0  0  0  0
  9 18  1  0  0  0  0
 10 11  2  0  0  0  0
 10 16  1  0  0  0  0
 11 22  1  0  0  0  0
 12 14  2  0  0  0  0
 12 24  1  0  0  0  0
 13 25  1  0  0  0  0
 14 21  1  0  0  0  0
 14 22  1  0  0  0  0
 15 18  1  0  0  0  0
 15 22  1  0  0  0  0
 15 23  2  0  0  0  0
 17 24  1  0  0  0  0
 20 21  1  0  0  0  0
  1 26  1  0  0  0  0
  2 27  1  0  0  0  0
  3 28  1  0  0  0  0
  4 29  1  0  0  0  0
  5 30  1  0  0  0  0
  6 31  1  0  0  0  0
  7 32  1  0  0  0  0
  8 33  1  0  0  0  0
 16 34  1  0  0  0  0
 16 35  1  0  0  0  0
 16 36  1  0  0  0  0
 17 37  1  0  0  0  0
 17 38  1  0  0  0  0
 17 39  1  0  0  0  0
 18 40  1  0  0  0  0
 18 41  1  0  0  0  0
 21 42  1  0  0  0  0
M  END
> <compound>
BAR-COM-ebf5acce-5

> <compound_smiles>
Cc1ccncc1N(c2c(c[nH]n2)OC)C(=O)Cc3cccc(c3)Cl

> <enantiomer_smiles>
Cc1ccncc1N(c2c(c[nH]n2)OC)C(=O)Cc3cccc(c3)Cl

> <scaffold>
chlorobenzene-linker

> <clash_score>
0

> <docking_score>
-6.375183582305908

> <overlap_score>
0.863929808139801

> <MMFF_internal_energy>
145.6331923986235

> <docked_smiles>
Cc1ccncc1N(c2c(cn[nH]2)OC)C(=O)Cc3cccc(c3)Cl

$$$$
BAR-COM-ebf5acce-3_1
  -OEChem-07262101013D

 44 45  0     1  0  0  0  0  0999 V2000
   11.9780    0.4600   23.9150 C   0  0  0  0  0  0  0  0  0  0  0  0
   10.6560    0.0720   23.7350 C   0  0  0  0  0  0  0  0  0  0  0  0
   12.9840   -0.1200   23.1530 C   0  0  0  0  0  0  0  0  0  0  0  0
    4.9630    1.7236   19.1319 C   0  0  0  0  0  0  0  0  0  0  0  0
   11.3360   -1.5050   22.0650 C   0  0  0  0  0  0  0  0  0  0  0  0
    5.3838    1.5927   17.8183 C   0  0  0  0  0  0  0  0  0  0  0  0
    6.9441    0.0035   18.3825 C   0  0  0  0  0  0  0  0  0  0  0  0
   10.3220   -0.8940   22.7910 C   0  0  0  0  0  0  0  0  0  0  0  0
    5.5860    0.9391   20.0962 C   0  0  0  0  0  0  0  0  0  0  0  0
    6.5965    0.0601   19.7226 C   0  0  0  0  0  0  0  0  0  0  0  0
   12.6400   -1.1000   22.2390 C   0  0  0  0  0  0  0  0  0  0  0  0
    8.3880   -0.3240   21.3070 C   0  0  0  0  0  0  0  0  0  0  0  0
    5.1526    1.0604   21.5203 C   0  0  0  0  0  0  0  0  0  0  0  0
    6.3631   -5.3649   18.9820 C   0  0  0  0  0  0  0  0  0  0  0  0
    8.8810   -1.1900   22.4510 C   0  0  0  0  0  0  0  0  0  0  0  0
    6.4161   -4.4565   20.2042 C   0  0  0  0  0  0  0  0  0  0  0  0
    6.6660   -2.0496   21.0306 C   0  0  0  0  0  0  0  0  0  0  0  0
    6.6284   -2.9875   19.8218 C   0  0  2  0  0  0  0  0  0  0  0  0
    6.3618    0.7498   17.4173 N   0  0  0  0  0  0  0  0  0  0  0  0
    7.2820   -0.7860   20.6970 N   0  0  0  0  0  0  0  0  0  0  0  0
    8.9170    0.7530   21.0260 O   0  0  0  0  0  0  0  0  0  0  0  0
    5.5918   -2.5757   18.9330 O   0  0  0  0  0  0  0  0  0  0  0  0
   13.8840   -1.8490   21.2740 Cl  0  0  0  0  0  0  0  0  0  0  0  0
   12.2249    1.2198   24.6546 H   0  0  0  0  0  0  0  0  0  0  0  0
    9.8763    0.5350   24.3454 H   0  0  0  0  0  0  0  0  0  0  0  0
   14.0077    0.1988   23.2842 H   0  0  0  0  0  0  0  0  0  0  0  0
    4.1718    2.4191   19.3904 H   0  0  0  0  0  0  0  0  0  0  0  0
   11.0892   -2.3009   21.3624 H   0  0  0  0  0  0  0  0  0  0  0  0
    4.9300    2.1821   17.0285 H   0  0  0  0  0  0  0  0  0  0  0  0
    7.7250   -0.6632   18.0289 H   0  0  0  0  0  0  0  0  0  0  0  0
    4.3434    0.3520   21.7326 H   0  0  0  0  0  0  0  0  0  0  0  0
    5.9841    0.8573   22.2063 H   0  0  0  0  0  0  0  0  0  0  0  0
    4.7967    2.0743   21.7412 H   0  0  0  0  0  0  0  0  0  0  0  0
    5.5611   -5.0677   18.2991 H   0  0  0  0  0  0  0  0  0  0  0  0
    7.3087   -5.3135   18.4330 H   0  0  0  0  0  0  0  0  0  0  0  0
    6.1979   -6.4064   19.2752 H   0  0  0  0  0  0  0  0  0  0  0  0
    8.8006   -2.2403   22.1717 H   0  0  0  0  0  0  0  0  0  0  0  0
    8.2668   -1.0117   23.3332 H   0  0  0  0  0  0  0  0  0  0  0  0
    7.2350   -4.8049   20.8445 H   0  0  0  0  0  0  0  0  0  0  0  0
    5.4818   -4.5637   20.7674 H   0  0  0  0  0  0  0  0  0  0  0  0
    7.2184   -2.5135   21.8543 H   0  0  0  0  0  0  0  0  0  0  0  0
    5.6472   -1.8508   21.3800 H   0  0  0  0  0  0  0  0  0  0  0  0
    7.5767   -2.8927   19.2790 H   0  0  0  0  0  0  0  0  0  0  0  0
    5.6530   -3.1497   18.1541 H   0  0  0  0  0  0  0  0  0  0  0  0
  1  2  2  0  0  0  0
  1  3  1  0  0  0  0
  2  8  1  0  0  0  0
  3 11  2  0  0  0  0
  4  6  2  0  0  0  0
  4  9  1  0  0  0  0
  5  8  2  0  0  0  0
  5 11  1  0  0  0  0
  6 19  1  0  0  0  0
  7 10  1  0  0  0  0
  7 19  2  0  0  0  0
  8 15  1  0  0  0  0
  9 10  2  0  0  0  0
  9 13  1  0  0  0  0
 10 20  1  0  0  0  0
 11 23  1  0  0  0  0
 12 15  1  0  0  0  0
 12 20  1  0  0  0  0
 12 21  2  0  0  0  0
 14 16  1  0  0  0  0
 16 18  1  0  0  0  0
 17 18  1  0  0  0  0
 17 20  1  0  0  0  0
 18 22  1  0  0  0  0
  1 24  1  0  0  0  0
  2 25  1  0  0  0  0
  3 26  1  0  0  0  0
  4 27  1  0  0  0  0
  5 28  1  0  0  0  0
  6 29  1  0  0  0  0
  7 30  1  0  0  0  0
 13 31  1  0  0  0  0
 13 32  1  0  0  0  0
 13 33  1  0  0  0  0
 14 34  1  0  0  0  0
 14 35  1  0  0  0  0
 14 36  1  0  0  0  0
 15 37  1  0  0  0  0
 15 38  1  0  0  0  0
 16 39  1  0  0  0  0
 16 40  1  0  0  0  0
 17 41  1  0  0  0  0
 17 42  1  0  0  0  0
 18 43  1  0  0  0  0
 22 44  1  0  0  0  0
M  END
> <compound>
BAR-COM-ebf5acce-3

> <compound_smiles>
CC[C@H](CN(c1cnccc1C)C(=O)Cc2cccc(c2)Cl)O

> <enantiomer_smiles>
CC[C@H](CN(c1cnccc1C)C(=O)Cc2cccc(c2)Cl)O

> <scaffold>
chlorobenzene-linker

> <clash_score>
0.629959188960174

> <docking_score>
-6.463014602661133

> <overlap_score>
0.872736394405365

> <MMFF_internal_energy>
118.04501017656023

> <docked_smiles>
CC[C@H](CN(c1cnccc1C)C(=O)Cc2cccc(c2)Cl)O

$$$$
JAN-GHE-5a013bed-8_1
  -OEChem-07262101013D

 27 28  0     0  0  0  0  0  0999 V2000
   11.9780    0.4600   23.9150 C   0  0  0  0  0  0  0  0  0  0  0  0
   10.6560    0.0720   23.7350 C   0  0  0  0  0  0  0  0  0  0  0  0
   12.9840   -0.1200   23.1530 C   0  0  0  0  0  0  0  0  0  0  0  0
   11.3360   -1.5050   22.0650 C   0  0  0  0  0  0  0  0  0  0  0  0
    5.2274    1.1037   17.7159 C   0  0  0  0  0  0  0  0  0  0  0  0
    4.7998   -0.1195   18.1835 C   0  0  0  0  0  0  0  0  0  0  0  0
    6.9698    1.0606   19.1964 C   0  0  0  0  0  0  0  0  0  0  0  0
   10.3220   -0.8940   22.7910 C   0  0  0  0  0  0  0  0  0  0  0  0
   12.6400   -1.1000   22.2390 C   0  0  0  0  0  0  0  0  0  0  0  0
    6.5418   -0.1622   19.6645 C   0  0  0  0  0  0  0  0  0  0  0  0
    8.3880   -0.3240   21.3070 C   0  0  0  0  0  0  0  0  0  0  0  0
    8.8810   -1.1900   22.4510 C   0  0  0  0  0  0  0  0  0  0  0  0
    6.3201    1.7156   18.2139 N   0  0  0  0  0  0  0  0  0  0  0  0
    5.4494   -0.7744   19.1662 N   0  0  0  0  0  0  0  0  0  0  0  0
    7.2820   -0.7860   20.6970 N   0  0  0  0  0  0  0  0  0  0  0  0
    8.9170    0.7530   21.0260 O   0  0  0  0  0  0  0  0  0  0  0  0
   13.8840   -1.8490   21.2740 Cl  0  0  0  0  0  0  0  0  0  0  0  0
   12.2249    1.2198   24.6546 H   0  0  0  0  0  0  0  0  0  0  0  0
    9.8763    0.5350   24.3454 H   0  0  0  0  0  0  0  0  0  0  0  0
   14.0077    0.1988   23.2842 H   0  0  0  0  0  0  0  0  0  0  0  0
   11.0892   -2.3009   21.3624 H   0  0  0  0  0  0  0  0  0  0  0  0
    4.7050    1.6292   16.9262 H   0  0  0  0  0  0  0  0  0  0  0  0
    3.9220   -0.6106   17.7827 H   0  0  0  0  0  0  0  0  0  0  0  0
    7.8470    1.5619   19.5894 H   0  0  0  0  0  0  0  0  0  0  0  0
    8.7709   -2.2387   22.1706 H   0  0  0  0  0  0  0  0  0  0  0  0
    8.2491   -1.0157   23.3232 H   0  0  0  0  0  0  0  0  0  0  0  0
    6.9372   -1.6894   21.0149 H   0  0  0  0  0  0  0  0  0  0  0  0
  1  2  1  0  0  0  0
  1  3  2  0  0  0  0
  2  8  2  0  0  0  0
  3  9  1  0  0  0  0
  4  8  1  0  0  0  0
  4  9  2  0  0  0  0
  5  6  2  0  0  0  0
  5 13  1  0  0  0  0
  6 14  1  0  0  0  0
  7 10  1  0  0  0  0
  7 13  2  0  0  0  0
  8 12  1  0  0  0  0
  9 17  1  0  0  0  0
 10 14  2  0  0  0  0
 10 15  1  0  0  0  0
 11 12  1  0  0  0  0
 11 15  1  0  0  0  0
 11 16  2  0  0  0  0
  1 18  1  0  0  0  0
  2 19  1  0  0  0  0
  3 20  1  0  0  0  0
  4 21  1  0  0  0  0
  5 22  1  0  0  0  0
  6 23  1  0  0  0  0
  7 24  1  0  0  0  0
 12 25  1  0  0  0  0
 12 26  1  0  0  0  0
 15 27  1  0  0  0  0
M  END
> <compound>
JAN-GHE-5a013bed-8

> <compound_smiles>
c1cc(cc(c1)Cl)CC(=O)Nc2cnccn2

> <enantiomer_smiles>
c1cc(cc(c1)Cl)CC(=O)Nc2cnccn2

> <scaffold>
chlorobenzene-linker

> <clash_score>
0

> <docking_score>
-3.339601755142212

> <overlap_score>
0.7500937581062317

> <MMFF_internal_energy>
59.82650049429127

> <docked_smiles>
c1cc(cc(c1)Cl)CC(=O)Nc2cnccn2

$$$$
BAR-COM-ebf5acce-9_1
  -OEChem-07262101013D

 50 52  0     1  0  0  0  0  0999 V2000
   11.9780    0.4600   23.9150 C   0  0  0  0  0  0  0  0  0  0  0  0
   10.6560    0.0720   23.7350 C   0  0  0  0  0  0  0  0  0  0  0  0
   12.9840   -0.1200   23.1530 C   0  0  0  0  0  0  0  0  0  0  0  0
    5.0053    1.7726   19.1333 C   0  0  0  0  0  0  0  0  0  0  0  0
   11.3360   -1.5050   22.0650 C   0  0  0  0  0  0  0  0  0  0  0  0
    5.4339    1.6477   17.8217 C   0  0  0  0  0  0  0  0  0  0  0  0
    6.9685    0.0327   18.3827 C   0  0  0  0  0  0  0  0  0  0  0  0
   10.3220   -0.8940   22.7910 C   0  0  0  0  0  0  0  0  0  0  0  0
    5.6106    0.9713   20.0949 C   0  0  0  0  0  0  0  0  0  0  0  0
    6.6119    0.0820   19.7207 C   0  0  0  0  0  0  0  0  0  0  0  0
   12.6400   -1.1000   22.2390 C   0  0  0  0  0  0  0  0  0  0  0  0
    8.3880   -0.3240   21.3070 C   0  0  0  0  0  0  0  0  0  0  0  0
    5.5545   -2.7069   18.7752 C   0  0  0  0  0  0  0  0  0  0  0  0
    6.6369   -2.9367   19.8074 C   0  0  2  0  0  0  0  0  0  0  0  0
    5.4882   -3.9427   19.6429 C   0  0  2  0  0  0  0  0  0  0  0  0
    5.1685    1.0857   21.5169 C   0  0  0  0  0  0  0  0  0  0  0  0
    8.0198   -3.2951   19.3145 C   0  0  0  0  0  0  0  0  0  0  0  0
    4.4036   -4.0353   20.6818 C   0  0  0  0  0  0  0  0  0  0  0  0
    8.8810   -1.1900   22.4510 C   0  0  0  0  0  0  0  0  0  0  0  0
    6.6636   -2.0345   21.0185 C   0  0  0  0  0  0  0  0  0  0  0  0
    6.4033    0.7954   17.4201 N   0  0  0  0  0  0  0  0  0  0  0  0
    7.2820   -0.7860   20.6970 N   0  0  0  0  0  0  0  0  0  0  0  0
    5.8023   -5.2293   18.9737 N   0  3  0  0  0  0  0  0  0  0  0  0
    8.9170    0.7530   21.0260 O   0  0  0  0  0  0  0  0  0  0  0  0
   13.8840   -1.8490   21.2740 Cl  0  0  0  0  0  0  0  0  0  0  0  0
   12.2249    1.2198   24.6546 H   0  0  0  0  0  0  0  0  0  0  0  0
    9.8763    0.5350   24.3454 H   0  0  0  0  0  0  0  0  0  0  0  0
   14.0077    0.1988   23.2842 H   0  0  0  0  0  0  0  0  0  0  0  0
    4.2216    2.4764   19.3924 H   0  0  0  0  0  0  0  0  0  0  0  0
   11.0892   -2.3009   21.3624 H   0  0  0  0  0  0  0  0  0  0  0  0
    4.9938    2.2503   17.0339 H   0  0  0  0  0  0  0  0  0  0  0  0
    7.7429   -0.6414   18.0288 H   0  0  0  0  0  0  0  0  0  0  0  0
    4.8352   -1.9140   18.9493 H   0  0  0  0  0  0  0  0  0  0  0  0
    5.8068   -2.8218   17.7266 H   0  0  0  0  0  0  0  0  0  0  0  0
    4.3484    0.3865   21.7171 H   0  0  0  0  0  0  0  0  0  0  0  0
    5.9922    0.8653   22.2071 H   0  0  0  0  0  0  0  0  0  0  0  0
    4.8247    2.1024   21.7444 H   0  0  0  0  0  0  0  0  0  0  0  0
    8.7049   -3.4337   20.1564 H   0  0  0  0  0  0  0  0  0  0  0  0
    8.4181   -2.5019   18.6743 H   0  0  0  0  0  0  0  0  0  0  0  0
    7.9938   -4.2236   18.7358 H   0  0  0  0  0  0  0  0  0  0  0  0
    4.4722   -4.9788   21.2366 H   0  0  0  0  0  0  0  0  0  0  0  0
    3.4114   -3.9873   20.2174 H   0  0  0  0  0  0  0  0  0  0  0  0
    4.4804   -3.2124   21.4025 H   0  0  0  0  0  0  0  0  0  0  0  0
    8.8006   -2.2403   22.1717 H   0  0  0  0  0  0  0  0  0  0  0  0
    8.2668   -1.0117   23.3332 H   0  0  0  0  0  0  0  0  0  0  0  0
    5.6316   -1.8672   21.3399 H   0  0  0  0  0  0  0  0  0  0  0  0
    7.2309   -2.5395   21.8055 H   0  0  0  0  0  0  0  0  0  0  0  0
    5.7386   -5.1376   17.9544 H   0  0  0  0  0  0  0  0  0  0  0  0
    5.1486   -5.9634   19.2666 H   0  0  0  0  0  0  0  0  0  0  0  0
    6.7518   -5.5405   19.2047 H   0  0  0  0  0  0  0  0  0  0  0  0
  1  2  2  0  0  0  0
  1  3  1  0  0  0  0
  2  8  1  0  0  0  0
  3 11  2  0  0  0  0
  4  6  2  0  0  0  0
  4  9  1  0  0  0  0
  5  8  2  0  0  0  0
  5 11  1  0  0  0  0
  6 21  1  0  0  0  0
  7 10  1  0  0  0  0
  7 21  2  0  0  0  0
  8 19  1  0  0  0  0
  9 10  2  0  0  0  0
  9 16  1  0  0  0  0
 10 22  1  0  0  0  0
 11 25  1  0  0  0  0
 12 19  1  0  0  0  0
 12 22  1  0  0  0  0
 12 24  2  0  0  0  0
 13 14  1  0  0  0  0
 13 15  1  0  0  0  0
 14 15  1  0  0  0  0
 14 17  1  6  0  0  0
 14 20  1  0  0  0  0
 15 18  1  0  0  0  0
 15 23  1  6  0  0  0
 20 22  1  0  0  0  0
  1 26  1  0  0  0  0
  2 27  1  0  0  0  0
  3 28  1  0  0  0  0
  4 29  1  0  0  0  0
  5 30  1  0  0  0  0
  6 31  1  0  0  0  0
  7 32  1  0  0  0  0
 13 33  1  0  0  0  0
 13 34  1  0  0  0  0
 16 35  1  0  0  0  0
 16 36  1  0  0  0  0
 16 37  1  0  0  0  0
 17 38  1  0  0  0  0
 17 39  1  0  0  0  0
 17 40  1  0  0  0  0
 18 41  1  0  0  0  0
 18 42  1  0  0  0  0
 18 43  1  0  0  0  0
 19 44  1  0  0  0  0
 19 45  1  0  0  0  0
 20 46  1  0  0  0  0
 20 47  1  0  0  0  0
 23 48  1  0  0  0  0
 23 49  1  0  0  0  0
 23 50  1  0  0  0  0
M  CHG  1  23   1
M  END
> <compound>
BAR-COM-ebf5acce-9

> <compound_smiles>
Cc1ccncc1N(C[C@@]2(C[C@@]2(C)N)C)C(=O)Cc3cccc(c3)Cl

> <enantiomer_smiles>
Cc1ccncc1N(C[C@@]2(C[C@@]2(C)N)C)C(=O)Cc3cccc(c3)Cl

> <scaffold>
chlorobenzene-linker

> <clash_score>
2.379497547407574

> <docking_score>
-1.6638407707214355

> <overlap_score>
0.8648995757102966

> <MMFF_internal_energy>
128.29280363431482

> <docked_smiles>
Cc1ccncc1N(C[C@@]2(C[C@@]2(C)[NH3+])C)C(=O)Cc3cccc(c3)Cl

$$$$
JAN-GHE-5a013bed-3_1
  -OEChem-07262101013D

 34 36  0     0  0  0  0  0  0999 V2000
    3.8719    3.2496   17.6879 C   0  0  0  0  0  0  0  0  0  0  0  0
    4.3669    2.8908   16.4351 C   0  0  0  0  0  0  0  0  0  0  0  0
   11.9780    0.4600   23.9150 C   0  0  0  0  0  0  0  0  0  0  0  0
    4.3336    2.6032   18.8335 C   0  0  0  0  0  0  0  0  0  0  0  0
   10.6560    0.0720   23.7350 C   0  0  0  0  0  0  0  0  0  0  0  0
    5.3270    1.8834   16.3225 C   0  0  0  0  0  0  0  0  0  0  0  0
   12.9840   -0.1200   23.1530 C   0  0  0  0  0  0  0  0  0  0  0  0
   11.3360   -1.5050   22.0650 C   0  0  0  0  0  0  0  0  0  0  0  0
    5.2952    1.5945   18.7169 C   0  0  0  0  0  0  0  0  0  0  0  0
   10.3220   -0.8940   22.7910 C   0  0  0  0  0  0  0  0  0  0  0  0
    5.8028    1.2233   17.4608 C   0  0  0  0  0  0  0  0  0  0  0  0
   12.6400   -1.1000   22.2390 C   0  0  0  0  0  0  0  0  0  0  0  0
    7.1890   -0.3757   18.3767 C   0  0  0  0  0  0  0  0  0  0  0  0
    5.7974    0.8961   19.9252 C   0  0  0  0  0  0  0  0  0  0  0  0
    8.3880   -0.3240   21.3070 C   0  0  0  0  0  0  0  0  0  0  0  0
    8.8810   -1.1900   22.4510 C   0  0  0  0  0  0  0  0  0  0  0  0
    6.7716    0.2128   17.3045 N   0  0  0  0  0  0  0  0  0  0  0  0
    6.7498   -0.0793   19.6477 N   0  0  0  0  0  0  0  0  0  0  0  0
    7.2820   -0.7860   20.6970 N   0  0  0  0  0  0  0  0  0  0  0  0
    5.3783    1.1910   21.0391 O   0  0  0  0  0  0  0  0  0  0  0  0
    8.9170    0.7530   21.0260 O   0  0  0  0  0  0  0  0  0  0  0  0
   13.8840   -1.8490   21.2740 Cl  0  0  0  0  0  0  0  0  0  0  0  0
    3.1251    4.0339   17.7714 H   0  0  0  0  0  0  0  0  0  0  0  0
    4.0052    3.3961   15.5442 H   0  0  0  0  0  0  0  0  0  0  0  0
   12.2249    1.2198   24.6546 H   0  0  0  0  0  0  0  0  0  0  0  0
    3.9359    2.8964   19.8008 H   0  0  0  0  0  0  0  0  0  0  0  0
    9.8763    0.5350   24.3454 H   0  0  0  0  0  0  0  0  0  0  0  0
    5.7025    1.6162   15.3376 H   0  0  0  0  0  0  0  0  0  0  0  0
   14.0077    0.1988   23.2842 H   0  0  0  0  0  0  0  0  0  0  0  0
   11.0892   -2.3009   21.3624 H   0  0  0  0  0  0  0  0  0  0  0  0
    7.9460   -1.1744   18.3252 H   0  0  0  0  0  0  0  0  0  0  0  0
    8.7519   -2.2472   22.1528 H   0  0  0  0  0  0  0  0  0  0  0  0
    8.2467   -1.0628   23.3486 H   0  0  0  0  0  0  0  0  0  0  0  0
    6.8442   -1.6507   21.0103 H   0  0  0  0  0  0  0  0  0  0  0  0
  1  2  1  0  0  0  0
  1  4  2  0  0  0  0
  2  6  2  0  0  0  0
  3  5  2  0  0  0  0
  3  7  1  0  0  0  0
  4  9  1  0  0  0  0
  5 10  1  0  0  0  0
  6 11  1  0  0  0  0
  7 12  2  0  0  0  0
  8 10  2  0  0  0  0
  8 12  1  0  0  0  0
  9 11  2  0  0  0  0
  9 14  1  0  0  0  0
 10 16  1  0  0  0  0
 11 17  1  0  0  0  0
 12 22  1  0  0  0  0
 13 17  2  0  0  0  0
 13 18  1  0  0  0  0
 14 18  1  0  0  0  0
 14 20  2  0  0  0  0
 15 16  1  0  0  0  0
 15 19  1  0  0  0  0
 15 21  2  0  0  0  0
 18 19  1  0  0  0  0
  1 23  1  0  0  0  0
  2 24  1  0  0  0  0
  3 25  1  0  0  0  0
  4 26  1  0  0  0  0
  5 27  1  0  0  0  0
  6 28  1  0  0  0  0
  7 29  1  0  0  0  0
  8 30  1  0  0  0  0
 13 31  1  0  0  0  0
 16 32  1  0  0  0  0
 16 33  1  0  0  0  0
 19 34  1  0  0  0  0
M  END
> <compound>
JAN-GHE-5a013bed-3

> <compound_smiles>
c1ccc2c(c1)c(=O)n(cn2)NC(=O)Cc3cccc(c3)Cl

> <enantiomer_smiles>
c1ccc2c(c1)c(=O)n(cn2)NC(=O)Cc3cccc(c3)Cl

> <scaffold>
chlorobenzene-linker

> <canonical_CID>
JAN-GHE-5a013bed-3

> <r_inhibition_at_20_uM>

> <r_inhibition_at_50_uM>

> <r_avg_IC50>
99.0

> <f_inhibition_at_20_uM>

> <f_inhibition_at_50_uM>

> <f_avg_IC50>
8.64546417390745

> <f_avg_pIC50>

> <relative_solubility_at_20_uM>

> <relative_solubility_at_100_uM>

> <trypsin_IC50>
99.0

> <NMR_std_ratio>

> <acrylamide>
False

> <chloroacetamide>
False

> <series>
3-aminopyridine-like

> <frag_id>

> <clash_score>
1.886472106489562

> <docking_score>
-7.35718297958374

> <overlap_score>
0.899913489818573

> <MMFF_internal_energy>
66.96379624764171

> <docked_smiles>
c1ccc2c(c1)c(=O)n(cn2)NC(=O)Cc3cccc(c3)Cl

$$$$
BAR-COM-ebf5acce-1_1
  -OEChem-07262101013D

 42 44  0     0  0  0  0  0  0999 V2000
   11.9780    0.4600   23.9150 C   0  0  0  0  0  0  0  0  0  0  0  0
   10.6560    0.0720   23.7350 C   0  0  0  0  0  0  0  0  0  0  0  0
   12.9840   -0.1200   23.1530 C   0  0  0  0  0  0  0  0  0  0  0  0
    4.9858    1.7502   19.1326 C   0  0  0  0  0  0  0  0  0  0  0  0
   11.3360   -1.5050   22.0650 C   0  0  0  0  0  0  0  0  0  0  0  0
    5.4108    1.6225   17.8200 C   0  0  0  0  0  0  0  0  0  0  0  0
    6.9572    0.0193   18.3826 C   0  0  0  0  0  0  0  0  0  0  0  0
   10.3220   -0.8940   22.7910 C   0  0  0  0  0  0  0  0  0  0  0  0
    5.5993    0.9565   20.0954 C   0  0  0  0  0  0  0  0  0  0  0  0
    6.6048    0.0720   19.7216 C   0  0  0  0  0  0  0  0  0  0  0  0
   12.6400   -1.1000   22.2390 C   0  0  0  0  0  0  0  0  0  0  0  0
    8.3880   -0.3240   21.3070 C   0  0  0  0  0  0  0  0  0  0  0  0
    8.6975   -3.1930   19.8942 C   0  0  0  0  0  0  0  0  0  0  0  0
    8.0899   -4.2039   20.8268 C   0  0  0  0  0  0  0  0  0  0  0  0
    7.2239   -3.1478   20.1954 C   0  0  0  0  0  0  0  0  0  0  0  0
    5.1611    1.0741   21.5184 C   0  0  0  0  0  0  0  0  0  0  0  0
    8.8810   -1.1900   22.4510 C   0  0  0  0  0  0  0  0  0  0  0  0
    6.6646   -2.0415   21.0240 C   0  0  0  0  0  0  0  0  0  0  0  0
    6.3842    0.7745   17.4188 N   0  0  0  0  0  0  0  0  0  0  0  0
    7.2820   -0.7860   20.6970 N   0  0  0  0  0  0  0  0  0  0  0  0
    8.9170    0.7530   21.0260 O   0  0  0  0  0  0  0  0  0  0  0  0
    6.3523   -3.5883   19.1409 O   0  0  0  0  0  0  0  0  0  0  0  0
   13.8840   -1.8490   21.2740 Cl  0  0  0  0  0  0  0  0  0  0  0  0
   12.2249    1.2198   24.6546 H   0  0  0  0  0  0  0  0  0  0  0  0
    9.8763    0.5350   24.3454 H   0  0  0  0  0  0  0  0  0  0  0  0
   14.0077    0.1988   23.2842 H   0  0  0  0  0  0  0  0  0  0  0  0
    4.1987    2.4502   19.3914 H   0  0  0  0  0  0  0  0  0  0  0  0
   11.0892   -2.3009   21.3624 H   0  0  0  0  0  0  0  0  0  0  0  0
    4.9644    2.2191   17.0313 H   0  0  0  0  0  0  0  0  0  0  0  0
    7.7347   -0.6514   18.0288 H   0  0  0  0  0  0  0  0  0  0  0  0
    9.3381   -2.4334   20.3257 H   0  0  0  0  0  0  0  0  0  0  0  0
    9.0104   -3.5357   18.9153 H   0  0  0  0  0  0  0  0  0  0  0  0
    7.9964   -5.2235   20.4724 H   0  0  0  0  0  0  0  0  0  0  0  0
    8.3245   -4.1189   21.8810 H   0  0  0  0  0  0  0  0  0  0  0  0
    4.3460    0.3707   21.7242 H   0  0  0  0  0  0  0  0  0  0  0  0
    5.9885    0.8616   22.2067 H   0  0  0  0  0  0  0  0  0  0  0  0
    4.8118    2.0896   21.7429 H   0  0  0  0  0  0  0  0  0  0  0  0
    8.8006   -2.2403   22.1717 H   0  0  0  0  0  0  0  0  0  0  0  0
    8.2668   -1.0117   23.3332 H   0  0  0  0  0  0  0  0  0  0  0  0
    5.5825   -1.9680   20.8412 H   0  0  0  0  0  0  0  0  0  0  0  0
    6.8430   -2.2635   22.0864 H   0  0  0  0  0  0  0  0  0  0  0  0
    6.5962   -4.5062   18.9627 H   0  0  0  0  0  0  0  0  0  0  0  0
  1  2  2  0  0  0  0
  1  3  1  0  0  0  0
  2  8  1  0  0  0  0
  3 11  2  0  0  0  0
  4  6  2  0  0  0  0
  4  9  1  0  0  0  0
  5  8  2  0  0  0  0
  5 11  1  0  0  0  0
  6 19  1  0  0  0  0
  7 10  1  0  0  0  0
  7 19  2  0  0  0  0
  8 17  1  0  0  0  0
  9 10  2  0  0  0  0
  9 16  1  0  0  0  0
 10 20  1  0  0  0  0
 11 23  1  0  0  0  0
 12 17  1  0  0  0  0
 12 20  1  0  0  0  0
 12 21  2  0  0  0  0
 13 14  1  0  0  0  0
 13 15  1  0  0  0  0
 14 15  1  0  0  0  0
 15 18  1  0  0  0  0
 15 22  1  0  0  0  0
 18 20  1  0  0  0  0
  1 24  1  0  0  0  0
  2 25  1  0  0  0  0
  3 26  1  0  0  0  0
  4 27  1  0  0  0  0
  5 28  1  0  0  0  0
  6 29  1  0  0  0  0
  7 30  1  0  0  0  0
 13 31  1  0  0  0  0
 13 32  1  0  0  0  0
 14 33  1  0  0  0  0
 14 34  1  0  0  0  0
 16 35  1  0  0  0  0
 16 36  1  0  0  0  0
 16 37  1  0  0  0  0
 17 38  1  0  0  0  0
 17 39  1  0  0  0  0
 18 40  1  0  0  0  0
 18 41  1  0  0  0  0
 22 42  1  0  0  0  0
M  END
> <compound>
BAR-COM-ebf5acce-1

> <compound_smiles>
Cc1ccncc1N(CC2(CC2)O)C(=O)Cc3cccc(c3)Cl

> <enantiomer_smiles>
Cc1ccncc1N(CC2(CC2)O)C(=O)Cc3cccc(c3)Cl

> <scaffold>
chlorobenzene-linker

> <clash_score>
2.88086742927607

> <docking_score>
-6.468570232391357

> <overlap_score>
0.8692178726196289

> <MMFF_internal_energy>
118.78371284102553

> <docked_smiles>
Cc1ccncc1N(CC2(CC2)O)C(=O)Cc3cccc(c3)Cl

$$$$
JAN-GHE-5a013bed-5_1
  -OEChem-07262101013D

 25 26  0     0  0  0  0  0  0999 V2000
   11.9780    0.4600   23.9150 C   0  0  0  0  0  0  0  0  0  0  0  0
   10.6560    0.0720   23.7350 C   0  0  0  0  0  0  0  0  0  0  0  0
   12.9840   -0.1200   23.1530 C   0  0  0  0  0  0  0  0  0  0  0  0
   11.3360   -1.5050   22.0650 C   0  0  0  0  0  0  0  0  0  0  0  0
    5.6187    0.8087   19.6184 C   0  0  0  0  0  0  0  0  0  0  0  0
    6.8516   -0.3176   18.2326 C   0  0  0  0  0  0  0  0  0  0  0  0
   10.3220   -0.8940   22.7910 C   0  0  0  0  0  0  0  0  0  0  0  0
   12.6400   -1.1000   22.2390 C   0  0  0  0  0  0  0  0  0  0  0  0
    8.3880   -0.3240   21.3070 C   0  0  0  0  0  0  0  0  0  0  0  0
    8.8810   -1.1900   22.4510 C   0  0  0  0  0  0  0  0  0  0  0  0
    5.2723    1.1655   18.4022 N   0  0  0  0  0  0  0  0  0  0  0  0
    6.0567    0.4489   17.5205 N   0  0  0  0  0  0  0  0  0  0  0  0
    6.6099   -0.1233   19.5587 N   0  0  0  0  0  0  0  0  0  0  0  0
    7.2820   -0.7860   20.6970 N   0  0  0  0  0  0  0  0  0  0  0  0
    8.9170    0.7530   21.0260 O   0  0  0  0  0  0  0  0  0  0  0  0
   13.8840   -1.8490   21.2740 Cl  0  0  0  0  0  0  0  0  0  0  0  0
   12.2249    1.2198   24.6546 H   0  0  0  0  0  0  0  0  0  0  0  0
    9.8763    0.5350   24.3454 H   0  0  0  0  0  0  0  0  0  0  0  0
   14.0077    0.1988   23.2842 H   0  0  0  0  0  0  0  0  0  0  0  0
   11.0892   -2.3009   21.3624 H   0  0  0  0  0  0  0  0  0  0  0  0
    5.1986    1.1812   20.5420 H   0  0  0  0  0  0  0  0  0  0  0  0
    7.5936   -1.0052   17.8520 H   0  0  0  0  0  0  0  0  0  0  0  0
    8.2454   -1.0138   23.3201 H   0  0  0  0  0  0  0  0  0  0  0  0
    8.7729   -2.2397   22.1737 H   0  0  0  0  0  0  0  0  0  0  0  0
    6.8794   -1.6525   21.0431 H   0  0  0  0  0  0  0  0  0  0  0  0
  1  2  1  0  0  0  0
  1  3  2  0  0  0  0
  2  7  2  0  0  0  0
  3  8  1  0  0  0  0
  4  7  1  0  0  0  0
  4  8  2  0  0  0  0
  5 11  2  0  0  0  0
  5 13  1  0  0  0  0
  6 12  2  0  0  0  0
  6 13  1  0  0  0  0
  7 10  1  0  0  0  0
  8 16  1  0  0  0  0
  9 10  1  0  0  0  0
  9 14  1  0  0  0  0
  9 15  2  0  0  0  0
 11 12  1  0  0  0  0
 13 14  1  0  0  0  0
  1 17  1  0  0  0  0
  2 18  1  0  0  0  0
  3 19  1  0  0  0  0
  4 20  1  0  0  0  0
  5 21  1  0  0  0  0
  6 22  1  0  0  0  0
 10 23  1  0  0  0  0
 10 24  1  0  0  0  0
 14 25  1  0  0  0  0
M  END
> <compound>
JAN-GHE-5a013bed-5

> <compound_smiles>
c1cc(cc(c1)Cl)CC(=O)Nn2cnnc2

> <enantiomer_smiles>
c1cc(cc(c1)Cl)CC(=O)Nn2cnnc2

> <scaffold>
chlorobenzene-linker

> <clash_score>
0

> <docking_score>
-7.78122615814209

> <overlap_score>
0.7824838757514954

> <MMFF_internal_energy>
21.49005374905952

> <docked_smiles>
c1cc(cc(c1)Cl)CC(=O)Nn2cnnc2

$$$$
JAN-GHE-5a013bed-6_1
  -OEChem-07262101013D

 24 25  0     0  0  0  0  0  0999 V2000
   11.9780    0.4600   23.9150 C   0  0  0  0  0  0  0  0  0  0  0  0
   10.6560    0.0720   23.7350 C   0  0  0  0  0  0  0  0  0  0  0  0
   12.9840   -0.1200   23.1530 C   0  0  0  0  0  0  0  0  0  0  0  0
   11.3360   -1.5050   22.0650 C   0  0  0  0  0  0  0  0  0  0  0  0
    5.4645   -0.5596   18.8927 C   0  0  0  0  0  0  0  0  0  0  0  0
   10.3220   -0.8940   22.7910 C   0  0  0  0  0  0  0  0  0  0  0  0
   12.6400   -1.1000   22.2390 C   0  0  0  0  0  0  0  0  0  0  0  0
    6.5908   -0.2043   19.6076 C   0  0  0  0  0  0  0  0  0  0  0  0
    8.3880   -0.3240   21.3070 C   0  0  0  0  0  0  0  0  0  0  0  0
    8.8810   -1.1900   22.4510 C   0  0  0  0  0  0  0  0  0  0  0  0
    5.1084    0.3061   17.8707 N   0  0  0  0  0  0  0  0  0  0  0  0
    5.9457    1.3276   17.7859 N   0  0  0  0  0  0  0  0  0  0  0  0
    7.2820   -0.7860   20.6970 N   0  0  0  0  0  0  0  0  0  0  0  0
    8.9170    0.7530   21.0260 O   0  0  0  0  0  0  0  0  0  0  0  0
    7.1684    1.2622   18.9291 S   0  0  0  0  0  0  0  0  0  0  0  0
   13.8840   -1.8490   21.2740 Cl  0  0  0  0  0  0  0  0  0  0  0  0
   12.2249    1.2198   24.6546 H   0  0  0  0  0  0  0  0  0  0  0  0
    9.8763    0.5350   24.3454 H   0  0  0  0  0  0  0  0  0  0  0  0
   14.0077    0.1988   23.2842 H   0  0  0  0  0  0  0  0  0  0  0  0
   11.0892   -2.3009   21.3624 H   0  0  0  0  0  0  0  0  0  0  0  0
    4.8607   -1.4393   19.0702 H   0  0  0  0  0  0  0  0  0  0  0  0
    8.7709   -2.2387   22.1706 H   0  0  0  0  0  0  0  0  0  0  0  0
    8.2491   -1.0157   23.3232 H   0  0  0  0  0  0  0  0  0  0  0  0
    6.8973   -1.6552   21.0612 H   0  0  0  0  0  0  0  0  0  0  0  0
  1  2  1  0  0  0  0
  1  3  2  0  0  0  0
  2  6  2  0  0  0  0
  3  7  1  0  0  0  0
  4  6  1  0  0  0  0
  4  7  2  0  0  0  0
  5  8  2  0  0  0  0
  5 11  1  0  0  0  0
  6 10  1  0  0  0  0
  7 16  1  0  0  0  0
  8 13  1  0  0  0  0
  8 15  1  0  0  0  0
  9 10  1  0  0  0  0
  9 13  1  0  0  0  0
  9 14  2  0  0  0  0
 11 12  2  0  0  0  0
 12 15  1  0  0  0  0
  1 17  1  0  0  0  0
  2 18  1  0  0  0  0
  3 19  1  0  0  0  0
  4 20  1  0  0  0  0
  5 21  1  0  0  0  0
 10 22  1  0  0  0  0
 10 23  1  0  0  0  0
 13 24  1  0  0  0  0
M  END
> <compound>
JAN-GHE-5a013bed-6

> <compound_smiles>
c1cc(cc(c1)Cl)CC(=O)Nc2cnns2

> <enantiomer_smiles>
c1cc(cc(c1)Cl)CC(=O)Nc2cnns2

> <scaffold>
chlorobenzene-linker

> <clash_score>
0

> <docking_score>
-5.192023277282715

> <overlap_score>
0.7244004607200623

> <MMFF_internal_energy>
44.138874402152915

> <docked_smiles>
c1cc(cc(c1)Cl)CC(=O)Nc2cnns2

$$$$
JAN-GHE-83b26c96-23_1
  -OEChem-07262101013D

 31 32  0     0  0  0  0  0  0999 V2000
   11.9780    0.4600   23.9150 C   0  0  0  0  0  0  0  0  0  0  0  0
   10.6560    0.0720   23.7350 C   0  0  0  0  0  0  0  0  0  0  0  0
   12.9840   -0.1200   23.1530 C   0  0  0  0  0  0  0  0  0  0  0  0
    4.9083    1.2505   18.6946 C   0  0  0  0  0  0  0  0  0  0  0  0
   11.3360   -1.5050   22.0650 C   0  0  0  0  0  0  0  0  0  0  0  0
    5.3223    0.8493   17.4347 C   0  0  0  0  0  0  0  0  0  0  0  0
    6.9284   -0.5424   18.3075 C   0  0  0  0  0  0  0  0  0  0  0  0
   10.3220   -0.8940   22.7910 C   0  0  0  0  0  0  0  0  0  0  0  0
    5.5593    0.7079   19.7969 C   0  0  0  0  0  0  0  0  0  0  0  0
    6.5898   -0.2063   19.6084 C   0  0  0  0  0  0  0  0  0  0  0  0
   12.6400   -1.1000   22.2390 C   0  0  0  0  0  0  0  0  0  0  0  0
    8.3880   -0.3240   21.3070 C   0  0  0  0  0  0  0  0  0  0  0  0
    5.1338    1.1233   21.1670 C   0  0  0  0  0  0  0  0  0  0  0  0
    8.8810   -1.1900   22.4510 C   0  0  0  0  0  0  0  0  0  0  0  0
    6.3192   -0.0363   17.2119 N   0  0  0  0  0  0  0  0  0  0  0  0
    7.2820   -0.7860   20.6970 N   0  0  0  0  0  0  0  0  0  0  0  0
    8.9170    0.7530   21.0260 O   0  0  0  0  0  0  0  0  0  0  0  0
    8.0541   -0.9914   23.5369 F   0  0  0  0  0  0  0  0  0  0  0  0
    8.6843   -2.5219   22.1510 F   0  0  0  0  0  0  0  0  0  0  0  0
   13.8840   -1.8490   21.2740 Cl  0  0  0  0  0  0  0  0  0  0  0  0
   12.2249    1.2198   24.6546 H   0  0  0  0  0  0  0  0  0  0  0  0
    9.8763    0.5350   24.3454 H   0  0  0  0  0  0  0  0  0  0  0  0
   14.0077    0.1988   23.2842 H   0  0  0  0  0  0  0  0  0  0  0  0
    4.1010    1.9660   18.8075 H   0  0  0  0  0  0  0  0  0  0  0  0
   11.0892   -2.3009   21.3624 H   0  0  0  0  0  0  0  0  0  0  0  0
    4.8470    1.2431   16.5423 H   0  0  0  0  0  0  0  0  0  0  0  0
    7.7240   -1.2507   18.0957 H   0  0  0  0  0  0  0  0  0  0  0  0
    4.3453    0.4581   21.5378 H   0  0  0  0  0  0  0  0  0  0  0  0
    5.9756    1.0933   21.8696 H   0  0  0  0  0  0  0  0  0  0  0  0
    4.7529    2.1521   21.1688 H   0  0  0  0  0  0  0  0  0  0  0  0
    6.8878   -1.6541   21.0532 H   0  0  0  0  0  0  0  0  0  0  0  0
  1  2  2  0  0  0  0
  1  3  1  0  0  0  0
  2  8  1  0  0  0  0
  3 11  2  0  0  0  0
  4  6  2  0  0  0  0
  4  9  1  0  0  0  0
  5  8  2  0  0  0  0
  5 11  1  0  0  0  0
  6 15  1  0  0  0  0
  7 10  1  0  0  0  0
  7 15  2  0  0  0  0
  8 14  1  0  0  0  0
  9 10  2  0  0  0  0
  9 13  1  0  0  0  0
 10 16  1  0  0  0  0
 11 20  1  0  0  0  0
 12 14  1  0  0  0  0
 12 16  1  0  0  0  0
 12 17  2  0  0  0  0
 14 18  1  0  0  0  0
 14 19  1  0  0  0  0
  1 21  1  0  0  0  0
  2 22  1  0  0  0  0
  3 23  1  0  0  0  0
  4 24  1  0  0  0  0
  5 25  1  0  0  0  0
  6 26  1  0  0  0  0
  7 27  1  0  0  0  0
 13 28  1  0  0  0  0
 13 29  1  0  0  0  0
 13 30  1  0  0  0  0
 16 31  1  0  0  0  0
M  END
> <compound>
JAN-GHE-83b26c96-23

> <compound_smiles>
Cc1ccncc1NC(=O)C(c2cccc(c2)Cl)(F)F

> <enantiomer_smiles>
Cc1ccncc1NC(=O)C(c2cccc(c2)Cl)(F)F

> <scaffold>
chlorobenzene-linker

> <clash_score>
0

> <docking_score>
-10.635251998901367

> <overlap_score>
0.8843952417373657

> <MMFF_internal_energy>
144.27821725604957

> <docked_smiles>
Cc1ccncc1NC(=O)C(c2cccc(c2)Cl)(F)F

$$$$
BAR-COM-ebf5acce-14_1
  -OEChem-07262101013D

 44 46  0     0  0  0  0  0  0999 V2000
   11.9780    0.4600   23.9150 C   0  0  0  0  0  0  0  0  0  0  0  0
   10.6560    0.0720   23.7350 C   0  0  0  0  0  0  0  0  0  0  0  0
   12.9840   -0.1200   23.1530 C   0  0  0  0  0  0  0  0  0  0  0  0
    5.0590   -6.1874   21.2025 C   0  0  0  0  0  0  0  0  0  0  0  0
    5.4405    1.5746   18.4441 C   0  0  0  0  0  0  0  0  0  0  0  0
   11.3360   -1.5050   22.0650 C   0  0  0  0  0  0  0  0  0  0  0  0
    6.4123   -6.3047   21.5721 C   0  0  0  0  0  0  0  0  0  0  0  0
    4.4414    1.9527   19.3266 C   0  0  0  0  0  0  0  0  0  0  0  0
    5.2775    0.6063   20.9899 C   0  0  0  0  0  0  0  0  0  0  0  0
    4.8184   -4.8351   21.2052 C   0  0  0  0  0  0  0  0  0  0  0  0
   10.3220   -0.8940   22.7910 C   0  0  0  0  0  0  0  0  0  0  0  0
    6.3915    0.6633   18.8894 C   0  0  0  0  0  0  0  0  0  0  0  0
    6.3156    0.1650   20.1853 C   0  0  0  0  0  0  0  0  0  0  0  0
   12.6400   -1.1000   22.2390 C   0  0  0  0  0  0  0  0  0  0  0  0
    8.3880   -0.3240   21.3070 C   0  0  0  0  0  0  0  0  0  0  0  0
    7.4794    0.2378   17.9588 C   0  0  0  0  0  0  0  0  0  0  0  0
    8.8810   -1.1900   22.4510 C   0  0  0  0  0  0  0  0  0  0  0  0
    6.2423   -2.8154   21.7025 C   0  0  0  0  0  0  0  0  0  0  0  0
    7.0202   -2.2244   20.5317 C   0  0  0  0  0  0  0  0  0  0  0  0
    4.3350    1.4904   20.5925 N   0  0  0  0  0  0  0  0  0  0  0  0
    6.9909   -5.1214   21.7933 N   0  0  0  0  0  0  0  0  0  0  0  0
    5.9964   -4.2476   21.5620 N   0  0  0  0  0  0  0  0  0  0  0  0
    7.2820   -0.7860   20.6970 N   0  0  0  0  0  0  0  0  0  0  0  0
    8.9170    0.7530   21.0260 O   0  0  0  0  0  0  0  0  0  0  0  0
   13.8840   -1.8490   21.2740 Cl  0  0  0  0  0  0  0  0  0  0  0  0
   12.2249    1.2198   24.6546 H   0  0  0  0  0  0  0  0  0  0  0  0
    9.8763    0.5350   24.3454 H   0  0  0  0  0  0  0  0  0  0  0  0
   14.0077    0.1988   23.2842 H   0  0  0  0  0  0  0  0  0  0  0  0
    4.3568   -6.9733   20.9674 H   0  0  0  0  0  0  0  0  0  0  0  0
    5.4713    1.9820   17.4393 H   0  0  0  0  0  0  0  0  0  0  0  0
   11.0892   -2.3009   21.3624 H   0  0  0  0  0  0  0  0  0  0  0  0
    6.9997   -7.2042   21.6886 H   0  0  0  0  0  0  0  0  0  0  0  0
    3.6754    2.6608   19.0279 H   0  0  0  0  0  0  0  0  0  0  0  0
    5.1649    0.2542   22.0110 H   0  0  0  0  0  0  0  0  0  0  0  0
    3.9302   -4.2575   20.9894 H   0  0  0  0  0  0  0  0  0  0  0  0
    8.3437    0.9052   18.0544 H   0  0  0  0  0  0  0  0  0  0  0  0
    7.8045   -0.7880   18.1718 H   0  0  0  0  0  0  0  0  0  0  0  0
    7.1382    0.2546   16.9162 H   0  0  0  0  0  0  0  0  0  0  0  0
    8.7925   -2.2408   22.1686 H   0  0  0  0  0  0  0  0  0  0  0  0
    8.2587   -1.0122   23.3300 H   0  0  0  0  0  0  0  0  0  0  0  0
    6.8017   -2.6767   22.6355 H   0  0  0  0  0  0  0  0  0  0  0  0
    5.2741   -2.3162   21.8282 H   0  0  0  0  0  0  0  0  0  0  0  0
    7.9941   -2.7155   20.4437 H   0  0  0  0  0  0  0  0  0  0  0  0
    6.4832   -2.3540   19.5865 H   0  0  0  0  0  0  0  0  0  0  0  0
  1  2  2  0  0  0  0
  1  3  1  0  0  0  0
  2 11  1  0  0  0  0
  3 14  2  0  0  0  0
  4  7  1  0  0  0  0
  4 10  2  0  0  0  0
  5  8  2  0  0  0  0
  5 12  1  0  0  0  0
  6 11  2  0  0  0  0
  6 14  1  0  0  0  0
  7 21  2  0  0  0  0
  8 20  1  0  0  0  0
  9 13  1  0  0  0  0
  9 20  2  0  0  0  0
 10 22  1  0  0  0  0
 11 17  1  0  0  0  0
 12 13  2  0  0  0  0
 12 16  1  0  0  0  0
 13 23  1  0  0  0  0
 14 25  1  0  0  0  0
 15 17  1  0  0  0  0
 15 23  1  0  0  0  0
 15 24  2  0  0  0  0
 18 19  1  0  0  0  0
 18 22  1  0  0  0  0
 19 23  1  0  0  0  0
 21 22  1  0  0  0  0
  1 26  1  0  0  0  0
  2 27  1  0  0  0  0
  3 28  1  0  0  0  0
  4 29  1  0  0  0  0
  5 30  1  0  0  0  0
  6 31  1  0  0  0  0
  7 32  1  0  0  0  0
  8 33  1  0  0  0  0
  9 34  1  0  0  0  0
 10 35  1  0  0  0  0
 16 36  1  0  0  0  0
 16 37  1  0  0  0  0
 16 38  1  0  0  0  0
 17 39  1  0  0  0  0
 17 40  1  0  0  0  0
 18 41  1  0  0  0  0
 18 42  1  0  0  0  0
 19 43  1  0  0  0  0
 19 44  1  0  0  0  0
M  END
> <compound>
BAR-COM-ebf5acce-14

> <compound_smiles>
Cc1ccncc1N(CCn2cccn2)C(=O)Cc3cccc(c3)Cl

> <enantiomer_smiles>
Cc1ccncc1N(CCn2cccn2)C(=O)Cc3cccc(c3)Cl

> <scaffold>
chlorobenzene-linker

> <clash_score>
0

> <docking_score>
-4.596334934234619

> <overlap_score>
0.8685247302055359

> <MMFF_internal_energy>
101.84893020264235

> <docked_smiles>
Cc1ccncc1N(CCn2cccn2)C(=O)Cc3cccc(c3)Cl

$$$$
JAN-GHE-5a013bed-7_1
  -OEChem-07262101013D

 24 25  0     0  0  0  0  0  0999 V2000
   11.9780    0.4600   23.9150 C   0  0  0  0  0  0  0  0  0  0  0  0
   10.6560    0.0720   23.7350 C   0  0  0  0  0  0  0  0  0  0  0  0
   12.9840   -0.1200   23.1530 C   0  0  0  0  0  0  0  0  0  0  0  0
   11.3360   -1.5050   22.0650 C   0  0  0  0  0  0  0  0  0  0  0  0
    5.7918    1.3610   18.0262 C   0  0  0  0  0  0  0  0  0  0  0  0
   10.3220   -0.8940   22.7910 C   0  0  0  0  0  0  0  0  0  0  0  0
   12.6400   -1.1000   22.2390 C   0  0  0  0  0  0  0  0  0  0  0  0
    6.5418   -0.1622   19.6645 C   0  0  0  0  0  0  0  0  0  0  0  0
    8.3880   -0.3240   21.3070 C   0  0  0  0  0  0  0  0  0  0  0  0
    8.8810   -1.1900   22.4510 C   0  0  0  0  0  0  0  0  0  0  0  0
    5.0198    0.2973   18.0931 N   0  0  0  0  0  0  0  0  0  0  0  0
    5.4591   -0.5957   19.0548 N   0  0  0  0  0  0  0  0  0  0  0  0
    7.2820   -0.7860   20.6970 N   0  0  0  0  0  0  0  0  0  0  0  0
    8.9170    0.7530   21.0260 O   0  0  0  0  0  0  0  0  0  0  0  0
    7.1118    1.3614   19.1213 S   0  0  0  0  0  0  0  0  0  0  0  0
   13.8840   -1.8490   21.2740 Cl  0  0  0  0  0  0  0  0  0  0  0  0
   12.2249    1.2198   24.6546 H   0  0  0  0  0  0  0  0  0  0  0  0
    9.8763    0.5350   24.3454 H   0  0  0  0  0  0  0  0  0  0  0  0
   14.0077    0.1988   23.2842 H   0  0  0  0  0  0  0  0  0  0  0  0
   11.0892   -2.3009   21.3624 H   0  0  0  0  0  0  0  0  0  0  0  0
    5.6104    2.1721   17.3352 H   0  0  0  0  0  0  0  0  0  0  0  0
    8.7709   -2.2387   22.1706 H   0  0  0  0  0  0  0  0  0  0  0  0
    8.2491   -1.0157   23.3232 H   0  0  0  0  0  0  0  0  0  0  0  0
    6.9372   -1.6894   21.0149 H   0  0  0  0  0  0  0  0  0  0  0  0
  1  2  1  0  0  0  0
  1  3  2  0  0  0  0
  2  6  2  0  0  0  0
  3  7  1  0  0  0  0
  4  6  1  0  0  0  0
  4  7  2  0  0  0  0
  5 11  2  0  0  0  0
  5 15  1  0  0  0  0
  6 10  1  0  0  0  0
  7 16  1  0  0  0  0
  8 12  2  0  0  0  0
  8 13  1  0  0  0  0
  8 15  1  0  0  0  0
  9 10  1  0  0  0  0
  9 13  1  0  0  0  0
  9 14  2  0  0  0  0
 11 12  1  0  0  0  0
  1 17  1  0  0  0  0
  2 18  1  0  0  0  0
  3 19  1  0  0  0  0
  4 20  1  0  0  0  0
  5 21  1  0  0  0  0
 10 22  1  0  0  0  0
 10 23  1  0  0  0  0
 13 24  1  0  0  0  0
M  END
> <compound>
JAN-GHE-5a013bed-7

> <compound_smiles>
c1cc(cc(c1)Cl)CC(=O)Nc2nncs2

> <enantiomer_smiles>
c1cc(cc(c1)Cl)CC(=O)Nc2nncs2

> <scaffold>
chlorobenzene-linker

> <clash_score>
0

> <docking_score>
-5.639631748199463

> <overlap_score>
0.7264701128005981

> <MMFF_internal_energy>
12.055425858875592

> <docked_smiles>
c1cc(cc(c1)Cl)CC(=O)Nc2nncs2

$$$$
TRY-UNI-9f475305-3_2
  -OEChem-07262101013D

 39 41  0     1  0  0  0  0  0999 V2000
   11.9780    0.4600   23.9150 C   0  0  0  0  0  0  0  0  0  0  0  0
   10.6560    0.0720   23.7350 C   0  0  0  0  0  0  0  0  0  0  0  0
   12.9840   -0.1200   23.1530 C   0  0  0  0  0  0  0  0  0  0  0  0
    4.6246    0.7593   18.6120 C   0  0  0  0  0  0  0  0  0  0  0  0
   11.3360   -1.5050   22.0650 C   0  0  0  0  0  0  0  0  0  0  0  0
    5.3534    0.9027   17.4423 C   0  0  0  0  0  0  0  0  0  0  0  0
    7.2306   -0.0190   18.3934 C   0  0  0  0  0  0  0  0  0  0  0  0
   10.3220   -0.8940   22.7910 C   0  0  0  0  0  0  0  0  0  0  0  0
    5.2620    0.1939   19.7107 C   0  0  0  0  0  0  0  0  0  0  0  0
    6.5899   -0.2054   19.6077 C   0  0  0  0  0  0  0  0  0  0  0  0
   12.6400   -1.1000   22.2390 C   0  0  0  0  0  0  0  0  0  0  0  0
    8.0714   -4.9634   22.3776 C   0  0  0  0  0  0  0  0  0  0  0  0
    8.5856   -2.6677   22.1983 C   0  0  0  0  0  0  0  0  0  0  0  0
    8.3880   -0.3240   21.3070 C   0  0  0  0  0  0  0  0  0  0  0  0
    4.5002    0.0280   20.9847 C   0  0  0  0  0  0  0  0  0  0  0  0
    7.7169   -6.3247   22.8277 C   0  0  0  0  0  0  0  0  0  0  0  0
    8.8810   -1.1900   22.4510 C   0  0  2  0  0  0  0  0  0  0  0  0
    6.6446    0.5267   17.3042 N   0  0  0  0  0  0  0  0  0  0  0  0
    8.3232   -4.6157   21.1336 N   0  0  0  0  0  0  0  0  0  0  0  0
    8.6258   -3.2694   21.0285 N   0  0  0  0  0  0  0  0  0  0  0  0
    7.2820   -0.7860   20.6970 N   0  0  0  0  0  0  0  0  0  0  0  0
    8.9170    0.7530   21.0260 O   0  0  0  0  0  0  0  0  0  0  0  0
    8.1790   -3.6859   23.5171 S   0  0  0  0  0  0  0  0  0  0  0  0
   13.8840   -1.8490   21.2740 Cl  0  0  0  0  0  0  0  0  0  0  0  0
   12.2249    1.2198   24.6546 H   0  0  0  0  0  0  0  0  0  0  0  0
    9.8763    0.5350   24.3454 H   0  0  0  0  0  0  0  0  0  0  0  0
   14.0077    0.1988   23.2842 H   0  0  0  0  0  0  0  0  0  0  0  0
    3.5899    1.0814   18.6595 H   0  0  0  0  0  0  0  0  0  0  0  0
   11.0892   -2.3009   21.3624 H   0  0  0  0  0  0  0  0  0  0  0  0
    4.9023    1.3382   16.5567 H   0  0  0  0  0  0  0  0  0  0  0  0
    8.2669   -0.3108   18.2506 H   0  0  0  0  0  0  0  0  0  0  0  0
    4.0018   -0.9480   21.0048 H   0  0  0  0  0  0  0  0  0  0  0  0
    5.1636    0.0999   21.8553 H   0  0  0  0  0  0  0  0  0  0  0  0
    3.7403    0.8113   21.0967 H   0  0  0  0  0  0  0  0  0  0  0  0
    8.6178   -6.9024   23.0908 H   0  0  0  0  0  0  0  0  0  0  0  0
    7.0580   -6.3087   23.7122 H   0  0  0  0  0  0  0  0  0  0  0  0
    7.1719   -6.8875   22.0510 H   0  0  0  0  0  0  0  0  0  0  0  0
    8.2658   -0.9007   23.3207 H   0  0  0  0  0  0  0  0  0  0  0  0
    6.8785   -1.6495   21.0540 H   0  0  0  0  0  0  0  0  0  0  0  0
  1  2  2  0  0  0  0
  1  3  1  0  0  0  0
  2  8  1  0  0  0  0
  3 11  2  0  0  0  0
  4  6  2  0  0  0  0
  4  9  1  0  0  0  0
  5  8  2  0  0  0  0
  5 11  1  0  0  0  0
  6 18  1  0  0  0  0
  7 10  1  0  0  0  0
  7 18  2  0  0  0  0
  8 17  1  0  0  0  0
  9 10  2  0  0  0  0
  9 15  1  0  0  0  0
 10 21  1  0  0  0  0
 11 24  1  0  0  0  0
 12 16  1  0  0  0  0
 12 19  2  0  0  0  0
 12 23  1  0  0  0  0
 13 17  1  0  0  0  0
 13 20  2  0  0  0  0
 13 23  1  0  0  0  0
 14 17  1  6  0  0  0
 14 21  1  0  0  0  0
 14 22  2  0  0  0  0
 19 20  1  0  0  0  0
  1 25  1  0  0  0  0
  2 26  1  0  0  0  0
  3 27  1  0  0  0  0
  4 28  1  0  0  0  0
  5 29  1  0  0  0  0
  6 30  1  0  0  0  0
  7 31  1  0  0  0  0
 15 32  1  0  0  0  0
 15 33  1  0  0  0  0
 15 34  1  0  0  0  0
 16 35  1  0  0  0  0
 16 36  1  0  0  0  0
 16 37  1  0  0  0  0
 17 38  1  0  0  0  0
 21 39  1  0  0  0  0
M  END
> <compound>
TRY-UNI-9f475305-3

> <compound_smiles>
Cc1ccncc1NC(=O)C(c2cccc(c2)Cl)c3nnc(s3)C

> <enantiomer_smiles>
Cc1ccncc1NC(=O)[C@H](c2cccc(c2)Cl)c3nnc(s3)C

> <scaffold>
chlorobenzene-linker

> <clash_score>
0

> <docking_score>
-5.923114776611328

> <overlap_score>
0.8394880890846252

> <MMFF_internal_energy>
97.22623311665883

> <docked_smiles>
Cc1ccncc1NC(=O)[C@H](c2cccc(c2)Cl)c3nnc(s3)C

$$$$
EDG-MED-0da5ad92-10_1
  -OEChem-07262101013D

 37 38  0     0  0  0  0  0  0999 V2000
   11.9780    0.4600   23.9150 C   0  0  0  0  0  0  0  0  0  0  0  0
   10.6560    0.0720   23.7350 C   0  0  0  0  0  0  0  0  0  0  0  0
   12.9840   -0.1200   23.1530 C   0  0  0  0  0  0  0  0  0  0  0  0
    4.9143    1.2580   18.6936 C   0  0  0  0  0  0  0  0  0  0  0  0
   11.3360   -1.5050   22.0650 C   0  0  0  0  0  0  0  0  0  0  0  0
    5.3173    0.8445   17.4341 C   0  0  0  0  0  0  0  0  0  0  0  0
    6.9161   -0.5554   18.3072 C   0  0  0  0  0  0  0  0  0  0  0  0
   10.3220   -0.8940   22.7910 C   0  0  0  0  0  0  0  0  0  0  0  0
    5.5669    0.7174   19.7959 C   0  0  0  0  0  0  0  0  0  0  0  0
    6.5881   -0.2073   19.6076 C   0  0  0  0  0  0  0  0  0  0  0  0
   12.6400   -1.1000   22.2390 C   0  0  0  0  0  0  0  0  0  0  0  0
    8.3880   -0.3240   21.3070 C   0  0  0  0  0  0  0  0  0  0  0  0
    5.1531    1.1459   21.1655 C   0  0  0  0  0  0  0  0  0  0  0  0
    8.7851   -2.6925   22.0505 C   0  0  0  0  0  0  0  0  0  0  0  0
    7.8868   -1.0071   23.6371 C   0  0  0  0  0  0  0  0  0  0  0  0
    8.8810   -1.1900   22.4510 C   0  0  0  0  0  0  0  0  0  0  0  0
    6.3049   -0.0515   17.2117 N   0  0  0  0  0  0  0  0  0  0  0  0
    7.2820   -0.7860   20.6970 N   0  0  0  0  0  0  0  0  0  0  0  0
    8.9170    0.7530   21.0260 O   0  0  0  0  0  0  0  0  0  0  0  0
   13.8840   -1.8490   21.2740 Cl  0  0  0  0  0  0  0  0  0  0  0  0
   12.2249    1.2198   24.6546 H   0  0  0  0  0  0  0  0  0  0  0  0
    9.8763    0.5350   24.3454 H   0  0  0  0  0  0  0  0  0  0  0  0
   14.0077    0.1988   23.2842 H   0  0  0  0  0  0  0  0  0  0  0  0
    4.1139    1.9815   18.8062 H   0  0  0  0  0  0  0  0  0  0  0  0
   11.0892   -2.3009   21.3624 H   0  0  0  0  0  0  0  0  0  0  0  0
    4.8402    1.2364   16.5418 H   0  0  0  0  0  0  0  0  0  0  0  0
    7.7041   -1.2721   18.0957 H   0  0  0  0  0  0  0  0  0  0  0  0
    4.3610    0.4903   21.5454 H   0  0  0  0  0  0  0  0  0  0  0  0
    5.9988    1.1132   21.8634 H   0  0  0  0  0  0  0  0  0  0  0  0
    4.7813    2.1781   21.1623 H   0  0  0  0  0  0  0  0  0  0  0  0
    7.7562   -2.9760   21.7988 H   0  0  0  0  0  0  0  0  0  0  0  0
    9.1239   -3.3622   22.8498 H   0  0  0  0  0  0  0  0  0  0  0  0
    9.4121   -2.8991   21.1748 H   0  0  0  0  0  0  0  0  0  0  0  0
    6.8529   -1.2397   23.3585 H   0  0  0  0  0  0  0  0  0  0  0  0
    7.9045    0.0237   24.0100 H   0  0  0  0  0  0  0  0  0  0  0  0
    8.1455   -1.6627   24.4776 H   0  0  0  0  0  0  0  0  0  0  0  0
    6.8755   -1.6471   21.0548 H   0  0  0  0  0  0  0  0  0  0  0  0
  1  2  2  0  0  0  0
  1  3  1  0  0  0  0
  2  8  1  0  0  0  0
  3 11  2  0  0  0  0
  4  6  2  0  0  0  0
  4  9  1  0  0  0  0
  5  8  2  0  0  0  0
  5 11  1  0  0  0  0
  6 17  1  0  0  0  0
  7 10  1  0  0  0  0
  7 17  2  0  0  0  0
  8 16  1  0  0  0  0
  9 10  2  0  0  0  0
  9 13  1  0  0  0  0
 10 18  1  0  0  0  0
 11 20  1  0  0  0  0
 12 16  1  0  0  0  0
 12 18  1  0  0  0  0
 12 19  2  0  0  0  0
 14 16  1  0  0  0  0
 15 16  1  0  0  0  0
  1 21  1  0  0  0  0
  2 22  1  0  0  0  0
  3 23  1  0  0  0  0
  4 24  1  0  0  0  0
  5 25  1  0  0  0  0
  6 26  1  0  0  0  0
  7 27  1  0  0  0  0
 13 28  1  0  0  0  0
 13 29  1  0  0  0  0
 13 30  1  0  0  0  0
 14 31  1  0  0  0  0
 14 32  1  0  0  0  0
 14 33  1  0  0  0  0
 15 34  1  0  0  0  0
 15 35  1  0  0  0  0
 15 36  1  0  0  0  0
 18 37  1  0  0  0  0
M  END
> <compound>
EDG-MED-0da5ad92-10

> <compound_smiles>
Cc1ccncc1NC(=O)C(C)(C)c2cccc(c2)Cl

> <enantiomer_smiles>
Cc1ccncc1NC(=O)C(C)(C)c2cccc(c2)Cl

> <scaffold>
chlorobenzene-linker

> <clash_score>
0

> <docking_score>
-10.27585506439209

> <overlap_score>
0.8779082298278809

> <MMFF_internal_energy>
102.19149644894031

> <docked_smiles>
Cc1ccncc1NC(=O)C(C)(C)c2cccc(c2)Cl

$$$$
JAN-GHE-5a013bed-4_1
  -OEChem-07262101013D

 26 27  0     0  0  0  0  0  0999 V2000
   11.9780    0.4600   23.9150 C   0  0  0  0  0  0  0  0  0  0  0  0
   10.6560    0.0720   23.7350 C   0  0  0  0  0  0  0  0  0  0  0  0
   12.9840   -0.1200   23.1530 C   0  0  0  0  0  0  0  0  0  0  0  0
   11.3360   -1.5050   22.0650 C   0  0  0  0  0  0  0  0  0  0  0  0
   10.3220   -0.8940   22.7910 C   0  0  0  0  0  0  0  0  0  0  0  0
   12.6400   -1.1000   22.2390 C   0  0  0  0  0  0  0  0  0  0  0  0
    7.0597   -0.2187   18.3445 C   0  0  0  0  0  0  0  0  0  0  0  0
    5.8096    0.9224   19.7348 C   0  0  0  0  0  0  0  0  0  0  0  0
    8.3880   -0.3240   21.3070 C   0  0  0  0  0  0  0  0  0  0  0  0
    8.8810   -1.1900   22.4510 C   0  0  0  0  0  0  0  0  0  0  0  0
    6.4157    0.5803   17.5543 N   0  0  0  0  0  0  0  0  0  0  0  0
    5.6158    1.3172   18.3960 N   0  0  0  0  0  0  0  0  0  0  0  0
    6.7517   -0.0709   19.6425 N   0  0  0  0  0  0  0  0  0  0  0  0
    7.2820   -0.7860   20.6970 N   0  0  0  0  0  0  0  0  0  0  0  0
    5.2564    1.3736   20.7252 O   0  0  0  0  0  0  0  0  0  0  0  0
    8.9170    0.7530   21.0260 O   0  0  0  0  0  0  0  0  0  0  0  0
   13.8840   -1.8490   21.2740 Cl  0  0  0  0  0  0  0  0  0  0  0  0
   12.2249    1.2198   24.6546 H   0  0  0  0  0  0  0  0  0  0  0  0
    9.8763    0.5350   24.3454 H   0  0  0  0  0  0  0  0  0  0  0  0
   14.0077    0.1988   23.2842 H   0  0  0  0  0  0  0  0  0  0  0  0
   11.0892   -2.3009   21.3624 H   0  0  0  0  0  0  0  0  0  0  0  0
    7.8024   -0.9707   18.0495 H   0  0  0  0  0  0  0  0  0  0  0  0
    8.7467   -2.2475   22.1509 H   0  0  0  0  0  0  0  0  0  0  0  0
    8.2414   -1.0632   23.3466 H   0  0  0  0  0  0  0  0  0  0  0  0
    4.9769    2.0423   18.0957 H   0  0  0  0  0  0  0  0  0  0  0  0
    6.8440   -1.6474   21.0075 H   0  0  0  0  0  0  0  0  0  0  0  0
  1  2  1  0  0  0  0
  1  3  2  0  0  0  0
  2  5  2  0  0  0  0
  3  6  1  0  0  0  0
  4  5  1  0  0  0  0
  4  6  2  0  0  0  0
  5 10  1  0  0  0  0
  6 17  1  0  0  0  0
  7 11  2  0  0  0  0
  7 13  1  0  0  0  0
  8 12  1  0  0  0  0
  8 13  1  0  0  0  0
  8 15  2  0  0  0  0
  9 10  1  0  0  0  0
  9 14  1  0  0  0  0
  9 16  2  0  0  0  0
 11 12  1  0  0  0  0
 13 14  1  0  0  0  0
  1 18  1  0  0  0  0
  2 19  1  0  0  0  0
  3 20  1  0  0  0  0
  4 21  1  0  0  0  0
  7 22  1  0  0  0  0
 10 23  1  0  0  0  0
 10 24  1  0  0  0  0
 12 25  1  0  0  0  0
 14 26  1  0  0  0  0
M  END
> <compound>
JAN-GHE-5a013bed-4

> <compound_smiles>
c1cc(cc(c1)Cl)CC(=O)Nn2cn[nH]c2=O

> <enantiomer_smiles>
c1cc(cc(c1)Cl)CC(=O)Nn2cn[nH]c2=O

> <scaffold>
chlorobenzene-linker

> <clash_score>
0

> <docking_score>
-7.846672534942627

> <overlap_score>
0.8230039477348328

> <MMFF_internal_energy>
69.25759865784451

> <docked_smiles>
c1cc(cc(c1)Cl)CC(=O)Nn2cn[nH]c2=O

$$$$
EDG-MED-0da5ad92-2_1
  -OEChem-07262101013D

 28 29  0     0  0  0  0  0  0999 V2000
   11.9780    0.4600   23.9150 C   0  0  0  0  0  0  0  0  0  0  0  0
    4.6067    0.7488   18.6383 C   0  0  0  0  0  0  0  0  0  0  0  0
   10.6560    0.0720   23.7350 C   0  0  0  0  0  0  0  0  0  0  0  0
    5.2596    0.1795   19.7259 C   0  0  0  0  0  0  0  0  0  0  0  0
   12.9840   -0.1200   23.1530 C   0  0  0  0  0  0  0  0  0  0  0  0
   11.3360   -1.5050   22.0650 C   0  0  0  0  0  0  0  0  0  0  0  0
    5.3238    0.9114   17.4639 C   0  0  0  0  0  0  0  0  0  0  0  0
    7.2190    0.0008   18.3898 C   0  0  0  0  0  0  0  0  0  0  0  0
   10.3220   -0.8940   22.7910 C   0  0  0  0  0  0  0  0  0  0  0  0
    6.5908   -0.2043   19.6076 C   0  0  0  0  0  0  0  0  0  0  0  0
   12.6400   -1.1000   22.2390 C   0  0  0  0  0  0  0  0  0  0  0  0
    8.3880   -0.3240   21.3070 C   0  0  0  0  0  0  0  0  0  0  0  0
    8.8810   -1.1900   22.4510 C   0  0  0  0  0  0  0  0  0  0  0  0
    6.6177    0.5508   17.3110 N   0  0  0  0  0  0  0  0  0  0  0  0
    7.2820   -0.7860   20.6970 N   0  0  0  0  0  0  0  0  0  0  0  0
    8.9170    0.7530   21.0260 O   0  0  0  0  0  0  0  0  0  0  0  0
   13.8840   -1.8490   21.2740 Cl  0  0  0  0  0  0  0  0  0  0  0  0
   12.2249    1.2198   24.6546 H   0  0  0  0  0  0  0  0  0  0  0  0
    3.5693    1.0554   18.7078 H   0  0  0  0  0  0  0  0  0  0  0  0
    9.8763    0.5350   24.3454 H   0  0  0  0  0  0  0  0  0  0  0  0
    4.7222    0.0397   20.6602 H   0  0  0  0  0  0  0  0  0  0  0  0
   14.0077    0.1988   23.2842 H   0  0  0  0  0  0  0  0  0  0  0  0
   11.0892   -2.3009   21.3624 H   0  0  0  0  0  0  0  0  0  0  0  0
    4.8601    1.3513   16.5871 H   0  0  0  0  0  0  0  0  0  0  0  0
    8.2571   -0.2783   18.2360 H   0  0  0  0  0  0  0  0  0  0  0  0
    8.7709   -2.2387   22.1706 H   0  0  0  0  0  0  0  0  0  0  0  0
    8.2491   -1.0157   23.3232 H   0  0  0  0  0  0  0  0  0  0  0  0
    6.8973   -1.6552   21.0612 H   0  0  0  0  0  0  0  0  0  0  0  0
  1  3  1  0  0  0  0
  1  5  2  0  0  0  0
  2  4  2  0  0  0  0
  2  7  1  0  0  0  0
  3  9  2  0  0  0  0
  4 10  1  0  0  0  0
  5 11  1  0  0  0  0
  6  9  1  0  0  0  0
  6 11  2  0  0  0  0
  7 14  2  0  0  0  0
  8 10  2  0  0  0  0
  8 14  1  0  0  0  0
  9 13  1  0  0  0  0
 10 15  1  0  0  0  0
 11 17  1  0  0  0  0
 12 13  1  0  0  0  0
 12 15  1  0  0  0  0
 12 16  2  0  0  0  0
  1 18  1  0  0  0  0
  2 19  1  0  0  0  0
  3 20  1  0  0  0  0
  4 21  1  0  0  0  0
  5 22  1  0  0  0  0
  6 23  1  0  0  0  0
  7 24  1  0  0  0  0
  8 25  1  0  0  0  0
 13 26  1  0  0  0  0
 13 27  1  0  0  0  0
 15 28  1  0  0  0  0
M  END
> <compound>
EDG-MED-0da5ad92-2

> <compound_smiles>
c1cc(cc(c1)Cl)CC(=O)Nc2cccnc2

> <enantiomer_smiles>
c1cc(cc(c1)Cl)CC(=O)Nc2cccnc2

> <scaffold>
chlorobenzene-linker

> <canonical_CID>
EDG-MED-0da5ad92-2

> <r_inhibition_at_20_uM>

> <r_inhibition_at_50_uM>

> <r_avg_IC50>
99.0

> <f_inhibition_at_20_uM>

> <f_inhibition_at_50_uM>

> <f_avg_IC50>
53.717306778232

> <f_avg_pIC50>

> <relative_solubility_at_20_uM>

> <relative_solubility_at_100_uM>

> <trypsin_IC50>
99.0

> <NMR_std_ratio>

> <acrylamide>
False

> <chloroacetamide>
False

> <series>
3-aminopyridine-like

> <frag_id>
x10201

> <clash_score>
0

> <docking_score>
-9.220608711242676

> <overlap_score>
0.8013865947723389

> <MMFF_internal_energy>
68.05869487606232

> <docked_smiles>
c1cc(cc(c1)Cl)CC(=O)Nc2cccnc2

$$$$
JAN-GHE-d851b096-1_1
  -OEChem-07262101013D

 39 40  0     0  0  0  0  0  0999 V2000
   11.9780    0.4600   23.9150 C   0  0  0  0  0  0  0  0  0  0  0  0
   10.6560    0.0720   23.7350 C   0  0  0  0  0  0  0  0  0  0  0  0
   12.9840   -0.1200   23.1530 C   0  0  0  0  0  0  0  0  0  0  0  0
    5.1636    1.5431   18.6841 C   0  0  0  0  0  0  0  0  0  0  0  0
   11.3360   -1.5050   22.0650 C   0  0  0  0  0  0  0  0  0  0  0  0
    5.6237    1.1906   17.4255 C   0  0  0  0  0  0  0  0  0  0  0  0
    7.0779   -0.3617   18.2937 C   0  0  0  0  0  0  0  0  0  0  0  0
   10.3220   -0.8940   22.7910 C   0  0  0  0  0  0  0  0  0  0  0  0
    5.7101    0.8900   19.7832 C   0  0  0  0  0  0  0  0  0  0  0  0
    6.6861   -0.0818   19.5930 C   0  0  0  0  0  0  0  0  0  0  0  0
   12.6400   -1.1000   22.2390 C   0  0  0  0  0  0  0  0  0  0  0  0
    4.6941   -3.9120   22.0335 C   0  0  0  0  0  0  0  0  0  0  0  0
    5.5499   -4.0289   21.0139 C   0  0  0  0  0  0  0  0  0  0  0  0
    6.0555   -2.8191   20.3140 C   0  0  0  0  0  0  0  0  0  0  0  0
    8.3880   -0.3240   21.3070 C   0  0  0  0  0  0  0  0  0  0  0  0
    5.2329    1.2506   21.1518 C   0  0  0  0  0  0  0  0  0  0  0  0
    8.8810   -1.1900   22.4510 C   0  0  0  0  0  0  0  0  0  0  0  0
    6.5701    0.2517   17.2012 N   0  0  0  0  0  0  0  0  0  0  0  0
    6.7348   -1.9795   21.1802 N   0  0  0  0  0  0  0  0  0  0  0  0
    7.2820   -0.7860   20.6970 N   0  0  0  0  0  0  0  0  0  0  0  0
    5.8737   -2.6212   19.1171 O   0  0  0  0  0  0  0  0  0  0  0  0
    8.9170    0.7530   21.0260 O   0  0  0  0  0  0  0  0  0  0  0  0
   13.8840   -1.8490   21.2740 Cl  0  0  0  0  0  0  0  0  0  0  0  0
   12.2249    1.2198   24.6546 H   0  0  0  0  0  0  0  0  0  0  0  0
    9.8763    0.5350   24.3454 H   0  0  0  0  0  0  0  0  0  0  0  0
   14.0077    0.1988   23.2842 H   0  0  0  0  0  0  0  0  0  0  0  0
    4.4010    2.3059   18.7983 H   0  0  0  0  0  0  0  0  0  0  0  0
   11.0892   -2.3009   21.3624 H   0  0  0  0  0  0  0  0  0  0  0  0
    5.2297    1.6706   16.5357 H   0  0  0  0  0  0  0  0  0  0  0  0
    7.8352   -1.1104   18.0807 H   0  0  0  0  0  0  0  0  0  0  0  0
    4.3291   -4.7996   22.5396 H   0  0  0  0  0  0  0  0  0  0  0  0
    4.3369   -2.9521   22.3893 H   0  0  0  0  0  0  0  0  0  0  0  0
    5.8833   -5.0079   20.6875 H   0  0  0  0  0  0  0  0  0  0  0  0
    4.3809    0.6218   21.4349 H   0  0  0  0  0  0  0  0  0  0  0  0
    6.0277    1.1185   21.8962 H   0  0  0  0  0  0  0  0  0  0  0  0
    4.9227    2.3019   21.1991 H   0  0  0  0  0  0  0  0  0  0  0  0
    8.7928   -2.2433   22.1818 H   0  0  0  0  0  0  0  0  0  0  0  0
    8.2712   -1.0113   23.3369 H   0  0  0  0  0  0  0  0  0  0  0  0
    6.8351   -2.2282   22.1595 H   0  0  0  0  0  0  0  0  0  0  0  0
  1  2  2  0  0  0  0
  1  3  1  0  0  0  0
  2  8  1  0  0  0  0
  3 11  2  0  0  0  0
  4  6  2  0  0  0  0
  4  9  1  0  0  0  0
  5  8  2  0  0  0  0
  5 11  1  0  0  0  0
  6 18  1  0  0  0  0
  7 10  1  0  0  0  0
  7 18  2  0  0  0  0
  8 17  1  0  0  0  0
  9 10  2  0  0  0  0
  9 16  1  0  0  0  0
 10 20  1  0  0  0  0
 11 23  1  0  0  0  0
 12 13  2  0  0  0  0
 13 14  1  0  0  0  0
 14 19  1  0  0  0  0
 14 21  2  0  0  0  0
 15 17  1  0  0  0  0
 15 20  1  0  0  0  0
 15 22  2  0  0  0  0
 19 20  1  0  0  0  0
  1 24  1  0  0  0  0
  2 25  1  0  0  0  0
  3 26  1  0  0  0  0
  4 27  1  0  0  0  0
  5 28  1  0  0  0  0
  6 29  1  0  0  0  0
  7 30  1  0  0  0  0
 12 31  1  0  0  0  0
 12 32  1  0  0  0  0
 13 33  1  0  0  0  0
 16 34  1  0  0  0  0
 16 35  1  0  0  0  0
 16 36  1  0  0  0  0
 17 37  1  0  0  0  0
 17 38  1  0  0  0  0
 19 39  1  0  0  0  0
M  END
> <compound>
JAN-GHE-d851b096-1

> <compound_smiles>
Cc1ccncc1N(C(=O)Cc2cccc(c2)Cl)NC(=O)C=C

> <enantiomer_smiles>
Cc1ccncc1N(C(=O)Cc2cccc(c2)Cl)NC(=O)C=C

> <scaffold>
chlorobenzene-linker

> <clash_score>
0.621656212886397

> <docking_score>
-8.927578926086426

> <overlap_score>
0.8663774132728577

> <MMFF_internal_energy>
130.37660777625402

> <docked_smiles>
Cc1ccncc1N(C(=O)Cc2cccc(c2)Cl)NC(=O)C=C

$$$$
TRY-UNI-9f475305-3_1
  -OEChem-07262101013D

 39 41  0     1  0  0  0  0  0999 V2000
   11.9780    0.4600   23.9150 C   0  0  0  0  0  0  0  0  0  0  0  0
   10.6560    0.0720   23.7350 C   0  0  0  0  0  0  0  0  0  0  0  0
   12.9840   -0.1200   23.1530 C   0  0  0  0  0  0  0  0  0  0  0  0
    4.9158    1.2597   18.6937 C   0  0  0  0  0  0  0  0  0  0  0  0
   11.3360   -1.5050   22.0650 C   0  0  0  0  0  0  0  0  0  0  0  0
    5.3226    0.8505   17.4340 C   0  0  0  0  0  0  0  0  0  0  0  0
    6.9217   -0.5492   18.3071 C   0  0  0  0  0  0  0  0  0  0  0  0
   10.3220   -0.8940   22.7910 C   0  0  0  0  0  0  0  0  0  0  0  0
    5.5666    0.7170   19.7960 C   0  0  0  0  0  0  0  0  0  0  0  0
    6.5899   -0.2054   19.6077 C   0  0  0  0  0  0  0  0  0  0  0  0
   12.6400   -1.1000   22.2390 C   0  0  0  0  0  0  0  0  0  0  0  0
    6.6210   -1.6620   25.5510 C   0  0  0  0  0  0  0  0  0  0  0  0
    7.9442   -1.1678   23.6610 C   0  0  0  0  0  0  0  0  0  0  0  0
    8.3880   -0.3240   21.3070 C   0  0  0  0  0  0  0  0  0  0  0  0
    5.1487    1.1409   21.1658 C   0  0  0  0  0  0  0  0  0  0  0  0
    5.9290   -2.2889   26.6953 C   0  0  0  0  0  0  0  0  0  0  0  0
    8.8810   -1.1900   22.4510 C   0  0  1  0  0  0  0  0  0  0  0  0
    6.3123   -0.0432   17.2115 N   0  0  0  0  0  0  0  0  0  0  0  0
    6.4947   -0.4050   25.1823 N   0  0  0  0  0  0  0  0  0  0  0  0
    7.2700   -0.1154   24.0731 N   0  0  0  0  0  0  0  0  0  0  0  0
    7.2820   -0.7860   20.6970 N   0  0  0  0  0  0  0  0  0  0  0  0
    8.9170    0.7530   21.0260 O   0  0  0  0  0  0  0  0  0  0  0  0
    7.6909   -2.5908   24.5843 S   0  0  0  0  0  0  0  0  0  0  0  0
   13.8840   -1.8490   21.2740 Cl  0  0  0  0  0  0  0  0  0  0  0  0
   12.2249    1.2198   24.6546 H   0  0  0  0  0  0  0  0  0  0  0  0
    9.8763    0.5350   24.3454 H   0  0  0  0  0  0  0  0  0  0  0  0
   14.0077    0.1988   23.2842 H   0  0  0  0  0  0  0  0  0  0  0  0
    4.1140    1.9815   18.8063 H   0  0  0  0  0  0  0  0  0  0  0  0
   11.0892   -2.3009   21.3624 H   0  0  0  0  0  0  0  0  0  0  0  0
    4.8471    1.2441   16.5417 H   0  0  0  0  0  0  0  0  0  0  0  0
    7.7114   -1.2640   18.0955 H   0  0  0  0  0  0  0  0  0  0  0  0
    4.3568    0.4829   21.5419 H   0  0  0  0  0  0  0  0  0  0  0  0
    5.9927    1.1077   21.8657 H   0  0  0  0  0  0  0  0  0  0  0  0
    4.7753    2.1725   21.1647 H   0  0  0  0  0  0  0  0  0  0  0  0
    4.9610   -2.7162   26.3874 H   0  0  0  0  0  0  0  0  0  0  0  0
    6.5262   -3.0999   27.1452 H   0  0  0  0  0  0  0  0  0  0  0  0
    5.7347   -1.5667   27.5063 H   0  0  0  0  0  0  0  0  0  0  0  0
    8.8345   -2.2242   22.0630 H   0  0  0  0  0  0  0  0  0  0  0  0
    6.8785   -1.6495   21.0540 H   0  0  0  0  0  0  0  0  0  0  0  0
  1  2  2  0  0  0  0
  1  3  1  0  0  0  0
  2  8  1  0  0  0  0
  3 11  2  0  0  0  0
  4  6  2  0  0  0  0
  4  9  1  0  0  0  0
  5  8  2  0  0  0  0
  5 11  1  0  0  0  0
  6 18  1  0  0  0  0
  7 10  1  0  0  0  0
  7 18  2  0  0  0  0
  8 17  1  0  0  0  0
  9 10  2  0  0  0  0
  9 15  1  0  0  0  0
 10 21  1  0  0  0  0
 11 24  1  0  0  0  0
 12 16  1  0  0  0  0
 12 19  2  0  0  0  0
 12 23  1  0  0  0  0
 13 17  1  0  0  0  0
 13 20  2  0  0  0  0
 13 23  1  0  0  0  0
 14 17  1  1  0  0  0
 14 21  1  0  0  0  0
 14 22  2  0  0  0  0
 19 20  1  0  0  0  0
  1 25  1  0  0  0  0
  2 26  1  0  0  0  0
  3 27  1  0  0  0  0
  4 28  1  0  0  0  0
  5 29  1  0  0  0  0
  6 30  1  0  0  0  0
  7 31  1  0  0  0  0
 15 32  1  0  0  0  0
 15 33  1  0  0  0  0
 15 34  1  0  0  0  0
 16 35  1  0  0  0  0
 16 36  1  0  0  0  0
 16 37  1  0  0  0  0
 17 38  1  0  0  0  0
 21 39  1  0  0  0  0
M  END
> <compound>
TRY-UNI-9f475305-3

> <compound_smiles>
Cc1ccncc1NC(=O)C(c2cccc(c2)Cl)c3nnc(s3)C

> <enantiomer_smiles>
Cc1ccncc1NC(=O)[C@@H](c2cccc(c2)Cl)c3nnc(s3)C

> <scaffold>
chlorobenzene-linker

> <clash_score>
0

> <docking_score>
-10.745672225952148

> <overlap_score>
0.8611693382263184

> <MMFF_internal_energy>
102.47496789257316

> <docked_smiles>
Cc1ccncc1NC(=O)[C@@H](c2cccc(c2)Cl)c3nnc(s3)C

$$$$
EDG-MED-0da5ad92-12_1
  -OEChem-07262101013D

 31 32  0     0  0  0  0  0  0999 V2000
   11.9780    0.4600   23.9150 C   0  0  0  0  0  0  0  0  0  0  0  0
   10.6560    0.0720   23.7350 C   0  0  0  0  0  0  0  0  0  0  0  0
   12.9840   -0.1200   23.1530 C   0  0  0  0  0  0  0  0  0  0  0  0
    5.2596    0.1798   19.7252 C   0  0  0  0  0  0  0  0  0  0  0  0
   11.3360   -1.5050   22.0650 C   0  0  0  0  0  0  0  0  0  0  0  0
    5.3254    0.9125   17.4635 C   0  0  0  0  0  0  0  0  0  0  0  0
    7.2198    0.0011   18.3903 C   0  0  0  0  0  0  0  0  0  0  0  0
   10.3220   -0.8940   22.7910 C   0  0  0  0  0  0  0  0  0  0  0  0
    4.6076    0.7496   18.6373 C   0  0  0  0  0  0  0  0  0  0  0  0
    6.5908   -0.2043   19.6076 C   0  0  0  0  0  0  0  0  0  0  0  0
   12.6400   -1.1000   22.2390 C   0  0  0  0  0  0  0  0  0  0  0  0
    8.3880   -0.3240   21.3070 C   0  0  0  0  0  0  0  0  0  0  0  0
    3.1842    1.1706   18.7315 C   0  0  0  0  0  0  0  0  0  0  0  0
    8.8810   -1.1900   22.4510 C   0  0  0  0  0  0  0  0  0  0  0  0
    6.6194    0.5517   17.3114 N   0  0  0  0  0  0  0  0  0  0  0  0
    7.2820   -0.7860   20.6970 N   0  0  0  0  0  0  0  0  0  0  0  0
    8.9170    0.7530   21.0260 O   0  0  0  0  0  0  0  0  0  0  0  0
   13.8840   -1.8490   21.2740 Cl  0  0  0  0  0  0  0  0  0  0  0  0
   12.2249    1.2198   24.6546 H   0  0  0  0  0  0  0  0  0  0  0  0
    9.8763    0.5350   24.3454 H   0  0  0  0  0  0  0  0  0  0  0  0
   14.0077    0.1988   23.2842 H   0  0  0  0  0  0  0  0  0  0  0  0
    4.7286    0.0372   20.6637 H   0  0  0  0  0  0  0  0  0  0  0  0
   11.0892   -2.3009   21.3624 H   0  0  0  0  0  0  0  0  0  0  0  0
    4.8696    1.3519   16.5816 H   0  0  0  0  0  0  0  0  0  0  0  0
    8.2582   -0.2775   18.2377 H   0  0  0  0  0  0  0  0  0  0  0  0
    3.1116    2.2138   19.0672 H   0  0  0  0  0  0  0  0  0  0  0  0
    2.6739    1.0844   17.7617 H   0  0  0  0  0  0  0  0  0  0  0  0
    2.6243    0.5414   19.4380 H   0  0  0  0  0  0  0  0  0  0  0  0
    8.7709   -2.2387   22.1706 H   0  0  0  0  0  0  0  0  0  0  0  0
    8.2491   -1.0157   23.3232 H   0  0  0  0  0  0  0  0  0  0  0  0
    6.8973   -1.6552   21.0612 H   0  0  0  0  0  0  0  0  0  0  0  0
  1  2  2  0  0  0  0
  1  3  1  0  0  0  0
  2  8  1  0  0  0  0
  3 11  2  0  0  0  0
  4  9  1  0  0  0  0
  4 10  2  0  0  0  0
  5  8  2  0  0  0  0
  5 11  1  0  0  0  0
  6  9  2  0  0  0  0
  6 15  1  0  0  0  0
  7 10  1  0  0  0  0
  7 15  2  0  0  0  0
  8 14  1  0  0  0  0
  9 13  1  0  0  0  0
 10 16  1  0  0  0  0
 11 18  1  0  0  0  0
 12 14  1  0  0  0  0
 12 16  1  0  0  0  0
 12 17  2  0  0  0  0
  1 19  1  0  0  0  0
  2 20  1  0  0  0  0
  3 21  1  0  0  0  0
  4 22  1  0  0  0  0
  5 23  1  0  0  0  0
  6 24  1  0  0  0  0
  7 25  1  0  0  0  0
 13 26  1  0  0  0  0
 13 27  1  0  0  0  0
 13 28  1  0  0  0  0
 14 29  1  0  0  0  0
 14 30  1  0  0  0  0
 16 31  1  0  0  0  0
M  END
> <compound>
EDG-MED-0da5ad92-12

> <compound_smiles>
Cc1cc(cnc1)NC(=O)Cc2cccc(c2)Cl

> <enantiomer_smiles>
Cc1cc(cnc1)NC(=O)Cc2cccc(c2)Cl

> <scaffold>
chlorobenzene-linker

> <clash_score>
0

> <docking_score>
-8.42206859588623

> <overlap_score>
0.8254621028900146

> <MMFF_internal_energy>
70.63722690977147

> <docked_smiles>
Cc1cc(cnc1)NC(=O)Cc2cccc(c2)Cl

$$$$
BAR-COM-ebf5acce-11_1
  -OEChem-07262101013D

 46 48  0     1  0  0  0  0  0999 V2000
   11.9780    0.4600   23.9150 C   0  0  0  0  0  0  0  0  0  0  0  0
   10.6560    0.0720   23.7350 C   0  0  0  0  0  0  0  0  0  0  0  0
   12.9840   -0.1200   23.1530 C   0  0  0  0  0  0  0  0  0  0  0  0
    5.0432   -2.3345   23.2999 C   0  0  0  0  0  0  0  0  0  0  0  0
   11.3360   -1.5050   22.0650 C   0  0  0  0  0  0  0  0  0  0  0  0
    4.8741   -3.5753   22.7069 C   0  0  0  0  0  0  0  0  0  0  0  0
    6.2013   -3.0023   20.9213 C   0  0  0  0  0  0  0  0  0  0  0  0
   10.3220   -0.8940   22.7910 C   0  0  0  0  0  0  0  0  0  0  0  0
    5.8388   -1.4023   22.6431 C   0  0  0  0  0  0  0  0  0  0  0  0
    6.4325   -1.7346   21.4305 C   0  0  0  0  0  0  0  0  0  0  0  0
   12.6400   -1.1000   22.2390 C   0  0  0  0  0  0  0  0  0  0  0  0
    8.3880   -0.3240   21.3070 C   0  0  0  0  0  0  0  0  0  0  0  0
    5.3683    1.0023   18.0114 C   0  0  0  0  0  0  0  0  0  0  0  0
    4.3170    2.0135   18.4285 C   0  0  0  0  0  0  0  0  0  0  0  0
    5.4398    1.3015   20.3510 C   0  0  0  0  0  0  0  0  0  0  0  0
    5.5990    0.2245   19.2905 C   0  0  2  0  0  0  0  0  0  0  0  0
    6.0377   -0.0565   23.2595 C   0  0  0  0  0  0  0  0  0  0  0  0
    8.8810   -1.1900   22.4510 C   0  0  0  0  0  0  0  0  0  0  0  0
    6.9398   -0.4866   19.3444 C   0  0  0  0  0  0  0  0  0  0  0  0
    5.4346   -3.9345   21.5303 N   0  0  0  0  0  0  0  0  0  0  0  0
    7.2820   -0.7860   20.6970 N   0  0  0  0  0  0  0  0  0  0  0  0
    8.9170    0.7530   21.0260 O   0  0  0  0  0  0  0  0  0  0  0  0
    4.4840    2.2441   19.8341 O   0  0  0  0  0  0  0  0  0  0  0  0
    4.5787   -0.7614   19.4479 O   0  0  0  0  0  0  0  0  0  0  0  0
   13.8840   -1.8490   21.2740 Cl  0  0  0  0  0  0  0  0  0  0  0  0
   12.2249    1.2198   24.6546 H   0  0  0  0  0  0  0  0  0  0  0  0
    9.8763    0.5350   24.3454 H   0  0  0  0  0  0  0  0  0  0  0  0
   14.0077    0.1988   23.2842 H   0  0  0  0  0  0  0  0  0  0  0  0
    4.5658   -2.1066   24.2468 H   0  0  0  0  0  0  0  0  0  0  0  0
   11.0892   -2.3009   21.3624 H   0  0  0  0  0  0  0  0  0  0  0  0
    4.2629   -4.3376   23.1787 H   0  0  0  0  0  0  0  0  0  0  0  0
    6.6374   -3.3210   19.9791 H   0  0  0  0  0  0  0  0  0  0  0  0
    5.0264    0.3919   17.1699 H   0  0  0  0  0  0  0  0  0  0  0  0
    6.2795    1.5332   17.7107 H   0  0  0  0  0  0  0  0  0  0  0  0
    4.4095    2.9592   17.8868 H   0  0  0  0  0  0  0  0  0  0  0  0
    3.3061    1.6219   18.2731 H   0  0  0  0  0  0  0  0  0  0  0  0
    5.0659    0.9193   21.3053 H   0  0  0  0  0  0  0  0  0  0  0  0
    6.3723    1.8496   20.5241 H   0  0  0  0  0  0  0  0  0  0  0  0
    6.9143   -0.0660   23.9175 H   0  0  0  0  0  0  0  0  0  0  0  0
    6.1850    0.7132   22.4918 H   0  0  0  0  0  0  0  0  0  0  0  0
    5.1617    0.2432   23.8481 H   0  0  0  0  0  0  0  0  0  0  0  0
    8.8006   -2.2403   22.1717 H   0  0  0  0  0  0  0  0  0  0  0  0
    8.2668   -1.0117   23.3332 H   0  0  0  0  0  0  0  0  0  0  0  0
    6.8501   -1.4065   18.7645 H   0  0  0  0  0  0  0  0  0  0  0  0
    7.6848    0.1780   18.9040 H   0  0  0  0  0  0  0  0  0  0  0  0
    3.7377   -0.2814   19.4834 H   0  0  0  0  0  0  0  0  0  0  0  0
  1  2  2  0  0  0  0
  1  3  1  0  0  0  0
  2  8  1  0  0  0  0
  3 11  2  0  0  0  0
  4  6  2  0  0  0  0
  4  9  1  0  0  0  0
  5  8  2  0  0  0  0
  5 11  1  0  0  0  0
  6 20  1  0  0  0  0
  7 10  1  0  0  0  0
  7 20  2  0  0  0  0
  8 18  1  0  0  0  0
  9 10  2  0  0  0  0
  9 17  1  0  0  0  0
 10 21  1  0  0  0  0
 11 25  1  0  0  0  0
 12 18  1  0  0  0  0
 12 21  1  0  0  0  0
 12 22  2  0  0  0  0
 13 14  1  0  0  0  0
 13 16  1  0  0  0  0
 14 23  1  0  0  0  0
 15 16  1  0  0  0  0
 15 23  1  0  0  0  0
 16 19  1  0  0  0  0
 16 24  1  6  0  0  0
 19 21  1  0  0  0  0
  1 26  1  0  0  0  0
  2 27  1  0  0  0  0
  3 28  1  0  0  0  0
  4 29  1  0  0  0  0
  5 30  1  0  0  0  0
  6 31  1  0  0  0  0
  7 32  1  0  0  0  0
 13 33  1  0  0  0  0
 13 34  1  0  0  0  0
 14 35  1  0  0  0  0
 14 36  1  0  0  0  0
 15 37  1  0  0  0  0
 15 38  1  0  0  0  0
 17 39  1  0  0  0  0
 17 40  1  0  0  0  0
 17 41  1  0  0  0  0
 18 42  1  0  0  0  0
 18 43  1  0  0  0  0
 19 44  1  0  0  0  0
 19 45  1  0  0  0  0
 24 46  1  0  0  0  0
M  END
> <compound>
BAR-COM-ebf5acce-11

> <compound_smiles>
Cc1ccncc1N(C[C@@]2(CCOC2)O)C(=O)Cc3cccc(c3)Cl

> <enantiomer_smiles>
Cc1ccncc1N(C[C@@]2(CCOC2)O)C(=O)Cc3cccc(c3)Cl

> <scaffold>
chlorobenzene-linker

> <clash_score>
1.5838868105176584

> <docking_score>
-2.44199275970459

> <overlap_score>
0.8435105085372925

> <MMFF_internal_energy>
145.80900797310758

> <docked_smiles>
Cc1ccncc1N(C[C@@]2(CCOC2)O)C(=O)Cc3cccc(c3)Cl

$$$$
EDG-MED-0da5ad92-13_1
  -OEChem-07262101013D

 31 32  0     0  0  0  0  0  0999 V2000
   11.9780    0.4600   23.9150 C   0  0  0  0  0  0  0  0  0  0  0  0
   10.6560    0.0720   23.7350 C   0  0  0  0  0  0  0  0  0  0  0  0
    5.2597    0.1794   19.7262 C   0  0  0  0  0  0  0  0  0  0  0  0
   12.9840   -0.1200   23.1530 C   0  0  0  0  0  0  0  0  0  0  0  0
    4.6065    0.7487   18.6387 C   0  0  0  0  0  0  0  0  0  0  0  0
   11.3360   -1.5050   22.0650 C   0  0  0  0  0  0  0  0  0  0  0  0
    7.2190    0.0010   18.3898 C   0  0  0  0  0  0  0  0  0  0  0  0
   10.3220   -0.8940   22.7910 C   0  0  0  0  0  0  0  0  0  0  0  0
    6.5908   -0.2043   19.6076 C   0  0  0  0  0  0  0  0  0  0  0  0
   12.6400   -1.1000   22.2390 C   0  0  0  0  0  0  0  0  0  0  0  0
    5.3236    0.9116   17.4643 C   0  0  0  0  0  0  0  0  0  0  0  0
    8.3880   -0.3240   21.3070 C   0  0  0  0  0  0  0  0  0  0  0  0
    4.6541    1.5189   16.2770 C   0  0  0  0  0  0  0  0  0  0  0  0
    8.8810   -1.1900   22.4510 C   0  0  0  0  0  0  0  0  0  0  0  0
    6.6175    0.5510   17.3112 N   0  0  0  0  0  0  0  0  0  0  0  0
    7.2820   -0.7860   20.6970 N   0  0  0  0  0  0  0  0  0  0  0  0
    8.9170    0.7530   21.0260 O   0  0  0  0  0  0  0  0  0  0  0  0
   13.8840   -1.8490   21.2740 Cl  0  0  0  0  0  0  0  0  0  0  0  0
   12.2249    1.2198   24.6546 H   0  0  0  0  0  0  0  0  0  0  0  0
    9.8763    0.5350   24.3454 H   0  0  0  0  0  0  0  0  0  0  0  0
    4.7226    0.0402   20.6607 H   0  0  0  0  0  0  0  0  0  0  0  0
   14.0077    0.1988   23.2842 H   0  0  0  0  0  0  0  0  0  0  0  0
    3.5680    1.0521   18.7182 H   0  0  0  0  0  0  0  0  0  0  0  0
   11.0892   -2.3009   21.3624 H   0  0  0  0  0  0  0  0  0  0  0  0
    8.2570   -0.2785   18.2362 H   0  0  0  0  0  0  0  0  0  0  0  0
    4.7798    2.6083   16.2844 H   0  0  0  0  0  0  0  0  0  0  0  0
    5.0715    1.1262   15.3410 H   0  0  0  0  0  0  0  0  0  0  0  0
    3.5804    1.2918   16.2666 H   0  0  0  0  0  0  0  0  0  0  0  0
    8.7709   -2.2387   22.1706 H   0  0  0  0  0  0  0  0  0  0  0  0
    8.2491   -1.0157   23.3232 H   0  0  0  0  0  0  0  0  0  0  0  0
    6.8973   -1.6552   21.0612 H   0  0  0  0  0  0  0  0  0  0  0  0
  1  2  2  0  0  0  0
  1  4  1  0  0  0  0
  2  8  1  0  0  0  0
  3  5  2  0  0  0  0
  3  9  1  0  0  0  0
  4 10  2  0  0  0  0
  5 11  1  0  0  0  0
  6  8  2  0  0  0  0
  6 10  1  0  0  0  0
  7  9  2  0  0  0  0
  7 15  1  0  0  0  0
  8 14  1  0  0  0  0
  9 16  1  0  0  0  0
 10 18  1  0  0  0  0
 11 13  1  0  0  0  0
 11 15  2  0  0  0  0
 12 14  1  0  0  0  0
 12 16  1  0  0  0  0
 12 17  2  0  0  0  0
  1 19  1  0  0  0  0
  2 20  1  0  0  0  0
  3 21  1  0  0  0  0
  4 22  1  0  0  0  0
  5 23  1  0  0  0  0
  6 24  1  0  0  0  0
  7 25  1  0  0  0  0
 13 26  1  0  0  0  0
 13 27  1  0  0  0  0
 13 28  1  0  0  0  0
 14 29  1  0  0  0  0
 14 30  1  0  0  0  0
 16 31  1  0  0  0  0
M  END
> <compound>
EDG-MED-0da5ad92-13

> <compound_smiles>
Cc1ccc(cn1)NC(=O)Cc2cccc(c2)Cl

> <enantiomer_smiles>
Cc1ccc(cn1)NC(=O)Cc2cccc(c2)Cl

> <scaffold>
chlorobenzene-linker

> <clash_score>
0

> <docking_score>
-7.776190757751465

> <overlap_score>
0.8114517331123352

> <MMFF_internal_energy>
69.72375879634701

> <docked_smiles>
Cc1ccc(cn1)NC(=O)Cc2cccc(c2)Cl

$$$$
EDG-MED-0da5ad92-14_1
  -OEChem-07262101013D

 31 32  0     0  0  0  0  0  0999 V2000
   11.9780    0.4600   23.9150 C   0  0  0  0  0  0  0  0  0  0  0  0
    4.5880    0.7432   18.6721 C   0  0  0  0  0  0  0  0  0  0  0  0
   10.6560    0.0720   23.7350 C   0  0  0  0  0  0  0  0  0  0  0  0
    5.2597    0.1724   19.7473 C   0  0  0  0  0  0  0  0  0  0  0  0
   12.9840   -0.1200   23.1530 C   0  0  0  0  0  0  0  0  0  0  0  0
   11.3360   -1.5050   22.0650 C   0  0  0  0  0  0  0  0  0  0  0  0
    5.2867    0.9146   17.4879 C   0  0  0  0  0  0  0  0  0  0  0  0
   10.3220   -0.8940   22.7910 C   0  0  0  0  0  0  0  0  0  0  0  0
    6.5908   -0.2043   19.6076 C   0  0  0  0  0  0  0  0  0  0  0  0
   12.6400   -1.1000   22.2390 C   0  0  0  0  0  0  0  0  0  0  0  0
    7.1998    0.0093   18.3815 C   0  0  0  0  0  0  0  0  0  0  0  0
    8.3880   -0.3240   21.3070 C   0  0  0  0  0  0  0  0  0  0  0  0
    8.6293   -0.3726   18.1700 C   0  0  0  0  0  0  0  0  0  0  0  0
    8.8810   -1.1900   22.4510 C   0  0  0  0  0  0  0  0  0  0  0  0
    6.5800    0.5611   17.3143 N   0  0  0  0  0  0  0  0  0  0  0  0
    7.2820   -0.7860   20.6970 N   0  0  0  0  0  0  0  0  0  0  0  0
    8.9170    0.7530   21.0260 O   0  0  0  0  0  0  0  0  0  0  0  0
   13.8840   -1.8490   21.2740 Cl  0  0  0  0  0  0  0  0  0  0  0  0
   12.2249    1.2198   24.6546 H   0  0  0  0  0  0  0  0  0  0  0  0
    3.5501    1.0440   18.7587 H   0  0  0  0  0  0  0  0  0  0  0  0
    9.8763    0.5350   24.3454 H   0  0  0  0  0  0  0  0  0  0  0  0
    4.7363    0.0270   20.6888 H   0  0  0  0  0  0  0  0  0  0  0  0
   14.0077    0.1988   23.2842 H   0  0  0  0  0  0  0  0  0  0  0  0
   11.0892   -2.3009   21.3624 H   0  0  0  0  0  0  0  0  0  0  0  0
    4.8071    1.3547   16.6197 H   0  0  0  0  0  0  0  0  0  0  0  0
    8.6959   -1.4042   17.8067 H   0  0  0  0  0  0  0  0  0  0  0  0
    9.1110    0.2882   17.4394 H   0  0  0  0  0  0  0  0  0  0  0  0
    9.2021   -0.2912   19.1017 H   0  0  0  0  0  0  0  0  0  0  0  0
    8.7709   -2.2387   22.1706 H   0  0  0  0  0  0  0  0  0  0  0  0
    8.2491   -1.0157   23.3232 H   0  0  0  0  0  0  0  0  0  0  0  0
    6.8973   -1.6552   21.0612 H   0  0  0  0  0  0  0  0  0  0  0  0
  1  3  2  0  0  0  0
  1  5  1  0  0  0  0
  2  4  1  0  0  0  0
  2  7  2  0  0  0  0
  3  8  1  0  0  0  0
  4  9  2  0  0  0  0
  5 10  2  0  0  0  0
  6  8  2  0  0  0  0
  6 10  1  0  0  0  0
  7 15  1  0  0  0  0
  8 14  1  0  0  0  0
  9 11  1  0  0  0  0
  9 16  1  0  0  0  0
 10 18  1  0  0  0  0
 11 13  1  0  0  0  0
 11 15  2  0  0  0  0
 12 14  1  0  0  0  0
 12 16  1  0  0  0  0
 12 17  2  0  0  0  0
  1 19  1  0  0  0  0
  2 20  1  0  0  0  0
  3 21  1  0  0  0  0
  4 22  1  0  0  0  0
  5 23  1  0  0  0  0
  6 24  1  0  0  0  0
  7 25  1  0  0  0  0
 13 26  1  0  0  0  0
 13 27  1  0  0  0  0
 13 28  1  0  0  0  0
 14 29  1  0  0  0  0
 14 30  1  0  0  0  0
 16 31  1  0  0  0  0
M  END
> <compound>
EDG-MED-0da5ad92-14

> <compound_smiles>
Cc1c(cccn1)NC(=O)Cc2cccc(c2)Cl

> <enantiomer_smiles>
Cc1c(cccn1)NC(=O)Cc2cccc(c2)Cl

> <scaffold>
chlorobenzene-linker

> <clash_score>
0

> <docking_score>
-8.221090316772461

> <overlap_score>
0.8107858300209045

> <MMFF_internal_energy>
75.93094491732289

> <docked_smiles>
Cc1c(cccn1)NC(=O)Cc2cccc(c2)Cl

$$$$
BAR-COM-ebf5acce-8_1
  -OEChem-07262101013D

 41 43  0     0  0  0  0  0  0999 V2000
   11.9780    0.4600   23.9150 C   0  0  0  0  0  0  0  0  0  0  0  0
   10.6560    0.0720   23.7350 C   0  0  0  0  0  0  0  0  0  0  0  0
   12.9840   -0.1200   23.1530 C   0  0  0  0  0  0  0  0  0  0  0  0
    5.1297    1.5096   18.6757 C   0  0  0  0  0  0  0  0  0  0  0  0
   11.3360   -1.5050   22.0650 C   0  0  0  0  0  0  0  0  0  0  0  0
    5.6609    1.2304   17.4268 C   0  0  0  0  0  0  0  0  0  0  0  0
    7.1568   -0.2780   18.3015 C   0  0  0  0  0  0  0  0  0  0  0  0
    6.1694   -3.6385   22.3606 C   0  0  0  0  0  0  0  0  0  0  0  0
   10.3220   -0.8940   22.7910 C   0  0  0  0  0  0  0  0  0  0  0  0
    5.6626    0.8432   19.7735 C   0  0  0  0  0  0  0  0  0  0  0  0
    6.6959   -0.0693   19.5914 C   0  0  0  0  0  0  0  0  0  0  0  0
   12.6400   -1.1000   22.2390 C   0  0  0  0  0  0  0  0  0  0  0  0
    6.0731   -3.0156   20.3542 C   0  0  0  0  0  0  0  0  0  0  0  0
    6.7204   -2.0320   21.0600 C   0  0  0  0  0  0  0  0  0  0  0  0
    8.3880   -0.3240   21.3070 C   0  0  0  0  0  0  0  0  0  0  0  0
    5.1093    1.1255   21.1317 C   0  0  0  0  0  0  0  0  0  0  0  0
    8.8810   -1.1900   22.4510 C   0  0  0  0  0  0  0  0  0  0  0  0
    5.7504   -3.0690   18.9209 C   0  0  0  0  0  0  0  0  0  0  0  0
    6.6643    0.3506   17.2107 N   0  0  0  0  0  0  0  0  0  0  0  0
    5.7228   -4.0426   21.1929 N   0  0  0  0  0  0  0  0  0  0  0  0
    7.2820   -0.7860   20.6970 N   0  0  0  0  0  0  0  0  0  0  0  0
    8.9170    0.7530   21.0260 O   0  0  0  0  0  0  0  0  0  0  0  0
    6.7880   -2.4260   22.3622 O   0  0  0  0  0  0  0  0  0  0  0  0
    4.6539   -2.1993   18.6291 O   0  0  0  0  0  0  0  0  0  0  0  0
   13.8840   -1.8490   21.2740 Cl  0  0  0  0  0  0  0  0  0  0  0  0
   12.2249    1.2198   24.6546 H   0  0  0  0  0  0  0  0  0  0  0  0
    9.8763    0.5350   24.3454 H   0  0  0  0  0  0  0  0  0  0  0  0
   14.0077    0.1988   23.2842 H   0  0  0  0  0  0  0  0  0  0  0  0
    4.3236    2.2274   18.7837 H   0  0  0  0  0  0  0  0  0  0  0  0
   11.0892   -2.3009   21.3624 H   0  0  0  0  0  0  0  0  0  0  0  0
    5.2803    1.7237   16.5385 H   0  0  0  0  0  0  0  0  0  0  0  0
    7.9610   -0.9781   18.0952 H   0  0  0  0  0  0  0  0  0  0  0  0
    6.1035   -4.1477   23.3103 H   0  0  0  0  0  0  0  0  0  0  0  0
    4.2804    0.4433   21.3534 H   0  0  0  0  0  0  0  0  0  0  0  0
    5.8775    1.0054   21.9054 H   0  0  0  0  0  0  0  0  0  0  0  0
    4.7422    2.1568   21.2035 H   0  0  0  0  0  0  0  0  0  0  0  0
    8.7679   -2.2431   22.1594 H   0  0  0  0  0  0  0  0  0  0  0  0
    8.2854   -1.0410   23.3609 H   0  0  0  0  0  0  0  0  0  0  0  0
    6.6018   -2.7610   18.2847 H   0  0  0  0  0  0  0  0  0  0  0  0
    5.4701   -4.0879   18.5931 H   0  0  0  0  0  0  0  0  0  0  0  0
    4.4902   -2.2780   17.6777 H   0  0  0  0  0  0  0  0  0  0  0  0
  1  2  2  0  0  0  0
  1  3  1  0  0  0  0
  2  9  1  0  0  0  0
  3 12  2  0  0  0  0
  4  6  2  0  0  0  0
  4 10  1  0  0  0  0
  5  9  2  0  0  0  0
  5 12  1  0  0  0  0
  6 19  1  0  0  0  0
  7 11  1  0  0  0  0
  7 19  2  0  0  0  0
  8 20  2  0  0  0  0
  8 23  1  0  0  0  0
  9 17  1  0  0  0  0
 10 11  2  0  0  0  0
 10 16  1  0  0  0  0
 11 21  1  0  0  0  0
 12 25  1  0  0  0  0
 13 14  2  0  0  0  0
 13 18  1  0  0  0  0
 13 20  1  0  0  0  0
 14 21  1  0  0  0  0
 14 23  1  0  0  0  0
 15 17  1  0  0  0  0
 15 21  1  0  0  0  0
 15 22  2  0  0  0  0
 18 24  1  0  0  0  0
  1 26  1  0  0  0  0
  2 27  1  0  0  0  0
  3 28  1  0  0  0  0
  4 29  1  0  0  0  0
  5 30  1  0  0  0  0
  6 31  1  0  0  0  0
  7 32  1  0  0  0  0
  8 33  1  0  0  0  0
 16 34  1  0  0  0  0
 16 35  1  0  0  0  0
 16 36  1  0  0  0  0
 17 37  1  0  0  0  0
 17 38  1  0  0  0  0
 18 39  1  0  0  0  0
 18 40  1  0  0  0  0
 24 41  1  0  0  0  0
M  END
> <compound>
BAR-COM-ebf5acce-8

> <compound_smiles>
Cc1ccncc1N(c2c(nco2)CO)C(=O)Cc3cccc(c3)Cl

> <enantiomer_smiles>
Cc1ccncc1N(c2c(nco2)CO)C(=O)Cc3cccc(c3)Cl

> <scaffold>
chlorobenzene-linker

> <clash_score>
0.6393968344623518

> <docking_score>
-8.421309471130371

> <overlap_score>
0.8672747015953064

> <MMFF_internal_energy>
125.8788843577411

> <docked_smiles>
Cc1ccncc1N(c2c(nco2)CO)C(=O)Cc3cccc(c3)Cl

$$$$
EDG-MED-0da5ad92-15_1
  -OEChem-07262101013D

 30 31  0     0  0  0  0  0  0999 V2000
   11.9780    0.4600   23.9150 C   0  0  0  0  0  0  0  0  0  0  0  0
   10.6560    0.0720   23.7350 C   0  0  0  0  0  0  0  0  0  0  0  0
   12.9840   -0.1200   23.1530 C   0  0  0  0  0  0  0  0  0  0  0  0
    4.5115    0.7537   18.8599 C   0  0  0  0  0  0  0  0  0  0  0  0
   11.3360   -1.5050   22.0650 C   0  0  0  0  0  0  0  0  0  0  0  0
    5.1831    1.0155   17.6827 C   0  0  0  0  0  0  0  0  0  0  0  0
   10.3220   -0.8940   22.7910 C   0  0  0  0  0  0  0  0  0  0  0  0
    5.2142    0.1449   19.8848 C   0  0  0  0  0  0  0  0  0  0  0  0
   12.6400   -1.1000   22.2390 C   0  0  0  0  0  0  0  0  0  0  0  0
    6.5418   -0.1622   19.6645 C   0  0  0  0  0  0  0  0  0  0  0  0
    8.3880   -0.3240   21.3070 C   0  0  0  0  0  0  0  0  0  0  0  0
    4.5262   -0.1552   21.1729 C   0  0  0  0  0  0  0  0  0  0  0  0
    8.8810   -1.1900   22.4510 C   0  0  0  0  0  0  0  0  0  0  0  0
    6.4831    0.7040   17.4948 N   0  0  0  0  0  0  0  0  0  0  0  0
    7.1735    0.1052   18.5020 N   0  0  0  0  0  0  0  0  0  0  0  0
    7.2820   -0.7860   20.6970 N   0  0  0  0  0  0  0  0  0  0  0  0
    8.9170    0.7530   21.0260 O   0  0  0  0  0  0  0  0  0  0  0  0
   13.8840   -1.8490   21.2740 Cl  0  0  0  0  0  0  0  0  0  0  0  0
   12.2249    1.2198   24.6546 H   0  0  0  0  0  0  0  0  0  0  0  0
    9.8763    0.5350   24.3454 H   0  0  0  0  0  0  0  0  0  0  0  0
   14.0077    0.1988   23.2842 H   0  0  0  0  0  0  0  0  0  0  0  0
    3.4659    1.0208   18.9688 H   0  0  0  0  0  0  0  0  0  0  0  0
   11.0892   -2.3009   21.3624 H   0  0  0  0  0  0  0  0  0  0  0  0
    4.6891    1.4906   16.8433 H   0  0  0  0  0  0  0  0  0  0  0  0
    4.0763   -1.1553   21.1424 H   0  0  0  0  0  0  0  0  0  0  0  0
    5.2259   -0.1146   22.0180 H   0  0  0  0  0  0  0  0  0  0  0  0
    3.7340    0.5760   21.3819 H   0  0  0  0  0  0  0  0  0  0  0  0
    8.7709   -2.2387   22.1706 H   0  0  0  0  0  0  0  0  0  0  0  0
    8.2491   -1.0157   23.3232 H   0  0  0  0  0  0  0  0  0  0  0  0
    6.9372   -1.6894   21.0149 H   0  0  0  0  0  0  0  0  0  0  0  0
  1  2  2  0  0  0  0
  1  3  1  0  0  0  0
  2  7  1  0  0  0  0
  3  9  2  0  0  0  0
  4  6  2  0  0  0  0
  4  8  1  0  0  0  0
  5  7  2  0  0  0  0
  5  9  1  0  0  0  0
  6 14  1  0  0  0  0
  7 13  1  0  0  0  0
  8 10  2  0  0  0  0
  8 12  1  0  0  0  0
  9 18  1  0  0  0  0
 10 15  1  0  0  0  0
 10 16  1  0  0  0  0
 11 13  1  0  0  0  0
 11 16  1  0  0  0  0
 11 17  2  0  0  0  0
 14 15  2  0  0  0  0
  1 19  1  0  0  0  0
  2 20  1  0  0  0  0
  3 21  1  0  0  0  0
  4 22  1  0  0  0  0
  5 23  1  0  0  0  0
  6 24  1  0  0  0  0
 12 25  1  0  0  0  0
 12 26  1  0  0  0  0
 12 27  1  0  0  0  0
 13 28  1  0  0  0  0
 13 29  1  0  0  0  0
 16 30  1  0  0  0  0
M  END
> <compound>
EDG-MED-0da5ad92-15

> <compound_smiles>
Cc1ccnnc1NC(=O)Cc2cccc(c2)Cl

> <enantiomer_smiles>
Cc1ccnnc1NC(=O)Cc2cccc(c2)Cl

> <scaffold>
chlorobenzene-linker

> <canonical_CID>
EDG-MED-0da5ad92-15

> <r_inhibition_at_20_uM>

> <r_inhibition_at_50_uM>

> <r_avg_IC50>
99.0

> <f_inhibition_at_20_uM>

> <f_inhibition_at_50_uM>

> <f_avg_IC50>
99.5

> <f_avg_pIC50>

> <relative_solubility_at_20_uM>

> <relative_solubility_at_100_uM>

> <trypsin_IC50>

> <NMR_std_ratio>

> <acrylamide>
False

> <chloroacetamide>
False

> <series>
3-aminopyridine-like

> <frag_id>
x11485

> <clash_score>
0

> <docking_score>
-6.8705153465271

> <overlap_score>
0.836050271987915

> <MMFF_internal_energy>
49.86371719340283

> <docked_smiles>
Cc1ccnnc1NC(=O)Cc2cccc(c2)Cl

$$$$
EDG-MED-0da5ad92-21_1
  -OEChem-07262101013D

 29 30  0     0  0  0  0  0  0999 V2000
   11.9780    0.4600   23.9150 C   0  0  0  0  0  0  0  0  0  0  0  0
   10.6560    0.0720   23.7350 C   0  0  0  0  0  0  0  0  0  0  0  0
   12.9840   -0.1200   23.1530 C   0  0  0  0  0  0  0  0  0  0  0  0
   11.3360   -1.5050   22.0650 C   0  0  0  0  0  0  0  0  0  0  0  0
    7.0670    0.0747   18.3126 C   0  0  0  0  0  0  0  0  0  0  0  0
   10.3220   -0.8940   22.7910 C   0  0  0  0  0  0  0  0  0  0  0  0
    6.5908   -0.2043   19.6076 C   0  0  0  0  0  0  0  0  0  0  0  0
   12.6400   -1.1000   22.2390 C   0  0  0  0  0  0  0  0  0  0  0  0
    5.2840    0.2181   19.5913 C   0  0  0  0  0  0  0  0  0  0  0  0
    8.3880   -0.3240   21.3070 C   0  0  0  0  0  0  0  0  0  0  0  0
    4.2278    0.2135   20.6182 C   0  0  0  0  0  0  0  0  0  0  0  0
    8.8810   -1.1900   22.4510 C   0  0  0  0  0  0  0  0  0  0  0  0
    6.1382    0.6311   17.5304 N   0  0  0  0  0  0  0  0  0  0  0  0
    5.0653    0.7051   18.3362 N   0  0  0  0  0  0  0  0  0  0  0  0
    7.2820   -0.7860   20.6970 N   0  0  0  0  0  0  0  0  0  0  0  0
    8.9170    0.7530   21.0260 O   0  0  0  0  0  0  0  0  0  0  0  0
   13.8840   -1.8490   21.2740 Cl  0  0  0  0  0  0  0  0  0  0  0  0
   12.2249    1.2198   24.6546 H   0  0  0  0  0  0  0  0  0  0  0  0
    9.8763    0.5350   24.3454 H   0  0  0  0  0  0  0  0  0  0  0  0
   14.0077    0.1988   23.2842 H   0  0  0  0  0  0  0  0  0  0  0  0
   11.0892   -2.3009   21.3624 H   0  0  0  0  0  0  0  0  0  0  0  0
    8.0514   -0.1038   17.9033 H   0  0  0  0  0  0  0  0  0  0  0  0
    4.2388    1.1460   21.2078 H   0  0  0  0  0  0  0  0  0  0  0  0
    3.2198    0.1095   20.1788 H   0  0  0  0  0  0  0  0  0  0  0  0
    4.3375   -0.6283   21.3250 H   0  0  0  0  0  0  0  0  0  0  0  0
    8.7709   -2.2387   22.1706 H   0  0  0  0  0  0  0  0  0  0  0  0
    8.2491   -1.0157   23.3232 H   0  0  0  0  0  0  0  0  0  0  0  0
    4.2126    1.1028   17.9620 H   0  0  0  0  0  0  0  0  0  0  0  0
    6.8973   -1.6552   21.0612 H   0  0  0  0  0  0  0  0  0  0  0  0
  1  2  2  0  0  0  0
  1  3  1  0  0  0  0
  2  6  1  0  0  0  0
  3  8  2  0  0  0  0
  4  6  2  0  0  0  0
  4  8  1  0  0  0  0
  5  7  1  0  0  0  0
  5 13  2  0  0  0  0
  6 12  1  0  0  0  0
  7  9  2  0  0  0  0
  7 15  1  0  0  0  0
  8 17  1  0  0  0  0
  9 11  1  0  0  0  0
  9 14  1  0  0  0  0
 10 12  1  0  0  0  0
 10 15  1  0  0  0  0
 10 16  2  0  0  0  0
 13 14  1  0  0  0  0
  1 18  1  0  0  0  0
  2 19  1  0  0  0  0
  3 20  1  0  0  0  0
  4 21  1  0  0  0  0
  5 22  1  0  0  0  0
 11 23  1  0  0  0  0
 11 24  1  0  0  0  0
 11 25  1  0  0  0  0
 12 26  1  0  0  0  0
 12 27  1  0  0  0  0
 14 28  1  0  0  0  0
 15 29  1  0  0  0  0
M  END
> <compound>
EDG-MED-0da5ad92-21

> <compound_smiles>
Cc1c(cn[nH]1)NC(=O)Cc2cccc(c2)Cl

> <enantiomer_smiles>
Cc1c(cn[nH]1)NC(=O)Cc2cccc(c2)Cl

> <scaffold>
chlorobenzene-linker

> <canonical_CID>
EDG-MED-0da5ad92-21

> <r_inhibition_at_20_uM>

> <r_inhibition_at_50_uM>

> <r_avg_IC50>
99.0

> <f_inhibition_at_20_uM>

> <f_inhibition_at_50_uM>

> <f_avg_IC50>

> <f_avg_pIC50>

> <relative_solubility_at_20_uM>

> <relative_solubility_at_100_uM>

> <trypsin_IC50>

> <NMR_std_ratio>

> <acrylamide>
False

> <chloroacetamide>
False

> <series>
3-aminopyridine-like

> <frag_id>
x11025

> <clash_score>
0

> <docking_score>
-6.293183326721191

> <overlap_score>
0.8088511824607849

> <MMFF_internal_energy>
50.7872864509018

> <docked_smiles>
Cc1c(cn[nH]1)NC(=O)Cc2cccc(c2)Cl

$$$$
EDG-MED-0da5ad92-18_1
  -OEChem-07262101013D

 33 34  0     0  0  0  0  0  0999 V2000
   11.9780    0.4600   23.9150 C   0  0  0  0  0  0  0  0  0  0  0  0
   10.6560    0.0720   23.7350 C   0  0  0  0  0  0  0  0  0  0  0  0
   12.9840   -0.1200   23.1530 C   0  0  0  0  0  0  0  0  0  0  0  0
    4.5968    0.7473   18.6575 C   0  0  0  0  0  0  0  0  0  0  0  0
   11.3360   -1.5050   22.0650 C   0  0  0  0  0  0  0  0  0  0  0  0
    5.3042    0.9163   17.4782 C   0  0  0  0  0  0  0  0  0  0  0  0
   10.3220   -0.8940   22.7910 C   0  0  0  0  0  0  0  0  0  0  0  0
    5.2596    0.1756   19.7378 C   0  0  0  0  0  0  0  0  0  0  0  0
    6.5908   -0.2043   19.6076 C   0  0  0  0  0  0  0  0  0  0  0  0
   12.6400   -1.1000   22.2390 C   0  0  0  0  0  0  0  0  0  0  0  0
    7.2089    0.0072   18.3857 C   0  0  0  0  0  0  0  0  0  0  0  0
    8.3880   -0.3240   21.3070 C   0  0  0  0  0  0  0  0  0  0  0  0
    4.5179   -0.0187   21.0201 C   0  0  0  0  0  0  0  0  0  0  0  0
    8.8810   -1.1900   22.4510 C   0  0  0  0  0  0  0  0  0  0  0  0
    6.5978    0.5597   17.3139 N   0  0  0  0  0  0  0  0  0  0  0  0
    8.5661   -0.3770   18.2417 N   0  0  0  0  0  0  0  0  0  0  0  0
    7.2820   -0.7860   20.6970 N   0  0  0  0  0  0  0  0  0  0  0  0
    8.9170    0.7530   21.0260 O   0  0  0  0  0  0  0  0  0  0  0  0
   13.8840   -1.8490   21.2740 Cl  0  0  0  0  0  0  0  0  0  0  0  0
   12.2249    1.2198   24.6546 H   0  0  0  0  0  0  0  0  0  0  0  0
    9.8763    0.5350   24.3454 H   0  0  0  0  0  0  0  0  0  0  0  0
   14.0077    0.1988   23.2842 H   0  0  0  0  0  0  0  0  0  0  0  0
    3.5584    1.0535   18.7256 H   0  0  0  0  0  0  0  0  0  0  0  0
   11.0892   -2.3009   21.3624 H   0  0  0  0  0  0  0  0  0  0  0  0
    4.8324    1.3583   16.6067 H   0  0  0  0  0  0  0  0  0  0  0  0
    4.0337   -1.0018   21.0331 H   0  0  0  0  0  0  0  0  0  0  0  0
    5.1926    0.0506   21.8820 H   0  0  0  0  0  0  0  0  0  0  0  0
    3.7490    0.7522   21.1532 H   0  0  0  0  0  0  0  0  0  0  0  0
    8.7709   -2.2387   22.1706 H   0  0  0  0  0  0  0  0  0  0  0  0
    8.2491   -1.0157   23.3232 H   0  0  0  0  0  0  0  0  0  0  0  0
    9.0484   -0.7427   19.0331 H   0  0  0  0  0  0  0  0  0  0  0  0
    9.0307   -0.1851   17.3814 H   0  0  0  0  0  0  0  0  0  0  0  0
    6.8973   -1.6552   21.0612 H   0  0  0  0  0  0  0  0  0  0  0  0
  1  2  2  0  0  0  0
  1  3  1  0  0  0  0
  2  7  1  0  0  0  0
  3 10  2  0  0  0  0
  4  6  2  0  0  0  0
  4  8  1  0  0  0  0
  5  7  2  0  0  0  0
  5 10  1  0  0  0  0
  6 15  1  0  0  0  0
  7 14  1  0  0  0  0
  8  9  2  0  0  0  0
  8 13  1  0  0  0  0
  9 11  1  0  0  0  0
  9 17  1  0  0  0  0
 10 19  1  0  0  0  0
 11 15  2  0  0  0  0
 11 16  1  0  0  0  0
 12 14  1  0  0  0  0
 12 17  1  0  0  0  0
 12 18  2  0  0  0  0
  1 20  1  0  0  0  0
  2 21  1  0  0  0  0
  3 22  1  0  0  0  0
  4 23  1  0  0  0  0
  5 24  1  0  0  0  0
  6 25  1  0  0  0  0
 13 26  1  0  0  0  0
 13 27  1  0  0  0  0
 13 28  1  0  0  0  0
 14 29  1  0  0  0  0
 14 30  1  0  0  0  0
 16 31  1  0  0  0  0
 16 32  1  0  0  0  0
 17 33  1  0  0  0  0
M  END
> <compound>
EDG-MED-0da5ad92-18

> <compound_smiles>
Cc1ccnc(c1NC(=O)Cc2cccc(c2)Cl)N

> <enantiomer_smiles>
Cc1ccnc(c1NC(=O)Cc2cccc(c2)Cl)N

> <scaffold>
chlorobenzene-linker

> <clash_score>
0

> <docking_score>
-8.210942268371582

> <overlap_score>
0.8434090614318848

> <MMFF_internal_energy>
45.86802548931292

> <docked_smiles>
Cc1ccnc(c1NC(=O)Cc2cccc(c2)Cl)N

$$$$
EDG-MED-0da5ad92-17_1
  -OEChem-07262101013D

 33 34  0     0  0  0  0  0  0999 V2000
   11.9780    0.4600   23.9150 C   0  0  0  0  0  0  0  0  0  0  0  0
   10.6560    0.0720   23.7350 C   0  0  0  0  0  0  0  0  0  0  0  0
   12.9840   -0.1200   23.1530 C   0  0  0  0  0  0  0  0  0  0  0  0
   11.3360   -1.5050   22.0650 C   0  0  0  0  0  0  0  0  0  0  0  0
    4.9082    1.2516   18.6945 C   0  0  0  0  0  0  0  0  0  0  0  0
    6.9307   -0.5387   18.3067 C   0  0  0  0  0  0  0  0  0  0  0  0
   10.3220   -0.8940   22.7910 C   0  0  0  0  0  0  0  0  0  0  0  0
    5.5592    0.7086   19.7966 C   0  0  0  0  0  0  0  0  0  0  0  0
    6.5908   -0.2043   19.6076 C   0  0  0  0  0  0  0  0  0  0  0  0
   12.6400   -1.1000   22.2390 C   0  0  0  0  0  0  0  0  0  0  0  0
    5.3236    0.8521   17.4344 C   0  0  0  0  0  0  0  0  0  0  0  0
    8.3880   -0.3240   21.3070 C   0  0  0  0  0  0  0  0  0  0  0  0
    5.1338    1.1221   21.1673 C   0  0  0  0  0  0  0  0  0  0  0  0
    8.8810   -1.1900   22.4510 C   0  0  0  0  0  0  0  0  0  0  0  0
    6.3214   -0.0322   17.2113 N   0  0  0  0  0  0  0  0  0  0  0  0
    4.6502    1.4137   16.3212 N   0  0  0  0  0  0  0  0  0  0  0  0
    7.2820   -0.7860   20.6970 N   0  0  0  0  0  0  0  0  0  0  0  0
    8.9170    0.7530   21.0260 O   0  0  0  0  0  0  0  0  0  0  0  0
   13.8840   -1.8490   21.2740 Cl  0  0  0  0  0  0  0  0  0  0  0  0
   12.2249    1.2198   24.6546 H   0  0  0  0  0  0  0  0  0  0  0  0
    9.8763    0.5350   24.3454 H   0  0  0  0  0  0  0  0  0  0  0  0
   14.0077    0.1988   23.2842 H   0  0  0  0  0  0  0  0  0  0  0  0
   11.0892   -2.3009   21.3624 H   0  0  0  0  0  0  0  0  0  0  0  0
    4.1007    1.9661   18.8230 H   0  0  0  0  0  0  0  0  0  0  0  0
    7.7255   -1.2477   18.0952 H   0  0  0  0  0  0  0  0  0  0  0  0
    4.3459    0.4561   21.5375 H   0  0  0  0  0  0  0  0  0  0  0  0
    5.9759    1.0917   21.8696 H   0  0  0  0  0  0  0  0  0  0  0  0
    4.7525    2.1508   21.1704 H   0  0  0  0  0  0  0  0  0  0  0  0
    8.7709   -2.2387   22.1706 H   0  0  0  0  0  0  0  0  0  0  0  0
    8.2491   -1.0157   23.3232 H   0  0  0  0  0  0  0  0  0  0  0  0
    3.8830    2.0290   16.4830 H   0  0  0  0  0  0  0  0  0  0  0  0
    4.8974    1.1080   15.4052 H   0  0  0  0  0  0  0  0  0  0  0  0
    6.8973   -1.6552   21.0612 H   0  0  0  0  0  0  0  0  0  0  0  0
  1  2  2  0  0  0  0
  1  3  1  0  0  0  0
  2  7  1  0  0  0  0
  3 10  2  0  0  0  0
  4  7  2  0  0  0  0
  4 10  1  0  0  0  0
  5  8  1  0  0  0  0
  5 11  2  0  0  0  0
  6  9  1  0  0  0  0
  6 15  2  0  0  0  0
  7 14  1  0  0  0  0
  8  9  2  0  0  0  0
  8 13  1  0  0  0  0
  9 17  1  0  0  0  0
 10 19  1  0  0  0  0
 11 15  1  0  0  0  0
 11 16  1  0  0  0  0
 12 14  1  0  0  0  0
 12 17  1  0  0  0  0
 12 18  2  0  0  0  0
  1 20  1  0  0  0  0
  2 21  1  0  0  0  0
  3 22  1  0  0  0  0
  4 23  1  0  0  0  0
  5 24  1  0  0  0  0
  6 25  1  0  0  0  0
 13 26  1  0  0  0  0
 13 27  1  0  0  0  0
 13 28  1  0  0  0  0
 14 29  1  0  0  0  0
 14 30  1  0  0  0  0
 16 31  1  0  0  0  0
 16 32  1  0  0  0  0
 17 33  1  0  0  0  0
M  END
> <compound>
EDG-MED-0da5ad92-17

> <compound_smiles>
Cc1cc(ncc1NC(=O)Cc2cccc(c2)Cl)N

> <enantiomer_smiles>
Cc1cc(ncc1NC(=O)Cc2cccc(c2)Cl)N

> <scaffold>
chlorobenzene-linker

> <canonical_CID>
EDG-MED-0da5ad92-17

> <r_inhibition_at_20_uM>

> <r_inhibition_at_50_uM>

> <r_avg_IC50>
99.0

> <f_inhibition_at_20_uM>

> <f_inhibition_at_50_uM>

> <f_avg_IC50>
99.5

> <f_avg_pIC50>

> <relative_solubility_at_20_uM>

> <relative_solubility_at_100_uM>

> <trypsin_IC50>

> <NMR_std_ratio>

> <acrylamide>
False

> <chloroacetamide>
False

> <series>
3-aminopyridine-like

> <frag_id>

> <clash_score>
0

> <docking_score>
-10.24506664276123

> <overlap_score>
0.8684378266334534

> <MMFF_internal_energy>
31.7144712601482

> <docked_smiles>
Cc1cc(ncc1NC(=O)Cc2cccc(c2)Cl)N

$$$$
BAR-COM-ebf5acce-2_1
  -OEChem-07262101013D

 39 41  0     0  0  0  0  0  0999 V2000
   11.9780    0.4600   23.9150 C   0  0  0  0  0  0  0  0  0  0  0  0
   10.6560    0.0720   23.7350 C   0  0  0  0  0  0  0  0  0  0  0  0
   12.9840   -0.1200   23.1530 C   0  0  0  0  0  0  0  0  0  0  0  0
    5.2805    1.6600   18.6931 C   0  0  0  0  0  0  0  0  0  0  0  0
   11.3360   -1.5050   22.0650 C   0  0  0  0  0  0  0  0  0  0  0  0
    5.7608    1.3269   17.4369 C   0  0  0  0  0  0  0  0  0  0  0  0
    7.1472   -0.2904   18.2975 C   0  0  0  0  0  0  0  0  0  0  0  0
    7.1761   -3.2494   21.1121 C   0  0  0  0  0  0  0  0  0  0  0  0
    5.3374   -2.1125   21.5402 C   0  0  0  0  0  0  0  0  0  0  0  0
   10.3220   -0.8940   22.7910 C   0  0  0  0  0  0  0  0  0  0  0  0
    5.7806    0.9625   19.7871 C   0  0  0  0  0  0  0  0  0  0  0  0
    6.7321   -0.0329   19.5941 C   0  0  0  0  0  0  0  0  0  0  0  0
   12.6400   -1.1000   22.2390 C   0  0  0  0  0  0  0  0  0  0  0  0
    6.1719   -4.0704   21.5683 C   0  0  0  0  0  0  0  0  0  0  0  0
    8.3880   -0.3240   21.3070 C   0  0  0  0  0  0  0  0  0  0  0  0
    5.2808    1.3015   21.1531 C   0  0  0  0  0  0  0  0  0  0  0  0
    8.8810   -1.1900   22.4510 C   0  0  0  0  0  0  0  0  0  0  0  0
    6.6845    0.3662   17.2100 N   0  0  0  0  0  0  0  0  0  0  0  0
    5.0299   -3.3566   21.8327 N   0  0  0  0  0  0  0  0  0  0  0  0
    6.6265   -1.9984   21.0991 N   0  0  0  0  0  0  0  0  0  0  0  0
    7.2820   -0.7860   20.6970 N   0  0  0  0  0  0  0  0  0  0  0  0
    8.9170    0.7530   21.0260 O   0  0  0  0  0  0  0  0  0  0  0  0
    6.3214   -5.3960   21.7239 O   0  0  0  0  0  0  0  0  0  0  0  0
   13.8840   -1.8490   21.2740 Cl  0  0  0  0  0  0  0  0  0  0  0  0
   12.2249    1.2198   24.6546 H   0  0  0  0  0  0  0  0  0  0  0  0
    9.8763    0.5350   24.3454 H   0  0  0  0  0  0  0  0  0  0  0  0
   14.0077    0.1988   23.2842 H   0  0  0  0  0  0  0  0  0  0  0  0
    4.5380    2.4421   18.8097 H   0  0  0  0  0  0  0  0  0  0  0  0
   11.0892   -2.3009   21.3624 H   0  0  0  0  0  0  0  0  0  0  0  0
    5.4029    1.8414   16.5512 H   0  0  0  0  0  0  0  0  0  0  0  0
    7.8872   -1.0556   18.0825 H   0  0  0  0  0  0  0  0  0  0  0  0
    8.1960   -3.4403   20.8069 H   0  0  0  0  0  0  0  0  0  0  0  0
    4.6743   -1.2623   21.6271 H   0  0  0  0  0  0  0  0  0  0  0  0
    4.4041    0.6913   21.3990 H   0  0  0  0  0  0  0  0  0  0  0  0
    6.0529    1.1263   21.9124 H   0  0  0  0  0  0  0  0  0  0  0  0
    5.0005    2.3599   21.2211 H   0  0  0  0  0  0  0  0  0  0  0  0
    8.7677   -2.2426   22.1594 H   0  0  0  0  0  0  0  0  0  0  0  0
    8.2845   -1.0393   23.3596 H   0  0  0  0  0  0  0  0  0  0  0  0
    7.2209   -5.6830   21.4731 H   0  0  0  0  0  0  0  0  0  0  0  0
  1  2  2  0  0  0  0
  1  3  1  0  0  0  0
  2 10  1  0  0  0  0
  3 13  2  0  0  0  0
  4  6  2  0  0  0  0
  4 11  1  0  0  0  0
  5 10  2  0  0  0  0
  5 13  1  0  0  0  0
  6 18  1  0  0  0  0
  7 12  1  0  0  0  0
  7 18  2  0  0  0  0
  8 14  2  0  0  0  0
  8 20  1  0  0  0  0
  9 19  2  0  0  0  0
  9 20  1  0  0  0  0
 10 17  1  0  0  0  0
 11 12  2  0  0  0  0
 11 16  1  0  0  0  0
 12 21  1  0  0  0  0
 13 24  1  0  0  0  0
 14 19  1  0  0  0  0
 14 23  1  0  0  0  0
 15 17  1  0  0  0  0
 15 21  1  0  0  0  0
 15 22  2  0  0  0  0
 20 21  1  0  0  0  0
  1 25  1  0  0  0  0
  2 26  1  0  0  0  0
  3 27  1  0  0  0  0
  4 28  1  0  0  0  0
  5 29  1  0  0  0  0
  6 30  1  0  0  0  0
  7 31  1  0  0  0  0
  8 32  1  0  0  0  0
  9 33  1  0  0  0  0
 16 34  1  0  0  0  0
 16 35  1  0  0  0  0
 16 36  1  0  0  0  0
 17 37  1  0  0  0  0
 17 38  1  0  0  0  0
 23 39  1  0  0  0  0
M  END
> <compound>
BAR-COM-ebf5acce-2

> <compound_smiles>
Cc1ccncc1N(C(=O)Cc2cccc(c2)Cl)n3cc(nc3)O

> <enantiomer_smiles>
Cc1ccncc1N(C(=O)Cc2cccc(c2)Cl)n3cc(nc3)O

> <scaffold>
chlorobenzene-linker

> <clash_score>
0.6233098004545581

> <docking_score>
-7.592348098754883

> <overlap_score>
0.8536045551300049

> <MMFF_internal_energy>
60.78636419836638

> <docked_smiles>
Cc1ccncc1N(C(=O)Cc2cccc(c2)Cl)n3cc(nc3)O

$$$$
EDG-MED-0da5ad92-16_1
  -OEChem-07262101013D

 30 31  0     0  0  0  0  0  0999 V2000
   11.9780    0.4600   23.9150 C   0  0  0  0  0  0  0  0  0  0  0  0
   10.6560    0.0720   23.7350 C   0  0  0  0  0  0  0  0  0  0  0  0
   12.9840   -0.1200   23.1530 C   0  0  0  0  0  0  0  0  0  0  0  0
   11.3360   -1.5050   22.0650 C   0  0  0  0  0  0  0  0  0  0  0  0
    4.6713    0.7421   18.5936 C   0  0  0  0  0  0  0  0  0  0  0  0
    7.2329   -0.0076   18.4016 C   0  0  0  0  0  0  0  0  0  0  0  0
   10.3220   -0.8940   22.7910 C   0  0  0  0  0  0  0  0  0  0  0  0
    5.2661    0.1833   19.7069 C   0  0  0  0  0  0  0  0  0  0  0  0
    6.5908   -0.2043   19.6076 C   0  0  0  0  0  0  0  0  0  0  0  0
   12.6400   -1.1000   22.2390 C   0  0  0  0  0  0  0  0  0  0  0  0
    8.3880   -0.3240   21.3070 C   0  0  0  0  0  0  0  0  0  0  0  0
    4.4834    0.0139   20.9633 C   0  0  0  0  0  0  0  0  0  0  0  0
    8.8810   -1.1900   22.4510 C   0  0  0  0  0  0  0  0  0  0  0  0
    5.3240    0.9228   17.4259 N   0  0  0  0  0  0  0  0  0  0  0  0
    6.6258    0.5415   17.3283 N   0  0  0  0  0  0  0  0  0  0  0  0
    7.2820   -0.7860   20.6970 N   0  0  0  0  0  0  0  0  0  0  0  0
    8.9170    0.7530   21.0260 O   0  0  0  0  0  0  0  0  0  0  0  0
   13.8840   -1.8490   21.2740 Cl  0  0  0  0  0  0  0  0  0  0  0  0
   12.2249    1.2198   24.6546 H   0  0  0  0  0  0  0  0  0  0  0  0
    9.8763    0.5350   24.3454 H   0  0  0  0  0  0  0  0  0  0  0  0
   14.0077    0.1988   23.2842 H   0  0  0  0  0  0  0  0  0  0  0  0
   11.0892   -2.3009   21.3624 H   0  0  0  0  0  0  0  0  0  0  0  0
    3.6373    1.0688   18.5990 H   0  0  0  0  0  0  0  0  0  0  0  0
    8.2700   -0.2868   18.2499 H   0  0  0  0  0  0  0  0  0  0  0  0
    3.9855   -0.9639   20.9760 H   0  0  0  0  0  0  0  0  0  0  0  0
    5.1286    0.0860   21.8492 H   0  0  0  0  0  0  0  0  0  0  0  0
    3.7174    0.7945   21.0655 H   0  0  0  0  0  0  0  0  0  0  0  0
    8.7709   -2.2387   22.1706 H   0  0  0  0  0  0  0  0  0  0  0  0
    8.2491   -1.0157   23.3232 H   0  0  0  0  0  0  0  0  0  0  0  0
    6.8973   -1.6552   21.0612 H   0  0  0  0  0  0  0  0  0  0  0  0
  1  2  2  0  0  0  0
  1  3  1  0  0  0  0
  2  7  1  0  0  0  0
  3 10  2  0  0  0  0
  4  7  2  0  0  0  0
  4 10  1  0  0  0  0
  5  8  1  0  0  0  0
  5 14  2  0  0  0  0
  6  9  1  0  0  0  0
  6 15  2  0  0  0  0
  7 13  1  0  0  0  0
  8  9  2  0  0  0  0
  8 12  1  0  0  0  0
  9 16  1  0  0  0  0
 10 18  1  0  0  0  0
 11 13  1  0  0  0  0
 11 16  1  0  0  0  0
 11 17  2  0  0  0  0
 14 15  1  0  0  0  0
  1 19  1  0  0  0  0
  2 20  1  0  0  0  0
  3 21  1  0  0  0  0
  4 22  1  0  0  0  0
  5 23  1  0  0  0  0
  6 24  1  0  0  0  0
 12 25  1  0  0  0  0
 12 26  1  0  0  0  0
 12 27  1  0  0  0  0
 13 28  1  0  0  0  0
 13 29  1  0  0  0  0
 16 30  1  0  0  0  0
M  END
> <compound>
EDG-MED-0da5ad92-16

> <compound_smiles>
Cc1cnncc1NC(=O)Cc2cccc(c2)Cl

> <enantiomer_smiles>
Cc1cnncc1NC(=O)Cc2cccc(c2)Cl

> <scaffold>
chlorobenzene-linker

> <clash_score>
0

> <docking_score>
-8.192459106445312

> <overlap_score>
0.8339344263076782

> <MMFF_internal_energy>
67.56402497819005

> <docked_smiles>
Cc1cnncc1NC(=O)Cc2cccc(c2)Cl

$$$$
BAR-COM-ebf5acce-6_1
  -OEChem-07262101013D

 50 51  0     1  0  0  0  0  0999 V2000
   11.9780    0.4600   23.9150 C   0  0  0  0  0  0  0  0  0  0  0  0
   10.6560    0.0720   23.7350 C   0  0  0  0  0  0  0  0  0  0  0  0
   12.9840   -0.1200   23.1530 C   0  0  0  0  0  0  0  0  0  0  0  0
    4.9753    1.7380   19.1323 C   0  0  0  0  0  0  0  0  0  0  0  0
   11.3360   -1.5050   22.0650 C   0  0  0  0  0  0  0  0  0  0  0  0
    5.3984    1.6088   17.8192 C   0  0  0  0  0  0  0  0  0  0  0  0
    6.9512    0.0120   18.3826 C   0  0  0  0  0  0  0  0  0  0  0  0
   10.3220   -0.8940   22.7910 C   0  0  0  0  0  0  0  0  0  0  0  0
    5.5932    0.9485   20.0958 C   0  0  0  0  0  0  0  0  0  0  0  0
    6.6010    0.0665   19.7220 C   0  0  0  0  0  0  0  0  0  0  0  0
   12.6400   -1.1000   22.2390 C   0  0  0  0  0  0  0  0  0  0  0  0
    8.3880   -0.3240   21.3070 C   0  0  0  0  0  0  0  0  0  0  0  0
    5.1572    1.0678   21.5193 C   0  0  0  0  0  0  0  0  0  0  0  0
    6.4088   -4.6138   22.1970 C   0  0  0  0  0  0  0  0  0  0  0  0
    8.3504   -5.3904   20.8153 C   0  0  0  0  0  0  0  0  0  0  0  0
    8.8810   -1.1900   22.4510 C   0  0  0  0  0  0  0  0  0  0  0  0
    6.6652   -2.0452   21.0270 C   0  0  0  0  0  0  0  0  0  0  0  0
    7.2231   -3.1990   20.1904 C   0  0  1  0  0  0  0  0  0  0  0  0
    7.0281   -4.6121   20.7946 C   0  0  0  0  0  0  0  0  0  0  0  0
    6.3739    0.7632   17.4181 N   0  0  0  0  0  0  0  0  0  0  0  0
    7.2820   -0.7860   20.6970 N   0  0  0  0  0  0  0  0  0  0  0  0
    6.5711   -3.1432   18.8408 N   0  3  0  0  0  0  0  0  0  0  0  0
    8.9170    0.7530   21.0260 O   0  0  0  0  0  0  0  0  0  0  0  0
    6.1424   -5.3260   19.9186 O   0  0  0  0  0  0  0  0  0  0  0  0
   13.8840   -1.8490   21.2740 Cl  0  0  0  0  0  0  0  0  0  0  0  0
   12.2249    1.2198   24.6546 H   0  0  0  0  0  0  0  0  0  0  0  0
    9.8763    0.5350   24.3454 H   0  0  0  0  0  0  0  0  0  0  0  0
   14.0077    0.1988   23.2842 H   0  0  0  0  0  0  0  0  0  0  0  0
    4.1863    2.4359   19.3909 H   0  0  0  0  0  0  0  0  0  0  0  0
   11.0892   -2.3009   21.3624 H   0  0  0  0  0  0  0  0  0  0  0  0
    4.9486    2.2021   17.0299 H   0  0  0  0  0  0  0  0  0  0  0  0
    7.7302   -0.6569   18.0289 H   0  0  0  0  0  0  0  0  0  0  0  0
    4.3448    0.3621   21.7281 H   0  0  0  0  0  0  0  0  0  0  0  0
    5.9864    0.8596   22.2065 H   0  0  0  0  0  0  0  0  0  0  0  0
    4.8049    2.0826   21.7421 H   0  0  0  0  0  0  0  0  0  0  0  0
    5.4612   -4.0678   22.2276 H   0  0  0  0  0  0  0  0  0  0  0  0
    7.0894   -4.1472   22.9194 H   0  0  0  0  0  0  0  0  0  0  0  0
    6.2421   -5.6323   22.5627 H   0  0  0  0  0  0  0  0  0  0  0  0
    8.8122   -5.4025   19.8209 H   0  0  0  0  0  0  0  0  0  0  0  0
    8.2147   -6.4278   21.1351 H   0  0  0  0  0  0  0  0  0  0  0  0
    9.0740   -4.9095   21.4833 H   0  0  0  0  0  0  0  0  0  0  0  0
    8.8006   -2.2403   22.1717 H   0  0  0  0  0  0  0  0  0  0  0  0
    8.2668   -1.0117   23.3332 H   0  0  0  0  0  0  0  0  0  0  0  0
    6.8515   -2.2017   22.0928 H   0  0  0  0  0  0  0  0  0  0  0  0
    5.5872   -1.9229   20.8816 H   0  0  0  0  0  0  0  0  0  0  0  0
    8.2881   -3.0366   19.9820 H   0  0  0  0  0  0  0  0  0  0  0  0
    6.8191   -2.2746   18.3673 H   0  0  0  0  0  0  0  0  0  0  0  0
    5.5568   -3.1862   18.9399 H   0  0  0  0  0  0  0  0  0  0  0  0
    6.8799   -3.9296   18.2694 H   0  0  0  0  0  0  0  0  0  0  0  0
    6.0737   -6.2196   20.2810 H   0  0  0  0  0  0  0  0  0  0  0  0
  1  2  2  0  0  0  0
  1  3  1  0  0  0  0
  2  8  1  0  0  0  0
  3 11  2  0  0  0  0
  4  6  2  0  0  0  0
  4  9  1  0  0  0  0
  5  8  2  0  0  0  0
  5 11  1  0  0  0  0
  6 20  1  0  0  0  0
  7 10  1  0  0  0  0
  7 20  2  0  0  0  0
  8 16  1  0  0  0  0
  9 10  2  0  0  0  0
  9 13  1  0  0  0  0
 10 21  1  0  0  0  0
 11 25  1  0  0  0  0
 12 16  1  0  0  0  0
 12 21  1  0  0  0  0
 12 23  2  0  0  0  0
 14 19  1  0  0  0  0
 15 19  1  0  0  0  0
 17 18  1  0  0  0  0
 17 21  1  0  0  0  0
 18 19  1  0  0  0  0
 18 22  1  0  0  0  0
 19 24  1  0  0  0  0
  1 26  1  0  0  0  0
  2 27  1  0  0  0  0
  3 28  1  0  0  0  0
  4 29  1  0  0  0  0
  5 30  1  0  0  0  0
  6 31  1  0  0  0  0
  7 32  1  0  0  0  0
 13 33  1  0  0  0  0
 13 34  1  0  0  0  0
 13 35  1  0  0  0  0
 14 36  1  0  0  0  0
 14 37  1  0  0  0  0
 14 38  1  0  0  0  0
 15 39  1  0  0  0  0
 15 40  1  0  0  0  0
 15 41  1  0  0  0  0
 16 42  1  0  0  0  0
 16 43  1  0  0  0  0
 17 44  1  0  0  0  0
 17 45  1  0  0  0  0
 18 46  1  0  0  0  0
 22 47  1  0  0  0  0
 22 48  1  0  0  0  0
 22 49  1  0  0  0  0
 24 50  1  0  0  0  0
M  CHG  1  22   1
M  END
> <compound>
BAR-COM-ebf5acce-6

> <compound_smiles>
Cc1ccncc1N(C[C@@H](C(C)(C)O)N)C(=O)Cc2cccc(c2)Cl

> <enantiomer_smiles>
Cc1ccncc1N(C[C@@H](C(C)(C)O)N)C(=O)Cc2cccc(c2)Cl

> <scaffold>
chlorobenzene-linker

> <clash_score>
1.401091317420562

> <docking_score>
-5.123027324676514

> <overlap_score>
0.8659058213233948

> <MMFF_internal_energy>
153.2288362757119

> <docked_smiles>
Cc1ccncc1N(C[C@@H](C(C)(C)O)[NH3+])C(=O)Cc2cccc(c2)Cl

$$$$
BAR-COM-ebf5acce-10_1
  -OEChem-07262101013D

 47 48  0     1  0  0  0  0  0999 V2000
   11.9780    0.4600   23.9150 C   0  0  0  0  0  0  0  0  0  0  0  0
   10.6560    0.0720   23.7350 C   0  0  0  0  0  0  0  0  0  0  0  0
   12.9840   -0.1200   23.1530 C   0  0  0  0  0  0  0  0  0  0  0  0
    4.9815    1.7451   19.1325 C   0  0  0  0  0  0  0  0  0  0  0  0
   11.3360   -1.5050   22.0650 C   0  0  0  0  0  0  0  0  0  0  0  0
    5.4057    1.6169   17.8197 C   0  0  0  0  0  0  0  0  0  0  0  0
    6.9547    0.0163   18.3826 C   0  0  0  0  0  0  0  0  0  0  0  0
   10.3220   -0.8940   22.7910 C   0  0  0  0  0  0  0  0  0  0  0  0
    5.5968    0.9532   20.0956 C   0  0  0  0  0  0  0  0  0  0  0  0
    6.6032    0.0697   19.7218 C   0  0  0  0  0  0  0  0  0  0  0  0
   12.6400   -1.1000   22.2390 C   0  0  0  0  0  0  0  0  0  0  0  0
    8.3880   -0.3240   21.3070 C   0  0  0  0  0  0  0  0  0  0  0  0
    5.1595    1.0715   21.5188 C   0  0  0  0  0  0  0  0  0  0  0  0
    8.8810   -1.1900   22.4510 C   0  0  0  0  0  0  0  0  0  0  0  0
    7.2329   -3.1811   20.1809 C   0  0  0  0  0  0  0  0  0  0  0  0
    6.6649   -2.0430   21.0252 C   0  0  0  0  0  0  0  0  0  0  0  0
    5.0805   -4.5027   20.3226 C   0  0  0  0  0  0  0  0  0  0  0  0
    6.5978   -4.5416   20.4843 C   0  0  2  0  0  0  0  0  0  0  0  0
    6.3799    0.7698   17.4185 N   0  0  0  0  0  0  0  0  0  0  0  0
    7.2820   -0.7860   20.6970 N   0  0  0  0  0  0  0  0  0  0  0  0
    6.8972   -4.9311   21.8941 N   0  3  0  0  0  0  0  0  0  0  0  0
    8.9170    0.7530   21.0260 O   0  0  0  0  0  0  0  0  0  0  0  0
    4.7539   -4.1342   18.9880 O   0  0  0  0  0  0  0  0  0  0  0  0
   13.8840   -1.8490   21.2740 Cl  0  0  0  0  0  0  0  0  0  0  0  0
   12.2249    1.2198   24.6546 H   0  0  0  0  0  0  0  0  0  0  0  0
    9.8763    0.5350   24.3454 H   0  0  0  0  0  0  0  0  0  0  0  0
   14.0077    0.1988   23.2842 H   0  0  0  0  0  0  0  0  0  0  0  0
    4.1936    2.4443   19.3912 H   0  0  0  0  0  0  0  0  0  0  0  0
   11.0892   -2.3009   21.3624 H   0  0  0  0  0  0  0  0  0  0  0  0
    4.9579    2.2121   17.0307 H   0  0  0  0  0  0  0  0  0  0  0  0
    7.7328   -0.6537   18.0288 H   0  0  0  0  0  0  0  0  0  0  0  0
    4.3455    0.3671   21.7258 H   0  0  0  0  0  0  0  0  0  0  0  0
    5.9876    0.8608   22.2066 H   0  0  0  0  0  0  0  0  0  0  0  0
    4.8089    2.0867   21.7425 H   0  0  0  0  0  0  0  0  0  0  0  0
    8.8006   -2.2403   22.1717 H   0  0  0  0  0  0  0  0  0  0  0  0
    8.2668   -1.0117   23.3332 H   0  0  0  0  0  0  0  0  0  0  0  0
    8.3212   -3.2301   20.3193 H   0  0  0  0  0  0  0  0  0  0  0  0
    7.0726   -2.9458   19.1204 H   0  0  0  0  0  0  0  0  0  0  0  0
    5.5893   -1.9297   20.8584 H   0  0  0  0  0  0  0  0  0  0  0  0
    6.8368   -2.2120   22.0921 H   0  0  0  0  0  0  0  0  0  0  0  0
    4.6186   -3.7850   21.0093 H   0  0  0  0  0  0  0  0  0  0  0  0
    4.6504   -5.4921   20.5099 H   0  0  0  0  0  0  0  0  0  0  0  0
    7.0302   -5.3315   19.8602 H   0  0  0  0  0  0  0  0  0  0  0  0
    6.7177   -5.9274   22.0356 H   0  0  0  0  0  0  0  0  0  0  0  0
    6.3111   -4.4012   22.5430 H   0  0  0  0  0  0  0  0  0  0  0  0
    7.8774   -4.7439   22.1162 H   0  0  0  0  0  0  0  0  0  0  0  0
    3.7852   -4.1222   18.9312 H   0  0  0  0  0  0  0  0  0  0  0  0
  1  2  2  0  0  0  0
  1  3  1  0  0  0  0
  2  8  1  0  0  0  0
  3 11  2  0  0  0  0
  4  6  2  0  0  0  0
  4  9  1  0  0  0  0
  5  8  2  0  0  0  0
  5 11  1  0  0  0  0
  6 19  1  0  0  0  0
  7 10  1  0  0  0  0
  7 19  2  0  0  0  0
  8 14  1  0  0  0  0
  9 10  2  0  0  0  0
  9 13  1  0  0  0  0
 10 20  1  0  0  0  0
 11 24  1  0  0  0  0
 12 14  1  0  0  0  0
 12 20  1  0  0  0  0
 12 22  2  0  0  0  0
 15 16  1  0  0  0  0
 15 18  1  0  0  0  0
 16 20  1  0  0  0  0
 17 18  1  0  0  0  0
 17 23  1  0  0  0  0
 18 21  1  0  0  0  0
  1 25  1  0  0  0  0
  2 26  1  0  0  0  0
  3 27  1  0  0  0  0
  4 28  1  0  0  0  0
  5 29  1  0  0  0  0
  6 30  1  0  0  0  0
  7 31  1  0  0  0  0
 13 32  1  0  0  0  0
 13 33  1  0  0  0  0
 13 34  1  0  0  0  0
 14 35  1  0  0  0  0
 14 36  1  0  0  0  0
 15 37  1  0  0  0  0
 15 38  1  0  0  0  0
 16 39  1  0  0  0  0
 16 40  1  0  0  0  0
 17 41  1  0  0  0  0
 17 42  1  0  0  0  0
 18 43  1  0  0  0  0
 21 44  1  0  0  0  0
 21 45  1  0  0  0  0
 21 46  1  0  0  0  0
 23 47  1  0  0  0  0
M  CHG  1  21   1
M  END
> <compound>
BAR-COM-ebf5acce-10

> <compound_smiles>
Cc1ccncc1N(CC[C@H](CO)N)C(=O)Cc2cccc(c2)Cl

> <enantiomer_smiles>
Cc1ccncc1N(CC[C@H](CO)N)C(=O)Cc2cccc(c2)Cl

> <scaffold>
chlorobenzene-linker

> <clash_score>
2.6743483738209233

> <docking_score>
-6.177156448364258

> <overlap_score>
0.8663111925125122

> <MMFF_internal_energy>
134.77137711214326

> <docked_smiles>
Cc1ccncc1N(CC[C@H](CO)[NH3+])C(=O)Cc2cccc(c2)Cl

$$$$
EDJ-MED-49816e9b-2_1
  -OEChem-07262101013D

 34 35  0     0  0  0  0  0  0999 V2000
   11.9780    0.4600   23.9150 C   0  0  0  0  0  0  0  0  0  0  0  0
   10.6560    0.0720   23.7350 C   0  0  0  0  0  0  0  0  0  0  0  0
   12.9840   -0.1200   23.1530 C   0  0  0  0  0  0  0  0  0  0  0  0
    4.6045    0.7478   18.6420 C   0  0  0  0  0  0  0  0  0  0  0  0
   11.3360   -1.5050   22.0650 C   0  0  0  0  0  0  0  0  0  0  0  0
    5.3193    0.9112   17.4664 C   0  0  0  0  0  0  0  0  0  0  0  0
   10.3220   -0.8940   22.7910 C   0  0  0  0  0  0  0  0  0  0  0  0
    5.2596    0.1787   19.7284 C   0  0  0  0  0  0  0  0  0  0  0  0
    6.5908   -0.2043   19.6076 C   0  0  0  0  0  0  0  0  0  0  0  0
   12.6400   -1.1000   22.2390 C   0  0  0  0  0  0  0  0  0  0  0  0
    7.2167    0.0015   18.3887 C   0  0  0  0  0  0  0  0  0  0  0  0
    8.3880   -0.3240   21.3070 C   0  0  0  0  0  0  0  0  0  0  0  0
    4.5107   -0.0081   21.0073 C   0  0  0  0  0  0  0  0  0  0  0  0
    8.6465   -0.3881   18.1950 C   0  0  0  0  0  0  0  0  0  0  0  0
    8.8810   -1.1900   22.4510 C   0  0  0  0  0  0  0  0  0  0  0  0
    6.6132    0.5514   17.3112 N   0  0  0  0  0  0  0  0  0  0  0  0
    7.2820   -0.7860   20.6970 N   0  0  0  0  0  0  0  0  0  0  0  0
    8.9170    0.7530   21.0260 O   0  0  0  0  0  0  0  0  0  0  0  0
   13.8840   -1.8490   21.2740 Cl  0  0  0  0  0  0  0  0  0  0  0  0
   12.2249    1.2198   24.6546 H   0  0  0  0  0  0  0  0  0  0  0  0
    9.8763    0.5350   24.3454 H   0  0  0  0  0  0  0  0  0  0  0  0
   14.0077    0.1988   23.2842 H   0  0  0  0  0  0  0  0  0  0  0  0
    3.5665    1.0571   18.7031 H   0  0  0  0  0  0  0  0  0  0  0  0
   11.0892   -2.3009   21.3624 H   0  0  0  0  0  0  0  0  0  0  0  0
    4.8541    1.3497   16.5897 H   0  0  0  0  0  0  0  0  0  0  0  0
    4.0235   -0.9898   21.0219 H   0  0  0  0  0  0  0  0  0  0  0  0
    5.1809    0.0628   21.8727 H   0  0  0  0  0  0  0  0  0  0  0  0
    3.7432    0.7655   21.1334 H   0  0  0  0  0  0  0  0  0  0  0  0
    8.7123   -1.4212   17.8358 H   0  0  0  0  0  0  0  0  0  0  0  0
    9.1399    0.2679   17.4678 H   0  0  0  0  0  0  0  0  0  0  0  0
    9.2090   -0.3065   19.1330 H   0  0  0  0  0  0  0  0  0  0  0  0
    8.7709   -2.2387   22.1706 H   0  0  0  0  0  0  0  0  0  0  0  0
    8.2491   -1.0157   23.3232 H   0  0  0  0  0  0  0  0  0  0  0  0
    6.8973   -1.6552   21.0612 H   0  0  0  0  0  0  0  0  0  0  0  0
  1  2  2  0  0  0  0
  1  3  1  0  0  0  0
  2  7  1  0  0  0  0
  3 10  2  0  0  0  0
  4  6  2  0  0  0  0
  4  8  1  0  0  0  0
  5  7  2  0  0  0  0
  5 10  1  0  0  0  0
  6 16  1  0  0  0  0
  7 15  1  0  0  0  0
  8  9  2  0  0  0  0
  8 13  1  0  0  0  0
  9 11  1  0  0  0  0
  9 17  1  0  0  0  0
 10 19  1  0  0  0  0
 11 14  1  0  0  0  0
 11 16  2  0  0  0  0
 12 15  1  0  0  0  0
 12 17  1  0  0  0  0
 12 18  2  0  0  0  0
  1 20  1  0  0  0  0
  2 21  1  0  0  0  0
  3 22  1  0  0  0  0
  4 23  1  0  0  0  0
  5 24  1  0  0  0  0
  6 25  1  0  0  0  0
 13 26  1  0  0  0  0
 13 27  1  0  0  0  0
 13 28  1  0  0  0  0
 14 29  1  0  0  0  0
 14 30  1  0  0  0  0
 14 31  1  0  0  0  0
 15 32  1  0  0  0  0
 15 33  1  0  0  0  0
 17 34  1  0  0  0  0
M  END
> <compound>
EDJ-MED-49816e9b-2

> <compound_smiles>
Cc1ccnc(c1NC(=O)Cc2cccc(c2)Cl)C

> <enantiomer_smiles>
Cc1ccnc(c1NC(=O)Cc2cccc(c2)Cl)C

> <scaffold>
chlorobenzene-linker

> <clash_score>
0

> <docking_score>
-7.928323745727539

> <overlap_score>
0.8419504761695862

> <MMFF_internal_energy>
80.34860139548036

> <docked_smiles>
Cc1ccnc(c1NC(=O)Cc2cccc(c2)Cl)C

$$$$
EDG-MED-0da5ad92-5_2
  -OEChem-07262101013D

 35 36  0     1  0  0  0  0  0999 V2000
   11.9780    0.4600   23.9150 C   0  0  0  0  0  0  0  0  0  0  0  0
   10.6560    0.0720   23.7350 C   0  0  0  0  0  0  0  0  0  0  0  0
   12.9840   -0.1200   23.1530 C   0  0  0  0  0  0  0  0  0  0  0  0
    4.9141    1.2577   18.6938 C   0  0  0  0  0  0  0  0  0  0  0  0
   11.3360   -1.5050   22.0650 C   0  0  0  0  0  0  0  0  0  0  0  0
    5.3208    0.8484   17.4341 C   0  0  0  0  0  0  0  0  0  0  0  0
    6.9210   -0.5500   18.3072 C   0  0  0  0  0  0  0  0  0  0  0  0
   10.3220   -0.8940   22.7910 C   0  0  0  0  0  0  0  0  0  0  0  0
    5.5655    0.7157   19.7961 C   0  0  0  0  0  0  0  0  0  0  0  0
    6.5893   -0.2061   19.6078 C   0  0  0  0  0  0  0  0  0  0  0  0
   12.6400   -1.1000   22.2390 C   0  0  0  0  0  0  0  0  0  0  0  0
    8.3880   -0.3240   21.3070 C   0  0  0  0  0  0  0  0  0  0  0  0
    5.1477    1.1397   21.1659 C   0  0  0  0  0  0  0  0  0  0  0  0
    7.9336   -1.0514   23.6611 C   0  0  0  0  0  0  0  0  0  0  0  0
    8.8810   -1.1900   22.4510 C   0  0  2  0  0  0  0  0  0  0  0  0
    6.3110   -0.0447   17.2116 N   0  0  0  0  0  0  0  0  0  0  0  0
    7.2820   -0.7860   20.6970 N   0  0  0  0  0  0  0  0  0  0  0  0
    8.9170    0.7530   21.0260 O   0  0  0  0  0  0  0  0  0  0  0  0
    6.7422   -1.7956   23.4264 O   0  0  0  0  0  0  0  0  0  0  0  0
   13.8840   -1.8490   21.2740 Cl  0  0  0  0  0  0  0  0  0  0  0  0
   12.2249    1.2198   24.6546 H   0  0  0  0  0  0  0  0  0  0  0  0
    9.8763    0.5350   24.3454 H   0  0  0  0  0  0  0  0  0  0  0  0
   14.0077    0.1988   23.2842 H   0  0  0  0  0  0  0  0  0  0  0  0
    4.1118    1.9790   18.8064 H   0  0  0  0  0  0  0  0  0  0  0  0
   11.0892   -2.3009   21.3624 H   0  0  0  0  0  0  0  0  0  0  0  0
    4.8448    1.2415   16.5418 H   0  0  0  0  0  0  0  0  0  0  0  0
    7.7111   -1.2644   18.0956 H   0  0  0  0  0  0  0  0  0  0  0  0
    4.3563    0.4813   21.5424 H   0  0  0  0  0  0  0  0  0  0  0  0
    5.9919    1.1072   21.8656 H   0  0  0  0  0  0  0  0  0  0  0  0
    4.7736    2.1710   21.1646 H   0  0  0  0  0  0  0  0  0  0  0  0
    8.3911   -1.4513   24.5725 H   0  0  0  0  0  0  0  0  0  0  0  0
    7.6549   -0.0061   23.8346 H   0  0  0  0  0  0  0  0  0  0  0  0
    8.8290   -2.2440   22.1229 H   0  0  0  0  0  0  0  0  0  0  0  0
    6.8798   -1.6496   21.0549 H   0  0  0  0  0  0  0  0  0  0  0  0
    6.1807   -1.6737   24.2080 H   0  0  0  0  0  0  0  0  0  0  0  0
  1  2  2  0  0  0  0
  1  3  1  0  0  0  0
  2  8  1  0  0  0  0
  3 11  2  0  0  0  0
  4  6  2  0  0  0  0
  4  9  1  0  0  0  0
  5  8  2  0  0  0  0
  5 11  1  0  0  0  0
  6 16  1  0  0  0  0
  7 10  1  0  0  0  0
  7 16  2  0  0  0  0
  8 15  1  0  0  0  0
  9 10  2  0  0  0  0
  9 13  1  0  0  0  0
 10 17  1  0  0  0  0
 11 20  1  0  0  0  0
 12 15  1  6  0  0  0
 12 17  1  0  0  0  0
 12 18  2  0  0  0  0
 14 15  1  0  0  0  0
 14 19  1  0  0  0  0
  1 21  1  0  0  0  0
  2 22  1  0  0  0  0
  3 23  1  0  0  0  0
  4 24  1  0  0  0  0
  5 25  1  0  0  0  0
  6 26  1  0  0  0  0
  7 27  1  0  0  0  0
 13 28  1  0  0  0  0
 13 29  1  0  0  0  0
 13 30  1  0  0  0  0
 14 31  1  0  0  0  0
 14 32  1  0  0  0  0
 15 33  1  0  0  0  0
 17 34  1  0  0  0  0
 19 35  1  0  0  0  0
M  END
> <compound>
EDG-MED-0da5ad92-5

> <compound_smiles>
Cc1ccncc1NC(=O)C(CO)c2cccc(c2)Cl

> <enantiomer_smiles>
Cc1ccncc1NC(=O)[C@H](CO)c2cccc(c2)Cl

> <scaffold>
chlorobenzene-linker

> <canonical_CID>
EDG-MED-0da5ad92-5

> <r_inhibition_at_20_uM>

> <r_inhibition_at_50_uM>

> <r_avg_IC50>
47.3187499181099

> <f_inhibition_at_20_uM>

> <f_inhibition_at_50_uM>

> <f_avg_IC50>
99.5

> <f_avg_pIC50>

> <relative_solubility_at_20_uM>

> <relative_solubility_at_100_uM>

> <trypsin_IC50>

> <NMR_std_ratio>

> <acrylamide>
False

> <chloroacetamide>
False

> <series>
3-aminopyridine-like

> <frag_id>
x11557

> <clash_score>
0

> <docking_score>
-10.456084251403809

> <overlap_score>
0.8687140345573425

> <MMFF_internal_energy>
88.39449941372094

> <docked_smiles>
Cc1ccncc1NC(=O)[C@H](CO)c2cccc(c2)Cl

$$$$
BAR-COM-ebf5acce-15_1
  -OEChem-07262101013D

 44 45  0     1  0  0  0  0  0999 V2000
   11.9780    0.4600   23.9150 C   0  0  0  0  0  0  0  0  0  0  0  0
   10.6560    0.0720   23.7350 C   0  0  0  0  0  0  0  0  0  0  0  0
   12.9840   -0.1200   23.1530 C   0  0  0  0  0  0  0  0  0  0  0  0
    4.9615    1.7218   19.1319 C   0  0  0  0  0  0  0  0  0  0  0  0
   11.3360   -1.5050   22.0650 C   0  0  0  0  0  0  0  0  0  0  0  0
    5.3820    1.5907   17.8182 C   0  0  0  0  0  0  0  0  0  0  0  0
    6.9432    0.0025   18.3825 C   0  0  0  0  0  0  0  0  0  0  0  0
   10.3220   -0.8940   22.7910 C   0  0  0  0  0  0  0  0  0  0  0  0
    5.5851    0.9380   20.0962 C   0  0  0  0  0  0  0  0  0  0  0  0
    6.5960    0.0593   19.7227 C   0  0  0  0  0  0  0  0  0  0  0  0
   12.6400   -1.1000   22.2390 C   0  0  0  0  0  0  0  0  0  0  0  0
    8.3880   -0.3240   21.3070 C   0  0  0  0  0  0  0  0  0  0  0  0
    5.1520    1.0595   21.5204 C   0  0  0  0  0  0  0  0  0  0  0  0
    8.8810   -1.1900   22.4510 C   0  0  0  0  0  0  0  0  0  0  0  0
    6.6661   -2.0502   21.0310 C   0  0  0  0  0  0  0  0  0  0  0  0
    6.6498   -3.2249   18.7770 C   0  0  0  0  0  0  0  0  0  0  0  0
    7.2380   -3.1903   20.1855 C   0  0  2  0  0  0  0  0  0  0  0  0
    6.3603    0.7482   17.4172 N   0  0  0  0  0  0  0  0  0  0  0  0
    7.2820   -0.7860   20.6970 N   0  0  0  0  0  0  0  0  0  0  0  0
    5.3400   -3.9270   18.8014 N   0  3  0  0  0  0  0  0  0  0  0  0
    8.9170    0.7530   21.0260 O   0  0  0  0  0  0  0  0  0  0  0  0
    6.9731   -4.4186   20.8623 O   0  0  0  0  0  0  0  0  0  0  0  0
   13.8840   -1.8490   21.2740 Cl  0  0  0  0  0  0  0  0  0  0  0  0
   12.2249    1.2198   24.6546 H   0  0  0  0  0  0  0  0  0  0  0  0
    9.8763    0.5350   24.3454 H   0  0  0  0  0  0  0  0  0  0  0  0
   14.0077    0.1988   23.2842 H   0  0  0  0  0  0  0  0  0  0  0  0
    4.1700    2.4170   19.3904 H   0  0  0  0  0  0  0  0  0  0  0  0
   11.0892   -2.3009   21.3624 H   0  0  0  0  0  0  0  0  0  0  0  0
    4.9277    2.1797   17.0283 H   0  0  0  0  0  0  0  0  0  0  0  0
    7.7244   -0.6640   18.0289 H   0  0  0  0  0  0  0  0  0  0  0  0
    4.3433    0.3508   21.7332 H   0  0  0  0  0  0  0  0  0  0  0  0
    5.9838    0.8570   22.2063 H   0  0  0  0  0  0  0  0  0  0  0  0
    4.7957    2.0733   21.7411 H   0  0  0  0  0  0  0  0  0  0  0  0
    8.8006   -2.2403   22.1717 H   0  0  0  0  0  0  0  0  0  0  0  0
    8.2668   -1.0117   23.3332 H   0  0  0  0  0  0  0  0  0  0  0  0
    6.8195   -2.2535   22.0958 H   0  0  0  0  0  0  0  0  0  0  0  0
    5.5884   -1.9622   20.8566 H   0  0  0  0  0  0  0  0  0  0  0  0
    7.2827   -3.7843   18.0822 H   0  0  0  0  0  0  0  0  0  0  0  0
    6.4468   -2.2244   18.3838 H   0  0  0  0  0  0  0  0  0  0  0  0
    8.3270   -3.0666   20.1432 H   0  0  0  0  0  0  0  0  0  0  0  0
    4.7102   -3.5480   18.0876 H   0  0  0  0  0  0  0  0  0  0  0  0
    4.8872   -3.8202   19.7145 H   0  0  0  0  0  0  0  0  0  0  0  0
    5.4602   -4.9284   18.6207 H   0  0  0  0  0  0  0  0  0  0  0  0
    7.4132   -4.3575   21.7236 H   0  0  0  0  0  0  0  0  0  0  0  0
  1  2  2  0  0  0  0
  1  3  1  0  0  0  0
  2  8  1  0  0  0  0
  3 11  2  0  0  0  0
  4  6  2  0  0  0  0
  4  9  1  0  0  0  0
  5  8  2  0  0  0  0
  5 11  1  0  0  0  0
  6 18  1  0  0  0  0
  7 10  1  0  0  0  0
  7 18  2  0  0  0  0
  8 14  1  0  0  0  0
  9 10  2  0  0  0  0
  9 13  1  0  0  0  0
 10 19  1  0  0  0  0
 11 23  1  0  0  0  0
 12 14  1  0  0  0  0
 12 19  1  0  0  0  0
 12 21  2  0  0  0  0
 15 17  1  0  0  0  0
 15 19  1  0  0  0  0
 16 17  1  0  0  0  0
 16 20  1  0  0  0  0
 17 22  1  0  0  0  0
  1 24  1  0  0  0  0
  2 25  1  0  0  0  0
  3 26  1  0  0  0  0
  4 27  1  0  0  0  0
  5 28  1  0  0  0  0
  6 29  1  0  0  0  0
  7 30  1  0  0  0  0
 13 31  1  0  0  0  0
 13 32  1  0  0  0  0
 13 33  1  0  0  0  0
 14 34  1  0  0  0  0
 14 35  1  0  0  0  0
 15 36  1  0  0  0  0
 15 37  1  0  0  0  0
 16 38  1  0  0  0  0
 16 39  1  0  0  0  0
 17 40  1  0  0  0  0
 20 41  1  0  0  0  0
 20 42  1  0  0  0  0
 20 43  1  0  0  0  0
 22 44  1  0  0  0  0
M  CHG  1  20   1
M  END
> <compound>
BAR-COM-ebf5acce-15

> <compound_smiles>
Cc1ccncc1N(C[C@H](CN)O)C(=O)Cc2cccc(c2)Cl

> <enantiomer_smiles>
Cc1ccncc1N(C[C@H](CN)O)C(=O)Cc2cccc(c2)Cl

> <scaffold>
chlorobenzene-linker

> <clash_score>
1.4312851585499238

> <docking_score>
-6.436799049377441

> <overlap_score>
0.8709436655044556

> <MMFF_internal_energy>
139.0489711095337

> <docked_smiles>
Cc1ccncc1N(C[C@H](C[NH3+])O)C(=O)Cc2cccc(c2)Cl

$$$$
EDJ-MED-49816e9b-5_1
  -OEChem-07262101013D

 31 32  0     0  0  0  0  0  0999 V2000
   11.9780    0.4600   23.9150 C   0  0  0  0  0  0  0  0  0  0  0  0
   10.6560    0.0720   23.7350 C   0  0  0  0  0  0  0  0  0  0  0  0
   12.9840   -0.1200   23.1530 C   0  0  0  0  0  0  0  0  0  0  0  0
   11.3360   -1.5050   22.0650 C   0  0  0  0  0  0  0  0  0  0  0  0
   10.3220   -0.8940   22.7910 C   0  0  0  0  0  0  0  0  0  0  0  0
   12.6400   -1.1000   22.2390 C   0  0  0  0  0  0  0  0  0  0  0  0
    5.4154    0.9415   20.5159 C   0  0  0  0  0  0  0  0  0  0  0  0
    6.2693   -0.0307   20.0591 C   0  0  0  0  0  0  0  0  0  0  0  0
    8.3880   -0.3240   21.3070 C   0  0  0  0  0  0  0  0  0  0  0  0
    5.2930    1.5160   21.8629 C   0  0  0  0  0  0  0  0  0  0  0  0
    6.5118   -1.0369   17.7586 C   0  0  0  0  0  0  0  0  0  0  0  0
    8.8810   -1.1900   22.4510 C   0  0  0  0  0  0  0  0  0  0  0  0
    4.6140    1.3667   19.4930 N   0  0  0  0  0  0  0  0  0  0  0  0
    4.9449    0.6822   18.4035 N   0  0  0  0  0  0  0  0  0  0  0  0
    5.9375   -0.1552   18.7451 N   0  0  0  0  0  0  0  0  0  0  0  0
    7.2820   -0.7860   20.6970 N   0  0  0  0  0  0  0  0  0  0  0  0
    8.9170    0.7530   21.0260 O   0  0  0  0  0  0  0  0  0  0  0  0
   13.8840   -1.8490   21.2740 Cl  0  0  0  0  0  0  0  0  0  0  0  0
   12.2249    1.2198   24.6546 H   0  0  0  0  0  0  0  0  0  0  0  0
    9.8763    0.5350   24.3454 H   0  0  0  0  0  0  0  0  0  0  0  0
   14.0077    0.1988   23.2842 H   0  0  0  0  0  0  0  0  0  0  0  0
   11.0892   -2.3009   21.3624 H   0  0  0  0  0  0  0  0  0  0  0  0
    5.9497    2.3954   21.9881 H   0  0  0  0  0  0  0  0  0  0  0  0
    4.2604    1.8410   22.0890 H   0  0  0  0  0  0  0  0  0  0  0  0
    5.5584    0.7909   22.6547 H   0  0  0  0  0  0  0  0  0  0  0  0
    5.9473   -1.9730   17.7734 H   0  0  0  0  0  0  0  0  0  0  0  0
    6.4501   -0.5690   16.7721 H   0  0  0  0  0  0  0  0  0  0  0  0
    7.5619   -1.2185   18.0038 H   0  0  0  0  0  0  0  0  0  0  0  0
    8.7709   -2.2387   22.1706 H   0  0  0  0  0  0  0  0  0  0  0  0
    8.2491   -1.0157   23.3232 H   0  0  0  0  0  0  0  0  0  0  0  0
    7.1590   -1.7964   20.6938 H   0  0  0  0  0  0  0  0  0  0  0  0
  1  2  2  0  0  0  0
  1  3  1  0  0  0  0
  2  5  1  0  0  0  0
  3  6  2  0  0  0  0
  4  5  2  0  0  0  0
  4  6  1  0  0  0  0
  5 12  1  0  0  0  0
  6 18  1  0  0  0  0
  7  8  2  0  0  0  0
  7 10  1  0  0  0  0
  7 13  1  0  0  0  0
  8 15  1  0  0  0  0
  8 16  1  0  0  0  0
  9 12  1  0  0  0  0
  9 16  1  0  0  0  0
  9 17  2  0  0  0  0
 11 15  1  0  0  0  0
 13 14  2  0  0  0  0
 14 15  1  0  0  0  0
  1 19  1  0  0  0  0
  2 20  1  0  0  0  0
  3 21  1  0  0  0  0
  4 22  1  0  0  0  0
 10 23  1  0  0  0  0
 10 24  1  0  0  0  0
 10 25  1  0  0  0  0
 11 26  1  0  0  0  0
 11 27  1  0  0  0  0
 11 28  1  0  0  0  0
 12 29  1  0  0  0  0
 12 30  1  0  0  0  0
 16 31  1  0  0  0  0
M  END
> <compound>
EDJ-MED-49816e9b-5

> <compound_smiles>
Cc1c(n(nn1)C)NC(=O)Cc2cccc(c2)Cl

> <enantiomer_smiles>
Cc1c(n(nn1)C)NC(=O)Cc2cccc(c2)Cl

> <scaffold>
chlorobenzene-linker

> <clash_score>
0

> <docking_score>
-6.779542446136475

> <overlap_score>
0.8410360813140869

> <MMFF_internal_energy>
74.87261820862304

> <docked_smiles>
Cc1c(n(nn1)C)NC(=O)Cc2cccc(c2)Cl

$$$$
TRY-UNI-9f475305-8_1
  -OEChem-07262101013D

 45 47  0     1  0  0  0  0  0999 V2000
   11.9780    0.4600   23.9150 C   0  0  0  0  0  0  0  0  0  0  0  0
   10.6560    0.0720   23.7350 C   0  0  0  0  0  0  0  0  0  0  0  0
   12.9840   -0.1200   23.1530 C   0  0  0  0  0  0  0  0  0  0  0  0
   11.3360   -1.5050   22.0650 C   0  0  0  0  0  0  0  0  0  0  0  0
    5.0525    1.0445   20.1366 C   0  0  0  0  0  0  0  0  0  0  0  0
   10.3220   -0.8940   22.7910 C   0  0  0  0  0  0  0  0  0  0  0  0
   12.6400   -1.1000   22.2390 C   0  0  0  0  0  0  0  0  0  0  0  0
    5.8451    0.4577   19.1350 C   0  0  0  0  0  0  0  0  0  0  0  0
    4.0462    1.6574   19.4382 C   0  0  0  0  0  0  0  0  0  0  0  0
    8.3880   -0.3240   21.3070 C   0  0  0  0  0  0  0  0  0  0  0  0
    6.2937   -1.6292   21.2842 C   0  0  0  0  0  0  0  0  0  0  0  0
    5.0333   -1.9634   24.9107 C   0  0  0  0  0  0  0  0  0  0  0  0
    3.9508   -1.4121   24.0316 C   0  0  0  0  0  0  0  0  0  0  0  0
    5.1251   -2.1239   23.4179 C   0  0  0  0  0  0  0  0  0  0  0  0
    2.8758    2.4527   19.8293 C   0  0  0  0  0  0  0  0  0  0  0  0
    8.7322   -2.6832   22.1285 C   0  0  0  0  0  0  0  0  0  0  0  0
    7.0982   -0.3508   19.3091 C   0  0  0  0  0  0  0  0  0  0  0  0
    8.8810   -1.1900   22.4510 C   0  0  1  0  0  0  0  0  0  0  0  0
    5.3669    0.6889   17.9092 N   0  0  0  0  0  0  0  0  0  0  0  0
    6.1098   -1.4130   22.6516 N   0  0  0  0  0  0  0  0  0  0  0  0
    7.2820   -0.7860   20.6970 N   0  0  0  0  0  0  0  0  0  0  0  0
    8.9170    0.7530   21.0260 O   0  0  0  0  0  0  0  0  0  0  0  0
    5.6195   -2.4455   20.6529 O   0  0  0  0  0  0  0  0  0  0  0  0
    4.2228    1.4524   18.1078 O   0  0  0  0  0  0  0  0  0  0  0  0
   13.8840   -1.8490   21.2740 Cl  0  0  0  0  0  0  0  0  0  0  0  0
   12.2249    1.2198   24.6546 H   0  0  0  0  0  0  0  0  0  0  0  0
    9.8763    0.5350   24.3454 H   0  0  0  0  0  0  0  0  0  0  0  0
   14.0077    0.1988   23.2842 H   0  0  0  0  0  0  0  0  0  0  0  0
   11.0892   -2.3009   21.3624 H   0  0  0  0  0  0  0  0  0  0  0  0
    5.1915    1.0257   21.2076 H   0  0  0  0  0  0  0  0  0  0  0  0
    5.6957   -1.2571   25.3961 H   0  0  0  0  0  0  0  0  0  0  0  0
    4.8065   -2.8438   25.4994 H   0  0  0  0  0  0  0  0  0  0  0  0
    2.9948   -1.9212   24.0282 H   0  0  0  0  0  0  0  0  0  0  0  0
    3.8868   -0.3359   23.9271 H   0  0  0  0  0  0  0  0  0  0  0  0
    4.9397   -3.1171   23.0232 H   0  0  0  0  0  0  0  0  0  0  0  0
    3.1162    3.5303   19.8784 H   0  0  0  0  0  0  0  0  0  0  0  0
    2.0318    2.3364   19.1234 H   0  0  0  0  0  0  0  0  0  0  0  0
    2.4783    2.1594   20.8194 H   0  0  0  0  0  0  0  0  0  0  0  0
    9.3513   -2.9568   21.2668 H   0  0  0  0  0  0  0  0  0  0  0  0
    9.0371   -3.3181   22.9685 H   0  0  0  0  0  0  0  0  0  0  0  0
    7.6921   -2.9292   21.8860 H   0  0  0  0  0  0  0  0  0  0  0  0
    7.0721   -1.2445   18.6761 H   0  0  0  0  0  0  0  0  0  0  0  0
    7.9821    0.2271   19.0196 H   0  0  0  0  0  0  0  0  0  0  0  0
    8.2383   -1.0053   23.3175 H   0  0  0  0  0  0  0  0  0  0  0  0
    6.6936   -0.7281   23.1210 H   0  0  0  0  0  0  0  0  0  0  0  0
  1  2  2  0  0  0  0
  1  3  1  0  0  0  0
  2  6  1  0  0  0  0
  3  7  2  0  0  0  0
  4  6  2  0  0  0  0
  4  7  1  0  0  0  0
  5  8  1  0  0  0  0
  5  9  2  0  0  0  0
  6 18  1  0  0  0  0
  7 25  1  0  0  0  0
  8 17  1  0  0  0  0
  8 19  2  0  0  0  0
  9 15  1  0  0  0  0
  9 24  1  0  0  0  0
 10 18  1  0  0  0  0
 10 21  1  0  0  0  0
 10 22  2  0  0  0  0
 11 20  1  0  0  0  0
 11 21  1  0  0  0  0
 11 23  2  0  0  0  0
 12 13  1  0  0  0  0
 12 14  1  0  0  0  0
 13 14  1  0  0  0  0
 14 20  1  0  0  0  0
 16 18  1  1  0  0  0
 17 21  1  0  0  0  0
 19 24  1  0  0  0  0
  1 26  1  0  0  0  0
  2 27  1  0  0  0  0
  3 28  1  0  0  0  0
  4 29  1  0  0  0  0
  5 30  1  0  0  0  0
 12 31  1  0  0  0  0
 12 32  1  0  0  0  0
 13 33  1  0  0  0  0
 13 34  1  0  0  0  0
 14 35  1  0  0  0  0
 15 36  1  0  0  0  0
 15 37  1  0  0  0  0
 15 38  1  0  0  0  0
 16 39  1  0  0  0  0
 16 40  1  0  0  0  0
 16 41  1  0  0  0  0
 17 42  1  0  0  0  0
 17 43  1  0  0  0  0
 18 44  1  0  0  0  0
 20 45  1  0  0  0  0
M  END
> <compound>
TRY-UNI-9f475305-8

> <compound_smiles>
Cc1cc(no1)CN(C(=O)C(C)c2cccc(c2)Cl)C(=O)NC3CC3

> <enantiomer_smiles>
Cc1cc(no1)CN(C(=O)[C@@H](C)c2cccc(c2)Cl)C(=O)NC3CC3

> <scaffold>
chlorobenzene-linker

> <clash_score>
1.562521678816486

> <docking_score>
-6.952825546264648

> <overlap_score>
0.8863390684127808

> <MMFF_internal_energy>
7.782013344504295

> <docked_smiles>
Cc1cc(no1)CN(C(=O)[C@@H](C)c2cccc(c2)Cl)C(=O)NC3CC3

$$$$
EDG-MED-0da5ad92-5_1
  -OEChem-07262101013D

 35 36  0     1  0  0  0  0  0999 V2000
   11.9780    0.4600   23.9150 C   0  0  0  0  0  0  0  0  0  0  0  0
   10.6560    0.0720   23.7350 C   0  0  0  0  0  0  0  0  0  0  0  0
   12.9840   -0.1200   23.1530 C   0  0  0  0  0  0  0  0  0  0  0  0
    4.9141    1.2577   18.6938 C   0  0  0  0  0  0  0  0  0  0  0  0
   11.3360   -1.5050   22.0650 C   0  0  0  0  0  0  0  0  0  0  0  0
    5.3208    0.8484   17.4341 C   0  0  0  0  0  0  0  0  0  0  0  0
    6.9210   -0.5501   18.3072 C   0  0  0  0  0  0  0  0  0  0  0  0
   10.3220   -0.8940   22.7910 C   0  0  0  0  0  0  0  0  0  0  0  0
    5.5655    0.7157   19.7961 C   0  0  0  0  0  0  0  0  0  0  0  0
    6.5893   -0.2061   19.6078 C   0  0  0  0  0  0  0  0  0  0  0  0
   12.6400   -1.1000   22.2390 C   0  0  0  0  0  0  0  0  0  0  0  0
    8.3880   -0.3240   21.3070 C   0  0  0  0  0  0  0  0  0  0  0  0
    5.1477    1.1397   21.1659 C   0  0  0  0  0  0  0  0  0  0  0  0
    8.6269   -2.6755   22.1208 C   0  0  0  0  0  0  0  0  0  0  0  0
    8.8810   -1.1900   22.4510 C   0  0  1  0  0  0  0  0  0  0  0  0
    6.3110   -0.0447   17.2116 N   0  0  0  0  0  0  0  0  0  0  0  0
    7.2820   -0.7860   20.6970 N   0  0  0  0  0  0  0  0  0  0  0  0
    8.9170    0.7530   21.0260 O   0  0  0  0  0  0  0  0  0  0  0  0
    7.2358   -2.9620   22.2269 O   0  0  0  0  0  0  0  0  0  0  0  0
   13.8840   -1.8490   21.2740 Cl  0  0  0  0  0  0  0  0  0  0  0  0
   12.2249    1.2198   24.6546 H   0  0  0  0  0  0  0  0  0  0  0  0
    9.8763    0.5350   24.3454 H   0  0  0  0  0  0  0  0  0  0  0  0
   14.0077    0.1988   23.2842 H   0  0  0  0  0  0  0  0  0  0  0  0
    4.1119    1.9790   18.8064 H   0  0  0  0  0  0  0  0  0  0  0  0
   11.0892   -2.3009   21.3624 H   0  0  0  0  0  0  0  0  0  0  0  0
    4.8448    1.2415   16.5418 H   0  0  0  0  0  0  0  0  0  0  0  0
    7.7111   -1.2644   18.0956 H   0  0  0  0  0  0  0  0  0  0  0  0
    4.3563    0.4813   21.5424 H   0  0  0  0  0  0  0  0  0  0  0  0
    5.9919    1.1072   21.8656 H   0  0  0  0  0  0  0  0  0  0  0  0
    4.7736    2.1710   21.1646 H   0  0  0  0  0  0  0  0  0  0  0  0
    8.9267   -2.9024   21.0919 H   0  0  0  0  0  0  0  0  0  0  0  0
    9.1662   -3.3431   22.8017 H   0  0  0  0  0  0  0  0  0  0  0  0
    8.2751   -0.9492   23.3431 H   0  0  0  0  0  0  0  0  0  0  0  0
    6.8798   -1.6496   21.0549 H   0  0  0  0  0  0  0  0  0  0  0  0
    7.1286   -3.9007   22.0075 H   0  0  0  0  0  0  0  0  0  0  0  0
  1  2  2  0  0  0  0
  1  3  1  0  0  0  0
  2  8  1  0  0  0  0
  3 11  2  0  0  0  0
  4  6  2  0  0  0  0
  4  9  1  0  0  0  0
  5  8  2  0  0  0  0
  5 11  1  0  0  0  0
  6 16  1  0  0  0  0
  7 10  1  0  0  0  0
  7 16  2  0  0  0  0
  8 15  1  0  0  0  0
  9 10  2  0  0  0  0
  9 13  1  0  0  0  0
 10 17  1  0  0  0  0
 11 20  1  0  0  0  0
 12 15  1  1  0  0  0
 12 17  1  0  0  0  0
 12 18  2  0  0  0  0
 14 15  1  0  0  0  0
 14 19  1  0  0  0  0
  1 21  1  0  0  0  0
  2 22  1  0  0  0  0
  3 23  1  0  0  0  0
  4 24  1  0  0  0  0
  5 25  1  0  0  0  0
  6 26  1  0  0  0  0
  7 27  1  0  0  0  0
 13 28  1  0  0  0  0
 13 29  1  0  0  0  0
 13 30  1  0  0  0  0
 14 31  1  0  0  0  0
 14 32  1  0  0  0  0
 15 33  1  0  0  0  0
 17 34  1  0  0  0  0
 19 35  1  0  0  0  0
M  END
> <compound>
EDG-MED-0da5ad92-5

> <compound_smiles>
Cc1ccncc1NC(=O)C(CO)c2cccc(c2)Cl

> <enantiomer_smiles>
Cc1ccncc1NC(=O)[C@@H](CO)c2cccc(c2)Cl

> <scaffold>
chlorobenzene-linker

> <canonical_CID>
EDG-MED-0da5ad92-5

> <r_inhibition_at_20_uM>

> <r_inhibition_at_50_uM>

> <r_avg_IC50>
47.3187499181099

> <f_inhibition_at_20_uM>

> <f_inhibition_at_50_uM>

> <f_avg_IC50>
99.5

> <f_avg_pIC50>

> <relative_solubility_at_20_uM>

> <relative_solubility_at_100_uM>

> <trypsin_IC50>

> <NMR_std_ratio>

> <acrylamide>
False

> <chloroacetamide>
False

> <series>
3-aminopyridine-like

> <frag_id>
x11557

> <clash_score>
0

> <docking_score>
-10.230613708496094

> <overlap_score>
0.8696344494819641

> <MMFF_internal_energy>
89.98440318635595

> <docked_smiles>
Cc1ccncc1NC(=O)[C@@H](CO)c2cccc(c2)Cl

$$$$
JAG-UCB-a3ef7265-9_1
  -OEChem-07262101013D

 31 32  0     0  0  0  0  0  0999 V2000
   11.9780    0.4600   23.9150 C   0  0  0  0  0  0  0  0  0  0  0  0
   10.6560    0.0720   23.7350 C   0  0  0  0  0  0  0  0  0  0  0  0
   12.9840   -0.1200   23.1530 C   0  0  0  0  0  0  0  0  0  0  0  0
   10.3220   -0.8940   22.7910 C   0  0  0  0  0  0  0  0  0  0  0  0
    6.5908   -0.2043   19.6076 C   0  0  0  0  0  0  0  0  0  0  0  0
   12.6400   -1.1000   22.2390 C   0  0  0  0  0  0  0  0  0  0  0  0
   11.3360   -1.5050   22.0650 C   0  0  0  0  0  0  0  0  0  0  0  0
    5.5374    0.7262   19.6152 C   0  0  0  0  0  0  0  0  0  0  0  0
    6.8131   -0.4338   18.2757 C   0  0  0  0  0  0  0  0  0  0  0  0
    8.3880   -0.3240   21.3070 C   0  0  0  0  0  0  0  0  0  0  0  0
    4.8751    1.3400   20.7784 C   0  0  0  0  0  0  0  0  0  0  0  0
    7.7519   -1.2804   17.5267 C   0  0  0  0  0  0  0  0  0  0  0  0
    8.8810   -1.1900   22.4510 C   0  0  0  0  0  0  0  0  0  0  0  0
    5.1369    1.0492   18.3822 N   0  0  0  0  0  0  0  0  0  0  0  0
    7.2820   -0.7860   20.6970 N   0  0  0  0  0  0  0  0  0  0  0  0
    8.9170    0.7530   21.0260 O   0  0  0  0  0  0  0  0  0  0  0  0
    5.9516    0.3085   17.5342 O   0  0  0  0  0  0  0  0  0  0  0  0
   13.8840   -1.8490   21.2740 Cl  0  0  0  0  0  0  0  0  0  0  0  0
   10.9282   -2.7729   20.9493 Cl  0  0  0  0  0  0  0  0  0  0  0  0
   12.2252    1.2192   24.6548 H   0  0  0  0  0  0  0  0  0  0  0  0
    9.8781    0.5363   24.3467 H   0  0  0  0  0  0  0  0  0  0  0  0
   14.0066    0.2014   23.2870 H   0  0  0  0  0  0  0  0  0  0  0  0
    5.3754    2.2777   21.0758 H   0  0  0  0  0  0  0  0  0  0  0  0
    3.8153    1.5783   20.5775 H   0  0  0  0  0  0  0  0  0  0  0  0
    4.8725    0.6714   21.6579 H   0  0  0  0  0  0  0  0  0  0  0  0
    7.3301   -2.2843   17.3402 H   0  0  0  0  0  0  0  0  0  0  0  0
    8.0174   -0.8469   16.5445 H   0  0  0  0  0  0  0  0  0  0  0  0
    8.7104   -1.4197   18.0608 H   0  0  0  0  0  0  0  0  0  0  0  0
    8.7727   -2.2386   22.1713 H   0  0  0  0  0  0  0  0  0  0  0  0
    8.2509   -1.0156   23.3238 H   0  0  0  0  0  0  0  0  0  0  0  0
    6.8973   -1.6552   21.0612 H   0  0  0  0  0  0  0  0  0  0  0  0
  1  2  2  0  0  0  0
  1  3  1  0  0  0  0
  2  4  1  0  0  0  0
  3  6  2  0  0  0  0
  4  7  2  0  0  0  0
  4 13  1  0  0  0  0
  5  8  1  0  0  0  0
  5  9  2  0  0  0  0
  5 15  1  0  0  0  0
  6  7  1  0  0  0  0
  6 18  1  0  0  0  0
  7 19  1  0  0  0  0
  8 11  1  0  0  0  0
  8 14  2  0  0  0  0
  9 12  1  0  0  0  0
  9 17  1  0  0  0  0
 10 13  1  0  0  0  0
 10 15  1  0  0  0  0
 10 16  2  0  0  0  0
 14 17  1  0  0  0  0
  1 20  1  0  0  0  0
  2 21  1  0  0  0  0
  3 22  1  0  0  0  0
 11 23  1  0  0  0  0
 11 24  1  0  0  0  0
 11 25  1  0  0  0  0
 12 26  1  0  0  0  0
 12 27  1  0  0  0  0
 12 28  1  0  0  0  0
 13 29  1  0  0  0  0
 13 30  1  0  0  0  0
 15 31  1  0  0  0  0
M  END
> <compound>
JAG-UCB-a3ef7265-9

> <compound_smiles>
Cc1c(c(on1)C)NC(=O)Cc2cccc(c2Cl)Cl

> <enantiomer_smiles>
Cc1c(c(on1)C)NC(=O)Cc2cccc(c2Cl)Cl

> <scaffold>
chlorobenzene-linker

> <clash_score>
0

> <docking_score>
-6.426334857940674

> <overlap_score>
0.8502408862113953

> <MMFF_internal_energy>
64.61422712625642

> <docked_smiles>
Cc1c(c(on1)C)NC(=O)Cc2cccc(c2Cl)Cl

$$$$
TRY-UNI-9f475305-7_1
  -OEChem-07262101013D

 42 44  0     0  0  0  0  0  0999 V2000
   11.9780    0.4600   23.9150 C   0  0  0  0  0  0  0  0  0  0  0  0
   10.6560    0.0720   23.7350 C   0  0  0  0  0  0  0  0  0  0  0  0
   12.9840   -0.1200   23.1530 C   0  0  0  0  0  0  0  0  0  0  0  0
   11.3360   -1.5050   22.0650 C   0  0  0  0  0  0  0  0  0  0  0  0
    4.9910    0.9807   20.1831 C   0  0  0  0  0  0  0  0  0  0  0  0
   10.3220   -0.8940   22.7910 C   0  0  0  0  0  0  0  0  0  0  0  0
   12.6400   -1.1000   22.2390 C   0  0  0  0  0  0  0  0  0  0  0  0
    5.7416    0.3673   19.1653 C   0  0  0  0  0  0  0  0  0  0  0  0
    3.9378    1.5469   19.5150 C   0  0  0  0  0  0  0  0  0  0  0  0
    8.3880   -0.3240   21.3070 C   0  0  0  0  0  0  0  0  0  0  0  0
    6.2976   -1.6328   21.3000 C   0  0  0  0  0  0  0  0  0  0  0  0
    5.1281   -2.0683   24.9434 C   0  0  0  0  0  0  0  0  0  0  0  0
    4.0134   -1.5243   24.1008 C   0  0  0  0  0  0  0  0  0  0  0  0
    5.1881   -2.1980   23.4460 C   0  0  0  0  0  0  0  0  0  0  0  0
    2.7741    2.3370   19.9354 C   0  0  0  0  0  0  0  0  0  0  0  0
    8.8810   -1.1900   22.4510 C   0  0  0  0  0  0  0  0  0  0  0  0
    7.0176   -0.4114   19.3050 C   0  0  0  0  0  0  0  0  0  0  0  0
    5.1957    0.5399   17.9582 N   0  0  0  0  0  0  0  0  0  0  0  0
    6.1387   -1.4508   22.6712 N   0  0  0  0  0  0  0  0  0  0  0  0
    7.2820   -0.7860   20.6970 N   0  0  0  0  0  0  0  0  0  0  0  0
    8.9170    0.7530   21.0260 O   0  0  0  0  0  0  0  0  0  0  0  0
    5.6241   -2.4535   20.6696 O   0  0  0  0  0  0  0  0  0  0  0  0
    4.0488    1.2907   18.1864 O   0  0  0  0  0  0  0  0  0  0  0  0
   13.8840   -1.8490   21.2740 Cl  0  0  0  0  0  0  0  0  0  0  0  0
   12.2249    1.2198   24.6546 H   0  0  0  0  0  0  0  0  0  0  0  0
    9.8763    0.5350   24.3454 H   0  0  0  0  0  0  0  0  0  0  0  0
   14.0077    0.1988   23.2842 H   0  0  0  0  0  0  0  0  0  0  0  0
   11.0892   -2.3009   21.3624 H   0  0  0  0  0  0  0  0  0  0  0  0
    5.1860    1.0082   21.2452 H   0  0  0  0  0  0  0  0  0  0  0  0
    5.7864   -1.3571   25.4271 H   0  0  0  0  0  0  0  0  0  0  0  0
    4.9343   -2.9647   25.5196 H   0  0  0  0  0  0  0  0  0  0  0  0
    3.0688   -2.0541   24.1095 H   0  0  0  0  0  0  0  0  0  0  0  0
    3.9237   -0.4479   24.0191 H   0  0  0  0  0  0  0  0  0  0  0  0
    5.0149   -3.1872   23.0361 H   0  0  0  0  0  0  0  0  0  0  0  0
    2.9956    3.4198   19.9287 H   0  0  0  0  0  0  0  0  0  0  0  0
    1.8969    2.1772   19.2803 H   0  0  0  0  0  0  0  0  0  0  0  0
    2.4346    2.0775   20.9561 H   0  0  0  0  0  0  0  0  0  0  0  0
    8.2541   -1.0080   23.3261 H   0  0  0  0  0  0  0  0  0  0  0  0
    8.8053   -2.2480   22.1947 H   0  0  0  0  0  0  0  0  0  0  0  0
    6.9761   -1.3306   18.7104 H   0  0  0  0  0  0  0  0  0  0  0  0
    7.8738    0.1695   18.9462 H   0  0  0  0  0  0  0  0  0  0  0  0
    6.7175   -0.7631   23.1416 H   0  0  0  0  0  0  0  0  0  0  0  0
  1  2  2  0  0  0  0
  1  3  1  0  0  0  0
  2  6  1  0  0  0  0
  3  7  2  0  0  0  0
  4  6  2  0  0  0  0
  4  7  1  0  0  0  0
  5  8  1  0  0  0  0
  5  9  2  0  0  0  0
  6 16  1  0  0  0  0
  7 24  1  0  0  0  0
  8 17  1  0  0  0  0
  8 18  2  0  0  0  0
  9 15  1  0  0  0  0
  9 23  1  0  0  0  0
 10 16  1  0  0  0  0
 10 20  1  0  0  0  0
 10 21  2  0  0  0  0
 11 19  1  0  0  0  0
 11 20  1  0  0  0  0
 11 22  2  0  0  0  0
 12 13  1  0  0  0  0
 12 14  1  0  0  0  0
 13 14  1  0  0  0  0
 14 19  1  0  0  0  0
 17 20  1  0  0  0  0
 18 23  1  0  0  0  0
  1 25  1  0  0  0  0
  2 26  1  0  0  0  0
  3 27  1  0  0  0  0
  4 28  1  0  0  0  0
  5 29  1  0  0  0  0
 12 30  1  0  0  0  0
 12 31  1  0  0  0  0
 13 32  1  0  0  0  0
 13 33  1  0  0  0  0
 14 34  1  0  0  0  0
 15 35  1  0  0  0  0
 15 36  1  0  0  0  0
 15 37  1  0  0  0  0
 16 38  1  0  0  0  0
 16 39  1  0  0  0  0
 17 40  1  0  0  0  0
 17 41  1  0  0  0  0
 19 42  1  0  0  0  0
M  END
> <compound>
TRY-UNI-9f475305-7

> <compound_smiles>
Cc1cc(no1)CN(C(=O)Cc2cccc(c2)Cl)C(=O)NC3CC3

> <enantiomer_smiles>
Cc1cc(no1)CN(C(=O)Cc2cccc(c2)Cl)C(=O)NC3CC3

> <scaffold>
chlorobenzene-linker

> <clash_score>
1.5609552783198368

> <docking_score>
-5.970973968505859

> <overlap_score>
0.8677940368652344

> <MMFF_internal_energy>
-14.12538188162713

> <docked_smiles>
Cc1cc(no1)CN(C(=O)Cc2cccc(c2)Cl)C(=O)NC3CC3

$$$$
EDJ-MED-49816e9b-3_1
  -OEChem-07262101013D

 32 33  0     0  0  0  0  0  0999 V2000
   11.9780    0.4600   23.9150 C   0  0  0  0  0  0  0  0  0  0  0  0
   10.6560    0.0720   23.7350 C   0  0  0  0  0  0  0  0  0  0  0  0
   12.9840   -0.1200   23.1530 C   0  0  0  0  0  0  0  0  0  0  0  0
   11.3360   -1.5050   22.0650 C   0  0  0  0  0  0  0  0  0  0  0  0
    4.9282    1.0993   18.7326 C   0  0  0  0  0  0  0  0  0  0  0  0
   10.3220   -0.8940   22.7910 C   0  0  0  0  0  0  0  0  0  0  0  0
    6.1438    0.3896   18.7575 C   0  0  0  0  0  0  0  0  0  0  0  0
   12.6400   -1.1000   22.2390 C   0  0  0  0  0  0  0  0  0  0  0  0
    6.2693   -0.0307   20.0591 C   0  0  0  0  0  0  0  0  0  0  0  0
    8.3880   -0.3240   21.3070 C   0  0  0  0  0  0  0  0  0  0  0  0
    7.0682    0.1567   17.6347 C   0  0  0  0  0  0  0  0  0  0  0  0
    4.8340    0.2534   22.1044 C   0  0  0  0  0  0  0  0  0  0  0  0
    8.8810   -1.1900   22.4510 C   0  0  0  0  0  0  0  0  0  0  0  0
    4.3245    1.1299   19.9236 N   0  0  0  0  0  0  0  0  0  0  0  0
    5.1642    0.4342   20.7092 N   0  0  0  0  0  0  0  0  0  0  0  0
    7.2820   -0.7860   20.6970 N   0  0  0  0  0  0  0  0  0  0  0  0
    8.9170    0.7530   21.0260 O   0  0  0  0  0  0  0  0  0  0  0  0
   13.8840   -1.8490   21.2740 Cl  0  0  0  0  0  0  0  0  0  0  0  0
   12.2249    1.2198   24.6546 H   0  0  0  0  0  0  0  0  0  0  0  0
    9.8763    0.5350   24.3454 H   0  0  0  0  0  0  0  0  0  0  0  0
   14.0077    0.1988   23.2842 H   0  0  0  0  0  0  0  0  0  0  0  0
   11.0892   -2.3009   21.3624 H   0  0  0  0  0  0  0  0  0  0  0  0
    4.4549    1.5968   17.8980 H   0  0  0  0  0  0  0  0  0  0  0  0
    7.8209    0.9604   17.5623 H   0  0  0  0  0  0  0  0  0  0  0  0
    7.6117   -0.7998   17.7336 H   0  0  0  0  0  0  0  0  0  0  0  0
    6.5417    0.1059   16.6649 H   0  0  0  0  0  0  0  0  0  0  0  0
    5.2636    1.0888   22.6636 H   0  0  0  0  0  0  0  0  0  0  0  0
    3.7470    0.2335   22.2218 H   0  0  0  0  0  0  0  0  0  0  0  0
    5.2494   -0.6959   22.4540 H   0  0  0  0  0  0  0  0  0  0  0  0
    8.7709   -2.2387   22.1706 H   0  0  0  0  0  0  0  0  0  0  0  0
    8.2491   -1.0157   23.3232 H   0  0  0  0  0  0  0  0  0  0  0  0
    7.1590   -1.7964   20.6938 H   0  0  0  0  0  0  0  0  0  0  0  0
  1  2  2  0  0  0  0
  1  3  1  0  0  0  0
  2  6  1  0  0  0  0
  3  8  2  0  0  0  0
  4  6  2  0  0  0  0
  4  8  1  0  0  0  0
  5  7  1  0  0  0  0
  5 14  2  0  0  0  0
  6 13  1  0  0  0  0
  7  9  2  0  0  0  0
  7 11  1  0  0  0  0
  8 18  1  0  0  0  0
  9 15  1  0  0  0  0
  9 16  1  0  0  0  0
 10 13  1  0  0  0  0
 10 16  1  0  0  0  0
 10 17  2  0  0  0  0
 12 15  1  0  0  0  0
 14 15  1  0  0  0  0
  1 19  1  0  0  0  0
  2 20  1  0  0  0  0
  3 21  1  0  0  0  0
  4 22  1  0  0  0  0
  5 23  1  0  0  0  0
 11 24  1  0  0  0  0
 11 25  1  0  0  0  0
 11 26  1  0  0  0  0
 12 27  1  0  0  0  0
 12 28  1  0  0  0  0
 12 29  1  0  0  0  0
 13 30  1  0  0  0  0
 13 31  1  0  0  0  0
 16 32  1  0  0  0  0
M  END
> <compound>
EDJ-MED-49816e9b-3

> <compound_smiles>
Cc1cnn(c1NC(=O)Cc2cccc(c2)Cl)C

> <enantiomer_smiles>
Cc1cnn(c1NC(=O)Cc2cccc(c2)Cl)C

> <scaffold>
chlorobenzene-linker

> <clash_score>
0

> <docking_score>
-7.867887496948242

> <overlap_score>
0.8564818501472473

> <MMFF_internal_energy>
81.27233261252843

> <docked_smiles>
Cc1cnn(c1NC(=O)Cc2cccc(c2)Cl)C

$$$$
TRY-UNI-9f475305-8_2
  -OEChem-07262101013D

 45 47  0     1  0  0  0  0  0999 V2000
   11.9780    0.4600   23.9150 C   0  0  0  0  0  0  0  0  0  0  0  0
   10.6560    0.0720   23.7350 C   0  0  0  0  0  0  0  0  0  0  0  0
   12.9840   -0.1200   23.1530 C   0  0  0  0  0  0  0  0  0  0  0  0
   11.3360   -1.5050   22.0650 C   0  0  0  0  0  0  0  0  0  0  0  0
    4.1632    1.3523   21.1247 C   0  0  0  0  0  0  0  0  0  0  0  0
   10.3220   -0.8940   22.7910 C   0  0  0  0  0  0  0  0  0  0  0  0
   12.6400   -1.1000   22.2390 C   0  0  0  0  0  0  0  0  0  0  0  0
    5.3582    0.6297   21.2850 C   0  0  0  0  0  0  0  0  0  0  0  0
    3.6544    1.4259   22.3943 C   0  0  0  0  0  0  0  0  0  0  0  0
    8.3880   -0.3240   21.3070 C   0  0  0  0  0  0  0  0  0  0  0  0
    6.9500   -2.1576   20.4945 C   0  0  0  0  0  0  0  0  0  0  0  0
    9.0371   -5.3507   20.7072 C   0  0  0  0  0  0  0  0  0  0  0  0
    7.7374   -5.3190   21.4546 C   0  0  0  0  0  0  0  0  0  0  0  0
    7.9395   -4.4227   20.2637 C   0  0  0  0  0  0  0  0  0  0  0  0
    2.4453    2.0260   22.9713 C   0  0  0  0  0  0  0  0  0  0  0  0
    8.0136   -1.0011   23.7025 C   0  0  0  0  0  0  0  0  0  0  0  0
    6.3467    0.2394   20.2245 C   0  0  0  0  0  0  0  0  0  0  0  0
    8.8810   -1.1900   22.4510 C   0  0  2  0  0  0  0  0  0  0  0  0
    5.5740    0.2819   22.5567 N   0  0  0  0  0  0  0  0  0  0  0  0
    8.0611   -2.9997   20.4143 N   0  0  0  0  0  0  0  0  0  0  0  0
    7.2820   -0.7860   20.6970 N   0  0  0  0  0  0  0  0  0  0  0  0
    8.9170    0.7530   21.0260 O   0  0  0  0  0  0  0  0  0  0  0  0
    5.7961   -2.5877   20.4405 O   0  0  0  0  0  0  0  0  0  0  0  0
    4.4874    0.7908   23.2579 O   0  0  0  0  0  0  0  0  0  0  0  0
   13.8840   -1.8490   21.2740 Cl  0  0  0  0  0  0  0  0  0  0  0  0
   12.2249    1.2198   24.6546 H   0  0  0  0  0  0  0  0  0  0  0  0
    9.8763    0.5350   24.3454 H   0  0  0  0  0  0  0  0  0  0  0  0
   14.0077    0.1988   23.2842 H   0  0  0  0  0  0  0  0  0  0  0  0
   11.0892   -2.3009   21.3624 H   0  0  0  0  0  0  0  0  0  0  0  0
    3.7343    1.7592   20.2207 H   0  0  0  0  0  0  0  0  0  0  0  0
    9.9073   -4.9267   21.1931 H   0  0  0  0  0  0  0  0  0  0  0  0
    9.2444   -6.2171   20.0912 H   0  0  0  0  0  0  0  0  0  0  0  0
    7.0693   -6.1640   21.3420 H   0  0  0  0  0  0  0  0  0  0  0  0
    7.7356   -4.8736   22.4419 H   0  0  0  0  0  0  0  0  0  0  0  0
    7.4109   -4.6934   19.3561 H   0  0  0  0  0  0  0  0  0  0  0  0
    1.6017    1.3119   22.9774 H   0  0  0  0  0  0  0  0  0  0  0  0
    2.5979    2.3627   24.0142 H   0  0  0  0  0  0  0  0  0  0  0  0
    2.1125    2.9226   22.4147 H   0  0  0  0  0  0  0  0  0  0  0  0
    8.0763    0.0310   24.0654 H   0  0  0  0  0  0  0  0  0  0  0  0
    6.9575   -1.2165   23.5022 H   0  0  0  0  0  0  0  0  0  0  0  0
    8.3399   -1.6622   24.5133 H   0  0  0  0  0  0  0  0  0  0  0  0
    5.8309   -0.1553   19.3424 H   0  0  0  0  0  0  0  0  0  0  0  0
    6.9345    1.1037   19.8979 H   0  0  0  0  0  0  0  0  0  0  0  0
    8.7647   -2.2382   22.1594 H   0  0  0  0  0  0  0  0  0  0  0  0
    8.9889   -2.5910   20.4643 H   0  0  0  0  0  0  0  0  0  0  0  0
  1  2  2  0  0  0  0
  1  3  1  0  0  0  0
  2  6  1  0  0  0  0
  3  7  2  0  0  0  0
  4  6  2  0  0  0  0
  4  7  1  0  0  0  0
  5  8  1  0  0  0  0
  5  9  2  0  0  0  0
  6 18  1  0  0  0  0
  7 25  1  0  0  0  0
  8 17  1  0  0  0  0
  8 19  2  0  0  0  0
  9 15  1  0  0  0  0
  9 24  1  0  0  0  0
 10 18  1  0  0  0  0
 10 21  1  0  0  0  0
 10 22  2  0  0  0  0
 11 20  1  0  0  0  0
 11 21  1  0  0  0  0
 11 23  2  0  0  0  0
 12 13  1  0  0  0  0
 12 14  1  0  0  0  0
 13 14  1  0  0  0  0
 14 20  1  0  0  0  0
 16 18  1  6  0  0  0
 17 21  1  0  0  0  0
 19 24  1  0  0  0  0
  1 26  1  0  0  0  0
  2 27  1  0  0  0  0
  3 28  1  0  0  0  0
  4 29  1  0  0  0  0
  5 30  1  0  0  0  0
 12 31  1  0  0  0  0
 12 32  1  0  0  0  0
 13 33  1  0  0  0  0
 13 34  1  0  0  0  0
 14 35  1  0  0  0  0
 15 36  1  0  0  0  0
 15 37  1  0  0  0  0
 15 38  1  0  0  0  0
 16 39  1  0  0  0  0
 16 40  1  0  0  0  0
 16 41  1  0  0  0  0
 17 42  1  0  0  0  0
 17 43  1  0  0  0  0
 18 44  1  0  0  0  0
 20 45  1  0  0  0  0
M  END
> <compound>
TRY-UNI-9f475305-8

> <compound_smiles>
Cc1cc(no1)CN(C(=O)C(C)c2cccc(c2)Cl)C(=O)NC3CC3

> <enantiomer_smiles>
Cc1cc(no1)CN(C(=O)[C@H](C)c2cccc(c2)Cl)C(=O)NC3CC3

> <scaffold>
chlorobenzene-linker

> <clash_score>
2.24927415396704

> <docking_score>
-2.837456226348877

> <overlap_score>
0.7437719702720642

> <MMFF_internal_energy>
-4.5472449826945525

> <docked_smiles>
Cc1cc(no1)CN(C(=O)[C@H](C)c2cccc(c2)Cl)C(=O)NC3CC3

$$$$
JAG-UCB-a3ef7265-2_1
  -OEChem-07262101013D

 28 29  0     0  0  0  0  0  0999 V2000
   11.9780    0.4600   23.9150 C   0  0  0  0  0  0  0  0  0  0  0  0
   10.6560    0.0720   23.7350 C   0  0  0  0  0  0  0  0  0  0  0  0
   12.9840   -0.1200   23.1530 C   0  0  0  0  0  0  0  0  0  0  0  0
    4.9977    0.1500   18.1721 C   0  0  0  0  0  0  0  0  0  0  0  0
   10.3220   -0.8940   22.7910 C   0  0  0  0  0  0  0  0  0  0  0  0
   11.3360   -1.5050   22.0650 C   0  0  0  0  0  0  0  0  0  0  0  0
   12.6400   -1.1000   22.2390 C   0  0  0  0  0  0  0  0  0  0  0  0
    6.5418   -0.1622   19.6645 C   0  0  0  0  0  0  0  0  0  0  0  0
    8.3880   -0.3240   21.3070 C   0  0  0  0  0  0  0  0  0  0  0  0
    4.8185   -1.9903   19.4564 C   0  0  0  0  0  0  0  0  0  0  0  0
    8.8810   -1.1900   22.4510 C   0  0  0  0  0  0  0  0  0  0  0  0
    5.7964    1.1928   18.1379 N   0  0  0  0  0  0  0  0  0  0  0  0
    6.7788    0.9941   19.0874 N   0  0  0  0  0  0  0  0  0  0  0  0
    5.4297   -0.7283   19.1191 N   0  0  0  0  0  0  0  0  0  0  0  0
    7.2820   -0.7860   20.6970 N   0  0  0  0  0  0  0  0  0  0  0  0
    8.9170    0.7530   21.0260 O   0  0  0  0  0  0  0  0  0  0  0  0
   11.0339   -2.4881   21.1996 F   0  0  0  0  0  0  0  0  0  0  0  0
   13.8840   -1.8490   21.2740 Cl  0  0  0  0  0  0  0  0  0  0  0  0
   12.2252    1.2198   24.6545 H   0  0  0  0  0  0  0  0  0  0  0  0
    9.8771    0.5358   24.3458 H   0  0  0  0  0  0  0  0  0  0  0  0
   14.0073    0.1994   23.2846 H   0  0  0  0  0  0  0  0  0  0  0  0
    4.1251   -0.0120   17.5555 H   0  0  0  0  0  0  0  0  0  0  0  0
    5.2664   -2.7616   18.8242 H   0  0  0  0  0  0  0  0  0  0  0  0
    4.9970   -2.2106   20.5126 H   0  0  0  0  0  0  0  0  0  0  0  0
    3.7410   -1.9285   19.2806 H   0  0  0  0  0  0  0  0  0  0  0  0
    8.7710   -2.2387   22.1706 H   0  0  0  0  0  0  0  0  0  0  0  0
    8.2492   -1.0157   23.3232 H   0  0  0  0  0  0  0  0  0  0  0  0
    6.9372   -1.6894   21.0149 H   0  0  0  0  0  0  0  0  0  0  0  0
  1  2  2  0  0  0  0
  1  3  1  0  0  0  0
  2  5  1  0  0  0  0
  3  7  2  0  0  0  0
  4 12  2  0  0  0  0
  4 14  1  0  0  0  0
  5  6  2  0  0  0  0
  5 11  1  0  0  0  0
  6  7  1  0  0  0  0
  6 17  1  0  0  0  0
  7 18  1  0  0  0  0
  8 13  2  0  0  0  0
  8 14  1  0  0  0  0
  8 15  1  0  0  0  0
  9 11  1  0  0  0  0
  9 15  1  0  0  0  0
  9 16  2  0  0  0  0
 10 14  1  0  0  0  0
 12 13  1  0  0  0  0
  1 19  1  0  0  0  0
  2 20  1  0  0  0  0
  3 21  1  0  0  0  0
  4 22  1  0  0  0  0
 10 23  1  0  0  0  0
 10 24  1  0  0  0  0
 10 25  1  0  0  0  0
 11 26  1  0  0  0  0
 11 27  1  0  0  0  0
 15 28  1  0  0  0  0
M  END
> <compound>
JAG-UCB-a3ef7265-2

> <compound_smiles>
Cn1cnnc1NC(=O)Cc2cccc(c2F)Cl

> <enantiomer_smiles>
Cn1cnnc1NC(=O)Cc2cccc(c2F)Cl

> <scaffold>
chlorobenzene-linker

> <clash_score>
0

> <docking_score>
-2.9313721656799316

> <overlap_score>
0.7547305822372437

> <MMFF_internal_energy>
20.900449279348724

> <docked_smiles>
Cn1cnnc1NC(=O)Cc2cccc(c2F)Cl

$$$$
JAG-UCB-a3ef7265-5_1
  -OEChem-07262101013D

 32 33  0     0  0  0  0  0  0999 V2000
   11.9780    0.4600   23.9150 C   0  0  0  0  0  0  0  0  0  0  0  0
   10.6560    0.0720   23.7350 C   0  0  0  0  0  0  0  0  0  0  0  0
   12.9840   -0.1200   23.1530 C   0  0  0  0  0  0  0  0  0  0  0  0
    7.0681    0.0743   18.3128 C   0  0  0  0  0  0  0  0  0  0  0  0
   10.3220   -0.8940   22.7910 C   0  0  0  0  0  0  0  0  0  0  0  0
    6.5908   -0.2043   19.6076 C   0  0  0  0  0  0  0  0  0  0  0  0
   11.3360   -1.5050   22.0650 C   0  0  0  0  0  0  0  0  0  0  0  0
   12.6400   -1.1000   22.2390 C   0  0  0  0  0  0  0  0  0  0  0  0
    5.2833    0.2158   19.5894 C   0  0  0  0  0  0  0  0  0  0  0  0
    8.3880   -0.3240   21.3070 C   0  0  0  0  0  0  0  0  0  0  0  0
    4.2384    0.2017   20.6315 C   0  0  0  0  0  0  0  0  0  0  0  0
    3.8370    1.2615   17.8195 C   0  0  0  0  0  0  0  0  0  0  0  0
    8.8810   -1.1900   22.4510 C   0  0  0  0  0  0  0  0  0  0  0  0
    6.1392    0.6283   17.5291 N   0  0  0  0  0  0  0  0  0  0  0  0
    5.0652    0.7012   18.3336 N   0  0  0  0  0  0  0  0  0  0  0  0
    7.2820   -0.7860   20.6970 N   0  0  0  0  0  0  0  0  0  0  0  0
    8.9170    0.7530   21.0260 O   0  0  0  0  0  0  0  0  0  0  0  0
   11.0339   -2.4881   21.1996 F   0  0  0  0  0  0  0  0  0  0  0  0
   13.8840   -1.8490   21.2740 Cl  0  0  0  0  0  0  0  0  0  0  0  0
   12.2252    1.2198   24.6545 H   0  0  0  0  0  0  0  0  0  0  0  0
    9.8771    0.5358   24.3458 H   0  0  0  0  0  0  0  0  0  0  0  0
   14.0073    0.1994   23.2846 H   0  0  0  0  0  0  0  0  0  0  0  0
    8.0535   -0.1019   17.9052 H   0  0  0  0  0  0  0  0  0  0  0  0
    4.2530    1.1326   21.2217 H   0  0  0  0  0  0  0  0  0  0  0  0
    3.2275    0.0927   20.2029 H   0  0  0  0  0  0  0  0  0  0  0  0
    4.3643   -0.6414   21.3325 H   0  0  0  0  0  0  0  0  0  0  0  0
    3.8503    2.3374   18.0127 H   0  0  0  0  0  0  0  0  0  0  0  0
    3.7694    1.0667   16.7456 H   0  0  0  0  0  0  0  0  0  0  0  0
    2.9872    0.7921   18.3229 H   0  0  0  0  0  0  0  0  0  0  0  0
    8.7710   -2.2387   22.1706 H   0  0  0  0  0  0  0  0  0  0  0  0
    8.2492   -1.0157   23.3232 H   0  0  0  0  0  0  0  0  0  0  0  0
    6.8973   -1.6552   21.0612 H   0  0  0  0  0  0  0  0  0  0  0  0
  1  2  2  0  0  0  0
  1  3  1  0  0  0  0
  2  5  1  0  0  0  0
  3  8  2  0  0  0  0
  4  6  1  0  0  0  0
  4 14  2  0  0  0  0
  5  7  2  0  0  0  0
  5 13  1  0  0  0  0
  6  9  2  0  0  0  0
  6 16  1  0  0  0  0
  7  8  1  0  0  0  0
  7 18  1  0  0  0  0
  8 19  1  0  0  0  0
  9 11  1  0  0  0  0
  9 15  1  0  0  0  0
 10 13  1  0  0  0  0
 10 16  1  0  0  0  0
 10 17  2  0  0  0  0
 12 15  1  0  0  0  0
 14 15  1  0  0  0  0
  1 20  1  0  0  0  0
  2 21  1  0  0  0  0
  3 22  1  0  0  0  0
  4 23  1  0  0  0  0
 11 24  1  0  0  0  0
 11 25  1  0  0  0  0
 11 26  1  0  0  0  0
 12 27  1  0  0  0  0
 12 28  1  0  0  0  0
 12 29  1  0  0  0  0
 13 30  1  0  0  0  0
 13 31  1  0  0  0  0
 16 32  1  0  0  0  0
M  END
> <compound>
JAG-UCB-a3ef7265-5

> <compound_smiles>
Cc1c(cnn1C)NC(=O)Cc2cccc(c2F)Cl

> <enantiomer_smiles>
Cc1c(cnn1C)NC(=O)Cc2cccc(c2F)Cl

> <scaffold>
chlorobenzene-linker

> <clash_score>
0

> <docking_score>
-5.3698201179504395

> <overlap_score>
0.8466566205024719

> <MMFF_internal_energy>
55.25621204053195

> <docked_smiles>
Cc1c(cnn1C)NC(=O)Cc2cccc(c2F)Cl

$$$$
MAK-UNK-f203cb68-1_1
  -OEChem-07262101013D

 50 52  0     1  0  0  0  0  0999 V2000
   11.9780    0.4600   23.9150 C   0  0  0  0  0  0  0  0  0  0  0  0
   10.6560    0.0720   23.7350 C   0  0  0  0  0  0  0  0  0  0  0  0
   12.9840   -0.1200   23.1530 C   0  0  0  0  0  0  0  0  0  0  0  0
    4.6232    0.7517   18.6083 C   0  0  0  0  0  0  0  0  0  0  0  0
    9.3313   -3.1699   24.5369 C   0  0  0  0  0  0  0  0  0  0  0  0
   11.3360   -1.5050   22.0650 C   0  0  0  0  0  0  0  0  0  0  0  0
    5.3562    0.9063   17.4427 C   0  0  0  0  0  0  0  0  0  0  0  0
    9.2641   -3.9695   25.6665 C   0  0  0  0  0  0  0  0  0  0  0  0
    7.2356   -0.0073   18.3973 C   0  0  0  0  0  0  0  0  0  0  0  0
    7.8657   -5.4696   24.6308 C   0  0  0  0  0  0  0  0  0  0  0  0
   10.3220   -0.8940   22.7910 C   0  0  0  0  0  0  0  0  0  0  0  0
    5.2597    0.1849   19.7069 C   0  0  0  0  0  0  0  0  0  0  0  0
    8.6166   -3.5696   23.4132 C   0  0  0  0  0  0  0  0  0  0  0  0
    6.5908   -0.2045   19.6078 C   0  0  0  0  0  0  0  0  0  0  0  0
    7.8672   -4.7401   23.4527 C   0  0  0  0  0  0  0  0  0  0  0  0
   12.6400   -1.1000   22.2390 C   0  0  0  0  0  0  0  0  0  0  0  0
    6.3403   -6.3327   22.2459 C   0  0  0  0  0  0  0  0  0  0  0  0
    8.3880   -0.3240   21.3070 C   0  0  0  0  0  0  0  0  0  0  0  0
    4.4934    0.0070   20.9766 C   0  0  0  0  0  0  0  0  0  0  0  0
    5.7105   -6.4542   20.8809 C   0  0  0  0  0  0  0  0  0  0  0  0
    8.6713   -2.7160   22.1671 C   0  0  0  0  0  0  0  0  0  0  0  0
    8.8810   -1.1900   22.4510 C   0  0  1  0  0  0  0  0  0  0  0  0
    6.6505    0.5401   17.3084 N   0  0  0  0  0  0  0  0  0  0  0  0
    8.5472   -5.1131   25.7426 N   0  0  0  0  0  0  0  0  0  0  0  0
    7.2820   -0.7860   20.6970 N   0  0  0  0  0  0  0  0  0  0  0  0
    7.1343   -5.1825   22.3518 N   0  0  0  0  0  0  0  0  0  0  0  0
    6.1330   -7.1777   23.1107 O   0  0  0  0  0  0  0  0  0  0  0  0
    8.9170    0.7530   21.0260 O   0  0  0  0  0  0  0  0  0  0  0  0
   13.8840   -1.8490   21.2740 Cl  0  0  0  0  0  0  0  0  0  0  0  0
   12.2249    1.2198   24.6546 H   0  0  0  0  0  0  0  0  0  0  0  0
    9.8763    0.5350   24.3454 H   0  0  0  0  0  0  0  0  0  0  0  0
   14.0077    0.1988   23.2842 H   0  0  0  0  0  0  0  0  0  0  0  0
    3.5861    1.0663   18.6529 H   0  0  0  0  0  0  0  0  0  0  0  0
    9.9252   -2.2623   24.5388 H   0  0  0  0  0  0  0  0  0  0  0  0
   11.0892   -2.3009   21.3624 H   0  0  0  0  0  0  0  0  0  0  0  0
    4.9059    1.3433   16.5575 H   0  0  0  0  0  0  0  0  0  0  0  0
    9.8031   -3.7018   26.5693 H   0  0  0  0  0  0  0  0  0  0  0  0
    8.2745   -0.2911   18.2577 H   0  0  0  0  0  0  0  0  0  0  0  0
    7.3004   -6.3922   24.7234 H   0  0  0  0  0  0  0  0  0  0  0  0
    4.0017   -0.9725   20.9893 H   0  0  0  0  0  0  0  0  0  0  0  0
    5.1524    0.0789   21.8506 H   0  0  0  0  0  0  0  0  0  0  0  0
    3.7275    0.7844   21.0894 H   0  0  0  0  0  0  0  0  0  0  0  0
    6.3723   -7.0173   20.2167 H   0  0  0  0  0  0  0  0  0  0  0  0
    5.5479   -5.4586   20.4584 H   0  0  0  0  0  0  0  0  0  0  0  0
    4.7471   -6.9666   20.9586 H   0  0  0  0  0  0  0  0  0  0  0  0
    9.4466   -3.1056   21.4944 H   0  0  0  0  0  0  0  0  0  0  0  0
    7.7237   -2.8471   21.6264 H   0  0  0  0  0  0  0  0  0  0  0  0
    8.2512   -0.9611   23.3474 H   0  0  0  0  0  0  0  0  0  0  0  0
    6.8974   -1.6550   21.0612 H   0  0  0  0  0  0  0  0  0  0  0  0
    7.1767   -4.5962   21.5099 H   0  0  0  0  0  0  0  0  0  0  0  0
  1  2  2  0  0  0  0
  1  3  1  0  0  0  0
  2 11  1  0  0  0  0
  3 16  2  0  0  0  0
  4  7  2  0  0  0  0
  4 12  1  0  0  0  0
  5  8  2  0  0  0  0
  5 13  1  0  0  0  0
  6 11  2  0  0  0  0
  6 16  1  0  0  0  0
  7 23  1  0  0  0  0
  8 24  1  0  0  0  0
  9 14  1  0  0  0  0
  9 23  2  0  0  0  0
 10 15  1  0  0  0  0
 10 24  2  0  0  0  0
 11 22  1  0  0  0  0
 12 14  2  0  0  0  0
 12 19  1  0  0  0  0
 13 15  2  0  0  0  0
 13 21  1  0  0  0  0
 14 25  1  0  0  0  0
 15 26  1  0  0  0  0
 16 29  1  0  0  0  0
 17 20  1  0  0  0  0
 17 26  1  0  0  0  0
 17 27  2  0  0  0  0
 18 22  1  1  0  0  0
 18 25  1  0  0  0  0
 18 28  2  0  0  0  0
 21 22  1  0  0  0  0
  1 30  1  0  0  0  0
  2 31  1  0  0  0  0
  3 32  1  0  0  0  0
  4 33  1  0  0  0  0
  5 34  1  0  0  0  0
  6 35  1  0  0  0  0
  7 36  1  0  0  0  0
  8 37  1  0  0  0  0
  9 38  1  0  0  0  0
 10 39  1  0  0  0  0
 19 40  1  0  0  0  0
 19 41  1  0  0  0  0
 19 42  1  0  0  0  0
 20 43  1  0  0  0  0
 20 44  1  0  0  0  0
 20 45  1  0  0  0  0
 21 46  1  0  0  0  0
 21 47  1  0  0  0  0
 22 48  1  0  0  0  0
 25 49  1  0  0  0  0
 26 50  1  0  0  0  0
M  END
> <compound>
MAK-UNK-f203cb68-1

> <compound_smiles>
Cc1ccncc1NC(=O)C(Cc2ccncc2NC(=O)C)c3cccc(c3)Cl

> <enantiomer_smiles>
Cc1ccncc1NC(=O)[C@@H](Cc2ccncc2NC(=O)C)c3cccc(c3)Cl

> <scaffold>
chlorobenzene-linker

> <clash_score>
0

> <docking_score>
-9.061149597167969

> <overlap_score>
0.826737105846405

> <MMFF_internal_energy>
121.34008495633569

> <docked_smiles>
Cc1ccncc1NC(=O)[C@@H](Cc2ccncc2NC(=O)C)c3cccc(c3)Cl

$$$$
JAG-UCB-a3ef7265-8_1
  -OEChem-07262101013D

 36 37  0     0  0  0  0  0  0999 V2000
   11.9780    0.4600   23.9150 C   0  0  0  0  0  0  0  0  0  0  0  0
   10.6560    0.0720   23.7350 C   0  0  0  0  0  0  0  0  0  0  0  0
   12.9840   -0.1200   23.1530 C   0  0  0  0  0  0  0  0  0  0  0  0
   10.3220   -0.8940   22.7910 C   0  0  0  0  0  0  0  0  0  0  0  0
    6.5908   -0.2043   19.6076 C   0  0  0  0  0  0  0  0  0  0  0  0
   12.6400   -1.1000   22.2390 C   0  0  0  0  0  0  0  0  0  0  0  0
   11.3360   -1.5050   22.0650 C   0  0  0  0  0  0  0  0  0  0  0  0
    7.0590    0.0780   18.3103 C   0  0  0  0  0  0  0  0  0  0  0  0
    5.2828    0.2147   19.5993 C   0  0  0  0  0  0  0  0  0  0  0  0
    8.3880   -0.3240   21.3070 C   0  0  0  0  0  0  0  0  0  0  0  0
    8.4044   -0.1678   17.7609 C   0  0  0  0  0  0  0  0  0  0  0  0
    3.8228    1.2643   17.8452 C   0  0  0  0  0  0  0  0  0  0  0  0
    4.2174    1.3583   21.3918 C   0  0  0  0  0  0  0  0  0  0  0  0
    8.8810   -1.1900   22.4510 C   0  0  0  0  0  0  0  0  0  0  0  0
    6.1243    0.6332   17.5343 N   0  0  0  0  0  0  0  0  0  0  0  0
    5.0558    0.7031   18.3463 N   0  0  0  0  0  0  0  0  0  0  0  0
    7.2820   -0.7860   20.6970 N   0  0  0  0  0  0  0  0  0  0  0  0
    8.9170    0.7530   21.0260 O   0  0  0  0  0  0  0  0  0  0  0  0
    4.3381    0.2075   20.5291 O   0  0  0  0  0  0  0  0  0  0  0  0
   13.8840   -1.8490   21.2740 Cl  0  0  0  0  0  0  0  0  0  0  0  0
   10.9282   -2.7729   20.9493 Cl  0  0  0  0  0  0  0  0  0  0  0  0
   12.2252    1.2192   24.6548 H   0  0  0  0  0  0  0  0  0  0  0  0
    9.8781    0.5363   24.3467 H   0  0  0  0  0  0  0  0  0  0  0  0
   14.0066    0.2014   23.2870 H   0  0  0  0  0  0  0  0  0  0  0  0
    8.4716   -1.1684   17.3015 H   0  0  0  0  0  0  0  0  0  0  0  0
    8.6803    0.5725   16.9894 H   0  0  0  0  0  0  0  0  0  0  0  0
    9.1883   -0.1036   18.5361 H   0  0  0  0  0  0  0  0  0  0  0  0
    3.8373    2.3396   18.0414 H   0  0  0  0  0  0  0  0  0  0  0  0
    3.7455    1.0726   16.7713 H   0  0  0  0  0  0  0  0  0  0  0  0
    2.9778    0.7929   18.3548 H   0  0  0  0  0  0  0  0  0  0  0  0
    3.3994    1.2004   22.0989 H   0  0  0  0  0  0  0  0  0  0  0  0
    4.0246    2.2487   20.7881 H   0  0  0  0  0  0  0  0  0  0  0  0
    5.1519    1.4893   21.9425 H   0  0  0  0  0  0  0  0  0  0  0  0
    8.7727   -2.2386   22.1713 H   0  0  0  0  0  0  0  0  0  0  0  0
    8.2509   -1.0156   23.3238 H   0  0  0  0  0  0  0  0  0  0  0  0
    6.8973   -1.6552   21.0612 H   0  0  0  0  0  0  0  0  0  0  0  0
  1  2  2  0  0  0  0
  1  3  1  0  0  0  0
  2  4  1  0  0  0  0
  3  6  2  0  0  0  0
  4  7  2  0  0  0  0
  4 14  1  0  0  0  0
  5  8  1  0  0  0  0
  5  9  2  0  0  0  0
  5 17  1  0  0  0  0
  6  7  1  0  0  0  0
  6 20  1  0  0  0  0
  7 21  1  0  0  0  0
  8 11  1  0  0  0  0
  8 15  2  0  0  0  0
  9 16  1  0  0  0  0
  9 19  1  0  0  0  0
 10 14  1  0  0  0  0
 10 17  1  0  0  0  0
 10 18  2  0  0  0  0
 12 16  1  0  0  0  0
 13 19  1  0  0  0  0
 15 16  1  0  0  0  0
  1 22  1  0  0  0  0
  2 23  1  0  0  0  0
  3 24  1  0  0  0  0
 11 25  1  0  0  0  0
 11 26  1  0  0  0  0
 11 27  1  0  0  0  0
 12 28  1  0  0  0  0
 12 29  1  0  0  0  0
 12 30  1  0  0  0  0
 13 31  1  0  0  0  0
 13 32  1  0  0  0  0
 13 33  1  0  0  0  0
 14 34  1  0  0  0  0
 14 35  1  0  0  0  0
 17 36  1  0  0  0  0
M  END
> <compound>
JAG-UCB-a3ef7265-8

> <compound_smiles>
Cc1c(c(n(n1)C)OC)NC(=O)Cc2cccc(c2Cl)Cl

> <enantiomer_smiles>
Cc1c(c(n(n1)C)OC)NC(=O)Cc2cccc(c2Cl)Cl

> <scaffold>
chlorobenzene-linker

> <clash_score>
0

> <docking_score>
-4.823930263519287

> <overlap_score>
0.9010626673698425

> <MMFF_internal_energy>
83.57666926340572

> <docked_smiles>
Cc1c(c(n(n1)C)OC)NC(=O)Cc2cccc(c2Cl)Cl

$$$$
JAG-UCB-a3ef7265-4_1
  -OEChem-07262101013D

 31 32  0     0  0  0  0  0  0999 V2000
   11.9780    0.4600   23.9150 C   0  0  0  0  0  0  0  0  0  0  0  0
   10.6560    0.0720   23.7350 C   0  0  0  0  0  0  0  0  0  0  0  0
   12.9840   -0.1200   23.1530 C   0  0  0  0  0  0  0  0  0  0  0  0
   10.3220   -0.8940   22.7910 C   0  0  0  0  0  0  0  0  0  0  0  0
   11.3360   -1.5050   22.0650 C   0  0  0  0  0  0  0  0  0  0  0  0
   12.6400   -1.1000   22.2390 C   0  0  0  0  0  0  0  0  0  0  0  0
    4.9975    0.1515   18.1727 C   0  0  0  0  0  0  0  0  0  0  0  0
    6.5418   -0.1622   19.6645 C   0  0  0  0  0  0  0  0  0  0  0  0
    8.3880   -0.3240   21.3070 C   0  0  0  0  0  0  0  0  0  0  0  0
    3.8049   -0.0806   17.3379 C   0  0  0  0  0  0  0  0  0  0  0  0
    4.8289   -1.9936   19.4657 C   0  0  0  0  0  0  0  0  0  0  0  0
    8.8810   -1.1900   22.4510 C   0  0  0  0  0  0  0  0  0  0  0  0
    5.7961    1.1944   18.1394 N   0  0  0  0  0  0  0  0  0  0  0  0
    6.7786    0.9948   19.0886 N   0  0  0  0  0  0  0  0  0  0  0  0
    5.4296   -0.7278   19.1187 N   0  0  0  0  0  0  0  0  0  0  0  0
    7.2820   -0.7860   20.6970 N   0  0  0  0  0  0  0  0  0  0  0  0
    8.9170    0.7530   21.0260 O   0  0  0  0  0  0  0  0  0  0  0  0
   11.0339   -2.4881   21.1996 F   0  0  0  0  0  0  0  0  0  0  0  0
   13.8840   -1.8490   21.2740 Cl  0  0  0  0  0  0  0  0  0  0  0  0
   12.2252    1.2198   24.6545 H   0  0  0  0  0  0  0  0  0  0  0  0
    9.8771    0.5358   24.3458 H   0  0  0  0  0  0  0  0  0  0  0  0
   14.0073    0.1994   23.2846 H   0  0  0  0  0  0  0  0  0  0  0  0
    4.0660   -0.6132   16.4080 H   0  0  0  0  0  0  0  0  0  0  0  0
    3.0406   -0.6805   17.8625 H   0  0  0  0  0  0  0  0  0  0  0  0
    3.3067    0.8629   17.0533 H   0  0  0  0  0  0  0  0  0  0  0  0
    5.2791   -2.7648   18.8351 H   0  0  0  0  0  0  0  0  0  0  0  0
    5.0143   -2.2072   20.5221 H   0  0  0  0  0  0  0  0  0  0  0  0
    3.7500   -1.9404   19.2951 H   0  0  0  0  0  0  0  0  0  0  0  0
    8.7710   -2.2387   22.1706 H   0  0  0  0  0  0  0  0  0  0  0  0
    8.2492   -1.0157   23.3232 H   0  0  0  0  0  0  0  0  0  0  0  0
    6.9372   -1.6894   21.0149 H   0  0  0  0  0  0  0  0  0  0  0  0
  1  2  2  0  0  0  0
  1  3  1  0  0  0  0
  2  4  1  0  0  0  0
  3  6  2  0  0  0  0
  4  5  2  0  0  0  0
  4 12  1  0  0  0  0
  5  6  1  0  0  0  0
  5 18  1  0  0  0  0
  6 19  1  0  0  0  0
  7 10  1  0  0  0  0
  7 13  2  0  0  0  0
  7 15  1  0  0  0  0
  8 14  2  0  0  0  0
  8 15  1  0  0  0  0
  8 16  1  0  0  0  0
  9 12  1  0  0  0  0
  9 16  1  0  0  0  0
  9 17  2  0  0  0  0
 11 15  1  0  0  0  0
 13 14  1  0  0  0  0
  1 20  1  0  0  0  0
  2 21  1  0  0  0  0
  3 22  1  0  0  0  0
 10 23  1  0  0  0  0
 10 24  1  0  0  0  0
 10 25  1  0  0  0  0
 11 26  1  0  0  0  0
 11 27  1  0  0  0  0
 11 28  1  0  0  0  0
 12 29  1  0  0  0  0
 12 30  1  0  0  0  0
 16 31  1  0  0  0  0
M  END
> <compound>
JAG-UCB-a3ef7265-4

> <compound_smiles>
Cc1nnc(n1C)NC(=O)Cc2cccc(c2F)Cl

> <enantiomer_smiles>
Cc1nnc(n1C)NC(=O)Cc2cccc(c2F)Cl

> <scaffold>
chlorobenzene-linker

> <clash_score>
1.2996160612804322

> <docking_score>
-1.760408639907837

> <overlap_score>
0.7616391777992249

> <MMFF_internal_energy>
24.05767864557134

> <docked_smiles>
Cc1nnc(n1C)NC(=O)Cc2cccc(c2F)Cl

$$$$
JAG-UCB-a3ef7265-15_1
  -OEChem-07262101013D

 31 32  0     0  0  0  0  0  0999 V2000
   11.9780    0.4600   23.9150 C   0  0  0  0  0  0  0  0  0  0  0  0
   10.6560    0.0720   23.7350 C   0  0  0  0  0  0  0  0  0  0  0  0
   12.9840   -0.1200   23.1530 C   0  0  0  0  0  0  0  0  0  0  0  0
   11.3360   -1.5050   22.0650 C   0  0  0  0  0  0  0  0  0  0  0  0
   10.3220   -0.8940   22.7910 C   0  0  0  0  0  0  0  0  0  0  0  0
   12.6400   -1.1000   22.2390 C   0  0  0  0  0  0  0  0  0  0  0  0
    4.9975    0.1515   18.1727 C   0  0  0  0  0  0  0  0  0  0  0  0
    6.5418   -0.1622   19.6645 C   0  0  0  0  0  0  0  0  0  0  0  0
    8.3880   -0.3240   21.3070 C   0  0  0  0  0  0  0  0  0  0  0  0
    3.8049   -0.0806   17.3379 C   0  0  0  0  0  0  0  0  0  0  0  0
    4.8289   -1.9936   19.4657 C   0  0  0  0  0  0  0  0  0  0  0  0
    8.8810   -1.1900   22.4510 C   0  0  0  0  0  0  0  0  0  0  0  0
    5.7961    1.1944   18.1394 N   0  0  0  0  0  0  0  0  0  0  0  0
    6.7786    0.9948   19.0886 N   0  0  0  0  0  0  0  0  0  0  0  0
    5.4296   -0.7278   19.1187 N   0  0  0  0  0  0  0  0  0  0  0  0
    7.2820   -0.7860   20.6970 N   0  0  0  0  0  0  0  0  0  0  0  0
    8.9170    0.7530   21.0260 O   0  0  0  0  0  0  0  0  0  0  0  0
   13.8840   -1.8490   21.2740 Cl  0  0  0  0  0  0  0  0  0  0  0  0
   12.2249    1.2198   24.6546 H   0  0  0  0  0  0  0  0  0  0  0  0
    9.8763    0.5350   24.3454 H   0  0  0  0  0  0  0  0  0  0  0  0
   14.0077    0.1988   23.2842 H   0  0  0  0  0  0  0  0  0  0  0  0
   11.0892   -2.3009   21.3624 H   0  0  0  0  0  0  0  0  0  0  0  0
    4.0660   -0.6132   16.4080 H   0  0  0  0  0  0  0  0  0  0  0  0
    3.0406   -0.6805   17.8624 H   0  0  0  0  0  0  0  0  0  0  0  0
    3.3067    0.8629   17.0533 H   0  0  0  0  0  0  0  0  0  0  0  0
    5.2791   -2.7648   18.8351 H   0  0  0  0  0  0  0  0  0  0  0  0
    5.0143   -2.2072   20.5220 H   0  0  0  0  0  0  0  0  0  0  0  0
    3.7500   -1.9404   19.2951 H   0  0  0  0  0  0  0  0  0  0  0  0
    8.7709   -2.2387   22.1706 H   0  0  0  0  0  0  0  0  0  0  0  0
    8.2491   -1.0157   23.3232 H   0  0  0  0  0  0  0  0  0  0  0  0
    6.9372   -1.6894   21.0149 H   0  0  0  0  0  0  0  0  0  0  0  0
  1  2  2  0  0  0  0
  1  3  1  0  0  0  0
  2  5  1  0  0  0  0
  3  6  2  0  0  0  0
  4  5  2  0  0  0  0
  4  6  1  0  0  0  0
  5 12  1  0  0  0  0
  6 18  1  0  0  0  0
  7 10  1  0  0  0  0
  7 13  2  0  0  0  0
  7 15  1  0  0  0  0
  8 14  2  0  0  0  0
  8 15  1  0  0  0  0
  8 16  1  0  0  0  0
  9 12  1  0  0  0  0
  9 16  1  0  0  0  0
  9 17  2  0  0  0  0
 11 15  1  0  0  0  0
 13 14  1  0  0  0  0
  1 19  1  0  0  0  0
  2 20  1  0  0  0  0
  3 21  1  0  0  0  0
  4 22  1  0  0  0  0
 10 23  1  0  0  0  0
 10 24  1  0  0  0  0
 10 25  1  0  0  0  0
 11 26  1  0  0  0  0
 11 27  1  0  0  0  0
 11 28  1  0  0  0  0
 12 29  1  0  0  0  0
 12 30  1  0  0  0  0
 16 31  1  0  0  0  0
M  END
> <compound>
JAG-UCB-a3ef7265-15

> <compound_smiles>
Cc1nnc(n1C)NC(=O)Cc2cccc(c2)Cl

> <enantiomer_smiles>
Cc1nnc(n1C)NC(=O)Cc2cccc(c2)Cl

> <scaffold>
chlorobenzene-linker

> <clash_score>
1.299612576175028

> <docking_score>
-2.2716381549835205

> <overlap_score>
0.7474039196968079

> <MMFF_internal_energy>
23.64991143762499

> <docked_smiles>
Cc1nnc(n1C)NC(=O)Cc2cccc(c2)Cl

$$$$
JAG-UCB-a3ef7265-17_1
  -OEChem-07262101013D

 28 29  0     0  0  0  0  0  0999 V2000
   11.9780    0.4600   23.9150 C   0  0  0  0  0  0  0  0  0  0  0  0
   10.6560    0.0720   23.7350 C   0  0  0  0  0  0  0  0  0  0  0  0
   12.9840   -0.1200   23.1530 C   0  0  0  0  0  0  0  0  0  0  0  0
   11.3360   -1.5050   22.0650 C   0  0  0  0  0  0  0  0  0  0  0  0
    4.9977    0.1500   18.1721 C   0  0  0  0  0  0  0  0  0  0  0  0
   10.3220   -0.8940   22.7910 C   0  0  0  0  0  0  0  0  0  0  0  0
   12.6400   -1.1000   22.2390 C   0  0  0  0  0  0  0  0  0  0  0  0
    6.5418   -0.1622   19.6645 C   0  0  0  0  0  0  0  0  0  0  0  0
    8.3880   -0.3240   21.3070 C   0  0  0  0  0  0  0  0  0  0  0  0
    4.8185   -1.9903   19.4564 C   0  0  0  0  0  0  0  0  0  0  0  0
    8.8810   -1.1900   22.4510 C   0  0  0  0  0  0  0  0  0  0  0  0
    5.7964    1.1928   18.1379 N   0  0  0  0  0  0  0  0  0  0  0  0
    6.7788    0.9941   19.0874 N   0  0  0  0  0  0  0  0  0  0  0  0
    5.4297   -0.7283   19.1191 N   0  0  0  0  0  0  0  0  0  0  0  0
    7.2820   -0.7860   20.6970 N   0  0  0  0  0  0  0  0  0  0  0  0
    8.9170    0.7530   21.0260 O   0  0  0  0  0  0  0  0  0  0  0  0
   13.8840   -1.8490   21.2740 Cl  0  0  0  0  0  0  0  0  0  0  0  0
   12.2249    1.2198   24.6546 H   0  0  0  0  0  0  0  0  0  0  0  0
    9.8763    0.5350   24.3454 H   0  0  0  0  0  0  0  0  0  0  0  0
   14.0077    0.1988   23.2842 H   0  0  0  0  0  0  0  0  0  0  0  0
   11.0892   -2.3009   21.3624 H   0  0  0  0  0  0  0  0  0  0  0  0
    4.1251   -0.0120   17.5555 H   0  0  0  0  0  0  0  0  0  0  0  0
    5.2664   -2.7616   18.8242 H   0  0  0  0  0  0  0  0  0  0  0  0
    4.9970   -2.2106   20.5126 H   0  0  0  0  0  0  0  0  0  0  0  0
    3.7410   -1.9284   19.2806 H   0  0  0  0  0  0  0  0  0  0  0  0
    8.7709   -2.2387   22.1706 H   0  0  0  0  0  0  0  0  0  0  0  0
    8.2491   -1.0157   23.3232 H   0  0  0  0  0  0  0  0  0  0  0  0
    6.9372   -1.6894   21.0149 H   0  0  0  0  0  0  0  0  0  0  0  0
  1  2  2  0  0  0  0
  1  3  1  0  0  0  0
  2  6  1  0  0  0  0
  3  7  2  0  0  0  0
  4  6  2  0  0  0  0
  4  7  1  0  0  0  0
  5 12  2  0  0  0  0
  5 14  1  0  0  0  0
  6 11  1  0  0  0  0
  7 17  1  0  0  0  0
  8 13  2  0  0  0  0
  8 14  1  0  0  0  0
  8 15  1  0  0  0  0
  9 11  1  0  0  0  0
  9 15  1  0  0  0  0
  9 16  2  0  0  0  0
 10 14  1  0  0  0  0
 12 13  1  0  0  0  0
  1 18  1  0  0  0  0
  2 19  1  0  0  0  0
  3 20  1  0  0  0  0
  4 21  1  0  0  0  0
  5 22  1  0  0  0  0
 10 23  1  0  0  0  0
 10 24  1  0  0  0  0
 10 25  1  0  0  0  0
 11 26  1  0  0  0  0
 11 27  1  0  0  0  0
 15 28  1  0  0  0  0
M  END
> <compound>
JAG-UCB-a3ef7265-17

> <compound_smiles>
Cn1cnnc1NC(=O)Cc2cccc(c2)Cl

> <enantiomer_smiles>
Cn1cnnc1NC(=O)Cc2cccc(c2)Cl

> <scaffold>
chlorobenzene-linker

> <clash_score>
0

> <docking_score>
-3.442596435546875

> <overlap_score>
0.7404438853263855

> <MMFF_internal_energy>
20.49652087988295

> <docked_smiles>
Cn1cnnc1NC(=O)Cc2cccc(c2)Cl

$$$$
MAK-UNK-f203cb68-1_2
  -OEChem-07262101013D

 50 52  0     1  0  0  0  0  0999 V2000
   11.9780    0.4600   23.9150 C   0  0  0  0  0  0  0  0  0  0  0  0
   10.6560    0.0720   23.7350 C   0  0  0  0  0  0  0  0  0  0  0  0
   12.9840   -0.1200   23.1530 C   0  0  0  0  0  0  0  0  0  0  0  0
    4.9106    1.2537   18.6940 C   0  0  0  0  0  0  0  0  0  0  0  0
    9.0261   -3.1822   24.5527 C   0  0  0  0  0  0  0  0  0  0  0  0
   11.3360   -1.5050   22.0650 C   0  0  0  0  0  0  0  0  0  0  0  0
    5.3258    0.8539   17.4340 C   0  0  0  0  0  0  0  0  0  0  0  0
    9.4084   -3.9943   25.6082 C   0  0  0  0  0  0  0  0  0  0  0  0
    6.9307   -0.5391   18.3069 C   0  0  0  0  0  0  0  0  0  0  0  0
    8.5938   -2.5106   27.1616 C   0  0  0  0  0  0  0  0  0  0  0  0
   10.3220   -0.8940   22.7910 C   0  0  0  0  0  0  0  0  0  0  0  0
    5.5602    0.7097   19.7963 C   0  0  0  0  0  0  0  0  0  0  0  0
    8.3975   -1.9787   24.8519 C   0  0  0  0  0  0  0  0  0  0  0  0
    6.5908   -0.2045   19.6078 C   0  0  0  0  0  0  0  0  0  0  0  0
    8.1735   -1.6289   26.1789 C   0  0  0  0  0  0  0  0  0  0  0  0
   12.6400   -1.1000   22.2390 C   0  0  0  0  0  0  0  0  0  0  0  0
    7.2560    0.0479   27.8132 C   0  0  0  0  0  0  0  0  0  0  0  0
    8.3880   -0.3240   21.3070 C   0  0  0  0  0  0  0  0  0  0  0  0
    5.1333    1.1234   21.1665 C   0  0  0  0  0  0  0  0  0  0  0  0
    6.5679    1.3890   27.7656 C   0  0  0  0  0  0  0  0  0  0  0  0
    7.9702   -1.0729   23.7200 C   0  0  0  0  0  0  0  0  0  0  0  0
    8.8810   -1.1900   22.4510 C   0  0  2  0  0  0  0  0  0  0  0  0
    6.3227   -0.0316   17.2112 N   0  0  0  0  0  0  0  0  0  0  0  0
    9.2078   -3.6884   26.9097 N   0  0  0  0  0  0  0  0  0  0  0  0
    7.2820   -0.7860   20.6970 N   0  0  0  0  0  0  0  0  0  0  0  0
    7.5468   -0.4333   26.5292 N   0  0  0  0  0  0  0  0  0  0  0  0
    7.5022   -0.4941   28.8858 O   0  0  0  0  0  0  0  0  0  0  0  0
    8.9170    0.7530   21.0260 O   0  0  0  0  0  0  0  0  0  0  0  0
   13.8840   -1.8490   21.2740 Cl  0  0  0  0  0  0  0  0  0  0  0  0
   12.2249    1.2198   24.6546 H   0  0  0  0  0  0  0  0  0  0  0  0
    9.8763    0.5350   24.3454 H   0  0  0  0  0  0  0  0  0  0  0  0
   14.0077    0.1988   23.2842 H   0  0  0  0  0  0  0  0  0  0  0  0
    4.1032    1.9692   18.8068 H   0  0  0  0  0  0  0  0  0  0  0  0
    9.2158   -3.4843   23.5283 H   0  0  0  0  0  0  0  0  0  0  0  0
   11.0892   -2.3009   21.3624 H   0  0  0  0  0  0  0  0  0  0  0  0
    4.8515    1.2490   16.5416 H   0  0  0  0  0  0  0  0  0  0  0  0
    9.9025   -4.9433   25.4281 H   0  0  0  0  0  0  0  0  0  0  0  0
    7.7264   -1.2473   18.0951 H   0  0  0  0  0  0  0  0  0  0  0  0
    8.4468   -2.2939   28.2156 H   0  0  0  0  0  0  0  0  0  0  0  0
    4.3443    0.4580   21.5356 H   0  0  0  0  0  0  0  0  0  0  0  0
    5.9744    1.0924   21.8700 H   0  0  0  0  0  0  0  0  0  0  0  0
    4.7526    2.1523   21.1691 H   0  0  0  0  0  0  0  0  0  0  0  0
    5.4843    1.2478   27.7231 H   0  0  0  0  0  0  0  0  0  0  0  0
    6.8889    1.9384   26.8760 H   0  0  0  0  0  0  0  0  0  0  0  0
    6.8267    1.9730   28.6538 H   0  0  0  0  0  0  0  0  0  0  0  0
    6.9259   -1.2876   23.4581 H   0  0  0  0  0  0  0  0  0  0  0  0
    7.9699   -0.0403   24.0959 H   0  0  0  0  0  0  0  0  0  0  0  0
    8.8058   -2.2584   22.1262 H   0  0  0  0  0  0  0  0  0  0  0  0
    6.8974   -1.6550   21.0612 H   0  0  0  0  0  0  0  0  0  0  0  0
    7.2605    0.1761   25.7540 H   0  0  0  0  0  0  0  0  0  0  0  0
  1  2  2  0  0  0  0
  1  3  1  0  0  0  0
  2 11  1  0  0  0  0
  3 16  2  0  0  0  0
  4  7  2  0  0  0  0
  4 12  1  0  0  0  0
  5  8  2  0  0  0  0
  5 13  1  0  0  0  0
  6 11  2  0  0  0  0
  6 16  1  0  0  0  0
  7 23  1  0  0  0  0
  8 24  1  0  0  0  0
  9 14  1  0  0  0  0
  9 23  2  0  0  0  0
 10 15  1  0  0  0  0
 10 24  2  0  0  0  0
 11 22  1  0  0  0  0
 12 14  2  0  0  0  0
 12 19  1  0  0  0  0
 13 15  2  0  0  0  0
 13 21  1  0  0  0  0
 14 25  1  0  0  0  0
 15 26  1  0  0  0  0
 16 29  1  0  0  0  0
 17 20  1  0  0  0  0
 17 26  1  0  0  0  0
 17 27  2  0  0  0  0
 18 22  1  6  0  0  0
 18 25  1  0  0  0  0
 18 28  2  0  0  0  0
 21 22  1  0  0  0  0
  1 30  1  0  0  0  0
  2 31  1  0  0  0  0
  3 32  1  0  0  0  0
  4 33  1  0  0  0  0
  5 34  1  0  0  0  0
  6 35  1  0  0  0  0
  7 36  1  0  0  0  0
  8 37  1  0  0  0  0
  9 38  1  0  0  0  0
 10 39  1  0  0  0  0
 19 40  1  0  0  0  0
 19 41  1  0  0  0  0
 19 42  1  0  0  0  0
 20 43  1  0  0  0  0
 20 44  1  0  0  0  0
 20 45  1  0  0  0  0
 21 46  1  0  0  0  0
 21 47  1  0  0  0  0
 22 48  1  0  0  0  0
 25 49  1  0  0  0  0
 26 50  1  0  0  0  0
M  END
> <compound>
MAK-UNK-f203cb68-1

> <compound_smiles>
Cc1ccncc1NC(=O)C(Cc2ccncc2NC(=O)C)c3cccc(c3)Cl

> <enantiomer_smiles>
Cc1ccncc1NC(=O)[C@H](Cc2ccncc2NC(=O)C)c3cccc(c3)Cl

> <scaffold>
chlorobenzene-linker

> <clash_score>
0

> <docking_score>
-10.274749755859375

> <overlap_score>
0.8505919575691223

> <MMFF_internal_energy>
114.05680694361611

> <docked_smiles>
Cc1ccncc1NC(=O)[C@H](Cc2ccncc2NC(=O)C)c3cccc(c3)Cl

$$$$
BAR-COM-ebf5acce-12_1
  -OEChem-07262101013D

 42 44  0     0  0  0  0  0  0999 V2000
   11.9780    0.4600   23.9150 C   0  0  0  0  0  0  0  0  0  0  0  0
   10.6560    0.0720   23.7350 C   0  0  0  0  0  0  0  0  0  0  0  0
   12.9840   -0.1200   23.1530 C   0  0  0  0  0  0  0  0  0  0  0  0
    5.1252    1.6950   18.8962 C   0  0  0  0  0  0  0  0  0  0  0  0
    6.0837   -4.4486   22.6889 C   0  0  0  0  0  0  0  0  0  0  0  0
   11.3360   -1.5050   22.0650 C   0  0  0  0  0  0  0  0  0  0  0  0
    5.5790    1.4557   17.6091 C   0  0  0  0  0  0  0  0  0  0  0  0
    7.0520   -0.1526   18.3316 C   0  0  0  0  0  0  0  0  0  0  0  0
    5.7208   -5.2545   23.7353 C   0  0  0  0  0  0  0  0  0  0  0  0
   10.3220   -0.8940   22.7910 C   0  0  0  0  0  0  0  0  0  0  0  0
    5.6849    0.9550   19.9318 C   0  0  0  0  0  0  0  0  0  0  0  0
    6.6674    0.0115   19.6526 C   0  0  0  0  0  0  0  0  0  0  0  0
   12.6400   -1.1000   22.2390 C   0  0  0  0  0  0  0  0  0  0  0  0
    5.9460   -3.1485   23.2048 C   0  0  0  0  0  0  0  0  0  0  0  0
    8.3880   -0.3240   21.3070 C   0  0  0  0  0  0  0  0  0  0  0  0
    5.2147    1.1929   21.3293 C   0  0  0  0  0  0  0  0  0  0  0  0
    8.8810   -1.1900   22.4510 C   0  0  0  0  0  0  0  0  0  0  0  0
    6.6749   -2.0846   21.0614 C   0  0  0  0  0  0  0  0  0  0  0  0
    6.5314    0.5477   17.2990 N   0  0  0  0  0  0  0  0  0  0  0  0
    5.5294   -3.1479   24.4742 N   0  0  0  0  0  0  0  0  0  0  0  0
    6.2248   -2.0302   22.4372 N   0  0  0  0  0  0  0  0  0  0  0  0
    7.2820   -0.7860   20.6970 N   0  0  0  0  0  0  0  0  0  0  0  0
    8.9170    0.7530   21.0260 O   0  0  0  0  0  0  0  0  0  0  0  0
    5.3878   -4.4899   24.8066 O   0  0  0  0  0  0  0  0  0  0  0  0
   13.8840   -1.8490   21.2740 Cl  0  0  0  0  0  0  0  0  0  0  0  0
   12.2249    1.2198   24.6546 H   0  0  0  0  0  0  0  0  0  0  0  0
    9.8763    0.5350   24.3454 H   0  0  0  0  0  0  0  0  0  0  0  0
   14.0077    0.1988   23.2842 H   0  0  0  0  0  0  0  0  0  0  0  0
    4.3572    2.4386   19.0804 H   0  0  0  0  0  0  0  0  0  0  0  0
    6.3991   -4.7631   21.7047 H   0  0  0  0  0  0  0  0  0  0  0  0
   11.0892   -2.3009   21.3624 H   0  0  0  0  0  0  0  0  0  0  0  0
    5.1747    2.0066   16.7663 H   0  0  0  0  0  0  0  0  0  0  0  0
    7.8138   -0.8737   18.0503 H   0  0  0  0  0  0  0  0  0  0  0  0
    5.6485   -6.3225   23.8768 H   0  0  0  0  0  0  0  0  0  0  0  0
    4.3699    0.5347   21.5630 H   0  0  0  0  0  0  0  0  0  0  0  0
    6.0159    1.0045   22.0545 H   0  0  0  0  0  0  0  0  0  0  0  0
    4.8963    2.2335   21.4685 H   0  0  0  0  0  0  0  0  0  0  0  0
    8.7966   -2.2430   22.1857 H   0  0  0  0  0  0  0  0  0  0  0  0
    8.2693   -1.0024   23.3337 H   0  0  0  0  0  0  0  0  0  0  0  0
    7.3971   -2.8929   20.8965 H   0  0  0  0  0  0  0  0  0  0  0  0
    5.8314   -2.2939   20.3981 H   0  0  0  0  0  0  0  0  0  0  0  0
    6.1008   -1.1160   22.8572 H   0  0  0  0  0  0  0  0  0  0  0  0
  1  2  2  0  0  0  0
  1  3  1  0  0  0  0
  2 10  1  0  0  0  0
  3 13  2  0  0  0  0
  4  7  2  0  0  0  0
  4 11  1  0  0  0  0
  5  9  2  0  0  0  0
  5 14  1  0  0  0  0
  6 10  2  0  0  0  0
  6 13  1  0  0  0  0
  7 19  1  0  0  0  0
  8 12  1  0  0  0  0
  8 19  2  0  0  0  0
  9 24  1  0  0  0  0
 10 17  1  0  0  0  0
 11 12  2  0  0  0  0
 11 16  1  0  0  0  0
 12 22  1  0  0  0  0
 13 25  1  0  0  0  0
 14 20  2  0  0  0  0
 14 21  1  0  0  0  0
 15 17  1  0  0  0  0
 15 22  1  0  0  0  0
 15 23  2  0  0  0  0
 18 21  1  0  0  0  0
 18 22  1  0  0  0  0
 20 24  1  0  0  0  0
  1 26  1  0  0  0  0
  2 27  1  0  0  0  0
  3 28  1  0  0  0  0
  4 29  1  0  0  0  0
  5 30  1  0  0  0  0
  6 31  1  0  0  0  0
  7 32  1  0  0  0  0
  8 33  1  0  0  0  0
  9 34  1  0  0  0  0
 16 35  1  0  0  0  0
 16 36  1  0  0  0  0
 16 37  1  0  0  0  0
 17 38  1  0  0  0  0
 17 39  1  0  0  0  0
 18 40  1  0  0  0  0
 18 41  1  0  0  0  0
 21 42  1  0  0  0  0
M  END
> <compound>
BAR-COM-ebf5acce-12

> <compound_smiles>
Cc1ccncc1N(CNc2ccon2)C(=O)Cc3cccc(c3)Cl

> <enantiomer_smiles>
Cc1ccncc1N(CNc2ccon2)C(=O)Cc3cccc(c3)Cl

> <scaffold>
chlorobenzene-linker

> <clash_score>
0

> <docking_score>
-9.360337257385254

> <overlap_score>
0.8581994771957397

> <MMFF_internal_energy>
26.86369759174429

> <docked_smiles>
Cc1ccncc1N(CNc2ccon2)C(=O)Cc3cccc(c3)Cl

$$$$
MAK-UNK-f203cb68-5_1
  -OEChem-07262101013D

 50 52  0     1  0  0  0  0  0999 V2000
   11.9780    0.4600   23.9150 C   0  0  0  0  0  0  0  0  0  0  0  0
   10.6560    0.0720   23.7350 C   0  0  0  0  0  0  0  0  0  0  0  0
   12.9840   -0.1200   23.1530 C   0  0  0  0  0  0  0  0  0  0  0  0
   10.7000   -2.2403   19.8131 C   0  0  0  0  0  0  0  0  0  0  0  0
    4.9120    1.2553   18.6939 C   0  0  0  0  0  0  0  0  0  0  0  0
   10.3819   -3.2707   18.9431 C   0  0  0  0  0  0  0  0  0  0  0  0
    5.3237    0.8516   17.4340 C   0  0  0  0  0  0  0  0  0  0  0  0
   10.6358   -4.8562   20.5863 C   0  0  0  0  0  0  0  0  0  0  0  0
    6.9267   -0.5437   18.3070 C   0  0  0  0  0  0  0  0  0  0  0  0
   10.9963   -2.5693   21.1311 C   0  0  0  0  0  0  0  0  0  0  0  0
   11.3360   -1.5050   22.0650 C   0  0  0  0  0  0  0  0  0  0  0  0
   10.3220   -0.8940   22.7910 C   0  0  0  0  0  0  0  0  0  0  0  0
    5.5624    0.7121   19.7963 C   0  0  0  0  0  0  0  0  0  0  0  0
   10.9659   -3.9000   21.5332 C   0  0  0  0  0  0  0  0  0  0  0  0
    6.5902   -0.2052   19.6078 C   0  0  0  0  0  0  0  0  0  0  0  0
   12.6400   -1.1000   22.2390 C   0  0  0  0  0  0  0  0  0  0  0  0
   11.2614   -5.5867   23.3750 C   0  0  0  0  0  0  0  0  0  0  0  0
    8.3880   -0.3240   21.3070 C   0  0  0  0  0  0  0  0  0  0  0  0
    5.1392    1.1301   21.1663 C   0  0  0  0  0  0  0  0  0  0  0  0
   11.6271   -5.5865   24.8381 C   0  0  0  0  0  0  0  0  0  0  0  0
    8.6739   -2.6842   22.1487 C   0  0  0  0  0  0  0  0  0  0  0  0
    8.8810   -1.1900   22.4510 C   0  0  1  0  0  0  0  0  0  0  0  0
   10.3420   -4.5748   19.2971 N   0  0  0  0  0  0  0  0  0  0  0  0
    6.3179   -0.0371   17.2114 N   0  0  0  0  0  0  0  0  0  0  0  0
   11.2548   -4.2915   22.8420 N   0  0  0  0  0  0  0  0  0  0  0  0
    7.2820   -0.7860   20.6970 N   0  0  0  0  0  0  0  0  0  0  0  0
   11.0156   -6.6361   22.7892 O   0  0  0  0  0  0  0  0  0  0  0  0
    8.9170    0.7530   21.0260 O   0  0  0  0  0  0  0  0  0  0  0  0
   13.8840   -1.8490   21.2740 Cl  0  0  0  0  0  0  0  0  0  0  0  0
   12.2250    1.2189   24.6555 H   0  0  0  0  0  0  0  0  0  0  0  0
    9.8778    0.5358   24.3464 H   0  0  0  0  0  0  0  0  0  0  0  0
   14.0068    0.2011   23.2860 H   0  0  0  0  0  0  0  0  0  0  0  0
   10.7116   -1.2136   19.4610 H   0  0  0  0  0  0  0  0  0  0  0  0
    4.1067    1.9732   18.8067 H   0  0  0  0  0  0  0  0  0  0  0  0
   10.1422   -3.0663   17.9047 H   0  0  0  0  0  0  0  0  0  0  0  0
    4.8487    1.2458   16.5417 H   0  0  0  0  0  0  0  0  0  0  0  0
   10.5956   -5.9117   20.8389 H   0  0  0  0  0  0  0  0  0  0  0  0
    7.7200   -1.2544   18.0953 H   0  0  0  0  0  0  0  0  0  0  0  0
    4.3492    0.4676   21.5385 H   0  0  0  0  0  0  0  0  0  0  0  0
    5.9816    1.0985   21.8682 H   0  0  0  0  0  0  0  0  0  0  0  0
    4.7612    2.1600   21.1673 H   0  0  0  0  0  0  0  0  0  0  0  0
   10.7229   -5.4892   25.4457 H   0  0  0  0  0  0  0  0  0  0  0  0
   12.2911   -4.7445   25.0536 H   0  0  0  0  0  0  0  0  0  0  0  0
   12.1423   -6.5170   25.0943 H   0  0  0  0  0  0  0  0  0  0  0  0
    9.2855   -3.0082   21.2991 H   0  0  0  0  0  0  0  0  0  0  0  0
    8.9378   -3.3201   23.0013 H   0  0  0  0  0  0  0  0  0  0  0  0
    7.6237   -2.8761   21.9023 H   0  0  0  0  0  0  0  0  0  0  0  0
    8.2379   -0.9647   23.3218 H   0  0  0  0  0  0  0  0  0  0  0  0
   11.4933   -3.5404   23.4991 H   0  0  0  0  0  0  0  0  0  0  0  0
    6.8824   -1.6524   21.0513 H   0  0  0  0  0  0  0  0  0  0  0  0
  1  2  2  0  0  0  0
  1  3  1  0  0  0  0
  2 12  1  0  0  0  0
  3 16  2  0  0  0  0
  4  6  2  0  0  0  0
  4 10  1  0  0  0  0
  5  7  2  0  0  0  0
  5 13  1  0  0  0  0
  6 23  1  0  0  0  0
  7 24  1  0  0  0  0
  8 14  1  0  0  0  0
  8 23  2  0  0  0  0
  9 15  1  0  0  0  0
  9 24  2  0  0  0  0
 10 11  1  0  0  0  0
 10 14  2  0  0  0  0
 11 12  2  0  0  0  0
 11 16  1  0  0  0  0
 12 22  1  0  0  0  0
 13 15  2  0  0  0  0
 13 19  1  0  0  0  0
 14 25  1  0  0  0  0
 15 26  1  0  0  0  0
 16 29  1  0  0  0  0
 17 20  1  0  0  0  0
 17 25  1  0  0  0  0
 17 27  2  0  0  0  0
 18 22  1  0  0  0  0
 18 26  1  0  0  0  0
 18 28  2  0  0  0  0
 21 22  1  1  0  0  0
  1 30  1  0  0  0  0
  2 31  1  0  0  0  0
  3 32  1  0  0  0  0
  4 33  1  0  0  0  0
  5 34  1  0  0  0  0
  6 35  1  0  0  0  0
  7 36  1  0  0  0  0
  8 37  1  0  0  0  0
  9 38  1  0  0  0  0
 19 39  1  0  0  0  0
 19 40  1  0  0  0  0
 19 41  1  0  0  0  0
 20 42  1  0  0  0  0
 20 43  1  0  0  0  0
 20 44  1  0  0  0  0
 21 45  1  0  0  0  0
 21 46  1  0  0  0  0
 21 47  1  0  0  0  0
 22 48  1  0  0  0  0
 25 49  1  0  0  0  0
 26 50  1  0  0  0  0
M  END
> <compound>
MAK-UNK-f203cb68-5

> <compound_smiles>
Cc1ccncc1NC(=O)C(C)c2cccc(c2c3ccncc3NC(=O)C)Cl

> <enantiomer_smiles>
Cc1ccncc1NC(=O)[C@@H](C)c2cccc(c2c3ccncc3NC(=O)C)Cl

> <scaffold>
chlorobenzene-linker

> <clash_score>
11.742765227633587

> <docking_score>
-0.9886807203292847

> <overlap_score>
0.8671460151672363

> <MMFF_internal_energy>
170.29475868613522

> <docked_smiles>
Cc1ccncc1NC(=O)[C@@H](C)c2cccc(c2c3ccncc3NC(=O)C)Cl

$$$$
MAK-UNK-f203cb68-5_2
  -OEChem-07262101013D

 50 52  0     1  0  0  0  0  0999 V2000
   11.9780    0.4600   23.9150 C   0  0  0  0  0  0  0  0  0  0  0  0
   10.6560    0.0720   23.7350 C   0  0  0  0  0  0  0  0  0  0  0  0
   12.9840   -0.1200   23.1530 C   0  0  0  0  0  0  0  0  0  0  0  0
   10.7000   -2.2403   19.8131 C   0  0  0  0  0  0  0  0  0  0  0  0
    4.9120    1.2553   18.6939 C   0  0  0  0  0  0  0  0  0  0  0  0
   10.3819   -3.2707   18.9431 C   0  0  0  0  0  0  0  0  0  0  0  0
    5.3237    0.8516   17.4340 C   0  0  0  0  0  0  0  0  0  0  0  0
   10.6358   -4.8562   20.5863 C   0  0  0  0  0  0  0  0  0  0  0  0
    6.9267   -0.5437   18.3070 C   0  0  0  0  0  0  0  0  0  0  0  0
   10.9963   -2.5693   21.1311 C   0  0  0  0  0  0  0  0  0  0  0  0
   11.3360   -1.5050   22.0650 C   0  0  0  0  0  0  0  0  0  0  0  0
   10.3220   -0.8940   22.7910 C   0  0  0  0  0  0  0  0  0  0  0  0
    5.5624    0.7121   19.7963 C   0  0  0  0  0  0  0  0  0  0  0  0
   10.9659   -3.9000   21.5332 C   0  0  0  0  0  0  0  0  0  0  0  0
    6.5902   -0.2052   19.6078 C   0  0  0  0  0  0  0  0  0  0  0  0
   12.6400   -1.1000   22.2390 C   0  0  0  0  0  0  0  0  0  0  0  0
   11.2614   -5.5867   23.3750 C   0  0  0  0  0  0  0  0  0  0  0  0
    8.3880   -0.3240   21.3070 C   0  0  0  0  0  0  0  0  0  0  0  0
    5.1392    1.1301   21.1663 C   0  0  0  0  0  0  0  0  0  0  0  0
   11.6271   -5.5865   24.8381 C   0  0  0  0  0  0  0  0  0  0  0  0
    7.9697   -1.0366   23.6800 C   0  0  0  0  0  0  0  0  0  0  0  0
    8.8810   -1.1900   22.4510 C   0  0  2  0  0  0  0  0  0  0  0  0
   10.3420   -4.5748   19.2971 N   0  0  0  0  0  0  0  0  0  0  0  0
    6.3179   -0.0371   17.2114 N   0  0  0  0  0  0  0  0  0  0  0  0
   11.2548   -4.2915   22.8420 N   0  0  0  0  0  0  0  0  0  0  0  0
    7.2820   -0.7860   20.6970 N   0  0  0  0  0  0  0  0  0  0  0  0
   11.0156   -6.6361   22.7892 O   0  0  0  0  0  0  0  0  0  0  0  0
    8.9170    0.7530   21.0260 O   0  0  0  0  0  0  0  0  0  0  0  0
   13.8840   -1.8490   21.2740 Cl  0  0  0  0  0  0  0  0  0  0  0  0
   12.2250    1.2189   24.6555 H   0  0  0  0  0  0  0  0  0  0  0  0
    9.8778    0.5358   24.3464 H   0  0  0  0  0  0  0  0  0  0  0  0
   14.0068    0.2011   23.2860 H   0  0  0  0  0  0  0  0  0  0  0  0
   10.7116   -1.2136   19.4610 H   0  0  0  0  0  0  0  0  0  0  0  0
    4.1067    1.9732   18.8067 H   0  0  0  0  0  0  0  0  0  0  0  0
   10.1422   -3.0663   17.9047 H   0  0  0  0  0  0  0  0  0  0  0  0
    4.8487    1.2458   16.5417 H   0  0  0  0  0  0  0  0  0  0  0  0
   10.5956   -5.9117   20.8389 H   0  0  0  0  0  0  0  0  0  0  0  0
    7.7200   -1.2544   18.0953 H   0  0  0  0  0  0  0  0  0  0  0  0
    4.3492    0.4676   21.5384 H   0  0  0  0  0  0  0  0  0  0  0  0
    5.9816    1.0985   21.8682 H   0  0  0  0  0  0  0  0  0  0  0  0
    4.7612    2.1600   21.1673 H   0  0  0  0  0  0  0  0  0  0  0  0
   10.7229   -5.4892   25.4457 H   0  0  0  0  0  0  0  0  0  0  0  0
   12.2911   -4.7445   25.0536 H   0  0  0  0  0  0  0  0  0  0  0  0
   12.1423   -6.5170   25.0943 H   0  0  0  0  0  0  0  0  0  0  0  0
    8.0115   -0.0190   24.0843 H   0  0  0  0  0  0  0  0  0  0  0  0
    6.9235   -1.2449   23.4294 H   0  0  0  0  0  0  0  0  0  0  0  0
    8.2661   -1.7291   24.4757 H   0  0  0  0  0  0  0  0  0  0  0  0
    8.7825   -2.2412   22.1245 H   0  0  0  0  0  0  0  0  0  0  0  0
   11.4933   -3.5404   23.4991 H   0  0  0  0  0  0  0  0  0  0  0  0
    6.8824   -1.6524   21.0513 H   0  0  0  0  0  0  0  0  0  0  0  0
  1  2  2  0  0  0  0
  1  3  1  0  0  0  0
  2 12  1  0  0  0  0
  3 16  2  0  0  0  0
  4  6  2  0  0  0  0
  4 10  1  0  0  0  0
  5  7  2  0  0  0  0
  5 13  1  0  0  0  0
  6 23  1  0  0  0  0
  7 24  1  0  0  0  0
  8 14  1  0  0  0  0
  8 23  2  0  0  0  0
  9 15  1  0  0  0  0
  9 24  2  0  0  0  0
 10 11  1  0  0  0  0
 10 14  2  0  0  0  0
 11 12  2  0  0  0  0
 11 16  1  0  0  0  0
 12 22  1  0  0  0  0
 13 15  2  0  0  0  0
 13 19  1  0  0  0  0
 14 25  1  0  0  0  0
 15 26  1  0  0  0  0
 16 29  1  0  0  0  0
 17 20  1  0  0  0  0
 17 25  1  0  0  0  0
 17 27  2  0  0  0  0
 18 22  1  0  0  0  0
 18 26  1  0  0  0  0
 18 28  2  0  0  0  0
 21 22  1  6  0  0  0
  1 30  1  0  0  0  0
  2 31  1  0  0  0  0
  3 32  1  0  0  0  0
  4 33  1  0  0  0  0
  5 34  1  0  0  0  0
  6 35  1  0  0  0  0
  7 36  1  0  0  0  0
  8 37  1  0  0  0  0
  9 38  1  0  0  0  0
 19 39  1  0  0  0  0
 19 40  1  0  0  0  0
 19 41  1  0  0  0  0
 20 42  1  0  0  0  0
 20 43  1  0  0  0  0
 20 44  1  0  0  0  0
 21 45  1  0  0  0  0
 21 46  1  0  0  0  0
 21 47  1  0  0  0  0
 22 48  1  0  0  0  0
 25 49  1  0  0  0  0
 26 50  1  0  0  0  0
M  END
> <compound>
MAK-UNK-f203cb68-5

> <compound_smiles>
Cc1ccncc1NC(=O)C(C)c2cccc(c2c3ccncc3NC(=O)C)Cl

> <enantiomer_smiles>
Cc1ccncc1NC(=O)[C@H](C)c2cccc(c2c3ccncc3NC(=O)C)Cl

> <scaffold>
chlorobenzene-linker

> <clash_score>
11.742765227633587

> <docking_score>
-1.2399624586105347

> <overlap_score>
0.867193877696991

> <MMFF_internal_energy>
111.62622904627402

> <docked_smiles>
Cc1ccncc1NC(=O)[C@H](C)c2cccc(c2c3ccncc3NC(=O)C)Cl

$$$$
MAK-UNK-f203cb68-9_1
  -OEChem-07262101013D

 50 52  0     1  0  0  0  0  0999 V2000
   11.9780    0.4600   23.9150 C   0  0  0  0  0  0  0  0  0  0  0  0
   10.6560    0.0720   23.7350 C   0  0  0  0  0  0  0  0  0  0  0  0
   12.9840   -0.1200   23.1530 C   0  0  0  0  0  0  0  0  0  0  0  0
    4.6244    0.7707   18.6194 C   0  0  0  0  0  0  0  0  0  0  0  0
    6.9238   -0.0233   23.6226 C   0  0  0  0  0  0  0  0  0  0  0  0
   11.3360   -1.5050   22.0650 C   0  0  0  0  0  0  0  0  0  0  0  0
    5.3435    0.8911   17.4412 C   0  0  0  0  0  0  0  0  0  0  0  0
    6.1387    0.1588   24.7497 C   0  0  0  0  0  0  0  0  0  0  0  0
    7.2178   -0.0444   18.3847 C   0  0  0  0  0  0  0  0  0  0  0  0
    7.3184   -1.4160   25.9355 C   0  0  0  0  0  0  0  0  0  0  0  0
   10.3220   -0.8940   22.7910 C   0  0  0  0  0  0  0  0  0  0  0  0
    5.2651    0.2095   19.7184 C   0  0  0  0  0  0  0  0  0  0  0  0
    7.9509   -0.9581   23.6891 C   0  0  0  0  0  0  0  0  0  0  0  0
    6.5866   -0.2084   19.6072 C   0  0  0  0  0  0  0  0  0  0  0  0
    8.1586   -1.6721   24.8640 C   0  0  0  0  0  0  0  0  0  0  0  0
   12.6400   -1.1000   22.2390 C   0  0  0  0  0  0  0  0  0  0  0  0
    9.5014   -3.4084   26.0913 C   0  0  0  0  0  0  0  0  0  0  0  0
    8.3880   -0.3240   21.3070 C   0  0  0  0  0  0  0  0  0  0  0  0
    4.5137    0.0682   21.0015 C   0  0  0  0  0  0  0  0  0  0  0  0
   10.6742   -4.3141   25.8103 C   0  0  0  0  0  0  0  0  0  0  0  0
    8.7418   -2.6632   21.9249 C   0  0  0  0  0  0  0  0  0  0  0  0
    8.8810   -1.1900   22.4510 C   0  0  1  0  0  0  0  0  0  0  0  0
    6.6283    0.4965   17.2950 N   0  0  0  0  0  0  0  0  0  0  0  0
    6.3101   -0.5159   25.9086 N   0  0  0  0  0  0  0  0  0  0  0  0
    7.2820   -0.7860   20.6970 N   0  0  0  0  0  0  0  0  0  0  0  0
    9.1755   -2.6196   24.9796 N   0  0  0  0  0  0  0  0  0  0  0  0
    8.9475   -3.4193   27.1858 O   0  0  0  0  0  0  0  0  0  0  0  0
    8.9170    0.7530   21.0260 O   0  0  0  0  0  0  0  0  0  0  0  0
   13.8840   -1.8490   21.2740 Cl  0  0  0  0  0  0  0  0  0  0  0  0
   12.2249    1.2198   24.6546 H   0  0  0  0  0  0  0  0  0  0  0  0
    9.8763    0.5350   24.3454 H   0  0  0  0  0  0  0  0  0  0  0  0
   14.0077    0.1988   23.2842 H   0  0  0  0  0  0  0  0  0  0  0  0
    3.5946    1.1069   18.6732 H   0  0  0  0  0  0  0  0  0  0  0  0
    6.7353    0.5499   22.7212 H   0  0  0  0  0  0  0  0  0  0  0  0
   11.0892   -2.3009   21.3624 H   0  0  0  0  0  0  0  0  0  0  0  0
    4.8895    1.3224   16.5551 H   0  0  0  0  0  0  0  0  0  0  0  0
    5.3244    0.8760   24.7493 H   0  0  0  0  0  0  0  0  0  0  0  0
    8.2487   -0.3515   18.2353 H   0  0  0  0  0  0  0  0  0  0  0  0
    7.4305   -1.9409   26.8796 H   0  0  0  0  0  0  0  0  0  0  0  0
    4.0027   -0.9009   21.0376 H   0  0  0  0  0  0  0  0  0  0  0  0
    5.1865    0.1412   21.8648 H   0  0  0  0  0  0  0  0  0  0  0  0
    3.7652    0.8626   21.1118 H   0  0  0  0  0  0  0  0  0  0  0  0
   11.6061   -3.8049   26.0716 H   0  0  0  0  0  0  0  0  0  0  0  0
   10.6968   -4.5714   24.7476 H   0  0  0  0  0  0  0  0  0  0  0  0
   10.5834   -5.2345   26.3947 H   0  0  0  0  0  0  0  0  0  0  0  0
    7.6952   -2.8616   21.6640 H   0  0  0  0  0  0  0  0  0  0  0  0
    9.3362   -2.8695   21.0258 H   0  0  0  0  0  0  0  0  0  0  0  0
    9.0192   -3.4101   22.6777 H   0  0  0  0  0  0  0  0  0  0  0  0
    6.8662   -1.6386   21.0627 H   0  0  0  0  0  0  0  0  0  0  0  0
    9.7624   -2.7627   24.1493 H   0  0  0  0  0  0  0  0  0  0  0  0
  1  2  2  0  0  0  0
  1  3  1  0  0  0  0
  2 11  1  0  0  0  0
  3 16  2  0  0  0  0
  4  7  2  0  0  0  0
  4 12  1  0  0  0  0
  5  8  2  0  0  0  0
  5 13  1  0  0  0  0
  6 11  2  0  0  0  0
  6 16  1  0  0  0  0
  7 23  1  0  0  0  0
  8 24  1  0  0  0  0
  9 14  1  0  0  0  0
  9 23  2  0  0  0  0
 10 15  1  0  0  0  0
 10 24  2  0  0  0  0
 11 22  1  0  0  0  0
 12 14  2  0  0  0  0
 12 19  1  0  0  0  0
 13 15  2  0  0  0  0
 13 22  1  0  0  0  0
 14 25  1  0  0  0  0
 15 26  1  0  0  0  0
 16 29  1  0  0  0  0
 17 20  1  0  0  0  0
 17 26  1  0  0  0  0
 17 27  2  0  0  0  0
 18 22  1  0  0  0  0
 18 25  1  0  0  0  0
 18 28  2  0  0  0  0
 21 22  1  6  0  0  0
  1 30  1  0  0  0  0
  2 31  1  0  0  0  0
  3 32  1  0  0  0  0
  4 33  1  0  0  0  0
  5 34  1  0  0  0  0
  6 35  1  0  0  0  0
  7 36  1  0  0  0  0
  8 37  1  0  0  0  0
  9 38  1  0  0  0  0
 10 39  1  0  0  0  0
 19 40  1  0  0  0  0
 19 41  1  0  0  0  0
 19 42  1  0  0  0  0
 20 43  1  0  0  0  0
 20 44  1  0  0  0  0
 20 45  1  0  0  0  0
 21 46  1  0  0  0  0
 21 47  1  0  0  0  0
 21 48  1  0  0  0  0
 25 49  1  0  0  0  0
 26 50  1  0  0  0  0
M  END
> <compound>
MAK-UNK-f203cb68-9

> <compound_smiles>
Cc1ccncc1NC(=O)C(C)(c2cccc(c2)Cl)c3ccncc3NC(=O)C

> <enantiomer_smiles>
Cc1ccncc1NC(=O)[C@@](C)(c2cccc(c2)Cl)c3ccncc3NC(=O)C

> <scaffold>
chlorobenzene-linker

> <clash_score>
0

> <docking_score>
-7.641136169433594

> <overlap_score>
0.8460484147071838

> <MMFF_internal_energy>
151.12181771392653

> <docked_smiles>
Cc1ccncc1NC(=O)[C@@](C)(c2cccc(c2)Cl)c3ccncc3NC(=O)C

$$$$
MAK-UNK-f203cb68-2_1
  -OEChem-07262101013D

 50 52  0     1  0  0  0  0  0999 V2000
   11.9780    0.4600   23.9150 C   0  0  0  0  0  0  0  0  0  0  0  0
   10.6560    0.0720   23.7350 C   0  0  0  0  0  0  0  0  0  0  0  0
   12.9840   -0.1200   23.1530 C   0  0  0  0  0  0  0  0  0  0  0  0
    6.4782    3.0980   21.9449 C   0  0  0  0  0  0  0  0  0  0  0  0
    4.9120    1.2553   18.6939 C   0  0  0  0  0  0  0  0  0  0  0  0
   11.3360   -1.5050   22.0650 C   0  0  0  0  0  0  0  0  0  0  0  0
    6.5838    4.4608   22.1720 C   0  0  0  0  0  0  0  0  0  0  0  0
    5.3237    0.8516   17.4340 C   0  0  0  0  0  0  0  0  0  0  0  0
    4.4486    4.8430   21.4149 C   0  0  0  0  0  0  0  0  0  0  0  0
    6.9267   -0.5437   18.3070 C   0  0  0  0  0  0  0  0  0  0  0  0
   10.3220   -0.8940   22.7910 C   0  0  0  0  0  0  0  0  0  0  0  0
    5.2822    2.6156   21.4251 C   0  0  0  0  0  0  0  0  0  0  0  0
    5.5624    0.7121   19.7963 C   0  0  0  0  0  0  0  0  0  0  0  0
    4.2431    3.4982   21.1521 C   0  0  0  0  0  0  0  0  0  0  0  0
    6.5902   -0.2052   19.6078 C   0  0  0  0  0  0  0  0  0  0  0  0
   12.6400   -1.1000   22.2390 C   0  0  0  0  0  0  0  0  0  0  0  0
    1.8971    3.8298   20.3090 C   0  0  0  0  0  0  0  0  0  0  0  0
    8.3880   -0.3240   21.3070 C   0  0  0  0  0  0  0  0  0  0  0  0
    0.7767    2.9778   19.7674 C   0  0  0  0  0  0  0  0  0  0  0  0
    8.6719   -2.6843   22.1478 C   0  0  0  0  0  0  0  0  0  0  0  0
    5.1392    1.1301   21.1663 C   0  0  0  0  0  0  0  0  0  0  0  0
    8.8810   -1.1900   22.4510 C   0  0  1  0  0  0  0  0  0  0  0  0
    5.5963    5.3489   21.9195 N   0  0  0  0  0  0  0  0  0  0  0  0
    6.3179   -0.0371   17.2114 N   0  0  0  0  0  0  0  0  0  0  0  0
    3.0251    3.0626   20.6308 N   0  0  0  0  0  0  0  0  0  0  0  0
    7.2820   -0.7860   20.6970 N   0  0  0  0  0  0  0  0  0  0  0  0
    1.7645    5.0441   20.4222 O   0  0  0  0  0  0  0  0  0  0  0  0
    8.9170    0.7530   21.0260 O   0  0  0  0  0  0  0  0  0  0  0  0
   13.8840   -1.8490   21.2740 Cl  0  0  0  0  0  0  0  0  0  0  0  0
   12.2249    1.2198   24.6546 H   0  0  0  0  0  0  0  0  0  0  0  0
    9.8763    0.5350   24.3454 H   0  0  0  0  0  0  0  0  0  0  0  0
   14.0077    0.1988   23.2842 H   0  0  0  0  0  0  0  0  0  0  0  0
    7.3080    2.4362   22.1685 H   0  0  0  0  0  0  0  0  0  0  0  0
    4.1067    1.9732   18.8067 H   0  0  0  0  0  0  0  0  0  0  0  0
   11.0892   -2.3009   21.3624 H   0  0  0  0  0  0  0  0  0  0  0  0
    7.4959    4.8874   22.5762 H   0  0  0  0  0  0  0  0  0  0  0  0
    4.8487    1.2458   16.5417 H   0  0  0  0  0  0  0  0  0  0  0  0
    3.6751    5.5809   21.2233 H   0  0  0  0  0  0  0  0  0  0  0  0
    7.7200   -1.2544   18.0953 H   0  0  0  0  0  0  0  0  0  0  0  0
    0.1401    2.6375   20.5889 H   0  0  0  0  0  0  0  0  0  0  0  0
    1.1903    2.1048   19.2544 H   0  0  0  0  0  0  0  0  0  0  0  0
    0.1791    3.5552   19.0558 H   0  0  0  0  0  0  0  0  0  0  0  0
    9.2843   -3.0131   21.3007 H   0  0  0  0  0  0  0  0  0  0  0  0
    8.9296   -3.3200   23.0024 H   0  0  0  0  0  0  0  0  0  0  0  0
    7.6214   -2.8709   21.8984 H   0  0  0  0  0  0  0  0  0  0  0  0
    5.7105    0.5765   21.9311 H   0  0  0  0  0  0  0  0  0  0  0  0
    4.0931    0.8326   21.3531 H   0  0  0  0  0  0  0  0  0  0  0  0
    8.2360   -0.9649   23.3210 H   0  0  0  0  0  0  0  0  0  0  0  0
    2.9372    2.0542   20.4580 H   0  0  0  0  0  0  0  0  0  0  0  0
    6.8824   -1.6524   21.0513 H   0  0  0  0  0  0  0  0  0  0  0  0
  1  2  2  0  0  0  0
  1  3  1  0  0  0  0
  2 11  1  0  0  0  0
  3 16  2  0  0  0  0
  4  7  2  0  0  0  0
  4 12  1  0  0  0  0
  5  8  2  0  0  0  0
  5 13  1  0  0  0  0
  6 11  2  0  0  0  0
  6 16  1  0  0  0  0
  7 23  1  0  0  0  0
  8 24  1  0  0  0  0
  9 14  1  0  0  0  0
  9 23  2  0  0  0  0
 10 15  1  0  0  0  0
 10 24  2  0  0  0  0
 11 22  1  0  0  0  0
 12 14  2  0  0  0  0
 12 21  1  0  0  0  0
 13 15  2  0  0  0  0
 13 21  1  0  0  0  0
 14 25  1  0  0  0  0
 15 26  1  0  0  0  0
 16 29  1  0  0  0  0
 17 19  1  0  0  0  0
 17 25  1  0  0  0  0
 17 27  2  0  0  0  0
 18 22  1  0  0  0  0
 18 26  1  0  0  0  0
 18 28  2  0  0  0  0
 20 22  1  1  0  0  0
  1 30  1  0  0  0  0
  2 31  1  0  0  0  0
  3 32  1  0  0  0  0
  4 33  1  0  0  0  0
  5 34  1  0  0  0  0
  6 35  1  0  0  0  0
  7 36  1  0  0  0  0
  8 37  1  0  0  0  0
  9 38  1  0  0  0  0
 10 39  1  0  0  0  0
 19 40  1  0  0  0  0
 19 41  1  0  0  0  0
 19 42  1  0  0  0  0
 20 43  1  0  0  0  0
 20 44  1  0  0  0  0
 20 45  1  0  0  0  0
 21 46  1  0  0  0  0
 21 47  1  0  0  0  0
 22 48  1  0  0  0  0
 25 49  1  0  0  0  0
 26 50  1  0  0  0  0
M  END
> <compound>
MAK-UNK-f203cb68-2

> <compound_smiles>
CC(c1cccc(c1)Cl)C(=O)Nc2cnccc2Cc3ccncc3NC(=O)C

> <enantiomer_smiles>
C[C@@H](c1cccc(c1)Cl)C(=O)Nc2cnccc2Cc3ccncc3NC(=O)C

> <scaffold>
chlorobenzene-linker

> <clash_score>
0

> <docking_score>
-9.607893943786621

> <overlap_score>
0.9171806573867798

> <MMFF_internal_energy>
117.30079494555119

> <docked_smiles>
C[C@@H](c1cccc(c1)Cl)C(=O)Nc2cnccc2Cc3ccncc3NC(=O)C

$$$$
MAK-UNK-f203cb68-9_2
  -OEChem-07262101013D

 50 52  0     1  0  0  0  0  0999 V2000
   11.9780    0.4600   23.9150 C   0  0  0  0  0  0  0  0  0  0  0  0
   10.6560    0.0720   23.7350 C   0  0  0  0  0  0  0  0  0  0  0  0
   12.9840   -0.1200   23.1530 C   0  0  0  0  0  0  0  0  0  0  0  0
    5.3878    1.6019   18.5728 C   0  0  0  0  0  0  0  0  0  0  0  0
    8.4002   -3.6383   23.0215 C   0  0  0  0  0  0  0  0  0  0  0  0
   11.3360   -1.5050   22.0650 C   0  0  0  0  0  0  0  0  0  0  0  0
    5.2633    0.8046   17.4465 C   0  0  0  0  0  0  0  0  0  0  0  0
    8.2679   -4.9592   22.6248 C   0  0  0  0  0  0  0  0  0  0  0  0
    6.4083   -0.9248   18.4347 C   0  0  0  0  0  0  0  0  0  0  0  0
    8.6953   -4.4361   20.4290 C   0  0  0  0  0  0  0  0  0  0  0  0
   10.3220   -0.8940   22.7910 C   0  0  0  0  0  0  0  0  0  0  0  0
    6.0634    1.0783   19.6695 C   0  0  0  0  0  0  0  0  0  0  0  0
    8.6956   -2.6923   22.0462 C   0  0  0  0  0  0  0  0  0  0  0  0
    6.5866   -0.2084   19.6072 C   0  0  0  0  0  0  0  0  0  0  0  0
    8.8475   -3.0906   20.7227 C   0  0  0  0  0  0  0  0  0  0  0  0
   12.6400   -1.1000   22.2390 C   0  0  0  0  0  0  0  0  0  0  0  0
    9.3248   -2.4333   18.3427 C   0  0  0  0  0  0  0  0  0  0  0  0
    8.3880   -0.3240   21.3070 C   0  0  0  0  0  0  0  0  0  0  0  0
    6.2129    1.9164   20.8967 C   0  0  0  0  0  0  0  0  0  0  0  0
    9.6340   -1.1723   17.5755 C   0  0  0  0  0  0  0  0  0  0  0  0
    7.9545   -0.8314   23.6687 C   0  0  0  0  0  0  0  0  0  0  0  0
    8.8810   -1.1900   22.4510 C   0  0  2  0  0  0  0  0  0  0  0  0
    5.7579   -0.4498   17.3489 N   0  0  0  0  0  0  0  0  0  0  0  0
    8.4083   -5.3840   21.3491 N   0  0  0  0  0  0  0  0  0  0  0  0
    7.2820   -0.7860   20.6970 N   0  0  0  0  0  0  0  0  0  0  0  0
    9.1441   -2.1796   19.7093 N   0  0  0  0  0  0  0  0  0  0  0  0
    9.2530   -3.5156   17.7696 O   0  0  0  0  0  0  0  0  0  0  0  0
    8.9170    0.7530   21.0260 O   0  0  0  0  0  0  0  0  0  0  0  0
   13.8840   -1.8490   21.2740 Cl  0  0  0  0  0  0  0  0  0  0  0  0
   12.2249    1.2198   24.6546 H   0  0  0  0  0  0  0  0  0  0  0  0
    9.8763    0.5350   24.3454 H   0  0  0  0  0  0  0  0  0  0  0  0
   14.0077    0.1988   23.2842 H   0  0  0  0  0  0  0  0  0  0  0  0
    4.9682    2.6020   18.5891 H   0  0  0  0  0  0  0  0  0  0  0  0
    8.2753   -3.3604   24.0625 H   0  0  0  0  0  0  0  0  0  0  0  0
   11.0892   -2.3009   21.3624 H   0  0  0  0  0  0  0  0  0  0  0  0
    4.7453    1.1664   16.5645 H   0  0  0  0  0  0  0  0  0  0  0  0
    8.0377   -5.7356   23.3471 H   0  0  0  0  0  0  0  0  0  0  0  0
    6.7932   -1.9344   18.3252 H   0  0  0  0  0  0  0  0  0  0  0  0
    8.8022   -4.8086   19.4145 H   0  0  0  0  0  0  0  0  0  0  0  0
    5.3665    1.7527   21.5737 H   0  0  0  0  0  0  0  0  0  0  0  0
    7.1399    1.6749   21.4310 H   0  0  0  0  0  0  0  0  0  0  0  0
    6.2581    2.9832   20.6449 H   0  0  0  0  0  0  0  0  0  0  0  0
   10.7154   -1.0116   17.5478 H   0  0  0  0  0  0  0  0  0  0  0  0
    9.1609   -0.3161   18.0646 H   0  0  0  0  0  0  0  0  0  0  0  0
    9.2493   -1.2527   16.5545 H   0  0  0  0  0  0  0  0  0  0  0  0
    6.9092   -1.0347   23.4065 H   0  0  0  0  0  0  0  0  0  0  0  0
    8.1692   -1.4052   24.5791 H   0  0  0  0  0  0  0  0  0  0  0  0
    8.0053    0.2310   23.9333 H   0  0  0  0  0  0  0  0  0  0  0  0
    6.8662   -1.6386   21.0627 H   0  0  0  0  0  0  0  0  0  0  0  0
    9.2433   -1.1977   19.9929 H   0  0  0  0  0  0  0  0  0  0  0  0
  1  2  2  0  0  0  0
  1  3  1  0  0  0  0
  2 11  1  0  0  0  0
  3 16  2  0  0  0  0
  4  7  2  0  0  0  0
  4 12  1  0  0  0  0
  5  8  2  0  0  0  0
  5 13  1  0  0  0  0
  6 11  2  0  0  0  0
  6 16  1  0  0  0  0
  7 23  1  0  0  0  0
  8 24  1  0  0  0  0
  9 14  1  0  0  0  0
  9 23  2  0  0  0  0
 10 15  1  0  0  0  0
 10 24  2  0  0  0  0
 11 22  1  0  0  0  0
 12 14  2  0  0  0  0
 12 19  1  0  0  0  0
 13 15  2  0  0  0  0
 13 22  1  0  0  0  0
 14 25  1  0  0  0  0
 15 26  1  0  0  0  0
 16 29  1  0  0  0  0
 17 20  1  0  0  0  0
 17 26  1  0  0  0  0
 17 27  2  0  0  0  0
 18 22  1  0  0  0  0
 18 25  1  0  0  0  0
 18 28  2  0  0  0  0
 21 22  1  1  0  0  0
  1 30  1  0  0  0  0
  2 31  1  0  0  0  0
  3 32  1  0  0  0  0
  4 33  1  0  0  0  0
  5 34  1  0  0  0  0
  6 35  1  0  0  0  0
  7 36  1  0  0  0  0
  8 37  1  0  0  0  0
  9 38  1  0  0  0  0
 10 39  1  0  0  0  0
 19 40  1  0  0  0  0
 19 41  1  0  0  0  0
 19 42  1  0  0  0  0
 20 43  1  0  0  0  0
 20 44  1  0  0  0  0
 20 45  1  0  0  0  0
 21 46  1  0  0  0  0
 21 47  1  0  0  0  0
 21 48  1  0  0  0  0
 25 49  1  0  0  0  0
 26 50  1  0  0  0  0
M  END
> <compound>
MAK-UNK-f203cb68-9

> <compound_smiles>
Cc1ccncc1NC(=O)C(C)(c2cccc(c2)Cl)c3ccncc3NC(=O)C

> <enantiomer_smiles>
Cc1ccncc1NC(=O)[C@](C)(c2cccc(c2)Cl)c3ccncc3NC(=O)C

> <scaffold>
chlorobenzene-linker

> <clash_score>
3.963819762857601

> <docking_score>
0.8030308485031128

> <overlap_score>
0.8139165043830872

> <MMFF_internal_energy>
161.46469936565128

> <docked_smiles>
Cc1ccncc1NC(=O)[C@](C)(c2cccc(c2)Cl)c3ccncc3NC(=O)C

$$$$
JAG-UCB-a3ef7265-10_1
  -OEChem-07262101013D

 27 28  0     0  0  0  0  0  0999 V2000
   11.9780    0.4600   23.9150 C   0  0  0  0  0  0  0  0  0  0  0  0
   10.6560    0.0720   23.7350 C   0  0  0  0  0  0  0  0  0  0  0  0
   12.9840   -0.1200   23.1530 C   0  0  0  0  0  0  0  0  0  0  0  0
   10.3220   -0.8940   22.7910 C   0  0  0  0  0  0  0  0  0  0  0  0
   11.3360   -1.5050   22.0650 C   0  0  0  0  0  0  0  0  0  0  0  0
   12.6400   -1.1000   22.2390 C   0  0  0  0  0  0  0  0  0  0  0  0
    5.7977    1.3538   18.0168 C   0  0  0  0  0  0  0  0  0  0  0  0
    6.5418   -0.1622   19.6645 C   0  0  0  0  0  0  0  0  0  0  0  0
    8.3880   -0.3240   21.3070 C   0  0  0  0  0  0  0  0  0  0  0  0
    5.6050    2.4883   17.0918 C   0  0  0  0  0  0  0  0  0  0  0  0
    8.8810   -1.1900   22.4510 C   0  0  0  0  0  0  0  0  0  0  0  0
    5.0233    0.2922   18.0882 N   0  0  0  0  0  0  0  0  0  0  0  0
    5.4592   -0.5966   19.0554 N   0  0  0  0  0  0  0  0  0  0  0  0
    7.2820   -0.7860   20.6970 N   0  0  0  0  0  0  0  0  0  0  0  0
    8.9170    0.7530   21.0260 O   0  0  0  0  0  0  0  0  0  0  0  0
   11.0339   -2.4881   21.1996 F   0  0  0  0  0  0  0  0  0  0  0  0
    7.1160    1.3572   19.1140 S   0  0  0  0  0  0  0  0  0  0  0  0
   13.8840   -1.8490   21.2740 Cl  0  0  0  0  0  0  0  0  0  0  0  0
   12.2252    1.2198   24.6545 H   0  0  0  0  0  0  0  0  0  0  0  0
    9.8771    0.5358   24.3458 H   0  0  0  0  0  0  0  0  0  0  0  0
   14.0073    0.1994   23.2846 H   0  0  0  0  0  0  0  0  0  0  0  0
    4.9694    3.2664   17.5451 H   0  0  0  0  0  0  0  0  0  0  0  0
    6.5621    2.9591   16.8100 H   0  0  0  0  0  0  0  0  0  0  0  0
    5.1294    2.1749   16.1468 H   0  0  0  0  0  0  0  0  0  0  0  0
    8.7710   -2.2387   22.1706 H   0  0  0  0  0  0  0  0  0  0  0  0
    8.2492   -1.0157   23.3232 H   0  0  0  0  0  0  0  0  0  0  0  0
    6.9372   -1.6894   21.0149 H   0  0  0  0  0  0  0  0  0  0  0  0
  1  2  2  0  0  0  0
  1  3  1  0  0  0  0
  2  4  1  0  0  0  0
  3  6  2  0  0  0  0
  4  5  2  0  0  0  0
  4 11  1  0  0  0  0
  5  6  1  0  0  0  0
  5 16  1  0  0  0  0
  6 18  1  0  0  0  0
  7 10  1  0  0  0  0
  7 12  2  0  0  0  0
  7 17  1  0  0  0  0
  8 13  2  0  0  0  0
  8 14  1  0  0  0  0
  8 17  1  0  0  0  0
  9 11  1  0  0  0  0
  9 14  1  0  0  0  0
  9 15  2  0  0  0  0
 12 13  1  0  0  0  0
  1 19  1  0  0  0  0
  2 20  1  0  0  0  0
  3 21  1  0  0  0  0
 10 22  1  0  0  0  0
 10 23  1  0  0  0  0
 10 24  1  0  0  0  0
 11 25  1  0  0  0  0
 11 26  1  0  0  0  0
 14 27  1  0  0  0  0
M  END
> <compound>
JAG-UCB-a3ef7265-10

> <compound_smiles>
Cc1nnc(s1)NC(=O)Cc2cccc(c2F)Cl

> <enantiomer_smiles>
Cc1nnc(s1)NC(=O)Cc2cccc(c2F)Cl

> <scaffold>
chlorobenzene-linker

> <clash_score>
0

> <docking_score>
-3.7995519638061523

> <overlap_score>
0.754871666431427

> <MMFF_internal_energy>
14.18878916233342

> <docked_smiles>
Cc1nnc(s1)NC(=O)Cc2cccc(c2F)Cl

$$$$
BAR-COM-ebf5acce-7_1
  -OEChem-07262101013D

 42 44  0     0  0  0  0  0  0999 V2000
   11.9780    0.4600   23.9150 C   0  0  0  0  0  0  0  0  0  0  0  0
   10.6560    0.0720   23.7350 C   0  0  0  0  0  0  0  0  0  0  0  0
   12.9840   -0.1200   23.1530 C   0  0  0  0  0  0  0  0  0  0  0  0
    5.1252    1.6950   18.8962 C   0  0  0  0  0  0  0  0  0  0  0  0
   11.3360   -1.5050   22.0650 C   0  0  0  0  0  0  0  0  0  0  0  0
    5.5790    1.4557   17.6091 C   0  0  0  0  0  0  0  0  0  0  0  0
    5.4297   -4.5610   24.6749 C   0  0  0  0  0  0  0  0  0  0  0  0
    7.0520   -0.1526   18.3316 C   0  0  0  0  0  0  0  0  0  0  0  0
    5.7844   -5.2543   23.5444 C   0  0  0  0  0  0  0  0  0  0  0  0
   10.3220   -0.8940   22.7910 C   0  0  0  0  0  0  0  0  0  0  0  0
    5.6849    0.9550   19.9318 C   0  0  0  0  0  0  0  0  0  0  0  0
    6.6674    0.0115   19.6526 C   0  0  0  0  0  0  0  0  0  0  0  0
   12.6400   -1.1000   22.2390 C   0  0  0  0  0  0  0  0  0  0  0  0
    5.9460   -3.1485   23.2048 C   0  0  0  0  0  0  0  0  0  0  0  0
    8.3880   -0.3240   21.3070 C   0  0  0  0  0  0  0  0  0  0  0  0
    5.2147    1.1929   21.3293 C   0  0  0  0  0  0  0  0  0  0  0  0
    8.8810   -1.1900   22.4510 C   0  0  0  0  0  0  0  0  0  0  0  0
    6.6749   -2.0846   21.0614 C   0  0  0  0  0  0  0  0  0  0  0  0
    6.5314    0.5477   17.2990 N   0  0  0  0  0  0  0  0  0  0  0  0
    5.5355   -3.2121   24.4513 N   0  0  0  0  0  0  0  0  0  0  0  0
    6.2248   -2.0302   22.4372 N   0  0  0  0  0  0  0  0  0  0  0  0
    7.2820   -0.7860   20.6970 N   0  0  0  0  0  0  0  0  0  0  0  0
    8.9170    0.7530   21.0260 O   0  0  0  0  0  0  0  0  0  0  0  0
    6.1209   -4.3477   22.5851 O   0  0  0  0  0  0  0  0  0  0  0  0
   13.8840   -1.8490   21.2740 Cl  0  0  0  0  0  0  0  0  0  0  0  0
   12.2249    1.2198   24.6546 H   0  0  0  0  0  0  0  0  0  0  0  0
    9.8763    0.5350   24.3454 H   0  0  0  0  0  0  0  0  0  0  0  0
   14.0077    0.1988   23.2842 H   0  0  0  0  0  0  0  0  0  0  0  0
    4.3572    2.4386   19.0804 H   0  0  0  0  0  0  0  0  0  0  0  0
   11.0892   -2.3009   21.3624 H   0  0  0  0  0  0  0  0  0  0  0  0
    5.1747    2.0066   16.7663 H   0  0  0  0  0  0  0  0  0  0  0  0
    5.1076   -4.9564   25.6265 H   0  0  0  0  0  0  0  0  0  0  0  0
    7.8138   -0.8737   18.0503 H   0  0  0  0  0  0  0  0  0  0  0  0
    5.8495   -6.2962   23.2696 H   0  0  0  0  0  0  0  0  0  0  0  0
    4.3699    0.5347   21.5630 H   0  0  0  0  0  0  0  0  0  0  0  0
    6.0159    1.0045   22.0545 H   0  0  0  0  0  0  0  0  0  0  0  0
    4.8963    2.2335   21.4685 H   0  0  0  0  0  0  0  0  0  0  0  0
    8.7966   -2.2430   22.1857 H   0  0  0  0  0  0  0  0  0  0  0  0
    8.2693   -1.0024   23.3337 H   0  0  0  0  0  0  0  0  0  0  0  0
    7.3971   -2.8929   20.8965 H   0  0  0  0  0  0  0  0  0  0  0  0
    5.8314   -2.2939   20.3981 H   0  0  0  0  0  0  0  0  0  0  0  0
    6.1008   -1.1160   22.8572 H   0  0  0  0  0  0  0  0  0  0  0  0
  1  2  2  0  0  0  0
  1  3  1  0  0  0  0
  2 10  1  0  0  0  0
  3 13  2  0  0  0  0
  4  6  2  0  0  0  0
  4 11  1  0  0  0  0
  5 10  2  0  0  0  0
  5 13  1  0  0  0  0
  6 19  1  0  0  0  0
  7  9  2  0  0  0  0
  7 20  1  0  0  0  0
  8 12  1  0  0  0  0
  8 19  2  0  0  0  0
  9 24  1  0  0  0  0
 10 17  1  0  0  0  0
 11 12  2  0  0  0  0
 11 16  1  0  0  0  0
 12 22  1  0  0  0  0
 13 25  1  0  0  0  0
 14 20  2  0  0  0  0
 14 21  1  0  0  0  0
 14 24  1  0  0  0  0
 15 17  1  0  0  0  0
 15 22  1  0  0  0  0
 15 23  2  0  0  0  0
 18 21  1  0  0  0  0
 18 22  1  0  0  0  0
  1 26  1  0  0  0  0
  2 27  1  0  0  0  0
  3 28  1  0  0  0  0
  4 29  1  0  0  0  0
  5 30  1  0  0  0  0
  6 31  1  0  0  0  0
  7 32  1  0  0  0  0
  8 33  1  0  0  0  0
  9 34  1  0  0  0  0
 16 35  1  0  0  0  0
 16 36  1  0  0  0  0
 16 37  1  0  0  0  0
 17 38  1  0  0  0  0
 17 39  1  0  0  0  0
 18 40  1  0  0  0  0
 18 41  1  0  0  0  0
 21 42  1  0  0  0  0
M  END
> <compound>
BAR-COM-ebf5acce-7

> <compound_smiles>
Cc1ccncc1N(CNc2ncco2)C(=O)Cc3cccc(c3)Cl

> <enantiomer_smiles>
Cc1ccncc1N(CNc2ncco2)C(=O)Cc3cccc(c3)Cl

> <scaffold>
chlorobenzene-linker

> <clash_score>
0

> <docking_score>
-9.149749755859375

> <overlap_score>
0.8580188751220703

> <MMFF_internal_energy>
9.81205412478614

> <docked_smiles>
Cc1ccncc1N(CNc2ncco2)C(=O)Cc3cccc(c3)Cl

$$$$
MAK-UNK-f203cb68-2_2
  -OEChem-07262101013D

 50 52  0     1  0  0  0  0  0999 V2000
   11.9780    0.4600   23.9150 C   0  0  0  0  0  0  0  0  0  0  0  0
   10.6560    0.0720   23.7350 C   0  0  0  0  0  0  0  0  0  0  0  0
   12.9840   -0.1200   23.1530 C   0  0  0  0  0  0  0  0  0  0  0  0
    6.4782    3.0980   21.9449 C   0  0  0  0  0  0  0  0  0  0  0  0
    4.9120    1.2553   18.6939 C   0  0  0  0  0  0  0  0  0  0  0  0
   11.3360   -1.5050   22.0650 C   0  0  0  0  0  0  0  0  0  0  0  0
    6.5838    4.4608   22.1720 C   0  0  0  0  0  0  0  0  0  0  0  0
    5.3237    0.8516   17.4340 C   0  0  0  0  0  0  0  0  0  0  0  0
    4.4486    4.8430   21.4149 C   0  0  0  0  0  0  0  0  0  0  0  0
    6.9267   -0.5437   18.3070 C   0  0  0  0  0  0  0  0  0  0  0  0
   10.3220   -0.8940   22.7910 C   0  0  0  0  0  0  0  0  0  0  0  0
    5.2822    2.6156   21.4251 C   0  0  0  0  0  0  0  0  0  0  0  0
    5.5624    0.7121   19.7963 C   0  0  0  0  0  0  0  0  0  0  0  0
    4.2431    3.4982   21.1521 C   0  0  0  0  0  0  0  0  0  0  0  0
    6.5902   -0.2052   19.6078 C   0  0  0  0  0  0  0  0  0  0  0  0
   12.6400   -1.1000   22.2390 C   0  0  0  0  0  0  0  0  0  0  0  0
    1.8971    3.8298   20.3090 C   0  0  0  0  0  0  0  0  0  0  0  0
    8.3880   -0.3240   21.3070 C   0  0  0  0  0  0  0  0  0  0  0  0
    0.7767    2.9778   19.7674 C   0  0  0  0  0  0  0  0  0  0  0  0
    7.9670   -1.0352   23.6784 C   0  0  0  0  0  0  0  0  0  0  0  0
    5.1392    1.1301   21.1663 C   0  0  0  0  0  0  0  0  0  0  0  0
    8.8810   -1.1900   22.4510 C   0  0  2  0  0  0  0  0  0  0  0  0
    5.5963    5.3489   21.9195 N   0  0  0  0  0  0  0  0  0  0  0  0
    6.3179   -0.0371   17.2114 N   0  0  0  0  0  0  0  0  0  0  0  0
    3.0251    3.0626   20.6308 N   0  0  0  0  0  0  0  0  0  0  0  0
    7.2820   -0.7860   20.6970 N   0  0  0  0  0  0  0  0  0  0  0  0
    1.7645    5.0441   20.4222 O   0  0  0  0  0  0  0  0  0  0  0  0
    8.9170    0.7530   21.0260 O   0  0  0  0  0  0  0  0  0  0  0  0
   13.8840   -1.8490   21.2740 Cl  0  0  0  0  0  0  0  0  0  0  0  0
   12.2249    1.2198   24.6546 H   0  0  0  0  0  0  0  0  0  0  0  0
    9.8763    0.5350   24.3454 H   0  0  0  0  0  0  0  0  0  0  0  0
   14.0077    0.1988   23.2842 H   0  0  0  0  0  0  0  0  0  0  0  0
    7.3080    2.4362   22.1685 H   0  0  0  0  0  0  0  0  0  0  0  0
    4.1067    1.9732   18.8067 H   0  0  0  0  0  0  0  0  0  0  0  0
   11.0892   -2.3009   21.3624 H   0  0  0  0  0  0  0  0  0  0  0  0
    7.4959    4.8874   22.5762 H   0  0  0  0  0  0  0  0  0  0  0  0
    4.8487    1.2458   16.5417 H   0  0  0  0  0  0  0  0  0  0  0  0
    3.6751    5.5809   21.2233 H   0  0  0  0  0  0  0  0  0  0  0  0
    7.7200   -1.2544   18.0953 H   0  0  0  0  0  0  0  0  0  0  0  0
    0.1401    2.6375   20.5889 H   0  0  0  0  0  0  0  0  0  0  0  0
    1.1903    2.1048   19.2544 H   0  0  0  0  0  0  0  0  0  0  0  0
    0.1791    3.5552   19.0558 H   0  0  0  0  0  0  0  0  0  0  0  0
    8.0088   -0.0193   24.0871 H   0  0  0  0  0  0  0  0  0  0  0  0
    6.9216   -1.2406   23.4222 H   0  0  0  0  0  0  0  0  0  0  0  0
    8.2585   -1.7315   24.4726 H   0  0  0  0  0  0  0  0  0  0  0  0
    5.7105    0.5765   21.9310 H   0  0  0  0  0  0  0  0  0  0  0  0
    4.0931    0.8326   21.3531 H   0  0  0  0  0  0  0  0  0  0  0  0
    8.7806   -2.2413   22.1242 H   0  0  0  0  0  0  0  0  0  0  0  0
    2.9372    2.0542   20.4580 H   0  0  0  0  0  0  0  0  0  0  0  0
    6.8824   -1.6524   21.0513 H   0  0  0  0  0  0  0  0  0  0  0  0
  1  2  2  0  0  0  0
  1  3  1  0  0  0  0
  2 11  1  0  0  0  0
  3 16  2  0  0  0  0
  4  7  2  0  0  0  0
  4 12  1  0  0  0  0
  5  8  2  0  0  0  0
  5 13  1  0  0  0  0
  6 11  2  0  0  0  0
  6 16  1  0  0  0  0
  7 23  1  0  0  0  0
  8 24  1  0  0  0  0
  9 14  1  0  0  0  0
  9 23  2  0  0  0  0
 10 15  1  0  0  0  0
 10 24  2  0  0  0  0
 11 22  1  0  0  0  0
 12 14  2  0  0  0  0
 12 21  1  0  0  0  0
 13 15  2  0  0  0  0
 13 21  1  0  0  0  0
 14 25  1  0  0  0  0
 15 26  1  0  0  0  0
 16 29  1  0  0  0  0
 17 19  1  0  0  0  0
 17 25  1  0  0  0  0
 17 27  2  0  0  0  0
 18 22  1  0  0  0  0
 18 26  1  0  0  0  0
 18 28  2  0  0  0  0
 20 22  1  6  0  0  0
  1 30  1  0  0  0  0
  2 31  1  0  0  0  0
  3 32  1  0  0  0  0
  4 33  1  0  0  0  0
  5 34  1  0  0  0  0
  6 35  1  0  0  0  0
  7 36  1  0  0  0  0
  8 37  1  0  0  0  0
  9 38  1  0  0  0  0
 10 39  1  0  0  0  0
 19 40  1  0  0  0  0
 19 41  1  0  0  0  0
 19 42  1  0  0  0  0
 20 43  1  0  0  0  0
 20 44  1  0  0  0  0
 20 45  1  0  0  0  0
 21 46  1  0  0  0  0
 21 47  1  0  0  0  0
 22 48  1  0  0  0  0
 25 49  1  0  0  0  0
 26 50  1  0  0  0  0
M  END
> <compound>
MAK-UNK-f203cb68-2

> <compound_smiles>
CC(c1cccc(c1)Cl)C(=O)Nc2cnccc2Cc3ccncc3NC(=O)C

> <enantiomer_smiles>
C[C@H](c1cccc(c1)Cl)C(=O)Nc2cnccc2Cc3ccncc3NC(=O)C

> <scaffold>
chlorobenzene-linker

> <clash_score>
0

> <docking_score>
-9.85947036743164

> <overlap_score>
0.9169060587882996

> <MMFF_internal_energy>
111.6432942263563

> <docked_smiles>
C[C@H](c1cccc(c1)Cl)C(=O)Nc2cnccc2Cc3ccncc3NC(=O)C

$$$$
MAK-UNK-f203cb68-11_1
  -OEChem-07262101013D

 50 52  0     1  0  0  0  0  0999 V2000
   11.9780    0.4600   23.9150 C   0  0  0  0  0  0  0  0  0  0  0  0
   10.6560    0.0720   23.7350 C   0  0  0  0  0  0  0  0  0  0  0  0
   12.9840   -0.1200   23.1530 C   0  0  0  0  0  0  0  0  0  0  0  0
    4.1425    0.4053   21.7659 C   0  0  0  0  0  0  0  0  0  0  0  0
    6.2299    0.0424   17.2428 C   0  0  0  0  0  0  0  0  0  0  0  0
   11.3360   -1.5050   22.0650 C   0  0  0  0  0  0  0  0  0  0  0  0
    3.7542    0.8198   23.0297 C   0  0  0  0  0  0  0  0  0  0  0  0
    5.2233    0.9452   17.5452 C   0  0  0  0  0  0  0  0  0  0  0  0
    5.2636    2.5518   23.0231 C   0  0  0  0  0  0  0  0  0  0  0  0
    5.1462    1.1232   21.1253 C   0  0  0  0  0  0  0  0  0  0  0  0
   10.3220   -0.8940   22.7910 C   0  0  0  0  0  0  0  0  0  0  0  0
    6.9215   -0.5393   18.2994 C   0  0  0  0  0  0  0  0  0  0  0  0
    5.7228    2.2183   21.7591 C   0  0  0  0  0  0  0  0  0  0  0  0
    6.5902   -0.2052   19.6078 C   0  0  0  0  0  0  0  0  0  0  0  0
   12.6400   -1.1000   22.2390 C   0  0  0  0  0  0  0  0  0  0  0  0
    5.5676    0.7088   19.8044 C   0  0  0  0  0  0  0  0  0  0  0  0
    7.3965    4.0941   21.6912 C   0  0  0  0  0  0  0  0  0  0  0  0
    8.3880   -0.3240   21.3070 C   0  0  0  0  0  0  0  0  0  0  0  0
    8.0112   -1.5160   17.9986 C   0  0  0  0  0  0  0  0  0  0  0  0
    8.4311    4.6303   20.7338 C   0  0  0  0  0  0  0  0  0  0  0  0
    8.6719   -2.6843   22.1478 C   0  0  0  0  0  0  0  0  0  0  0  0
    8.8810   -1.1900   22.4510 C   0  0  1  0  0  0  0  0  0  0  0  0
    4.2908    1.8784   23.6771 N   0  0  0  0  0  0  0  0  0  0  0  0
    4.8730    1.2946   18.8033 N   0  0  0  0  0  0  0  0  0  0  0  0
    6.7345    2.9767   21.1668 N   0  0  0  0  0  0  0  0  0  0  0  0
    7.2820   -0.7860   20.6970 N   0  0  0  0  0  0  0  0  0  0  0  0
    7.2158    4.6245   22.7824 O   0  0  0  0  0  0  0  0  0  0  0  0
    8.9170    0.7530   21.0260 O   0  0  0  0  0  0  0  0  0  0  0  0
   13.8840   -1.8490   21.2740 Cl  0  0  0  0  0  0  0  0  0  0  0  0
   12.2249    1.2198   24.6546 H   0  0  0  0  0  0  0  0  0  0  0  0
    9.8763    0.5350   24.3454 H   0  0  0  0  0  0  0  0  0  0  0  0
   14.0077    0.1988   23.2842 H   0  0  0  0  0  0  0  0  0  0  0  0
    3.6669   -0.4542   21.3040 H   0  0  0  0  0  0  0  0  0  0  0  0
    6.4638   -0.1967   16.2108 H   0  0  0  0  0  0  0  0  0  0  0  0
   11.0892   -2.3009   21.3624 H   0  0  0  0  0  0  0  0  0  0  0  0
    2.9747    0.2938   23.5712 H   0  0  0  0  0  0  0  0  0  0  0  0
    4.6539    1.4267   16.7571 H   0  0  0  0  0  0  0  0  0  0  0  0
    5.6744    3.3958   23.5694 H   0  0  0  0  0  0  0  0  0  0  0  0
    8.9705   -0.9953   17.8986 H   0  0  0  0  0  0  0  0  0  0  0  0
    8.1013   -2.2661   18.7938 H   0  0  0  0  0  0  0  0  0  0  0  0
    7.8095   -2.0599   17.0676 H   0  0  0  0  0  0  0  0  0  0  0  0
    7.9766    5.3788   20.0787 H   0  0  0  0  0  0  0  0  0  0  0  0
    8.8255    3.8151   20.1205 H   0  0  0  0  0  0  0  0  0  0  0  0
    9.2560    5.0838   21.2913 H   0  0  0  0  0  0  0  0  0  0  0  0
    9.2843   -3.0131   21.3007 H   0  0  0  0  0  0  0  0  0  0  0  0
    8.9296   -3.3200   23.0024 H   0  0  0  0  0  0  0  0  0  0  0  0
    7.6214   -2.8709   21.8984 H   0  0  0  0  0  0  0  0  0  0  0  0
    8.2360   -0.9649   23.3210 H   0  0  0  0  0  0  0  0  0  0  0  0
    7.0346    2.6824   20.2307 H   0  0  0  0  0  0  0  0  0  0  0  0
    6.8824   -1.6524   21.0513 H   0  0  0  0  0  0  0  0  0  0  0  0
  1  2  2  0  0  0  0
  1  3  1  0  0  0  0
  2 11  1  0  0  0  0
  3 15  2  0  0  0  0
  4  7  2  0  0  0  0
  4 10  1  0  0  0  0
  5  8  2  0  0  0  0
  5 12  1  0  0  0  0
  6 11  2  0  0  0  0
  6 15  1  0  0  0  0
  7 23  1  0  0  0  0
  8 24  1  0  0  0  0
  9 13  1  0  0  0  0
  9 23  2  0  0  0  0
 10 13  2  0  0  0  0
 10 16  1  0  0  0  0
 11 22  1  0  0  0  0
 12 14  2  0  0  0  0
 12 19  1  0  0  0  0
 13 25  1  0  0  0  0
 14 16  1  0  0  0  0
 14 26  1  0  0  0  0
 15 29  1  0  0  0  0
 16 24  2  0  0  0  0
 17 20  1  0  0  0  0
 17 25  1  0  0  0  0
 17 27  2  0  0  0  0
 18 22  1  0  0  0  0
 18 26  1  0  0  0  0
 18 28  2  0  0  0  0
 21 22  1  1  0  0  0
  1 30  1  0  0  0  0
  2 31  1  0  0  0  0
  3 32  1  0  0  0  0
  4 33  1  0  0  0  0
  5 34  1  0  0  0  0
  6 35  1  0  0  0  0
  7 36  1  0  0  0  0
  8 37  1  0  0  0  0
  9 38  1  0  0  0  0
 19 39  1  0  0  0  0
 19 40  1  0  0  0  0
 19 41  1  0  0  0  0
 20 42  1  0  0  0  0
 20 43  1  0  0  0  0
 20 44  1  0  0  0  0
 21 45  1  0  0  0  0
 21 46  1  0  0  0  0
 21 47  1  0  0  0  0
 22 48  1  0  0  0  0
 25 49  1  0  0  0  0
 26 50  1  0  0  0  0
M  END
> <compound>
MAK-UNK-f203cb68-11

> <compound_smiles>
Cc1ccnc(c1NC(=O)C(C)c2cccc(c2)Cl)c3ccncc3NC(=O)C

> <enantiomer_smiles>
Cc1ccnc(c1NC(=O)[C@@H](C)c2cccc(c2)Cl)c3ccncc3NC(=O)C

> <scaffold>
chlorobenzene-linker

> <clash_score>
0.7685177667119117

> <docking_score>
-4.650970458984375

> <overlap_score>
0.9313262104988098

> <MMFF_internal_energy>
113.77802755798355

> <docked_smiles>
Cc1ccnc(c1NC(=O)[C@@H](C)c2cccc(c2)Cl)c3ccncc3NC(=O)C

$$$$
MAK-UNK-f203cb68-12_1
  -OEChem-07262101013D

 50 52  0     1  0  0  0  0  0999 V2000
   11.9780    0.4600   23.9150 C   0  0  0  0  0  0  0  0  0  0  0  0
   10.6560    0.0720   23.7350 C   0  0  0  0  0  0  0  0  0  0  0  0
   12.9840   -0.1200   23.1530 C   0  0  0  0  0  0  0  0  0  0  0  0
    4.1134    0.8165   15.3753 C   0  0  0  0  0  0  0  0  0  0  0  0
   11.3360   -1.5050   22.0650 C   0  0  0  0  0  0  0  0  0  0  0  0
    4.5831    0.2295   18.3559 C   0  0  0  0  0  0  0  0  0  0  0  0
    3.5547    1.4526   14.2785 C   0  0  0  0  0  0  0  0  0  0  0  0
    4.2521    3.5166   15.0076 C   0  0  0  0  0  0  0  0  0  0  0  0
    7.2759    0.5438   18.6652 C   0  0  0  0  0  0  0  0  0  0  0  0
    4.7683    1.6006   16.3185 C   0  0  0  0  0  0  0  0  0  0  0  0
   10.3220   -0.8940   22.7910 C   0  0  0  0  0  0  0  0  0  0  0  0
    5.2183   -0.3606   19.4429 C   0  0  0  0  0  0  0  0  0  0  0  0
    4.8434    2.9773   16.1387 C   0  0  0  0  0  0  0  0  0  0  0  0
    6.5902   -0.2052   19.6078 C   0  0  0  0  0  0  0  0  0  0  0  0
   12.6400   -1.1000   22.2390 C   0  0  0  0  0  0  0  0  0  0  0  0
    5.3587    0.9592   17.4694 C   0  0  0  0  0  0  0  0  0  0  0  0
    5.6329    5.2074   16.9917 C   0  0  0  0  0  0  0  0  0  0  0  0
    8.3880   -0.3240   21.3070 C   0  0  0  0  0  0  0  0  0  0  0  0
    4.4069   -1.1532   20.4149 C   0  0  0  0  0  0  0  0  0  0  0  0
    6.3962    5.7399   18.1783 C   0  0  0  0  0  0  0  0  0  0  0  0
    8.6719   -2.6843   22.1478 C   0  0  0  0  0  0  0  0  0  0  0  0
    8.8810   -1.1900   22.4510 C   0  0  1  0  0  0  0  0  0  0  0  0
    3.6074    2.7872   14.0695 N   0  0  0  0  0  0  0  0  0  0  0  0
    6.6935    1.1321   17.5964 N   0  0  0  0  0  0  0  0  0  0  0  0
    5.4864    3.8157   17.0514 N   0  0  0  0  0  0  0  0  0  0  0  0
    7.2820   -0.7860   20.6970 N   0  0  0  0  0  0  0  0  0  0  0  0
    5.2182    5.9648   16.1203 O   0  0  0  0  0  0  0  0  0  0  0  0
    8.9170    0.7530   21.0260 O   0  0  0  0  0  0  0  0  0  0  0  0
   13.8840   -1.8490   21.2740 Cl  0  0  0  0  0  0  0  0  0  0  0  0
   12.2249    1.2198   24.6546 H   0  0  0  0  0  0  0  0  0  0  0  0
    9.8763    0.5350   24.3454 H   0  0  0  0  0  0  0  0  0  0  0  0
   14.0077    0.1988   23.2842 H   0  0  0  0  0  0  0  0  0  0  0  0
    4.0346   -0.2610   15.4792 H   0  0  0  0  0  0  0  0  0  0  0  0
   11.0892   -2.3009   21.3624 H   0  0  0  0  0  0  0  0  0  0  0  0
    3.5126    0.1187   18.2109 H   0  0  0  0  0  0  0  0  0  0  0  0
    3.0338    0.8855   13.5138 H   0  0  0  0  0  0  0  0  0  0  0  0
    4.2767    4.5845   14.8114 H   0  0  0  0  0  0  0  0  0  0  0  0
    8.3479    0.7012   18.7397 H   0  0  0  0  0  0  0  0  0  0  0  0
    4.3639   -2.2038   20.1056 H   0  0  0  0  0  0  0  0  0  0  0  0
    4.8360   -1.1026   21.4231 H   0  0  0  0  0  0  0  0  0  0  0  0
    3.3827   -0.7664   20.4838 H   0  0  0  0  0  0  0  0  0  0  0  0
    7.4664    5.7555   17.9533 H   0  0  0  0  0  0  0  0  0  0  0  0
    6.2260    5.0971   19.0467 H   0  0  0  0  0  0  0  0  0  0  0  0
    6.0571    6.7523   18.4165 H   0  0  0  0  0  0  0  0  0  0  0  0
    9.2843   -3.0131   21.3007 H   0  0  0  0  0  0  0  0  0  0  0  0
    8.9296   -3.3200   23.0024 H   0  0  0  0  0  0  0  0  0  0  0  0
    7.6214   -2.8709   21.8984 H   0  0  0  0  0  0  0  0  0  0  0  0
    8.2360   -0.9649   23.3210 H   0  0  0  0  0  0  0  0  0  0  0  0
    5.9050    3.3606   17.8702 H   0  0  0  0  0  0  0  0  0  0  0  0
    6.8824   -1.6524   21.0513 H   0  0  0  0  0  0  0  0  0  0  0  0
  1  2  2  0  0  0  0
  1  3  1  0  0  0  0
  2 11  1  0  0  0  0
  3 15  2  0  0  0  0
  4  7  2  0  0  0  0
  4 10  1  0  0  0  0
  5 11  2  0  0  0  0
  5 15  1  0  0  0  0
  6 12  1  0  0  0  0
  6 16  2  0  0  0  0
  7 23  1  0  0  0  0
  8 13  1  0  0  0  0
  8 23  2  0  0  0  0
  9 14  1  0  0  0  0
  9 24  2  0  0  0  0
 10 13  2  0  0  0  0
 10 16  1  0  0  0  0
 11 22  1  0  0  0  0
 12 14  2  0  0  0  0
 12 19  1  0  0  0  0
 13 25  1  0  0  0  0
 14 26  1  0  0  0  0
 15 29  1  0  0  0  0
 16 24  1  0  0  0  0
 17 20  1  0  0  0  0
 17 25  1  0  0  0  0
 17 27  2  0  0  0  0
 18 22  1  0  0  0  0
 18 26  1  0  0  0  0
 18 28  2  0  0  0  0
 21 22  1  1  0  0  0
  1 30  1  0  0  0  0
  2 31  1  0  0  0  0
  3 32  1  0  0  0  0
  4 33  1  0  0  0  0
  5 34  1  0  0  0  0
  6 35  1  0  0  0  0
  7 36  1  0  0  0  0
  8 37  1  0  0  0  0
  9 38  1  0  0  0  0
 19 39  1  0  0  0  0
 19 40  1  0  0  0  0
 19 41  1  0  0  0  0
 20 42  1  0  0  0  0
 20 43  1  0  0  0  0
 20 44  1  0  0  0  0
 21 45  1  0  0  0  0
 21 46  1  0  0  0  0
 21 47  1  0  0  0  0
 22 48  1  0  0  0  0
 25 49  1  0  0  0  0
 26 50  1  0  0  0  0
M  END
> <compound>
MAK-UNK-f203cb68-12

> <compound_smiles>
Cc1cc(ncc1NC(=O)C(C)c2cccc(c2)Cl)c3ccncc3NC(=O)C

> <enantiomer_smiles>
Cc1cc(ncc1NC(=O)[C@@H](C)c2cccc(c2)Cl)c3ccncc3NC(=O)C

> <scaffold>
chlorobenzene-linker

> <clash_score>
15.343601949294452

> <docking_score>
3.4028234663852886e+38

> <overlap_score>
0.7866551280021667

> <MMFF_internal_energy>
92.77029250251779

> <docked_smiles>
Cc1cc(ncc1NC(=O)[C@@H](C)c2cccc(c2)Cl)c3ccncc3NC(=O)C

$$$$
MAK-UNK-f203cb68-11_2
  -OEChem-07262101013D

 50 52  0     1  0  0  0  0  0999 V2000
   11.9780    0.4600   23.9150 C   0  0  0  0  0  0  0  0  0  0  0  0
   10.6560    0.0720   23.7350 C   0  0  0  0  0  0  0  0  0  0  0  0
   12.9840   -0.1200   23.1530 C   0  0  0  0  0  0  0  0  0  0  0  0
    4.1425    0.4053   21.7659 C   0  0  0  0  0  0  0  0  0  0  0  0
    6.2298    0.0424   17.2428 C   0  0  0  0  0  0  0  0  0  0  0  0
   11.3360   -1.5050   22.0650 C   0  0  0  0  0  0  0  0  0  0  0  0
    3.7542    0.8198   23.0297 C   0  0  0  0  0  0  0  0  0  0  0  0
    5.2233    0.9452   17.5453 C   0  0  0  0  0  0  0  0  0  0  0  0
    5.2636    2.5518   23.0231 C   0  0  0  0  0  0  0  0  0  0  0  0
    5.1462    1.1232   21.1253 C   0  0  0  0  0  0  0  0  0  0  0  0
   10.3220   -0.8940   22.7910 C   0  0  0  0  0  0  0  0  0  0  0  0
    6.9215   -0.5394   18.2994 C   0  0  0  0  0  0  0  0  0  0  0  0
    5.7228    2.2183   21.7591 C   0  0  0  0  0  0  0  0  0  0  0  0
    6.5901   -0.2052   19.6078 C   0  0  0  0  0  0  0  0  0  0  0  0
   12.6400   -1.1000   22.2390 C   0  0  0  0  0  0  0  0  0  0  0  0
    5.5676    0.7088   19.8044 C   0  0  0  0  0  0  0  0  0  0  0  0
    7.3965    4.0941   21.6912 C   0  0  0  0  0  0  0  0  0  0  0  0
    8.3880   -0.3240   21.3070 C   0  0  0  0  0  0  0  0  0  0  0  0
    8.0112   -1.5160   17.9986 C   0  0  0  0  0  0  0  0  0  0  0  0
    8.4311    4.6303   20.7338 C   0  0  0  0  0  0  0  0  0  0  0  0
    7.9670   -1.0352   23.6784 C   0  0  0  0  0  0  0  0  0  0  0  0
    8.8810   -1.1900   22.4510 C   0  0  2  0  0  0  0  0  0  0  0  0
    4.2908    1.8784   23.6771 N   0  0  0  0  0  0  0  0  0  0  0  0
    4.8730    1.2946   18.8034 N   0  0  0  0  0  0  0  0  0  0  0  0
    6.7345    2.9767   21.1668 N   0  0  0  0  0  0  0  0  0  0  0  0
    7.2820   -0.7860   20.6970 N   0  0  0  0  0  0  0  0  0  0  0  0
    7.2158    4.6245   22.7825 O   0  0  0  0  0  0  0  0  0  0  0  0
    8.9170    0.7530   21.0260 O   0  0  0  0  0  0  0  0  0  0  0  0
   13.8840   -1.8490   21.2740 Cl  0  0  0  0  0  0  0  0  0  0  0  0
   12.2249    1.2198   24.6546 H   0  0  0  0  0  0  0  0  0  0  0  0
    9.8763    0.5350   24.3454 H   0  0  0  0  0  0  0  0  0  0  0  0
   14.0077    0.1988   23.2842 H   0  0  0  0  0  0  0  0  0  0  0  0
    3.6669   -0.4542   21.3040 H   0  0  0  0  0  0  0  0  0  0  0  0
    6.4638   -0.1967   16.2108 H   0  0  0  0  0  0  0  0  0  0  0  0
   11.0892   -2.3009   21.3624 H   0  0  0  0  0  0  0  0  0  0  0  0
    2.9747    0.2938   23.5712 H   0  0  0  0  0  0  0  0  0  0  0  0
    4.6539    1.4267   16.7571 H   0  0  0  0  0  0  0  0  0  0  0  0
    5.6744    3.3958   23.5694 H   0  0  0  0  0  0  0  0  0  0  0  0
    8.9705   -0.9953   17.8986 H   0  0  0  0  0  0  0  0  0  0  0  0
    8.1013   -2.2661   18.7938 H   0  0  0  0  0  0  0  0  0  0  0  0
    7.8095   -2.0599   17.0676 H   0  0  0  0  0  0  0  0  0  0  0  0
    7.9766    5.3788   20.0787 H   0  0  0  0  0  0  0  0  0  0  0  0
    8.8255    3.8151   20.1205 H   0  0  0  0  0  0  0  0  0  0  0  0
    9.2559    5.0838   21.2913 H   0  0  0  0  0  0  0  0  0  0  0  0
    8.0088   -0.0193   24.0871 H   0  0  0  0  0  0  0  0  0  0  0  0
    6.9216   -1.2406   23.4222 H   0  0  0  0  0  0  0  0  0  0  0  0
    8.2585   -1.7315   24.4726 H   0  0  0  0  0  0  0  0  0  0  0  0
    8.7806   -2.2413   22.1242 H   0  0  0  0  0  0  0  0  0  0  0  0
    7.0346    2.6824   20.2307 H   0  0  0  0  0  0  0  0  0  0  0  0
    6.8824   -1.6524   21.0513 H   0  0  0  0  0  0  0  0  0  0  0  0
  1  2  2  0  0  0  0
  1  3  1  0  0  0  0
  2 11  1  0  0  0  0
  3 15  2  0  0  0  0
  4  7  2  0  0  0  0
  4 10  1  0  0  0  0
  5  8  2  0  0  0  0
  5 12  1  0  0  0  0
  6 11  2  0  0  0  0
  6 15  1  0  0  0  0
  7 23  1  0  0  0  0
  8 24  1  0  0  0  0
  9 13  1  0  0  0  0
  9 23  2  0  0  0  0
 10 13  2  0  0  0  0
 10 16  1  0  0  0  0
 11 22  1  0  0  0  0
 12 14  2  0  0  0  0
 12 19  1  0  0  0  0
 13 25  1  0  0  0  0
 14 16  1  0  0  0  0
 14 26  1  0  0  0  0
 15 29  1  0  0  0  0
 16 24  2  0  0  0  0
 17 20  1  0  0  0  0
 17 25  1  0  0  0  0
 17 27  2  0  0  0  0
 18 22  1  0  0  0  0
 18 26  1  0  0  0  0
 18 28  2  0  0  0  0
 21 22  1  6  0  0  0
  1 30  1  0  0  0  0
  2 31  1  0  0  0  0
  3 32  1  0  0  0  0
  4 33  1  0  0  0  0
  5 34  1  0  0  0  0
  6 35  1  0  0  0  0
  7 36  1  0  0  0  0
  8 37  1  0  0  0  0
  9 38  1  0  0  0  0
 19 39  1  0  0  0  0
 19 40  1  0  0  0  0
 19 41  1  0  0  0  0
 20 42  1  0  0  0  0
 20 43  1  0  0  0  0
 20 44  1  0  0  0  0
 21 45  1  0  0  0  0
 21 46  1  0  0  0  0
 21 47  1  0  0  0  0
 22 48  1  0  0  0  0
 25 49  1  0  0  0  0
 26 50  1  0  0  0  0
M  END
> <compound>
MAK-UNK-f203cb68-11

> <compound_smiles>
Cc1ccnc(c1NC(=O)C(C)c2cccc(c2)Cl)c3ccncc3NC(=O)C

> <enantiomer_smiles>
Cc1ccnc(c1NC(=O)[C@H](C)c2cccc(c2)Cl)c3ccncc3NC(=O)C

> <scaffold>
chlorobenzene-linker

> <clash_score>
0.7685158704214342

> <docking_score>
-4.902557849884033

> <overlap_score>
0.9310511946678162

> <MMFF_internal_energy>
107.99664926243084

> <docked_smiles>
Cc1ccnc(c1NC(=O)[C@H](C)c2cccc(c2)Cl)c3ccncc3NC(=O)C

$$$$
MAK-UNK-f203cb68-12_2
  -OEChem-07262101013D

 50 52  0     1  0  0  0  0  0999 V2000
   11.9780    0.4600   23.9150 C   0  0  0  0  0  0  0  0  0  0  0  0
   10.6560    0.0720   23.7350 C   0  0  0  0  0  0  0  0  0  0  0  0
   12.9840   -0.1200   23.1530 C   0  0  0  0  0  0  0  0  0  0  0  0
    4.1134    0.8165   15.3753 C   0  0  0  0  0  0  0  0  0  0  0  0
   11.3360   -1.5050   22.0650 C   0  0  0  0  0  0  0  0  0  0  0  0
    4.5831    0.2295   18.3559 C   0  0  0  0  0  0  0  0  0  0  0  0
    3.5547    1.4526   14.2785 C   0  0  0  0  0  0  0  0  0  0  0  0
    4.2521    3.5166   15.0076 C   0  0  0  0  0  0  0  0  0  0  0  0
    7.2759    0.5438   18.6652 C   0  0  0  0  0  0  0  0  0  0  0  0
    4.7683    1.6006   16.3185 C   0  0  0  0  0  0  0  0  0  0  0  0
   10.3220   -0.8940   22.7910 C   0  0  0  0  0  0  0  0  0  0  0  0
    5.2183   -0.3606   19.4429 C   0  0  0  0  0  0  0  0  0  0  0  0
    4.8434    2.9773   16.1387 C   0  0  0  0  0  0  0  0  0  0  0  0
    6.5902   -0.2052   19.6078 C   0  0  0  0  0  0  0  0  0  0  0  0
   12.6400   -1.1000   22.2390 C   0  0  0  0  0  0  0  0  0  0  0  0
    5.3587    0.9592   17.4694 C   0  0  0  0  0  0  0  0  0  0  0  0
    5.6329    5.2074   16.9917 C   0  0  0  0  0  0  0  0  0  0  0  0
    8.3880   -0.3240   21.3070 C   0  0  0  0  0  0  0  0  0  0  0  0
    4.4069   -1.1531   20.4149 C   0  0  0  0  0  0  0  0  0  0  0  0
    6.3962    5.7399   18.1783 C   0  0  0  0  0  0  0  0  0  0  0  0
    7.9670   -1.0352   23.6784 C   0  0  0  0  0  0  0  0  0  0  0  0
    8.8810   -1.1900   22.4510 C   0  0  2  0  0  0  0  0  0  0  0  0
    3.6074    2.7872   14.0695 N   0  0  0  0  0  0  0  0  0  0  0  0
    6.6935    1.1321   17.5964 N   0  0  0  0  0  0  0  0  0  0  0  0
    5.4864    3.8157   17.0513 N   0  0  0  0  0  0  0  0  0  0  0  0
    7.2820   -0.7860   20.6970 N   0  0  0  0  0  0  0  0  0  0  0  0
    5.2182    5.9648   16.1202 O   0  0  0  0  0  0  0  0  0  0  0  0
    8.9170    0.7530   21.0260 O   0  0  0  0  0  0  0  0  0  0  0  0
   13.8840   -1.8490   21.2740 Cl  0  0  0  0  0  0  0  0  0  0  0  0
   12.2249    1.2198   24.6546 H   0  0  0  0  0  0  0  0  0  0  0  0
    9.8763    0.5350   24.3454 H   0  0  0  0  0  0  0  0  0  0  0  0
   14.0077    0.1988   23.2842 H   0  0  0  0  0  0  0  0  0  0  0  0
    4.0346   -0.2610   15.4792 H   0  0  0  0  0  0  0  0  0  0  0  0
   11.0892   -2.3009   21.3624 H   0  0  0  0  0  0  0  0  0  0  0  0
    3.5126    0.1187   18.2109 H   0  0  0  0  0  0  0  0  0  0  0  0
    3.0338    0.8855   13.5138 H   0  0  0  0  0  0  0  0  0  0  0  0
    4.2767    4.5845   14.8114 H   0  0  0  0  0  0  0  0  0  0  0  0
    8.3479    0.7012   18.7397 H   0  0  0  0  0  0  0  0  0  0  0  0
    4.3639   -2.2038   20.1056 H   0  0  0  0  0  0  0  0  0  0  0  0
    4.8360   -1.1026   21.4231 H   0  0  0  0  0  0  0  0  0  0  0  0
    3.3826   -0.7664   20.4838 H   0  0  0  0  0  0  0  0  0  0  0  0
    7.4664    5.7555   17.9533 H   0  0  0  0  0  0  0  0  0  0  0  0
    6.2261    5.0971   19.0467 H   0  0  0  0  0  0  0  0  0  0  0  0
    6.0571    6.7524   18.4165 H   0  0  0  0  0  0  0  0  0  0  0  0
    8.0088   -0.0193   24.0871 H   0  0  0  0  0  0  0  0  0  0  0  0
    6.9216   -1.2406   23.4222 H   0  0  0  0  0  0  0  0  0  0  0  0
    8.2585   -1.7315   24.4726 H   0  0  0  0  0  0  0  0  0  0  0  0
    8.7806   -2.2413   22.1242 H   0  0  0  0  0  0  0  0  0  0  0  0
    5.9050    3.3606   17.8702 H   0  0  0  0  0  0  0  0  0  0  0  0
    6.8824   -1.6524   21.0513 H   0  0  0  0  0  0  0  0  0  0  0  0
  1  2  2  0  0  0  0
  1  3  1  0  0  0  0
  2 11  1  0  0  0  0
  3 15  2  0  0  0  0
  4  7  2  0  0  0  0
  4 10  1  0  0  0  0
  5 11  2  0  0  0  0
  5 15  1  0  0  0  0
  6 12  1  0  0  0  0
  6 16  2  0  0  0  0
  7 23  1  0  0  0  0
  8 13  1  0  0  0  0
  8 23  2  0  0  0  0
  9 14  1  0  0  0  0
  9 24  2  0  0  0  0
 10 13  2  0  0  0  0
 10 16  1  0  0  0  0
 11 22  1  0  0  0  0
 12 14  2  0  0  0  0
 12 19  1  0  0  0  0
 13 25  1  0  0  0  0
 14 26  1  0  0  0  0
 15 29  1  0  0  0  0
 16 24  1  0  0  0  0
 17 20  1  0  0  0  0
 17 25  1  0  0  0  0
 17 27  2  0  0  0  0
 18 22  1  0  0  0  0
 18 26  1  0  0  0  0
 18 28  2  0  0  0  0
 21 22  1  6  0  0  0
  1 30  1  0  0  0  0
  2 31  1  0  0  0  0
  3 32  1  0  0  0  0
  4 33  1  0  0  0  0
  5 34  1  0  0  0  0
  6 35  1  0  0  0  0
  7 36  1  0  0  0  0
  8 37  1  0  0  0  0
  9 38  1  0  0  0  0
 19 39  1  0  0  0  0
 19 40  1  0  0  0  0
 19 41  1  0  0  0  0
 20 42  1  0  0  0  0
 20 43  1  0  0  0  0
 20 44  1  0  0  0  0
 21 45  1  0  0  0  0
 21 46  1  0  0  0  0
 21 47  1  0  0  0  0
 22 48  1  0  0  0  0
 25 49  1  0  0  0  0
 26 50  1  0  0  0  0
M  END
> <compound>
MAK-UNK-f203cb68-12

> <compound_smiles>
Cc1cc(ncc1NC(=O)C(C)c2cccc(c2)Cl)c3ccncc3NC(=O)C

> <enantiomer_smiles>
Cc1cc(ncc1NC(=O)[C@H](C)c2cccc(c2)Cl)c3ccncc3NC(=O)C

> <scaffold>
chlorobenzene-linker

> <clash_score>
15.343596872009305

> <docking_score>
3.4028234663852886e+38

> <overlap_score>
0.7863779664039612

> <MMFF_internal_energy>
87.33256559617183

> <docked_smiles>
Cc1cc(ncc1NC(=O)[C@H](C)c2cccc(c2)Cl)c3ccncc3NC(=O)C

$$$$
MAK-UNK-f203cb68-4_1
  -OEChem-07262101013D

 50 52  0     1  0  0  0  0  0999 V2000
   11.9780    0.4600   23.9150 C   0  0  0  0  0  0  0  0  0  0  0  0
   10.6560    0.0720   23.7350 C   0  0  0  0  0  0  0  0  0  0  0  0
   12.9840   -0.1200   23.1530 C   0  0  0  0  0  0  0  0  0  0  0  0
    4.3290    4.8102   24.7499 C   0  0  0  0  0  0  0  0  0  0  0  0
    4.6232    0.7539   18.6100 C   0  0  0  0  0  0  0  0  0  0  0  0
   11.3360   -1.5050   22.0650 C   0  0  0  0  0  0  0  0  0  0  0  0
    5.6275    4.7680   25.2316 C   0  0  0  0  0  0  0  0  0  0  0  0
    5.3542    0.9039   17.4426 C   0  0  0  0  0  0  0  0  0  0  0  0
    6.1720    3.0028   23.8657 C   0  0  0  0  0  0  0  0  0  0  0  0
    7.2331   -0.0125   18.3956 C   0  0  0  0  0  0  0  0  0  0  0  0
   10.3220   -0.8940   22.7910 C   0  0  0  0  0  0  0  0  0  0  0  0
    3.9658    3.8866   23.7760 C   0  0  0  0  0  0  0  0  0  0  0  0
    5.2603    0.1879   19.7087 C   0  0  0  0  0  0  0  0  0  0  0  0
    4.8990    2.9621   23.3201 C   0  0  0  0  0  0  0  0  0  0  0  0
    6.5902   -0.2052   19.6078 C   0  0  0  0  0  0  0  0  0  0  0  0
   12.6400   -1.1000   22.2390 C   0  0  0  0  0  0  0  0  0  0  0  0
    5.1184    0.7284   22.1766 C   0  0  0  0  0  0  0  0  0  0  0  0
    8.3880   -0.3240   21.3070 C   0  0  0  0  0  0  0  0  0  0  0  0
    2.5722    3.9091   23.2394 C   0  0  0  0  0  0  0  0  0  0  0  0
    8.6719   -2.6843   22.1478 C   0  0  0  0  0  0  0  0  0  0  0  0
    4.4960    0.0150   20.9802 C   0  0  0  0  0  0  0  0  0  0  0  0
    8.8810   -1.1900   22.4510 C   0  0  1  0  0  0  0  0  0  0  0  0
    6.5617    3.8850   24.8131 N   0  0  0  0  0  0  0  0  0  0  0  0
    6.6474    0.5340   17.3066 N   0  0  0  0  0  0  0  0  0  0  0  0
    4.5780    2.0027   22.3305 N   0  0  0  0  0  0  0  0  0  0  0  0
    7.2820   -0.7860   20.6970 N   0  0  0  0  0  0  0  0  0  0  0  0
    5.9784    0.1973   22.8719 O   0  0  0  0  0  0  0  0  0  0  0  0
    8.9170    0.7530   21.0260 O   0  0  0  0  0  0  0  0  0  0  0  0
   13.8840   -1.8490   21.2740 Cl  0  0  0  0  0  0  0  0  0  0  0  0
   12.2249    1.2198   24.6546 H   0  0  0  0  0  0  0  0  0  0  0  0
    9.8763    0.5350   24.3454 H   0  0  0  0  0  0  0  0  0  0  0  0
   14.0077    0.1988   23.2842 H   0  0  0  0  0  0  0  0  0  0  0  0
    3.6250    5.5442   25.1269 H   0  0  0  0  0  0  0  0  0  0  0  0
    3.5870    1.0712   18.6559 H   0  0  0  0  0  0  0  0  0  0  0  0
   11.0892   -2.3009   21.3624 H   0  0  0  0  0  0  0  0  0  0  0  0
    5.9607    5.4667   25.9919 H   0  0  0  0  0  0  0  0  0  0  0  0
    4.9034    1.3400   16.5572 H   0  0  0  0  0  0  0  0  0  0  0  0
    6.9444    2.3075   23.5504 H   0  0  0  0  0  0  0  0  0  0  0  0
    8.2710   -0.2993   18.2546 H   0  0  0  0  0  0  0  0  0  0  0  0
    2.5109    4.5730   22.3694 H   0  0  0  0  0  0  0  0  0  0  0  0
    2.2477    2.9058   22.9372 H   0  0  0  0  0  0  0  0  0  0  0  0
    1.8612    4.2598   23.9977 H   0  0  0  0  0  0  0  0  0  0  0  0
    9.2843   -3.0131   21.3007 H   0  0  0  0  0  0  0  0  0  0  0  0
    8.9296   -3.3200   23.0024 H   0  0  0  0  0  0  0  0  0  0  0  0
    7.6214   -2.8709   21.8984 H   0  0  0  0  0  0  0  0  0  0  0  0
    3.4656    0.3857   20.8588 H   0  0  0  0  0  0  0  0  0  0  0  0
    4.4065   -1.0551   21.2267 H   0  0  0  0  0  0  0  0  0  0  0  0
    8.2360   -0.9649   23.3210 H   0  0  0  0  0  0  0  0  0  0  0  0
    3.8698    2.2758   21.6523 H   0  0  0  0  0  0  0  0  0  0  0  0
    6.8824   -1.6524   21.0513 H   0  0  0  0  0  0  0  0  0  0  0  0
  1  2  2  0  0  0  0
  1  3  1  0  0  0  0
  2 11  1  0  0  0  0
  3 16  2  0  0  0  0
  4  7  2  0  0  0  0
  4 12  1  0  0  0  0
  5  8  2  0  0  0  0
  5 13  1  0  0  0  0
  6 11  2  0  0  0  0
  6 16  1  0  0  0  0
  7 23  1  0  0  0  0
  8 24  1  0  0  0  0
  9 14  1  0  0  0  0
  9 23  2  0  0  0  0
 10 15  1  0  0  0  0
 10 24  2  0  0  0  0
 11 22  1  0  0  0  0
 12 14  2  0  0  0  0
 12 19  1  0  0  0  0
 13 15  2  0  0  0  0
 13 21  1  0  0  0  0
 14 25  1  0  0  0  0
 15 26  1  0  0  0  0
 16 29  1  0  0  0  0
 17 21  1  0  0  0  0
 17 25  1  0  0  0  0
 17 27  2  0  0  0  0
 18 22  1  0  0  0  0
 18 26  1  0  0  0  0
 18 28  2  0  0  0  0
 20 22  1  1  0  0  0
  1 30  1  0  0  0  0
  2 31  1  0  0  0  0
  3 32  1  0  0  0  0
  4 33  1  0  0  0  0
  5 34  1  0  0  0  0
  6 35  1  0  0  0  0
  7 36  1  0  0  0  0
  8 37  1  0  0  0  0
  9 38  1  0  0  0  0
 10 39  1  0  0  0  0
 19 40  1  0  0  0  0
 19 41  1  0  0  0  0
 19 42  1  0  0  0  0
 20 43  1  0  0  0  0
 20 44  1  0  0  0  0
 20 45  1  0  0  0  0
 21 46  1  0  0  0  0
 21 47  1  0  0  0  0
 22 48  1  0  0  0  0
 25 49  1  0  0  0  0
 26 50  1  0  0  0  0
M  END
> <compound>
MAK-UNK-f203cb68-4

> <compound_smiles>
Cc1ccncc1NC(=O)Cc2ccncc2NC(=O)C(C)c3cccc(c3)Cl

> <enantiomer_smiles>
Cc1ccncc1NC(=O)Cc2ccncc2NC(=O)[C@@H](C)c3cccc(c3)Cl

> <scaffold>
chlorobenzene-linker

> <clash_score>
0

> <docking_score>
-7.863705635070801

> <overlap_score>
0.888430118560791

> <MMFF_internal_energy>
119.32443177841427

> <docked_smiles>
Cc1ccncc1NC(=O)Cc2ccncc2NC(=O)[C@@H](C)c3cccc(c3)Cl

$$$$
MAK-UNK-f203cb68-14_2
  -OEChem-07262101013D

 50 52  0     1  0  0  0  0  0999 V2000
   11.9780    0.4600   23.9150 C   0  0  0  0  0  0  0  0  0  0  0  0
   10.6560    0.0720   23.7350 C   0  0  0  0  0  0  0  0  0  0  0  0
   12.9840   -0.1200   23.1530 C   0  0  0  0  0  0  0  0  0  0  0  0
   10.6391   -7.4995   20.9784 C   0  0  0  0  0  0  0  0  0  0  0  0
    4.9120    1.2553   18.6939 C   0  0  0  0  0  0  0  0  0  0  0  0
   10.3208   -7.4102   19.6329 C   0  0  0  0  0  0  0  0  0  0  0  0
    5.3237    0.8516   17.4340 C   0  0  0  0  0  0  0  0  0  0  0  0
   10.4749   -5.1181   19.6567 C   0  0  0  0  0  0  0  0  0  0  0  0
    6.9267   -0.5437   18.3070 C   0  0  0  0  0  0  0  0  0  0  0  0
   11.3360   -1.5050   22.0650 C   0  0  0  0  0  0  0  0  0  0  0  0
   10.3220   -0.8940   22.7910 C   0  0  0  0  0  0  0  0  0  0  0  0
   10.8820   -6.3176   21.6695 C   0  0  0  0  0  0  0  0  0  0  0  0
    5.5624    0.7121   19.7963 C   0  0  0  0  0  0  0  0  0  0  0  0
   10.8002   -5.0999   21.0034 C   0  0  0  0  0  0  0  0  0  0  0  0
    6.5902   -0.2052   19.6078 C   0  0  0  0  0  0  0  0  0  0  0  0
   12.6400   -1.1000   22.2390 C   0  0  0  0  0  0  0  0  0  0  0  0
   10.9943   -2.5748   21.1274 C   0  0  0  0  0  0  0  0  0  0  0  0
    8.3880   -0.3240   21.3070 C   0  0  0  0  0  0  0  0  0  0  0  0
   11.2267   -6.3845   23.1212 C   0  0  0  0  0  0  0  0  0  0  0  0
    5.1392    1.1301   21.1663 C   0  0  0  0  0  0  0  0  0  0  0  0
    8.6733   -2.6843   22.1484 C   0  0  0  0  0  0  0  0  0  0  0  0
    8.8810   -1.1900   22.4510 C   0  0  2  0  0  0  0  0  0  0  0  0
   10.2321   -6.2459   18.9517 N   0  0  0  0  0  0  0  0  0  0  0  0
    6.3179   -0.0371   17.2114 N   0  0  0  0  0  0  0  0  0  0  0  0
   11.0392   -3.8683   21.6636 N   0  0  0  0  0  0  0  0  0  0  0  0
    7.2820   -0.7860   20.6970 N   0  0  0  0  0  0  0  0  0  0  0  0
   10.7257   -2.3322   19.9461 O   0  0  0  0  0  0  0  0  0  0  0  0
    8.9170    0.7530   21.0260 O   0  0  0  0  0  0  0  0  0  0  0  0
   13.8840   -1.8490   21.2740 Cl  0  0  0  0  0  0  0  0  0  0  0  0
   12.2261    1.2209   24.6532 H   0  0  0  0  0  0  0  0  0  0  0  0
    9.8778    0.5369   24.3458 H   0  0  0  0  0  0  0  0  0  0  0  0
   14.0068    0.2006   23.2860 H   0  0  0  0  0  0  0  0  0  0  0  0
   10.6945   -8.4654   21.4687 H   0  0  0  0  0  0  0  0  0  0  0  0
    4.1067    1.9732   18.8067 H   0  0  0  0  0  0  0  0  0  0  0  0
   10.1222   -8.3028   19.0488 H   0  0  0  0  0  0  0  0  0  0  0  0
    4.8487    1.2458   16.5417 H   0  0  0  0  0  0  0  0  0  0  0  0
   10.3962   -4.2000   19.0819 H   0  0  0  0  0  0  0  0  0  0  0  0
    7.7200   -1.2544   18.0953 H   0  0  0  0  0  0  0  0  0  0  0  0
   12.3121   -6.4662   23.2504 H   0  0  0  0  0  0  0  0  0  0  0  0
   10.8776   -5.4909   23.6530 H   0  0  0  0  0  0  0  0  0  0  0  0
   10.7512   -7.2484   23.6020 H   0  0  0  0  0  0  0  0  0  0  0  0
    4.3492    0.4676   21.5385 H   0  0  0  0  0  0  0  0  0  0  0  0
    5.9816    1.0985   21.8682 H   0  0  0  0  0  0  0  0  0  0  0  0
    4.7612    2.1600   21.1673 H   0  0  0  0  0  0  0  0  0  0  0  0
    9.2851   -3.0097   21.2996 H   0  0  0  0  0  0  0  0  0  0  0  0
    8.9353   -3.3201   23.0016 H   0  0  0  0  0  0  0  0  0  0  0  0
    7.6230   -2.8746   21.9011 H   0  0  0  0  0  0  0  0  0  0  0  0
    8.2373   -0.9648   23.3216 H   0  0  0  0  0  0  0  0  0  0  0  0
   11.2729   -3.9318   22.6513 H   0  0  0  0  0  0  0  0  0  0  0  0
    6.8824   -1.6524   21.0513 H   0  0  0  0  0  0  0  0  0  0  0  0
  1  2  1  0  0  0  0
  1  3  2  0  0  0  0
  2 11  2  0  0  0  0
  3 16  1  0  0  0  0
  4  6  2  0  0  0  0
  4 12  1  0  0  0  0
  5  7  2  0  0  0  0
  5 13  1  0  0  0  0
  6 23  1  0  0  0  0
  7 24  1  0  0  0  0
  8 14  1  0  0  0  0
  8 23  2  0  0  0  0
  9 15  1  0  0  0  0
  9 24  2  0  0  0  0
 10 11  1  0  0  0  0
 10 16  2  0  0  0  0
 10 17  1  0  0  0  0
 11 22  1  0  0  0  0
 12 14  2  0  0  0  0
 12 19  1  0  0  0  0
 13 15  2  0  0  0  0
 13 20  1  0  0  0  0
 14 25  1  0  0  0  0
 15 26  1  0  0  0  0
 16 29  1  0  0  0  0
 17 25  1  0  0  0  0
 17 27  2  0  0  0  0
 18 22  1  0  0  0  0
 18 26  1  0  0  0  0
 18 28  2  0  0  0  0
 21 22  1  6  0  0  0
  1 30  1  0  0  0  0
  2 31  1  0  0  0  0
  3 32  1  0  0  0  0
  4 33  1  0  0  0  0
  5 34  1  0  0  0  0
  6 35  1  0  0  0  0
  7 36  1  0  0  0  0
  8 37  1  0  0  0  0
  9 38  1  0  0  0  0
 19 39  1  0  0  0  0
 19 40  1  0  0  0  0
 19 41  1  0  0  0  0
 20 42  1  0  0  0  0
 20 43  1  0  0  0  0
 20 44  1  0  0  0  0
 21 45  1  0  0  0  0
 21 46  1  0  0  0  0
 21 47  1  0  0  0  0
 22 48  1  0  0  0  0
 25 49  1  0  0  0  0
 26 50  1  0  0  0  0
M  END
> <compound>
MAK-UNK-f203cb68-14

> <compound_smiles>
Cc1ccncc1NC(=O)c2c(cccc2Cl)C(C)C(=O)Nc3cnccc3C

> <enantiomer_smiles>
Cc1ccncc1NC(=O)c2c(cccc2Cl)[C@H](C)C(=O)Nc3cnccc3C

> <scaffold>
chlorobenzene-linker

> <clash_score>
13.67471856541175

> <docking_score>
-1.595116138458252

> <overlap_score>
0.8667986989021301

> <MMFF_internal_energy>
161.75419514152304

> <docked_smiles>
Cc1ccncc1NC(=O)c2c(cccc2Cl)[C@H](C)C(=O)Nc3cnccc3C

$$$$
MAK-UNK-f203cb68-4_2
  -OEChem-07262101013D

 50 52  0     1  0  0  0  0  0999 V2000
   11.9780    0.4600   23.9150 C   0  0  0  0  0  0  0  0  0  0  0  0
   10.6560    0.0720   23.7350 C   0  0  0  0  0  0  0  0  0  0  0  0
   12.9840   -0.1200   23.1530 C   0  0  0  0  0  0  0  0  0  0  0  0
    7.6995    4.8553   22.9146 C   0  0  0  0  0  0  0  0  0  0  0  0
    4.6232    0.7539   18.6100 C   0  0  0  0  0  0  0  0  0  0  0  0
   11.3360   -1.5050   22.0650 C   0  0  0  0  0  0  0  0  0  0  0  0
    7.7419    4.5528   24.2661 C   0  0  0  0  0  0  0  0  0  0  0  0
    5.3542    0.9039   17.4426 C   0  0  0  0  0  0  0  0  0  0  0  0
    6.5391    2.6191   23.9623 C   0  0  0  0  0  0  0  0  0  0  0  0
    7.2331   -0.0125   18.3956 C   0  0  0  0  0  0  0  0  0  0  0  0
   10.3220   -0.8940   22.7910 C   0  0  0  0  0  0  0  0  0  0  0  0
    7.0343    3.9730   22.0707 C   0  0  0  0  0  0  0  0  0  0  0  0
    5.2603    0.1879   19.7087 C   0  0  0  0  0  0  0  0  0  0  0  0
    6.4402    2.8312   22.5966 C   0  0  0  0  0  0  0  0  0  0  0  0
    6.5902   -0.2052   19.6078 C   0  0  0  0  0  0  0  0  0  0  0  0
   12.6400   -1.1000   22.2390 C   0  0  0  0  0  0  0  0  0  0  0  0
    5.1184    0.7284   22.1766 C   0  0  0  0  0  0  0  0  0  0  0  0
    8.3880   -0.3240   21.3070 C   0  0  0  0  0  0  0  0  0  0  0  0
    6.9727    4.2748   20.6092 C   0  0  0  0  0  0  0  0  0  0  0  0
    7.9670   -1.0352   23.6784 C   0  0  0  0  0  0  0  0  0  0  0  0
    4.4961    0.0150   20.9802 C   0  0  0  0  0  0  0  0  0  0  0  0
    8.8810   -1.1900   22.4510 C   0  0  2  0  0  0  0  0  0  0  0  0
    7.1768    3.4535   24.8136 N   0  0  0  0  0  0  0  0  0  0  0  0
    6.6474    0.5340   17.3066 N   0  0  0  0  0  0  0  0  0  0  0  0
    5.7524    1.9029   21.7792 N   0  0  0  0  0  0  0  0  0  0  0  0
    7.2820   -0.7860   20.6970 N   0  0  0  0  0  0  0  0  0  0  0  0
    5.0382    0.2758   23.3141 O   0  0  0  0  0  0  0  0  0  0  0  0
    8.9170    0.7530   21.0260 O   0  0  0  0  0  0  0  0  0  0  0  0
   13.8840   -1.8490   21.2740 Cl  0  0  0  0  0  0  0  0  0  0  0  0
   12.2249    1.2198   24.6546 H   0  0  0  0  0  0  0  0  0  0  0  0
    9.8763    0.5350   24.3454 H   0  0  0  0  0  0  0  0  0  0  0  0
   14.0077    0.1988   23.2842 H   0  0  0  0  0  0  0  0  0  0  0  0
    8.1732    5.7548   22.5362 H   0  0  0  0  0  0  0  0  0  0  0  0
    3.5870    1.0712   18.6559 H   0  0  0  0  0  0  0  0  0  0  0  0
   11.0892   -2.3009   21.3624 H   0  0  0  0  0  0  0  0  0  0  0  0
    8.2483    5.2089   24.9664 H   0  0  0  0  0  0  0  0  0  0  0  0
    4.9034    1.3400   16.5572 H   0  0  0  0  0  0  0  0  0  0  0  0
    6.0963    1.7458   24.4321 H   0  0  0  0  0  0  0  0  0  0  0  0
    8.2710   -0.2993   18.2546 H   0  0  0  0  0  0  0  0  0  0  0  0
    7.8316    3.8304   20.0931 H   0  0  0  0  0  0  0  0  0  0  0  0
    6.0528    3.8794   20.1614 H   0  0  0  0  0  0  0  0  0  0  0  0
    6.9769    5.3567   20.4276 H   0  0  0  0  0  0  0  0  0  0  0  0
    8.0088   -0.0193   24.0871 H   0  0  0  0  0  0  0  0  0  0  0  0
    6.9216   -1.2406   23.4222 H   0  0  0  0  0  0  0  0  0  0  0  0
    8.2585   -1.7315   24.4726 H   0  0  0  0  0  0  0  0  0  0  0  0
    3.4656    0.3857   20.8588 H   0  0  0  0  0  0  0  0  0  0  0  0
    4.4064   -1.0551   21.2267 H   0  0  0  0  0  0  0  0  0  0  0  0
    8.7806   -2.2413   22.1242 H   0  0  0  0  0  0  0  0  0  0  0  0
    5.7171    2.1188   20.7850 H   0  0  0  0  0  0  0  0  0  0  0  0
    6.8824   -1.6524   21.0513 H   0  0  0  0  0  0  0  0  0  0  0  0
  1  2  2  0  0  0  0
  1  3  1  0  0  0  0
  2 11  1  0  0  0  0
  3 16  2  0  0  0  0
  4  7  2  0  0  0  0
  4 12  1  0  0  0  0
  5  8  2  0  0  0  0
  5 13  1  0  0  0  0
  6 11  2  0  0  0  0
  6 16  1  0  0  0  0
  7 23  1  0  0  0  0
  8 24  1  0  0  0  0
  9 14  1  0  0  0  0
  9 23  2  0  0  0  0
 10 15  1  0  0  0  0
 10 24  2  0  0  0  0
 11 22  1  0  0  0  0
 12 14  2  0  0  0  0
 12 19  1  0  0  0  0
 13 15  2  0  0  0  0
 13 21  1  0  0  0  0
 14 25  1  0  0  0  0
 15 26  1  0  0  0  0
 16 29  1  0  0  0  0
 17 21  1  0  0  0  0
 17 25  1  0  0  0  0
 17 27  2  0  0  0  0
 18 22  1  0  0  0  0
 18 26  1  0  0  0  0
 18 28  2  0  0  0  0
 20 22  1  6  0  0  0
  1 30  1  0  0  0  0
  2 31  1  0  0  0  0
  3 32  1  0  0  0  0
  4 33  1  0  0  0  0
  5 34  1  0  0  0  0
  6 35  1  0  0  0  0
  7 36  1  0  0  0  0
  8 37  1  0  0  0  0
  9 38  1  0  0  0  0
 10 39  1  0  0  0  0
 19 40  1  0  0  0  0
 19 41  1  0  0  0  0
 19 42  1  0  0  0  0
 20 43  1  0  0  0  0
 20 44  1  0  0  0  0
 20 45  1  0  0  0  0
 21 46  1  0  0  0  0
 21 47  1  0  0  0  0
 22 48  1  0  0  0  0
 25 49  1  0  0  0  0
 26 50  1  0  0  0  0
M  END
> <compound>
MAK-UNK-f203cb68-4

> <compound_smiles>
Cc1ccncc1NC(=O)Cc2ccncc2NC(=O)C(C)c3cccc(c3)Cl

> <enantiomer_smiles>
Cc1ccncc1NC(=O)Cc2ccncc2NC(=O)[C@H](C)c3cccc(c3)Cl

> <scaffold>
chlorobenzene-linker

> <clash_score>
0

> <docking_score>
-7.585781097412109

> <overlap_score>
0.8789443373680115

> <MMFF_internal_energy>
109.78702192298057

> <docked_smiles>
Cc1ccncc1NC(=O)Cc2ccncc2NC(=O)[C@H](C)c3cccc(c3)Cl

$$$$
MAK-UNK-f203cb68-13_1
  -OEChem-07262101013D

 50 52  0     1  0  0  0  0  0999 V2000
   11.9780    0.4600   23.9150 C   0  0  0  0  0  0  0  0  0  0  0  0
   10.6560    0.0720   23.7350 C   0  0  0  0  0  0  0  0  0  0  0  0
   12.9840   -0.1200   23.1530 C   0  0  0  0  0  0  0  0  0  0  0  0
    3.9884    3.4731   18.2515 C   0  0  0  0  0  0  0  0  0  0  0  0
   11.3360   -1.5050   22.0650 C   0  0  0  0  0  0  0  0  0  0  0  0
    2.9462    4.3755   18.3900 C   0  0  0  0  0  0  0  0  0  0  0  0
    5.3278    0.8493   17.4306 C   0  0  0  0  0  0  0  0  0  0  0  0
    1.6845    2.8720   19.5840 C   0  0  0  0  0  0  0  0  0  0  0  0
    6.9287   -0.5455   18.3080 C   0  0  0  0  0  0  0  0  0  0  0  0
    3.8385    2.2133   18.8207 C   0  0  0  0  0  0  0  0  0  0  0  0
    4.9141    1.2548   18.6892 C   0  0  0  0  0  0  0  0  0  0  0  0
   10.3220   -0.8940   22.7910 C   0  0  0  0  0  0  0  0  0  0  0  0
    5.5624    0.7128   19.7934 C   0  0  0  0  0  0  0  0  0  0  0  0
    2.6674    1.8990   19.5013 C   0  0  0  0  0  0  0  0  0  0  0  0
    6.5902   -0.2052   19.6078 C   0  0  0  0  0  0  0  0  0  0  0  0
   12.6400   -1.1000   22.2390 C   0  0  0  0  0  0  0  0  0  0  0  0
    1.3353    0.2076   20.8007 C   0  0  0  0  0  0  0  0  0  0  0  0
    8.3880   -0.3240   21.3070 C   0  0  0  0  0  0  0  0  0  0  0  0
    5.1610    1.1109   21.1802 C   0  0  0  0  0  0  0  0  0  0  0  0
    1.5029   -1.2121   21.2812 C   0  0  0  0  0  0  0  0  0  0  0  0
    8.6719   -2.6843   22.1478 C   0  0  0  0  0  0  0  0  0  0  0  0
    8.8810   -1.1900   22.4510 C   0  0  1  0  0  0  0  0  0  0  0  0
    1.7940    4.1065   19.0439 N   0  0  0  0  0  0  0  0  0  0  0  0
    6.3220   -0.0400   17.2107 N   0  0  0  0  0  0  0  0  0  0  0  0
    2.4591    0.6513   20.0923 N   0  0  0  0  0  0  0  0  0  0  0  0
    7.2820   -0.7860   20.6970 N   0  0  0  0  0  0  0  0  0  0  0  0
    0.3073    0.8337   21.0378 O   0  0  0  0  0  0  0  0  0  0  0  0
    8.9170    0.7530   21.0260 O   0  0  0  0  0  0  0  0  0  0  0  0
   13.8840   -1.8490   21.2740 Cl  0  0  0  0  0  0  0  0  0  0  0  0
   12.2249    1.2198   24.6546 H   0  0  0  0  0  0  0  0  0  0  0  0
    9.8763    0.5350   24.3454 H   0  0  0  0  0  0  0  0  0  0  0  0
   14.0077    0.1988   23.2842 H   0  0  0  0  0  0  0  0  0  0  0  0
    4.8875    3.7569   17.7138 H   0  0  0  0  0  0  0  0  0  0  0  0
   11.0892   -2.3009   21.3624 H   0  0  0  0  0  0  0  0  0  0  0  0
    3.0144    5.3716   17.9649 H   0  0  0  0  0  0  0  0  0  0  0  0
    4.8631    1.2346   16.5272 H   0  0  0  0  0  0  0  0  0  0  0  0
    0.7478    2.6868   20.1016 H   0  0  0  0  0  0  0  0  0  0  0  0
    7.7225   -1.2564   18.0984 H   0  0  0  0  0  0  0  0  0  0  0  0
    4.3780    0.4419   21.5513 H   0  0  0  0  0  0  0  0  0  0  0  0
    6.0159    1.0671   21.8638 H   0  0  0  0  0  0  0  0  0  0  0  0
    4.7848    2.1397   21.1995 H   0  0  0  0  0  0  0  0  0  0  0  0
    1.9596   -1.2151   22.2749 H   0  0  0  0  0  0  0  0  0  0  0  0
    2.1500   -1.7622   20.5920 H   0  0  0  0  0  0  0  0  0  0  0  0
    0.5292   -1.7091   21.3241 H   0  0  0  0  0  0  0  0  0  0  0  0
    9.2843   -3.0131   21.3007 H   0  0  0  0  0  0  0  0  0  0  0  0
    8.9296   -3.3200   23.0024 H   0  0  0  0  0  0  0  0  0  0  0  0
    7.6214   -2.8709   21.8984 H   0  0  0  0  0  0  0  0  0  0  0  0
    8.2360   -0.9649   23.3210 H   0  0  0  0  0  0  0  0  0  0  0  0
    3.2211   -0.0294   19.9982 H   0  0  0  0  0  0  0  0  0  0  0  0
    6.8824   -1.6524   21.0513 H   0  0  0  0  0  0  0  0  0  0  0  0
  1  2  2  0  0  0  0
  1  3  1  0  0  0  0
  2 12  1  0  0  0  0
  3 16  2  0  0  0  0
  4  6  2  0  0  0  0
  4 10  1  0  0  0  0
  5 12  2  0  0  0  0
  5 16  1  0  0  0  0
  6 23  1  0  0  0  0
  7 11  2  0  0  0  0
  7 24  1  0  0  0  0
  8 14  1  0  0  0  0
  8 23  2  0  0  0  0
  9 15  1  0  0  0  0
  9 24  2  0  0  0  0
 10 11  1  0  0  0  0
 10 14  2  0  0  0  0
 11 13  1  0  0  0  0
 12 22  1  0  0  0  0
 13 15  2  0  0  0  0
 13 19  1  0  0  0  0
 14 25  1  0  0  0  0
 15 26  1  0  0  0  0
 16 29  1  0  0  0  0
 17 20  1  0  0  0  0
 17 25  1  0  0  0  0
 17 27  2  0  0  0  0
 18 22  1  0  0  0  0
 18 26  1  0  0  0  0
 18 28  2  0  0  0  0
 21 22  1  1  0  0  0
  1 30  1  0  0  0  0
  2 31  1  0  0  0  0
  3 32  1  0  0  0  0
  4 33  1  0  0  0  0
  5 34  1  0  0  0  0
  6 35  1  0  0  0  0
  7 36  1  0  0  0  0
  8 37  1  0  0  0  0
  9 38  1  0  0  0  0
 19 39  1  0  0  0  0
 19 40  1  0  0  0  0
 19 41  1  0  0  0  0
 20 42  1  0  0  0  0
 20 43  1  0  0  0  0
 20 44  1  0  0  0  0
 21 45  1  0  0  0  0
 21 46  1  0  0  0  0
 21 47  1  0  0  0  0
 22 48  1  0  0  0  0
 25 49  1  0  0  0  0
 26 50  1  0  0  0  0
M  END
> <compound>
MAK-UNK-f203cb68-13

> <compound_smiles>
Cc1c(cncc1NC(=O)C(C)c2cccc(c2)Cl)c3ccncc3NC(=O)C

> <enantiomer_smiles>
Cc1c(cncc1NC(=O)[C@@H](C)c2cccc(c2)Cl)c3ccncc3NC(=O)C

> <scaffold>
chlorobenzene-linker

> <clash_score>
4.91377990177881

> <docking_score>
-5.750435829162598

> <overlap_score>
0.954994261264801

> <MMFF_internal_energy>
125.35648786620067

> <docked_smiles>
Cc1c(cncc1NC(=O)[C@@H](C)c2cccc(c2)Cl)c3ccncc3NC(=O)C

$$$$
MAK-UNK-f203cb68-14_1
  -OEChem-07262101013D

 50 52  0     1  0  0  0  0  0999 V2000
   11.9780    0.4600   23.9150 C   0  0  0  0  0  0  0  0  0  0  0  0
   10.6560    0.0720   23.7350 C   0  0  0  0  0  0  0  0  0  0  0  0
   12.9840   -0.1200   23.1530 C   0  0  0  0  0  0  0  0  0  0  0  0
   10.6391   -7.4995   20.9784 C   0  0  0  0  0  0  0  0  0  0  0  0
    4.9120    1.2553   18.6939 C   0  0  0  0  0  0  0  0  0  0  0  0
   10.3208   -7.4102   19.6329 C   0  0  0  0  0  0  0  0  0  0  0  0
    5.3237    0.8516   17.4340 C   0  0  0  0  0  0  0  0  0  0  0  0
   10.4749   -5.1181   19.6567 C   0  0  0  0  0  0  0  0  0  0  0  0
    6.9267   -0.5437   18.3070 C   0  0  0  0  0  0  0  0  0  0  0  0
   11.3360   -1.5050   22.0650 C   0  0  0  0  0  0  0  0  0  0  0  0
   10.3220   -0.8940   22.7910 C   0  0  0  0  0  0  0  0  0  0  0  0
   10.8820   -6.3176   21.6695 C   0  0  0  0  0  0  0  0  0  0  0  0
    5.5624    0.7121   19.7963 C   0  0  0  0  0  0  0  0  0  0  0  0
   10.8002   -5.0999   21.0034 C   0  0  0  0  0  0  0  0  0  0  0  0
    6.5902   -0.2052   19.6078 C   0  0  0  0  0  0  0  0  0  0  0  0
   12.6400   -1.1000   22.2390 C   0  0  0  0  0  0  0  0  0  0  0  0
   10.9943   -2.5748   21.1274 C   0  0  0  0  0  0  0  0  0  0  0  0
    8.3880   -0.3240   21.3070 C   0  0  0  0  0  0  0  0  0  0  0  0
   11.2267   -6.3845   23.1212 C   0  0  0  0  0  0  0  0  0  0  0  0
    5.1392    1.1301   21.1663 C   0  0  0  0  0  0  0  0  0  0  0  0
    7.9689   -1.0362   23.6796 C   0  0  0  0  0  0  0  0  0  0  0  0
    8.8810   -1.1900   22.4510 C   0  0  1  0  0  0  0  0  0  0  0  0
   10.2321   -6.2459   18.9517 N   0  0  0  0  0  0  0  0  0  0  0  0
    6.3179   -0.0371   17.2114 N   0  0  0  0  0  0  0  0  0  0  0  0
   11.0392   -3.8683   21.6636 N   0  0  0  0  0  0  0  0  0  0  0  0
    7.2820   -0.7860   20.6970 N   0  0  0  0  0  0  0  0  0  0  0  0
   10.7257   -2.3322   19.9461 O   0  0  0  0  0  0  0  0  0  0  0  0
    8.9170    0.7530   21.0260 O   0  0  0  0  0  0  0  0  0  0  0  0
   13.8840   -1.8490   21.2740 Cl  0  0  0  0  0  0  0  0  0  0  0  0
   12.2261    1.2209   24.6532 H   0  0  0  0  0  0  0  0  0  0  0  0
    9.8778    0.5369   24.3458 H   0  0  0  0  0  0  0  0  0  0  0  0
   14.0068    0.2006   23.2860 H   0  0  0  0  0  0  0  0  0  0  0  0
   10.6945   -8.4654   21.4687 H   0  0  0  0  0  0  0  0  0  0  0  0
    4.1067    1.9732   18.8067 H   0  0  0  0  0  0  0  0  0  0  0  0
   10.1222   -8.3028   19.0488 H   0  0  0  0  0  0  0  0  0  0  0  0
    4.8487    1.2458   16.5417 H   0  0  0  0  0  0  0  0  0  0  0  0
   10.3962   -4.2000   19.0819 H   0  0  0  0  0  0  0  0  0  0  0  0
    7.7200   -1.2544   18.0953 H   0  0  0  0  0  0  0  0  0  0  0  0
   12.3121   -6.4662   23.2504 H   0  0  0  0  0  0  0  0  0  0  0  0
   10.8776   -5.4909   23.6530 H   0  0  0  0  0  0  0  0  0  0  0  0
   10.7512   -7.2484   23.6020 H   0  0  0  0  0  0  0  0  0  0  0  0
    4.3492    0.4676   21.5385 H   0  0  0  0  0  0  0  0  0  0  0  0
    5.9816    1.0985   21.8682 H   0  0  0  0  0  0  0  0  0  0  0  0
    4.7612    2.1600   21.1673 H   0  0  0  0  0  0  0  0  0  0  0  0
    8.0107   -0.0191   24.0851 H   0  0  0  0  0  0  0  0  0  0  0  0
    6.9229   -1.2436   23.4272 H   0  0  0  0  0  0  0  0  0  0  0  0
    8.2638   -1.7299   24.4748 H   0  0  0  0  0  0  0  0  0  0  0  0
    8.7819   -2.2412   22.1244 H   0  0  0  0  0  0  0  0  0  0  0  0
   11.2729   -3.9318   22.6513 H   0  0  0  0  0  0  0  0  0  0  0  0
    6.8824   -1.6524   21.0513 H   0  0  0  0  0  0  0  0  0  0  0  0
  1  2  1  0  0  0  0
  1  3  2  0  0  0  0
  2 11  2  0  0  0  0
  3 16  1  0  0  0  0
  4  6  2  0  0  0  0
  4 12  1  0  0  0  0
  5  7  2  0  0  0  0
  5 13  1  0  0  0  0
  6 23  1  0  0  0  0
  7 24  1  0  0  0  0
  8 14  1  0  0  0  0
  8 23  2  0  0  0  0
  9 15  1  0  0  0  0
  9 24  2  0  0  0  0
 10 11  1  0  0  0  0
 10 16  2  0  0  0  0
 10 17  1  0  0  0  0
 11 22  1  0  0  0  0
 12 14  2  0  0  0  0
 12 19  1  0  0  0  0
 13 15  2  0  0  0  0
 13 20  1  0  0  0  0
 14 25  1  0  0  0  0
 15 26  1  0  0  0  0
 16 29  1  0  0  0  0
 17 25  1  0  0  0  0
 17 27  2  0  0  0  0
 18 22  1  0  0  0  0
 18 26  1  0  0  0  0
 18 28  2  0  0  0  0
 21 22  1  1  0  0  0
  1 30  1  0  0  0  0
  2 31  1  0  0  0  0
  3 32  1  0  0  0  0
  4 33  1  0  0  0  0
  5 34  1  0  0  0  0
  6 35  1  0  0  0  0
  7 36  1  0  0  0  0
  8 37  1  0  0  0  0
  9 38  1  0  0  0  0
 19 39  1  0  0  0  0
 19 40  1  0  0  0  0
 19 41  1  0  0  0  0
 20 42  1  0  0  0  0
 20 43  1  0  0  0  0
 20 44  1  0  0  0  0
 21 45  1  0  0  0  0
 21 46  1  0  0  0  0
 21 47  1  0  0  0  0
 22 48  1  0  0  0  0
 25 49  1  0  0  0  0
 26 50  1  0  0  0  0
M  END
> <compound>
MAK-UNK-f203cb68-14

> <compound_smiles>
Cc1ccncc1NC(=O)c2c(cccc2Cl)C(C)C(=O)Nc3cnccc3C

> <enantiomer_smiles>
Cc1ccncc1NC(=O)c2c(cccc2Cl)[C@@H](C)C(=O)Nc3cnccc3C

> <scaffold>
chlorobenzene-linker

> <clash_score>
13.67471856541175

> <docking_score>
-1.8465566635131836

> <overlap_score>
0.8668034076690674

> <MMFF_internal_energy>
120.09025681957552

> <docked_smiles>
Cc1ccncc1NC(=O)c2c(cccc2Cl)[C@@H](C)C(=O)Nc3cnccc3C

$$$$
MAK-UNK-f203cb68-13_2
  -OEChem-07262101013D

 50 52  0     1  0  0  0  0  0999 V2000
   11.9780    0.4600   23.9150 C   0  0  0  0  0  0  0  0  0  0  0  0
   10.6560    0.0720   23.7350 C   0  0  0  0  0  0  0  0  0  0  0  0
   12.9840   -0.1200   23.1530 C   0  0  0  0  0  0  0  0  0  0  0  0
    3.9884    3.4731   18.2515 C   0  0  0  0  0  0  0  0  0  0  0  0
   11.3360   -1.5050   22.0650 C   0  0  0  0  0  0  0  0  0  0  0  0
    2.9462    4.3755   18.3900 C   0  0  0  0  0  0  0  0  0  0  0  0
    5.3278    0.8493   17.4306 C   0  0  0  0  0  0  0  0  0  0  0  0
    1.6845    2.8720   19.5840 C   0  0  0  0  0  0  0  0  0  0  0  0
    6.9287   -0.5455   18.3080 C   0  0  0  0  0  0  0  0  0  0  0  0
    3.8385    2.2133   18.8207 C   0  0  0  0  0  0  0  0  0  0  0  0
    4.9141    1.2548   18.6892 C   0  0  0  0  0  0  0  0  0  0  0  0
   10.3220   -0.8940   22.7910 C   0  0  0  0  0  0  0  0  0  0  0  0
    5.5624    0.7128   19.7934 C   0  0  0  0  0  0  0  0  0  0  0  0
    2.6674    1.8990   19.5013 C   0  0  0  0  0  0  0  0  0  0  0  0
    6.5902   -0.2052   19.6078 C   0  0  0  0  0  0  0  0  0  0  0  0
   12.6400   -1.1000   22.2390 C   0  0  0  0  0  0  0  0  0  0  0  0
    1.3353    0.2076   20.8007 C   0  0  0  0  0  0  0  0  0  0  0  0
    8.3880   -0.3240   21.3070 C   0  0  0  0  0  0  0  0  0  0  0  0
    5.1610    1.1109   21.1802 C   0  0  0  0  0  0  0  0  0  0  0  0
    1.5028   -1.2121   21.2812 C   0  0  0  0  0  0  0  0  0  0  0  0
    7.9670   -1.0352   23.6784 C   0  0  0  0  0  0  0  0  0  0  0  0
    8.8810   -1.1900   22.4510 C   0  0  2  0  0  0  0  0  0  0  0  0
    1.7940    4.1065   19.0439 N   0  0  0  0  0  0  0  0  0  0  0  0
    6.3220   -0.0400   17.2107 N   0  0  0  0  0  0  0  0  0  0  0  0
    2.4591    0.6513   20.0923 N   0  0  0  0  0  0  0  0  0  0  0  0
    7.2820   -0.7860   20.6970 N   0  0  0  0  0  0  0  0  0  0  0  0
    0.3073    0.8337   21.0378 O   0  0  0  0  0  0  0  0  0  0  0  0
    8.9170    0.7530   21.0260 O   0  0  0  0  0  0  0  0  0  0  0  0
   13.8840   -1.8490   21.2740 Cl  0  0  0  0  0  0  0  0  0  0  0  0
   12.2249    1.2198   24.6546 H   0  0  0  0  0  0  0  0  0  0  0  0
    9.8763    0.5350   24.3454 H   0  0  0  0  0  0  0  0  0  0  0  0
   14.0077    0.1988   23.2842 H   0  0  0  0  0  0  0  0  0  0  0  0
    4.8875    3.7569   17.7137 H   0  0  0  0  0  0  0  0  0  0  0  0
   11.0892   -2.3009   21.3624 H   0  0  0  0  0  0  0  0  0  0  0  0
    3.0144    5.3716   17.9649 H   0  0  0  0  0  0  0  0  0  0  0  0
    4.8631    1.2346   16.5272 H   0  0  0  0  0  0  0  0  0  0  0  0
    0.7478    2.6868   20.1016 H   0  0  0  0  0  0  0  0  0  0  0  0
    7.7225   -1.2564   18.0984 H   0  0  0  0  0  0  0  0  0  0  0  0
    4.3780    0.4419   21.5513 H   0  0  0  0  0  0  0  0  0  0  0  0
    6.0159    1.0671   21.8638 H   0  0  0  0  0  0  0  0  0  0  0  0
    4.7848    2.1397   21.1995 H   0  0  0  0  0  0  0  0  0  0  0  0
    1.9596   -1.2151   22.2749 H   0  0  0  0  0  0  0  0  0  0  0  0
    2.1500   -1.7622   20.5920 H   0  0  0  0  0  0  0  0  0  0  0  0
    0.5292   -1.7091   21.3240 H   0  0  0  0  0  0  0  0  0  0  0  0
    8.0088   -0.0193   24.0871 H   0  0  0  0  0  0  0  0  0  0  0  0
    6.9216   -1.2406   23.4222 H   0  0  0  0  0  0  0  0  0  0  0  0
    8.2585   -1.7315   24.4726 H   0  0  0  0  0  0  0  0  0  0  0  0
    8.7806   -2.2413   22.1242 H   0  0  0  0  0  0  0  0  0  0  0  0
    3.2211   -0.0294   19.9982 H   0  0  0  0  0  0  0  0  0  0  0  0
    6.8824   -1.6524   21.0513 H   0  0  0  0  0  0  0  0  0  0  0  0
  1  2  2  0  0  0  0
  1  3  1  0  0  0  0
  2 12  1  0  0  0  0
  3 16  2  0  0  0  0
  4  6  2  0  0  0  0
  4 10  1  0  0  0  0
  5 12  2  0  0  0  0
  5 16  1  0  0  0  0
  6 23  1  0  0  0  0
  7 11  2  0  0  0  0
  7 24  1  0  0  0  0
  8 14  1  0  0  0  0
  8 23  2  0  0  0  0
  9 15  1  0  0  0  0
  9 24  2  0  0  0  0
 10 11  1  0  0  0  0
 10 14  2  0  0  0  0
 11 13  1  0  0  0  0
 12 22  1  0  0  0  0
 13 15  2  0  0  0  0
 13 19  1  0  0  0  0
 14 25  1  0  0  0  0
 15 26  1  0  0  0  0
 16 29  1  0  0  0  0
 17 20  1  0  0  0  0
 17 25  1  0  0  0  0
 17 27  2  0  0  0  0
 18 22  1  0  0  0  0
 18 26  1  0  0  0  0
 18 28  2  0  0  0  0
 21 22  1  6  0  0  0
  1 30  1  0  0  0  0
  2 31  1  0  0  0  0
  3 32  1  0  0  0  0
  4 33  1  0  0  0  0
  5 34  1  0  0  0  0
  6 35  1  0  0  0  0
  7 36  1  0  0  0  0
  8 37  1  0  0  0  0
  9 38  1  0  0  0  0
 19 39  1  0  0  0  0
 19 40  1  0  0  0  0
 19 41  1  0  0  0  0
 20 42  1  0  0  0  0
 20 43  1  0  0  0  0
 20 44  1  0  0  0  0
 21 45  1  0  0  0  0
 21 46  1  0  0  0  0
 21 47  1  0  0  0  0
 22 48  1  0  0  0  0
 25 49  1  0  0  0  0
 26 50  1  0  0  0  0
M  END
> <compound>
MAK-UNK-f203cb68-13

> <compound_smiles>
Cc1c(cncc1NC(=O)C(C)c2cccc(c2)Cl)c3ccncc3NC(=O)C

> <enantiomer_smiles>
Cc1c(cncc1NC(=O)[C@H](C)c2cccc(c2)Cl)c3ccncc3NC(=O)C

> <scaffold>
chlorobenzene-linker

> <clash_score>
4.913783910882083

> <docking_score>
-6.002032279968262

> <overlap_score>
0.9547213315963745

> <MMFF_internal_energy>
119.79770031165971

> <docked_smiles>
Cc1c(cncc1NC(=O)[C@H](C)c2cccc(c2)Cl)c3ccncc3NC(=O)C

$$$$
BAR-COM-0f94fc3d-38_2
  -OEChem-07262101013D

 38 39  0     1  0  0  0  0  0999 V2000
   11.9780    0.4600   23.9150 C   0  0  0  0  0  0  0  0  0  0  0  0
   10.6560    0.0720   23.7350 C   0  0  0  0  0  0  0  0  0  0  0  0
   12.9840   -0.1200   23.1530 C   0  0  0  0  0  0  0  0  0  0  0  0
    4.6181    0.7449   18.6093 C   0  0  0  0  0  0  0  0  0  0  0  0
   11.3360   -1.5050   22.0650 C   0  0  0  0  0  0  0  0  0  0  0  0
    5.3493    0.8990   17.4425 C   0  0  0  0  0  0  0  0  0  0  0  0
    7.2313   -0.0104   18.3961 C   0  0  0  0  0  0  0  0  0  0  0  0
   10.3220   -0.8940   22.7910 C   0  0  0  0  0  0  0  0  0  0  0  0
    5.2568    0.1806   19.7079 C   0  0  0  0  0  0  0  0  0  0  0  0
    6.5883   -0.2069   19.6076 C   0  0  0  0  0  0  0  0  0  0  0  0
   12.6400   -1.1000   22.2390 C   0  0  0  0  0  0  0  0  0  0  0  0
    8.3880   -0.3240   21.3070 C   0  0  0  0  0  0  0  0  0  0  0  0
    4.4924    0.0033   20.9787 C   0  0  0  0  0  0  0  0  0  0  0  0
    8.1575   -2.1292   24.7610 C   0  0  0  0  0  0  0  0  0  0  0  0
    7.8576   -1.1400   23.6370 C   0  0  0  0  0  0  0  0  0  0  0  0
    8.8810   -1.1900   22.4510 C   0  0  2  0  0  0  0  0  0  0  0  0
    6.6441    0.5346   17.3071 N   0  0  0  0  0  0  0  0  0  0  0  0
    7.2820   -0.7860   20.6970 N   0  0  0  0  0  0  0  0  0  0  0  0
    8.9170    0.7530   21.0260 O   0  0  0  0  0  0  0  0  0  0  0  0
    8.8260   -2.5535   21.9666 O   0  0  0  0  0  0  0  0  0  0  0  0
   13.8840   -1.8490   21.2740 Cl  0  0  0  0  0  0  0  0  0  0  0  0
   12.2249    1.2198   24.6546 H   0  0  0  0  0  0  0  0  0  0  0  0
    9.8763    0.5350   24.3454 H   0  0  0  0  0  0  0  0  0  0  0  0
   14.0077    0.1988   23.2842 H   0  0  0  0  0  0  0  0  0  0  0  0
    3.5805    1.0579   18.6548 H   0  0  0  0  0  0  0  0  0  0  0  0
   11.0892   -2.3009   21.3624 H   0  0  0  0  0  0  0  0  0  0  0  0
    4.8973    1.3341   16.5573 H   0  0  0  0  0  0  0  0  0  0  0  0
    8.2705   -0.2928   18.2555 H   0  0  0  0  0  0  0  0  0  0  0  0
    4.0022   -0.9771   20.9935 H   0  0  0  0  0  0  0  0  0  0  0  0
    5.1524    0.0774   21.8518 H   0  0  0  0  0  0  0  0  0  0  0  0
    3.7254    0.7796   21.0914 H   0  0  0  0  0  0  0  0  0  0  0  0
    8.1423   -3.1621   24.3999 H   0  0  0  0  0  0  0  0  0  0  0  0
    9.1558   -1.9371   25.1680 H   0  0  0  0  0  0  0  0  0  0  0  0
    7.4412   -2.0418   25.5823 H   0  0  0  0  0  0  0  0  0  0  0  0
    7.8918   -0.1346   24.0792 H   0  0  0  0  0  0  0  0  0  0  0  0
    6.8234   -1.2796   23.3035 H   0  0  0  0  0  0  0  0  0  0  0  0
    6.8986   -1.6544   21.0618 H   0  0  0  0  0  0  0  0  0  0  0  0
    7.8965   -2.7332   21.7703 H   0  0  0  0  0  0  0  0  0  0  0  0
  1  2  2  0  0  0  0
  1  3  1  0  0  0  0
  2  8  1  0  0  0  0
  3 11  2  0  0  0  0
  4  6  2  0  0  0  0
  4  9  1  0  0  0  0
  5  8  2  0  0  0  0
  5 11  1  0  0  0  0
  6 17  1  0  0  0  0
  7 10  1  0  0  0  0
  7 17  2  0  0  0  0
  8 16  1  0  0  0  0
  9 10  2  0  0  0  0
  9 13  1  0  0  0  0
 10 18  1  0  0  0  0
 11 21  1  0  0  0  0
 12 16  1  0  0  0  0
 12 18  1  0  0  0  0
 12 19  2  0  0  0  0
 14 15  1  0  0  0  0
 15 16  1  0  0  0  0
 16 20  1  1  0  0  0
  1 22  1  0  0  0  0
  2 23  1  0  0  0  0
  3 24  1  0  0  0  0
  4 25  1  0  0  0  0
  5 26  1  0  0  0  0
  6 27  1  0  0  0  0
  7 28  1  0  0  0  0
 13 29  1  0  0  0  0
 13 30  1  0  0  0  0
 13 31  1  0  0  0  0
 14 32  1  0  0  0  0
 14 33  1  0  0  0  0
 14 34  1  0  0  0  0
 15 35  1  0  0  0  0
 15 36  1  0  0  0  0
 18 37  1  0  0  0  0
 20 38  1  0  0  0  0
M  END
> <compound>
BAR-COM-0f94fc3d-38

> <compound_smiles>
CCC(c1cccc(c1)Cl)(C(=O)Nc2cnccc2C)O

> <enantiomer_smiles>
CC[C@](c1cccc(c1)Cl)(C(=O)Nc2cnccc2C)O

> <scaffold>
chlorobenzene-linker

> <clash_score>
0

> <docking_score>
-9.16380500793457

> <overlap_score>
0.855989933013916

> <MMFF_internal_energy>
119.77369938624697

> <docked_smiles>
CC[C@](c1cccc(c1)Cl)(C(=O)Nc2cnccc2C)O

$$$$
BAR-COM-0f94fc3d-24_1
  -OEChem-07262101013D

 32 34  0     0  0  0  0  0  0999 V2000
    3.4581    2.3194   19.1951 C   0  0  0  0  0  0  0  0  0  0  0  0
    3.8461    2.0817   20.5157 C   0  0  0  0  0  0  0  0  0  0  0  0
   11.9780    0.4600   23.9150 C   0  0  0  0  0  0  0  0  0  0  0  0
   10.6560    0.0720   23.7350 C   0  0  0  0  0  0  0  0  0  0  0  0
    4.1162    1.6971   18.1268 C   0  0  0  0  0  0  0  0  0  0  0  0
    4.9027    1.2160   20.8172 C   0  0  0  0  0  0  0  0  0  0  0  0
   12.9840   -0.1200   23.1530 C   0  0  0  0  0  0  0  0  0  0  0  0
   11.3360   -1.5050   22.0650 C   0  0  0  0  0  0  0  0  0  0  0  0
    6.8135   -0.5492   18.3433 C   0  0  0  0  0  0  0  0  0  0  0  0
   10.3220   -0.8940   22.7910 C   0  0  0  0  0  0  0  0  0  0  0  0
    5.1801    0.8245   18.4114 C   0  0  0  0  0  0  0  0  0  0  0  0
    5.5435    0.6076   19.7375 C   0  0  0  0  0  0  0  0  0  0  0  0
   12.6400   -1.1000   22.2390 C   0  0  0  0  0  0  0  0  0  0  0  0
    8.3880   -0.3240   21.3070 C   0  0  0  0  0  0  0  0  0  0  0  0
    8.8810   -1.1900   22.4510 C   0  0  0  0  0  0  0  0  0  0  0  0
    5.9799    0.0975   17.5598 N   0  0  0  0  0  0  0  0  0  0  0  0
    6.5905   -0.2750   19.6640 N   0  0  0  0  0  0  0  0  0  0  0  0
    7.2820   -0.7860   20.6970 N   0  0  0  0  0  0  0  0  0  0  0  0
    8.9170    0.7530   21.0260 O   0  0  0  0  0  0  0  0  0  0  0  0
    8.0642   -0.9913   23.5410 F   0  0  0  0  0  0  0  0  0  0  0  0
    8.6939   -2.5212   22.1543 F   0  0  0  0  0  0  0  0  0  0  0  0
   13.8840   -1.8490   21.2740 Cl  0  0  0  0  0  0  0  0  0  0  0  0
    2.6330    2.9970   18.9923 H   0  0  0  0  0  0  0  0  0  0  0  0
    3.3156    2.5772   21.3253 H   0  0  0  0  0  0  0  0  0  0  0  0
   12.2249    1.2198   24.6546 H   0  0  0  0  0  0  0  0  0  0  0  0
    9.8763    0.5350   24.3454 H   0  0  0  0  0  0  0  0  0  0  0  0
    3.8066    1.8876   17.1041 H   0  0  0  0  0  0  0  0  0  0  0  0
    5.2028    1.0322   21.8428 H   0  0  0  0  0  0  0  0  0  0  0  0
   14.0077    0.1988   23.2842 H   0  0  0  0  0  0  0  0  0  0  0  0
   11.0892   -2.3009   21.3624 H   0  0  0  0  0  0  0  0  0  0  0  0
    7.5921   -1.2237   18.0132 H   0  0  0  0  0  0  0  0  0  0  0  0
    6.9534   -1.6826   21.1335 H   0  0  0  0  0  0  0  0  0  0  0  0
  1  2  1  0  0  0  0
  1  5  2  0  0  0  0
  2  6  2  0  0  0  0
  3  4  2  0  0  0  0
  3  7  1  0  0  0  0
  4 10  1  0  0  0  0
  5 11  1  0  0  0  0
  6 12  1  0  0  0  0
  7 13  2  0  0  0  0
  8 10  2  0  0  0  0
  8 13  1  0  0  0  0
  9 16  2  0  0  0  0
  9 17  1  0  0  0  0
 10 15  1  0  0  0  0
 11 12  2  0  0  0  0
 11 16  1  0  0  0  0
 12 17  1  0  0  0  0
 13 22  1  0  0  0  0
 14 15  1  0  0  0  0
 14 18  1  0  0  0  0
 14 19  2  0  0  0  0
 15 20  1  0  0  0  0
 15 21  1  0  0  0  0
 17 18  1  0  0  0  0
  1 23  1  0  0  0  0
  2 24  1  0  0  0  0
  3 25  1  0  0  0  0
  4 26  1  0  0  0  0
  5 27  1  0  0  0  0
  6 28  1  0  0  0  0
  7 29  1  0  0  0  0
  8 30  1  0  0  0  0
  9 31  1  0  0  0  0
 18 32  1  0  0  0  0
M  END
> <compound>
BAR-COM-0f94fc3d-24

> <compound_smiles>
c1ccc2c(c1)ncn2NC(=O)C(c3cccc(c3)Cl)(F)F

> <enantiomer_smiles>
c1ccc2c(c1)ncn2NC(=O)C(c3cccc(c3)Cl)(F)F

> <scaffold>
chlorobenzene-linker

> <clash_score>
0

> <docking_score>
-8.902212142944336

> <overlap_score>
0.9773074388504028

> <MMFF_internal_energy>
98.60622670463438

> <docked_smiles>
c1ccc2c(c1)ncn2NC(=O)C(c3cccc(c3)Cl)(F)F

$$$$
MAK-UNK-f203cb68-21_2
  -OEChem-07262101013D

 50 52  0     1  0  0  0  0  0999 V2000
   11.9780    0.4600   23.9150 C   0  0  0  0  0  0  0  0  0  0  0  0
   10.6560    0.0720   23.7350 C   0  0  0  0  0  0  0  0  0  0  0  0
   12.9840   -0.1200   23.1530 C   0  0  0  0  0  0  0  0  0  0  0  0
    5.9962    4.4356   12.4631 C   0  0  0  0  0  0  0  0  0  0  0  0
   11.3360   -1.5050   22.0650 C   0  0  0  0  0  0  0  0  0  0  0  0
    4.5834    0.2293   18.3554 C   0  0  0  0  0  0  0  0  0  0  0  0
    4.6629    4.4705   12.0878 C   0  0  0  0  0  0  0  0  0  0  0  0
    4.0362    3.1528   13.8624 C   0  0  0  0  0  0  0  0  0  0  0  0
    7.2761    0.5438   18.6653 C   0  0  0  0  0  0  0  0  0  0  0  0
   10.3220   -0.8940   22.7910 C   0  0  0  0  0  0  0  0  0  0  0  0
    6.3330    3.7127   13.6021 C   0  0  0  0  0  0  0  0  0  0  0  0
    5.2184   -0.3607   19.4426 C   0  0  0  0  0  0  0  0  0  0  0  0
    5.3402    3.0560   14.3208 C   0  0  0  0  0  0  0  0  0  0  0  0
    6.5901   -0.2052   19.6078 C   0  0  0  0  0  0  0  0  0  0  0  0
   12.6400   -1.1000   22.2390 C   0  0  0  0  0  0  0  0  0  0  0  0
    5.3591    0.9590   17.4691 C   0  0  0  0  0  0  0  0  0  0  0  0
    4.7485    1.5950   16.3148 C   0  0  0  0  0  0  0  0  0  0  0  0
    8.3880   -0.3240   21.3070 C   0  0  0  0  0  0  0  0  0  0  0  0
    7.7630    3.6577   14.0293 C   0  0  0  0  0  0  0  0  0  0  0  0
    4.4071   -1.1522   20.4151 C   0  0  0  0  0  0  0  0  0  0  0  0
    7.9670   -1.0352   23.6784 C   0  0  0  0  0  0  0  0  0  0  0  0
    8.8810   -1.1900   22.4510 C   0  0  2  0  0  0  0  0  0  0  0  0
    3.6707    3.8455   12.7604 N   0  0  0  0  0  0  0  0  0  0  0  0
    6.6939    1.1320   17.5964 N   0  0  0  0  0  0  0  0  0  0  0  0
    5.6328    2.3068   15.4882 N   0  0  0  0  0  0  0  0  0  0  0  0
    7.2820   -0.7860   20.6970 N   0  0  0  0  0  0  0  0  0  0  0  0
    3.5278    1.5352   16.1058 O   0  0  0  0  0  0  0  0  0  0  0  0
    8.9170    0.7530   21.0260 O   0  0  0  0  0  0  0  0  0  0  0  0
   13.8840   -1.8490   21.2740 Cl  0  0  0  0  0  0  0  0  0  0  0  0
   12.2249    1.2198   24.6546 H   0  0  0  0  0  0  0  0  0  0  0  0
    9.8763    0.5350   24.3454 H   0  0  0  0  0  0  0  0  0  0  0  0
   14.0077    0.1988   23.2842 H   0  0  0  0  0  0  0  0  0  0  0  0
    6.7466    4.9588   11.8803 H   0  0  0  0  0  0  0  0  0  0  0  0
   11.0892   -2.3009   21.3624 H   0  0  0  0  0  0  0  0  0  0  0  0
    3.5135    0.1204   18.2076 H   0  0  0  0  0  0  0  0  0  0  0  0
    4.3481    5.0203   11.2069 H   0  0  0  0  0  0  0  0  0  0  0  0
    3.2172    2.6627   14.3805 H   0  0  0  0  0  0  0  0  0  0  0  0
    8.3483    0.6998   18.7390 H   0  0  0  0  0  0  0  0  0  0  0  0
    7.9872    4.4847   14.7130 H   0  0  0  0  0  0  0  0  0  0  0  0
    7.9886    2.7125   14.5382 H   0  0  0  0  0  0  0  0  0  0  0  0
    8.4372    3.7247   13.1665 H   0  0  0  0  0  0  0  0  0  0  0  0
    4.3633   -2.2031   20.1065 H   0  0  0  0  0  0  0  0  0  0  0  0
    4.8364   -1.1015   21.4233 H   0  0  0  0  0  0  0  0  0  0  0  0
    3.3829   -0.7651   20.4844 H   0  0  0  0  0  0  0  0  0  0  0  0
    8.0088   -0.0193   24.0871 H   0  0  0  0  0  0  0  0  0  0  0  0
    6.9216   -1.2406   23.4222 H   0  0  0  0  0  0  0  0  0  0  0  0
    8.2585   -1.7315   24.4726 H   0  0  0  0  0  0  0  0  0  0  0  0
    8.7806   -2.2413   22.1242 H   0  0  0  0  0  0  0  0  0  0  0  0
    6.6117    2.2814   15.7631 H   0  0  0  0  0  0  0  0  0  0  0  0
    6.8824   -1.6524   21.0513 H   0  0  0  0  0  0  0  0  0  0  0  0
  1  2  2  0  0  0  0
  1  3  1  0  0  0  0
  2 10  1  0  0  0  0
  3 15  2  0  0  0  0
  4  7  2  0  0  0  0
  4 11  1  0  0  0  0
  5 10  2  0  0  0  0
  5 15  1  0  0  0  0
  6 12  2  0  0  0  0
  6 16  1  0  0  0  0
  7 23  1  0  0  0  0
  8 13  1  0  0  0  0
  8 23  2  0  0  0  0
  9 14  2  0  0  0  0
  9 24  1  0  0  0  0
 10 22  1  0  0  0  0
 11 13  2  0  0  0  0
 11 19  1  0  0  0  0
 12 14  1  0  0  0  0
 12 20  1  0  0  0  0
 13 25  1  0  0  0  0
 14 26  1  0  0  0  0
 15 29  1  0  0  0  0
 16 17  1  0  0  0  0
 16 24  2  0  0  0  0
 17 25  1  0  0  0  0
 17 27  2  0  0  0  0
 18 22  1  0  0  0  0
 18 26  1  0  0  0  0
 18 28  2  0  0  0  0
 21 22  1  6  0  0  0
  1 30  1  0  0  0  0
  2 31  1  0  0  0  0
  3 32  1  0  0  0  0
  4 33  1  0  0  0  0
  5 34  1  0  0  0  0
  6 35  1  0  0  0  0
  7 36  1  0  0  0  0
  8 37  1  0  0  0  0
  9 38  1  0  0  0  0
 19 39  1  0  0  0  0
 19 40  1  0  0  0  0
 19 41  1  0  0  0  0
 20 42  1  0  0  0  0
 20 43  1  0  0  0  0
 20 44  1  0  0  0  0
 21 45  1  0  0  0  0
 21 46  1  0  0  0  0
 21 47  1  0  0  0  0
 22 48  1  0  0  0  0
 25 49  1  0  0  0  0
 26 50  1  0  0  0  0
M  END
> <compound>
MAK-UNK-f203cb68-21

> <compound_smiles>
Cc1ccncc1NC(=O)c2cc(c(cn2)NC(=O)C(C)c3cccc(c3)Cl)C

> <enantiomer_smiles>
Cc1ccncc1NC(=O)c2cc(c(cn2)NC(=O)[C@H](C)c3cccc(c3)Cl)C

> <scaffold>
chlorobenzene-linker

> <clash_score>
17.27751199751207

> <docking_score>
3.4028234663852886e+38

> <overlap_score>
0.7852834463119507

> <MMFF_internal_energy>
123.47286979559466

> <docked_smiles>
Cc1ccncc1NC(=O)c2cc(c(cn2)NC(=O)[C@H](C)c3cccc(c3)Cl)C

$$$$
MAK-UNK-f203cb68-20_1
  -OEChem-07262101013D

 50 52  0     1  0  0  0  0  0999 V2000
   11.9780    0.4600   23.9150 C   0  0  0  0  0  0  0  0  0  0  0  0
   10.6560    0.0720   23.7350 C   0  0  0  0  0  0  0  0  0  0  0  0
   12.9840   -0.1200   23.1530 C   0  0  0  0  0  0  0  0  0  0  0  0
    4.3304    4.9184   23.9745 C   0  0  0  0  0  0  0  0  0  0  0  0
    6.2200    0.0478   17.2449 C   0  0  0  0  0  0  0  0  0  0  0  0
   11.3360   -1.5050   22.0650 C   0  0  0  0  0  0  0  0  0  0  0  0
    3.2785    4.3307   24.6586 C   0  0  0  0  0  0  0  0  0  0  0  0
    5.2129    0.9479   17.5537 C   0  0  0  0  0  0  0  0  0  0  0  0
    3.1621    2.5895   23.1643 C   0  0  0  0  0  0  0  0  0  0  0  0
   10.3220   -0.8940   22.7910 C   0  0  0  0  0  0  0  0  0  0  0  0
    4.7983    4.2828   22.8298 C   0  0  0  0  0  0  0  0  0  0  0  0
    6.9169   -0.5353   18.2972 C   0  0  0  0  0  0  0  0  0  0  0  0
    4.2084    3.0957   22.4101 C   0  0  0  0  0  0  0  0  0  0  0  0
    6.5902   -0.2052   19.6078 C   0  0  0  0  0  0  0  0  0  0  0  0
   12.6400   -1.1000   22.2390 C   0  0  0  0  0  0  0  0  0  0  0  0
    5.5666    0.7064   19.8108 C   0  0  0  0  0  0  0  0  0  0  0  0
    5.1594    1.1072   21.1506 C   0  0  0  0  0  0  0  0  0  0  0  0
    8.3880   -0.3240   21.3070 C   0  0  0  0  0  0  0  0  0  0  0  0
    5.9309    4.8947   22.0725 C   0  0  0  0  0  0  0  0  0  0  0  0
    8.0083   -1.5081   17.9903 C   0  0  0  0  0  0  0  0  0  0  0  0
    8.6719   -2.6843   22.1478 C   0  0  0  0  0  0  0  0  0  0  0  0
    8.8810   -1.1900   22.4510 C   0  0  1  0  0  0  0  0  0  0  0  0
    2.6802    3.1785   24.2817 N   0  0  0  0  0  0  0  0  0  0  0  0
    4.8670    1.2935   18.8141 N   0  0  0  0  0  0  0  0  0  0  0  0
    4.6496    2.4100   21.2503 N   0  0  0  0  0  0  0  0  0  0  0  0
    7.2820   -0.7860   20.6970 N   0  0  0  0  0  0  0  0  0  0  0  0
    5.2938    0.3529   22.1227 O   0  0  0  0  0  0  0  0  0  0  0  0
    8.9170    0.7530   21.0260 O   0  0  0  0  0  0  0  0  0  0  0  0
   13.8840   -1.8490   21.2740 Cl  0  0  0  0  0  0  0  0  0  0  0  0
   12.2249    1.2198   24.6546 H   0  0  0  0  0  0  0  0  0  0  0  0
    9.8763    0.5350   24.3454 H   0  0  0  0  0  0  0  0  0  0  0  0
   14.0077    0.1988   23.2842 H   0  0  0  0  0  0  0  0  0  0  0  0
    4.7684    5.8454   24.3284 H   0  0  0  0  0  0  0  0  0  0  0  0
    6.4512   -0.1871   16.2114 H   0  0  0  0  0  0  0  0  0  0  0  0
   11.0892   -2.3009   21.3624 H   0  0  0  0  0  0  0  0  0  0  0  0
    2.8767    4.7868   25.5574 H   0  0  0  0  0  0  0  0  0  0  0  0
    4.6404    1.4310   16.7687 H   0  0  0  0  0  0  0  0  0  0  0  0
    2.6613    1.6663   22.8880 H   0  0  0  0  0  0  0  0  0  0  0  0
    6.8881    4.5167   22.4497 H   0  0  0  0  0  0  0  0  0  0  0  0
    5.8617    4.6652   21.0020 H   0  0  0  0  0  0  0  0  0  0  0  0
    5.9252    5.9878   22.1657 H   0  0  0  0  0  0  0  0  0  0  0  0
    8.9659   -0.9846   17.8888 H   0  0  0  0  0  0  0  0  0  0  0  0
    8.1030   -2.2602   18.7831 H   0  0  0  0  0  0  0  0  0  0  0  0
    7.8052   -2.0500   17.0584 H   0  0  0  0  0  0  0  0  0  0  0  0
    9.2843   -3.0131   21.3007 H   0  0  0  0  0  0  0  0  0  0  0  0
    8.9296   -3.3200   23.0024 H   0  0  0  0  0  0  0  0  0  0  0  0
    7.6214   -2.8709   21.8984 H   0  0  0  0  0  0  0  0  0  0  0  0
    8.2360   -0.9649   23.3210 H   0  0  0  0  0  0  0  0  0  0  0  0
    4.5887    2.9298   20.3783 H   0  0  0  0  0  0  0  0  0  0  0  0
    6.8824   -1.6524   21.0513 H   0  0  0  0  0  0  0  0  0  0  0  0
  1  2  2  0  0  0  0
  1  3  1  0  0  0  0
  2 10  1  0  0  0  0
  3 15  2  0  0  0  0
  4  7  2  0  0  0  0
  4 11  1  0  0  0  0
  5  8  2  0  0  0  0
  5 12  1  0  0  0  0
  6 10  2  0  0  0  0
  6 15  1  0  0  0  0
  7 23  1  0  0  0  0
  8 24  1  0  0  0  0
  9 13  1  0  0  0  0
  9 23  2  0  0  0  0
 10 22  1  0  0  0  0
 11 13  2  0  0  0  0
 11 19  1  0  0  0  0
 12 14  2  0  0  0  0
 12 20  1  0  0  0  0
 13 25  1  0  0  0  0
 14 16  1  0  0  0  0
 14 26  1  0  0  0  0
 15 29  1  0  0  0  0
 16 17  1  0  0  0  0
 16 24  2  0  0  0  0
 17 25  1  0  0  0  0
 17 27  2  0  0  0  0
 18 22  1  0  0  0  0
 18 26  1  0  0  0  0
 18 28  2  0  0  0  0
 21 22  1  1  0  0  0
  1 30  1  0  0  0  0
  2 31  1  0  0  0  0
  3 32  1  0  0  0  0
  4 33  1  0  0  0  0
  5 34  1  0  0  0  0
  6 35  1  0  0  0  0
  7 36  1  0  0  0  0
  8 37  1  0  0  0  0
  9 38  1  0  0  0  0
 19 39  1  0  0  0  0
 19 40  1  0  0  0  0
 19 41  1  0  0  0  0
 20 42  1  0  0  0  0
 20 43  1  0  0  0  0
 20 44  1  0  0  0  0
 21 45  1  0  0  0  0
 21 46  1  0  0  0  0
 21 47  1  0  0  0  0
 22 48  1  0  0  0  0
 25 49  1  0  0  0  0
 26 50  1  0  0  0  0
M  END
> <compound>
MAK-UNK-f203cb68-20

> <compound_smiles>
Cc1ccncc1NC(=O)c2c(c(ccn2)C)NC(=O)C(C)c3cccc(c3)Cl

> <enantiomer_smiles>
Cc1ccncc1NC(=O)c2c(c(ccn2)C)NC(=O)[C@@H](C)c3cccc(c3)Cl

> <scaffold>
chlorobenzene-linker

> <clash_score>
0

> <docking_score>
-6.378856658935547

> <overlap_score>
0.9347314238548279

> <MMFF_internal_energy>
167.21502003715153

> <docked_smiles>
Cc1ccncc1NC(=O)c2c(c(ccn2)C)NC(=O)[C@@H](C)c3cccc(c3)Cl

$$$$
MAK-UNK-f203cb68-20_2
  -OEChem-07262101013D

 50 52  0     1  0  0  0  0  0999 V2000
   11.9780    0.4600   23.9150 C   0  0  0  0  0  0  0  0  0  0  0  0
   10.6560    0.0720   23.7350 C   0  0  0  0  0  0  0  0  0  0  0  0
   12.9840   -0.1200   23.1530 C   0  0  0  0  0  0  0  0  0  0  0  0
    4.3304    4.9183   23.9745 C   0  0  0  0  0  0  0  0  0  0  0  0
    6.2200    0.0478   17.2449 C   0  0  0  0  0  0  0  0  0  0  0  0
   11.3360   -1.5050   22.0650 C   0  0  0  0  0  0  0  0  0  0  0  0
    3.2785    4.3306   24.6586 C   0  0  0  0  0  0  0  0  0  0  0  0
    5.2129    0.9479   17.5537 C   0  0  0  0  0  0  0  0  0  0  0  0
    3.1621    2.5895   23.1643 C   0  0  0  0  0  0  0  0  0  0  0  0
   10.3220   -0.8940   22.7910 C   0  0  0  0  0  0  0  0  0  0  0  0
    4.7983    4.2828   22.8298 C   0  0  0  0  0  0  0  0  0  0  0  0
    6.9169   -0.5353   18.2972 C   0  0  0  0  0  0  0  0  0  0  0  0
    4.2084    3.0957   22.4101 C   0  0  0  0  0  0  0  0  0  0  0  0
    6.5901   -0.2052   19.6078 C   0  0  0  0  0  0  0  0  0  0  0  0
   12.6400   -1.1000   22.2390 C   0  0  0  0  0  0  0  0  0  0  0  0
    5.5666    0.7064   19.8108 C   0  0  0  0  0  0  0  0  0  0  0  0
    5.1594    1.1072   21.1507 C   0  0  0  0  0  0  0  0  0  0  0  0
    8.3880   -0.3240   21.3070 C   0  0  0  0  0  0  0  0  0  0  0  0
    5.9309    4.8947   22.0725 C   0  0  0  0  0  0  0  0  0  0  0  0
    8.0083   -1.5081   17.9903 C   0  0  0  0  0  0  0  0  0  0  0  0
    7.9670   -1.0352   23.6784 C   0  0  0  0  0  0  0  0  0  0  0  0
    8.8810   -1.1900   22.4510 C   0  0  2  0  0  0  0  0  0  0  0  0
    2.6802    3.1785   24.2817 N   0  0  0  0  0  0  0  0  0  0  0  0
    4.8670    1.2935   18.8141 N   0  0  0  0  0  0  0  0  0  0  0  0
    4.6496    2.4100   21.2503 N   0  0  0  0  0  0  0  0  0  0  0  0
    7.2820   -0.7860   20.6970 N   0  0  0  0  0  0  0  0  0  0  0  0
    5.2938    0.3529   22.1227 O   0  0  0  0  0  0  0  0  0  0  0  0
    8.9170    0.7530   21.0260 O   0  0  0  0  0  0  0  0  0  0  0  0
   13.8840   -1.8490   21.2740 Cl  0  0  0  0  0  0  0  0  0  0  0  0
   12.2249    1.2198   24.6546 H   0  0  0  0  0  0  0  0  0  0  0  0
    9.8763    0.5350   24.3454 H   0  0  0  0  0  0  0  0  0  0  0  0
   14.0077    0.1988   23.2842 H   0  0  0  0  0  0  0  0  0  0  0  0
    4.7684    5.8454   24.3284 H   0  0  0  0  0  0  0  0  0  0  0  0
    6.4512   -0.1871   16.2114 H   0  0  0  0  0  0  0  0  0  0  0  0
   11.0892   -2.3009   21.3624 H   0  0  0  0  0  0  0  0  0  0  0  0
    2.8766    4.7868   25.5574 H   0  0  0  0  0  0  0  0  0  0  0  0
    4.6404    1.4310   16.7687 H   0  0  0  0  0  0  0  0  0  0  0  0
    2.6613    1.6663   22.8880 H   0  0  0  0  0  0  0  0  0  0  0  0
    6.8881    4.5167   22.4497 H   0  0  0  0  0  0  0  0  0  0  0  0
    5.8617    4.6652   21.0020 H   0  0  0  0  0  0  0  0  0  0  0  0
    5.9252    5.9878   22.1658 H   0  0  0  0  0  0  0  0  0  0  0  0
    8.9658   -0.9846   17.8888 H   0  0  0  0  0  0  0  0  0  0  0  0
    8.1030   -2.2602   18.7831 H   0  0  0  0  0  0  0  0  0  0  0  0
    7.8052   -2.0500   17.0584 H   0  0  0  0  0  0  0  0  0  0  0  0
    8.0088   -0.0193   24.0871 H   0  0  0  0  0  0  0  0  0  0  0  0
    6.9216   -1.2406   23.4222 H   0  0  0  0  0  0  0  0  0  0  0  0
    8.2585   -1.7315   24.4726 H   0  0  0  0  0  0  0  0  0  0  0  0
    8.7806   -2.2413   22.1242 H   0  0  0  0  0  0  0  0  0  0  0  0
    4.5887    2.9298   20.3783 H   0  0  0  0  0  0  0  0  0  0  0  0
    6.8824   -1.6524   21.0513 H   0  0  0  0  0  0  0  0  0  0  0  0
  1  2  2  0  0  0  0
  1  3  1  0  0  0  0
  2 10  1  0  0  0  0
  3 15  2  0  0  0  0
  4  7  2  0  0  0  0
  4 11  1  0  0  0  0
  5  8  2  0  0  0  0
  5 12  1  0  0  0  0
  6 10  2  0  0  0  0
  6 15  1  0  0  0  0
  7 23  1  0  0  0  0
  8 24  1  0  0  0  0
  9 13  1  0  0  0  0
  9 23  2  0  0  0  0
 10 22  1  0  0  0  0
 11 13  2  0  0  0  0
 11 19  1  0  0  0  0
 12 14  2  0  0  0  0
 12 20  1  0  0  0  0
 13 25  1  0  0  0  0
 14 16  1  0  0  0  0
 14 26  1  0  0  0  0
 15 29  1  0  0  0  0
 16 17  1  0  0  0  0
 16 24  2  0  0  0  0
 17 25  1  0  0  0  0
 17 27  2  0  0  0  0
 18 22  1  0  0  0  0
 18 26  1  0  0  0  0
 18 28  2  0  0  0  0
 21 22  1  6  0  0  0
  1 30  1  0  0  0  0
  2 31  1  0  0  0  0
  3 32  1  0  0  0  0
  4 33  1  0  0  0  0
  5 34  1  0  0  0  0
  6 35  1  0  0  0  0
  7 36  1  0  0  0  0
  8 37  1  0  0  0  0
  9 38  1  0  0  0  0
 19 39  1  0  0  0  0
 19 40  1  0  0  0  0
 19 41  1  0  0  0  0
 20 42  1  0  0  0  0
 20 43  1  0  0  0  0
 20 44  1  0  0  0  0
 21 45  1  0  0  0  0
 21 46  1  0  0  0  0
 21 47  1  0  0  0  0
 22 48  1  0  0  0  0
 25 49  1  0  0  0  0
 26 50  1  0  0  0  0
M  END
> <compound>
MAK-UNK-f203cb68-20

> <compound_smiles>
Cc1ccncc1NC(=O)c2c(c(ccn2)C)NC(=O)C(C)c3cccc(c3)Cl

> <enantiomer_smiles>
Cc1ccncc1NC(=O)c2c(c(ccn2)C)NC(=O)[C@H](C)c3cccc(c3)Cl

> <scaffold>
chlorobenzene-linker

> <clash_score>
0

> <docking_score>
-6.630430221557617

> <overlap_score>
0.9344414472579956

> <MMFF_internal_energy>
161.98673319549266

> <docked_smiles>
Cc1ccncc1NC(=O)c2c(c(ccn2)C)NC(=O)[C@H](C)c3cccc(c3)Cl

$$$$
ANN-UNI-98d2bf15-3_1
  -OEChem-07262101013D

 32 33  0     0  0  0  0  0  0999 V2000
   11.9780    0.4600   23.9150 C   0  0  0  0  0  0  0  0  0  0  0  0
   10.6560    0.0720   23.7350 C   0  0  0  0  0  0  0  0  0  0  0  0
   12.9840   -0.1200   23.1530 C   0  0  0  0  0  0  0  0  0  0  0  0
    4.6257    0.7526   18.6041 C   0  0  0  0  0  0  0  0  0  0  0  0
   11.3360   -1.5050   22.0650 C   0  0  0  0  0  0  0  0  0  0  0  0
    5.3609    0.9061   17.4397 C   0  0  0  0  0  0  0  0  0  0  0  0
    7.2380   -0.0081   18.3983 C   0  0  0  0  0  0  0  0  0  0  0  0
    5.2598    0.1860   19.7041 C   0  0  0  0  0  0  0  0  0  0  0  0
   10.3220   -0.8940   22.7910 C   0  0  0  0  0  0  0  0  0  0  0  0
    6.5908   -0.2043   19.6076 C   0  0  0  0  0  0  0  0  0  0  0  0
   12.6400   -1.1000   22.2390 C   0  0  0  0  0  0  0  0  0  0  0  0
    4.5057    0.0144   20.9390 C   0  0  0  0  0  0  0  0  0  0  0  0
    8.3880   -0.3240   21.3070 C   0  0  0  0  0  0  0  0  0  0  0  0
    8.8810   -1.1900   22.4510 C   0  0  0  0  0  0  0  0  0  0  0  0
    6.6553    0.5391   17.3080 N   0  0  0  0  0  0  0  0  0  0  0  0
    4.5267    1.0580   21.8578 N   0  0  0  0  0  0  0  0  0  0  0  0
    7.2820   -0.7860   20.6970 N   0  0  0  0  0  0  0  0  0  0  0  0
    3.8795   -1.0326   21.1728 O   0  0  0  0  0  0  0  0  0  0  0  0
    8.9170    0.7530   21.0260 O   0  0  0  0  0  0  0  0  0  0  0  0
   13.8840   -1.8490   21.2740 Cl  0  0  0  0  0  0  0  0  0  0  0  0
   12.2249    1.2198   24.6546 H   0  0  0  0  0  0  0  0  0  0  0  0
    9.8763    0.5350   24.3454 H   0  0  0  0  0  0  0  0  0  0  0  0
   14.0077    0.1988   23.2842 H   0  0  0  0  0  0  0  0  0  0  0  0
    3.5885    1.0683   18.6442 H   0  0  0  0  0  0  0  0  0  0  0  0
   11.0892   -2.3009   21.3624 H   0  0  0  0  0  0  0  0  0  0  0  0
    4.9125    1.3428   16.5533 H   0  0  0  0  0  0  0  0  0  0  0  0
    8.2770   -0.2924   18.2603 H   0  0  0  0  0  0  0  0  0  0  0  0
    8.7709   -2.2387   22.1706 H   0  0  0  0  0  0  0  0  0  0  0  0
    8.2491   -1.0157   23.3232 H   0  0  0  0  0  0  0  0  0  0  0  0
    5.0578    1.8957   21.6458 H   0  0  0  0  0  0  0  0  0  0  0  0
    4.0216    0.9988   22.7360 H   0  0  0  0  0  0  0  0  0  0  0  0
    6.8973   -1.6552   21.0612 H   0  0  0  0  0  0  0  0  0  0  0  0
  1  2  1  0  0  0  0
  1  3  2  0  0  0  0
  2  9  2  0  0  0  0
  3 11  1  0  0  0  0
  4  6  2  0  0  0  0
  4  8  1  0  0  0  0
  5  9  1  0  0  0  0
  5 11  2  0  0  0  0
  6 15  1  0  0  0  0
  7 10  1  0  0  0  0
  7 15  2  0  0  0  0
  8 10  2  0  0  0  0
  8 12  1  0  0  0  0
  9 14  1  0  0  0  0
 10 17  1  0  0  0  0
 11 20  1  0  0  0  0
 12 16  1  0  0  0  0
 12 18  2  0  0  0  0
 13 14  1  0  0  0  0
 13 17  1  0  0  0  0
 13 19  2  0  0  0  0
  1 21  1  0  0  0  0
  2 22  1  0  0  0  0
  3 23  1  0  0  0  0
  4 24  1  0  0  0  0
  5 25  1  0  0  0  0
  6 26  1  0  0  0  0
  7 27  1  0  0  0  0
 14 28  1  0  0  0  0
 14 29  1  0  0  0  0
 16 30  1  0  0  0  0
 16 31  1  0  0  0  0
 17 32  1  0  0  0  0
M  END
> <compound>
ANN-UNI-98d2bf15-3

> <compound_smiles>
c1cc(cc(c1)Cl)CC(=O)Nc2cnccc2C(=O)N

> <enantiomer_smiles>
c1cc(cc(c1)Cl)CC(=O)Nc2cnccc2C(=O)N

> <scaffold>
chlorobenzene-linker

> <canonical_CID>
ANN-UNI-98d2bf15-3

> <r_inhibition_at_20_uM>

> <r_inhibition_at_50_uM>

> <r_avg_IC50>

> <f_inhibition_at_20_uM>

> <f_inhibition_at_50_uM>

> <f_avg_IC50>
99.5

> <f_avg_pIC50>

> <relative_solubility_at_20_uM>

> <relative_solubility_at_100_uM>

> <trypsin_IC50>

> <NMR_std_ratio>

> <acrylamide>
False

> <chloroacetamide>
False

> <series>
3-aminopyridine-like

> <frag_id>

> <clash_score>
0.700505258690793

> <docking_score>
-8.434250831604004

> <overlap_score>
0.8766795992851257

> <MMFF_internal_energy>
48.97230686086058

> <docked_smiles>
c1cc(cc(c1)Cl)CC(=O)Nc2cnccc2C(=O)N

$$$$
MAK-UNK-f203cb68-22_2
  -OEChem-07262101013D

 50 52  0     1  0  0  0  0  0999 V2000
   11.9780    0.4600   23.9150 C   0  0  0  0  0  0  0  0  0  0  0  0
   10.6560    0.0720   23.7350 C   0  0  0  0  0  0  0  0  0  0  0  0
   12.9840   -0.1200   23.1530 C   0  0  0  0  0  0  0  0  0  0  0  0
   -0.7081    2.5602   20.7549 C   0  0  0  0  0  0  0  0  0  0  0  0
   11.3360   -1.5050   22.0650 C   0  0  0  0  0  0  0  0  0  0  0  0
   -0.8019    3.8445   20.2435 C   0  0  0  0  0  0  0  0  0  0  0  0
    5.3249    0.8476   17.4314 C   0  0  0  0  0  0  0  0  0  0  0  0
    1.3021    3.7297   19.3278 C   0  0  0  0  0  0  0  0  0  0  0  0
    6.9282   -0.5451   18.3078 C   0  0  0  0  0  0  0  0  0  0  0  0
    4.9115    1.2526   18.6904 C   0  0  0  0  0  0  0  0  0  0  0  0
   10.3220   -0.8940   22.7910 C   0  0  0  0  0  0  0  0  0  0  0  0
    0.4653    1.8513   20.5227 C   0  0  0  0  0  0  0  0  0  0  0  0
    5.5614    0.7114   19.7941 C   0  0  0  0  0  0  0  0  0  0  0  0
    1.4945    2.4401   19.7965 C   0  0  0  0  0  0  0  0  0  0  0  0
    6.5902   -0.2052   19.6078 C   0  0  0  0  0  0  0  0  0  0  0  0
   12.6400   -1.1000   22.2390 C   0  0  0  0  0  0  0  0  0  0  0  0
    3.8292    2.2157   18.8213 C   0  0  0  0  0  0  0  0  0  0  0  0
    8.3880   -0.3240   21.3070 C   0  0  0  0  0  0  0  0  0  0  0  0
    0.5937    0.4649   21.0630 C   0  0  0  0  0  0  0  0  0  0  0  0
    5.1544    1.1145   21.1764 C   0  0  0  0  0  0  0  0  0  0  0  0
    7.9670   -1.0352   23.6784 C   0  0  0  0  0  0  0  0  0  0  0  0
    8.8810   -1.1900   22.4510 C   0  0  2  0  0  0  0  0  0  0  0  0
    0.1765    4.4498   19.5335 N   0  0  0  0  0  0  0  0  0  0  0  0
    6.3201   -0.0404   17.2109 N   0  0  0  0  0  0  0  0  0  0  0  0
    2.7094    1.7586   19.5330 N   0  0  0  0  0  0  0  0  0  0  0  0
    7.2820   -0.7860   20.6970 N   0  0  0  0  0  0  0  0  0  0  0  0
    3.8930    3.3404   18.3063 O   0  0  0  0  0  0  0  0  0  0  0  0
    8.9170    0.7530   21.0260 O   0  0  0  0  0  0  0  0  0  0  0  0
   13.8840   -1.8490   21.2740 Cl  0  0  0  0  0  0  0  0  0  0  0  0
   12.2249    1.2198   24.6546 H   0  0  0  0  0  0  0  0  0  0  0  0
    9.8763    0.5350   24.3454 H   0  0  0  0  0  0  0  0  0  0  0  0
   14.0077    0.1988   23.2842 H   0  0  0  0  0  0  0  0  0  0  0  0
   -1.5294    2.1298   21.3177 H   0  0  0  0  0  0  0  0  0  0  0  0
   11.0892   -2.3009   21.3624 H   0  0  0  0  0  0  0  0  0  0  0  0
   -1.6962    4.4395   20.3971 H   0  0  0  0  0  0  0  0  0  0  0  0
    4.8565    1.2341   16.5310 H   0  0  0  0  0  0  0  0  0  0  0  0
    2.0684    4.2429   18.7543 H   0  0  0  0  0  0  0  0  0  0  0  0
    7.7226   -1.2551   18.0975 H   0  0  0  0  0  0  0  0  0  0  0  0
    0.2271   -0.2636   20.3306 H   0  0  0  0  0  0  0  0  0  0  0  0
    1.6379    0.2270   21.3002 H   0  0  0  0  0  0  0  0  0  0  0  0
    0.0206    0.3466   21.9910 H   0  0  0  0  0  0  0  0  0  0  0  0
    4.3705    0.4463   21.5486 H   0  0  0  0  0  0  0  0  0  0  0  0
    6.0063    1.0751   21.8647 H   0  0  0  0  0  0  0  0  0  0  0  0
    4.7764    2.1432   21.1911 H   0  0  0  0  0  0  0  0  0  0  0  0
    8.0088   -0.0193   24.0871 H   0  0  0  0  0  0  0  0  0  0  0  0
    6.9216   -1.2406   23.4222 H   0  0  0  0  0  0  0  0  0  0  0  0
    8.2585   -1.7315   24.4726 H   0  0  0  0  0  0  0  0  0  0  0  0
    8.7806   -2.2413   22.1242 H   0  0  0  0  0  0  0  0  0  0  0  0
    2.7784    0.8159   19.9084 H   0  0  0  0  0  0  0  0  0  0  0  0
    6.8824   -1.6524   21.0513 H   0  0  0  0  0  0  0  0  0  0  0  0
  1  2  2  0  0  0  0
  1  3  1  0  0  0  0
  2 11  1  0  0  0  0
  3 16  2  0  0  0  0
  4  6  2  0  0  0  0
  4 12  1  0  0  0  0
  5 11  2  0  0  0  0
  5 16  1  0  0  0  0
  6 23  1  0  0  0  0
  7 10  1  0  0  0  0
  7 24  2  0  0  0  0
  8 14  1  0  0  0  0
  8 23  2  0  0  0  0
  9 15  2  0  0  0  0
  9 24  1  0  0  0  0
 10 13  2  0  0  0  0
 10 17  1  0  0  0  0
 11 22  1  0  0  0  0
 12 14  2  0  0  0  0
 12 19  1  0  0  0  0
 13 15  1  0  0  0  0
 13 20  1  0  0  0  0
 14 25  1  0  0  0  0
 15 26  1  0  0  0  0
 16 29  1  0  0  0  0
 17 25  1  0  0  0  0
 17 27  2  0  0  0  0
 18 22  1  0  0  0  0
 18 26  1  0  0  0  0
 18 28  2  0  0  0  0
 21 22  1  6  0  0  0
  1 30  1  0  0  0  0
  2 31  1  0  0  0  0
  3 32  1  0  0  0  0
  4 33  1  0  0  0  0
  5 34  1  0  0  0  0
  6 35  1  0  0  0  0
  7 36  1  0  0  0  0
  8 37  1  0  0  0  0
  9 38  1  0  0  0  0
 19 39  1  0  0  0  0
 19 40  1  0  0  0  0
 19 41  1  0  0  0  0
 20 42  1  0  0  0  0
 20 43  1  0  0  0  0
 20 44  1  0  0  0  0
 21 45  1  0  0  0  0
 21 46  1  0  0  0  0
 21 47  1  0  0  0  0
 22 48  1  0  0  0  0
 25 49  1  0  0  0  0
 26 50  1  0  0  0  0
M  END
> <compound>
MAK-UNK-f203cb68-22

> <compound_smiles>
Cc1ccncc1NC(=O)c2cncc(c2C)NC(=O)C(C)c3cccc(c3)Cl

> <enantiomer_smiles>
Cc1ccncc1NC(=O)c2cncc(c2C)NC(=O)[C@H](C)c3cccc(c3)Cl

> <scaffold>
chlorobenzene-linker

> <clash_score>
0

> <docking_score>
-8.16964340209961

> <overlap_score>
0.9408955574035645

> <MMFF_internal_energy>
122.93298572904902

> <docked_smiles>
Cc1ccncc1NC(=O)c2cncc(c2C)NC(=O)[C@H](C)c3cccc(c3)Cl

$$$$
BAR-COM-0f94fc3d-38_1
  -OEChem-07262101013D

 38 39  0     1  0  0  0  0  0999 V2000
   11.9780    0.4600   23.9150 C   0  0  0  0  0  0  0  0  0  0  0  0
   10.6560    0.0720   23.7350 C   0  0  0  0  0  0  0  0  0  0  0  0
   12.9840   -0.1200   23.1530 C   0  0  0  0  0  0  0  0  0  0  0  0
    4.6181    0.7449   18.6093 C   0  0  0  0  0  0  0  0  0  0  0  0
   11.3360   -1.5050   22.0650 C   0  0  0  0  0  0  0  0  0  0  0  0
    5.3493    0.8990   17.4425 C   0  0  0  0  0  0  0  0  0  0  0  0
    7.2313   -0.0104   18.3961 C   0  0  0  0  0  0  0  0  0  0  0  0
   10.3220   -0.8940   22.7910 C   0  0  0  0  0  0  0  0  0  0  0  0
    5.2568    0.1806   19.7079 C   0  0  0  0  0  0  0  0  0  0  0  0
    6.5883   -0.2069   19.6076 C   0  0  0  0  0  0  0  0  0  0  0  0
   12.6400   -1.1000   22.2390 C   0  0  0  0  0  0  0  0  0  0  0  0
    8.3880   -0.3240   21.3070 C   0  0  0  0  0  0  0  0  0  0  0  0
    4.4924    0.0033   20.9787 C   0  0  0  0  0  0  0  0  0  0  0  0
    8.7971   -3.6431   23.3336 C   0  0  0  0  0  0  0  0  0  0  0  0
    8.5251   -2.6905   22.1715 C   0  0  0  0  0  0  0  0  0  0  0  0
    8.8810   -1.1900   22.4510 C   0  0  1  0  0  0  0  0  0  0  0  0
    6.6441    0.5346   17.3071 N   0  0  0  0  0  0  0  0  0  0  0  0
    7.2820   -0.7860   20.6970 N   0  0  0  0  0  0  0  0  0  0  0  0
    8.9170    0.7530   21.0260 O   0  0  0  0  0  0  0  0  0  0  0  0
    8.0840   -0.8164   23.6008 O   0  0  0  0  0  0  0  0  0  0  0  0
   13.8840   -1.8490   21.2740 Cl  0  0  0  0  0  0  0  0  0  0  0  0
   12.2249    1.2198   24.6546 H   0  0  0  0  0  0  0  0  0  0  0  0
    9.8763    0.5350   24.3454 H   0  0  0  0  0  0  0  0  0  0  0  0
   14.0077    0.1988   23.2842 H   0  0  0  0  0  0  0  0  0  0  0  0
    3.5805    1.0579   18.6548 H   0  0  0  0  0  0  0  0  0  0  0  0
   11.0892   -2.3009   21.3624 H   0  0  0  0  0  0  0  0  0  0  0  0
    4.8973    1.3341   16.5573 H   0  0  0  0  0  0  0  0  0  0  0  0
    8.2705   -0.2928   18.2555 H   0  0  0  0  0  0  0  0  0  0  0  0
    4.0022   -0.9771   20.9935 H   0  0  0  0  0  0  0  0  0  0  0  0
    5.1524    0.0774   21.8518 H   0  0  0  0  0  0  0  0  0  0  0  0
    3.7254    0.7796   21.0914 H   0  0  0  0  0  0  0  0  0  0  0  0
    9.8523   -3.6303   23.6231 H   0  0  0  0  0  0  0  0  0  0  0  0
    8.2119   -3.3387   24.2077 H   0  0  0  0  0  0  0  0  0  0  0  0
    8.5200   -4.6722   23.0900 H   0  0  0  0  0  0  0  0  0  0  0  0
    7.4523   -2.7624   21.9443 H   0  0  0  0  0  0  0  0  0  0  0  0
    9.0404   -3.0594   21.2778 H   0  0  0  0  0  0  0  0  0  0  0  0
    6.8986   -1.6544   21.0618 H   0  0  0  0  0  0  0  0  0  0  0  0
    8.2322    0.1324   23.7123 H   0  0  0  0  0  0  0  0  0  0  0  0
  1  2  2  0  0  0  0
  1  3  1  0  0  0  0
  2  8  1  0  0  0  0
  3 11  2  0  0  0  0
  4  6  2  0  0  0  0
  4  9  1  0  0  0  0
  5  8  2  0  0  0  0
  5 11  1  0  0  0  0
  6 17  1  0  0  0  0
  7 10  1  0  0  0  0
  7 17  2  0  0  0  0
  8 16  1  0  0  0  0
  9 10  2  0  0  0  0
  9 13  1  0  0  0  0
 10 18  1  0  0  0  0
 11 21  1  0  0  0  0
 12 16  1  0  0  0  0
 12 18  1  0  0  0  0
 12 19  2  0  0  0  0
 14 15  1  0  0  0  0
 15 16  1  0  0  0  0
 16 20  1  6  0  0  0
  1 22  1  0  0  0  0
  2 23  1  0  0  0  0
  3 24  1  0  0  0  0
  4 25  1  0  0  0  0
  5 26  1  0  0  0  0
  6 27  1  0  0  0  0
  7 28  1  0  0  0  0
 13 29  1  0  0  0  0
 13 30  1  0  0  0  0
 13 31  1  0  0  0  0
 14 32  1  0  0  0  0
 14 33  1  0  0  0  0
 14 34  1  0  0  0  0
 15 35  1  0  0  0  0
 15 36  1  0  0  0  0
 18 37  1  0  0  0  0
 20 38  1  0  0  0  0
M  END
> <compound>
BAR-COM-0f94fc3d-38

> <compound_smiles>
CCC(c1cccc(c1)Cl)(C(=O)Nc2cnccc2C)O

> <enantiomer_smiles>
CC[C@@](c1cccc(c1)Cl)(C(=O)Nc2cnccc2C)O

> <scaffold>
chlorobenzene-linker

> <clash_score>
0

> <docking_score>
-8.34021282196045

> <overlap_score>
0.8559613227844238

> <MMFF_internal_energy>
124.77336540252604

> <docked_smiles>
CC[C@@](c1cccc(c1)Cl)(C(=O)Nc2cnccc2C)O

$$$$
MAK-UNK-f203cb68-22_1
  -OEChem-07262101013D

 50 52  0     1  0  0  0  0  0999 V2000
   11.9780    0.4600   23.9150 C   0  0  0  0  0  0  0  0  0  0  0  0
   10.6560    0.0720   23.7350 C   0  0  0  0  0  0  0  0  0  0  0  0
   12.9840   -0.1200   23.1530 C   0  0  0  0  0  0  0  0  0  0  0  0
   -0.7081    2.5602   20.7549 C   0  0  0  0  0  0  0  0  0  0  0  0
   11.3360   -1.5050   22.0650 C   0  0  0  0  0  0  0  0  0  0  0  0
   -0.8019    3.8445   20.2436 C   0  0  0  0  0  0  0  0  0  0  0  0
    5.3249    0.8476   17.4314 C   0  0  0  0  0  0  0  0  0  0  0  0
    1.3021    3.7297   19.3279 C   0  0  0  0  0  0  0  0  0  0  0  0
    6.9282   -0.5451   18.3078 C   0  0  0  0  0  0  0  0  0  0  0  0
    4.9115    1.2526   18.6904 C   0  0  0  0  0  0  0  0  0  0  0  0
   10.3220   -0.8940   22.7910 C   0  0  0  0  0  0  0  0  0  0  0  0
    0.4653    1.8513   20.5227 C   0  0  0  0  0  0  0  0  0  0  0  0
    5.5614    0.7114   19.7941 C   0  0  0  0  0  0  0  0  0  0  0  0
    1.4945    2.4401   19.7965 C   0  0  0  0  0  0  0  0  0  0  0  0
    6.5902   -0.2052   19.6078 C   0  0  0  0  0  0  0  0  0  0  0  0
   12.6400   -1.1000   22.2390 C   0  0  0  0  0  0  0  0  0  0  0  0
    3.8292    2.2157   18.8213 C   0  0  0  0  0  0  0  0  0  0  0  0
    8.3880   -0.3240   21.3070 C   0  0  0  0  0  0  0  0  0  0  0  0
    0.5937    0.4648   21.0630 C   0  0  0  0  0  0  0  0  0  0  0  0
    5.1544    1.1144   21.1764 C   0  0  0  0  0  0  0  0  0  0  0  0
    8.6719   -2.6843   22.1478 C   0  0  0  0  0  0  0  0  0  0  0  0
    8.8810   -1.1900   22.4510 C   0  0  1  0  0  0  0  0  0  0  0  0
    0.1764    4.4497   19.5335 N   0  0  0  0  0  0  0  0  0  0  0  0
    6.3201   -0.0404   17.2109 N   0  0  0  0  0  0  0  0  0  0  0  0
    2.7094    1.7586   19.5330 N   0  0  0  0  0  0  0  0  0  0  0  0
    7.2820   -0.7860   20.6970 N   0  0  0  0  0  0  0  0  0  0  0  0
    3.8930    3.3404   18.3063 O   0  0  0  0  0  0  0  0  0  0  0  0
    8.9170    0.7530   21.0260 O   0  0  0  0  0  0  0  0  0  0  0  0
   13.8840   -1.8490   21.2740 Cl  0  0  0  0  0  0  0  0  0  0  0  0
   12.2249    1.2198   24.6546 H   0  0  0  0  0  0  0  0  0  0  0  0
    9.8763    0.5350   24.3454 H   0  0  0  0  0  0  0  0  0  0  0  0
   14.0077    0.1988   23.2842 H   0  0  0  0  0  0  0  0  0  0  0  0
   -1.5294    2.1298   21.3177 H   0  0  0  0  0  0  0  0  0  0  0  0
   11.0892   -2.3009   21.3624 H   0  0  0  0  0  0  0  0  0  0  0  0
   -1.6962    4.4395   20.3972 H   0  0  0  0  0  0  0  0  0  0  0  0
    4.8565    1.2341   16.5310 H   0  0  0  0  0  0  0  0  0  0  0  0
    2.0684    4.2428   18.7544 H   0  0  0  0  0  0  0  0  0  0  0  0
    7.7226   -1.2551   18.0975 H   0  0  0  0  0  0  0  0  0  0  0  0
    0.2271   -0.2636   20.3306 H   0  0  0  0  0  0  0  0  0  0  0  0
    1.6380    0.2270   21.3002 H   0  0  0  0  0  0  0  0  0  0  0  0
    0.0206    0.3465   21.9910 H   0  0  0  0  0  0  0  0  0  0  0  0
    4.3705    0.4463   21.5486 H   0  0  0  0  0  0  0  0  0  0  0  0
    6.0063    1.0751   21.8647 H   0  0  0  0  0  0  0  0  0  0  0  0
    4.7764    2.1432   21.1911 H   0  0  0  0  0  0  0  0  0  0  0  0
    9.2843   -3.0131   21.3007 H   0  0  0  0  0  0  0  0  0  0  0  0
    8.9296   -3.3200   23.0024 H   0  0  0  0  0  0  0  0  0  0  0  0
    7.6214   -2.8709   21.8984 H   0  0  0  0  0  0  0  0  0  0  0  0
    8.2360   -0.9649   23.3210 H   0  0  0  0  0  0  0  0  0  0  0  0
    2.7784    0.8159   19.9085 H   0  0  0  0  0  0  0  0  0  0  0  0
    6.8824   -1.6524   21.0513 H   0  0  0  0  0  0  0  0  0  0  0  0
  1  2  2  0  0  0  0
  1  3  1  0  0  0  0
  2 11  1  0  0  0  0
  3 16  2  0  0  0  0
  4  6  2  0  0  0  0
  4 12  1  0  0  0  0
  5 11  2  0  0  0  0
  5 16  1  0  0  0  0
  6 23  1  0  0  0  0
  7 10  1  0  0  0  0
  7 24  2  0  0  0  0
  8 14  1  0  0  0  0
  8 23  2  0  0  0  0
  9 15  2  0  0  0  0
  9 24  1  0  0  0  0
 10 13  2  0  0  0  0
 10 17  1  0  0  0  0
 11 22  1  0  0  0  0
 12 14  2  0  0  0  0
 12 19  1  0  0  0  0
 13 15  1  0  0  0  0
 13 20  1  0  0  0  0
 14 25  1  0  0  0  0
 15 26  1  0  0  0  0
 16 29  1  0  0  0  0
 17 25  1  0  0  0  0
 17 27  2  0  0  0  0
 18 22  1  0  0  0  0
 18 26  1  0  0  0  0
 18 28  2  0  0  0  0
 21 22  1  1  0  0  0
  1 30  1  0  0  0  0
  2 31  1  0  0  0  0
  3 32  1  0  0  0  0
  4 33  1  0  0  0  0
  5 34  1  0  0  0  0
  6 35  1  0  0  0  0
  7 36  1  0  0  0  0
  8 37  1  0  0  0  0
  9 38  1  0  0  0  0
 19 39  1  0  0  0  0
 19 40  1  0  0  0  0
 19 41  1  0  0  0  0
 20 42  1  0  0  0  0
 20 43  1  0  0  0  0
 20 44  1  0  0  0  0
 21 45  1  0  0  0  0
 21 46  1  0  0  0  0
 21 47  1  0  0  0  0
 22 48  1  0  0  0  0
 25 49  1  0  0  0  0
 26 50  1  0  0  0  0
M  END
> <compound>
MAK-UNK-f203cb68-22

> <compound_smiles>
Cc1ccncc1NC(=O)c2cncc(c2C)NC(=O)C(C)c3cccc(c3)Cl

> <enantiomer_smiles>
Cc1ccncc1NC(=O)c2cncc(c2C)NC(=O)[C@@H](C)c3cccc(c3)Cl

> <scaffold>
chlorobenzene-linker

> <clash_score>
0

> <docking_score>
-7.91810417175293

> <overlap_score>
0.9411690831184387

> <MMFF_internal_energy>
128.48424243339767

> <docked_smiles>
Cc1ccncc1NC(=O)c2cncc(c2C)NC(=O)[C@@H](C)c3cccc(c3)Cl

$$$$
SAM-UNK-2684b532-1_1
  -OEChem-07262101013D

 41 43  0     1  0  0  0  0  0999 V2000
    8.0221   -5.3620   21.9483 C   0  0  0  0  0  0  0  0  0  0  0  0
    8.0993   -4.8138   23.2286 C   0  0  0  0  0  0  0  0  0  0  0  0
    8.2227   -4.5529   20.8299 C   0  0  0  0  0  0  0  0  0  0  0  0
   11.9780    0.4600   23.9150 C   0  0  0  0  0  0  0  0  0  0  0  0
    8.3771   -3.4565   23.3905 C   0  0  0  0  0  0  0  0  0  0  0  0
    8.5005   -3.1956   20.9918 C   0  0  0  0  0  0  0  0  0  0  0  0
   10.6560    0.0720   23.7350 C   0  0  0  0  0  0  0  0  0  0  0  0
   12.9840   -0.1200   23.1530 C   0  0  0  0  0  0  0  0  0  0  0  0
    4.6246    0.7594   18.6119 C   0  0  0  0  0  0  0  0  0  0  0  0
   11.3360   -1.5050   22.0650 C   0  0  0  0  0  0  0  0  0  0  0  0
    5.3534    0.9027   17.4423 C   0  0  0  0  0  0  0  0  0  0  0  0
    7.2306   -0.0190   18.3934 C   0  0  0  0  0  0  0  0  0  0  0  0
    8.5777   -2.6473   22.2721 C   0  0  0  0  0  0  0  0  0  0  0  0
   10.3220   -0.8940   22.7910 C   0  0  0  0  0  0  0  0  0  0  0  0
    5.2620    0.1939   19.7107 C   0  0  0  0  0  0  0  0  0  0  0  0
    6.5899   -0.2054   19.6077 C   0  0  0  0  0  0  0  0  0  0  0  0
   12.6400   -1.1000   22.2390 C   0  0  0  0  0  0  0  0  0  0  0  0
    8.3880   -0.3240   21.3070 C   0  0  0  0  0  0  0  0  0  0  0  0
    4.5002    0.0281   20.9846 C   0  0  0  0  0  0  0  0  0  0  0  0
    8.8810   -1.1900   22.4510 C   0  0  1  0  0  0  0  0  0  0  0  0
    6.6446    0.5267   17.3042 N   0  0  0  0  0  0  0  0  0  0  0  0
    7.2820   -0.7860   20.6970 N   0  0  0  0  0  0  0  0  0  0  0  0
    8.9170    0.7530   21.0260 O   0  0  0  0  0  0  0  0  0  0  0  0
   13.8840   -1.8490   21.2740 Cl  0  0  0  0  0  0  0  0  0  0  0  0
    7.8071   -6.4191   21.8225 H   0  0  0  0  0  0  0  0  0  0  0  0
    7.9442   -5.4438   24.0996 H   0  0  0  0  0  0  0  0  0  0  0  0
    8.1637   -4.9796   19.8330 H   0  0  0  0  0  0  0  0  0  0  0  0
   12.2249    1.2198   24.6546 H   0  0  0  0  0  0  0  0  0  0  0  0
    8.4352   -3.0380   24.3918 H   0  0  0  0  0  0  0  0  0  0  0  0
    8.6552   -2.5728   20.1146 H   0  0  0  0  0  0  0  0  0  0  0  0
    9.8763    0.5350   24.3454 H   0  0  0  0  0  0  0  0  0  0  0  0
   14.0077    0.1988   23.2842 H   0  0  0  0  0  0  0  0  0  0  0  0
    3.5899    1.0814   18.6595 H   0  0  0  0  0  0  0  0  0  0  0  0
   11.0892   -2.3009   21.3624 H   0  0  0  0  0  0  0  0  0  0  0  0
    4.9023    1.3382   16.5567 H   0  0  0  0  0  0  0  0  0  0  0  0
    8.2669   -0.3108   18.2506 H   0  0  0  0  0  0  0  0  0  0  0  0
    4.0018   -0.9480   21.0048 H   0  0  0  0  0  0  0  0  0  0  0  0
    5.1636    0.0999   21.8553 H   0  0  0  0  0  0  0  0  0  0  0  0
    3.7403    0.8113   21.0967 H   0  0  0  0  0  0  0  0  0  0  0  0
    8.3000   -0.8300   23.3334 H   0  0  0  0  0  0  0  0  0  0  0  0
    6.8785   -1.6495   21.0540 H   0  0  0  0  0  0  0  0  0  0  0  0
  1  2  1  0  0  0  0
  1  3  2  0  0  0  0
  2  5  2  0  0  0  0
  3  6  1  0  0  0  0
  4  7  2  0  0  0  0
  4  8  1  0  0  0  0
  5 13  1  0  0  0  0
  6 13  2  0  0  0  0
  7 14  1  0  0  0  0
  8 17  2  0  0  0  0
  9 11  2  0  0  0  0
  9 15  1  0  0  0  0
 10 14  2  0  0  0  0
 10 17  1  0  0  0  0
 11 21  1  0  0  0  0
 12 16  1  0  0  0  0
 12 21  2  0  0  0  0
 13 20  1  0  0  0  0
 14 20  1  0  0  0  0
 15 16  2  0  0  0  0
 15 19  1  0  0  0  0
 16 22  1  0  0  0  0
 17 24  1  0  0  0  0
 18 20  1  1  0  0  0
 18 22  1  0  0  0  0
 18 23  2  0  0  0  0
  1 25  1  0  0  0  0
  2 26  1  0  0  0  0
  3 27  1  0  0  0  0
  4 28  1  0  0  0  0
  5 29  1  0  0  0  0
  6 30  1  0  0  0  0
  7 31  1  0  0  0  0
  8 32  1  0  0  0  0
  9 33  1  0  0  0  0
 10 34  1  0  0  0  0
 11 35  1  0  0  0  0
 12 36  1  0  0  0  0
 19 37  1  0  0  0  0
 19 38  1  0  0  0  0
 19 39  1  0  0  0  0
 20 40  1  0  0  0  0
 22 41  1  0  0  0  0
M  END
> <compound>
SAM-UNK-2684b532-1

> <compound_smiles>
Cc1ccncc1NC(=O)C(c2ccccc2)c3cccc(c3)Cl

> <enantiomer_smiles>
Cc1ccncc1NC(=O)[C@@H](c2ccccc2)c3cccc(c3)Cl

> <scaffold>
chlorobenzene-linker

> <clash_score>
0.6357058337952456

> <docking_score>
-6.354401588439941

> <overlap_score>
0.8405711054801941

> <MMFF_internal_energy>
127.57713435827334

> <docked_smiles>
Cc1ccncc1NC(=O)[C@@H](c2ccccc2)c3cccc(c3)Cl

$$$$
MAK-UNK-6ca90168-24_1
  -OEChem-07262101013D

 30 31  0     0  0  0  0  0  0999 V2000
   11.9780    0.4600   23.9150 C   0  0  0  0  0  0  0  0  0  0  0  0
   10.6560    0.0720   23.7350 C   0  0  0  0  0  0  0  0  0  0  0  0
   12.9840   -0.1200   23.1530 C   0  0  0  0  0  0  0  0  0  0  0  0
    4.9409    1.2866   18.6942 C   0  0  0  0  0  0  0  0  0  0  0  0
   11.3360   -1.5050   22.0650 C   0  0  0  0  0  0  0  0  0  0  0  0
    5.3571    0.8880   17.4341 C   0  0  0  0  0  0  0  0  0  0  0  0
    6.9437   -0.5256   18.3075 C   0  0  0  0  0  0  0  0  0  0  0  0
   10.3220   -0.8940   22.7910 C   0  0  0  0  0  0  0  0  0  0  0  0
    5.5803    0.7311   19.7968 C   0  0  0  0  0  0  0  0  0  0  0  0
    6.6019   -0.1931   19.6084 C   0  0  0  0  0  0  0  0  0  0  0  0
   12.6400   -1.1000   22.2390 C   0  0  0  0  0  0  0  0  0  0  0  0
    8.8810   -1.1900   22.4510 C   0  0  0  0  0  0  0  0  0  0  0  0
    8.3880   -0.3240   21.3070 C   0  0  0  0  0  0  0  0  0  0  0  0
    5.1521    1.1434   21.1670 C   0  0  0  0  0  0  0  0  0  0  0  0
    6.3456   -0.0070   17.2116 N   0  0  0  0  0  0  0  0  0  0  0  0
    7.2820   -0.7860   20.6970 N   0  0  0  0  0  0  0  0  0  0  0  0
    8.1777   -1.9548   22.9272 O   0  0  0  0  0  0  0  0  0  0  0  0
    8.9170    0.7530   21.0260 O   0  0  0  0  0  0  0  0  0  0  0  0
   13.8840   -1.8490   21.2740 Cl  0  0  0  0  0  0  0  0  0  0  0  0
   12.2251    1.2200   24.6542 H   0  0  0  0  0  0  0  0  0  0  0  0
    9.8786    0.5370   24.3470 H   0  0  0  0  0  0  0  0  0  0  0  0
   14.0072    0.1992   23.2843 H   0  0  0  0  0  0  0  0  0  0  0  0
    4.1406    2.0102   18.8069 H   0  0  0  0  0  0  0  0  0  0  0  0
   11.0913   -2.3015   21.3614 H   0  0  0  0  0  0  0  0  0  0  0  0
    4.8906    1.2919   16.5416 H   0  0  0  0  0  0  0  0  0  0  0  0
    7.7327   -1.2412   18.0958 H   0  0  0  0  0  0  0  0  0  0  0  0
    4.3547    0.4847   21.5300 H   0  0  0  0  0  0  0  0  0  0  0  0
    5.9899    1.1005   21.8737 H   0  0  0  0  0  0  0  0  0  0  0  0
    4.7822    2.1762   21.1725 H   0  0  0  0  0  0  0  0  0  0  0  0
    6.8791   -1.6521   21.0486 H   0  0  0  0  0  0  0  0  0  0  0  0
  1  2  2  0  0  0  0
  1  3  1  0  0  0  0
  2  8  1  0  0  0  0
  3 11  2  0  0  0  0
  4  6  2  0  0  0  0
  4  9  1  0  0  0  0
  5  8  2  0  0  0  0
  5 11  1  0  0  0  0
  6 15  1  0  0  0  0
  7 10  1  0  0  0  0
  7 15  2  0  0  0  0
  8 12  1  0  0  0  0
  9 10  2  0  0  0  0
  9 14  1  0  0  0  0
 10 16  1  0  0  0  0
 11 19  1  0  0  0  0
 12 13  1  0  0  0  0
 12 17  2  0  0  0  0
 13 16  1  0  0  0  0
 13 18  2  0  0  0  0
  1 20  1  0  0  0  0
  2 21  1  0  0  0  0
  3 22  1  0  0  0  0
  4 23  1  0  0  0  0
  5 24  1  0  0  0  0
  6 25  1  0  0  0  0
  7 26  1  0  0  0  0
 14 27  1  0  0  0  0
 14 28  1  0  0  0  0
 14 29  1  0  0  0  0
 16 30  1  0  0  0  0
M  END
> <compound>
MAK-UNK-6ca90168-24

> <compound_smiles>
Cc1ccncc1NC(=O)C(=O)c2cccc(c2)Cl

> <enantiomer_smiles>
Cc1ccncc1NC(=O)C(=O)c2cccc(c2)Cl

> <scaffold>
chlorobenzene-linker

> <clash_score>
0

> <docking_score>
-10.806479454040527

> <overlap_score>
0.8741574883460999

> <MMFF_internal_energy>
116.27801533829785

> <docked_smiles>
Cc1ccncc1NC(=O)C(=O)c2cccc(c2)Cl

$$$$
MAK-UNK-f203cb68-21_1
  -OEChem-07262101013D

 50 52  0     1  0  0  0  0  0999 V2000
   11.9780    0.4600   23.9150 C   0  0  0  0  0  0  0  0  0  0  0  0
   10.6560    0.0720   23.7350 C   0  0  0  0  0  0  0  0  0  0  0  0
   12.9840   -0.1200   23.1530 C   0  0  0  0  0  0  0  0  0  0  0  0
    5.9962    4.4356   12.4631 C   0  0  0  0  0  0  0  0  0  0  0  0
   11.3360   -1.5050   22.0650 C   0  0  0  0  0  0  0  0  0  0  0  0
    4.5834    0.2293   18.3554 C   0  0  0  0  0  0  0  0  0  0  0  0
    4.6629    4.4705   12.0877 C   0  0  0  0  0  0  0  0  0  0  0  0
    4.0363    3.1528   13.8623 C   0  0  0  0  0  0  0  0  0  0  0  0
    7.2761    0.5438   18.6653 C   0  0  0  0  0  0  0  0  0  0  0  0
   10.3220   -0.8940   22.7910 C   0  0  0  0  0  0  0  0  0  0  0  0
    6.3330    3.7127   13.6021 C   0  0  0  0  0  0  0  0  0  0  0  0
    5.2184   -0.3607   19.4426 C   0  0  0  0  0  0  0  0  0  0  0  0
    5.3402    3.0560   14.3207 C   0  0  0  0  0  0  0  0  0  0  0  0
    6.5902   -0.2052   19.6078 C   0  0  0  0  0  0  0  0  0  0  0  0
   12.6400   -1.1000   22.2390 C   0  0  0  0  0  0  0  0  0  0  0  0
    5.3591    0.9590   17.4690 C   0  0  0  0  0  0  0  0  0  0  0  0
    4.7485    1.5950   16.3148 C   0  0  0  0  0  0  0  0  0  0  0  0
    8.3880   -0.3240   21.3070 C   0  0  0  0  0  0  0  0  0  0  0  0
    7.7631    3.6577   14.0293 C   0  0  0  0  0  0  0  0  0  0  0  0
    4.4071   -1.1522   20.4151 C   0  0  0  0  0  0  0  0  0  0  0  0
    8.6719   -2.6843   22.1478 C   0  0  0  0  0  0  0  0  0  0  0  0
    8.8810   -1.1900   22.4510 C   0  0  1  0  0  0  0  0  0  0  0  0
    3.6707    3.8455   12.7604 N   0  0  0  0  0  0  0  0  0  0  0  0
    6.6939    1.1320   17.5964 N   0  0  0  0  0  0  0  0  0  0  0  0
    5.6329    2.3068   15.4882 N   0  0  0  0  0  0  0  0  0  0  0  0
    7.2820   -0.7860   20.6970 N   0  0  0  0  0  0  0  0  0  0  0  0
    3.5278    1.5352   16.1058 O   0  0  0  0  0  0  0  0  0  0  0  0
    8.9170    0.7530   21.0260 O   0  0  0  0  0  0  0  0  0  0  0  0
   13.8840   -1.8490   21.2740 Cl  0  0  0  0  0  0  0  0  0  0  0  0
   12.2249    1.2198   24.6546 H   0  0  0  0  0  0  0  0  0  0  0  0
    9.8763    0.5350   24.3454 H   0  0  0  0  0  0  0  0  0  0  0  0
   14.0077    0.1988   23.2842 H   0  0  0  0  0  0  0  0  0  0  0  0
    6.7466    4.9588   11.8803 H   0  0  0  0  0  0  0  0  0  0  0  0
   11.0892   -2.3009   21.3624 H   0  0  0  0  0  0  0  0  0  0  0  0
    3.5135    0.1204   18.2076 H   0  0  0  0  0  0  0  0  0  0  0  0
    4.3482    5.0203   11.2069 H   0  0  0  0  0  0  0  0  0  0  0  0
    3.2173    2.6627   14.3805 H   0  0  0  0  0  0  0  0  0  0  0  0
    8.3483    0.6998   18.7390 H   0  0  0  0  0  0  0  0  0  0  0  0
    7.9873    4.4847   14.7130 H   0  0  0  0  0  0  0  0  0  0  0  0
    7.9886    2.7125   14.5382 H   0  0  0  0  0  0  0  0  0  0  0  0
    8.4373    3.7247   13.1665 H   0  0  0  0  0  0  0  0  0  0  0  0
    4.3633   -2.2031   20.1065 H   0  0  0  0  0  0  0  0  0  0  0  0
    4.8363   -1.1015   21.4233 H   0  0  0  0  0  0  0  0  0  0  0  0
    3.3829   -0.7651   20.4843 H   0  0  0  0  0  0  0  0  0  0  0  0
    9.2843   -3.0131   21.3007 H   0  0  0  0  0  0  0  0  0  0  0  0
    8.9296   -3.3200   23.0024 H   0  0  0  0  0  0  0  0  0  0  0  0
    7.6214   -2.8709   21.8984 H   0  0  0  0  0  0  0  0  0  0  0  0
    8.2360   -0.9649   23.3210 H   0  0  0  0  0  0  0  0  0  0  0  0
    6.6117    2.2814   15.7631 H   0  0  0  0  0  0  0  0  0  0  0  0
    6.8824   -1.6524   21.0513 H   0  0  0  0  0  0  0  0  0  0  0  0
  1  2  2  0  0  0  0
  1  3  1  0  0  0  0
  2 10  1  0  0  0  0
  3 15  2  0  0  0  0
  4  7  2  0  0  0  0
  4 11  1  0  0  0  0
  5 10  2  0  0  0  0
  5 15  1  0  0  0  0
  6 12  2  0  0  0  0
  6 16  1  0  0  0  0
  7 23  1  0  0  0  0
  8 13  1  0  0  0  0
  8 23  2  0  0  0  0
  9 14  2  0  0  0  0
  9 24  1  0  0  0  0
 10 22  1  0  0  0  0
 11 13  2  0  0  0  0
 11 19  1  0  0  0  0
 12 14  1  0  0  0  0
 12 20  1  0  0  0  0
 13 25  1  0  0  0  0
 14 26  1  0  0  0  0
 15 29  1  0  0  0  0
 16 17  1  0  0  0  0
 16 24  2  0  0  0  0
 17 25  1  0  0  0  0
 17 27  2  0  0  0  0
 18 22  1  0  0  0  0
 18 26  1  0  0  0  0
 18 28  2  0  0  0  0
 21 22  1  1  0  0  0
  1 30  1  0  0  0  0
  2 31  1  0  0  0  0
  3 32  1  0  0  0  0
  4 33  1  0  0  0  0
  5 34  1  0  0  0  0
  6 35  1  0  0  0  0
  7 36  1  0  0  0  0
  8 37  1  0  0  0  0
  9 38  1  0  0  0  0
 19 39  1  0  0  0  0
 19 40  1  0  0  0  0
 19 41  1  0  0  0  0
 20 42  1  0  0  0  0
 20 43  1  0  0  0  0
 20 44  1  0  0  0  0
 21 45  1  0  0  0  0
 21 46  1  0  0  0  0
 21 47  1  0  0  0  0
 22 48  1  0  0  0  0
 25 49  1  0  0  0  0
 26 50  1  0  0  0  0
M  END
> <compound>
MAK-UNK-f203cb68-21

> <compound_smiles>
Cc1ccncc1NC(=O)c2cc(c(cn2)NC(=O)C(C)c3cccc(c3)Cl)C

> <enantiomer_smiles>
Cc1ccncc1NC(=O)c2cc(c(cn2)NC(=O)[C@@H](C)c3cccc(c3)Cl)C

> <scaffold>
chlorobenzene-linker

> <clash_score>
17.27752570193339

> <docking_score>
3.4028234663852886e+38

> <overlap_score>
0.7855606079101562

> <MMFF_internal_energy>
128.90945114507565

> <docked_smiles>
Cc1ccncc1NC(=O)c2cc(c(cn2)NC(=O)[C@@H](C)c3cccc(c3)Cl)C

$$$$
MAK-UNK-6ca90168-23_1
  -OEChem-07262101013D

 29 30  0     0  0  0  0  0  0999 V2000
    4.5131    0.0242   20.9062 C   0  0  0  0  0  0  0  0  0  0  0  0
   11.9780    0.4600   23.9150 C   0  0  0  0  0  0  0  0  0  0  0  0
   10.6560    0.0720   23.7350 C   0  0  0  0  0  0  0  0  0  0  0  0
   12.9840   -0.1200   23.1530 C   0  0  0  0  0  0  0  0  0  0  0  0
    4.6336    0.7553   18.5913 C   0  0  0  0  0  0  0  0  0  0  0  0
   11.3360   -1.5050   22.0650 C   0  0  0  0  0  0  0  0  0  0  0  0
    5.3757    0.9052   17.4309 C   0  0  0  0  0  0  0  0  0  0  0  0
    7.2452   -0.0116   18.4016 C   0  0  0  0  0  0  0  0  0  0  0  0
    5.2601    0.1891   19.6959 C   0  0  0  0  0  0  0  0  0  0  0  0
   10.3220   -0.8940   22.7910 C   0  0  0  0  0  0  0  0  0  0  0  0
    6.5908   -0.2043   19.6076 C   0  0  0  0  0  0  0  0  0  0  0  0
   12.6400   -1.1000   22.2390 C   0  0  0  0  0  0  0  0  0  0  0  0
    8.3880   -0.3240   21.3070 C   0  0  0  0  0  0  0  0  0  0  0  0
    8.8810   -1.1900   22.4510 C   0  0  0  0  0  0  0  0  0  0  0  0
    3.9077   -0.1094   21.8872 N   0  0  0  0  0  0  0  0  0  0  0  0
    6.6700    0.5351   17.3071 N   0  0  0  0  0  0  0  0  0  0  0  0
    7.2820   -0.7860   20.6970 N   0  0  0  0  0  0  0  0  0  0  0  0
    8.9170    0.7530   21.0260 O   0  0  0  0  0  0  0  0  0  0  0  0
   13.8840   -1.8490   21.2740 Cl  0  0  0  0  0  0  0  0  0  0  0  0
   12.2249    1.2198   24.6546 H   0  0  0  0  0  0  0  0  0  0  0  0
    9.8763    0.5350   24.3454 H   0  0  0  0  0  0  0  0  0  0  0  0
   14.0077    0.1988   23.2842 H   0  0  0  0  0  0  0  0  0  0  0  0
    3.5967    1.0748   18.6207 H   0  0  0  0  0  0  0  0  0  0  0  0
   11.0892   -2.3009   21.3624 H   0  0  0  0  0  0  0  0  0  0  0  0
    4.9334    1.3414   16.5412 H   0  0  0  0  0  0  0  0  0  0  0  0
    8.2845   -0.2982   18.2701 H   0  0  0  0  0  0  0  0  0  0  0  0
    8.7709   -2.2387   22.1706 H   0  0  0  0  0  0  0  0  0  0  0  0
    8.2491   -1.0157   23.3232 H   0  0  0  0  0  0  0  0  0  0  0  0
    6.8973   -1.6552   21.0612 H   0  0  0  0  0  0  0  0  0  0  0  0
  1  9  1  0  0  0  0
  1 15  3  0  0  0  0
  2  3  1  0  0  0  0
  2  4  2  0  0  0  0
  3 10  2  0  0  0  0
  4 12  1  0  0  0  0
  5  7  2  0  0  0  0
  5  9  1  0  0  0  0
  6 10  1  0  0  0  0
  6 12  2  0  0  0  0
  7 16  1  0  0  0  0
  8 11  1  0  0  0  0
  8 16  2  0  0  0  0
  9 11  2  0  0  0  0
 10 14  1  0  0  0  0
 11 17  1  0  0  0  0
 12 19  1  0  0  0  0
 13 14  1  0  0  0  0
 13 17  1  0  0  0  0
 13 18  2  0  0  0  0
  2 20  1  0  0  0  0
  3 21  1  0  0  0  0
  4 22  1  0  0  0  0
  5 23  1  0  0  0  0
  6 24  1  0  0  0  0
  7 25  1  0  0  0  0
  8 26  1  0  0  0  0
 14 27  1  0  0  0  0
 14 28  1  0  0  0  0
 17 29  1  0  0  0  0
M  END
> <compound>
MAK-UNK-6ca90168-23

> <compound_smiles>
c1cc(cc(c1)Cl)CC(=O)Nc2cnccc2C#N

> <enantiomer_smiles>
c1cc(cc(c1)Cl)CC(=O)Nc2cnccc2C#N

> <scaffold>
chlorobenzene-linker

> <clash_score>
0

> <docking_score>
-8.015116691589355

> <overlap_score>
0.8495295643806458

> <MMFF_internal_energy>
69.57554580938465

> <docked_smiles>
c1cc(cc(c1)Cl)CC(=O)Nc2cnccc2C#N

$$$$
SAM-UNK-2684b532-1_2
  -OEChem-07262101013D

 41 43  0     1  0  0  0  0  0999 V2000
    6.2369   -1.2578   25.8381 C   0  0  0  0  0  0  0  0  0  0  0  0
    7.0301   -2.3673   25.5454 C   0  0  0  0  0  0  0  0  0  0  0  0
    6.3023   -0.1215   25.0318 C   0  0  0  0  0  0  0  0  0  0  0  0
   11.9780    0.4600   23.9150 C   0  0  0  0  0  0  0  0  0  0  0  0
    7.8887   -2.3404   24.4465 C   0  0  0  0  0  0  0  0  0  0  0  0
    7.1609   -0.0946   23.9328 C   0  0  0  0  0  0  0  0  0  0  0  0
   10.6560    0.0720   23.7350 C   0  0  0  0  0  0  0  0  0  0  0  0
   12.9840   -0.1200   23.1530 C   0  0  0  0  0  0  0  0  0  0  0  0
    5.3773    1.6009   18.5823 C   0  0  0  0  0  0  0  0  0  0  0  0
   11.3360   -1.5050   22.0650 C   0  0  0  0  0  0  0  0  0  0  0  0
    5.2742    0.8151   17.4459 C   0  0  0  0  0  0  0  0  0  0  0  0
    6.4324   -0.9105   18.4254 C   0  0  0  0  0  0  0  0  0  0  0  0
    7.9541   -1.2040   23.6401 C   0  0  0  0  0  0  0  0  0  0  0  0
   10.3220   -0.8940   22.7910 C   0  0  0  0  0  0  0  0  0  0  0  0
    6.0492    1.0737   19.6795 C   0  0  0  0  0  0  0  0  0  0  0  0
    6.5899   -0.2054   19.6077 C   0  0  0  0  0  0  0  0  0  0  0  0
   12.6400   -1.1000   22.2390 C   0  0  0  0  0  0  0  0  0  0  0  0
    8.3880   -0.3240   21.3070 C   0  0  0  0  0  0  0  0  0  0  0  0
    6.1758    1.8994   20.9176 C   0  0  0  0  0  0  0  0  0  0  0  0
    8.8810   -1.1900   22.4510 C   0  0  2  0  0  0  0  0  0  0  0  0
    5.7863   -0.4315   17.3387 N   0  0  0  0  0  0  0  0  0  0  0  0
    7.2820   -0.7860   20.6970 N   0  0  0  0  0  0  0  0  0  0  0  0
    8.9170    0.7530   21.0260 O   0  0  0  0  0  0  0  0  0  0  0  0
   13.8840   -1.8490   21.2740 Cl  0  0  0  0  0  0  0  0  0  0  0  0
    5.5674   -1.2794   26.6931 H   0  0  0  0  0  0  0  0  0  0  0  0
    6.9785   -3.2526   26.1725 H   0  0  0  0  0  0  0  0  0  0  0  0
    5.6841    0.7421   25.2587 H   0  0  0  0  0  0  0  0  0  0  0  0
   12.2249    1.2198   24.6546 H   0  0  0  0  0  0  0  0  0  0  0  0
    8.5031   -3.2094   24.2262 H   0  0  0  0  0  0  0  0  0  0  0  0
    7.2054    0.7952   23.3103 H   0  0  0  0  0  0  0  0  0  0  0  0
    9.8763    0.5350   24.3454 H   0  0  0  0  0  0  0  0  0  0  0  0
   14.0077    0.1988   23.2842 H   0  0  0  0  0  0  0  0  0  0  0  0
    4.9444    2.5952   18.6059 H   0  0  0  0  0  0  0  0  0  0  0  0
   11.0892   -2.3009   21.3624 H   0  0  0  0  0  0  0  0  0  0  0  0
    4.7600    1.1802   16.5629 H   0  0  0  0  0  0  0  0  0  0  0  0
    6.8316   -1.9136   18.3082 H   0  0  0  0  0  0  0  0  0  0  0  0
    5.3252    1.7169   21.5844 H   0  0  0  0  0  0  0  0  0  0  0  0
    7.1008    1.6639   21.4582 H   0  0  0  0  0  0  0  0  0  0  0  0
    6.2094    2.9695   20.6784 H   0  0  0  0  0  0  0  0  0  0  0  0
    8.8859   -2.2305   22.0326 H   0  0  0  0  0  0  0  0  0  0  0  0
    6.8785   -1.6495   21.0540 H   0  0  0  0  0  0  0  0  0  0  0  0
  1  2  1  0  0  0  0
  1  3  2  0  0  0  0
  2  5  2  0  0  0  0
  3  6  1  0  0  0  0
  4  7  2  0  0  0  0
  4  8  1  0  0  0  0
  5 13  1  0  0  0  0
  6 13  2  0  0  0  0
  7 14  1  0  0  0  0
  8 17  2  0  0  0  0
  9 11  2  0  0  0  0
  9 15  1  0  0  0  0
 10 14  2  0  0  0  0
 10 17  1  0  0  0  0
 11 21  1  0  0  0  0
 12 16  1  0  0  0  0
 12 21  2  0  0  0  0
 13 20  1  0  0  0  0
 14 20  1  0  0  0  0
 15 16  2  0  0  0  0
 15 19  1  0  0  0  0
 16 22  1  0  0  0  0
 17 24  1  0  0  0  0
 18 20  1  6  0  0  0
 18 22  1  0  0  0  0
 18 23  2  0  0  0  0
  1 25  1  0  0  0  0
  2 26  1  0  0  0  0
  3 27  1  0  0  0  0
  4 28  1  0  0  0  0
  5 29  1  0  0  0  0
  6 30  1  0  0  0  0
  7 31  1  0  0  0  0
  8 32  1  0  0  0  0
  9 33  1  0  0  0  0
 10 34  1  0  0  0  0
 11 35  1  0  0  0  0
 12 36  1  0  0  0  0
 19 37  1  0  0  0  0
 19 38  1  0  0  0  0
 19 39  1  0  0  0  0
 20 40  1  0  0  0  0
 22 41  1  0  0  0  0
M  END
> <compound>
SAM-UNK-2684b532-1

> <compound_smiles>
Cc1ccncc1NC(=O)C(c2ccccc2)c3cccc(c3)Cl

> <enantiomer_smiles>
Cc1ccncc1NC(=O)[C@H](c2ccccc2)c3cccc(c3)Cl

> <scaffold>
chlorobenzene-linker

> <clash_score>
0

> <docking_score>
-7.795350074768066

> <overlap_score>
0.8073115348815918

> <MMFF_internal_energy>
126.84308318034752

> <docked_smiles>
Cc1ccncc1NC(=O)[C@H](c2ccccc2)c3cccc(c3)Cl

$$$$
SAM-UNK-2684b532-7_1
  -OEChem-07262101013D

 31 32  0     1  0  0  0  0  0999 V2000
   11.9780    0.4600   23.9150 C   0  0  0  0  0  0  0  0  0  0  0  0
   10.6560    0.0720   23.7350 C   0  0  0  0  0  0  0  0  0  0  0  0
   12.9840   -0.1200   23.1530 C   0  0  0  0  0  0  0  0  0  0  0  0
    4.6348    0.7572   18.5904 C   0  0  0  0  0  0  0  0  0  0  0  0
   11.3360   -1.5050   22.0650 C   0  0  0  0  0  0  0  0  0  0  0  0
    5.3764    0.9018   17.4290 C   0  0  0  0  0  0  0  0  0  0  0  0
    7.2441   -0.0177   18.4007 C   0  0  0  0  0  0  0  0  0  0  0  0
   10.3220   -0.8940   22.7910 C   0  0  0  0  0  0  0  0  0  0  0  0
    6.5902   -0.2052   19.6078 C   0  0  0  0  0  0  0  0  0  0  0  0
   12.6400   -1.1000   22.2390 C   0  0  0  0  0  0  0  0  0  0  0  0
    5.2607    0.1923   19.6961 C   0  0  0  0  0  0  0  0  0  0  0  0
    8.3880   -0.3240   21.3070 C   0  0  0  0  0  0  0  0  0  0  0  0
    8.6719   -2.6843   22.1478 C   0  0  0  0  0  0  0  0  0  0  0  0
    8.8810   -1.1900   22.4510 C   0  0  1  0  0  0  0  0  0  0  0  0
    6.6696    0.5276   17.3052 N   0  0  0  0  0  0  0  0  0  0  0  0
    7.2820   -0.7860   20.6970 N   0  0  0  0  0  0  0  0  0  0  0  0
    8.9170    0.7530   21.0260 O   0  0  0  0  0  0  0  0  0  0  0  0
   13.8840   -1.8490   21.2740 Cl  0  0  0  0  0  0  0  0  0  0  0  0
    4.3559    0.0023   21.1536 Cl  0  0  0  0  0  0  0  0  0  0  0  0
   12.2249    1.2198   24.6546 H   0  0  0  0  0  0  0  0  0  0  0  0
    9.8763    0.5350   24.3454 H   0  0  0  0  0  0  0  0  0  0  0  0
   14.0077    0.1988   23.2842 H   0  0  0  0  0  0  0  0  0  0  0  0
    3.5993    1.0795   18.6200 H   0  0  0  0  0  0  0  0  0  0  0  0
   11.0892   -2.3009   21.3624 H   0  0  0  0  0  0  0  0  0  0  0  0
    4.9344    1.3361   16.5381 H   0  0  0  0  0  0  0  0  0  0  0  0
    8.2822   -0.3080   18.2693 H   0  0  0  0  0  0  0  0  0  0  0  0
    9.2843   -3.0131   21.3007 H   0  0  0  0  0  0  0  0  0  0  0  0
    8.9296   -3.3200   23.0024 H   0  0  0  0  0  0  0  0  0  0  0  0
    7.6214   -2.8709   21.8984 H   0  0  0  0  0  0  0  0  0  0  0  0
    8.2360   -0.9649   23.3210 H   0  0  0  0  0  0  0  0  0  0  0  0
    6.8824   -1.6524   21.0513 H   0  0  0  0  0  0  0  0  0  0  0  0
  1  2  2  0  0  0  0
  1  3  1  0  0  0  0
  2  8  1  0  0  0  0
  3 10  2  0  0  0  0
  4  6  2  0  0  0  0
  4 11  1  0  0  0  0
  5  8  2  0  0  0  0
  5 10  1  0  0  0  0
  6 15  1  0  0  0  0
  7  9  1  0  0  0  0
  7 15  2  0  0  0  0
  8 14  1  0  0  0  0
  9 11  2  0  0  0  0
  9 16  1  0  0  0  0
 10 18  1  0  0  0  0
 11 19  1  0  0  0  0
 12 14  1  0  0  0  0
 12 16  1  0  0  0  0
 12 17  2  0  0  0  0
 13 14  1  1  0  0  0
  1 20  1  0  0  0  0
  2 21  1  0  0  0  0
  3 22  1  0  0  0  0
  4 23  1  0  0  0  0
  5 24  1  0  0  0  0
  6 25  1  0  0  0  0
  7 26  1  0  0  0  0
 13 27  1  0  0  0  0
 13 28  1  0  0  0  0
 13 29  1  0  0  0  0
 14 30  1  0  0  0  0
 16 31  1  0  0  0  0
M  END
> <compound>
SAM-UNK-2684b532-7

> <compound_smiles>
CC(c1cccc(c1)Cl)C(=O)Nc2cnccc2Cl

> <enantiomer_smiles>
C[C@@H](c1cccc(c1)Cl)C(=O)Nc2cnccc2Cl

> <scaffold>
chlorobenzene-linker

> <clash_score>
0

> <docking_score>
-8.72964859008789

> <overlap_score>
0.8411226272583008

> <MMFF_internal_energy>
76.150127936789

> <docked_smiles>
C[C@@H](c1cccc(c1)Cl)C(=O)Nc2cnccc2Cl

$$$$
SAD-SAT-1b030f84-3_1
  -OEChem-07262101013D

 32 33  0     0  0  0  0  0  0999 V2000
   11.9780    0.4600   23.9150 C   0  0  0  0  0  0  0  0  0  0  0  0
   10.6560    0.0720   23.7350 C   0  0  0  0  0  0  0  0  0  0  0  0
   12.9840   -0.1200   23.1530 C   0  0  0  0  0  0  0  0  0  0  0  0
    4.9445    1.2836   18.6827 C   0  0  0  0  0  0  0  0  0  0  0  0
   11.3360   -1.5050   22.0650 C   0  0  0  0  0  0  0  0  0  0  0  0
    5.3656    0.8807   17.4257 C   0  0  0  0  0  0  0  0  0  0  0  0
    6.9486   -0.5300   18.3099 C   0  0  0  0  0  0  0  0  0  0  0  0
   10.3220   -0.8940   22.7910 C   0  0  0  0  0  0  0  0  0  0  0  0
    6.6019   -0.1931   19.6084 C   0  0  0  0  0  0  0  0  0  0  0  0
    5.5796    0.7318   19.7897 C   0  0  0  0  0  0  0  0  0  0  0  0
   12.6400   -1.1000   22.2390 C   0  0  0  0  0  0  0  0  0  0  0  0
    8.8810   -1.1900   22.4510 C   0  0  0  0  0  0  0  0  0  0  0  0
    8.3880   -0.3240   21.3070 C   0  0  0  0  0  0  0  0  0  0  0  0
    6.3548   -0.0151   17.2100 N   0  0  0  0  0  0  0  0  0  0  0  0
    6.0955    2.5605   21.6591 N   0  0  0  0  0  0  0  0  0  0  0  0
    7.2820   -0.7860   20.6970 N   0  0  0  0  0  0  0  0  0  0  0  0
    8.1777   -1.9548   22.9272 O   0  0  0  0  0  0  0  0  0  0  0  0
    8.9170    0.7530   21.0260 O   0  0  0  0  0  0  0  0  0  0  0  0
    3.6932    1.6965   21.3011 O   0  0  0  0  0  0  0  0  0  0  0  0
    5.4131    0.1678   22.3272 O   0  0  0  0  0  0  0  0  0  0  0  0
    5.0666    1.2244   21.3888 S   0  0  0  0  0  0  0  0  0  0  0  0
   13.8840   -1.8490   21.2740 Cl  0  0  0  0  0  0  0  0  0  0  0  0
   12.2251    1.2200   24.6542 H   0  0  0  0  0  0  0  0  0  0  0  0
    9.8786    0.5370   24.3470 H   0  0  0  0  0  0  0  0  0  0  0  0
   14.0072    0.1992   23.2843 H   0  0  0  0  0  0  0  0  0  0  0  0
    4.1440    2.0079   18.7877 H   0  0  0  0  0  0  0  0  0  0  0  0
   11.0913   -2.3015   21.3614 H   0  0  0  0  0  0  0  0  0  0  0  0
    4.9025    1.2816   16.5301 H   0  0  0  0  0  0  0  0  0  0  0  0
    7.7391   -1.2456   18.1034 H   0  0  0  0  0  0  0  0  0  0  0  0
    5.6788    3.4994   21.6446 H   0  0  0  0  0  0  0  0  0  0  0  0
    6.8537    2.4534   22.3438 H   0  0  0  0  0  0  0  0  0  0  0  0
    6.8791   -1.6521   21.0486 H   0  0  0  0  0  0  0  0  0  0  0  0
  1  2  1  0  0  0  0
  1  3  2  0  0  0  0
  2  8  2  0  0  0  0
  3 11  1  0  0  0  0
  4  6  2  0  0  0  0
  4 10  1  0  0  0  0
  5  8  1  0  0  0  0
  5 11  2  0  0  0  0
  6 14  1  0  0  0  0
  7  9  1  0  0  0  0
  7 14  2  0  0  0  0
  8 12  1  0  0  0  0
  9 10  2  0  0  0  0
  9 16  1  0  0  0  0
 10 21  1  0  0  0  0
 11 22  1  0  0  0  0
 12 13  1  0  0  0  0
 12 17  2  0  0  0  0
 13 16  1  0  0  0  0
 13 18  2  0  0  0  0
 15 21  1  0  0  0  0
 19 21  2  0  0  0  0
 20 21  2  0  0  0  0
  1 23  1  0  0  0  0
  2 24  1  0  0  0  0
  3 25  1  0  0  0  0
  4 26  1  0  0  0  0
  5 27  1  0  0  0  0
  6 28  1  0  0  0  0
  7 29  1  0  0  0  0
 15 30  1  0  0  0  0
 15 31  1  0  0  0  0
 16 32  1  0  0  0  0
M  END
> <compound>
SAD-SAT-1b030f84-3

> <compound_smiles>
c1cc(cc(c1)Cl)C(=O)C(=O)Nc2cnccc2S(=O)(=O)N

> <enantiomer_smiles>
c1cc(cc(c1)Cl)C(=O)C(=O)Nc2cnccc2S(=O)(=O)N

> <scaffold>
chlorobenzene-linker

> <clash_score>
0

> <docking_score>
-10.719423294067383

> <overlap_score>
0.9402649402618408

> <MMFF_internal_energy>
21.509468536681116

> <docked_smiles>
c1cc(cc(c1)Cl)C(=O)C(=O)Nc2cnccc2S(=O)(=O)N

$$$$
SAM-UNK-2684b532-7_2
  -OEChem-07262101013D

 31 32  0     1  0  0  0  0  0999 V2000
   11.9780    0.4600   23.9150 C   0  0  0  0  0  0  0  0  0  0  0  0
   10.6560    0.0720   23.7350 C   0  0  0  0  0  0  0  0  0  0  0  0
   12.9840   -0.1200   23.1530 C   0  0  0  0  0  0  0  0  0  0  0  0
    4.6348    0.7572   18.5904 C   0  0  0  0  0  0  0  0  0  0  0  0
   11.3360   -1.5050   22.0650 C   0  0  0  0  0  0  0  0  0  0  0  0
    5.3764    0.9018   17.4290 C   0  0  0  0  0  0  0  0  0  0  0  0
    7.2441   -0.0177   18.4007 C   0  0  0  0  0  0  0  0  0  0  0  0
   10.3220   -0.8940   22.7910 C   0  0  0  0  0  0  0  0  0  0  0  0
    6.5902   -0.2052   19.6078 C   0  0  0  0  0  0  0  0  0  0  0  0
   12.6400   -1.1000   22.2390 C   0  0  0  0  0  0  0  0  0  0  0  0
    5.2607    0.1923   19.6961 C   0  0  0  0  0  0  0  0  0  0  0  0
    8.3880   -0.3240   21.3070 C   0  0  0  0  0  0  0  0  0  0  0  0
    7.9670   -1.0352   23.6784 C   0  0  0  0  0  0  0  0  0  0  0  0
    8.8810   -1.1900   22.4510 C   0  0  2  0  0  0  0  0  0  0  0  0
    6.6696    0.5276   17.3052 N   0  0  0  0  0  0  0  0  0  0  0  0
    7.2820   -0.7860   20.6970 N   0  0  0  0  0  0  0  0  0  0  0  0
    8.9170    0.7530   21.0260 O   0  0  0  0  0  0  0  0  0  0  0  0
   13.8840   -1.8490   21.2740 Cl  0  0  0  0  0  0  0  0  0  0  0  0
    4.3559    0.0023   21.1536 Cl  0  0  0  0  0  0  0  0  0  0  0  0
   12.2249    1.2198   24.6546 H   0  0  0  0  0  0  0  0  0  0  0  0
    9.8763    0.5350   24.3454 H   0  0  0  0  0  0  0  0  0  0  0  0
   14.0077    0.1988   23.2842 H   0  0  0  0  0  0  0  0  0  0  0  0
    3.5993    1.0795   18.6200 H   0  0  0  0  0  0  0  0  0  0  0  0
   11.0892   -2.3009   21.3624 H   0  0  0  0  0  0  0  0  0  0  0  0
    4.9344    1.3361   16.5381 H   0  0  0  0  0  0  0  0  0  0  0  0
    8.2822   -0.3080   18.2693 H   0  0  0  0  0  0  0  0  0  0  0  0
    8.0088   -0.0193   24.0871 H   0  0  0  0  0  0  0  0  0  0  0  0
    6.9216   -1.2406   23.4222 H   0  0  0  0  0  0  0  0  0  0  0  0
    8.2585   -1.7315   24.4726 H   0  0  0  0  0  0  0  0  0  0  0  0
    8.7806   -2.2413   22.1242 H   0  0  0  0  0  0  0  0  0  0  0  0
    6.8824   -1.6524   21.0513 H   0  0  0  0  0  0  0  0  0  0  0  0
  1  2  2  0  0  0  0
  1  3  1  0  0  0  0
  2  8  1  0  0  0  0
  3 10  2  0  0  0  0
  4  6  2  0  0  0  0
  4 11  1  0  0  0  0
  5  8  2  0  0  0  0
  5 10  1  0  0  0  0
  6 15  1  0  0  0  0
  7  9  1  0  0  0  0
  7 15  2  0  0  0  0
  8 14  1  0  0  0  0
  9 11  2  0  0  0  0
  9 16  1  0  0  0  0
 10 18  1  0  0  0  0
 11 19  1  0  0  0  0
 12 14  1  0  0  0  0
 12 16  1  0  0  0  0
 12 17  2  0  0  0  0
 13 14  1  6  0  0  0
  1 20  1  0  0  0  0
  2 21  1  0  0  0  0
  3 22  1  0  0  0  0
  4 23  1  0  0  0  0
  5 24  1  0  0  0  0
  6 25  1  0  0  0  0
  7 26  1  0  0  0  0
 13 27  1  0  0  0  0
 13 28  1  0  0  0  0
 13 29  1  0  0  0  0
 14 30  1  0  0  0  0
 16 31  1  0  0  0  0
M  END
> <compound>
SAM-UNK-2684b532-7

> <compound_smiles>
CC(c1cccc(c1)Cl)C(=O)Nc2cnccc2Cl

> <enantiomer_smiles>
C[C@H](c1cccc(c1)Cl)C(=O)Nc2cnccc2Cl

> <scaffold>
chlorobenzene-linker

> <clash_score>
0

> <docking_score>
-8.981213569641113

> <overlap_score>
0.8408397436141968

> <MMFF_internal_energy>
70.64528386006157

> <docked_smiles>
C[C@H](c1cccc(c1)Cl)C(=O)Nc2cnccc2Cl

$$$$
SAM-UNK-2684b532-5_2
  -OEChem-07262101013D

 34 35  0     1  0  0  0  0  0999 V2000
   11.9780    0.4600   23.9150 C   0  0  0  0  0  0  0  0  0  0  0  0
   10.6560    0.0720   23.7350 C   0  0  0  0  0  0  0  0  0  0  0  0
   12.9840   -0.1200   23.1530 C   0  0  0  0  0  0  0  0  0  0  0  0
    4.9120    1.2553   18.6939 C   0  0  0  0  0  0  0  0  0  0  0  0
   11.3360   -1.5050   22.0650 C   0  0  0  0  0  0  0  0  0  0  0  0
    5.3237    0.8516   17.4340 C   0  0  0  0  0  0  0  0  0  0  0  0
    6.9267   -0.5437   18.3070 C   0  0  0  0  0  0  0  0  0  0  0  0
   10.3220   -0.8940   22.7910 C   0  0  0  0  0  0  0  0  0  0  0  0
    5.5624    0.7121   19.7963 C   0  0  0  0  0  0  0  0  0  0  0  0
    6.5902   -0.2052   19.6078 C   0  0  0  0  0  0  0  0  0  0  0  0
   12.6400   -1.1000   22.2390 C   0  0  0  0  0  0  0  0  0  0  0  0
    8.3880   -0.3240   21.3070 C   0  0  0  0  0  0  0  0  0  0  0  0
    7.9670   -1.0352   23.6784 C   0  0  0  0  0  0  0  0  0  0  0  0
    8.8810   -1.1900   22.4510 C   0  0  2  0  0  0  0  0  0  0  0  0
    5.1392    1.1301   21.1663 C   0  0  0  0  0  0  0  0  0  0  0  0
    6.3179   -0.0371   17.2114 N   0  0  0  0  0  0  0  0  0  0  0  0
    7.2820   -0.7860   20.6970 N   0  0  0  0  0  0  0  0  0  0  0  0
    8.9170    0.7530   21.0260 O   0  0  0  0  0  0  0  0  0  0  0  0
    3.8274    0.8452   21.3729 F   0  0  0  0  0  0  0  0  0  0  0  0
    5.2727    2.4727   21.3221 F   0  0  0  0  0  0  0  0  0  0  0  0
   13.8840   -1.8490   21.2740 Cl  0  0  0  0  0  0  0  0  0  0  0  0
   12.2249    1.2198   24.6546 H   0  0  0  0  0  0  0  0  0  0  0  0
    9.8763    0.5350   24.3454 H   0  0  0  0  0  0  0  0  0  0  0  0
   14.0077    0.1988   23.2842 H   0  0  0  0  0  0  0  0  0  0  0  0
    4.1067    1.9732   18.8067 H   0  0  0  0  0  0  0  0  0  0  0  0
   11.0892   -2.3009   21.3624 H   0  0  0  0  0  0  0  0  0  0  0  0
    4.8487    1.2458   16.5417 H   0  0  0  0  0  0  0  0  0  0  0  0
    7.7200   -1.2544   18.0953 H   0  0  0  0  0  0  0  0  0  0  0  0
    8.0088   -0.0193   24.0871 H   0  0  0  0  0  0  0  0  0  0  0  0
    6.9216   -1.2406   23.4222 H   0  0  0  0  0  0  0  0  0  0  0  0
    8.2585   -1.7315   24.4726 H   0  0  0  0  0  0  0  0  0  0  0  0
    8.7806   -2.2413   22.1242 H   0  0  0  0  0  0  0  0  0  0  0  0
    5.7188    0.6399   21.9496 H   0  0  0  0  0  0  0  0  0  0  0  0
    6.8824   -1.6524   21.0513 H   0  0  0  0  0  0  0  0  0  0  0  0
  1  2  2  0  0  0  0
  1  3  1  0  0  0  0
  2  8  1  0  0  0  0
  3 11  2  0  0  0  0
  4  6  2  0  0  0  0
  4  9  1  0  0  0  0
  5  8  2  0  0  0  0
  5 11  1  0  0  0  0
  6 16  1  0  0  0  0
  7 10  1  0  0  0  0
  7 16  2  0  0  0  0
  8 14  1  0  0  0  0
  9 10  2  0  0  0  0
  9 15  1  0  0  0  0
 10 17  1  0  0  0  0
 11 21  1  0  0  0  0
 12 14  1  0  0  0  0
 12 17  1  0  0  0  0
 12 18  2  0  0  0  0
 13 14  1  6  0  0  0
 15 19  1  0  0  0  0
 15 20  1  0  0  0  0
  1 22  1  0  0  0  0
  2 23  1  0  0  0  0
  3 24  1  0  0  0  0
  4 25  1  0  0  0  0
  5 26  1  0  0  0  0
  6 27  1  0  0  0  0
  7 28  1  0  0  0  0
 13 29  1  0  0  0  0
 13 30  1  0  0  0  0
 13 31  1  0  0  0  0
 14 32  1  0  0  0  0
 15 33  1  0  0  0  0
 17 34  1  0  0  0  0
M  END
> <compound>
SAM-UNK-2684b532-5

> <compound_smiles>
CC(c1cccc(c1)Cl)C(=O)Nc2cnccc2C(F)F

> <enantiomer_smiles>
C[C@H](c1cccc(c1)Cl)C(=O)Nc2cnccc2C(F)F

> <scaffold>
chlorobenzene-linker

> <clash_score>
0

> <docking_score>
-10.890388488769531

> <overlap_score>
0.9266767501831055

> <MMFF_internal_energy>
88.98944451651003

> <docked_smiles>
C[C@H](c1cccc(c1)Cl)C(=O)Nc2cnccc2C(F)F

$$$$
SAM-UNK-2684b532-6_1
  -OEChem-07262101013D

 34 35  0     1  0  0  0  0  0999 V2000
   11.9780    0.4600   23.9150 C   0  0  0  0  0  0  0  0  0  0  0  0
   10.6560    0.0720   23.7350 C   0  0  0  0  0  0  0  0  0  0  0  0
   12.9840   -0.1200   23.1530 C   0  0  0  0  0  0  0  0  0  0  0  0
    4.6232    0.7539   18.6100 C   0  0  0  0  0  0  0  0  0  0  0  0
   11.3360   -1.5050   22.0650 C   0  0  0  0  0  0  0  0  0  0  0  0
    5.3542    0.9039   17.4426 C   0  0  0  0  0  0  0  0  0  0  0  0
    7.2331   -0.0125   18.3956 C   0  0  0  0  0  0  0  0  0  0  0  0
   10.3220   -0.8940   22.7910 C   0  0  0  0  0  0  0  0  0  0  0  0
    5.2603    0.1879   19.7087 C   0  0  0  0  0  0  0  0  0  0  0  0
    6.5902   -0.2052   19.6078 C   0  0  0  0  0  0  0  0  0  0  0  0
   12.6400   -1.1000   22.2390 C   0  0  0  0  0  0  0  0  0  0  0  0
    8.3880   -0.3240   21.3070 C   0  0  0  0  0  0  0  0  0  0  0  0
    8.6719   -2.6843   22.1478 C   0  0  0  0  0  0  0  0  0  0  0  0
    8.8810   -1.1900   22.4510 C   0  0  1  0  0  0  0  0  0  0  0  0
    4.4961    0.0150   20.9802 C   0  0  0  0  0  0  0  0  0  0  0  0
    6.6474    0.5340   17.3066 N   0  0  0  0  0  0  0  0  0  0  0  0
    7.2820   -0.7860   20.6970 N   0  0  0  0  0  0  0  0  0  0  0  0
    8.9170    0.7530   21.0260 O   0  0  0  0  0  0  0  0  0  0  0  0
    3.2056    0.4540   20.9049 F   0  0  0  0  0  0  0  0  0  0  0  0
    4.4088   -1.2839   21.3907 F   0  0  0  0  0  0  0  0  0  0  0  0
    5.0553    0.6937   22.0229 F   0  0  0  0  0  0  0  0  0  0  0  0
   13.8840   -1.8490   21.2740 Cl  0  0  0  0  0  0  0  0  0  0  0  0
   12.2249    1.2198   24.6546 H   0  0  0  0  0  0  0  0  0  0  0  0
    9.8763    0.5350   24.3454 H   0  0  0  0  0  0  0  0  0  0  0  0
   14.0077    0.1988   23.2842 H   0  0  0  0  0  0  0  0  0  0  0  0
    3.5870    1.0712   18.6559 H   0  0  0  0  0  0  0  0  0  0  0  0
   11.0892   -2.3009   21.3624 H   0  0  0  0  0  0  0  0  0  0  0  0
    4.9034    1.3400   16.5572 H   0  0  0  0  0  0  0  0  0  0  0  0
    8.2710   -0.2993   18.2546 H   0  0  0  0  0  0  0  0  0  0  0  0
    9.2843   -3.0131   21.3007 H   0  0  0  0  0  0  0  0  0  0  0  0
    8.9296   -3.3200   23.0024 H   0  0  0  0  0  0  0  0  0  0  0  0
    7.6214   -2.8709   21.8984 H   0  0  0  0  0  0  0  0  0  0  0  0
    8.2360   -0.9649   23.3210 H   0  0  0  0  0  0  0  0  0  0  0  0
    6.8824   -1.6524   21.0513 H   0  0  0  0  0  0  0  0  0  0  0  0
  1  2  2  0  0  0  0
  1  3  1  0  0  0  0
  2  8  1  0  0  0  0
  3 11  2  0  0  0  0
  4  6  2  0  0  0  0
  4  9  1  0  0  0  0
  5  8  2  0  0  0  0
  5 11  1  0  0  0  0
  6 16  1  0  0  0  0
  7 10  1  0  0  0  0
  7 16  2  0  0  0  0
  8 14  1  0  0  0  0
  9 10  2  0  0  0  0
  9 15  1  0  0  0  0
 10 17  1  0  0  0  0
 11 22  1  0  0  0  0
 12 14  1  0  0  0  0
 12 17  1  0  0  0  0
 12 18  2  0  0  0  0
 13 14  1  1  0  0  0
 15 19  1  0  0  0  0
 15 20  1  0  0  0  0
 15 21  1  0  0  0  0
  1 23  1  0  0  0  0
  2 24  1  0  0  0  0
  3 25  1  0  0  0  0
  4 26  1  0  0  0  0
  5 27  1  0  0  0  0
  6 28  1  0  0  0  0
  7 29  1  0  0  0  0
 13 30  1  0  0  0  0
 13 31  1  0  0  0  0
 13 32  1  0  0  0  0
 14 33  1  0  0  0  0
 17 34  1  0  0  0  0
M  END
> <compound>
SAM-UNK-2684b532-6

> <compound_smiles>
CC(c1cccc(c1)Cl)C(=O)Nc2cnccc2C(F)(F)F

> <enantiomer_smiles>
C[C@@H](c1cccc(c1)Cl)C(=O)Nc2cnccc2C(F)(F)F

> <scaffold>
chlorobenzene-linker

> <clash_score>
0

> <docking_score>
-7.37791109085083

> <overlap_score>
0.8998380303382874

> <MMFF_internal_energy>
89.21012618304111

> <docked_smiles>
C[C@@H](c1cccc(c1)Cl)C(=O)Nc2cnccc2C(F)(F)F

$$$$
SAM-UNK-2684b532-6_2
  -OEChem-07262101013D

 34 35  0     1  0  0  0  0  0999 V2000
   11.9780    0.4600   23.9150 C   0  0  0  0  0  0  0  0  0  0  0  0
   10.6560    0.0720   23.7350 C   0  0  0  0  0  0  0  0  0  0  0  0
   12.9840   -0.1200   23.1530 C   0  0  0  0  0  0  0  0  0  0  0  0
    4.6232    0.7539   18.6100 C   0  0  0  0  0  0  0  0  0  0  0  0
   11.3360   -1.5050   22.0650 C   0  0  0  0  0  0  0  0  0  0  0  0
    5.3542    0.9039   17.4426 C   0  0  0  0  0  0  0  0  0  0  0  0
    7.2331   -0.0125   18.3956 C   0  0  0  0  0  0  0  0  0  0  0  0
   10.3220   -0.8940   22.7910 C   0  0  0  0  0  0  0  0  0  0  0  0
    5.2603    0.1879   19.7087 C   0  0  0  0  0  0  0  0  0  0  0  0
    6.5902   -0.2052   19.6078 C   0  0  0  0  0  0  0  0  0  0  0  0
   12.6400   -1.1000   22.2390 C   0  0  0  0  0  0  0  0  0  0  0  0
    8.3880   -0.3240   21.3070 C   0  0  0  0  0  0  0  0  0  0  0  0
    7.9670   -1.0352   23.6784 C   0  0  0  0  0  0  0  0  0  0  0  0
    8.8810   -1.1900   22.4510 C   0  0  2  0  0  0  0  0  0  0  0  0
    4.4961    0.0150   20.9802 C   0  0  0  0  0  0  0  0  0  0  0  0
    6.6474    0.5340   17.3066 N   0  0  0  0  0  0  0  0  0  0  0  0
    7.2820   -0.7860   20.6970 N   0  0  0  0  0  0  0  0  0  0  0  0
    8.9170    0.7530   21.0260 O   0  0  0  0  0  0  0  0  0  0  0  0
    3.2056    0.4540   20.9049 F   0  0  0  0  0  0  0  0  0  0  0  0
    4.4088   -1.2839   21.3907 F   0  0  0  0  0  0  0  0  0  0  0  0
    5.0553    0.6937   22.0229 F   0  0  0  0  0  0  0  0  0  0  0  0
   13.8840   -1.8490   21.2740 Cl  0  0  0  0  0  0  0  0  0  0  0  0
   12.2249    1.2198   24.6546 H   0  0  0  0  0  0  0  0  0  0  0  0
    9.8763    0.5350   24.3454 H   0  0  0  0  0  0  0  0  0  0  0  0
   14.0077    0.1988   23.2842 H   0  0  0  0  0  0  0  0  0  0  0  0
    3.5870    1.0712   18.6559 H   0  0  0  0  0  0  0  0  0  0  0  0
   11.0892   -2.3009   21.3624 H   0  0  0  0  0  0  0  0  0  0  0  0
    4.9034    1.3400   16.5572 H   0  0  0  0  0  0  0  0  0  0  0  0
    8.2710   -0.2993   18.2546 H   0  0  0  0  0  0  0  0  0  0  0  0
    8.0088   -0.0193   24.0871 H   0  0  0  0  0  0  0  0  0  0  0  0
    6.9216   -1.2406   23.4222 H   0  0  0  0  0  0  0  0  0  0  0  0
    8.2585   -1.7315   24.4726 H   0  0  0  0  0  0  0  0  0  0  0  0
    8.7806   -2.2413   22.1242 H   0  0  0  0  0  0  0  0  0  0  0  0
    6.8824   -1.6524   21.0513 H   0  0  0  0  0  0  0  0  0  0  0  0
  1  2  2  0  0  0  0
  1  3  1  0  0  0  0
  2  8  1  0  0  0  0
  3 11  2  0  0  0  0
  4  6  2  0  0  0  0
  4  9  1  0  0  0  0
  5  8  2  0  0  0  0
  5 11  1  0  0  0  0
  6 16  1  0  0  0  0
  7 10  1  0  0  0  0
  7 16  2  0  0  0  0
  8 14  1  0  0  0  0
  9 10  2  0  0  0  0
  9 15  1  0  0  0  0
 10 17  1  0  0  0  0
 11 22  1  0  0  0  0
 12 14  1  0  0  0  0
 12 17  1  0  0  0  0
 12 18  2  0  0  0  0
 13 14  1  6  0  0  0
 15 19  1  0  0  0  0
 15 20  1  0  0  0  0
 15 21  1  0  0  0  0
  1 23  1  0  0  0  0
  2 24  1  0  0  0  0
  3 25  1  0  0  0  0
  4 26  1  0  0  0  0
  5 27  1  0  0  0  0
  6 28  1  0  0  0  0
  7 29  1  0  0  0  0
 13 30  1  0  0  0  0
 13 31  1  0  0  0  0
 13 32  1  0  0  0  0
 14 33  1  0  0  0  0
 17 34  1  0  0  0  0
M  END
> <compound>
SAM-UNK-2684b532-6

> <compound_smiles>
CC(c1cccc(c1)Cl)C(=O)Nc2cnccc2C(F)(F)F

> <enantiomer_smiles>
C[C@H](c1cccc(c1)Cl)C(=O)Nc2cnccc2C(F)(F)F

> <scaffold>
chlorobenzene-linker

> <clash_score>
0

> <docking_score>
-7.629499435424805

> <overlap_score>
0.8995529413223267

> <MMFF_internal_energy>
83.63900294695176

> <docked_smiles>
C[C@H](c1cccc(c1)Cl)C(=O)Nc2cnccc2C(F)(F)F

$$$$
SAM-UNK-2684b532-3_1
  -OEChem-07262101013D

 39 41  0     1  0  0  0  0  0999 V2000
   11.9780    0.4600   23.9150 C   0  0  0  0  0  0  0  0  0  0  0  0
   10.6560    0.0720   23.7350 C   0  0  0  0  0  0  0  0  0  0  0  0
   12.9840   -0.1200   23.1530 C   0  0  0  0  0  0  0  0  0  0  0  0
    4.9158    1.2597   18.6937 C   0  0  0  0  0  0  0  0  0  0  0  0
   11.3360   -1.5050   22.0650 C   0  0  0  0  0  0  0  0  0  0  0  0
    5.3226    0.8505   17.4340 C   0  0  0  0  0  0  0  0  0  0  0  0
    6.9217   -0.5492   18.3071 C   0  0  0  0  0  0  0  0  0  0  0  0
   10.3220   -0.8940   22.7910 C   0  0  0  0  0  0  0  0  0  0  0  0
    5.5666    0.7170   19.7960 C   0  0  0  0  0  0  0  0  0  0  0  0
    6.5899   -0.2054   19.6077 C   0  0  0  0  0  0  0  0  0  0  0  0
   12.6400   -1.1000   22.2390 C   0  0  0  0  0  0  0  0  0  0  0  0
    6.6210   -1.6620   25.5510 C   0  0  0  0  0  0  0  0  0  0  0  0
    7.9442   -1.1678   23.6610 C   0  0  0  0  0  0  0  0  0  0  0  0
    8.3880   -0.3240   21.3070 C   0  0  0  0  0  0  0  0  0  0  0  0
    5.1487    1.1409   21.1658 C   0  0  0  0  0  0  0  0  0  0  0  0
    5.9290   -2.2889   26.6953 C   0  0  0  0  0  0  0  0  0  0  0  0
    8.8810   -1.1900   22.4510 C   0  0  1  0  0  0  0  0  0  0  0  0
    6.3123   -0.0432   17.2115 N   0  0  0  0  0  0  0  0  0  0  0  0
    6.4947   -0.4050   25.1823 N   0  0  0  0  0  0  0  0  0  0  0  0
    7.2700   -0.1154   24.0731 N   0  0  0  0  0  0  0  0  0  0  0  0
    7.2820   -0.7860   20.6970 N   0  0  0  0  0  0  0  0  0  0  0  0
    8.9170    0.7530   21.0260 O   0  0  0  0  0  0  0  0  0  0  0  0
    7.6909   -2.5908   24.5843 S   0  0  0  0  0  0  0  0  0  0  0  0
   13.8840   -1.8490   21.2740 Cl  0  0  0  0  0  0  0  0  0  0  0  0
   12.2249    1.2198   24.6546 H   0  0  0  0  0  0  0  0  0  0  0  0
    9.8763    0.5350   24.3454 H   0  0  0  0  0  0  0  0  0  0  0  0
   14.0077    0.1988   23.2842 H   0  0  0  0  0  0  0  0  0  0  0  0
    4.1140    1.9815   18.8063 H   0  0  0  0  0  0  0  0  0  0  0  0
   11.0892   -2.3009   21.3624 H   0  0  0  0  0  0  0  0  0  0  0  0
    4.8471    1.2441   16.5417 H   0  0  0  0  0  0  0  0  0  0  0  0
    7.7114   -1.2640   18.0955 H   0  0  0  0  0  0  0  0  0  0  0  0
    4.3568    0.4829   21.5419 H   0  0  0  0  0  0  0  0  0  0  0  0
    5.9927    1.1077   21.8657 H   0  0  0  0  0  0  0  0  0  0  0  0
    4.7753    2.1725   21.1647 H   0  0  0  0  0  0  0  0  0  0  0  0
    4.9610   -2.7162   26.3874 H   0  0  0  0  0  0  0  0  0  0  0  0
    6.5262   -3.0999   27.1452 H   0  0  0  0  0  0  0  0  0  0  0  0
    5.7347   -1.5667   27.5063 H   0  0  0  0  0  0  0  0  0  0  0  0
    8.8345   -2.2242   22.0630 H   0  0  0  0  0  0  0  0  0  0  0  0
    6.8785   -1.6495   21.0540 H   0  0  0  0  0  0  0  0  0  0  0  0
  1  2  2  0  0  0  0
  1  3  1  0  0  0  0
  2  8  1  0  0  0  0
  3 11  2  0  0  0  0
  4  6  2  0  0  0  0
  4  9  1  0  0  0  0
  5  8  2  0  0  0  0
  5 11  1  0  0  0  0
  6 18  1  0  0  0  0
  7 10  1  0  0  0  0
  7 18  2  0  0  0  0
  8 17  1  0  0  0  0
  9 10  2  0  0  0  0
  9 15  1  0  0  0  0
 10 21  1  0  0  0  0
 11 24  1  0  0  0  0
 12 16  1  0  0  0  0
 12 19  2  0  0  0  0
 12 23  1  0  0  0  0
 13 17  1  0  0  0  0
 13 20  2  0  0  0  0
 13 23  1  0  0  0  0
 14 17  1  1  0  0  0
 14 21  1  0  0  0  0
 14 22  2  0  0  0  0
 19 20  1  0  0  0  0
  1 25  1  0  0  0  0
  2 26  1  0  0  0  0
  3 27  1  0  0  0  0
  4 28  1  0  0  0  0
  5 29  1  0  0  0  0
  6 30  1  0  0  0  0
  7 31  1  0  0  0  0
 15 32  1  0  0  0  0
 15 33  1  0  0  0  0
 15 34  1  0  0  0  0
 16 35  1  0  0  0  0
 16 36  1  0  0  0  0
 16 37  1  0  0  0  0
 17 38  1  0  0  0  0
 21 39  1  0  0  0  0
M  END
> <compound>
SAM-UNK-2684b532-3

> <compound_smiles>
Cc1ccncc1NC(=O)C(c2cccc(c2)Cl)c3nnc(s3)C

> <enantiomer_smiles>
Cc1ccncc1NC(=O)[C@@H](c2cccc(c2)Cl)c3nnc(s3)C

> <scaffold>
chlorobenzene-linker

> <clash_score>
0

> <docking_score>
-10.745672225952148

> <overlap_score>
0.8611693382263184

> <MMFF_internal_energy>
102.47496789257316

> <docked_smiles>
Cc1ccncc1NC(=O)[C@@H](c2cccc(c2)Cl)c3nnc(s3)C

$$$$
SAM-UNK-2684b532-5_1
  -OEChem-07262101013D

 34 35  0     1  0  0  0  0  0999 V2000
   11.9780    0.4600   23.9150 C   0  0  0  0  0  0  0  0  0  0  0  0
   10.6560    0.0720   23.7350 C   0  0  0  0  0  0  0  0  0  0  0  0
   12.9840   -0.1200   23.1530 C   0  0  0  0  0  0  0  0  0  0  0  0
    4.6232    0.7539   18.6100 C   0  0  0  0  0  0  0  0  0  0  0  0
   11.3360   -1.5050   22.0650 C   0  0  0  0  0  0  0  0  0  0  0  0
    5.3542    0.9039   17.4426 C   0  0  0  0  0  0  0  0  0  0  0  0
    7.2331   -0.0125   18.3956 C   0  0  0  0  0  0  0  0  0  0  0  0
   10.3220   -0.8940   22.7910 C   0  0  0  0  0  0  0  0  0  0  0  0
    5.2603    0.1879   19.7087 C   0  0  0  0  0  0  0  0  0  0  0  0
    6.5902   -0.2052   19.6078 C   0  0  0  0  0  0  0  0  0  0  0  0
   12.6400   -1.1000   22.2390 C   0  0  0  0  0  0  0  0  0  0  0  0
    8.3880   -0.3240   21.3070 C   0  0  0  0  0  0  0  0  0  0  0  0
    8.6719   -2.6843   22.1478 C   0  0  0  0  0  0  0  0  0  0  0  0
    8.8810   -1.1900   22.4510 C   0  0  1  0  0  0  0  0  0  0  0  0
    4.4960    0.0150   20.9802 C   0  0  0  0  0  0  0  0  0  0  0  0
    6.6474    0.5340   17.3066 N   0  0  0  0  0  0  0  0  0  0  0  0
    7.2820   -0.7860   20.6970 N   0  0  0  0  0  0  0  0  0  0  0  0
    8.9170    0.7530   21.0260 O   0  0  0  0  0  0  0  0  0  0  0  0
    3.5611    0.9906   21.1165 F   0  0  0  0  0  0  0  0  0  0  0  0
    5.3208    0.1168   22.0545 F   0  0  0  0  0  0  0  0  0  0  0  0
   13.8840   -1.8490   21.2740 Cl  0  0  0  0  0  0  0  0  0  0  0  0
   12.2249    1.2198   24.6546 H   0  0  0  0  0  0  0  0  0  0  0  0
    9.8763    0.5350   24.3454 H   0  0  0  0  0  0  0  0  0  0  0  0
   14.0077    0.1988   23.2842 H   0  0  0  0  0  0  0  0  0  0  0  0
    3.5870    1.0712   18.6559 H   0  0  0  0  0  0  0  0  0  0  0  0
   11.0892   -2.3009   21.3624 H   0  0  0  0  0  0  0  0  0  0  0  0
    4.9034    1.3400   16.5572 H   0  0  0  0  0  0  0  0  0  0  0  0
    8.2710   -0.2993   18.2546 H   0  0  0  0  0  0  0  0  0  0  0  0
    9.2843   -3.0131   21.3007 H   0  0  0  0  0  0  0  0  0  0  0  0
    8.9296   -3.3200   23.0024 H   0  0  0  0  0  0  0  0  0  0  0  0
    7.6214   -2.8709   21.8984 H   0  0  0  0  0  0  0  0  0  0  0  0
    8.2360   -0.9649   23.3210 H   0  0  0  0  0  0  0  0  0  0  0  0
    3.9886   -0.9492   21.0340 H   0  0  0  0  0  0  0  0  0  0  0  0
    6.8824   -1.6524   21.0513 H   0  0  0  0  0  0  0  0  0  0  0  0
  1  2  2  0  0  0  0
  1  3  1  0  0  0  0
  2  8  1  0  0  0  0
  3 11  2  0  0  0  0
  4  6  2  0  0  0  0
  4  9  1  0  0  0  0
  5  8  2  0  0  0  0
  5 11  1  0  0  0  0
  6 16  1  0  0  0  0
  7 10  1  0  0  0  0
  7 16  2  0  0  0  0
  8 14  1  0  0  0  0
  9 10  2  0  0  0  0
  9 15  1  0  0  0  0
 10 17  1  0  0  0  0
 11 21  1  0  0  0  0
 12 14  1  0  0  0  0
 12 17  1  0  0  0  0
 12 18  2  0  0  0  0
 13 14  1  1  0  0  0
 15 19  1  0  0  0  0
 15 20  1  0  0  0  0
  1 22  1  0  0  0  0
  2 23  1  0  0  0  0
  3 24  1  0  0  0  0
  4 25  1  0  0  0  0
  5 26  1  0  0  0  0
  6 27  1  0  0  0  0
  7 28  1  0  0  0  0
 13 29  1  0  0  0  0
 13 30  1  0  0  0  0
 13 31  1  0  0  0  0
 14 32  1  0  0  0  0
 15 33  1  0  0  0  0
 17 34  1  0  0  0  0
M  END
> <compound>
SAM-UNK-2684b532-5

> <compound_smiles>
CC(c1cccc(c1)Cl)C(=O)Nc2cnccc2C(F)F

> <enantiomer_smiles>
C[C@@H](c1cccc(c1)Cl)C(=O)Nc2cnccc2C(F)F

> <scaffold>
chlorobenzene-linker

> <clash_score>
0

> <docking_score>
-8.91616439819336

> <overlap_score>
0.9052597880363464

> <MMFF_internal_energy>
89.96700698220428

> <docked_smiles>
C[C@@H](c1cccc(c1)Cl)C(=O)Nc2cnccc2C(F)F

$$$$
SAM-UNK-2684b532-11_1
  -OEChem-07262101013D

 31 32  0     0  0  0  0  0  0999 V2000
   11.9780    0.4600   23.9150 C   0  0  0  0  0  0  0  0  0  0  0  0
   10.6560    0.0720   23.7350 C   0  0  0  0  0  0  0  0  0  0  0  0
   12.9840   -0.1200   23.1530 C   0  0  0  0  0  0  0  0  0  0  0  0
    4.9108    1.2541   18.6938 C   0  0  0  0  0  0  0  0  0  0  0  0
   11.3360   -1.5050   22.0650 C   0  0  0  0  0  0  0  0  0  0  0  0
    5.3261    0.8544   17.4338 C   0  0  0  0  0  0  0  0  0  0  0  0
    6.9308   -0.5388   18.3067 C   0  0  0  0  0  0  0  0  0  0  0  0
   10.3220   -0.8940   22.7910 C   0  0  0  0  0  0  0  0  0  0  0  0
    5.5603    0.7100   19.7962 C   0  0  0  0  0  0  0  0  0  0  0  0
    6.5908   -0.2043   19.6076 C   0  0  0  0  0  0  0  0  0  0  0  0
   12.6400   -1.1000   22.2390 C   0  0  0  0  0  0  0  0  0  0  0  0
    8.3880   -0.3240   21.3070 C   0  0  0  0  0  0  0  0  0  0  0  0
    8.8810   -1.1900   22.4510 C   0  0  0  0  0  0  0  0  0  0  0  0
    5.1333    1.1236   21.1664 C   0  0  0  0  0  0  0  0  0  0  0  0
    6.3229   -0.0312   17.2111 N   0  0  0  0  0  0  0  0  0  0  0  0
    7.2820   -0.7860   20.6970 N   0  0  0  0  0  0  0  0  0  0  0  0
    8.9170    0.7530   21.0260 O   0  0  0  0  0  0  0  0  0  0  0  0
    3.8218    0.8350   21.3696 F   0  0  0  0  0  0  0  0  0  0  0  0
    5.2631    2.4662   21.3256 F   0  0  0  0  0  0  0  0  0  0  0  0
   13.8840   -1.8490   21.2740 Cl  0  0  0  0  0  0  0  0  0  0  0  0
   12.2249    1.2198   24.6546 H   0  0  0  0  0  0  0  0  0  0  0  0
    9.8763    0.5350   24.3454 H   0  0  0  0  0  0  0  0  0  0  0  0
   14.0077    0.1988   23.2842 H   0  0  0  0  0  0  0  0  0  0  0  0
    4.1035    1.9697   18.8067 H   0  0  0  0  0  0  0  0  0  0  0  0
   11.0892   -2.3009   21.3624 H   0  0  0  0  0  0  0  0  0  0  0  0
    4.8519    1.2496   16.5415 H   0  0  0  0  0  0  0  0  0  0  0  0
    7.7264   -1.2471   18.0949 H   0  0  0  0  0  0  0  0  0  0  0  0
    8.7709   -2.2387   22.1706 H   0  0  0  0  0  0  0  0  0  0  0  0
    8.2491   -1.0157   23.3232 H   0  0  0  0  0  0  0  0  0  0  0  0
    5.7126    0.6330   21.9497 H   0  0  0  0  0  0  0  0  0  0  0  0
    6.8973   -1.6552   21.0612 H   0  0  0  0  0  0  0  0  0  0  0  0
  1  2  1  0  0  0  0
  1  3  2  0  0  0  0
  2  8  2  0  0  0  0
  3 11  1  0  0  0  0
  4  6  2  0  0  0  0
  4  9  1  0  0  0  0
  5  8  1  0  0  0  0
  5 11  2  0  0  0  0
  6 15  1  0  0  0  0
  7 10  1  0  0  0  0
  7 15  2  0  0  0  0
  8 13  1  0  0  0  0
  9 10  2  0  0  0  0
  9 14  1  0  0  0  0
 10 16  1  0  0  0  0
 11 20  1  0  0  0  0
 12 13  1  0  0  0  0
 12 16  1  0  0  0  0
 12 17  2  0  0  0  0
 14 18  1  0  0  0  0
 14 19  1  0  0  0  0
  1 21  1  0  0  0  0
  2 22  1  0  0  0  0
  3 23  1  0  0  0  0
  4 24  1  0  0  0  0
  5 25  1  0  0  0  0
  6 26  1  0  0  0  0
  7 27  1  0  0  0  0
 13 28  1  0  0  0  0
 13 29  1  0  0  0  0
 14 30  1  0  0  0  0
 16 31  1  0  0  0  0
M  END
> <compound>
SAM-UNK-2684b532-11

> <compound_smiles>
c1cc(cc(c1)Cl)CC(=O)Nc2cnccc2C(F)F

> <enantiomer_smiles>
c1cc(cc(c1)Cl)CC(=O)Nc2cnccc2C(F)F

> <scaffold>
chlorobenzene-linker

> <clash_score>
0

> <docking_score>
-10.840332984924316

> <overlap_score>
0.9165177941322327

> <MMFF_internal_energy>
82.24215496294345

> <docked_smiles>
c1cc(cc(c1)Cl)CC(=O)Nc2cnccc2C(F)F

$$$$
SAM-UNK-2684b532-13_1
  -OEChem-07262101013D

 28 29  0     0  0  0  0  0  0999 V2000
   11.9780    0.4600   23.9150 C   0  0  0  0  0  0  0  0  0  0  0  0
   10.6560    0.0720   23.7350 C   0  0  0  0  0  0  0  0  0  0  0  0
   12.9840   -0.1200   23.1530 C   0  0  0  0  0  0  0  0  0  0  0  0
    4.6351    0.7556   18.5886 C   0  0  0  0  0  0  0  0  0  0  0  0
   11.3360   -1.5050   22.0650 C   0  0  0  0  0  0  0  0  0  0  0  0
    5.3787    0.9048   17.4290 C   0  0  0  0  0  0  0  0  0  0  0  0
    7.2468   -0.0123   18.4024 C   0  0  0  0  0  0  0  0  0  0  0  0
   10.3220   -0.8940   22.7910 C   0  0  0  0  0  0  0  0  0  0  0  0
    6.5908   -0.2043   19.6076 C   0  0  0  0  0  0  0  0  0  0  0  0
   12.6400   -1.1000   22.2390 C   0  0  0  0  0  0  0  0  0  0  0  0
    5.2601    0.1896   19.6942 C   0  0  0  0  0  0  0  0  0  0  0  0
    8.3880   -0.3240   21.3070 C   0  0  0  0  0  0  0  0  0  0  0  0
    8.8810   -1.1900   22.4510 C   0  0  0  0  0  0  0  0  0  0  0  0
    6.6730    0.5341   17.3070 N   0  0  0  0  0  0  0  0  0  0  0  0
    7.2820   -0.7860   20.6970 N   0  0  0  0  0  0  0  0  0  0  0  0
    8.9170    0.7530   21.0260 O   0  0  0  0  0  0  0  0  0  0  0  0
   13.8840   -1.8490   21.2740 Cl  0  0  0  0  0  0  0  0  0  0  0  0
    4.3529   -0.0061   21.1494 Cl  0  0  0  0  0  0  0  0  0  0  0  0
   12.2249    1.2198   24.6546 H   0  0  0  0  0  0  0  0  0  0  0  0
    9.8763    0.5350   24.3454 H   0  0  0  0  0  0  0  0  0  0  0  0
   14.0077    0.1988   23.2842 H   0  0  0  0  0  0  0  0  0  0  0  0
    3.5987    1.0752   18.6168 H   0  0  0  0  0  0  0  0  0  0  0  0
   11.0892   -2.3009   21.3624 H   0  0  0  0  0  0  0  0  0  0  0  0
    4.9374    1.3401   16.5382 H   0  0  0  0  0  0  0  0  0  0  0  0
    8.2858   -0.2997   18.2723 H   0  0  0  0  0  0  0  0  0  0  0  0
    8.7709   -2.2387   22.1706 H   0  0  0  0  0  0  0  0  0  0  0  0
    8.2491   -1.0157   23.3232 H   0  0  0  0  0  0  0  0  0  0  0  0
    6.8973   -1.6552   21.0612 H   0  0  0  0  0  0  0  0  0  0  0  0
  1  2  1  0  0  0  0
  1  3  2  0  0  0  0
  2  8  2  0  0  0  0
  3 10  1  0  0  0  0
  4  6  2  0  0  0  0
  4 11  1  0  0  0  0
  5  8  1  0  0  0  0
  5 10  2  0  0  0  0
  6 14  1  0  0  0  0
  7  9  1  0  0  0  0
  7 14  2  0  0  0  0
  8 13  1  0  0  0  0
  9 11  2  0  0  0  0
  9 15  1  0  0  0  0
 10 17  1  0  0  0  0
 11 18  1  0  0  0  0
 12 13  1  0  0  0  0
 12 15  1  0  0  0  0
 12 16  2  0  0  0  0
  1 19  1  0  0  0  0
  2 20  1  0  0  0  0
  3 21  1  0  0  0  0
  4 22  1  0  0  0  0
  5 23  1  0  0  0  0
  6 24  1  0  0  0  0
  7 25  1  0  0  0  0
 13 26  1  0  0  0  0
 13 27  1  0  0  0  0
 15 28  1  0  0  0  0
M  END
> <compound>
SAM-UNK-2684b532-13

> <compound_smiles>
c1cc(cc(c1)Cl)CC(=O)Nc2cnccc2Cl

> <enantiomer_smiles>
c1cc(cc(c1)Cl)CC(=O)Nc2cnccc2Cl

> <scaffold>
chlorobenzene-linker

> <clash_score>
0

> <docking_score>
-8.827742576599121

> <overlap_score>
0.8298012018203735

> <MMFF_internal_energy>
63.88096163915004

> <docked_smiles>
c1cc(cc(c1)Cl)CC(=O)Nc2cnccc2Cl

$$$$
ABI-SAT-4d06482b-2_1
  -OEChem-07262101013D

 30 31  0     0  0  0  0  0  0999 V2000
   11.9780    0.4600   23.9150 C   0  0  0  0  0  0  0  0  0  0  0  0
   10.6560    0.0720   23.7350 C   0  0  0  0  0  0  0  0  0  0  0  0
   12.9840   -0.1200   23.1530 C   0  0  0  0  0  0  0  0  0  0  0  0
   11.3360   -1.5050   22.0650 C   0  0  0  0  0  0  0  0  0  0  0  0
    7.2117    0.0021   18.3926 C   0  0  0  0  0  0  0  0  0  0  0  0
    5.3137    0.8956   17.5174 C   0  0  0  0  0  0  0  0  0  0  0  0
   10.3220   -0.8940   22.7910 C   0  0  0  0  0  0  0  0  0  0  0  0
    6.5908   -0.2043   19.6076 C   0  0  0  0  0  0  0  0  0  0  0  0
   12.6400   -1.1000   22.2390 C   0  0  0  0  0  0  0  0  0  0  0  0
    5.2708    0.1916   19.6783 C   0  0  0  0  0  0  0  0  0  0  0  0
    8.3880   -0.3240   21.3070 C   0  0  0  0  0  0  0  0  0  0  0  0
    4.4935    0.0181   20.9424 C   0  0  0  0  0  0  0  0  0  0  0  0
    8.8810   -1.1900   22.4510 C   0  0  0  0  0  0  0  0  0  0  0  0
    6.6010    0.5515   17.3224 N   0  0  0  0  0  0  0  0  0  0  0  0
    4.5986    0.7473   18.6489 N   0  0  0  0  0  0  0  0  0  0  0  0
    7.2820   -0.7860   20.6970 N   0  0  0  0  0  0  0  0  0  0  0  0
    8.9170    0.7530   21.0260 O   0  0  0  0  0  0  0  0  0  0  0  0
   13.8840   -1.8490   21.2740 Cl  0  0  0  0  0  0  0  0  0  0  0  0
   12.2249    1.2198   24.6546 H   0  0  0  0  0  0  0  0  0  0  0  0
    9.8763    0.5350   24.3454 H   0  0  0  0  0  0  0  0  0  0  0  0
   14.0077    0.1988   23.2842 H   0  0  0  0  0  0  0  0  0  0  0  0
   11.0892   -2.3009   21.3624 H   0  0  0  0  0  0  0  0  0  0  0  0
    8.2496   -0.2734   18.2316 H   0  0  0  0  0  0  0  0  0  0  0  0
    4.7977    1.3371   16.6733 H   0  0  0  0  0  0  0  0  0  0  0  0
    4.5930    0.9082   21.5740 H   0  0  0  0  0  0  0  0  0  0  0  0
    3.4293   -0.1457   20.7334 H   0  0  0  0  0  0  0  0  0  0  0  0
    4.8462   -0.8534   21.5074 H   0  0  0  0  0  0  0  0  0  0  0  0
    8.7709   -2.2387   22.1706 H   0  0  0  0  0  0  0  0  0  0  0  0
    8.2491   -1.0157   23.3232 H   0  0  0  0  0  0  0  0  0  0  0  0
    6.8973   -1.6552   21.0612 H   0  0  0  0  0  0  0  0  0  0  0  0
  1  2  2  0  0  0  0
  1  3  1  0  0  0  0
  2  7  1  0  0  0  0
  3  9  2  0  0  0  0
  4  7  2  0  0  0  0
  4  9  1  0  0  0  0
  5  8  2  0  0  0  0
  5 14  1  0  0  0  0
  6 14  2  0  0  0  0
  6 15  1  0  0  0  0
  7 13  1  0  0  0  0
  8 10  1  0  0  0  0
  8 16  1  0  0  0  0
  9 18  1  0  0  0  0
 10 12  1  0  0  0  0
 10 15  2  0  0  0  0
 11 13  1  0  0  0  0
 11 16  1  0  0  0  0
 11 17  2  0  0  0  0
  1 19  1  0  0  0  0
  2 20  1  0  0  0  0
  3 21  1  0  0  0  0
  4 22  1  0  0  0  0
  5 23  1  0  0  0  0
  6 24  1  0  0  0  0
 12 25  1  0  0  0  0
 12 26  1  0  0  0  0
 12 27  1  0  0  0  0
 13 28  1  0  0  0  0
 13 29  1  0  0  0  0
 16 30  1  0  0  0  0
M  END
> <compound>
ABI-SAT-4d06482b-2

> <compound_smiles>
Cc1c(cncn1)NC(=O)Cc2cccc(c2)Cl

> <enantiomer_smiles>
Cc1c(cncn1)NC(=O)Cc2cccc(c2)Cl

> <scaffold>
chlorobenzene-linker

> <clash_score>
0

> <docking_score>
-8.023914337158203

> <overlap_score>
0.8358927369117737

> <MMFF_internal_energy>
62.89230543310971

> <docked_smiles>
Cc1c(cncn1)NC(=O)Cc2cccc(c2)Cl

$$$$
SAM-UNK-2684b532-3_2
  -OEChem-07262101013D

 39 41  0     1  0  0  0  0  0999 V2000
   11.9780    0.4600   23.9150 C   0  0  0  0  0  0  0  0  0  0  0  0
   10.6560    0.0720   23.7350 C   0  0  0  0  0  0  0  0  0  0  0  0
   12.9840   -0.1200   23.1530 C   0  0  0  0  0  0  0  0  0  0  0  0
    4.6246    0.7593   18.6120 C   0  0  0  0  0  0  0  0  0  0  0  0
   11.3360   -1.5050   22.0650 C   0  0  0  0  0  0  0  0  0  0  0  0
    5.3534    0.9027   17.4423 C   0  0  0  0  0  0  0  0  0  0  0  0
    7.2306   -0.0190   18.3934 C   0  0  0  0  0  0  0  0  0  0  0  0
   10.3220   -0.8940   22.7910 C   0  0  0  0  0  0  0  0  0  0  0  0
    5.2620    0.1939   19.7107 C   0  0  0  0  0  0  0  0  0  0  0  0
    6.5899   -0.2054   19.6077 C   0  0  0  0  0  0  0  0  0  0  0  0
   12.6400   -1.1000   22.2390 C   0  0  0  0  0  0  0  0  0  0  0  0
    8.0714   -4.9634   22.3776 C   0  0  0  0  0  0  0  0  0  0  0  0
    8.5856   -2.6677   22.1983 C   0  0  0  0  0  0  0  0  0  0  0  0
    8.3880   -0.3240   21.3070 C   0  0  0  0  0  0  0  0  0  0  0  0
    4.5002    0.0280   20.9847 C   0  0  0  0  0  0  0  0  0  0  0  0
    7.7169   -6.3247   22.8277 C   0  0  0  0  0  0  0  0  0  0  0  0
    8.8810   -1.1900   22.4510 C   0  0  2  0  0  0  0  0  0  0  0  0
    6.6446    0.5267   17.3042 N   0  0  0  0  0  0  0  0  0  0  0  0
    8.3232   -4.6157   21.1336 N   0  0  0  0  0  0  0  0  0  0  0  0
    8.6258   -3.2694   21.0285 N   0  0  0  0  0  0  0  0  0  0  0  0
    7.2820   -0.7860   20.6970 N   0  0  0  0  0  0  0  0  0  0  0  0
    8.9170    0.7530   21.0260 O   0  0  0  0  0  0  0  0  0  0  0  0
    8.1790   -3.6859   23.5171 S   0  0  0  0  0  0  0  0  0  0  0  0
   13.8840   -1.8490   21.2740 Cl  0  0  0  0  0  0  0  0  0  0  0  0
   12.2249    1.2198   24.6546 H   0  0  0  0  0  0  0  0  0  0  0  0
    9.8763    0.5350   24.3454 H   0  0  0  0  0  0  0  0  0  0  0  0
   14.0077    0.1988   23.2842 H   0  0  0  0  0  0  0  0  0  0  0  0
    3.5899    1.0814   18.6595 H   0  0  0  0  0  0  0  0  0  0  0  0
   11.0892   -2.3009   21.3624 H   0  0  0  0  0  0  0  0  0  0  0  0
    4.9023    1.3382   16.5567 H   0  0  0  0  0  0  0  0  0  0  0  0
    8.2669   -0.3108   18.2506 H   0  0  0  0  0  0  0  0  0  0  0  0
    4.0018   -0.9480   21.0048 H   0  0  0  0  0  0  0  0  0  0  0  0
    5.1636    0.0999   21.8553 H   0  0  0  0  0  0  0  0  0  0  0  0
    3.7403    0.8113   21.0967 H   0  0  0  0  0  0  0  0  0  0  0  0
    8.6178   -6.9024   23.0908 H   0  0  0  0  0  0  0  0  0  0  0  0
    7.0580   -6.3087   23.7122 H   0  0  0  0  0  0  0  0  0  0  0  0
    7.1719   -6.8875   22.0510 H   0  0  0  0  0  0  0  0  0  0  0  0
    8.2658   -0.9007   23.3207 H   0  0  0  0  0  0  0  0  0  0  0  0
    6.8785   -1.6495   21.0540 H   0  0  0  0  0  0  0  0  0  0  0  0
  1  2  2  0  0  0  0
  1  3  1  0  0  0  0
  2  8  1  0  0  0  0
  3 11  2  0  0  0  0
  4  6  2  0  0  0  0
  4  9  1  0  0  0  0
  5  8  2  0  0  0  0
  5 11  1  0  0  0  0
  6 18  1  0  0  0  0
  7 10  1  0  0  0  0
  7 18  2  0  0  0  0
  8 17  1  0  0  0  0
  9 10  2  0  0  0  0
  9 15  1  0  0  0  0
 10 21  1  0  0  0  0
 11 24  1  0  0  0  0
 12 16  1  0  0  0  0
 12 19  2  0  0  0  0
 12 23  1  0  0  0  0
 13 17  1  0  0  0  0
 13 20  2  0  0  0  0
 13 23  1  0  0  0  0
 14 17  1  6  0  0  0
 14 21  1  0  0  0  0
 14 22  2  0  0  0  0
 19 20  1  0  0  0  0
  1 25  1  0  0  0  0
  2 26  1  0  0  0  0
  3 27  1  0  0  0  0
  4 28  1  0  0  0  0
  5 29  1  0  0  0  0
  6 30  1  0  0  0  0
  7 31  1  0  0  0  0
 15 32  1  0  0  0  0
 15 33  1  0  0  0  0
 15 34  1  0  0  0  0
 16 35  1  0  0  0  0
 16 36  1  0  0  0  0
 16 37  1  0  0  0  0
 17 38  1  0  0  0  0
 21 39  1  0  0  0  0
M  END
> <compound>
SAM-UNK-2684b532-3

> <compound_smiles>
Cc1ccncc1NC(=O)C(c2cccc(c2)Cl)c3nnc(s3)C

> <enantiomer_smiles>
Cc1ccncc1NC(=O)[C@H](c2cccc(c2)Cl)c3nnc(s3)C

> <scaffold>
chlorobenzene-linker

> <clash_score>
0

> <docking_score>
-5.923114776611328

> <overlap_score>
0.8394880890846252

> <MMFF_internal_energy>
97.22623311665883

> <docked_smiles>
Cc1ccncc1NC(=O)[C@H](c2cccc(c2)Cl)c3nnc(s3)C

$$$$
PET-UNK-bbe8d7ff-2_1
  -OEChem-07262101013D

 35 36  0     0  0  0  0  0  0999 V2000
    6.2676   -2.0921   22.4576 C   0  0  0  0  0  0  0  0  0  0  0  0
   11.9780    0.4600   23.9150 C   0  0  0  0  0  0  0  0  0  0  0  0
   10.6560    0.0720   23.7350 C   0  0  0  0  0  0  0  0  0  0  0  0
   12.9840   -0.1200   23.1530 C   0  0  0  0  0  0  0  0  0  0  0  0
    5.1343    1.7026   18.8987 C   0  0  0  0  0  0  0  0  0  0  0  0
   11.3360   -1.5050   22.0650 C   0  0  0  0  0  0  0  0  0  0  0  0
    5.5896    1.4647   17.6119 C   0  0  0  0  0  0  0  0  0  0  0  0
    7.0577   -0.1484   18.3336 C   0  0  0  0  0  0  0  0  0  0  0  0
   10.3220   -0.8940   22.7910 C   0  0  0  0  0  0  0  0  0  0  0  0
    5.6907    0.9593   19.9338 C   0  0  0  0  0  0  0  0  0  0  0  0
    6.6714    0.0141   19.6543 C   0  0  0  0  0  0  0  0  0  0  0  0
   12.6400   -1.1000   22.2390 C   0  0  0  0  0  0  0  0  0  0  0  0
    8.3880   -0.3240   21.3070 C   0  0  0  0  0  0  0  0  0  0  0  0
    5.2189    1.1956   21.3310 C   0  0  0  0  0  0  0  0  0  0  0  0
    6.6710   -2.0764   21.0526 C   0  0  0  0  0  0  0  0  0  0  0  0
    8.8810   -1.1900   22.4510 C   0  0  0  0  0  0  0  0  0  0  0  0
    5.9458   -2.1077   23.5723 N   0  0  0  0  0  0  0  0  0  0  0  0
    6.5404    0.5551   17.3015 N   0  0  0  0  0  0  0  0  0  0  0  0
    7.2820   -0.7860   20.6970 N   0  0  0  0  0  0  0  0  0  0  0  0
    8.9170    0.7530   21.0260 O   0  0  0  0  0  0  0  0  0  0  0  0
   13.8840   -1.8490   21.2740 Cl  0  0  0  0  0  0  0  0  0  0  0  0
   12.2249    1.2198   24.6546 H   0  0  0  0  0  0  0  0  0  0  0  0
    9.8763    0.5350   24.3454 H   0  0  0  0  0  0  0  0  0  0  0  0
   14.0077    0.1988   23.2842 H   0  0  0  0  0  0  0  0  0  0  0  0
    4.3678    2.4475   19.0832 H   0  0  0  0  0  0  0  0  0  0  0  0
   11.0892   -2.3009   21.3624 H   0  0  0  0  0  0  0  0  0  0  0  0
    5.1879    2.0181   16.7695 H   0  0  0  0  0  0  0  0  0  0  0  0
    7.8183   -0.8707   18.0520 H   0  0  0  0  0  0  0  0  0  0  0  0
    4.3723    0.5389   21.5622 H   0  0  0  0  0  0  0  0  0  0  0  0
    6.0185    1.0039   22.0570 H   0  0  0  0  0  0  0  0  0  0  0  0
    4.9027    2.2367   21.4717 H   0  0  0  0  0  0  0  0  0  0  0  0
    7.4063   -2.8590   20.8449 H   0  0  0  0  0  0  0  0  0  0  0  0
    5.8110   -2.2277   20.3941 H   0  0  0  0  0  0  0  0  0  0  0  0
    8.7925   -2.2408   22.1686 H   0  0  0  0  0  0  0  0  0  0  0  0
    8.2587   -1.0122   23.3300 H   0  0  0  0  0  0  0  0  0  0  0  0
  1 15  1  0  0  0  0
  1 17  3  0  0  0  0
  2  3  2  0  0  0  0
  2  4  1  0  0  0  0
  3  9  1  0  0  0  0
  4 12  2  0  0  0  0
  5  7  2  0  0  0  0
  5 10  1  0  0  0  0
  6  9  2  0  0  0  0
  6 12  1  0  0  0  0
  7 18  1  0  0  0  0
  8 11  1  0  0  0  0
  8 18  2  0  0  0  0
  9 16  1  0  0  0  0
 10 11  2  0  0  0  0
 10 14  1  0  0  0  0
 11 19  1  0  0  0  0
 12 21  1  0  0  0  0
 13 16  1  0  0  0  0
 13 19  1  0  0  0  0
 13 20  2  0  0  0  0
 15 19  1  0  0  0  0
  2 22  1  0  0  0  0
  3 23  1  0  0  0  0
  4 24  1  0  0  0  0
  5 25  1  0  0  0  0
  6 26  1  0  0  0  0
  7 27  1  0  0  0  0
  8 28  1  0  0  0  0
 14 29  1  0  0  0  0
 14 30  1  0  0  0  0
 14 31  1  0  0  0  0
 15 32  1  0  0  0  0
 15 33  1  0  0  0  0
 16 34  1  0  0  0  0
 16 35  1  0  0  0  0
M  END
> <compound>
PET-UNK-bbe8d7ff-2

> <compound_smiles>
Cc1ccncc1N(CC#N)C(=O)Cc2cccc(c2)Cl

> <enantiomer_smiles>
Cc1ccncc1N(CC#N)C(=O)Cc2cccc(c2)Cl

> <scaffold>
chlorobenzene-linker

> <canonical_CID>
PET-UNK-bbe8d7ff-2

> <r_inhibition_at_20_uM>

> <r_inhibition_at_50_uM>

> <r_avg_IC50>

> <f_inhibition_at_20_uM>

> <f_inhibition_at_50_uM>

> <f_avg_IC50>
99.5

> <f_avg_pIC50>

> <relative_solubility_at_20_uM>

> <relative_solubility_at_100_uM>

> <trypsin_IC50>

> <NMR_std_ratio>

> <acrylamide>
False

> <chloroacetamide>
False

> <series>
3-aminopyridine-like

> <frag_id>

> <clash_score>
0

> <docking_score>
-10.362292289733887

> <overlap_score>
0.8668755888938904

> <MMFF_internal_energy>
101.37697748012008

> <docked_smiles>
Cc1ccncc1N(CC#N)C(=O)Cc2cccc(c2)Cl

$$$$
PET-UNK-bbe8d7ff-1_1
  -OEChem-07262101013D

 36 37  0     0  0  0  0  0  0999 V2000
   11.9780    0.4600   23.9150 C   0  0  0  0  0  0  0  0  0  0  0  0
   10.6560    0.0720   23.7350 C   0  0  0  0  0  0  0  0  0  0  0  0
   12.9840   -0.1200   23.1530 C   0  0  0  0  0  0  0  0  0  0  0  0
    5.1343    1.7026   18.8987 C   0  0  0  0  0  0  0  0  0  0  0  0
   11.3360   -1.5050   22.0650 C   0  0  0  0  0  0  0  0  0  0  0  0
    5.5896    1.4647   17.6119 C   0  0  0  0  0  0  0  0  0  0  0  0
    7.0577   -0.1484   18.3336 C   0  0  0  0  0  0  0  0  0  0  0  0
   10.3220   -0.8940   22.7910 C   0  0  0  0  0  0  0  0  0  0  0  0
    5.6907    0.9593   19.9338 C   0  0  0  0  0  0  0  0  0  0  0  0
    6.6714    0.0141   19.6543 C   0  0  0  0  0  0  0  0  0  0  0  0
   12.6400   -1.1000   22.2390 C   0  0  0  0  0  0  0  0  0  0  0  0
    6.2785   -2.0327   22.5019 C   0  0  0  0  0  0  0  0  0  0  0  0
    8.3880   -0.3240   21.3070 C   0  0  0  0  0  0  0  0  0  0  0  0
    5.2189    1.1956   21.3310 C   0  0  0  0  0  0  0  0  0  0  0  0
    8.8810   -1.1900   22.4510 C   0  0  0  0  0  0  0  0  0  0  0  0
    6.6710   -2.0764   21.0526 C   0  0  0  0  0  0  0  0  0  0  0  0
    6.5404    0.5551   17.3015 N   0  0  0  0  0  0  0  0  0  0  0  0
    7.2820   -0.7860   20.6970 N   0  0  0  0  0  0  0  0  0  0  0  0
    6.2689   -3.0329   23.2149 O   0  0  0  0  0  0  0  0  0  0  0  0
    8.9170    0.7530   21.0260 O   0  0  0  0  0  0  0  0  0  0  0  0
   13.8840   -1.8490   21.2740 Cl  0  0  0  0  0  0  0  0  0  0  0  0
   12.2249    1.2198   24.6546 H   0  0  0  0  0  0  0  0  0  0  0  0
    9.8763    0.5350   24.3454 H   0  0  0  0  0  0  0  0  0  0  0  0
   14.0077    0.1988   23.2842 H   0  0  0  0  0  0  0  0  0  0  0  0
    4.3678    2.4475   19.0832 H   0  0  0  0  0  0  0  0  0  0  0  0
   11.0892   -2.3009   21.3624 H   0  0  0  0  0  0  0  0  0  0  0  0
    5.1879    2.0181   16.7695 H   0  0  0  0  0  0  0  0  0  0  0  0
    7.8183   -0.8707   18.0520 H   0  0  0  0  0  0  0  0  0  0  0  0
    5.9170   -1.0671   22.8952 H   0  0  0  0  0  0  0  0  0  0  0  0
    4.3723    0.5389   21.5622 H   0  0  0  0  0  0  0  0  0  0  0  0
    6.0185    1.0039   22.0570 H   0  0  0  0  0  0  0  0  0  0  0  0
    4.9027    2.2367   21.4717 H   0  0  0  0  0  0  0  0  0  0  0  0
    8.7925   -2.2408   22.1686 H   0  0  0  0  0  0  0  0  0  0  0  0
    8.2587   -1.0122   23.3300 H   0  0  0  0  0  0  0  0  0  0  0  0
    7.3974   -2.8719   20.8757 H   0  0  0  0  0  0  0  0  0  0  0  0
    5.7784   -2.2078   20.4372 H   0  0  0  0  0  0  0  0  0  0  0  0
  1  2  2  0  0  0  0
  1  3  1  0  0  0  0
  2  8  1  0  0  0  0
  3 11  2  0  0  0  0
  4  6  2  0  0  0  0
  4  9  1  0  0  0  0
  5  8  2  0  0  0  0
  5 11  1  0  0  0  0
  6 17  1  0  0  0  0
  7 10  1  0  0  0  0
  7 17  2  0  0  0  0
  8 15  1  0  0  0  0
  9 10  2  0  0  0  0
  9 14  1  0  0  0  0
 10 18  1  0  0  0  0
 11 21  1  0  0  0  0
 12 16  1  0  0  0  0
 12 19  2  0  0  0  0
 13 15  1  0  0  0  0
 13 18  1  0  0  0  0
 13 20  2  0  0  0  0
 16 18  1  0  0  0  0
  1 22  1  0  0  0  0
  2 23  1  0  0  0  0
  3 24  1  0  0  0  0
  4 25  1  0  0  0  0
  5 26  1  0  0  0  0
  6 27  1  0  0  0  0
  7 28  1  0  0  0  0
 12 29  1  0  0  0  0
 14 30  1  0  0  0  0
 14 31  1  0  0  0  0
 14 32  1  0  0  0  0
 15 33  1  0  0  0  0
 15 34  1  0  0  0  0
 16 35  1  0  0  0  0
 16 36  1  0  0  0  0
M  END
> <compound>
PET-UNK-bbe8d7ff-1

> <compound_smiles>
Cc1ccncc1N(CC=O)C(=O)Cc2cccc(c2)Cl

> <enantiomer_smiles>
Cc1ccncc1N(CC=O)C(=O)Cc2cccc(c2)Cl

> <scaffold>
chlorobenzene-linker

> <clash_score>
0

> <docking_score>
-10.586321830749512

> <overlap_score>
0.8669076561927795

> <MMFF_internal_energy>
111.9715453342453

> <docked_smiles>
Cc1ccncc1N(CC=O)C(=O)Cc2cccc(c2)Cl

$$$$
MIC-UNK-66895286-1_1
  -OEChem-07262101013D

 26 27  0     0  0  0  0  0  0999 V2000
   11.9780    0.4600   23.9150 C   0  0  0  0  0  0  0  0  0  0  0  0
   10.6560    0.0720   23.7350 C   0  0  0  0  0  0  0  0  0  0  0  0
   12.9840   -0.1200   23.1530 C   0  0  0  0  0  0  0  0  0  0  0  0
   11.3360   -1.5050   22.0650 C   0  0  0  0  0  0  0  0  0  0  0  0
    6.8841    0.9801   18.9055 C   0  0  0  0  0  0  0  0  0  0  0  0
    5.4610   -0.6936   18.9988 C   0  0  0  0  0  0  0  0  0  0  0  0
   10.3220   -0.8940   22.7910 C   0  0  0  0  0  0  0  0  0  0  0  0
    6.5908   -0.2043   19.6076 C   0  0  0  0  0  0  0  0  0  0  0  0
   12.6400   -1.1000   22.2390 C   0  0  0  0  0  0  0  0  0  0  0  0
    8.3880   -0.3240   21.3070 C   0  0  0  0  0  0  0  0  0  0  0  0
    8.8810   -1.1900   22.4510 C   0  0  0  0  0  0  0  0  0  0  0  0
    6.0111    1.2281   17.9254 N   0  0  0  0  0  0  0  0  0  0  0  0
    5.1582    0.1928   18.0074 N   0  0  0  0  0  0  0  0  0  0  0  0
    7.2820   -0.7860   20.6970 N   0  0  0  0  0  0  0  0  0  0  0  0
    8.9170    0.7530   21.0260 O   0  0  0  0  0  0  0  0  0  0  0  0
   13.8840   -1.8490   21.2740 Cl  0  0  0  0  0  0  0  0  0  0  0  0
   12.2249    1.2198   24.6546 H   0  0  0  0  0  0  0  0  0  0  0  0
    9.8763    0.5350   24.3454 H   0  0  0  0  0  0  0  0  0  0  0  0
   14.0077    0.1988   23.2842 H   0  0  0  0  0  0  0  0  0  0  0  0
   11.0892   -2.3009   21.3624 H   0  0  0  0  0  0  0  0  0  0  0  0
    7.6968    1.6748   19.0648 H   0  0  0  0  0  0  0  0  0  0  0  0
    4.8568   -1.5724   19.1753 H   0  0  0  0  0  0  0  0  0  0  0  0
    8.7709   -2.2387   22.1706 H   0  0  0  0  0  0  0  0  0  0  0  0
    8.2491   -1.0157   23.3232 H   0  0  0  0  0  0  0  0  0  0  0  0
    4.3874    0.1531   17.3524 H   0  0  0  0  0  0  0  0  0  0  0  0
    6.8973   -1.6552   21.0612 H   0  0  0  0  0  0  0  0  0  0  0  0
  1  2  1  0  0  0  0
  1  3  2  0  0  0  0
  2  7  2  0  0  0  0
  3  9  1  0  0  0  0
  4  7  1  0  0  0  0
  4  9  2  0  0  0  0
  5  8  1  0  0  0  0
  5 12  2  0  0  0  0
  6  8  2  0  0  0  0
  6 13  1  0  0  0  0
  7 11  1  0  0  0  0
  8 14  1  0  0  0  0
  9 16  1  0  0  0  0
 10 11  1  0  0  0  0
 10 14  1  0  0  0  0
 10 15  2  0  0  0  0
 12 13  1  0  0  0  0
  1 17  1  0  0  0  0
  2 18  1  0  0  0  0
  3 19  1  0  0  0  0
  4 20  1  0  0  0  0
  5 21  1  0  0  0  0
  6 22  1  0  0  0  0
 11 23  1  0  0  0  0
 11 24  1  0  0  0  0
 13 25  1  0  0  0  0
 14 26  1  0  0  0  0
M  END
> <compound>
MIC-UNK-66895286-1

> <compound_smiles>
c1cc(cc(c1)Cl)CC(=O)Nc2c[nH]nc2

> <enantiomer_smiles>
c1cc(cc(c1)Cl)CC(=O)Nc2c[nH]nc2

> <scaffold>
chlorobenzene-linker

> <canonical_CID>
MIC-UNK-66895286-1

> <r_inhibition_at_20_uM>

> <r_inhibition_at_50_uM>

> <r_avg_IC50>
99.0

> <f_inhibition_at_20_uM>

> <f_inhibition_at_50_uM>

> <f_avg_IC50>
99.5

> <f_avg_pIC50>

> <relative_solubility_at_20_uM>

> <relative_solubility_at_100_uM>

> <trypsin_IC50>

> <NMR_std_ratio>

> <acrylamide>
False

> <chloroacetamide>
False

> <series>
3-aminopyridine-like

> <frag_id>
x11532

> <clash_score>
0

> <docking_score>
-4.693319797515869

> <overlap_score>
0.7356594204902649

> <MMFF_internal_energy>
32.70659937850964

> <docked_smiles>
c1cc(cc(c1)Cl)CC(=O)Nc2c[nH]nc2

$$$$
SAM-UNK-2684b532-12_1
  -OEChem-07262101013D

 31 32  0     0  0  0  0  0  0999 V2000
   11.9780    0.4600   23.9150 C   0  0  0  0  0  0  0  0  0  0  0  0
   10.6560    0.0720   23.7350 C   0  0  0  0  0  0  0  0  0  0  0  0
   12.9840   -0.1200   23.1530 C   0  0  0  0  0  0  0  0  0  0  0  0
    4.6234    0.7522   18.6081 C   0  0  0  0  0  0  0  0  0  0  0  0
   11.3360   -1.5050   22.0650 C   0  0  0  0  0  0  0  0  0  0  0  0
    5.3564    0.9068   17.4425 C   0  0  0  0  0  0  0  0  0  0  0  0
    7.2357   -0.0071   18.3972 C   0  0  0  0  0  0  0  0  0  0  0  0
   10.3220   -0.8940   22.7910 C   0  0  0  0  0  0  0  0  0  0  0  0
    5.2597    0.1852   19.7067 C   0  0  0  0  0  0  0  0  0  0  0  0
    6.5908   -0.2043   19.6076 C   0  0  0  0  0  0  0  0  0  0  0  0
   12.6400   -1.1000   22.2390 C   0  0  0  0  0  0  0  0  0  0  0  0
    8.3880   -0.3240   21.3070 C   0  0  0  0  0  0  0  0  0  0  0  0
    8.8810   -1.1900   22.4510 C   0  0  0  0  0  0  0  0  0  0  0  0
    4.4934    0.0073   20.9763 C   0  0  0  0  0  0  0  0  0  0  0  0
    6.6508    0.5405   17.3083 N   0  0  0  0  0  0  0  0  0  0  0  0
    7.2820   -0.7860   20.6970 N   0  0  0  0  0  0  0  0  0  0  0  0
    8.9170    0.7530   21.0260 O   0  0  0  0  0  0  0  0  0  0  0  0
    3.2020    0.4433   20.8995 F   0  0  0  0  0  0  0  0  0  0  0  0
    4.4086   -1.2928   21.3836 F   0  0  0  0  0  0  0  0  0  0  0  0
    5.0488    0.6850   22.0218 F   0  0  0  0  0  0  0  0  0  0  0  0
   13.8840   -1.8490   21.2740 Cl  0  0  0  0  0  0  0  0  0  0  0  0
   12.2249    1.2198   24.6546 H   0  0  0  0  0  0  0  0  0  0  0  0
    9.8763    0.5350   24.3454 H   0  0  0  0  0  0  0  0  0  0  0  0
   14.0077    0.1988   23.2842 H   0  0  0  0  0  0  0  0  0  0  0  0
    3.5863    1.0668   18.6527 H   0  0  0  0  0  0  0  0  0  0  0  0
   11.0892   -2.3009   21.3624 H   0  0  0  0  0  0  0  0  0  0  0  0
    4.9063    1.3439   16.5573 H   0  0  0  0  0  0  0  0  0  0  0  0
    8.2746   -0.2909   18.2576 H   0  0  0  0  0  0  0  0  0  0  0  0
    8.7709   -2.2387   22.1706 H   0  0  0  0  0  0  0  0  0  0  0  0
    8.2491   -1.0157   23.3232 H   0  0  0  0  0  0  0  0  0  0  0  0
    6.8973   -1.6552   21.0612 H   0  0  0  0  0  0  0  0  0  0  0  0
  1  2  1  0  0  0  0
  1  3  2  0  0  0  0
  2  8  2  0  0  0  0
  3 11  1  0  0  0  0
  4  6  2  0  0  0  0
  4  9  1  0  0  0  0
  5  8  1  0  0  0  0
  5 11  2  0  0  0  0
  6 15  1  0  0  0  0
  7 10  1  0  0  0  0
  7 15  2  0  0  0  0
  8 13  1  0  0  0  0
  9 10  2  0  0  0  0
  9 14  1  0  0  0  0
 10 16  1  0  0  0  0
 11 21  1  0  0  0  0
 12 13  1  0  0  0  0
 12 16  1  0  0  0  0
 12 17  2  0  0  0  0
 14 18  1  0  0  0  0
 14 19  1  0  0  0  0
 14 20  1  0  0  0  0
  1 22  1  0  0  0  0
  2 23  1  0  0  0  0
  3 24  1  0  0  0  0
  4 25  1  0  0  0  0
  5 26  1  0  0  0  0
  6 27  1  0  0  0  0
  7 28  1  0  0  0  0
 13 29  1  0  0  0  0
 13 30  1  0  0  0  0
 16 31  1  0  0  0  0
M  END
> <compound>
SAM-UNK-2684b532-12

> <compound_smiles>
c1cc(cc(c1)Cl)CC(=O)Nc2cnccc2C(F)(F)F

> <enantiomer_smiles>
c1cc(cc(c1)Cl)CC(=O)Nc2cnccc2C(F)(F)F

> <scaffold>
chlorobenzene-linker

> <canonical_CID>
SAM-UNK-2684b532-12

> <r_inhibition_at_20_uM>

> <r_inhibition_at_50_uM>

> <r_avg_IC50>

> <f_inhibition_at_20_uM>

> <f_inhibition_at_50_uM>

> <f_avg_IC50>
18.1606601875142

> <f_avg_pIC50>

> <relative_solubility_at_20_uM>

> <relative_solubility_at_100_uM>

> <trypsin_IC50>

> <NMR_std_ratio>

> <acrylamide>
False

> <chloroacetamide>
False

> <series>
3-aminopyridine-like

> <frag_id>

> <clash_score>
0

> <docking_score>
-7.470080375671387

> <overlap_score>
0.8884056806564331

> <MMFF_internal_energy>
76.91017851691534

> <docked_smiles>
c1cc(cc(c1)Cl)CC(=O)Nc2cnccc2C(F)(F)F

$$$$
MAK-UNK-f203cb68-3_1
  -OEChem-07262101013D

 50 52  0     1  0  0  0  0  0999 V2000
   11.9780    0.4600   23.9150 C   0  0  0  0  0  0  0  0  0  0  0  0
   10.6560    0.0720   23.7350 C   0  0  0  0  0  0  0  0  0  0  0  0
   12.9840   -0.1200   23.1530 C   0  0  0  0  0  0  0  0  0  0  0  0
    7.7692   -4.3725   27.9434 C   0  0  0  0  0  0  0  0  0  0  0  0
    4.9049    1.2468   18.6945 C   0  0  0  0  0  0  0  0  0  0  0  0
   11.3360   -1.5050   22.0650 C   0  0  0  0  0  0  0  0  0  0  0  0
    8.7517   -5.3461   28.0244 C   0  0  0  0  0  0  0  0  0  0  0  0
    5.3192    0.8459   17.4346 C   0  0  0  0  0  0  0  0  0  0  0  0
    9.3875   -5.0130   25.8420 C   0  0  0  0  0  0  0  0  0  0  0  0
    6.9275   -0.5433   18.3074 C   0  0  0  0  0  0  0  0  0  0  0  0
   10.3220   -0.8940   22.7910 C   0  0  0  0  0  0  0  0  0  0  0  0
    7.6141   -3.7034   26.7345 C   0  0  0  0  0  0  0  0  0  0  0  0
    5.5569    0.7054   19.7969 C   0  0  0  0  0  0  0  0  0  0  0  0
    8.4346   -4.0239   25.6587 C   0  0  0  0  0  0  0  0  0  0  0  0
    6.5887   -0.2074   19.6082 C   0  0  0  0  0  0  0  0  0  0  0  0
   12.6400   -1.1000   22.2390 C   0  0  0  0  0  0  0  0  0  0  0  0
    9.0665   -3.5937   23.2618 C   0  0  0  0  0  0  0  0  0  0  0  0
    8.3880   -0.3240   21.3070 C   0  0  0  0  0  0  0  0  0  0  0  0
    6.5621   -2.6495   26.6189 C   0  0  0  0  0  0  0  0  0  0  0  0
    5.1311    1.1204   21.1670 C   0  0  0  0  0  0  0  0  0  0  0  0
    8.6336   -2.6869   22.1179 C   0  0  0  0  0  0  0  0  0  0  0  0
    8.8810   -1.1900   22.4510 C   0  0  1  0  0  0  0  0  0  0  0  0
    9.5678   -5.6848   27.0012 N   0  0  0  0  0  0  0  0  0  0  0  0
    6.3172   -0.0383   17.2118 N   0  0  0  0  0  0  0  0  0  0  0  0
    8.3161   -3.3719   24.4093 N   0  0  0  0  0  0  0  0  0  0  0  0
    7.2820   -0.7860   20.6970 N   0  0  0  0  0  0  0  0  0  0  0  0
   10.0013   -4.3761   23.1153 O   0  0  0  0  0  0  0  0  0  0  0  0
    8.9170    0.7530   21.0260 O   0  0  0  0  0  0  0  0  0  0  0  0
   13.8840   -1.8490   21.2740 Cl  0  0  0  0  0  0  0  0  0  0  0  0
   12.2249    1.2198   24.6546 H   0  0  0  0  0  0  0  0  0  0  0  0
    9.8763    0.5350   24.3454 H   0  0  0  0  0  0  0  0  0  0  0  0
   14.0077    0.1988   23.2842 H   0  0  0  0  0  0  0  0  0  0  0  0
    7.1453   -4.1464   28.8015 H   0  0  0  0  0  0  0  0  0  0  0  0
    4.0966    1.9612   18.8074 H   0  0  0  0  0  0  0  0  0  0  0  0
   11.0892   -2.3009   21.3624 H   0  0  0  0  0  0  0  0  0  0  0  0
    8.9130   -5.8971   28.9452 H   0  0  0  0  0  0  0  0  0  0  0  0
    4.8431    1.2390   16.5423 H   0  0  0  0  0  0  0  0  0  0  0  0
   10.0579   -5.3074   25.0400 H   0  0  0  0  0  0  0  0  0  0  0  0
    7.7240   -1.2505   18.0955 H   0  0  0  0  0  0  0  0  0  0  0  0
    6.9725   -1.6714   26.8955 H   0  0  0  0  0  0  0  0  0  0  0  0
    6.1729   -2.5886   25.5952 H   0  0  0  0  0  0  0  0  0  0  0  0
    5.7086   -2.8683   27.2725 H   0  0  0  0  0  0  0  0  0  0  0  0
    4.3437    0.4543   21.5380 H   0  0  0  0  0  0  0  0  0  0  0  0
    5.9732    1.0918   21.8694 H   0  0  0  0  0  0  0  0  0  0  0  0
    4.7488    2.1487   21.1686 H   0  0  0  0  0  0  0  0  0  0  0  0
    7.5795   -2.8699   21.8756 H   0  0  0  0  0  0  0  0  0  0  0  0
    9.2173   -2.9986   21.2419 H   0  0  0  0  0  0  0  0  0  0  0  0
    8.2844   -0.9629   23.3570 H   0  0  0  0  0  0  0  0  0  0  0  0
    7.5960   -2.6558   24.3433 H   0  0  0  0  0  0  0  0  0  0  0  0
    6.8984   -1.6549   21.0620 H   0  0  0  0  0  0  0  0  0  0  0  0
  1  2  2  0  0  0  0
  1  3  1  0  0  0  0
  2 11  1  0  0  0  0
  3 16  2  0  0  0  0
  4  7  2  0  0  0  0
  4 12  1  0  0  0  0
  5  8  2  0  0  0  0
  5 13  1  0  0  0  0
  6 11  2  0  0  0  0
  6 16  1  0  0  0  0
  7 23  1  0  0  0  0
  8 24  1  0  0  0  0
  9 14  1  0  0  0  0
  9 23  2  0  0  0  0
 10 15  1  0  0  0  0
 10 24  2  0  0  0  0
 11 22  1  0  0  0  0
 12 14  2  0  0  0  0
 12 19  1  0  0  0  0
 13 15  2  0  0  0  0
 13 20  1  0  0  0  0
 14 25  1  0  0  0  0
 15 26  1  0  0  0  0
 16 29  1  0  0  0  0
 17 21  1  0  0  0  0
 17 25  1  0  0  0  0
 17 27  2  0  0  0  0
 18 22  1  0  0  0  0
 18 26  1  0  0  0  0
 18 28  2  0  0  0  0
 21 22  1  1  0  0  0
  1 30  1  0  0  0  0
  2 31  1  0  0  0  0
  3 32  1  0  0  0  0
  4 33  1  0  0  0  0
  5 34  1  0  0  0  0
  6 35  1  0  0  0  0
  7 36  1  0  0  0  0
  8 37  1  0  0  0  0
  9 38  1  0  0  0  0
 10 39  1  0  0  0  0
 19 40  1  0  0  0  0
 19 41  1  0  0  0  0
 19 42  1  0  0  0  0
 20 43  1  0  0  0  0
 20 44  1  0  0  0  0
 20 45  1  0  0  0  0
 21 46  1  0  0  0  0
 21 47  1  0  0  0  0
 22 48  1  0  0  0  0
 25 49  1  0  0  0  0
 26 50  1  0  0  0  0
M  END
> <compound>
MAK-UNK-f203cb68-3

> <compound_smiles>
Cc1ccncc1NC(=O)CC(c2cccc(c2)Cl)C(=O)Nc3cnccc3C

> <enantiomer_smiles>
Cc1ccncc1NC(=O)C[C@@H](c2cccc(c2)Cl)C(=O)Nc3cnccc3C

> <scaffold>
chlorobenzene-linker

> <clash_score>
1.3377405114094385

> <docking_score>
-9.22518253326416

> <overlap_score>
0.8510119318962097

> <MMFF_internal_energy>
104.28535849507719

> <docked_smiles>
Cc1ccncc1NC(=O)C[C@@H](c2cccc(c2)Cl)C(=O)Nc3cnccc3C

$$$$
MAK-UNK-f203cb68-18_1
  -OEChem-07262101013D

 50 52  0     0  0  0  0  0  0999 V2000
   11.9780    0.4600   23.9150 C   0  0  0  0  0  0  0  0  0  0  0  0
   10.6560    0.0720   23.7350 C   0  0  0  0  0  0  0  0  0  0  0  0
   12.9840   -0.1200   23.1530 C   0  0  0  0  0  0  0  0  0  0  0  0
    6.4502   -3.6431   27.6043 C   0  0  0  0  0  0  0  0  0  0  0  0
    4.6191    0.7464   18.6090 C   0  0  0  0  0  0  0  0  0  0  0  0
   11.3360   -1.5050   22.0650 C   0  0  0  0  0  0  0  0  0  0  0  0
    5.8111   -2.5140   28.0907 C   0  0  0  0  0  0  0  0  0  0  0  0
    5.3507    0.9006   17.4424 C   0  0  0  0  0  0  0  0  0  0  0  0
    6.5193   -1.2391   26.3155 C   0  0  0  0  0  0  0  0  0  0  0  0
    7.2321   -0.0097   18.3962 C   0  0  0  0  0  0  0  0  0  0  0  0
   10.3220   -0.8940   22.7910 C   0  0  0  0  0  0  0  0  0  0  0  0
    7.1515   -3.5299   26.4091 C   0  0  0  0  0  0  0  0  0  0  0  0
    5.2573    0.1815   19.7076 C   0  0  0  0  0  0  0  0  0  0  0  0
    7.1918   -2.3084   25.7461 C   0  0  0  0  0  0  0  0  0  0  0  0
    6.5888   -0.2064   19.6075 C   0  0  0  0  0  0  0  0  0  0  0  0
   12.6400   -1.1000   22.2390 C   0  0  0  0  0  0  0  0  0  0  0  0
    8.0130   -0.9844   23.7617 C   0  0  0  0  0  0  0  0  0  0  0  0
    8.3880   -0.3240   21.3070 C   0  0  0  0  0  0  0  0  0  0  0  0
    7.8504   -4.7312   25.8621 C   0  0  0  0  0  0  0  0  0  0  0  0
    4.4925    0.0041   20.9781 C   0  0  0  0  0  0  0  0  0  0  0  0
    8.6485   -2.6940   22.0565 C   0  0  0  0  0  0  0  0  0  0  0  0
    8.8810   -1.1900   22.4510 C   0  0  0  0  0  0  0  0  0  0  0  0
    5.8276   -1.3107   27.4749 N   0  0  0  0  0  0  0  0  0  0  0  0
    6.6454    0.5358   17.3072 N   0  0  0  0  0  0  0  0  0  0  0  0
    7.8916   -2.1427   24.5268 N   0  0  0  0  0  0  0  0  0  0  0  0
    7.2820   -0.7860   20.6970 N   0  0  0  0  0  0  0  0  0  0  0  0
    7.5210    0.1097   24.0324 O   0  0  0  0  0  0  0  0  0  0  0  0
    8.9170    0.7530   21.0260 O   0  0  0  0  0  0  0  0  0  0  0  0
   13.8840   -1.8490   21.2740 Cl  0  0  0  0  0  0  0  0  0  0  0  0
   12.2249    1.2198   24.6546 H   0  0  0  0  0  0  0  0  0  0  0  0
    9.8763    0.5350   24.3454 H   0  0  0  0  0  0  0  0  0  0  0  0
   14.0077    0.1988   23.2842 H   0  0  0  0  0  0  0  0  0  0  0  0
    6.3996   -4.5814   28.1461 H   0  0  0  0  0  0  0  0  0  0  0  0
    3.5816    1.0597   18.6543 H   0  0  0  0  0  0  0  0  0  0  0  0
   11.0892   -2.3009   21.3624 H   0  0  0  0  0  0  0  0  0  0  0  0
    5.2507   -2.5497   29.0191 H   0  0  0  0  0  0  0  0  0  0  0  0
    4.8990    1.3361   16.5572 H   0  0  0  0  0  0  0  0  0  0  0  0
    6.5133   -0.2602   25.8453 H   0  0  0  0  0  0  0  0  0  0  0  0
    8.2713   -0.2924   18.2558 H   0  0  0  0  0  0  0  0  0  0  0  0
    7.1800   -5.2925   25.2011 H   0  0  0  0  0  0  0  0  0  0  0  0
    8.7436   -4.4452   25.2931 H   0  0  0  0  0  0  0  0  0  0  0  0
    8.1846   -5.3964   26.6680 H   0  0  0  0  0  0  0  0  0  0  0  0
    4.0020   -0.9760   20.9925 H   0  0  0  0  0  0  0  0  0  0  0  0
    5.1523    0.0778   21.8514 H   0  0  0  0  0  0  0  0  0  0  0  0
    3.7258    0.7806   21.0908 H   0  0  0  0  0  0  0  0  0  0  0  0
    7.5941   -2.8979   21.8336 H   0  0  0  0  0  0  0  0  0  0  0  0
    9.2214   -2.9502   21.1574 H   0  0  0  0  0  0  0  0  0  0  0  0
    8.9633   -3.3974   22.8356 H   0  0  0  0  0  0  0  0  0  0  0  0
    8.3626   -2.9686   24.1657 H   0  0  0  0  0  0  0  0  0  0  0  0
    6.8985   -1.6543   21.0616 H   0  0  0  0  0  0  0  0  0  0  0  0
  1  2  2  0  0  0  0
  1  3  1  0  0  0  0
  2 11  1  0  0  0  0
  3 16  2  0  0  0  0
  4  7  2  0  0  0  0
  4 12  1  0  0  0  0
  5  8  2  0  0  0  0
  5 13  1  0  0  0  0
  6 11  2  0  0  0  0
  6 16  1  0  0  0  0
  7 23  1  0  0  0  0
  8 24  1  0  0  0  0
  9 14  1  0  0  0  0
  9 23  2  0  0  0  0
 10 15  1  0  0  0  0
 10 24  2  0  0  0  0
 11 22  1  0  0  0  0
 12 14  2  0  0  0  0
 12 19  1  0  0  0  0
 13 15  2  0  0  0  0
 13 20  1  0  0  0  0
 14 25  1  0  0  0  0
 15 26  1  0  0  0  0
 16 29  1  0  0  0  0
 17 22  1  0  0  0  0
 17 25  1  0  0  0  0
 17 27  2  0  0  0  0
 18 22  1  0  0  0  0
 18 26  1  0  0  0  0
 18 28  2  0  0  0  0
 21 22  1  0  0  0  0
  1 30  1  0  0  0  0
  2 31  1  0  0  0  0
  3 32  1  0  0  0  0
  4 33  1  0  0  0  0
  5 34  1  0  0  0  0
  6 35  1  0  0  0  0
  7 36  1  0  0  0  0
  8 37  1  0  0  0  0
  9 38  1  0  0  0  0
 10 39  1  0  0  0  0
 19 40  1  0  0  0  0
 19 41  1  0  0  0  0
 19 42  1  0  0  0  0
 20 43  1  0  0  0  0
 20 44  1  0  0  0  0
 20 45  1  0  0  0  0
 21 46  1  0  0  0  0
 21 47  1  0  0  0  0
 21 48  1  0  0  0  0
 25 49  1  0  0  0  0
 26 50  1  0  0  0  0
M  END
> <compound>
MAK-UNK-f203cb68-18

> <compound_smiles>
Cc1ccncc1NC(=O)C(C)(c2cccc(c2)Cl)C(=O)Nc3cnccc3C

> <enantiomer_smiles>
Cc1ccncc1NC(=O)C(C)(c2cccc(c2)Cl)C(=O)Nc3cnccc3C

> <scaffold>
chlorobenzene-linker

> <clash_score>
0

> <docking_score>
-7.755577087402344

> <overlap_score>
0.840345561504364

> <MMFF_internal_energy>
144.7465028051368

> <docked_smiles>
Cc1ccncc1NC(=O)C(C)(c2cccc(c2)Cl)C(=O)Nc3cnccc3C

$$$$
ADA-UCB-6c2cb422-1_1
  -OEChem-07262101013D

 34 36  0     0  0  0  0  0  0999 V2000
    4.8624    3.6148   19.7221 C   0  0  0  0  0  0  0  0  0  0  0  0
    5.5348    3.1330   20.8427 C   0  0  0  0  0  0  0  0  0  0  0  0
   11.9780    0.4600   23.9150 C   0  0  0  0  0  0  0  0  0  0  0  0
    4.7639    2.8279   18.5748 C   0  0  0  0  0  0  0  0  0  0  0  0
    6.1120    1.8621   20.8212 C   0  0  0  0  0  0  0  0  0  0  0  0
   10.6560    0.0720   23.7350 C   0  0  0  0  0  0  0  0  0  0  0  0
   12.9840   -0.1200   23.1530 C   0  0  0  0  0  0  0  0  0  0  0  0
   11.3360   -1.5050   22.0650 C   0  0  0  0  0  0  0  0  0  0  0  0
    5.2724    0.7181   17.4208 C   0  0  0  0  0  0  0  0  0  0  0  0
    6.4587   -0.9561   18.4527 C   0  0  0  0  0  0  0  0  0  0  0  0
    5.3407    1.5475   18.5420 C   0  0  0  0  0  0  0  0  0  0  0  0
    6.0224    1.0562   19.6745 C   0  0  0  0  0  0  0  0  0  0  0  0
   10.3220   -0.8940   22.7910 C   0  0  0  0  0  0  0  0  0  0  0  0
    6.5902   -0.2221   19.6216 C   0  0  0  0  0  0  0  0  0  0  0  0
   12.6400   -1.1000   22.2390 C   0  0  0  0  0  0  0  0  0  0  0  0
    8.3880   -0.3240   21.3070 C   0  0  0  0  0  0  0  0  0  0  0  0
    8.8810   -1.1900   22.4510 C   0  0  0  0  0  0  0  0  0  0  0  0
    5.8141   -0.5188   17.3500 N   0  0  0  0  0  0  0  0  0  0  0  0
    7.2820   -0.7860   20.6970 N   0  0  0  0  0  0  0  0  0  0  0  0
    8.9170    0.7530   21.0260 O   0  0  0  0  0  0  0  0  0  0  0  0
   13.8840   -1.8490   21.2740 Cl  0  0  0  0  0  0  0  0  0  0  0  0
    4.4141    4.6038   19.7417 H   0  0  0  0  0  0  0  0  0  0  0  0
    5.6102    3.7474   21.7354 H   0  0  0  0  0  0  0  0  0  0  0  0
   12.2249    1.2198   24.6546 H   0  0  0  0  0  0  0  0  0  0  0  0
    4.2352    3.2195   17.7088 H   0  0  0  0  0  0  0  0  0  0  0  0
    6.6291    1.5215   21.7152 H   0  0  0  0  0  0  0  0  0  0  0  0
    9.8763    0.5350   24.3454 H   0  0  0  0  0  0  0  0  0  0  0  0
   14.0077    0.1988   23.2842 H   0  0  0  0  0  0  0  0  0  0  0  0
   11.0892   -2.3009   21.3624 H   0  0  0  0  0  0  0  0  0  0  0  0
    4.7622    1.0349   16.5153 H   0  0  0  0  0  0  0  0  0  0  0  0
    6.8808   -1.9530   18.3618 H   0  0  0  0  0  0  0  0  0  0  0  0
    8.7775   -2.2383   22.1732 H   0  0  0  0  0  0  0  0  0  0  0  0
    8.2557   -1.0153   23.3257 H   0  0  0  0  0  0  0  0  0  0  0  0
    6.8981   -1.6619   21.0675 H   0  0  0  0  0  0  0  0  0  0  0  0
  1  2  1  0  0  0  0
  1  4  2  0  0  0  0
  2  5  2  0  0  0  0
  3  6  2  0  0  0  0
  3  7  1  0  0  0  0
  4 11  1  0  0  0  0
  5 12  1  0  0  0  0
  6 13  1  0  0  0  0
  7 15  2  0  0  0  0
  8 13  2  0  0  0  0
  8 15  1  0  0  0  0
  9 11  2  0  0  0  0
  9 18  1  0  0  0  0
 10 14  1  0  0  0  0
 10 18  2  0  0  0  0
 11 12  1  0  0  0  0
 12 14  2  0  0  0  0
 13 17  1  0  0  0  0
 14 19  1  0  0  0  0
 15 21  1  0  0  0  0
 16 17  1  0  0  0  0
 16 19  1  0  0  0  0
 16 20  2  0  0  0  0
  1 22  1  0  0  0  0
  2 23  1  0  0  0  0
  3 24  1  0  0  0  0
  4 25  1  0  0  0  0
  5 26  1  0  0  0  0
  6 27  1  0  0  0  0
  7 28  1  0  0  0  0
  8 29  1  0  0  0  0
  9 30  1  0  0  0  0
 10 31  1  0  0  0  0
 17 32  1  0  0  0  0
 17 33  1  0  0  0  0
 19 34  1  0  0  0  0
M  END
> <compound>
ADA-UCB-6c2cb422-1

> <compound_smiles>
c1ccc2c(c1)cncc2NC(=O)Cc3cccc(c3)Cl

> <enantiomer_smiles>
c1ccc2c(c1)cncc2NC(=O)Cc3cccc(c3)Cl

> <scaffold>
chlorobenzene-linker

> <canonical_CID>
ADA-UCB-6c2cb422-1

> <r_inhibition_at_20_uM>

> <r_inhibition_at_50_uM>

> <r_avg_IC50>
1.05671848570431

> <f_inhibition_at_20_uM>

> <f_inhibition_at_50_uM>

> <f_avg_IC50>
0.728189436932629

> <f_avg_pIC50>

> <relative_solubility_at_20_uM>

> <relative_solubility_at_100_uM>

> <trypsin_IC50>
99.0

> <NMR_std_ratio>

> <acrylamide>
False

> <chloroacetamide>
False

> <series>
3-aminopyridine-like

> <frag_id>
x10959

> <clash_score>
0.6448568279069334

> <docking_score>
-5.692281723022461

> <overlap_score>
0.8405879139900208

> <MMFF_internal_energy>
97.1558658156041

> <docked_smiles>
c1ccc2c(c1)cncc2NC(=O)Cc3cccc(c3)Cl

$$$$
VLA-UCB-00f2c2b3-7_1
  -OEChem-07262101013D

 32 34  0     0  0  0  0  0  0999 V2000
   11.9780    0.4600   23.9150 C   0  0  0  0  0  0  0  0  0  0  0  0
    6.5617    0.5303   17.3102 C   0  0  0  0  0  0  0  0  0  0  0  0
   10.6560    0.0720   23.7350 C   0  0  0  0  0  0  0  0  0  0  0  0
    5.2207    0.9151   17.4109 C   0  0  0  0  0  0  0  0  0  0  0  0
    7.2366   -0.0300   18.3965 C   0  0  0  0  0  0  0  0  0  0  0  0
   12.9840   -0.1200   23.1530 C   0  0  0  0  0  0  0  0  0  0  0  0
   11.3360   -1.5050   22.0650 C   0  0  0  0  0  0  0  0  0  0  0  0
    4.2604    0.1358   20.7534 C   0  0  0  0  0  0  0  0  0  0  0  0
    5.2431    0.1567   19.7403 C   0  0  0  0  0  0  0  0  0  0  0  0
   10.3220   -0.8940   22.7910 C   0  0  0  0  0  0  0  0  0  0  0  0
    4.5949    0.7123   18.6429 C   0  0  0  0  0  0  0  0  0  0  0  0
    6.5902   -0.2246   19.6236 C   0  0  0  0  0  0  0  0  0  0  0  0
   12.6400   -1.1000   22.2390 C   0  0  0  0  0  0  0  0  0  0  0  0
    8.3880   -0.3240   21.3070 C   0  0  0  0  0  0  0  0  0  0  0  0
    8.8810   -1.1900   22.4510 C   0  0  0  0  0  0  0  0  0  0  0  0
    3.0884    0.6306   20.3489 N   0  0  0  0  0  0  0  0  0  0  0  0
    3.3204    0.9708   19.0701 N   0  0  0  0  0  0  0  0  0  0  0  0
    7.2820   -0.7860   20.6970 N   0  0  0  0  0  0  0  0  0  0  0  0
    8.9170    0.7530   21.0260 O   0  0  0  0  0  0  0  0  0  0  0  0
   13.8840   -1.8490   21.2740 Cl  0  0  0  0  0  0  0  0  0  0  0  0
   12.2249    1.2198   24.6546 H   0  0  0  0  0  0  0  0  0  0  0  0
    7.0870    0.6705   16.3687 H   0  0  0  0  0  0  0  0  0  0  0  0
    9.8763    0.5350   24.3454 H   0  0  0  0  0  0  0  0  0  0  0  0
    4.6948    1.3499   16.5683 H   0  0  0  0  0  0  0  0  0  0  0  0
    8.2798   -0.3158   18.2771 H   0  0  0  0  0  0  0  0  0  0  0  0
   14.0077    0.1988   23.2842 H   0  0  0  0  0  0  0  0  0  0  0  0
   11.0892   -2.3009   21.3624 H   0  0  0  0  0  0  0  0  0  0  0  0
    4.3498   -0.2200   21.7701 H   0  0  0  0  0  0  0  0  0  0  0  0
    8.7774   -2.2383   22.1732 H   0  0  0  0  0  0  0  0  0  0  0  0
    8.2557   -1.0153   23.3257 H   0  0  0  0  0  0  0  0  0  0  0  0
    2.5611    1.3788   18.5390 H   0  0  0  0  0  0  0  0  0  0  0  0
    6.8983   -1.6629   21.0684 H   0  0  0  0  0  0  0  0  0  0  0  0
  1  3  1  0  0  0  0
  1  6  2  0  0  0  0
  2  4  1  0  0  0  0
  2  5  2  0  0  0  0
  3 10  2  0  0  0  0
  4 11  2  0  0  0  0
  5 12  1  0  0  0  0
  6 13  1  0  0  0  0
  7 10  1  0  0  0  0
  7 13  2  0  0  0  0
  8  9  1  0  0  0  0
  8 16  2  0  0  0  0
  9 11  1  0  0  0  0
  9 12  2  0  0  0  0
 10 15  1  0  0  0  0
 11 17  1  0  0  0  0
 12 18  1  0  0  0  0
 13 20  1  0  0  0  0
 14 15  1  0  0  0  0
 14 18  1  0  0  0  0
 14 19  2  0  0  0  0
 16 17  1  0  0  0  0
  1 21  1  0  0  0  0
  2 22  1  0  0  0  0
  3 23  1  0  0  0  0
  4 24  1  0  0  0  0
  5 25  1  0  0  0  0
  6 26  1  0  0  0  0
  7 27  1  0  0  0  0
  8 28  1  0  0  0  0
 15 29  1  0  0  0  0
 15 30  1  0  0  0  0
 17 31  1  0  0  0  0
 18 32  1  0  0  0  0
M  END
> <compound>
VLA-UCB-00f2c2b3-7

> <compound_smiles>
c1cc(cc(c1)Cl)CC(=O)Nc2cccc3c2cn[nH]3

> <enantiomer_smiles>
c1cc(cc(c1)Cl)CC(=O)Nc2cccc3c2cn[nH]3

> <scaffold>
chlorobenzene-linker

> <canonical_CID>
VLA-UCB-00f2c2b3-7

> <r_inhibition_at_20_uM>

> <r_inhibition_at_50_uM>

> <r_avg_IC50>
23.6029100682607

> <f_inhibition_at_20_uM>

> <f_inhibition_at_50_uM>

> <f_avg_IC50>
99.5

> <f_avg_pIC50>

> <relative_solubility_at_20_uM>

> <relative_solubility_at_100_uM>

> <trypsin_IC50>

> <NMR_std_ratio>

> <acrylamide>
False

> <chloroacetamide>
False

> <series>
3-aminopyridine-like

> <frag_id>
x11424

> <clash_score>
0

> <docking_score>
-3.2508997917175293

> <overlap_score>
0.8807032704353333

> <MMFF_internal_energy>
72.06837533189554

> <docked_smiles>
c1cc(cc(c1)Cl)CC(=O)Nc2cccc3c2cn[nH]3

$$$$
MAK-UNK-f203cb68-3_2
  -OEChem-07262101013D

 50 52  0     1  0  0  0  0  0999 V2000
   11.9780    0.4600   23.9150 C   0  0  0  0  0  0  0  0  0  0  0  0
   10.6560    0.0720   23.7350 C   0  0  0  0  0  0  0  0  0  0  0  0
   12.9840   -0.1200   23.1530 C   0  0  0  0  0  0  0  0  0  0  0  0
    5.9602   -5.4758   27.3707 C   0  0  0  0  0  0  0  0  0  0  0  0
    4.9049    1.2468   18.6945 C   0  0  0  0  0  0  0  0  0  0  0  0
   11.3360   -1.5050   22.0650 C   0  0  0  0  0  0  0  0  0  0  0  0
    7.1770   -6.0529   27.6964 C   0  0  0  0  0  0  0  0  0  0  0  0
    5.3192    0.8459   17.4346 C   0  0  0  0  0  0  0  0  0  0  0  0
    8.3240   -4.6391   26.2951 C   0  0  0  0  0  0  0  0  0  0  0  0
    6.9275   -0.5433   18.3074 C   0  0  0  0  0  0  0  0  0  0  0  0
   10.3220   -0.8940   22.7910 C   0  0  0  0  0  0  0  0  0  0  0  0
    5.9606   -4.4282   26.4565 C   0  0  0  0  0  0  0  0  0  0  0  0
    5.5569    0.7054   19.7969 C   0  0  0  0  0  0  0  0  0  0  0  0
    7.1609   -3.9959   25.9036 C   0  0  0  0  0  0  0  0  0  0  0  0
    6.5887   -0.2074   19.6082 C   0  0  0  0  0  0  0  0  0  0  0  0
   12.6400   -1.1000   22.2390 C   0  0  0  0  0  0  0  0  0  0  0  0
    8.2510   -2.0338   24.7673 C   0  0  0  0  0  0  0  0  0  0  0  0
    8.3880   -0.3240   21.3070 C   0  0  0  0  0  0  0  0  0  0  0  0
    4.6629   -3.7880   26.0869 C   0  0  0  0  0  0  0  0  0  0  0  0
    5.1311    1.1204   21.1670 C   0  0  0  0  0  0  0  0  0  0  0  0
    7.9257   -1.0343   23.6658 C   0  0  0  0  0  0  0  0  0  0  0  0
    8.8810   -1.1900   22.4510 C   0  0  2  0  0  0  0  0  0  0  0  0
    8.3631   -5.6602   27.1802 N   0  0  0  0  0  0  0  0  0  0  0  0
    6.3173   -0.0383   17.2118 N   0  0  0  0  0  0  0  0  0  0  0  0
    7.2135   -2.9346   24.9704 N   0  0  0  0  0  0  0  0  0  0  0  0
    7.2820   -0.7860   20.6970 N   0  0  0  0  0  0  0  0  0  0  0  0
    9.3130   -1.9609   25.3791 O   0  0  0  0  0  0  0  0  0  0  0  0
    8.9170    0.7530   21.0260 O   0  0  0  0  0  0  0  0  0  0  0  0
   13.8840   -1.8490   21.2740 Cl  0  0  0  0  0  0  0  0  0  0  0  0
   12.2249    1.2198   24.6546 H   0  0  0  0  0  0  0  0  0  0  0  0
    9.8763    0.5350   24.3454 H   0  0  0  0  0  0  0  0  0  0  0  0
   14.0077    0.1988   23.2842 H   0  0  0  0  0  0  0  0  0  0  0  0
    5.0412   -5.8368   27.8199 H   0  0  0  0  0  0  0  0  0  0  0  0
    4.0966    1.9612   18.8074 H   0  0  0  0  0  0  0  0  0  0  0  0
   11.0892   -2.3009   21.3624 H   0  0  0  0  0  0  0  0  0  0  0  0
    7.2307   -6.8735   28.4043 H   0  0  0  0  0  0  0  0  0  0  0  0
    4.8431    1.2390   16.5423 H   0  0  0  0  0  0  0  0  0  0  0  0
    9.2921   -4.3469   25.8990 H   0  0  0  0  0  0  0  0  0  0  0  0
    7.7240   -1.2505   18.0955 H   0  0  0  0  0  0  0  0  0  0  0  0
    4.4451   -2.9531   26.7630 H   0  0  0  0  0  0  0  0  0  0  0  0
    4.6873   -3.4076   25.0583 H   0  0  0  0  0  0  0  0  0  0  0  0
    3.8363   -4.5073   26.1418 H   0  0  0  0  0  0  0  0  0  0  0  0
    4.3437    0.4543   21.5380 H   0  0  0  0  0  0  0  0  0  0  0  0
    5.9732    1.0918   21.8694 H   0  0  0  0  0  0  0  0  0  0  0  0
    4.7488    2.1487   21.1686 H   0  0  0  0  0  0  0  0  0  0  0  0
    7.9461   -0.0145   24.0698 H   0  0  0  0  0  0  0  0  0  0  0  0
    6.8885   -1.2344   23.3668 H   0  0  0  0  0  0  0  0  0  0  0  0
    8.8361   -2.2535   22.1425 H   0  0  0  0  0  0  0  0  0  0  0  0
    6.3946   -2.8171   24.3777 H   0  0  0  0  0  0  0  0  0  0  0  0
    6.8984   -1.6549   21.0620 H   0  0  0  0  0  0  0  0  0  0  0  0
  1  2  2  0  0  0  0
  1  3  1  0  0  0  0
  2 11  1  0  0  0  0
  3 16  2  0  0  0  0
  4  7  2  0  0  0  0
  4 12  1  0  0  0  0
  5  8  2  0  0  0  0
  5 13  1  0  0  0  0
  6 11  2  0  0  0  0
  6 16  1  0  0  0  0
  7 23  1  0  0  0  0
  8 24  1  0  0  0  0
  9 14  1  0  0  0  0
  9 23  2  0  0  0  0
 10 15  1  0  0  0  0
 10 24  2  0  0  0  0
 11 22  1  0  0  0  0
 12 14  2  0  0  0  0
 12 19  1  0  0  0  0
 13 15  2  0  0  0  0
 13 20  1  0  0  0  0
 14 25  1  0  0  0  0
 15 26  1  0  0  0  0
 16 29  1  0  0  0  0
 17 21  1  0  0  0  0
 17 25  1  0  0  0  0
 17 27  2  0  0  0  0
 18 22  1  0  0  0  0
 18 26  1  0  0  0  0
 18 28  2  0  0  0  0
 21 22  1  6  0  0  0
  1 30  1  0  0  0  0
  2 31  1  0  0  0  0
  3 32  1  0  0  0  0
  4 33  1  0  0  0  0
  5 34  1  0  0  0  0
  6 35  1  0  0  0  0
  7 36  1  0  0  0  0
  8 37  1  0  0  0  0
  9 38  1  0  0  0  0
 10 39  1  0  0  0  0
 19 40  1  0  0  0  0
 19 41  1  0  0  0  0
 19 42  1  0  0  0  0
 20 43  1  0  0  0  0
 20 44  1  0  0  0  0
 20 45  1  0  0  0  0
 21 46  1  0  0  0  0
 21 47  1  0  0  0  0
 22 48  1  0  0  0  0
 25 49  1  0  0  0  0
 26 50  1  0  0  0  0
M  END
> <compound>
MAK-UNK-f203cb68-3

> <compound_smiles>
Cc1ccncc1NC(=O)CC(c2cccc(c2)Cl)C(=O)Nc3cnccc3C

> <enantiomer_smiles>
Cc1ccncc1NC(=O)C[C@H](c2cccc(c2)Cl)C(=O)Nc3cnccc3C

> <scaffold>
chlorobenzene-linker

> <clash_score>
0

> <docking_score>
-10.057977676391602

> <overlap_score>
0.8511443138122559

> <MMFF_internal_energy>
102.61816843895323

> <docked_smiles>
Cc1ccncc1NC(=O)C[C@H](c2cccc(c2)Cl)C(=O)Nc3cnccc3C

$$$$
BRU-CON-67e07230-1_2
  -OEChem-07262101013D

 35 37  0     1  0  0  0  0  0999 V2000
   11.9780    0.4600   23.9150 C   0  0  0  0  0  0  0  0  0  0  0  0
   10.6560    0.0720   23.7350 C   0  0  0  0  0  0  0  0  0  0  0  0
   12.9840   -0.1200   23.1530 C   0  0  0  0  0  0  0  0  0  0  0  0
   11.3360   -1.5050   22.0650 C   0  0  0  0  0  0  0  0  0  0  0  0
    4.9978    0.1500   18.1717 C   0  0  0  0  0  0  0  0  0  0  0  0
   10.3220   -0.8940   22.7910 C   0  0  0  0  0  0  0  0  0  0  0  0
   12.6400   -1.1000   22.2390 C   0  0  0  0  0  0  0  0  0  0  0  0
    6.5412   -0.1632   19.6647 C   0  0  0  0  0  0  0  0  0  0  0  0
    8.3880   -0.3240   21.3070 C   0  0  0  0  0  0  0  0  0  0  0  0
    4.1682   -2.8521   18.3980 C   0  0  0  0  0  0  0  0  0  0  0  0
    3.3167   -2.1678   19.4210 C   0  0  0  0  0  0  0  0  0  0  0  0
    4.8166   -1.9916   19.4571 C   0  0  0  0  0  0  0  0  0  0  0  0
    7.9670   -1.0352   23.6784 C   0  0  0  0  0  0  0  0  0  0  0  0
    8.8810   -1.1900   22.4510 C   0  0  2  0  0  0  0  0  0  0  0  0
    5.7970    1.1923   18.1379 N   0  0  0  0  0  0  0  0  0  0  0  0
    6.7789    0.9931   19.0877 N   0  0  0  0  0  0  0  0  0  0  0  0
    5.4290   -0.7286   19.1187 N   0  0  0  0  0  0  0  0  0  0  0  0
    7.2820   -0.7860   20.6970 N   0  0  0  0  0  0  0  0  0  0  0  0
    8.9170    0.7530   21.0260 O   0  0  0  0  0  0  0  0  0  0  0  0
   13.8840   -1.8490   21.2740 Cl  0  0  0  0  0  0  0  0  0  0  0  0
   12.2249    1.2198   24.6546 H   0  0  0  0  0  0  0  0  0  0  0  0
    9.8763    0.5350   24.3454 H   0  0  0  0  0  0  0  0  0  0  0  0
   14.0077    0.1988   23.2842 H   0  0  0  0  0  0  0  0  0  0  0  0
   11.0892   -2.3009   21.3624 H   0  0  0  0  0  0  0  0  0  0  0  0
    4.1257   -0.0132   17.5546 H   0  0  0  0  0  0  0  0  0  0  0  0
    4.2899   -3.9255   18.4789 H   0  0  0  0  0  0  0  0  0  0  0  0
    4.1314   -2.4810   17.3812 H   0  0  0  0  0  0  0  0  0  0  0  0
    2.7069   -1.3348   19.0931 H   0  0  0  0  0  0  0  0  0  0  0  0
    2.8635   -2.7786   20.1924 H   0  0  0  0  0  0  0  0  0  0  0  0
    5.3507   -2.5082   20.2468 H   0  0  0  0  0  0  0  0  0  0  0  0
    8.0088   -0.0193   24.0871 H   0  0  0  0  0  0  0  0  0  0  0  0
    6.9216   -1.2406   23.4222 H   0  0  0  0  0  0  0  0  0  0  0  0
    8.2585   -1.7315   24.4726 H   0  0  0  0  0  0  0  0  0  0  0  0
    8.7806   -2.2413   22.1242 H   0  0  0  0  0  0  0  0  0  0  0  0
    6.9219   -1.6865   21.0056 H   0  0  0  0  0  0  0  0  0  0  0  0
  1  2  2  0  0  0  0
  1  3  1  0  0  0  0
  2  6  1  0  0  0  0
  3  7  2  0  0  0  0
  4  6  2  0  0  0  0
  4  7  1  0  0  0  0
  5 15  2  0  0  0  0
  5 17  1  0  0  0  0
  6 14  1  0  0  0  0
  7 20  1  0  0  0  0
  8 16  2  0  0  0  0
  8 17  1  0  0  0  0
  8 18  1  0  0  0  0
  9 14  1  0  0  0  0
  9 18  1  0  0  0  0
  9 19  2  0  0  0  0
 10 11  1  0  0  0  0
 10 12  1  0  0  0  0
 11 12  1  0  0  0  0
 12 17  1  0  0  0  0
 13 14  1  6  0  0  0
 15 16  1  0  0  0  0
  1 21  1  0  0  0  0
  2 22  1  0  0  0  0
  3 23  1  0  0  0  0
  4 24  1  0  0  0  0
  5 25  1  0  0  0  0
 10 26  1  0  0  0  0
 10 27  1  0  0  0  0
 11 28  1  0  0  0  0
 11 29  1  0  0  0  0
 12 30  1  0  0  0  0
 13 31  1  0  0  0  0
 13 32  1  0  0  0  0
 13 33  1  0  0  0  0
 14 34  1  0  0  0  0
 18 35  1  0  0  0  0
M  END
> <compound>
BRU-CON-67e07230-1

> <compound_smiles>
CC(c1cccc(c1)Cl)C(=O)Nc2nncn2C3CC3

> <enantiomer_smiles>
C[C@H](c1cccc(c1)Cl)C(=O)Nc2nncn2C3CC3

> <scaffold>
chlorobenzene-linker

> <clash_score>
3.5487277273305677

> <docking_score>
-1.005479335784912

> <overlap_score>
0.748129665851593

> <MMFF_internal_energy>
68.68468145194754

> <docked_smiles>
C[C@H](c1cccc(c1)Cl)C(=O)Nc2nncn2C3CC3

$$$$
BRU-CON-67e07230-1_1
  -OEChem-07262101013D

 35 37  0     1  0  0  0  0  0999 V2000
   11.9780    0.4600   23.9150 C   0  0  0  0  0  0  0  0  0  0  0  0
   10.6560    0.0720   23.7350 C   0  0  0  0  0  0  0  0  0  0  0  0
   12.9840   -0.1200   23.1530 C   0  0  0  0  0  0  0  0  0  0  0  0
   11.3360   -1.5050   22.0650 C   0  0  0  0  0  0  0  0  0  0  0  0
    4.9978    0.1500   18.1717 C   0  0  0  0  0  0  0  0  0  0  0  0
   10.3220   -0.8940   22.7910 C   0  0  0  0  0  0  0  0  0  0  0  0
   12.6400   -1.1000   22.2390 C   0  0  0  0  0  0  0  0  0  0  0  0
    6.5412   -0.1632   19.6647 C   0  0  0  0  0  0  0  0  0  0  0  0
    8.3880   -0.3240   21.3070 C   0  0  0  0  0  0  0  0  0  0  0  0
    4.1682   -2.8521   18.3980 C   0  0  0  0  0  0  0  0  0  0  0  0
    3.3167   -2.1678   19.4210 C   0  0  0  0  0  0  0  0  0  0  0  0
    4.8166   -1.9916   19.4571 C   0  0  0  0  0  0  0  0  0  0  0  0
    8.6719   -2.6843   22.1478 C   0  0  0  0  0  0  0  0  0  0  0  0
    8.8810   -1.1900   22.4510 C   0  0  1  0  0  0  0  0  0  0  0  0
    5.7970    1.1924   18.1379 N   0  0  0  0  0  0  0  0  0  0  0  0
    6.7789    0.9931   19.0877 N   0  0  0  0  0  0  0  0  0  0  0  0
    5.4290   -0.7286   19.1187 N   0  0  0  0  0  0  0  0  0  0  0  0
    7.2820   -0.7860   20.6970 N   0  0  0  0  0  0  0  0  0  0  0  0
    8.9170    0.7530   21.0260 O   0  0  0  0  0  0  0  0  0  0  0  0
   13.8840   -1.8490   21.2740 Cl  0  0  0  0  0  0  0  0  0  0  0  0
   12.2249    1.2198   24.6546 H   0  0  0  0  0  0  0  0  0  0  0  0
    9.8763    0.5350   24.3454 H   0  0  0  0  0  0  0  0  0  0  0  0
   14.0077    0.1988   23.2842 H   0  0  0  0  0  0  0  0  0  0  0  0
   11.0892   -2.3009   21.3624 H   0  0  0  0  0  0  0  0  0  0  0  0
    4.1257   -0.0132   17.5546 H   0  0  0  0  0  0  0  0  0  0  0  0
    4.2899   -3.9255   18.4789 H   0  0  0  0  0  0  0  0  0  0  0  0
    4.1314   -2.4810   17.3812 H   0  0  0  0  0  0  0  0  0  0  0  0
    2.7069   -1.3348   19.0931 H   0  0  0  0  0  0  0  0  0  0  0  0
    2.8635   -2.7785   20.1924 H   0  0  0  0  0  0  0  0  0  0  0  0
    5.3507   -2.5082   20.2468 H   0  0  0  0  0  0  0  0  0  0  0  0
    9.2843   -3.0131   21.3007 H   0  0  0  0  0  0  0  0  0  0  0  0
    8.9296   -3.3200   23.0024 H   0  0  0  0  0  0  0  0  0  0  0  0
    7.6214   -2.8709   21.8984 H   0  0  0  0  0  0  0  0  0  0  0  0
    8.2360   -0.9649   23.3210 H   0  0  0  0  0  0  0  0  0  0  0  0
    6.9219   -1.6865   21.0056 H   0  0  0  0  0  0  0  0  0  0  0  0
  1  2  2  0  0  0  0
  1  3  1  0  0  0  0
  2  6  1  0  0  0  0
  3  7  2  0  0  0  0
  4  6  2  0  0  0  0
  4  7  1  0  0  0  0
  5 15  2  0  0  0  0
  5 17  1  0  0  0  0
  6 14  1  0  0  0  0
  7 20  1  0  0  0  0
  8 16  2  0  0  0  0
  8 17  1  0  0  0  0
  8 18  1  0  0  0  0
  9 14  1  0  0  0  0
  9 18  1  0  0  0  0
  9 19  2  0  0  0  0
 10 11  1  0  0  0  0
 10 12  1  0  0  0  0
 11 12  1  0  0  0  0
 12 17  1  0  0  0  0
 13 14  1  1  0  0  0
 15 16  1  0  0  0  0
  1 21  1  0  0  0  0
  2 22  1  0  0  0  0
  3 23  1  0  0  0  0
  4 24  1  0  0  0  0
  5 25  1  0  0  0  0
 10 26  1  0  0  0  0
 10 27  1  0  0  0  0
 11 28  1  0  0  0  0
 11 29  1  0  0  0  0
 12 30  1  0  0  0  0
 13 31  1  0  0  0  0
 13 32  1  0  0  0  0
 13 33  1  0  0  0  0
 14 34  1  0  0  0  0
 18 35  1  0  0  0  0
M  END
> <compound>
BRU-CON-67e07230-1

> <compound_smiles>
CC(c1cccc(c1)Cl)C(=O)Nc2nncn2C3CC3

> <enantiomer_smiles>
C[C@@H](c1cccc(c1)Cl)C(=O)Nc2nncn2C3CC3

> <scaffold>
chlorobenzene-linker

> <clash_score>
3.548729978182438

> <docking_score>
-0.7538987398147583

> <overlap_score>
0.7484143972396851

> <MMFF_internal_energy>
74.45935014906672

> <docked_smiles>
C[C@@H](c1cccc(c1)Cl)C(=O)Nc2nncn2C3CC3

$$$$
JAN-GHE-f4ca5a00-14_1
  -OEChem-07262101013D

 33 35  0     0  0  0  0  0  0999 V2000
   11.9780    0.4600   23.9150 C   0  0  0  0  0  0  0  0  0  0  0  0
   10.6560    0.0720   23.7350 C   0  0  0  0  0  0  0  0  0  0  0  0
   12.9840   -0.1200   23.1530 C   0  0  0  0  0  0  0  0  0  0  0  0
   11.3360   -1.5050   22.0650 C   0  0  0  0  0  0  0  0  0  0  0  0
    5.3239    1.1184   18.3242 C   0  0  0  0  0  0  0  0  0  0  0  0
    6.8739   -0.3375   18.2345 C   0  0  0  0  0  0  0  0  0  0  0  0
   10.3220   -0.8940   22.7910 C   0  0  0  0  0  0  0  0  0  0  0  0
   12.6400   -1.1000   22.2390 C   0  0  0  0  0  0  0  0  0  0  0  0
    5.6154    0.8110   19.6323 C   0  0  0  0  0  0  0  0  0  0  0  0
    8.3880   -0.3240   21.3070 C   0  0  0  0  0  0  0  0  0  0  0  0
    3.4917    1.7533   20.8462 C   0  0  0  0  0  0  0  0  0  0  0  0
    4.5176    2.8429   20.8733 C   0  0  0  0  0  0  0  0  0  0  0  0
    4.9653    1.3929   20.8823 C   0  0  0  0  0  0  0  0  0  0  0  0
    8.8810   -1.1900   22.4510 C   0  0  0  0  0  0  0  0  0  0  0  0
    6.1105    0.3999   17.4590 N   0  0  0  0  0  0  0  0  0  0  0  0
    6.6099   -0.1233   19.5587 N   0  0  0  0  0  0  0  0  0  0  0  0
    7.2820   -0.7860   20.6970 N   0  0  0  0  0  0  0  0  0  0  0  0
    8.9170    0.7530   21.0260 O   0  0  0  0  0  0  0  0  0  0  0  0
   13.8840   -1.8490   21.2740 Cl  0  0  0  0  0  0  0  0  0  0  0  0
   12.2249    1.2198   24.6546 H   0  0  0  0  0  0  0  0  0  0  0  0
    9.8763    0.5350   24.3454 H   0  0  0  0  0  0  0  0  0  0  0  0
   14.0077    0.1988   23.2842 H   0  0  0  0  0  0  0  0  0  0  0  0
   11.0892   -2.3009   21.3624 H   0  0  0  0  0  0  0  0  0  0  0  0
    4.5890    1.8213   17.9585 H   0  0  0  0  0  0  0  0  0  0  0  0
    7.6272   -1.0364   17.8962 H   0  0  0  0  0  0  0  0  0  0  0  0
    2.9064    1.5877   21.7425 H   0  0  0  0  0  0  0  0  0  0  0  0
    2.9465    1.5983   19.9230 H   0  0  0  0  0  0  0  0  0  0  0  0
    4.6640    3.4202   19.9683 H   0  0  0  0  0  0  0  0  0  0  0  0
    4.6256    3.4131   21.7880 H   0  0  0  0  0  0  0  0  0  0  0  0
    5.3454    1.0110   21.8292 H   0  0  0  0  0  0  0  0  0  0  0  0
    8.2454   -1.0138   23.3201 H   0  0  0  0  0  0  0  0  0  0  0  0
    8.7729   -2.2397   22.1737 H   0  0  0  0  0  0  0  0  0  0  0  0
    6.8794   -1.6525   21.0431 H   0  0  0  0  0  0  0  0  0  0  0  0
  1  2  1  0  0  0  0
  1  3  2  0  0  0  0
  2  7  2  0  0  0  0
  3  8  1  0  0  0  0
  4  7  1  0  0  0  0
  4  8  2  0  0  0  0
  5  9  2  0  0  0  0
  5 15  1  0  0  0  0
  6 15  2  0  0  0  0
  6 16  1  0  0  0  0
  7 14  1  0  0  0  0
  8 19  1  0  0  0  0
  9 13  1  0  0  0  0
  9 16  1  0  0  0  0
 10 14  1  0  0  0  0
 10 17  1  0  0  0  0
 10 18  2  0  0  0  0
 11 12  1  0  0  0  0
 11 13  1  0  0  0  0
 12 13  1  0  0  0  0
 16 17  1  0  0  0  0
  1 20  1  0  0  0  0
  2 21  1  0  0  0  0
  3 22  1  0  0  0  0
  4 23  1  0  0  0  0
  5 24  1  0  0  0  0
  6 25  1  0  0  0  0
 11 26  1  0  0  0  0
 11 27  1  0  0  0  0
 12 28  1  0  0  0  0
 12 29  1  0  0  0  0
 13 30  1  0  0  0  0
 14 31  1  0  0  0  0
 14 32  1  0  0  0  0
 17 33  1  0  0  0  0
M  END
> <compound>
JAN-GHE-f4ca5a00-14

> <compound_smiles>
c1cc(cc(c1)Cl)CC(=O)Nn2cncc2C3CC3

> <enantiomer_smiles>
c1cc(cc(c1)Cl)CC(=O)Nn2cncc2C3CC3

> <scaffold>
chlorobenzene-linker

> <clash_score>
0

> <docking_score>
-9.616658210754395

> <overlap_score>
0.9055781364440918

> <MMFF_internal_energy>
35.18664896581953

> <docked_smiles>
c1cc(cc(c1)Cl)CC(=O)Nn2cncc2C3CC3

$$$$
ADA-UCB-6c2cb422-11_1
  -OEChem-07262101013D

 53 56  0     1  0  0  0  0  0999 V2000
    4.1549    2.2077   21.2808 C   0  0  0  0  0  0  0  0  0  0  0  0
    7.2275   -3.2314   26.3910 C   0  0  0  0  0  0  0  0  0  0  0  0
    3.5884    2.8053   20.1594 C   0  0  0  0  0  0  0  0  0  0  0  0
    5.9870   -3.7392   26.0051 C   0  0  0  0  0  0  0  0  0  0  0  0
   11.9780    0.4600   23.9150 C   0  0  0  0  0  0  0  0  0  0  0  0
    5.1594    1.2445   21.1368 C   0  0  0  0  0  0  0  0  0  0  0  0
    8.2596   -3.1281   25.4584 C   0  0  0  0  0  0  0  0  0  0  0  0
   10.6560    0.0720   23.7350 C   0  0  0  0  0  0  0  0  0  0  0  0
    4.0248    2.4416   18.8896 C   0  0  0  0  0  0  0  0  0  0  0  0
    5.7786   -4.1438   24.6866 C   0  0  0  0  0  0  0  0  0  0  0  0
   12.9840   -0.1200   23.1530 C   0  0  0  0  0  0  0  0  0  0  0  0
   11.3360   -1.5050   22.0650 C   0  0  0  0  0  0  0  0  0  0  0  0
    5.6173    0.8601   19.8657 C   0  0  0  0  0  0  0  0  0  0  0  0
   10.3220   -0.8940   22.7910 C   0  0  0  0  0  0  0  0  0  0  0  0
    8.0513   -3.5327   24.1399 C   0  0  0  0  0  0  0  0  0  0  0  0
    5.0300    1.4777   18.7478 C   0  0  0  0  0  0  0  0  0  0  0  0
    6.8108   -4.0405   23.7539 C   0  0  0  0  0  0  0  0  0  0  0  0
   12.6400   -1.1000   22.2390 C   0  0  0  0  0  0  0  0  0  0  0  0
    7.0402   -0.4450   18.3833 C   0  0  0  0  0  0  0  0  0  0  0  0
    6.6790   -0.1545   19.6457 C   0  0  0  0  0  0  0  0  0  0  0  0
    6.4272    0.2012   17.1963 C   0  0  0  0  0  0  0  0  0  0  0  0
    8.3880   -0.3240   21.3070 C   0  0  0  0  0  0  0  0  0  0  0  0
    6.8732   -5.8038   22.1594 C   0  0  0  0  0  0  0  0  0  0  0  0
    9.1731   -3.4148   23.1504 C   0  0  0  0  0  0  0  0  0  0  0  0
    8.8810   -1.1900   22.4510 C   0  0  1  0  0  0  0  0  0  0  0  0
    5.4489    1.1329   17.4521 N   0  0  0  0  0  0  0  0  0  0  0  0
    7.2820   -0.7860   20.6970 N   0  0  0  0  0  0  0  0  0  0  0  0
    6.7989   -0.1077   16.0663 O   0  0  0  0  0  0  0  0  0  0  0  0
    8.9170    0.7530   21.0260 O   0  0  0  0  0  0  0  0  0  0  0  0
    6.5909   -4.4409   22.4703 O   0  0  0  0  0  0  0  0  0  0  0  0
    8.7683   -2.5591   22.0897 O   0  0  0  0  0  0  0  0  0  0  0  0
   13.8840   -1.8490   21.2740 Cl  0  0  0  0  0  0  0  0  0  0  0  0
    3.8158    2.4892   22.2738 H   0  0  0  0  0  0  0  0  0  0  0  0
    7.3904   -2.9167   27.4179 H   0  0  0  0  0  0  0  0  0  0  0  0
    2.8089    3.5523   20.2750 H   0  0  0  0  0  0  0  0  0  0  0  0
    5.1840   -3.8202   26.7317 H   0  0  0  0  0  0  0  0  0  0  0  0
   12.2249    1.2198   24.6546 H   0  0  0  0  0  0  0  0  0  0  0  0
    5.5692    0.8074   22.0430 H   0  0  0  0  0  0  0  0  0  0  0  0
    9.2229   -2.7326   25.7695 H   0  0  0  0  0  0  0  0  0  0  0  0
    9.8763    0.5350   24.3454 H   0  0  0  0  0  0  0  0  0  0  0  0
    3.5786    2.9125   18.0175 H   0  0  0  0  0  0  0  0  0  0  0  0
    4.8101   -4.5386   24.3919 H   0  0  0  0  0  0  0  0  0  0  0  0
   14.0077    0.1988   23.2842 H   0  0  0  0  0  0  0  0  0  0  0  0
   11.0892   -2.3009   21.3624 H   0  0  0  0  0  0  0  0  0  0  0  0
    7.8119   -1.1818   18.1772 H   0  0  0  0  0  0  0  0  0  0  0  0
    6.6549   -5.9906   21.1050 H   0  0  0  0  0  0  0  0  0  0  0  0
    6.2636   -6.4561   22.7897 H   0  0  0  0  0  0  0  0  0  0  0  0
    7.9308   -6.0004   22.3505 H   0  0  0  0  0  0  0  0  0  0  0  0
   10.0697   -2.9988   23.6225 H   0  0  0  0  0  0  0  0  0  0  0  0
    9.4334   -4.3966   22.7406 H   0  0  0  0  0  0  0  0  0  0  0  0
    8.2394   -1.0339   23.3272 H   0  0  0  0  0  0  0  0  0  0  0  0
    5.0029    1.5967   16.6657 H   0  0  0  0  0  0  0  0  0  0  0  0
    6.8728   -1.6510   21.0360 H   0  0  0  0  0  0  0  0  0  0  0  0
  1  3  2  0  0  0  0
  1  6  1  0  0  0  0
  2  4  1  0  0  0  0
  2  7  2  0  0  0  0
  3  9  1  0  0  0  0
  4 10  2  0  0  0  0
  5  8  2  0  0  0  0
  5 11  1  0  0  0  0
  6 13  2  0  0  0  0
  7 15  1  0  0  0  0
  8 14  1  0  0  0  0
  9 16  2  0  0  0  0
 10 17  1  0  0  0  0
 11 18  2  0  0  0  0
 12 14  2  0  0  0  0
 12 18  1  0  0  0  0
 13 16  1  0  0  0  0
 13 20  1  0  0  0  0
 14 25  1  0  0  0  0
 15 17  2  0  0  0  0
 15 24  1  0  0  0  0
 16 26  1  0  0  0  0
 17 30  1  0  0  0  0
 18 32  1  0  0  0  0
 19 20  2  0  0  0  0
 19 21  1  0  0  0  0
 20 27  1  0  0  0  0
 21 26  1  0  0  0  0
 21 28  2  0  0  0  0
 22 25  1  0  0  0  0
 22 27  1  0  0  0  0
 22 29  2  0  0  0  0
 23 30  1  0  0  0  0
 24 31  1  0  0  0  0
 25 31  1  0  0  0  0
  1 33  1  0  0  0  0
  2 34  1  0  0  0  0
  3 35  1  0  0  0  0
  4 36  1  0  0  0  0
  5 37  1  0  0  0  0
  6 38  1  0  0  0  0
  7 39  1  0  0  0  0
  8 40  1  0  0  0  0
  9 41  1  0  0  0  0
 10 42  1  0  0  0  0
 11 43  1  0  0  0  0
 12 44  1  0  0  0  0
 19 45  1  0  0  0  0
 23 46  1  0  0  0  0
 23 47  1  0  0  0  0
 23 48  1  0  0  0  0
 24 49  1  0  0  0  0
 24 50  1  0  0  0  0
 25 51  1  0  0  0  0
 26 52  1  0  0  0  0
 27 53  1  0  0  0  0
M  END
> <compound>
ADA-UCB-6c2cb422-11

> <compound_smiles>
COc1ccccc1CO[C@@H](c2cccc(c2)Cl)C(=O)Nc3cc(=O)[nH]c4c3cccc4

> <enantiomer_smiles>
COc1ccccc1CO[C@@H](c2cccc(c2)Cl)C(=O)Nc3cc(=O)[nH]c4c3cccc4

> <scaffold>
chlorobenzene-linker

> <clash_score>
0.7485370728064722

> <docking_score>
-7.658081531524658

> <overlap_score>
0.9779558777809143

> <MMFF_internal_energy>
113.50901019320254

> <docked_smiles>
COc1ccccc1CO[C@@H](c2cccc(c2)Cl)C(=O)Nc3cc(=O)[nH]c4c3cccc4

$$$$
JAN-GHE-f4ca5a00-17_1
  -OEChem-07262101013D

 32 34  0     0  0  0  0  0  0999 V2000
   11.9780    0.4600   23.9150 C   0  0  0  0  0  0  0  0  0  0  0  0
   10.6560    0.0720   23.7350 C   0  0  0  0  0  0  0  0  0  0  0  0
   12.9840   -0.1200   23.1530 C   0  0  0  0  0  0  0  0  0  0  0  0
   11.3360   -1.5050   22.0650 C   0  0  0  0  0  0  0  0  0  0  0  0
    5.2866    1.1504   18.4461 C   0  0  0  0  0  0  0  0  0  0  0  0
   10.3220   -0.8940   22.7910 C   0  0  0  0  0  0  0  0  0  0  0  0
   12.6400   -1.1000   22.2390 C   0  0  0  0  0  0  0  0  0  0  0  0
    5.6248    0.8001   19.7291 C   0  0  0  0  0  0  0  0  0  0  0  0
    8.3880   -0.3240   21.3070 C   0  0  0  0  0  0  0  0  0  0  0  0
    4.3942    2.7102   21.0365 C   0  0  0  0  0  0  0  0  0  0  0  0
    5.7021    2.4919   21.7306 C   0  0  0  0  0  0  0  0  0  0  0  0
    5.0258    1.3299   21.0257 C   0  0  0  0  0  0  0  0  0  0  0  0
    8.8810   -1.1900   22.4510 C   0  0  0  0  0  0  0  0  0  0  0  0
    6.0565    0.4489   17.5603 N   0  0  0  0  0  0  0  0  0  0  0  0
    6.8704   -0.3353   18.2586 N   0  0  0  0  0  0  0  0  0  0  0  0
    6.6099   -0.1233   19.5587 N   0  0  0  0  0  0  0  0  0  0  0  0
    7.2820   -0.7860   20.6970 N   0  0  0  0  0  0  0  0  0  0  0  0
    8.9170    0.7530   21.0260 O   0  0  0  0  0  0  0  0  0  0  0  0
   13.8840   -1.8490   21.2740 Cl  0  0  0  0  0  0  0  0  0  0  0  0
   12.2249    1.2198   24.6546 H   0  0  0  0  0  0  0  0  0  0  0  0
    9.8763    0.5350   24.3454 H   0  0  0  0  0  0  0  0  0  0  0  0
   14.0077    0.1988   23.2842 H   0  0  0  0  0  0  0  0  0  0  0  0
   11.0892   -2.3009   21.3624 H   0  0  0  0  0  0  0  0  0  0  0  0
    4.5422    1.8591   18.1152 H   0  0  0  0  0  0  0  0  0  0  0  0
    3.5150    2.8620   21.6507 H   0  0  0  0  0  0  0  0  0  0  0  0
    4.4014    3.2860   20.1188 H   0  0  0  0  0  0  0  0  0  0  0  0
    6.5898    2.9192   21.2798 H   0  0  0  0  0  0  0  0  0  0  0  0
    5.7065    2.4959   22.8139 H   0  0  0  0  0  0  0  0  0  0  0  0
    4.5599    0.5824   21.6677 H   0  0  0  0  0  0  0  0  0  0  0  0
    8.2454   -1.0138   23.3201 H   0  0  0  0  0  0  0  0  0  0  0  0
    8.7729   -2.2397   22.1737 H   0  0  0  0  0  0  0  0  0  0  0  0
    6.8794   -1.6525   21.0431 H   0  0  0  0  0  0  0  0  0  0  0  0
  1  2  1  0  0  0  0
  1  3  2  0  0  0  0
  2  6  2  0  0  0  0
  3  7  1  0  0  0  0
  4  6  1  0  0  0  0
  4  7  2  0  0  0  0
  5  8  2  0  0  0  0
  5 14  1  0  0  0  0
  6 13  1  0  0  0  0
  7 19  1  0  0  0  0
  8 12  1  0  0  0  0
  8 16  1  0  0  0  0
  9 13  1  0  0  0  0
  9 17  1  0  0  0  0
  9 18  2  0  0  0  0
 10 11  1  0  0  0  0
 10 12  1  0  0  0  0
 11 12  1  0  0  0  0
 14 15  2  0  0  0  0
 15 16  1  0  0  0  0
 16 17  1  0  0  0  0
  1 20  1  0  0  0  0
  2 21  1  0  0  0  0
  3 22  1  0  0  0  0
  4 23  1  0  0  0  0
  5 24  1  0  0  0  0
 10 25  1  0  0  0  0
 10 26  1  0  0  0  0
 11 27  1  0  0  0  0
 11 28  1  0  0  0  0
 12 29  1  0  0  0  0
 13 30  1  0  0  0  0
 13 31  1  0  0  0  0
 17 32  1  0  0  0  0
M  END
> <compound>
JAN-GHE-f4ca5a00-17

> <compound_smiles>
c1cc(cc(c1)Cl)CC(=O)Nn2c(cnn2)C3CC3

> <enantiomer_smiles>
c1cc(cc(c1)Cl)CC(=O)Nn2c(cnn2)C3CC3

> <scaffold>
chlorobenzene-linker

> <clash_score>
0

> <docking_score>
-8.79393482208252

> <overlap_score>
0.8722434043884277

> <MMFF_internal_energy>
7.2301892596007376

> <docked_smiles>
c1cc(cc(c1)Cl)CC(=O)Nn2c(cnn2)C3CC3

$$$$
JAN-GHE-f4ca5a00-12_1
  -OEChem-07262101013D

 32 34  0     0  0  0  0  0  0999 V2000
   11.9780    0.4600   23.9150 C   0  0  0  0  0  0  0  0  0  0  0  0
   10.6560    0.0720   23.7350 C   0  0  0  0  0  0  0  0  0  0  0  0
   12.9840   -0.1200   23.1530 C   0  0  0  0  0  0  0  0  0  0  0  0
   11.3360   -1.5050   22.0650 C   0  0  0  0  0  0  0  0  0  0  0  0
    4.9992    0.1524   18.1712 C   0  0  0  0  0  0  0  0  0  0  0  0
   10.3220   -0.8940   22.7910 C   0  0  0  0  0  0  0  0  0  0  0  0
   12.6400   -1.1000   22.2390 C   0  0  0  0  0  0  0  0  0  0  0  0
    6.5418   -0.1622   19.6645 C   0  0  0  0  0  0  0  0  0  0  0  0
    8.3880   -0.3240   21.3070 C   0  0  0  0  0  0  0  0  0  0  0  0
    4.1678   -2.8493   18.3959 C   0  0  0  0  0  0  0  0  0  0  0  0
    3.3163   -2.1651   19.4189 C   0  0  0  0  0  0  0  0  0  0  0  0
    4.8163   -1.9897   19.4556 C   0  0  0  0  0  0  0  0  0  0  0  0
    8.8810   -1.1900   22.4510 C   0  0  0  0  0  0  0  0  0  0  0  0
    5.7989    1.1944   18.1381 N   0  0  0  0  0  0  0  0  0  0  0  0
    6.7804    0.9942   19.0882 N   0  0  0  0  0  0  0  0  0  0  0  0
    5.4295   -0.7269   19.1180 N   0  0  0  0  0  0  0  0  0  0  0  0
    7.2820   -0.7860   20.6970 N   0  0  0  0  0  0  0  0  0  0  0  0
    8.9170    0.7530   21.0260 O   0  0  0  0  0  0  0  0  0  0  0  0
   13.8840   -1.8490   21.2740 Cl  0  0  0  0  0  0  0  0  0  0  0  0
   12.2249    1.2198   24.6546 H   0  0  0  0  0  0  0  0  0  0  0  0
    9.8763    0.5350   24.3454 H   0  0  0  0  0  0  0  0  0  0  0  0
   14.0077    0.1988   23.2842 H   0  0  0  0  0  0  0  0  0  0  0  0
   11.0892   -2.3009   21.3624 H   0  0  0  0  0  0  0  0  0  0  0  0
    4.1272   -0.0100   17.5537 H   0  0  0  0  0  0  0  0  0  0  0  0
    4.2889   -3.9229   18.4763 H   0  0  0  0  0  0  0  0  0  0  0  0
    4.1316   -2.4777   17.3792 H   0  0  0  0  0  0  0  0  0  0  0  0
    2.7071   -1.3315   19.0911 H   0  0  0  0  0  0  0  0  0  0  0  0
    2.8625   -2.7759   20.1898 H   0  0  0  0  0  0  0  0  0  0  0  0
    5.3499   -2.5069   20.2453 H   0  0  0  0  0  0  0  0  0  0  0  0
    8.7709   -2.2387   22.1706 H   0  0  0  0  0  0  0  0  0  0  0  0
    8.2491   -1.0157   23.3232 H   0  0  0  0  0  0  0  0  0  0  0  0
    6.9372   -1.6894   21.0149 H   0  0  0  0  0  0  0  0  0  0  0  0
  1  2  1  0  0  0  0
  1  3  2  0  0  0  0
  2  6  2  0  0  0  0
  3  7  1  0  0  0  0
  4  6  1  0  0  0  0
  4  7  2  0  0  0  0
  5 14  2  0  0  0  0
  5 16  1  0  0  0  0
  6 13  1  0  0  0  0
  7 19  1  0  0  0  0
  8 15  2  0  0  0  0
  8 16  1  0  0  0  0
  8 17  1  0  0  0  0
  9 13  1  0  0  0  0
  9 17  1  0  0  0  0
  9 18  2  0  0  0  0
 10 11  1  0  0  0  0
 10 12  1  0  0  0  0
 11 12  1  0  0  0  0
 12 16  1  0  0  0  0
 14 15  1  0  0  0  0
  1 20  1  0  0  0  0
  2 21  1  0  0  0  0
  3 22  1  0  0  0  0
  4 23  1  0  0  0  0
  5 24  1  0  0  0  0
 10 25  1  0  0  0  0
 10 26  1  0  0  0  0
 11 27  1  0  0  0  0
 11 28  1  0  0  0  0
 12 29  1  0  0  0  0
 13 30  1  0  0  0  0
 13 31  1  0  0  0  0
 17 32  1  0  0  0  0
M  END
> <compound>
JAN-GHE-f4ca5a00-12

> <compound_smiles>
c1cc(cc(c1)Cl)CC(=O)Nc2nncn2C3CC3

> <enantiomer_smiles>
c1cc(cc(c1)Cl)CC(=O)Nc2nncn2C3CC3

> <scaffold>
chlorobenzene-linker

> <clash_score>
3.550190411511059

> <docking_score>
-0.9177502393722534

> <overlap_score>
0.7373223900794983

> <MMFF_internal_energy>
61.7382281792753

> <docked_smiles>
c1cc(cc(c1)Cl)CC(=O)Nc2nncn2C3CC3

$$$$
NAU-LAT-e1818702-1_1
  -OEChem-07262101013D

 32 34  0     0  0  0  0  0  0999 V2000
   11.9780    0.4600   23.9150 C   0  0  0  0  0  0  0  0  0  0  0  0
   10.6560    0.0720   23.7350 C   0  0  0  0  0  0  0  0  0  0  0  0
   12.9840   -0.1200   23.1530 C   0  0  0  0  0  0  0  0  0  0  0  0
   11.3360   -1.5050   22.0650 C   0  0  0  0  0  0  0  0  0  0  0  0
    4.9992    0.1524   18.1712 C   0  0  0  0  0  0  0  0  0  0  0  0
   10.3220   -0.8940   22.7910 C   0  0  0  0  0  0  0  0  0  0  0  0
   12.6400   -1.1000   22.2390 C   0  0  0  0  0  0  0  0  0  0  0  0
    6.5418   -0.1622   19.6645 C   0  0  0  0  0  0  0  0  0  0  0  0
    8.3880   -0.3240   21.3070 C   0  0  0  0  0  0  0  0  0  0  0  0
    4.1678   -2.8493   18.3959 C   0  0  0  0  0  0  0  0  0  0  0  0
    3.3163   -2.1651   19.4189 C   0  0  0  0  0  0  0  0  0  0  0  0
    4.8163   -1.9897   19.4556 C   0  0  0  0  0  0  0  0  0  0  0  0
    8.8810   -1.1900   22.4510 C   0  0  0  0  0  0  0  0  0  0  0  0
    5.7989    1.1944   18.1381 N   0  0  0  0  0  0  0  0  0  0  0  0
    6.7804    0.9942   19.0882 N   0  0  0  0  0  0  0  0  0  0  0  0
    5.4295   -0.7269   19.1180 N   0  0  0  0  0  0  0  0  0  0  0  0
    7.2820   -0.7860   20.6970 N   0  0  0  0  0  0  0  0  0  0  0  0
    8.9170    0.7530   21.0260 O   0  0  0  0  0  0  0  0  0  0  0  0
   13.8840   -1.8490   21.2740 Cl  0  0  0  0  0  0  0  0  0  0  0  0
   12.2249    1.2198   24.6546 H   0  0  0  0  0  0  0  0  0  0  0  0
    9.8763    0.5350   24.3454 H   0  0  0  0  0  0  0  0  0  0  0  0
   14.0077    0.1988   23.2842 H   0  0  0  0  0  0  0  0  0  0  0  0
   11.0892   -2.3009   21.3624 H   0  0  0  0  0  0  0  0  0  0  0  0
    4.1272   -0.0100   17.5537 H   0  0  0  0  0  0  0  0  0  0  0  0
    4.2889   -3.9229   18.4763 H   0  0  0  0  0  0  0  0  0  0  0  0
    4.1316   -2.4777   17.3792 H   0  0  0  0  0  0  0  0  0  0  0  0
    2.7071   -1.3315   19.0911 H   0  0  0  0  0  0  0  0  0  0  0  0
    2.8625   -2.7759   20.1898 H   0  0  0  0  0  0  0  0  0  0  0  0
    5.3499   -2.5069   20.2453 H   0  0  0  0  0  0  0  0  0  0  0  0
    8.7709   -2.2387   22.1706 H   0  0  0  0  0  0  0  0  0  0  0  0
    8.2491   -1.0157   23.3232 H   0  0  0  0  0  0  0  0  0  0  0  0
    6.9372   -1.6894   21.0149 H   0  0  0  0  0  0  0  0  0  0  0  0
  1  2  1  0  0  0  0
  1  3  2  0  0  0  0
  2  6  2  0  0  0  0
  3  7  1  0  0  0  0
  4  6  1  0  0  0  0
  4  7  2  0  0  0  0
  5 14  2  0  0  0  0
  5 16  1  0  0  0  0
  6 13  1  0  0  0  0
  7 19  1  0  0  0  0
  8 15  2  0  0  0  0
  8 16  1  0  0  0  0
  8 17  1  0  0  0  0
  9 13  1  0  0  0  0
  9 17  1  0  0  0  0
  9 18  2  0  0  0  0
 10 11  1  0  0  0  0
 10 12  1  0  0  0  0
 11 12  1  0  0  0  0
 12 16  1  0  0  0  0
 14 15  1  0  0  0  0
  1 20  1  0  0  0  0
  2 21  1  0  0  0  0
  3 22  1  0  0  0  0
  4 23  1  0  0  0  0
  5 24  1  0  0  0  0
 10 25  1  0  0  0  0
 10 26  1  0  0  0  0
 11 27  1  0  0  0  0
 11 28  1  0  0  0  0
 12 29  1  0  0  0  0
 13 30  1  0  0  0  0
 13 31  1  0  0  0  0
 17 32  1  0  0  0  0
M  END
> <compound>
NAU-LAT-e1818702-1

> <compound_smiles>
c1cc(cc(c1)Cl)CC(=O)Nc2nncn2C3CC3

> <enantiomer_smiles>
c1cc(cc(c1)Cl)CC(=O)Nc2nncn2C3CC3

> <scaffold>
chlorobenzene-linker

> <clash_score>
3.550190411511059

> <docking_score>
-0.9177502393722534

> <overlap_score>
0.7373223900794983

> <MMFF_internal_energy>
61.7382281792753

> <docked_smiles>
c1cc(cc(c1)Cl)CC(=O)Nc2nncn2C3CC3

$$$$
MIC-UNK-42806bd5-1_2
  -OEChem-07262101013D

 30 31  0     1  0  0  0  0  0999 V2000
   11.9780    0.4600   23.9150 C   0  0  0  0  0  0  0  0  0  0  0  0
   10.6560    0.0720   23.7350 C   0  0  0  0  0  0  0  0  0  0  0  0
   12.9840   -0.1200   23.1530 C   0  0  0  0  0  0  0  0  0  0  0  0
   11.3360   -1.5050   22.0650 C   0  0  0  0  0  0  0  0  0  0  0  0
   10.3220   -0.8940   22.7910 C   0  0  0  0  0  0  0  0  0  0  0  0
   12.6400   -1.1000   22.2390 C   0  0  0  0  0  0  0  0  0  0  0  0
    5.3963   -0.8530   19.1921 C   0  0  0  0  0  0  0  0  0  0  0  0
    8.3880   -0.3240   21.3070 C   0  0  0  0  0  0  0  0  0  0  0  0
    7.4311    0.0805   18.3817 C   0  0  0  0  0  0  0  0  0  0  0  0
    6.3768    0.1410   17.2937 C   0  0  0  0  0  0  0  0  0  0  0  0
    6.6073   -0.0710   19.6579 C   0  0  1  0  0  0  0  0  0  0  0  0
    8.8810   -1.1900   22.4510 C   0  0  0  0  0  0  0  0  0  0  0  0
    5.3164   -0.6795   17.8118 N   0  0  0  0  0  0  0  0  0  0  0  0
    7.2820   -0.7860   20.6970 N   0  0  0  0  0  0  0  0  0  0  0  0
    4.6198   -1.4738   19.9014 O   0  0  0  0  0  0  0  0  0  0  0  0
    8.9170    0.7530   21.0260 O   0  0  0  0  0  0  0  0  0  0  0  0
   13.8840   -1.8490   21.2740 Cl  0  0  0  0  0  0  0  0  0  0  0  0
   12.2249    1.2198   24.6546 H   0  0  0  0  0  0  0  0  0  0  0  0
    9.8763    0.5350   24.3454 H   0  0  0  0  0  0  0  0  0  0  0  0
   14.0077    0.1988   23.2842 H   0  0  0  0  0  0  0  0  0  0  0  0
   11.0892   -2.3009   21.3624 H   0  0  0  0  0  0  0  0  0  0  0  0
    8.0743   -0.7942   18.2201 H   0  0  0  0  0  0  0  0  0  0  0  0
    8.0655    0.9716   18.4000 H   0  0  0  0  0  0  0  0  0  0  0  0
    5.9867    1.1542   17.1550 H   0  0  0  0  0  0  0  0  0  0  0  0
    6.7263   -0.2563   16.3377 H   0  0  0  0  0  0  0  0  0  0  0  0
    6.2788    0.8965   20.0455 H   0  0  0  0  0  0  0  0  0  0  0  0
    8.7773   -2.2383   22.1737 H   0  0  0  0  0  0  0  0  0  0  0  0
    8.2516   -1.0144   23.3225 H   0  0  0  0  0  0  0  0  0  0  0  0
    4.5881   -1.0883   17.2347 H   0  0  0  0  0  0  0  0  0  0  0  0
    6.9059   -1.6905   20.9896 H   0  0  0  0  0  0  0  0  0  0  0  0
  1  2  1  0  0  0  0
  1  3  2  0  0  0  0
  2  5  2  0  0  0  0
  3  6  1  0  0  0  0
  4  5  1  0  0  0  0
  4  6  2  0  0  0  0
  5 12  1  0  0  0  0
  6 17  1  0  0  0  0
  7 11  1  0  0  0  0
  7 13  1  0  0  0  0
  7 15  2  0  0  0  0
  8 12  1  0  0  0  0
  8 14  1  0  0  0  0
  8 16  2  0  0  0  0
  9 10  1  0  0  0  0
  9 11  1  0  0  0  0
 10 13  1  0  0  0  0
 11 14  1  6  0  0  0
  1 18  1  0  0  0  0
  2 19  1  0  0  0  0
  3 20  1  0  0  0  0
  4 21  1  0  0  0  0
  9 22  1  0  0  0  0
  9 23  1  0  0  0  0
 10 24  1  0  0  0  0
 10 25  1  0  0  0  0
 11 26  1  0  0  0  0
 12 27  1  0  0  0  0
 12 28  1  0  0  0  0
 13 29  1  0  0  0  0
 14 30  1  0  0  0  0
M  END
> <compound>
MIC-UNK-42806bd5-1

> <compound_smiles>
c1cc(cc(c1)Cl)CC(=O)NC2CCNC2=O

> <enantiomer_smiles>
c1cc(cc(c1)Cl)CC(=O)N[C@H]2CCNC2=O

> <scaffold>
chlorobenzene-linker

> <clash_score>
0

> <docking_score>
-5.5197978019714355

> <overlap_score>
0.709894597530365

> <MMFF_internal_energy>
25.29359246384863

> <docked_smiles>
c1cc(cc(c1)Cl)CC(=O)N[C@H]2CCNC2=O

$$$$
JAN-GHE-f4ca5a00-16_1
  -OEChem-07262101013D

 32 34  0     0  0  0  0  0  0999 V2000
   11.9780    0.4600   23.9150 C   0  0  0  0  0  0  0  0  0  0  0  0
   10.6560    0.0720   23.7350 C   0  0  0  0  0  0  0  0  0  0  0  0
   12.9840   -0.1200   23.1530 C   0  0  0  0  0  0  0  0  0  0  0  0
   11.3360   -1.5050   22.0650 C   0  0  0  0  0  0  0  0  0  0  0  0
    6.8590   -0.3235   18.2349 C   0  0  0  0  0  0  0  0  0  0  0  0
   10.3220   -0.8940   22.7910 C   0  0  0  0  0  0  0  0  0  0  0  0
   12.6400   -1.1000   22.2390 C   0  0  0  0  0  0  0  0  0  0  0  0
    5.6185    0.8091   19.6087 C   0  0  0  0  0  0  0  0  0  0  0  0
    8.3880   -0.3240   21.3070 C   0  0  0  0  0  0  0  0  0  0  0  0
    4.3546    2.7553   20.8280 C   0  0  0  0  0  0  0  0  0  0  0  0
    5.6413    2.5538   21.5656 C   0  0  0  0  0  0  0  0  0  0  0  0
    4.9800    1.3772   20.8790 C   0  0  0  0  0  0  0  0  0  0  0  0
    8.8810   -1.1900   22.4510 C   0  0  0  0  0  0  0  0  0  0  0  0
    6.0683    0.4399   17.5149 N   0  0  0  0  0  0  0  0  0  0  0  0
    5.2790    1.1605   18.3890 N   0  0  0  0  0  0  0  0  0  0  0  0
    6.6099   -0.1233   19.5587 N   0  0  0  0  0  0  0  0  0  0  0  0
    7.2820   -0.7860   20.6970 N   0  0  0  0  0  0  0  0  0  0  0  0
    8.9170    0.7530   21.0260 O   0  0  0  0  0  0  0  0  0  0  0  0
   13.8840   -1.8490   21.2740 Cl  0  0  0  0  0  0  0  0  0  0  0  0
   12.2249    1.2198   24.6546 H   0  0  0  0  0  0  0  0  0  0  0  0
    9.8763    0.5350   24.3454 H   0  0  0  0  0  0  0  0  0  0  0  0
   14.0077    0.1988   23.2842 H   0  0  0  0  0  0  0  0  0  0  0  0
   11.0892   -2.3009   21.3624 H   0  0  0  0  0  0  0  0  0  0  0  0
    7.6022   -1.0137   17.8611 H   0  0  0  0  0  0  0  0  0  0  0  0
    3.4582    2.9249   21.4121 H   0  0  0  0  0  0  0  0  0  0  0  0
    4.3899    3.3063   19.8959 H   0  0  0  0  0  0  0  0  0  0  0  0
    6.5427    2.9676   21.1296 H   0  0  0  0  0  0  0  0  0  0  0  0
    5.6142    2.5868   22.6481 H   0  0  0  0  0  0  0  0  0  0  0  0
    4.4971    0.6450   21.5205 H   0  0  0  0  0  0  0  0  0  0  0  0
    8.2454   -1.0138   23.3201 H   0  0  0  0  0  0  0  0  0  0  0  0
    8.7729   -2.2397   22.1737 H   0  0  0  0  0  0  0  0  0  0  0  0
    6.8794   -1.6525   21.0431 H   0  0  0  0  0  0  0  0  0  0  0  0
  1  2  1  0  0  0  0
  1  3  2  0  0  0  0
  2  6  2  0  0  0  0
  3  7  1  0  0  0  0
  4  6  1  0  0  0  0
  4  7  2  0  0  0  0
  5 14  2  0  0  0  0
  5 16  1  0  0  0  0
  6 13  1  0  0  0  0
  7 19  1  0  0  0  0
  8 12  1  0  0  0  0
  8 15  2  0  0  0  0
  8 16  1  0  0  0  0
  9 13  1  0  0  0  0
  9 17  1  0  0  0  0
  9 18  2  0  0  0  0
 10 11  1  0  0  0  0
 10 12  1  0  0  0  0
 11 12  1  0  0  0  0
 14 15  1  0  0  0  0
 16 17  1  0  0  0  0
  1 20  1  0  0  0  0
  2 21  1  0  0  0  0
  3 22  1  0  0  0  0
  4 23  1  0  0  0  0
  5 24  1  0  0  0  0
 10 25  1  0  0  0  0
 10 26  1  0  0  0  0
 11 27  1  0  0  0  0
 11 28  1  0  0  0  0
 12 29  1  0  0  0  0
 13 30  1  0  0  0  0
 13 31  1  0  0  0  0
 17 32  1  0  0  0  0
M  END
> <compound>
JAN-GHE-f4ca5a00-16

> <compound_smiles>
c1cc(cc(c1)Cl)CC(=O)Nn2cnnc2C3CC3

> <enantiomer_smiles>
c1cc(cc(c1)Cl)CC(=O)Nn2cnnc2C3CC3

> <scaffold>
chlorobenzene-linker

> <clash_score>
0

> <docking_score>
-8.817763328552246

> <overlap_score>
0.8748621940612793

> <MMFF_internal_energy>
41.42387628928649

> <docked_smiles>
c1cc(cc(c1)Cl)CC(=O)Nn2cnnc2C3CC3

$$$$
MIC-UNK-42806bd5-2_1
  -OEChem-07262101013D

 30 31  0     1  0  0  0  0  0999 V2000
   11.9780    0.4600   23.9150 C   0  0  0  0  0  0  0  0  0  0  0  0
   10.6560    0.0720   23.7350 C   0  0  0  0  0  0  0  0  0  0  0  0
   12.9840   -0.1200   23.1530 C   0  0  0  0  0  0  0  0  0  0  0  0
   11.3360   -1.5050   22.0650 C   0  0  0  0  0  0  0  0  0  0  0  0
   10.3220   -0.8940   22.7910 C   0  0  0  0  0  0  0  0  0  0  0  0
   12.6400   -1.1000   22.2390 C   0  0  0  0  0  0  0  0  0  0  0  0
    6.8560    1.4545   17.8539 C   0  0  0  0  0  0  0  0  0  0  0  0
    8.3880   -0.3240   21.3070 C   0  0  0  0  0  0  0  0  0  0  0  0
    7.4941    0.2194   18.4449 C   0  0  0  0  0  0  0  0  0  0  0  0
    6.1309    1.3060   20.0898 C   0  0  0  0  0  0  0  0  0  0  0  0
    6.6077   -0.0678   19.6561 C   0  0  2  0  0  0  0  0  0  0  0  0
    8.8810   -1.1900   22.4510 C   0  0  0  0  0  0  0  0  0  0  0  0
    6.0788    2.0350   18.8515 N   0  0  0  0  0  0  0  0  0  0  0  0
    7.2820   -0.7860   20.6970 N   0  0  0  0  0  0  0  0  0  0  0  0
    7.0383    1.8714   16.7206 O   0  0  0  0  0  0  0  0  0  0  0  0
    8.9170    0.7530   21.0260 O   0  0  0  0  0  0  0  0  0  0  0  0
   13.8840   -1.8490   21.2740 Cl  0  0  0  0  0  0  0  0  0  0  0  0
   12.2249    1.2198   24.6546 H   0  0  0  0  0  0  0  0  0  0  0  0
    9.8763    0.5350   24.3454 H   0  0  0  0  0  0  0  0  0  0  0  0
   14.0077    0.1988   23.2842 H   0  0  0  0  0  0  0  0  0  0  0  0
   11.0892   -2.3009   21.3624 H   0  0  0  0  0  0  0  0  0  0  0  0
    7.4854   -0.6056   17.7280 H   0  0  0  0  0  0  0  0  0  0  0  0
    8.5234    0.4649   18.7275 H   0  0  0  0  0  0  0  0  0  0  0  0
    5.1410    1.2897   20.5532 H   0  0  0  0  0  0  0  0  0  0  0  0
    6.8407    1.8196   20.7467 H   0  0  0  0  0  0  0  0  0  0  0  0
    5.7476   -0.6755   19.3479 H   0  0  0  0  0  0  0  0  0  0  0  0
    8.7773   -2.2383   22.1737 H   0  0  0  0  0  0  0  0  0  0  0  0
    8.2516   -1.0144   23.3225 H   0  0  0  0  0  0  0  0  0  0  0  0
    5.5718    2.9057   18.7286 H   0  0  0  0  0  0  0  0  0  0  0  0
    6.9057   -1.6892   20.9886 H   0  0  0  0  0  0  0  0  0  0  0  0
  1  2  1  0  0  0  0
  1  3  2  0  0  0  0
  2  5  2  0  0  0  0
  3  6  1  0  0  0  0
  4  5  1  0  0  0  0
  4  6  2  0  0  0  0
  5 12  1  0  0  0  0
  6 17  1  0  0  0  0
  7  9  1  0  0  0  0
  7 13  1  0  0  0  0
  7 15  2  0  0  0  0
  8 12  1  0  0  0  0
  8 14  1  0  0  0  0
  8 16  2  0  0  0  0
  9 11  1  0  0  0  0
 10 11  1  0  0  0  0
 10 13  1  0  0  0  0
 11 14  1  1  0  0  0
  1 18  1  0  0  0  0
  2 19  1  0  0  0  0
  3 20  1  0  0  0  0
  4 21  1  0  0  0  0
  9 22  1  0  0  0  0
  9 23  1  0  0  0  0
 10 24  1  0  0  0  0
 10 25  1  0  0  0  0
 11 26  1  0  0  0  0
 12 27  1  0  0  0  0
 12 28  1  0  0  0  0
 13 29  1  0  0  0  0
 14 30  1  0  0  0  0
M  END
> <compound>
MIC-UNK-42806bd5-2

> <compound_smiles>
c1cc(cc(c1)Cl)CC(=O)NC2CC(=O)NC2

> <enantiomer_smiles>
c1cc(cc(c1)Cl)CC(=O)N[C@@H]2CC(=O)NC2

> <scaffold>
chlorobenzene-linker

> <canonical_CID>
MIC-UNK-42806bd5-2

> <r_inhibition_at_20_uM>

> <r_inhibition_at_50_uM>

> <r_avg_IC50>
99.0

> <f_inhibition_at_20_uM>

> <f_inhibition_at_50_uM>

> <f_avg_IC50>

> <f_avg_pIC50>

> <relative_solubility_at_20_uM>

> <relative_solubility_at_100_uM>

> <trypsin_IC50>

> <NMR_std_ratio>

> <acrylamide>
False

> <chloroacetamide>
False

> <series>
3-aminopyridine-like

> <frag_id>

> <clash_score>
0

> <docking_score>
-6.164961814880371

> <overlap_score>
0.7215521335601807

> <MMFF_internal_energy>
14.556257278631518

> <docked_smiles>
c1cc(cc(c1)Cl)CC(=O)N[C@@H]2CC(=O)NC2

$$$$
ADA-UCB-6c2cb422-10_1
  -OEChem-07262101013D

 55 58  0     1  0  0  0  0  0999 V2000
    4.1677    2.2210   21.2814 C   0  0  0  0  0  0  0  0  0  0  0  0
    9.6336   -2.9019   26.7415 C   0  0  0  0  0  0  0  0  0  0  0  0
    3.6014    2.8186   20.1600 C   0  0  0  0  0  0  0  0  0  0  0  0
    8.3124   -3.0627   27.1588 C   0  0  0  0  0  0  0  0  0  0  0  0
   11.9780    0.4600   23.9150 C   0  0  0  0  0  0  0  0  0  0  0  0
    5.1682    1.2536   21.1372 C   0  0  0  0  0  0  0  0  0  0  0  0
    9.9658   -3.0698   25.3972 C   0  0  0  0  0  0  0  0  0  0  0  0
   10.6560    0.0720   23.7350 C   0  0  0  0  0  0  0  0  0  0  0  0
    4.0337    2.4508   18.8901 C   0  0  0  0  0  0  0  0  0  0  0  0
    7.3233   -3.3913   26.2317 C   0  0  0  0  0  0  0  0  0  0  0  0
   12.9840   -0.1200   23.1530 C   0  0  0  0  0  0  0  0  0  0  0  0
   11.3360   -1.5050   22.0650 C   0  0  0  0  0  0  0  0  0  0  0  0
    5.6221    0.8650   19.8659 C   0  0  0  0  0  0  0  0  0  0  0  0
   10.3220   -0.8940   22.7910 C   0  0  0  0  0  0  0  0  0  0  0  0
    8.9768   -3.3984   24.4702 C   0  0  0  0  0  0  0  0  0  0  0  0
    5.0349    1.4828   18.7480 C   0  0  0  0  0  0  0  0  0  0  0  0
    7.6555   -3.5592   24.8874 C   0  0  0  0  0  0  0  0  0  0  0  0
   12.6400   -1.1000   22.2390 C   0  0  0  0  0  0  0  0  0  0  0  0
    7.0368   -0.4485   18.3832 C   0  0  0  0  0  0  0  0  0  0  0  0
    6.6793   -0.1541   19.6457 C   0  0  0  0  0  0  0  0  0  0  0  0
    6.4240    0.1979   17.1961 C   0  0  0  0  0  0  0  0  0  0  0  0
    8.3880   -0.3240   21.3070 C   0  0  0  0  0  0  0  0  0  0  0  0
    6.4285   -5.2684   23.7789 C   0  0  0  0  0  0  0  0  0  0  0  0
    9.3525   -3.5754   23.0285 C   0  0  0  0  0  0  0  0  0  0  0  0
    8.8810   -1.1900   22.4510 C   0  0  1  0  0  0  0  0  0  0  0  0
    5.4498    1.1338   17.4522 N   0  0  0  0  0  0  0  0  0  0  0  0
    7.2820   -0.7860   20.6970 N   0  0  0  0  0  0  0  0  0  0  0  0
    8.6478   -2.6350   22.1248 N   0  3  0  0  0  0  0  0  0  0  0  0
    6.7922   -0.1147   16.0660 O   0  0  0  0  0  0  0  0  0  0  0  0
    8.9170    0.7530   21.0260 O   0  0  0  0  0  0  0  0  0  0  0  0
    6.6776   -3.8809   23.9949 O   0  0  0  0  0  0  0  0  0  0  0  0
   13.8840   -1.8490   21.2740 Cl  0  0  0  0  0  0  0  0  0  0  0  0
    3.8318    2.5057   22.2746 H   0  0  0  0  0  0  0  0  0  0  0  0
   10.4043   -2.6466   27.4632 H   0  0  0  0  0  0  0  0  0  0  0  0
    2.8250    3.5689   20.2758 H   0  0  0  0  0  0  0  0  0  0  0  0
    8.0543   -2.9328   28.2056 H   0  0  0  0  0  0  0  0  0  0  0  0
   12.2249    1.2198   24.6546 H   0  0  0  0  0  0  0  0  0  0  0  0
    5.5782    0.8166   22.0434 H   0  0  0  0  0  0  0  0  0  0  0  0
   10.9984   -2.9438   25.0825 H   0  0  0  0  0  0  0  0  0  0  0  0
    9.8763    0.5350   24.3454 H   0  0  0  0  0  0  0  0  0  0  0  0
    3.5877    2.9219   18.0179 H   0  0  0  0  0  0  0  0  0  0  0  0
    6.2958   -3.5153   26.5628 H   0  0  0  0  0  0  0  0  0  0  0  0
   14.0077    0.1988   23.2842 H   0  0  0  0  0  0  0  0  0  0  0  0
   11.0892   -2.3009   21.3624 H   0  0  0  0  0  0  0  0  0  0  0  0
    7.8052   -1.1886   18.1769 H   0  0  0  0  0  0  0  0  0  0  0  0
    5.6267   -5.3856   23.0458 H   0  0  0  0  0  0  0  0  0  0  0  0
    6.1452   -5.7401   24.7232 H   0  0  0  0  0  0  0  0  0  0  0  0
    7.3387   -5.7379   23.3981 H   0  0  0  0  0  0  0  0  0  0  0  0
   10.4251   -3.4138   22.8761 H   0  0  0  0  0  0  0  0  0  0  0  0
    9.1143   -4.5858   22.6788 H   0  0  0  0  0  0  0  0  0  0  0  0
    8.2448   -1.0174   23.3294 H   0  0  0  0  0  0  0  0  0  0  0  0
    5.0041    1.5979   16.6658 H   0  0  0  0  0  0  0  0  0  0  0  0
    6.8493   -1.6464   21.0181 H   0  0  0  0  0  0  0  0  0  0  0  0
    8.9422   -2.8008   21.1564 H   0  0  0  0  0  0  0  0  0  0  0  0
    7.6390   -2.8185   22.1546 H   0  0  0  0  0  0  0  0  0  0  0  0
  1  3  2  0  0  0  0
  1  6  1  0  0  0  0
  2  4  1  0  0  0  0
  2  7  2  0  0  0  0
  3  9  1  0  0  0  0
  4 10  2  0  0  0  0
  5  8  2  0  0  0  0
  5 11  1  0  0  0  0
  6 13  2  0  0  0  0
  7 15  1  0  0  0  0
  8 14  1  0  0  0  0
  9 16  2  0  0  0  0
 10 17  1  0  0  0  0
 11 18  2  0  0  0  0
 12 14  2  0  0  0  0
 12 18  1  0  0  0  0
 13 16  1  0  0  0  0
 13 20  1  0  0  0  0
 14 25  1  0  0  0  0
 15 17  2  0  0  0  0
 15 24  1  0  0  0  0
 16 26  1  0  0  0  0
 17 31  1  0  0  0  0
 18 32  1  0  0  0  0
 19 20  2  0  0  0  0
 19 21  1  0  0  0  0
 20 27  1  0  0  0  0
 21 26  1  0  0  0  0
 21 29  2  0  0  0  0
 22 25  1  0  0  0  0
 22 27  1  0  0  0  0
 22 30  2  0  0  0  0
 23 31  1  0  0  0  0
 24 28  1  0  0  0  0
 25 28  1  0  0  0  0
  1 33  1  0  0  0  0
  2 34  1  0  0  0  0
  3 35  1  0  0  0  0
  4 36  1  0  0  0  0
  5 37  1  0  0  0  0
  6 38  1  0  0  0  0
  7 39  1  0  0  0  0
  8 40  1  0  0  0  0
  9 41  1  0  0  0  0
 10 42  1  0  0  0  0
 11 43  1  0  0  0  0
 12 44  1  0  0  0  0
 19 45  1  0  0  0  0
 23 46  1  0  0  0  0
 23 47  1  0  0  0  0
 23 48  1  0  0  0  0
 24 49  1  0  0  0  0
 24 50  1  0  0  0  0
 25 51  1  0  0  0  0
 26 52  1  0  0  0  0
 27 53  1  0  0  0  0
 28 54  1  0  0  0  0
 28 55  1  0  0  0  0
M  CHG  1  28   1
M  END
> <compound>
ADA-UCB-6c2cb422-10

> <compound_smiles>
COc1ccccc1CN[C@@H](c2cccc(c2)Cl)C(=O)Nc3cc(=O)[nH]c4c3cccc4

> <enantiomer_smiles>
COc1ccccc1CN[C@@H](c2cccc(c2)Cl)C(=O)Nc3cc(=O)[nH]c4c3cccc4

> <scaffold>
chlorobenzene-linker

> <clash_score>
0.7473249470886819

> <docking_score>
-6.849058151245117

> <overlap_score>
0.975260853767395

> <MMFF_internal_energy>
107.63934210092208

> <docked_smiles>
COc1ccccc1C[NH2+][C@@H](c2cccc(c2)Cl)C(=O)Nc3cc(=O)[nH]c4c3cccc4

$$$$
MIC-UNK-42806bd5-1_1
  -OEChem-07262101013D

 30 31  0     1  0  0  0  0  0999 V2000
   11.9780    0.4600   23.9150 C   0  0  0  0  0  0  0  0  0  0  0  0
   10.6560    0.0720   23.7350 C   0  0  0  0  0  0  0  0  0  0  0  0
   12.9840   -0.1200   23.1530 C   0  0  0  0  0  0  0  0  0  0  0  0
   11.3360   -1.5050   22.0650 C   0  0  0  0  0  0  0  0  0  0  0  0
   10.3220   -0.8940   22.7910 C   0  0  0  0  0  0  0  0  0  0  0  0
   12.6400   -1.1000   22.2390 C   0  0  0  0  0  0  0  0  0  0  0  0
    6.1277    1.2714   20.1667 C   0  0  0  0  0  0  0  0  0  0  0  0
    8.3880   -0.3240   21.3070 C   0  0  0  0  0  0  0  0  0  0  0  0
    7.5091    0.3011   18.4834 C   0  0  0  0  0  0  0  0  0  0  0  0
    6.8781    1.5748   17.9520 C   0  0  0  0  0  0  0  0  0  0  0  0
    6.6074   -0.0710   19.6580 C   0  0  2  0  0  0  0  0  0  0  0  0
    8.8810   -1.1900   22.4510 C   0  0  0  0  0  0  0  0  0  0  0  0
    6.2941    2.1755   19.1203 N   0  0  0  0  0  0  0  0  0  0  0  0
    7.2820   -0.7860   20.6970 N   0  0  0  0  0  0  0  0  0  0  0  0
    5.6439    1.4977   21.2650 O   0  0  0  0  0  0  0  0  0  0  0  0
    8.9170    0.7530   21.0260 O   0  0  0  0  0  0  0  0  0  0  0  0
   13.8840   -1.8490   21.2740 Cl  0  0  0  0  0  0  0  0  0  0  0  0
   12.2249    1.2198   24.6546 H   0  0  0  0  0  0  0  0  0  0  0  0
    9.8763    0.5350   24.3454 H   0  0  0  0  0  0  0  0  0  0  0  0
   14.0077    0.1988   23.2842 H   0  0  0  0  0  0  0  0  0  0  0  0
   11.0892   -2.3009   21.3624 H   0  0  0  0  0  0  0  0  0  0  0  0
    7.5565   -0.4893   17.7285 H   0  0  0  0  0  0  0  0  0  0  0  0
    8.5312    0.5134   18.8221 H   0  0  0  0  0  0  0  0  0  0  0  0
    7.6050    2.2561   17.5031 H   0  0  0  0  0  0  0  0  0  0  0  0
    6.0741    1.3676   17.2390 H   0  0  0  0  0  0  0  0  0  0  0  0
    5.7414   -0.6553   19.3293 H   0  0  0  0  0  0  0  0  0  0  0  0
    8.7773   -2.2383   22.1737 H   0  0  0  0  0  0  0  0  0  0  0  0
    8.2516   -1.0144   23.3225 H   0  0  0  0  0  0  0  0  0  0  0  0
    6.0106    3.1488   19.1731 H   0  0  0  0  0  0  0  0  0  0  0  0
    6.9059   -1.6905   20.9896 H   0  0  0  0  0  0  0  0  0  0  0  0
  1  2  1  0  0  0  0
  1  3  2  0  0  0  0
  2  5  2  0  0  0  0
  3  6  1  0  0  0  0
  4  5  1  0  0  0  0
  4  6  2  0  0  0  0
  5 12  1  0  0  0  0
  6 17  1  0  0  0  0
  7 11  1  0  0  0  0
  7 13  1  0  0  0  0
  7 15  2  0  0  0  0
  8 12  1  0  0  0  0
  8 14  1  0  0  0  0
  8 16  2  0  0  0  0
  9 10  1  0  0  0  0
  9 11  1  0  0  0  0
 10 13  1  0  0  0  0
 11 14  1  1  0  0  0
  1 18  1  0  0  0  0
  2 19  1  0  0  0  0
  3 20  1  0  0  0  0
  4 21  1  0  0  0  0
  9 22  1  0  0  0  0
  9 23  1  0  0  0  0
 10 24  1  0  0  0  0
 10 25  1  0  0  0  0
 11 26  1  0  0  0  0
 12 27  1  0  0  0  0
 12 28  1  0  0  0  0
 13 29  1  0  0  0  0
 14 30  1  0  0  0  0
M  END
> <compound>
MIC-UNK-42806bd5-1

> <compound_smiles>
c1cc(cc(c1)Cl)CC(=O)NC2CCNC2=O

> <enantiomer_smiles>
c1cc(cc(c1)Cl)CC(=O)N[C@@H]2CCNC2=O

> <scaffold>
chlorobenzene-linker

> <clash_score>
0

> <docking_score>
-5.957755088806152

> <overlap_score>
0.7336689233779907

> <MMFF_internal_energy>
31.9974487551521

> <docked_smiles>
c1cc(cc(c1)Cl)CC(=O)N[C@@H]2CCNC2=O

$$$$
NAU-LAT-e1818702-7_1
  -OEChem-07262101013D

 28 29  0     0  0  0  0  0  0999 V2000
   11.9780    0.4600   23.9150 C   0  0  0  0  0  0  0  0  0  0  0  0
   10.6560    0.0720   23.7350 C   0  0  0  0  0  0  0  0  0  0  0  0
   12.9840   -0.1200   23.1530 C   0  0  0  0  0  0  0  0  0  0  0  0
   11.3360   -1.5050   22.0650 C   0  0  0  0  0  0  0  0  0  0  0  0
    4.9977    0.1500   18.1721 C   0  0  0  0  0  0  0  0  0  0  0  0
   10.3220   -0.8940   22.7910 C   0  0  0  0  0  0  0  0  0  0  0  0
   12.6400   -1.1000   22.2390 C   0  0  0  0  0  0  0  0  0  0  0  0
    6.5418   -0.1622   19.6645 C   0  0  0  0  0  0  0  0  0  0  0  0
    8.3880   -0.3240   21.3070 C   0  0  0  0  0  0  0  0  0  0  0  0
    4.8185   -1.9903   19.4564 C   0  0  0  0  0  0  0  0  0  0  0  0
    8.8810   -1.1900   22.4510 C   0  0  0  0  0  0  0  0  0  0  0  0
    5.7964    1.1928   18.1379 N   0  0  0  0  0  0  0  0  0  0  0  0
    6.7788    0.9941   19.0874 N   0  0  0  0  0  0  0  0  0  0  0  0
    5.4297   -0.7283   19.1191 N   0  0  0  0  0  0  0  0  0  0  0  0
    7.2820   -0.7860   20.6970 N   0  0  0  0  0  0  0  0  0  0  0  0
    8.9170    0.7530   21.0260 O   0  0  0  0  0  0  0  0  0  0  0  0
   13.8840   -1.8490   21.2740 Cl  0  0  0  0  0  0  0  0  0  0  0  0
   12.2249    1.2198   24.6546 H   0  0  0  0  0  0  0  0  0  0  0  0
    9.8763    0.5350   24.3454 H   0  0  0  0  0  0  0  0  0  0  0  0
   14.0077    0.1988   23.2842 H   0  0  0  0  0  0  0  0  0  0  0  0
   11.0892   -2.3009   21.3624 H   0  0  0  0  0  0  0  0  0  0  0  0
    4.1251   -0.0120   17.5555 H   0  0  0  0  0  0  0  0  0  0  0  0
    5.2664   -2.7616   18.8242 H   0  0  0  0  0  0  0  0  0  0  0  0
    4.9970   -2.2106   20.5126 H   0  0  0  0  0  0  0  0  0  0  0  0
    3.7410   -1.9284   19.2806 H   0  0  0  0  0  0  0  0  0  0  0  0
    8.7709   -2.2387   22.1706 H   0  0  0  0  0  0  0  0  0  0  0  0
    8.2491   -1.0157   23.3232 H   0  0  0  0  0  0  0  0  0  0  0  0
    6.9372   -1.6894   21.0149 H   0  0  0  0  0  0  0  0  0  0  0  0
  1  2  2  0  0  0  0
  1  3  1  0  0  0  0
  2  6  1  0  0  0  0
  3  7  2  0  0  0  0
  4  6  2  0  0  0  0
  4  7  1  0  0  0  0
  5 12  2  0  0  0  0
  5 14  1  0  0  0  0
  6 11  1  0  0  0  0
  7 17  1  0  0  0  0
  8 13  2  0  0  0  0
  8 14  1  0  0  0  0
  8 15  1  0  0  0  0
  9 11  1  0  0  0  0
  9 15  1  0  0  0  0
  9 16  2  0  0  0  0
 10 14  1  0  0  0  0
 12 13  1  0  0  0  0
  1 18  1  0  0  0  0
  2 19  1  0  0  0  0
  3 20  1  0  0  0  0
  4 21  1  0  0  0  0
  5 22  1  0  0  0  0
 10 23  1  0  0  0  0
 10 24  1  0  0  0  0
 10 25  1  0  0  0  0
 11 26  1  0  0  0  0
 11 27  1  0  0  0  0
 15 28  1  0  0  0  0
M  END
> <compound>
NAU-LAT-e1818702-7

> <compound_smiles>
Cn1cnnc1NC(=O)Cc2cccc(c2)Cl

> <enantiomer_smiles>
Cn1cnnc1NC(=O)Cc2cccc(c2)Cl

> <scaffold>
chlorobenzene-linker

> <clash_score>
0

> <docking_score>
-3.442596435546875

> <overlap_score>
0.7404438853263855

> <MMFF_internal_energy>
20.49652087988295

> <docked_smiles>
Cn1cnnc1NC(=O)Cc2cccc(c2)Cl

$$$$
ADA-UCB-6c2cb422-8_1
  -OEChem-07262101013D

 53 56  0     1  0  0  0  0  0999 V2000
    5.7231    3.2814   21.0260 C   0  0  0  0  0  0  0  0  0  0  0  0
    5.1211    3.8552   19.9107 C   0  0  0  0  0  0  0  0  0  0  0  0
    6.2711   -5.8767   25.0881 C   0  0  0  0  0  0  0  0  0  0  0  0
    6.3035   -4.5255   25.4326 C   0  0  0  0  0  0  0  0  0  0  0  0
   11.9780    0.4600   23.9150 C   0  0  0  0  0  0  0  0  0  0  0  0
    6.2354    1.9810   20.9618 C   0  0  0  0  0  0  0  0  0  0  0  0
   10.6560    0.0720   23.7350 C   0  0  0  0  0  0  0  0  0  0  0  0
    5.0293    3.1304   18.7271 C   0  0  0  0  0  0  0  0  0  0  0  0
    6.5870   -6.2729   23.7885 C   0  0  0  0  0  0  0  0  0  0  0  0
    6.6518   -3.5704   24.4775 C   0  0  0  0  0  0  0  0  0  0  0  0
   12.9840   -0.1200   23.1530 C   0  0  0  0  0  0  0  0  0  0  0  0
   11.3360   -1.5050   22.0650 C   0  0  0  0  0  0  0  0  0  0  0  0
    6.1550    1.2285   19.7785 C   0  0  0  0  0  0  0  0  0  0  0  0
   10.3220   -0.8940   22.7910 C   0  0  0  0  0  0  0  0  0  0  0  0
    5.5426    1.8295   18.6650 C   0  0  0  0  0  0  0  0  0  0  0  0
    6.9352   -5.3179   22.8334 C   0  0  0  0  0  0  0  0  0  0  0  0
    6.9676   -3.9666   23.1779 C   0  0  0  0  0  0  0  0  0  0  0  0
   12.6400   -1.1000   22.2390 C   0  0  0  0  0  0  0  0  0  0  0  0
    6.5482   -0.7817   18.4633 C   0  0  0  0  0  0  0  0  0  0  0  0
    6.6789   -0.1546   19.6457 C   0  0  0  0  0  0  0  0  0  0  0  0
    5.9039   -0.1566   17.2816 C   0  0  0  0  0  0  0  0  0  0  0  0
    8.3880   -0.3240   21.3070 C   0  0  0  0  0  0  0  0  0  0  0  0
    7.1834   -7.1168   21.2978 C   0  0  0  0  0  0  0  0  0  0  0  0
    8.6879   -2.6891   22.1462 C   0  0  0  0  0  0  0  0  0  0  0  0
    8.8810   -1.1900   22.4510 C   0  0  1  0  0  0  0  0  0  0  0  0
    5.4347    1.1242   17.4550 N   0  0  0  0  0  0  0  0  0  0  0  0
    7.2820   -0.7860   20.6970 N   0  0  0  0  0  0  0  0  0  0  0  0
    5.8126   -0.7816   16.2273 O   0  0  0  0  0  0  0  0  0  0  0  0
    8.9170    0.7530   21.0260 O   0  0  0  0  0  0  0  0  0  0  0  0
    7.2405   -5.7174   21.5673 O   0  0  0  0  0  0  0  0  0  0  0  0
    7.3068   -3.0192   22.2489 O   0  0  0  0  0  0  0  0  0  0  0  0
   13.8840   -1.8490   21.2740 Cl  0  0  0  0  0  0  0  0  0  0  0  0
    5.7958    3.8448   21.9521 H   0  0  0  0  0  0  0  0  0  0  0  0
    4.7246    4.8647   19.9643 H   0  0  0  0  0  0  0  0  0  0  0  0
    6.0001   -6.6206   25.8320 H   0  0  0  0  0  0  0  0  0  0  0  0
    6.0576   -4.2171   26.4442 H   0  0  0  0  0  0  0  0  0  0  0  0
   12.2249    1.2198   24.6546 H   0  0  0  0  0  0  0  0  0  0  0  0
    6.6955    1.5780   21.8597 H   0  0  0  0  0  0  0  0  0  0  0  0
    9.8763    0.5350   24.3454 H   0  0  0  0  0  0  0  0  0  0  0  0
    4.5584    3.5845   17.8590 H   0  0  0  0  0  0  0  0  0  0  0  0
    6.5601   -7.3272   23.5266 H   0  0  0  0  0  0  0  0  0  0  0  0
    6.6734   -2.5194   24.7521 H   0  0  0  0  0  0  0  0  0  0  0  0
   14.0077    0.1988   23.2842 H   0  0  0  0  0  0  0  0  0  0  0  0
   11.0892   -2.3009   21.3624 H   0  0  0  0  0  0  0  0  0  0  0  0
    6.9164   -1.7945   18.3229 H   0  0  0  0  0  0  0  0  0  0  0  0
    7.4489   -7.2986   20.2535 H   0  0  0  0  0  0  0  0  0  0  0  0
    6.1746   -7.4865   21.4981 H   0  0  0  0  0  0  0  0  0  0  0  0
    7.8941   -7.6332   21.9473 H   0  0  0  0  0  0  0  0  0  0  0  0
    9.0082   -2.9170   21.1232 H   0  0  0  0  0  0  0  0  0  0  0  0
    9.2487   -3.3311   22.8341 H   0  0  0  0  0  0  0  0  0  0  0  0
    8.2421   -0.9590   23.3236 H   0  0  0  0  0  0  0  0  0  0  0  0
    4.9850    1.5867   16.6700 H   0  0  0  0  0  0  0  0  0  0  0  0
    6.8728   -1.6510   21.0360 H   0  0  0  0  0  0  0  0  0  0  0  0
  1  2  2  0  0  0  0
  1  6  1  0  0  0  0
  2  8  1  0  0  0  0
  3  4  1  0  0  0  0
  3  9  2  0  0  0  0
  4 10  2  0  0  0  0
  5  7  2  0  0  0  0
  5 11  1  0  0  0  0
  6 13  2  0  0  0  0
  7 14  1  0  0  0  0
  8 15  2  0  0  0  0
  9 16  1  0  0  0  0
 10 17  1  0  0  0  0
 11 18  2  0  0  0  0
 12 14  2  0  0  0  0
 12 18  1  0  0  0  0
 13 15  1  0  0  0  0
 13 20  1  0  0  0  0
 14 25  1  0  0  0  0
 15 26  1  0  0  0  0
 16 17  2  0  0  0  0
 16 30  1  0  0  0  0
 17 31  1  0  0  0  0
 18 32  1  0  0  0  0
 19 20  2  0  0  0  0
 19 21  1  0  0  0  0
 20 27  1  0  0  0  0
 21 26  1  0  0  0  0
 21 28  2  0  0  0  0
 22 25  1  0  0  0  0
 22 27  1  0  0  0  0
 22 29  2  0  0  0  0
 23 30  1  0  0  0  0
 24 25  1  0  0  0  0
 24 31  1  0  0  0  0
  1 33  1  0  0  0  0
  2 34  1  0  0  0  0
  3 35  1  0  0  0  0
  4 36  1  0  0  0  0
  5 37  1  0  0  0  0
  6 38  1  0  0  0  0
  7 39  1  0  0  0  0
  8 40  1  0  0  0  0
  9 41  1  0  0  0  0
 10 42  1  0  0  0  0
 11 43  1  0  0  0  0
 12 44  1  0  0  0  0
 19 45  1  0  0  0  0
 23 46  1  0  0  0  0
 23 47  1  0  0  0  0
 23 48  1  0  0  0  0
 24 49  1  0  0  0  0
 24 50  1  0  0  0  0
 25 51  1  0  0  0  0
 26 52  1  0  0  0  0
 27 53  1  0  0  0  0
M  END
> <compound>
ADA-UCB-6c2cb422-8

> <compound_smiles>
COc1ccccc1OC[C@@H](c2cccc(c2)Cl)C(=O)Nc3cc(=O)[nH]c4c3cccc4

> <enantiomer_smiles>
COc1ccccc1OC[C@@H](c2cccc(c2)Cl)C(=O)Nc3cc(=O)[nH]c4c3cccc4

> <scaffold>
chlorobenzene-linker

> <clash_score>
1.364349785936494

> <docking_score>
-3.300415515899658

> <overlap_score>
0.8231340050697327

> <MMFF_internal_energy>
92.22576302722165

> <docked_smiles>
COc1ccccc1OC[C@@H](c2cccc(c2)Cl)C(=O)Nc3cc(=O)[nH]c4c3cccc4

$$$$
NAU-LAT-e1818702-9_1
  -OEChem-07262101013D

 38 40  0     0  0  0  0  0  0999 V2000
    3.3145    0.7197   24.0693 C   0  0  0  0  0  0  0  0  0  0  0  0
    3.0786   -0.6472   23.9220 C   0  0  0  0  0  0  0  0  0  0  0  0
    3.8816    1.4463   23.0223 C   0  0  0  0  0  0  0  0  0  0  0  0
   11.9780    0.4600   23.9150 C   0  0  0  0  0  0  0  0  0  0  0  0
    3.4098   -1.2874   22.7279 C   0  0  0  0  0  0  0  0  0  0  0  0
    4.2128    0.8061   21.8282 C   0  0  0  0  0  0  0  0  0  0  0  0
   10.6560    0.0720   23.7350 C   0  0  0  0  0  0  0  0  0  0  0  0
   12.9840   -0.1200   23.1530 C   0  0  0  0  0  0  0  0  0  0  0  0
   11.3360   -1.5050   22.0650 C   0  0  0  0  0  0  0  0  0  0  0  0
    4.8258    0.3085   18.4762 C   0  0  0  0  0  0  0  0  0  0  0  0
    3.9770   -0.5608   21.6809 C   0  0  0  0  0  0  0  0  0  0  0  0
   10.3220   -0.8940   22.7910 C   0  0  0  0  0  0  0  0  0  0  0  0
   12.6400   -1.1000   22.2390 C   0  0  0  0  0  0  0  0  0  0  0  0
    6.5437   -0.2085   19.6971 C   0  0  0  0  0  0  0  0  0  0  0  0
    8.3880   -0.3240   21.3070 C   0  0  0  0  0  0  0  0  0  0  0  0
    8.8810   -1.1900   22.4510 C   0  0  0  0  0  0  0  0  0  0  0  0
    4.3316   -1.2448   20.4039 C   0  0  0  0  0  0  0  0  0  0  0  0
    5.8695    0.9262   17.9707 N   0  0  0  0  0  0  0  0  0  0  0  0
    6.9625    0.5973   18.7474 N   0  0  0  0  0  0  0  0  0  0  0  0
    5.2045   -0.4174   19.5645 N   0  0  0  0  0  0  0  0  0  0  0  0
    7.2820   -0.7860   20.6970 N   0  0  0  0  0  0  0  0  0  0  0  0
    8.9170    0.7530   21.0260 O   0  0  0  0  0  0  0  0  0  0  0  0
   13.8840   -1.8490   21.2740 Cl  0  0  0  0  0  0  0  0  0  0  0  0
    3.0553    1.2183   24.9987 H   0  0  0  0  0  0  0  0  0  0  0  0
    2.6360   -1.2129   24.7367 H   0  0  0  0  0  0  0  0  0  0  0  0
    4.0644    2.5107   23.1362 H   0  0  0  0  0  0  0  0  0  0  0  0
   12.2249    1.2198   24.6546 H   0  0  0  0  0  0  0  0  0  0  0  0
    3.2226   -2.3528   22.6222 H   0  0  0  0  0  0  0  0  0  0  0  0
    4.6544    1.3803   21.0179 H   0  0  0  0  0  0  0  0  0  0  0  0
    9.8763    0.5350   24.3454 H   0  0  0  0  0  0  0  0  0  0  0  0
   14.0077    0.1988   23.2842 H   0  0  0  0  0  0  0  0  0  0  0  0
   11.0892   -2.3009   21.3624 H   0  0  0  0  0  0  0  0  0  0  0  0
    3.8113    0.3520   18.1060 H   0  0  0  0  0  0  0  0  0  0  0  0
    8.7774   -2.2383   22.1732 H   0  0  0  0  0  0  0  0  0  0  0  0
    8.2557   -1.0153   23.3257 H   0  0  0  0  0  0  0  0  0  0  0  0
    4.8488   -2.2011   20.5816 H   0  0  0  0  0  0  0  0  0  0  0  0
    3.4373   -1.4934   19.8104 H   0  0  0  0  0  0  0  0  0  0  0  0
    6.9402   -1.7077   21.0296 H   0  0  0  0  0  0  0  0  0  0  0  0
  1  2  1  0  0  0  0
  1  3  2  0  0  0  0
  2  5  2  0  0  0  0
  3  6  1  0  0  0  0
  4  7  2  0  0  0  0
  4  8  1  0  0  0  0
  5 11  1  0  0  0  0
  6 11  2  0  0  0  0
  7 12  1  0  0  0  0
  8 13  2  0  0  0  0
  9 12  2  0  0  0  0
  9 13  1  0  0  0  0
 10 18  2  0  0  0  0
 10 20  1  0  0  0  0
 11 17  1  0  0  0  0
 12 16  1  0  0  0  0
 13 23  1  0  0  0  0
 14 19  2  0  0  0  0
 14 20  1  0  0  0  0
 14 21  1  0  0  0  0
 15 16  1  0  0  0  0
 15 21  1  0  0  0  0
 15 22  2  0  0  0  0
 17 20  1  0  0  0  0
 18 19  1  0  0  0  0
  1 24  1  0  0  0  0
  2 25  1  0  0  0  0
  3 26  1  0  0  0  0
  4 27  1  0  0  0  0
  5 28  1  0  0  0  0
  6 29  1  0  0  0  0
  7 30  1  0  0  0  0
  8 31  1  0  0  0  0
  9 32  1  0  0  0  0
 10 33  1  0  0  0  0
 16 34  1  0  0  0  0
 16 35  1  0  0  0  0
 17 36  1  0  0  0  0
 17 37  1  0  0  0  0
 21 38  1  0  0  0  0
M  END
> <compound>
NAU-LAT-e1818702-9

> <compound_smiles>
c1ccc(cc1)Cn2cnnc2NC(=O)Cc3cccc(c3)Cl

> <enantiomer_smiles>
c1ccc(cc1)Cn2cnnc2NC(=O)Cc3cccc(c3)Cl

> <scaffold>
chlorobenzene-linker

> <clash_score>
2.865841714134322

> <docking_score>
-2.7103376388549805

> <overlap_score>
0.8142270445823669

> <MMFF_internal_energy>
53.84790041805121

> <docked_smiles>
c1ccc(cc1)Cn2cnnc2NC(=O)Cc3cccc(c3)Cl

$$$$
NAU-LAT-e1818702-8_1
  -OEChem-07262101013D

 35 37  0     0  0  0  0  0  0999 V2000
    2.6133   -2.6825   21.8078 C   0  0  0  0  0  0  0  0  0  0  0  0
    2.3511   -2.4790   20.4531 C   0  0  0  0  0  0  0  0  0  0  0  0
    3.7389   -2.1044   22.3949 C   0  0  0  0  0  0  0  0  0  0  0  0
   11.9780    0.4600   23.9150 C   0  0  0  0  0  0  0  0  0  0  0  0
   10.6560    0.0720   23.7350 C   0  0  0  0  0  0  0  0  0  0  0  0
    3.2145   -1.6976   19.6853 C   0  0  0  0  0  0  0  0  0  0  0  0
    4.6023   -1.3230   21.6271 C   0  0  0  0  0  0  0  0  0  0  0  0
   12.9840   -0.1200   23.1530 C   0  0  0  0  0  0  0  0  0  0  0  0
   11.3360   -1.5050   22.0650 C   0  0  0  0  0  0  0  0  0  0  0  0
    4.8573    0.4100   18.4219 C   0  0  0  0  0  0  0  0  0  0  0  0
   10.3220   -0.8940   22.7910 C   0  0  0  0  0  0  0  0  0  0  0  0
    4.3401   -1.1195   20.2723 C   0  0  0  0  0  0  0  0  0  0  0  0
   12.6400   -1.1000   22.2390 C   0  0  0  0  0  0  0  0  0  0  0  0
    6.5418   -0.1622   19.6645 C   0  0  0  0  0  0  0  0  0  0  0  0
    8.3880   -0.3240   21.3070 C   0  0  0  0  0  0  0  0  0  0  0  0
    8.8810   -1.1900   22.4510 C   0  0  0  0  0  0  0  0  0  0  0  0
    5.9229    1.0121   17.9440 N   0  0  0  0  0  0  0  0  0  0  0  0
    6.9946    0.6480   18.7346 N   0  0  0  0  0  0  0  0  0  0  0  0
    5.2010   -0.3399   19.5056 N   0  0  0  0  0  0  0  0  0  0  0  0
    7.2820   -0.7860   20.6970 N   0  0  0  0  0  0  0  0  0  0  0  0
    8.9170    0.7530   21.0260 O   0  0  0  0  0  0  0  0  0  0  0  0
   13.8840   -1.8490   21.2740 Cl  0  0  0  0  0  0  0  0  0  0  0  0
    1.9404   -3.2893   22.4065 H   0  0  0  0  0  0  0  0  0  0  0  0
    1.4741   -2.9279   19.9961 H   0  0  0  0  0  0  0  0  0  0  0  0
    3.9416   -2.2621   23.4503 H   0  0  0  0  0  0  0  0  0  0  0  0
   12.2249    1.2198   24.6546 H   0  0  0  0  0  0  0  0  0  0  0  0
    9.8763    0.5350   24.3454 H   0  0  0  0  0  0  0  0  0  0  0  0
    2.9981   -1.5463   18.6305 H   0  0  0  0  0  0  0  0  0  0  0  0
    5.4756   -0.8776   22.0975 H   0  0  0  0  0  0  0  0  0  0  0  0
   14.0077    0.1988   23.2842 H   0  0  0  0  0  0  0  0  0  0  0  0
   11.0892   -2.3009   21.3624 H   0  0  0  0  0  0  0  0  0  0  0  0
    3.8512    0.4830   18.0324 H   0  0  0  0  0  0  0  0  0  0  0  0
    8.7709   -2.2387   22.1706 H   0  0  0  0  0  0  0  0  0  0  0  0
    8.2491   -1.0157   23.3232 H   0  0  0  0  0  0  0  0  0  0  0  0
    6.9372   -1.6894   21.0149 H   0  0  0  0  0  0  0  0  0  0  0  0
  1  2  1  0  0  0  0
  1  3  2  0  0  0  0
  2  6  2  0  0  0  0
  3  7  1  0  0  0  0
  4  5  2  0  0  0  0
  4  8  1  0  0  0  0
  5 11  1  0  0  0  0
  6 12  1  0  0  0  0
  7 12  2  0  0  0  0
  8 13  2  0  0  0  0
  9 11  2  0  0  0  0
  9 13  1  0  0  0  0
 10 17  2  0  0  0  0
 10 19  1  0  0  0  0
 11 16  1  0  0  0  0
 12 19  1  0  0  0  0
 13 22  1  0  0  0  0
 14 18  2  0  0  0  0
 14 19  1  0  0  0  0
 14 20  1  0  0  0  0
 15 16  1  0  0  0  0
 15 20  1  0  0  0  0
 15 21  2  0  0  0  0
 17 18  1  0  0  0  0
  1 23  1  0  0  0  0
  2 24  1  0  0  0  0
  3 25  1  0  0  0  0
  4 26  1  0  0  0  0
  5 27  1  0  0  0  0
  6 28  1  0  0  0  0
  7 29  1  0  0  0  0
  8 30  1  0  0  0  0
  9 31  1  0  0  0  0
 10 32  1  0  0  0  0
 16 33  1  0  0  0  0
 16 34  1  0  0  0  0
 20 35  1  0  0  0  0
M  END
> <compound>
NAU-LAT-e1818702-8

> <compound_smiles>
c1ccc(cc1)n2cnnc2NC(=O)Cc3cccc(c3)Cl

> <enantiomer_smiles>
c1ccc(cc1)n2cnnc2NC(=O)Cc3cccc(c3)Cl

> <scaffold>
chlorobenzene-linker

> <clash_score>
14.710598271304857

> <docking_score>
-0.15359753370285034

> <overlap_score>
0.759159505367279

> <MMFF_internal_energy>
82.19224378211969

> <docked_smiles>
c1ccc(cc1)n2cnnc2NC(=O)Cc3cccc(c3)Cl

$$$$
ALP-POS-3fc1724e-8_2
  -OEChem-07262101013D

 54 57  0     1  0  0  0  0  0999 V2000
    3.9615    1.5244   16.3923 C   0  0  0  0  0  0  0  0  0  0  0  0
    4.8871    2.5681   16.4630 C   0  0  0  0  0  0  0  0  0  0  0  0
   11.9780    0.4600   23.9150 C   0  0  0  0  0  0  0  0  0  0  0  0
   10.6560    0.0720   23.7350 C   0  0  0  0  0  0  0  0  0  0  0  0
    4.0691    0.4068   17.2295 C   0  0  0  0  0  0  0  0  0  0  0  0
    5.9514    2.5341   17.3700 C   0  0  0  0  0  0  0  0  0  0  0  0
   12.9840   -0.1200   23.1530 C   0  0  0  0  0  0  0  0  0  0  0  0
   11.3360   -1.5050   22.0650 C   0  0  0  0  0  0  0  0  0  0  0  0
   10.3220   -0.8940   22.7910 C   0  0  0  0  0  0  0  0  0  0  0  0
    5.1323    0.3560   18.1467 C   0  0  0  0  0  0  0  0  0  0  0  0
    6.0388    1.4114   18.1937 C   0  0  0  0  0  0  0  0  0  0  0  0
   12.6400   -1.1000   22.2390 C   0  0  0  0  0  0  0  0  0  0  0  0
    6.5416   -0.1628   19.6647 C   0  0  0  0  0  0  0  0  0  0  0  0
    8.3880   -0.3240   21.3070 C   0  0  0  0  0  0  0  0  0  0  0  0
    9.0478   -5.9775   25.5953 C   0  0  0  0  0  0  0  0  0  0  0  0
   10.3105   -5.1220   25.5632 C   0  0  0  0  0  0  0  0  0  0  0  0
    8.0186   -5.4970   24.5770 C   0  0  0  0  0  0  0  0  0  0  0  0
    9.9916   -3.6399   25.7460 C   0  0  0  0  0  0  0  0  0  0  0  0
    7.6959   -4.0155   24.7580 C   0  0  0  0  0  0  0  0  0  0  0  0
    8.9630   -3.1506   24.7175 C   0  0  0  0  0  0  0  0  0  0  0  0
    8.6207   -1.6808   24.9542 C   0  0  0  0  0  0  0  0  0  0  0  0
    7.9817   -1.0558   23.7121 C   0  0  0  0  0  0  0  0  0  0  0  0
    8.8810   -1.1900   22.4510 C   0  0  2  0  0  0  0  0  0  0  0  0
    5.4607   -0.6123   19.0676 N   0  0  0  0  0  0  0  0  0  0  0  0
    6.9289    1.0528   19.1733 N   0  0  0  0  0  0  0  0  0  0  0  0
    7.2820   -0.7860   20.6970 N   0  0  0  0  0  0  0  0  0  0  0  0
    8.9170    0.7530   21.0260 O   0  0  0  0  0  0  0  0  0  0  0  0
   13.8840   -1.8490   21.2740 Cl  0  0  0  0  0  0  0  0  0  0  0  0
    3.1440    1.5792   15.6779 H   0  0  0  0  0  0  0  0  0  0  0  0
    4.7801    3.4229   15.7996 H   0  0  0  0  0  0  0  0  0  0  0  0
   12.2249    1.2198   24.6546 H   0  0  0  0  0  0  0  0  0  0  0  0
    9.8763    0.5350   24.3454 H   0  0  0  0  0  0  0  0  0  0  0  0
    3.3451   -0.3996   17.1668 H   0  0  0  0  0  0  0  0  0  0  0  0
    6.6716    3.3424   17.4259 H   0  0  0  0  0  0  0  0  0  0  0  0
   14.0077    0.1988   23.2842 H   0  0  0  0  0  0  0  0  0  0  0  0
   11.0892   -2.3009   21.3624 H   0  0  0  0  0  0  0  0  0  0  0  0
    9.3058   -7.0232   25.3934 H   0  0  0  0  0  0  0  0  0  0  0  0
    8.6097   -5.9431   26.6003 H   0  0  0  0  0  0  0  0  0  0  0  0
   10.9980   -5.4513   26.3506 H   0  0  0  0  0  0  0  0  0  0  0  0
   10.8269   -5.2685   24.6066 H   0  0  0  0  0  0  0  0  0  0  0  0
    8.4016   -5.6655   23.5629 H   0  0  0  0  0  0  0  0  0  0  0  0
    7.1013   -6.0888   24.6738 H   0  0  0  0  0  0  0  0  0  0  0  0
    9.6103   -3.4764   26.7623 H   0  0  0  0  0  0  0  0  0  0  0  0
   10.9163   -3.0572   25.6570 H   0  0  0  0  0  0  0  0  0  0  0  0
    7.0006   -3.6980   23.9717 H   0  0  0  0  0  0  0  0  0  0  0  0
    7.1779   -3.8743   25.7153 H   0  0  0  0  0  0  0  0  0  0  0  0
    9.4075   -3.2365   23.7169 H   0  0  0  0  0  0  0  0  0  0  0  0
    9.5378   -1.1445   25.2153 H   0  0  0  0  0  0  0  0  0  0  0  0
    7.9453   -1.6145   25.8114 H   0  0  0  0  0  0  0  0  0  0  0  0
    7.7484   -0.0027   23.9143 H   0  0  0  0  0  0  0  0  0  0  0  0
    7.0230   -1.5566   23.5215 H   0  0  0  0  0  0  0  0  0  0  0  0
    8.8046   -2.2495   22.1323 H   0  0  0  0  0  0  0  0  0  0  0  0
    7.7292    1.5904   19.4783 H   0  0  0  0  0  0  0  0  0  0  0  0
    6.9195   -1.6850   21.0071 H   0  0  0  0  0  0  0  0  0  0  0  0
  1  2  1  0  0  0  0
  1  5  2  0  0  0  0
  2  6  2  0  0  0  0
  3  4  2  0  0  0  0
  3  7  1  0  0  0  0
  4  9  1  0  0  0  0
  5 10  1  0  0  0  0
  6 11  1  0  0  0  0
  7 12  2  0  0  0  0
  8  9  2  0  0  0  0
  8 12  1  0  0  0  0
  9 23  1  0  0  0  0
 10 11  2  0  0  0  0
 10 24  1  0  0  0  0
 11 25  1  0  0  0  0
 12 28  1  0  0  0  0
 13 24  2  0  0  0  0
 13 25  1  0  0  0  0
 13 26  1  0  0  0  0
 14 23  1  6  0  0  0
 14 26  1  0  0  0  0
 14 27  2  0  0  0  0
 15 16  1  0  0  0  0
 15 17  1  0  0  0  0
 16 18  1  0  0  0  0
 17 19  1  0  0  0  0
 18 20  1  0  0  0  0
 19 20  1  0  0  0  0
 20 21  1  0  0  0  0
 21 22  1  0  0  0  0
 22 23  1  0  0  0  0
  1 29  1  0  0  0  0
  2 30  1  0  0  0  0
  3 31  1  0  0  0  0
  4 32  1  0  0  0  0
  5 33  1  0  0  0  0
  6 34  1  0  0  0  0
  7 35  1  0  0  0  0
  8 36  1  0  0  0  0
 15 37  1  0  0  0  0
 15 38  1  0  0  0  0
 16 39  1  0  0  0  0
 16 40  1  0  0  0  0
 17 41  1  0  0  0  0
 17 42  1  0  0  0  0
 18 43  1  0  0  0  0
 18 44  1  0  0  0  0
 19 45  1  0  0  0  0
 19 46  1  0  0  0  0
 20 47  1  0  0  0  0
 21 48  1  0  0  0  0
 21 49  1  0  0  0  0
 22 50  1  0  0  0  0
 22 51  1  0  0  0  0
 23 52  1  0  0  0  0
 25 53  1  0  0  0  0
 26 54  1  0  0  0  0
M  END
> <compound>
ALP-POS-3fc1724e-8

> <compound_smiles>
c1ccc2c(c1)[nH]c(n2)NC(=O)C(CCC3CCCCC3)c4cccc(c4)Cl

> <enantiomer_smiles>
c1ccc2c(c1)[nH]c(n2)NC(=O)[C@H](CCC3CCCCC3)c4cccc(c4)Cl

> <scaffold>
chlorobenzene-linker

> <clash_score>
1.4235305733331007

> <docking_score>
-0.9251958131790161

> <overlap_score>
0.7780580520629883

> <MMFF_internal_energy>
31.490220022860772

> <docked_smiles>
c1ccc2c(c1)[nH]c(n2)NC(=O)[C@H](CCC3CCCCC3)c4cccc(c4)Cl

$$$$
MIC-UNK-42806bd5-2_2
  -OEChem-07262101013D

 30 31  0     1  0  0  0  0  0999 V2000
   11.9780    0.4600   23.9150 C   0  0  0  0  0  0  0  0  0  0  0  0
   10.6560    0.0720   23.7350 C   0  0  0  0  0  0  0  0  0  0  0  0
   12.9840   -0.1200   23.1530 C   0  0  0  0  0  0  0  0  0  0  0  0
   11.3360   -1.5050   22.0650 C   0  0  0  0  0  0  0  0  0  0  0  0
   10.3220   -0.8940   22.7910 C   0  0  0  0  0  0  0  0  0  0  0  0
   12.6400   -1.1000   22.2390 C   0  0  0  0  0  0  0  0  0  0  0  0
    4.7900   -0.0896   18.1324 C   0  0  0  0  0  0  0  0  0  0  0  0
    8.3880   -0.3240   21.3070 C   0  0  0  0  0  0  0  0  0  0  0  0
    5.8849   -0.9818   18.6683 C   0  0  0  0  0  0  0  0  0  0  0  0
    5.5128    0.8513   20.1668 C   0  0  0  0  0  0  0  0  0  0  0  0
    6.6077   -0.0678   19.6561 C   0  0  1  0  0  0  0  0  0  0  0  0
    8.8810   -1.1900   22.4510 C   0  0  0  0  0  0  0  0  0  0  0  0
    4.6257    0.9525   19.0397 N   0  0  0  0  0  0  0  0  0  0  0  0
    7.2820   -0.7860   20.6970 N   0  0  0  0  0  0  0  0  0  0  0  0
    4.1508   -0.2896   17.1112 O   0  0  0  0  0  0  0  0  0  0  0  0
    8.9170    0.7530   21.0260 O   0  0  0  0  0  0  0  0  0  0  0  0
   13.8840   -1.8490   21.2740 Cl  0  0  0  0  0  0  0  0  0  0  0  0
   12.2249    1.2198   24.6546 H   0  0  0  0  0  0  0  0  0  0  0  0
    9.8763    0.5350   24.3454 H   0  0  0  0  0  0  0  0  0  0  0  0
   14.0077    0.1988   23.2842 H   0  0  0  0  0  0  0  0  0  0  0  0
   11.0892   -2.3009   21.3624 H   0  0  0  0  0  0  0  0  0  0  0  0
    5.4193   -1.8437   19.1578 H   0  0  0  0  0  0  0  0  0  0  0  0
    6.5447   -1.3154   17.8633 H   0  0  0  0  0  0  0  0  0  0  0  0
    4.9443    0.4209   20.9979 H   0  0  0  0  0  0  0  0  0  0  0  0
    5.8798    1.8434   20.4423 H   0  0  0  0  0  0  0  0  0  0  0  0
    7.3660    0.5216   19.1254 H   0  0  0  0  0  0  0  0  0  0  0  0
    8.7773   -2.2383   22.1737 H   0  0  0  0  0  0  0  0  0  0  0  0
    8.2516   -1.0144   23.3225 H   0  0  0  0  0  0  0  0  0  0  0  0
    3.9526    1.7028   18.9190 H   0  0  0  0  0  0  0  0  0  0  0  0
    6.9057   -1.6892   20.9886 H   0  0  0  0  0  0  0  0  0  0  0  0
  1  2  1  0  0  0  0
  1  3  2  0  0  0  0
  2  5  2  0  0  0  0
  3  6  1  0  0  0  0
  4  5  1  0  0  0  0
  4  6  2  0  0  0  0
  5 12  1  0  0  0  0
  6 17  1  0  0  0  0
  7  9  1  0  0  0  0
  7 13  1  0  0  0  0
  7 15  2  0  0  0  0
  8 12  1  0  0  0  0
  8 14  1  0  0  0  0
  8 16  2  0  0  0  0
  9 11  1  0  0  0  0
 10 11  1  0  0  0  0
 10 13  1  0  0  0  0
 11 14  1  6  0  0  0
  1 18  1  0  0  0  0
  2 19  1  0  0  0  0
  3 20  1  0  0  0  0
  4 21  1  0  0  0  0
  9 22  1  0  0  0  0
  9 23  1  0  0  0  0
 10 24  1  0  0  0  0
 10 25  1  0  0  0  0
 11 26  1  0  0  0  0
 12 27  1  0  0  0  0
 12 28  1  0  0  0  0
 13 29  1  0  0  0  0
 14 30  1  0  0  0  0
M  END
> <compound>
MIC-UNK-42806bd5-2

> <compound_smiles>
c1cc(cc(c1)Cl)CC(=O)NC2CC(=O)NC2

> <enantiomer_smiles>
c1cc(cc(c1)Cl)CC(=O)N[C@H]2CC(=O)NC2

> <scaffold>
chlorobenzene-linker

> <canonical_CID>
MIC-UNK-42806bd5-2

> <r_inhibition_at_20_uM>

> <r_inhibition_at_50_uM>

> <r_avg_IC50>
99.0

> <f_inhibition_at_20_uM>

> <f_inhibition_at_50_uM>

> <f_avg_IC50>

> <f_avg_pIC50>

> <relative_solubility_at_20_uM>

> <relative_solubility_at_100_uM>

> <trypsin_IC50>

> <NMR_std_ratio>

> <acrylamide>
False

> <chloroacetamide>
False

> <series>
3-aminopyridine-like

> <frag_id>

> <clash_score>
0.6588837165272358

> <docking_score>
-5.458438873291016

> <overlap_score>
0.7516830563545227

> <MMFF_internal_energy>
13.103137740184719

> <docked_smiles>
c1cc(cc(c1)Cl)CC(=O)N[C@H]2CC(=O)NC2

$$$$
ALP-POS-3fc1724e-8_1
  -OEChem-07262101013D

 54 57  0     1  0  0  0  0  0999 V2000
    3.9615    1.5244   16.3923 C   0  0  0  0  0  0  0  0  0  0  0  0
    4.8871    2.5681   16.4630 C   0  0  0  0  0  0  0  0  0  0  0  0
   11.9780    0.4600   23.9150 C   0  0  0  0  0  0  0  0  0  0  0  0
   10.6560    0.0720   23.7350 C   0  0  0  0  0  0  0  0  0  0  0  0
    4.0691    0.4068   17.2295 C   0  0  0  0  0  0  0  0  0  0  0  0
    5.9514    2.5341   17.3700 C   0  0  0  0  0  0  0  0  0  0  0  0
   12.9840   -0.1200   23.1530 C   0  0  0  0  0  0  0  0  0  0  0  0
   11.3360   -1.5050   22.0650 C   0  0  0  0  0  0  0  0  0  0  0  0
   10.3220   -0.8940   22.7910 C   0  0  0  0  0  0  0  0  0  0  0  0
    5.1323    0.3560   18.1467 C   0  0  0  0  0  0  0  0  0  0  0  0
    6.0388    1.4114   18.1937 C   0  0  0  0  0  0  0  0  0  0  0  0
   12.6400   -1.1000   22.2390 C   0  0  0  0  0  0  0  0  0  0  0  0
    6.5416   -0.1628   19.6647 C   0  0  0  0  0  0  0  0  0  0  0  0
    8.3880   -0.3240   21.3070 C   0  0  0  0  0  0  0  0  0  0  0  0
    6.9936   -5.8290   25.5141 C   0  0  0  0  0  0  0  0  0  0  0  0
    6.4811   -5.1104   24.2699 C   0  0  0  0  0  0  0  0  0  0  0  0
    8.4738   -5.5537   25.7603 C   0  0  0  0  0  0  0  0  0  0  0  0
    6.7742   -3.6120   24.3228 C   0  0  0  0  0  0  0  0  0  0  0  0
    8.7674   -4.0554   25.8140 C   0  0  0  0  0  0  0  0  0  0  0  0
    8.2550   -3.2968   24.5809 C   0  0  0  0  0  0  0  0  0  0  0  0
    9.1160   -3.5780   23.3463 C   0  0  0  0  0  0  0  0  0  0  0  0
    8.6877   -2.7059   22.1641 C   0  0  0  0  0  0  0  0  0  0  0  0
    8.8810   -1.1900   22.4510 C   0  0  1  0  0  0  0  0  0  0  0  0
    5.4607   -0.6123   19.0676 N   0  0  0  0  0  0  0  0  0  0  0  0
    6.9289    1.0528   19.1733 N   0  0  0  0  0  0  0  0  0  0  0  0
    7.2820   -0.7860   20.6970 N   0  0  0  0  0  0  0  0  0  0  0  0
    8.9170    0.7530   21.0260 O   0  0  0  0  0  0  0  0  0  0  0  0
   13.8840   -1.8490   21.2740 Cl  0  0  0  0  0  0  0  0  0  0  0  0
    3.1440    1.5792   15.6779 H   0  0  0  0  0  0  0  0  0  0  0  0
    4.7801    3.4229   15.7996 H   0  0  0  0  0  0  0  0  0  0  0  0
   12.2249    1.2198   24.6546 H   0  0  0  0  0  0  0  0  0  0  0  0
    9.8763    0.5351   24.3454 H   0  0  0  0  0  0  0  0  0  0  0  0
    3.3451   -0.3996   17.1668 H   0  0  0  0  0  0  0  0  0  0  0  0
    6.6716    3.3424   17.4259 H   0  0  0  0  0  0  0  0  0  0  0  0
   14.0077    0.1988   23.2842 H   0  0  0  0  0  0  0  0  0  0  0  0
   11.0892   -2.3009   21.3624 H   0  0  0  0  0  0  0  0  0  0  0  0
    6.4099   -5.5142   26.3882 H   0  0  0  0  0  0  0  0  0  0  0  0
    6.8382   -6.9102   25.4004 H   0  0  0  0  0  0  0  0  0  0  0  0
    6.9443   -5.5451   23.3768 H   0  0  0  0  0  0  0  0  0  0  0  0
    5.3994   -5.2669   24.1768 H   0  0  0  0  0  0  0  0  0  0  0  0
    8.7799   -6.0190   26.7053 H   0  0  0  0  0  0  0  0  0  0  0  0
    9.0713   -6.0182   24.9677 H   0  0  0  0  0  0  0  0  0  0  0  0
    6.4555   -3.1501   23.3724 H   0  0  0  0  0  0  0  0  0  0  0  0
    6.1522   -3.1502   25.1076 H   0  0  0  0  0  0  0  0  0  0  0  0
    8.3163   -3.6320   26.7267 H   0  0  0  0  0  0  0  0  0  0  0  0
    9.8562   -3.9066   25.9168 H   0  0  0  0  0  0  0  0  0  0  0  0
    8.3338   -2.2106   24.7989 H   0  0  0  0  0  0  0  0  0  0  0  0
    9.0215   -4.6364   23.0861 H   0  0  0  0  0  0  0  0  0  0  0  0
   10.1628   -3.3944   23.6029 H   0  0  0  0  0  0  0  0  0  0  0  0
    7.6395   -2.9173   21.9174 H   0  0  0  0  0  0  0  0  0  0  0  0
    9.2791   -2.9930   21.2843 H   0  0  0  0  0  0  0  0  0  0  0  0
    8.2561   -0.9661   23.3396 H   0  0  0  0  0  0  0  0  0  0  0  0
    7.7292    1.5904   19.4783 H   0  0  0  0  0  0  0  0  0  0  0  0
    6.9195   -1.6850   21.0071 H   0  0  0  0  0  0  0  0  0  0  0  0
  1  2  1  0  0  0  0
  1  5  2  0  0  0  0
  2  6  2  0  0  0  0
  3  4  2  0  0  0  0
  3  7  1  0  0  0  0
  4  9  1  0  0  0  0
  5 10  1  0  0  0  0
  6 11  1  0  0  0  0
  7 12  2  0  0  0  0
  8  9  2  0  0  0  0
  8 12  1  0  0  0  0
  9 23  1  0  0  0  0
 10 11  2  0  0  0  0
 10 24  1  0  0  0  0
 11 25  1  0  0  0  0
 12 28  1  0  0  0  0
 13 24  2  0  0  0  0
 13 25  1  0  0  0  0
 13 26  1  0  0  0  0
 14 23  1  1  0  0  0
 14 26  1  0  0  0  0
 14 27  2  0  0  0  0
 15 16  1  0  0  0  0
 15 17  1  0  0  0  0
 16 18  1  0  0  0  0
 17 19  1  0  0  0  0
 18 20  1  0  0  0  0
 19 20  1  0  0  0  0
 20 21  1  0  0  0  0
 21 22  1  0  0  0  0
 22 23  1  0  0  0  0
  1 29  1  0  0  0  0
  2 30  1  0  0  0  0
  3 31  1  0  0  0  0
  4 32  1  0  0  0  0
  5 33  1  0  0  0  0
  6 34  1  0  0  0  0
  7 35  1  0  0  0  0
  8 36  1  0  0  0  0
 15 37  1  0  0  0  0
 15 38  1  0  0  0  0
 16 39  1  0  0  0  0
 16 40  1  0  0  0  0
 17 41  1  0  0  0  0
 17 42  1  0  0  0  0
 18 43  1  0  0  0  0
 18 44  1  0  0  0  0
 19 45  1  0  0  0  0
 19 46  1  0  0  0  0
 20 47  1  0  0  0  0
 21 48  1  0  0  0  0
 21 49  1  0  0  0  0
 22 50  1  0  0  0  0
 22 51  1  0  0  0  0
 23 52  1  0  0  0  0
 25 53  1  0  0  0  0
 26 54  1  0  0  0  0
M  END
> <compound>
ALP-POS-3fc1724e-8

> <compound_smiles>
c1ccc2c(c1)[nH]c(n2)NC(=O)C(CCC3CCCCC3)c4cccc(c4)Cl

> <enantiomer_smiles>
c1ccc2c(c1)[nH]c(n2)NC(=O)[C@@H](CCC3CCCCC3)c4cccc(c4)Cl

> <scaffold>
chlorobenzene-linker

> <clash_score>
1.423530387892548

> <docking_score>
-0.835495114326477

> <overlap_score>
0.7774866223335266

> <MMFF_internal_energy>
31.18148089538115

> <docked_smiles>
c1ccc2c(c1)[nH]c(n2)NC(=O)[C@@H](CCC3CCCCC3)c4cccc(c4)Cl

$$$$
MIC-UNK-4c7b8ba7-1_1
  -OEChem-07262101013D

 33 34  0     1  0  0  0  0  0999 V2000
   11.9780    0.4600   23.9150 C   0  0  0  0  0  0  0  0  0  0  0  0
   10.6560    0.0720   23.7350 C   0  0  0  0  0  0  0  0  0  0  0  0
   12.9840   -0.1200   23.1530 C   0  0  0  0  0  0  0  0  0  0  0  0
   11.3360   -1.5050   22.0650 C   0  0  0  0  0  0  0  0  0  0  0  0
   10.3220   -0.8940   22.7910 C   0  0  0  0  0  0  0  0  0  0  0  0
   12.6400   -1.1000   22.2390 C   0  0  0  0  0  0  0  0  0  0  0  0
    6.0541   -1.0716   18.6545 C   0  0  0  0  0  0  0  0  0  0  0  0
    8.3880   -0.3240   21.3070 C   0  0  0  0  0  0  0  0  0  0  0  0
    4.7754    1.5217   19.0929 C   0  0  0  0  0  0  0  0  0  0  0  0
    5.5513    0.8720   20.2281 C   0  0  0  0  0  0  0  0  0  0  0  0
    4.0820    0.4503   18.2720 C   0  0  0  0  0  0  0  0  0  0  0  0
    6.6078   -0.0599   19.6509 C   0  0  2  0  0  0  0  0  0  0  0  0
    8.8810   -1.1900   22.4510 C   0  0  0  0  0  0  0  0  0  0  0  0
    4.9344   -0.6798   17.9501 N   0  0  0  0  0  0  0  0  0  0  0  0
    7.2820   -0.7860   20.6970 N   0  0  0  0  0  0  0  0  0  0  0  0
    6.6330   -2.1332   18.4153 O   0  0  0  0  0  0  0  0  0  0  0  0
    8.9170    0.7530   21.0260 O   0  0  0  0  0  0  0  0  0  0  0  0
   13.8840   -1.8490   21.2740 Cl  0  0  0  0  0  0  0  0  0  0  0  0
   12.2249    1.2198   24.6546 H   0  0  0  0  0  0  0  0  0  0  0  0
    9.8763    0.5350   24.3454 H   0  0  0  0  0  0  0  0  0  0  0  0
   14.0077    0.1988   23.2842 H   0  0  0  0  0  0  0  0  0  0  0  0
   11.0892   -2.3009   21.3624 H   0  0  0  0  0  0  0  0  0  0  0  0
    4.0335    2.2205   19.4946 H   0  0  0  0  0  0  0  0  0  0  0  0
    5.4549    2.1017   18.4565 H   0  0  0  0  0  0  0  0  0  0  0  0
    6.0248    1.6469   20.8421 H   0  0  0  0  0  0  0  0  0  0  0  0
    4.8571    0.3193   20.8741 H   0  0  0  0  0  0  0  0  0  0  0  0
    3.2269    0.0452   18.8247 H   0  0  0  0  0  0  0  0  0  0  0  0
    3.7041    0.8634   17.3314 H   0  0  0  0  0  0  0  0  0  0  0  0
    7.3720    0.5268   19.1259 H   0  0  0  0  0  0  0  0  0  0  0  0
    8.7773   -2.2383   22.1737 H   0  0  0  0  0  0  0  0  0  0  0  0
    8.2516   -1.0144   23.3225 H   0  0  0  0  0  0  0  0  0  0  0  0
    4.6844   -1.2306   17.1346 H   0  0  0  0  0  0  0  0  0  0  0  0
    6.9054   -1.6864   20.9865 H   0  0  0  0  0  0  0  0  0  0  0  0
  1  2  1  0  0  0  0
  1  3  2  0  0  0  0
  2  5  2  0  0  0  0
  3  6  1  0  0  0  0
  4  5  1  0  0  0  0
  4  6  2  0  0  0  0
  5 13  1  0  0  0  0
  6 18  1  0  0  0  0
  7 12  1  0  0  0  0
  7 14  1  0  0  0  0
  7 16  2  0  0  0  0
  8 13  1  0  0  0  0
  8 15  1  0  0  0  0
  8 17  2  0  0  0  0
  9 10  1  0  0  0  0
  9 11  1  0  0  0  0
 10 12  1  0  0  0  0
 11 14  1  0  0  0  0
 12 15  1  1  0  0  0
  1 19  1  0  0  0  0
  2 20  1  0  0  0  0
  3 21  1  0  0  0  0
  4 22  1  0  0  0  0
  9 23  1  0  0  0  0
  9 24  1  0  0  0  0
 10 25  1  0  0  0  0
 10 26  1  0  0  0  0
 11 27  1  0  0  0  0
 11 28  1  0  0  0  0
 12 29  1  0  0  0  0
 13 30  1  0  0  0  0
 13 31  1  0  0  0  0
 14 32  1  0  0  0  0
 15 33  1  0  0  0  0
M  END
> <compound>
MIC-UNK-4c7b8ba7-1

> <compound_smiles>
c1cc(cc(c1)Cl)CC(=O)NC2CCCNC2=O

> <enantiomer_smiles>
c1cc(cc(c1)Cl)CC(=O)N[C@@H]2CCCNC2=O

> <scaffold>
chlorobenzene-linker

> <canonical_CID>
MIC-UNK-4c7b8ba7-1

> <r_inhibition_at_20_uM>

> <r_inhibition_at_50_uM>

> <r_avg_IC50>
99.0

> <f_inhibition_at_20_uM>

> <f_inhibition_at_50_uM>

> <f_avg_IC50>
99.5

> <f_avg_pIC50>

> <relative_solubility_at_20_uM>

> <relative_solubility_at_100_uM>

> <trypsin_IC50>

> <NMR_std_ratio>

> <acrylamide>
False

> <chloroacetamide>
False

> <series>
Ugi

> <frag_id>

> <clash_score>
0

> <docking_score>
-6.277098178863525

> <overlap_score>
0.7672701478004456

> <MMFF_internal_energy>
31.966150017397748

> <docked_smiles>
c1cc(cc(c1)Cl)CC(=O)N[C@@H]2CCCNC2=O

$$$$
MIC-UNK-4c7b8ba7-1_2
  -OEChem-07262101013D

 33 34  0     1  0  0  0  0  0999 V2000
   11.9780    0.4600   23.9150 C   0  0  0  0  0  0  0  0  0  0  0  0
   10.6560    0.0720   23.7350 C   0  0  0  0  0  0  0  0  0  0  0  0
   12.9840   -0.1200   23.1530 C   0  0  0  0  0  0  0  0  0  0  0  0
   11.3360   -1.5050   22.0650 C   0  0  0  0  0  0  0  0  0  0  0  0
   10.3220   -0.8940   22.7910 C   0  0  0  0  0  0  0  0  0  0  0  0
   12.6400   -1.1000   22.2390 C   0  0  0  0  0  0  0  0  0  0  0  0
    5.6577    0.9301   20.3113 C   0  0  0  0  0  0  0  0  0  0  0  0
    8.3880   -0.3240   21.3070 C   0  0  0  0  0  0  0  0  0  0  0  0
    5.1199   -0.2081   17.6704 C   0  0  0  0  0  0  0  0  0  0  0  0
    5.9297   -1.0114   18.6765 C   0  0  0  0  0  0  0  0  0  0  0  0
    4.0533    0.5903   18.3972 C   0  0  0  0  0  0  0  0  0  0  0  0
    6.6084   -0.0605   19.6518 C   0  0  1  0  0  0  0  0  0  0  0  0
    8.8810   -1.1900   22.4510 C   0  0  0  0  0  0  0  0  0  0  0  0
    4.5431    1.2799   19.5770 N   0  0  0  0  0  0  0  0  0  0  0  0
    7.2820   -0.7860   20.6970 N   0  0  0  0  0  0  0  0  0  0  0  0
    5.9208    1.4680   21.3888 O   0  0  0  0  0  0  0  0  0  0  0  0
    8.9170    0.7530   21.0260 O   0  0  0  0  0  0  0  0  0  0  0  0
   13.8840   -1.8490   21.2740 Cl  0  0  0  0  0  0  0  0  0  0  0  0
   12.2249    1.2198   24.6546 H   0  0  0  0  0  0  0  0  0  0  0  0
    9.8763    0.5350   24.3454 H   0  0  0  0  0  0  0  0  0  0  0  0
   14.0077    0.1988   23.2842 H   0  0  0  0  0  0  0  0  0  0  0  0
   11.0892   -2.3009   21.3624 H   0  0  0  0  0  0  0  0  0  0  0  0
    5.7784    0.4675   17.1109 H   0  0  0  0  0  0  0  0  0  0  0  0
    4.6506   -0.8786   16.9421 H   0  0  0  0  0  0  0  0  0  0  0  0
    5.2647   -1.7041   19.2083 H   0  0  0  0  0  0  0  0  0  0  0  0
    6.6794   -1.6140   18.1506 H   0  0  0  0  0  0  0  0  0  0  0  0
    3.6061    1.3376   17.7341 H   0  0  0  0  0  0  0  0  0  0  0  0
    3.2513   -0.0740   18.7381 H   0  0  0  0  0  0  0  0  0  0  0  0
    7.3721    0.5259   19.1271 H   0  0  0  0  0  0  0  0  0  0  0  0
    8.7773   -2.2383   22.1737 H   0  0  0  0  0  0  0  0  0  0  0  0
    8.2516   -1.0144   23.3225 H   0  0  0  0  0  0  0  0  0  0  0  0
    4.0190    2.0915   19.8897 H   0  0  0  0  0  0  0  0  0  0  0  0
    6.9054   -1.6863   20.9865 H   0  0  0  0  0  0  0  0  0  0  0  0
  1  2  1  0  0  0  0
  1  3  2  0  0  0  0
  2  5  2  0  0  0  0
  3  6  1  0  0  0  0
  4  5  1  0  0  0  0
  4  6  2  0  0  0  0
  5 13  1  0  0  0  0
  6 18  1  0  0  0  0
  7 12  1  0  0  0  0
  7 14  1  0  0  0  0
  7 16  2  0  0  0  0
  8 13  1  0  0  0  0
  8 15  1  0  0  0  0
  8 17  2  0  0  0  0
  9 10  1  0  0  0  0
  9 11  1  0  0  0  0
 10 12  1  0  0  0  0
 11 14  1  0  0  0  0
 12 15  1  6  0  0  0
  1 19  1  0  0  0  0
  2 20  1  0  0  0  0
  3 21  1  0  0  0  0
  4 22  1  0  0  0  0
  9 23  1  0  0  0  0
  9 24  1  0  0  0  0
 10 25  1  0  0  0  0
 10 26  1  0  0  0  0
 11 27  1  0  0  0  0
 11 28  1  0  0  0  0
 12 29  1  0  0  0  0
 13 30  1  0  0  0  0
 13 31  1  0  0  0  0
 14 32  1  0  0  0  0
 15 33  1  0  0  0  0
M  END
> <compound>
MIC-UNK-4c7b8ba7-1

> <compound_smiles>
c1cc(cc(c1)Cl)CC(=O)NC2CCCNC2=O

> <enantiomer_smiles>
c1cc(cc(c1)Cl)CC(=O)N[C@H]2CCCNC2=O

> <scaffold>
chlorobenzene-linker

> <canonical_CID>
MIC-UNK-4c7b8ba7-1

> <r_inhibition_at_20_uM>

> <r_inhibition_at_50_uM>

> <r_avg_IC50>
99.0

> <f_inhibition_at_20_uM>

> <f_inhibition_at_50_uM>

> <f_avg_IC50>
99.5

> <f_avg_pIC50>

> <relative_solubility_at_20_uM>

> <relative_solubility_at_100_uM>

> <trypsin_IC50>

> <NMR_std_ratio>

> <acrylamide>
False

> <chloroacetamide>
False

> <series>
Ugi

> <frag_id>

> <clash_score>
0

> <docking_score>
-5.09714937210083

> <overlap_score>
0.8013060092926025

> <MMFF_internal_energy>
36.66376308442845

> <docked_smiles>
c1cc(cc(c1)Cl)CC(=O)N[C@H]2CCCNC2=O

$$$$
NAU-LAT-e1818702-10_1
  -OEChem-07262101013D

 24 25  0     0  0  0  0  0  0999 V2000
   11.9780    0.4600   23.9150 C   0  0  0  0  0  0  0  0  0  0  0  0
   10.6560    0.0720   23.7350 C   0  0  0  0  0  0  0  0  0  0  0  0
   12.9840   -0.1200   23.1530 C   0  0  0  0  0  0  0  0  0  0  0  0
   11.3360   -1.5050   22.0650 C   0  0  0  0  0  0  0  0  0  0  0  0
    5.7918    1.3610   18.0262 C   0  0  0  0  0  0  0  0  0  0  0  0
   10.3220   -0.8940   22.7910 C   0  0  0  0  0  0  0  0  0  0  0  0
   12.6400   -1.1000   22.2390 C   0  0  0  0  0  0  0  0  0  0  0  0
    6.5418   -0.1622   19.6645 C   0  0  0  0  0  0  0  0  0  0  0  0
    8.3880   -0.3240   21.3070 C   0  0  0  0  0  0  0  0  0  0  0  0
    8.8810   -1.1900   22.4510 C   0  0  0  0  0  0  0  0  0  0  0  0
    5.0198    0.2973   18.0931 N   0  0  0  0  0  0  0  0  0  0  0  0
    5.4591   -0.5957   19.0548 N   0  0  0  0  0  0  0  0  0  0  0  0
    7.2820   -0.7860   20.6970 N   0  0  0  0  0  0  0  0  0  0  0  0
    8.9170    0.7530   21.0260 O   0  0  0  0  0  0  0  0  0  0  0  0
    7.1118    1.3614   19.1213 S   0  0  0  0  0  0  0  0  0  0  0  0
   13.8840   -1.8490   21.2740 Cl  0  0  0  0  0  0  0  0  0  0  0  0
   12.2249    1.2198   24.6546 H   0  0  0  0  0  0  0  0  0  0  0  0
    9.8763    0.5350   24.3454 H   0  0  0  0  0  0  0  0  0  0  0  0
   14.0077    0.1988   23.2842 H   0  0  0  0  0  0  0  0  0  0  0  0
   11.0892   -2.3009   21.3624 H   0  0  0  0  0  0  0  0  0  0  0  0
    5.6104    2.1721   17.3352 H   0  0  0  0  0  0  0  0  0  0  0  0
    8.7709   -2.2387   22.1706 H   0  0  0  0  0  0  0  0  0  0  0  0
    8.2491   -1.0157   23.3232 H   0  0  0  0  0  0  0  0  0  0  0  0
    6.9372   -1.6894   21.0149 H   0  0  0  0  0  0  0  0  0  0  0  0
  1  2  1  0  0  0  0
  1  3  2  0  0  0  0
  2  6  2  0  0  0  0
  3  7  1  0  0  0  0
  4  6  1  0  0  0  0
  4  7  2  0  0  0  0
  5 11  2  0  0  0  0
  5 15  1  0  0  0  0
  6 10  1  0  0  0  0
  7 16  1  0  0  0  0
  8 12  2  0  0  0  0
  8 13  1  0  0  0  0
  8 15  1  0  0  0  0
  9 10  1  0  0  0  0
  9 13  1  0  0  0  0
  9 14  2  0  0  0  0
 11 12  1  0  0  0  0
  1 17  1  0  0  0  0
  2 18  1  0  0  0  0
  3 19  1  0  0  0  0
  4 20  1  0  0  0  0
  5 21  1  0  0  0  0
 10 22  1  0  0  0  0
 10 23  1  0  0  0  0
 13 24  1  0  0  0  0
M  END
> <compound>
NAU-LAT-e1818702-10

> <compound_smiles>
c1cc(cc(c1)Cl)CC(=O)Nc2nncs2

> <enantiomer_smiles>
c1cc(cc(c1)Cl)CC(=O)Nc2nncs2

> <scaffold>
chlorobenzene-linker

> <clash_score>
0

> <docking_score>
-5.639631748199463

> <overlap_score>
0.7264701128005981

> <MMFF_internal_energy>
12.055425858875592

> <docked_smiles>
c1cc(cc(c1)Cl)CC(=O)Nc2nncs2

$$$$
MIC-UNK-fc94cdb5-1_1
  -OEChem-07262101013D

 29 30  0     1  0  0  0  0  0999 V2000
   11.9780    0.4600   23.9150 C   0  0  0  0  0  0  0  0  0  0  0  0
   10.6560    0.0720   23.7350 C   0  0  0  0  0  0  0  0  0  0  0  0
   12.9840   -0.1200   23.1530 C   0  0  0  0  0  0  0  0  0  0  0  0
   11.3360   -1.5050   22.0650 C   0  0  0  0  0  0  0  0  0  0  0  0
   10.3220   -0.8940   22.7910 C   0  0  0  0  0  0  0  0  0  0  0  0
   12.6400   -1.1000   22.2390 C   0  0  0  0  0  0  0  0  0  0  0  0
    4.6349    1.2668   19.5145 C   0  0  0  0  0  0  0  0  0  0  0  0
    5.4274   -0.8697   19.1697 C   0  0  0  0  0  0  0  0  0  0  0  0
    8.3880   -0.3240   21.3070 C   0  0  0  0  0  0  0  0  0  0  0  0
    6.0147    1.2583   20.1118 C   0  0  0  0  0  0  0  0  0  0  0  0
    6.6075   -0.0698   19.6572 C   0  0  2  0  0  0  0  0  0  0  0  0
    8.8810   -1.1900   22.4510 C   0  0  0  0  0  0  0  0  0  0  0  0
    4.3728    0.0028   19.0465 N   0  0  0  0  0  0  0  0  0  0  0  0
    7.2820   -0.7860   20.6970 N   0  0  0  0  0  0  0  0  0  0  0  0
    3.8838    2.2306   19.5006 O   0  0  0  0  0  0  0  0  0  0  0  0
    5.4310   -2.0626   18.9057 O   0  0  0  0  0  0  0  0  0  0  0  0
    8.9170    0.7530   21.0260 O   0  0  0  0  0  0  0  0  0  0  0  0
   13.8840   -1.8490   21.2740 Cl  0  0  0  0  0  0  0  0  0  0  0  0
   12.2249    1.2198   24.6546 H   0  0  0  0  0  0  0  0  0  0  0  0
    9.8763    0.5350   24.3454 H   0  0  0  0  0  0  0  0  0  0  0  0
   14.0077    0.1988   23.2842 H   0  0  0  0  0  0  0  0  0  0  0  0
   11.0892   -2.3009   21.3624 H   0  0  0  0  0  0  0  0  0  0  0  0
    6.5969    2.1069   19.7418 H   0  0  0  0  0  0  0  0  0  0  0  0
    5.9206    1.3295   21.2007 H   0  0  0  0  0  0  0  0  0  0  0  0
    7.3060    0.0737   18.8260 H   0  0  0  0  0  0  0  0  0  0  0  0
    8.7773   -2.2383   22.1737 H   0  0  0  0  0  0  0  0  0  0  0  0
    8.2516   -1.0144   23.3225 H   0  0  0  0  0  0  0  0  0  0  0  0
    3.4733   -0.2687   18.6650 H   0  0  0  0  0  0  0  0  0  0  0  0
    6.9058   -1.6900   20.9892 H   0  0  0  0  0  0  0  0  0  0  0  0
  1  2  1  0  0  0  0
  1  3  2  0  0  0  0
  2  5  2  0  0  0  0
  3  6  1  0  0  0  0
  4  5  1  0  0  0  0
  4  6  2  0  0  0  0
  5 12  1  0  0  0  0
  6 18  1  0  0  0  0
  7 10  1  0  0  0  0
  7 13  1  0  0  0  0
  7 15  2  0  0  0  0
  8 11  1  0  0  0  0
  8 13  1  0  0  0  0
  8 16  2  0  0  0  0
  9 12  1  0  0  0  0
  9 14  1  0  0  0  0
  9 17  2  0  0  0  0
 10 11  1  0  0  0  0
 11 14  1  1  0  0  0
  1 19  1  0  0  0  0
  2 20  1  0  0  0  0
  3 21  1  0  0  0  0
  4 22  1  0  0  0  0
 10 23  1  0  0  0  0
 10 24  1  0  0  0  0
 11 25  1  0  0  0  0
 12 26  1  0  0  0  0
 12 27  1  0  0  0  0
 13 28  1  0  0  0  0
 14 29  1  0  0  0  0
M  END
> <compound>
MIC-UNK-fc94cdb5-1

> <compound_smiles>
c1cc(cc(c1)Cl)CC(=O)NC2CC(=O)NC2=O

> <enantiomer_smiles>
c1cc(cc(c1)Cl)CC(=O)N[C@@H]2CC(=O)NC2=O

> <scaffold>
chlorobenzene-linker

> <canonical_CID>
MIC-UNK-fc94cdb5-1

> <r_inhibition_at_20_uM>

> <r_inhibition_at_50_uM>

> <r_avg_IC50>
99.0

> <f_inhibition_at_20_uM>

> <f_inhibition_at_50_uM>

> <f_avg_IC50>
99.5

> <f_avg_pIC50>

> <relative_solubility_at_20_uM>

> <relative_solubility_at_100_uM>

> <trypsin_IC50>

> <NMR_std_ratio>

> <acrylamide>
False

> <chloroacetamide>
False

> <series>
Ugi

> <frag_id>

> <clash_score>
0

> <docking_score>
-5.576714515686035

> <overlap_score>
0.7864828705787659

> <MMFF_internal_energy>
-9.835951824801317

> <docked_smiles>
c1cc(cc(c1)Cl)CC(=O)N[C@@H]2CC(=O)NC2=O

$$$$
MIC-UNK-fc94cdb5-1_2
  -OEChem-07262101013D

 29 30  0     1  0  0  0  0  0999 V2000
   11.9780    0.4600   23.9150 C   0  0  0  0  0  0  0  0  0  0  0  0
   10.6560    0.0720   23.7350 C   0  0  0  0  0  0  0  0  0  0  0  0
   12.9840   -0.1200   23.1530 C   0  0  0  0  0  0  0  0  0  0  0  0
   11.3360   -1.5050   22.0650 C   0  0  0  0  0  0  0  0  0  0  0  0
   10.3220   -0.8940   22.7910 C   0  0  0  0  0  0  0  0  0  0  0  0
   12.6400   -1.1000   22.2390 C   0  0  0  0  0  0  0  0  0  0  0  0
    4.3735   -0.5878   18.9578 C   0  0  0  0  0  0  0  0  0  0  0  0
    5.5888    0.8316   20.3067 C   0  0  0  0  0  0  0  0  0  0  0  0
    8.3880   -0.3240   21.3070 C   0  0  0  0  0  0  0  0  0  0  0  0
    5.8091   -0.9645   18.7176 C   0  0  0  0  0  0  0  0  0  0  0  0
    6.6078   -0.0664   19.6553 C   0  0  1  0  0  0  0  0  0  0  0  0
    8.8810   -1.1900   22.4510 C   0  0  0  0  0  0  0  0  0  0  0  0
    4.3510    0.4583   19.8447 N   0  0  0  0  0  0  0  0  0  0  0  0
    7.2820   -0.7860   20.6970 N   0  0  0  0  0  0  0  0  0  0  0  0
    3.4126   -1.1281   18.4301 O   0  0  0  0  0  0  0  0  0  0  0  0
    5.8320    1.6949   21.1373 O   0  0  0  0  0  0  0  0  0  0  0  0
    8.9170    0.7530   21.0260 O   0  0  0  0  0  0  0  0  0  0  0  0
   13.8840   -1.8490   21.2740 Cl  0  0  0  0  0  0  0  0  0  0  0  0
   12.2249    1.2198   24.6546 H   0  0  0  0  0  0  0  0  0  0  0  0
    9.8763    0.5350   24.3454 H   0  0  0  0  0  0  0  0  0  0  0  0
   14.0077    0.1988   23.2842 H   0  0  0  0  0  0  0  0  0  0  0  0
   11.0892   -2.3009   21.3624 H   0  0  0  0  0  0  0  0  0  0  0  0
    5.9547   -2.0304   18.9180 H   0  0  0  0  0  0  0  0  0  0  0  0
    6.0614   -0.7616   17.6719 H   0  0  0  0  0  0  0  0  0  0  0  0
    7.3463    0.5299   19.1115 H   0  0  0  0  0  0  0  0  0  0  0  0
    8.7773   -2.2383   22.1737 H   0  0  0  0  0  0  0  0  0  0  0  0
    8.2516   -1.0144   23.3225 H   0  0  0  0  0  0  0  0  0  0  0  0
    3.4940    0.9164   20.1343 H   0  0  0  0  0  0  0  0  0  0  0  0
    6.9057   -1.6887   20.9882 H   0  0  0  0  0  0  0  0  0  0  0  0
  1  2  1  0  0  0  0
  1  3  2  0  0  0  0
  2  5  2  0  0  0  0
  3  6  1  0  0  0  0
  4  5  1  0  0  0  0
  4  6  2  0  0  0  0
  5 12  1  0  0  0  0
  6 18  1  0  0  0  0
  7 10  1  0  0  0  0
  7 13  1  0  0  0  0
  7 15  2  0  0  0  0
  8 11  1  0  0  0  0
  8 13  1  0  0  0  0
  8 16  2  0  0  0  0
  9 12  1  0  0  0  0
  9 14  1  0  0  0  0
  9 17  2  0  0  0  0
 10 11  1  0  0  0  0
 11 14  1  6  0  0  0
  1 19  1  0  0  0  0
  2 20  1  0  0  0  0
  3 21  1  0  0  0  0
  4 22  1  0  0  0  0
 10 23  1  0  0  0  0
 10 24  1  0  0  0  0
 11 25  1  0  0  0  0
 12 26  1  0  0  0  0
 12 27  1  0  0  0  0
 13 28  1  0  0  0  0
 14 29  1  0  0  0  0
M  END
> <compound>
MIC-UNK-fc94cdb5-1

> <compound_smiles>
c1cc(cc(c1)Cl)CC(=O)NC2CC(=O)NC2=O

> <enantiomer_smiles>
c1cc(cc(c1)Cl)CC(=O)N[C@H]2CC(=O)NC2=O

> <scaffold>
chlorobenzene-linker

> <canonical_CID>
MIC-UNK-fc94cdb5-1

> <r_inhibition_at_20_uM>

> <r_inhibition_at_50_uM>

> <r_avg_IC50>
99.0

> <f_inhibition_at_20_uM>

> <f_inhibition_at_50_uM>

> <f_avg_IC50>
99.5

> <f_avg_pIC50>

> <relative_solubility_at_20_uM>

> <relative_solubility_at_100_uM>

> <trypsin_IC50>

> <NMR_std_ratio>

> <acrylamide>
False

> <chloroacetamide>
False

> <series>
Ugi

> <frag_id>

> <clash_score>
2.389525926957887

> <docking_score>
-4.812441825866699

> <overlap_score>
0.7464948892593384

> <MMFF_internal_energy>
-3.9881929216302683

> <docked_smiles>
c1cc(cc(c1)Cl)CC(=O)N[C@H]2CC(=O)NC2=O

$$$$
ADA-UCB-6c2cb422-9_1
  -OEChem-07262101013D

 49 51  0     1  0  0  0  0  0999 V2000
    6.2076   -6.8346   23.3415 C   0  0  0  0  0  0  0  0  0  0  0  0
    6.3630   -6.5107   21.9937 C   0  0  0  0  0  0  0  0  0  0  0  0
   11.9780    0.4600   23.9150 C   0  0  0  0  0  0  0  0  0  0  0  0
   10.6560    0.0720   23.7350 C   0  0  0  0  0  0  0  0  0  0  0  0
    6.3966   -5.8584   24.3197 C   0  0  0  0  0  0  0  0  0  0  0  0
    6.7076   -5.2105   21.6241 C   0  0  0  0  0  0  0  0  0  0  0  0
   12.9840   -0.1200   23.1530 C   0  0  0  0  0  0  0  0  0  0  0  0
    4.6232    0.7571   18.6123 C   0  0  0  0  0  0  0  0  0  0  0  0
   11.3360   -1.5050   22.0650 C   0  0  0  0  0  0  0  0  0  0  0  0
    5.3516    0.9006   17.4424 C   0  0  0  0  0  0  0  0  0  0  0  0
    7.2296   -0.0197   18.3932 C   0  0  0  0  0  0  0  0  0  0  0  0
   10.3220   -0.8940   22.7910 C   0  0  0  0  0  0  0  0  0  0  0  0
    5.2612    0.1923   19.7110 C   0  0  0  0  0  0  0  0  0  0  0  0
    6.5893   -0.2061   19.6078 C   0  0  0  0  0  0  0  0  0  0  0  0
    6.7412   -4.5583   23.9502 C   0  0  0  0  0  0  0  0  0  0  0  0
    6.8966   -4.2343   22.6024 C   0  0  0  0  0  0  0  0  0  0  0  0
   12.6400   -1.1000   22.2390 C   0  0  0  0  0  0  0  0  0  0  0  0
    8.3880   -0.3240   21.3070 C   0  0  0  0  0  0  0  0  0  0  0  0
    4.4998    0.0264   20.9852 C   0  0  0  0  0  0  0  0  0  0  0  0
    6.7460   -4.0276   26.2684 C   0  0  0  0  0  0  0  0  0  0  0  0
    8.6269   -2.6755   22.1208 C   0  0  0  0  0  0  0  0  0  0  0  0
    8.8810   -1.1900   22.4510 C   0  0  1  0  0  0  0  0  0  0  0  0
    6.6429    0.5254   17.3040 N   0  0  0  0  0  0  0  0  0  0  0  0
    7.2820   -0.7860   20.6970 N   0  0  0  0  0  0  0  0  0  0  0  0
    8.9170    0.7530   21.0260 O   0  0  0  0  0  0  0  0  0  0  0  0
    6.9242   -3.6142   24.9151 O   0  0  0  0  0  0  0  0  0  0  0  0
    7.2358   -2.9620   22.2269 O   0  0  0  0  0  0  0  0  0  0  0  0
   13.8840   -1.8490   21.2740 Cl  0  0  0  0  0  0  0  0  0  0  0  0
    5.9391   -7.8472   23.6292 H   0  0  0  0  0  0  0  0  0  0  0  0
    6.2159   -7.2706   21.2322 H   0  0  0  0  0  0  0  0  0  0  0  0
   12.2249    1.2198   24.6546 H   0  0  0  0  0  0  0  0  0  0  0  0
    9.8763    0.5350   24.3454 H   0  0  0  0  0  0  0  0  0  0  0  0
    6.2738   -6.1172   25.3680 H   0  0  0  0  0  0  0  0  0  0  0  0
    6.8287   -4.9654   20.5726 H   0  0  0  0  0  0  0  0  0  0  0  0
   14.0077    0.1988   23.2842 H   0  0  0  0  0  0  0  0  0  0  0  0
    3.5883    1.0785   18.6600 H   0  0  0  0  0  0  0  0  0  0  0  0
   11.0892   -2.3009   21.3624 H   0  0  0  0  0  0  0  0  0  0  0  0
    4.9000    1.3356   16.5568 H   0  0  0  0  0  0  0  0  0  0  0  0
    8.2661   -0.3109   18.2503 H   0  0  0  0  0  0  0  0  0  0  0  0
    4.0020   -0.9500   21.0057 H   0  0  0  0  0  0  0  0  0  0  0  0
    5.1634    0.0989   21.8557 H   0  0  0  0  0  0  0  0  0  0  0  0
    3.7394    0.8092   21.0972 H   0  0  0  0  0  0  0  0  0  0  0  0
    6.9213   -3.1799   26.9352 H   0  0  0  0  0  0  0  0  0  0  0  0
    7.4444   -4.8362   26.4983 H   0  0  0  0  0  0  0  0  0  0  0  0
    5.7219   -4.3852   26.3990 H   0  0  0  0  0  0  0  0  0  0  0  0
    8.9267   -2.9024   21.0919 H   0  0  0  0  0  0  0  0  0  0  0  0
    9.1662   -3.3431   22.8017 H   0  0  0  0  0  0  0  0  0  0  0  0
    8.2751   -0.9492   23.3431 H   0  0  0  0  0  0  0  0  0  0  0  0
    6.8798   -1.6496   21.0549 H   0  0  0  0  0  0  0  0  0  0  0  0
  1  2  1  0  0  0  0
  1  5  2  0  0  0  0
  2  6  2  0  0  0  0
  3  4  2  0  0  0  0
  3  7  1  0  0  0  0
  4 12  1  0  0  0  0
  5 15  1  0  0  0  0
  6 16  1  0  0  0  0
  7 17  2  0  0  0  0
  8 10  2  0  0  0  0
  8 13  1  0  0  0  0
  9 12  2  0  0  0  0
  9 17  1  0  0  0  0
 10 23  1  0  0  0  0
 11 14  1  0  0  0  0
 11 23  2  0  0  0  0
 12 22  1  0  0  0  0
 13 14  2  0  0  0  0
 13 19  1  0  0  0  0
 14 24  1  0  0  0  0
 15 16  2  0  0  0  0
 15 26  1  0  0  0  0
 16 27  1  0  0  0  0
 17 28  1  0  0  0  0
 18 22  1  0  0  0  0
 18 24  1  0  0  0  0
 18 25  2  0  0  0  0
 20 26  1  0  0  0  0
 21 22  1  0  0  0  0
 21 27  1  0  0  0  0
  1 29  1  0  0  0  0
  2 30  1  0  0  0  0
  3 31  1  0  0  0  0
  4 32  1  0  0  0  0
  5 33  1  0  0  0  0
  6 34  1  0  0  0  0
  7 35  1  0  0  0  0
  8 36  1  0  0  0  0
  9 37  1  0  0  0  0
 10 38  1  0  0  0  0
 11 39  1  0  0  0  0
 19 40  1  0  0  0  0
 19 41  1  0  0  0  0
 19 42  1  0  0  0  0
 20 43  1  0  0  0  0
 20 44  1  0  0  0  0
 20 45  1  0  0  0  0
 21 46  1  0  0  0  0
 21 47  1  0  0  0  0
 22 48  1  0  0  0  0
 24 49  1  0  0  0  0
M  END
> <compound>
ADA-UCB-6c2cb422-9

> <compound_smiles>
Cc1ccncc1NC(=O)[C@@H](COc2ccccc2OC)c3cccc(c3)Cl

> <enantiomer_smiles>
Cc1ccncc1NC(=O)[C@@H](COc2ccccc2OC)c3cccc(c3)Cl

> <scaffold>
chlorobenzene-linker

> <clash_score>
0

> <docking_score>
-9.15856647491455

> <overlap_score>
0.8304774761199951

> <MMFF_internal_energy>
119.66828505605872

> <docked_smiles>
Cc1ccncc1NC(=O)[C@@H](COc2ccccc2OC)c3cccc(c3)Cl

$$$$
MAR-TRE-f6f5f473-93_1
  -OEChem-07262101013D

 54 57  0     0  0  0  0  0  0999 V2000
   11.9780    0.4600   23.9150 C   0  0  0  0  0  0  0  0  0  0  0  0
    5.4502    0.3169   25.2049 C   0  0  0  0  0  0  0  0  0  0  0  0
   10.6560    0.0720   23.7350 C   0  0  0  0  0  0  0  0  0  0  0  0
    1.4283    6.0729   22.3531 C   0  0  0  0  0  0  0  0  0  0  0  0
    0.9105    4.1914   23.7775 C   0  0  0  0  0  0  0  0  0  0  0  0
    2.7756    5.7121   22.3664 C   0  0  0  0  0  0  0  0  0  0  0  0
    2.2578    3.8305   23.7907 C   0  0  0  0  0  0  0  0  0  0  0  0
    5.1952    1.5993   24.7237 C   0  0  0  0  0  0  0  0  0  0  0  0
   12.9840   -0.1200   23.1530 C   0  0  0  0  0  0  0  0  0  0  0  0
   11.3360   -1.5050   22.0650 C   0  0  0  0  0  0  0  0  0  0  0  0
    5.5863   -0.7335   24.2911 C   0  0  0  0  0  0  0  0  0  0  0  0
    0.4957    5.3125   23.0588 C   0  0  0  0  0  0  0  0  0  0  0  0
    3.1904    4.5909   23.0851 C   0  0  0  0  0  0  0  0  0  0  0  0
   10.3220   -0.8940   22.7910 C   0  0  0  0  0  0  0  0  0  0  0  0
    5.0936    1.7435   23.3579 C   0  0  0  0  0  0  0  0  0  0  0  0
   12.6400   -1.1000   22.2390 C   0  0  0  0  0  0  0  0  0  0  0  0
    5.2432    0.6432   22.5225 C   0  0  0  0  0  0  0  0  0  0  0  0
    4.8401    2.4942   21.2011 C   0  0  0  0  0  0  0  0  0  0  0  0
    8.3880   -0.3240   21.3070 C   0  0  0  0  0  0  0  0  0  0  0  0
   -0.9449    5.6976   23.0452 C   0  0  0  0  0  0  0  0  0  0  0  0
    8.8810   -1.1900   22.4510 C   0  0  0  0  0  0  0  0  0  0  0  0
    4.6405    4.2022   23.0974 C   0  0  0  0  0  0  0  0  0  0  0  0
    5.1717    0.2658   20.0236 C   0  0  0  0  0  0  0  0  0  0  0  0
    6.6082   -0.0625   19.6530 C   0  0  0  0  0  0  0  0  0  0  0  0
    5.4889   -0.6061   22.9438 N   0  0  0  0  0  0  0  0  0  0  0  0
    4.8479    2.8774   22.5716 N   0  0  0  0  0  0  0  0  0  0  0  0
    5.0895    1.0937   21.1986 N   0  0  0  0  0  0  0  0  0  0  0  0
    7.2820   -0.7860   20.6970 N   0  0  0  0  0  0  0  0  0  0  0  0
    4.6574    3.2160   20.2303 O   0  0  0  0  0  0  0  0  0  0  0  0
    8.9170    0.7530   21.0260 O   0  0  0  0  0  0  0  0  0  0  0  0
   13.8840   -1.8490   21.2740 Cl  0  0  0  0  0  0  0  0  0  0  0  0
   12.2249    1.2198   24.6546 H   0  0  0  0  0  0  0  0  0  0  0  0
    5.5420    0.1342   26.2703 H   0  0  0  0  0  0  0  0  0  0  0  0
    9.8763    0.5350   24.3454 H   0  0  0  0  0  0  0  0  0  0  0  0
    1.1142    6.9484   21.7909 H   0  0  0  0  0  0  0  0  0  0  0  0
    0.1903    3.5927   24.3291 H   0  0  0  0  0  0  0  0  0  0  0  0
    3.4949    6.3093   21.8125 H   0  0  0  0  0  0  0  0  0  0  0  0
    2.5725    2.9556   24.3535 H   0  0  0  0  0  0  0  0  0  0  0  0
    5.0852    2.4359   25.4032 H   0  0  0  0  0  0  0  0  0  0  0  0
   14.0077    0.1988   23.2842 H   0  0  0  0  0  0  0  0  0  0  0  0
   11.0892   -2.3008   21.3624 H   0  0  0  0  0  0  0  0  0  0  0  0
    5.7859   -1.7416   24.6416 H   0  0  0  0  0  0  0  0  0  0  0  0
   -1.4633    5.2086   22.2113 H   0  0  0  0  0  0  0  0  0  0  0  0
   -1.4430    5.4108   23.9805 H   0  0  0  0  0  0  0  0  0  0  0  0
   -1.0661    6.7838   22.9412 H   0  0  0  0  0  0  0  0  0  0  0  0
    8.7773   -2.2383   22.1737 H   0  0  0  0  0  0  0  0  0  0  0  0
    8.2516   -1.0144   23.3225 H   0  0  0  0  0  0  0  0  0  0  0  0
    5.2325    4.9004   22.4956 H   0  0  0  0  0  0  0  0  0  0  0  0
    5.0451    4.2258   24.1147 H   0  0  0  0  0  0  0  0  0  0  0  0
    4.5930   -0.6419   20.2220 H   0  0  0  0  0  0  0  0  0  0  0  0
    4.6896    0.8154   19.2092 H   0  0  0  0  0  0  0  0  0  0  0  0
    6.6342   -0.6915   18.7578 H   0  0  0  0  0  0  0  0  0  0  0  0
    7.1868    0.8458   19.4559 H   0  0  0  0  0  0  0  0  0  0  0  0
    6.9055   -1.6871   20.9870 H   0  0  0  0  0  0  0  0  0  0  0  0
  1  3  2  0  0  0  0
  1  9  1  0  0  0  0
  2  8  2  0  0  0  0
  2 11  1  0  0  0  0
  3 14  1  0  0  0  0
  4  6  2  0  0  0  0
  4 12  1  0  0  0  0
  5  7  1  0  0  0  0
  5 12  2  0  0  0  0
  6 13  1  0  0  0  0
  7 13  2  0  0  0  0
  8 15  1  0  0  0  0
  9 16  2  0  0  0  0
 10 14  2  0  0  0  0
 10 16  1  0  0  0  0
 11 25  2  0  0  0  0
 12 20  1  0  0  0  0
 13 22  1  0  0  0  0
 14 21  1  0  0  0  0
 15 17  2  0  0  0  0
 15 26  1  0  0  0  0
 16 31  1  0  0  0  0
 17 25  1  0  0  0  0
 17 27  1  0  0  0  0
 18 26  1  0  0  0  0
 18 27  1  0  0  0  0
 18 29  2  0  0  0  0
 19 21  1  0  0  0  0
 19 28  1  0  0  0  0
 19 30  2  0  0  0  0
 22 26  1  0  0  0  0
 23 24  1  0  0  0  0
 23 27  1  0  0  0  0
 24 28  1  0  0  0  0
  1 32  1  0  0  0  0
  2 33  1  0  0  0  0
  3 34  1  0  0  0  0
  4 35  1  0  0  0  0
  5 36  1  0  0  0  0
  6 37  1  0  0  0  0
  7 38  1  0  0  0  0
  8 39  1  0  0  0  0
  9 40  1  0  0  0  0
 10 41  1  0  0  0  0
 11 42  1  0  0  0  0
 20 43  1  0  0  0  0
 20 44  1  0  0  0  0
 20 45  1  0  0  0  0
 21 46  1  0  0  0  0
 21 47  1  0  0  0  0
 22 48  1  0  0  0  0
 22 49  1  0  0  0  0
 23 50  1  0  0  0  0
 23 51  1  0  0  0  0
 24 52  1  0  0  0  0
 24 53  1  0  0  0  0
 28 54  1  0  0  0  0
M  END
> <compound>
MAR-TRE-f6f5f473-93

> <compound_smiles>
Cc1ccc(cc1)Cn2c3cccnc3n(c2=O)CCNC(=O)Cc4cccc(c4)Cl

> <enantiomer_smiles>
Cc1ccc(cc1)Cn2c3cccnc3n(c2=O)CCNC(=O)Cc4cccc(c4)Cl

> <scaffold>
chlorobenzene-linker

> <clash_score>
0

> <docking_score>
-3.278456687927246

> <overlap_score>
0.7363208532333374

> <MMFF_internal_energy>
25.906443628850383

> <docked_smiles>
Cc1ccc(cc1)Cn2c3cccnc3n(c2=O)CCNC(=O)Cc4cccc(c4)Cl

$$$$
ALP-POS-3b848b35-3_1
  -OEChem-07262101013D

 34 36  0     0  0  0  0  0  0999 V2000
    2.5891    1.6511   17.6419 C   0  0  0  0  0  0  0  0  0  0  0  0
    3.2836    1.8180   16.4502 C   0  0  0  0  0  0  0  0  0  0  0  0
   11.9780    0.4600   23.9150 C   0  0  0  0  0  0  0  0  0  0  0  0
    3.2364    1.0970   18.7425 C   0  0  0  0  0  0  0  0  0  0  0  0
   10.6560    0.0720   23.7350 C   0  0  0  0  0  0  0  0  0  0  0  0
    4.6230    1.4306   16.3618 C   0  0  0  0  0  0  0  0  0  0  0  0
   12.9840   -0.1200   23.1530 C   0  0  0  0  0  0  0  0  0  0  0  0
    5.2596    0.1471   19.7457 C   0  0  0  0  0  0  0  0  0  0  0  0
   11.3360   -1.5050   22.0650 C   0  0  0  0  0  0  0  0  0  0  0  0
    7.2022   -0.0253   18.4052 C   0  0  0  0  0  0  0  0  0  0  0  0
    4.5837    0.7075   18.6534 C   0  0  0  0  0  0  0  0  0  0  0  0
   10.3220   -0.8940   22.7910 C   0  0  0  0  0  0  0  0  0  0  0  0
    5.2950    0.8741   17.4467 C   0  0  0  0  0  0  0  0  0  0  0  0
    6.5902   -0.2271   19.6256 C   0  0  0  0  0  0  0  0  0  0  0  0
   12.6400   -1.1000   22.2390 C   0  0  0  0  0  0  0  0  0  0  0  0
    8.3880   -0.3240   21.3070 C   0  0  0  0  0  0  0  0  0  0  0  0
    8.8810   -1.1900   22.4510 C   0  0  0  0  0  0  0  0  0  0  0  0
    6.5863    0.5118   17.3272 N   0  0  0  0  0  0  0  0  0  0  0  0
    7.2820   -0.7860   20.6970 N   0  0  0  0  0  0  0  0  0  0  0  0
    8.9170    0.7530   21.0260 O   0  0  0  0  0  0  0  0  0  0  0  0
   13.8840   -1.8490   21.2740 Cl  0  0  0  0  0  0  0  0  0  0  0  0
    1.5482    1.9507   17.7147 H   0  0  0  0  0  0  0  0  0  0  0  0
    2.7864    2.2494   15.5864 H   0  0  0  0  0  0  0  0  0  0  0  0
   12.2249    1.2198   24.6546 H   0  0  0  0  0  0  0  0  0  0  0  0
    2.6835    0.9708   19.6708 H   0  0  0  0  0  0  0  0  0  0  0  0
    9.8763    0.5350   24.3454 H   0  0  0  0  0  0  0  0  0  0  0  0
    5.1451    1.5718   15.4171 H   0  0  0  0  0  0  0  0  0  0  0  0
   14.0077    0.1988   23.2842 H   0  0  0  0  0  0  0  0  0  0  0  0
    4.7426    0.0039   20.6929 H   0  0  0  0  0  0  0  0  0  0  0  0
   11.0892   -2.3009   21.3624 H   0  0  0  0  0  0  0  0  0  0  0  0
    8.2415   -0.2950   18.2426 H   0  0  0  0  0  0  0  0  0  0  0  0
    8.7774   -2.2383   22.1732 H   0  0  0  0  0  0  0  0  0  0  0  0
    8.2557   -1.0153   23.3257 H   0  0  0  0  0  0  0  0  0  0  0  0
    6.8984   -1.6639   21.0693 H   0  0  0  0  0  0  0  0  0  0  0  0
  1  2  1  0  0  0  0
  1  4  2  0  0  0  0
  2  6  2  0  0  0  0
  3  5  2  0  0  0  0
  3  7  1  0  0  0  0
  4 11  1  0  0  0  0
  5 12  1  0  0  0  0
  6 13  1  0  0  0  0
  7 15  2  0  0  0  0
  8 11  2  0  0  0  0
  8 14  1  0  0  0  0
  9 12  2  0  0  0  0
  9 15  1  0  0  0  0
 10 14  2  0  0  0  0
 10 18  1  0  0  0  0
 11 13  1  0  0  0  0
 12 17  1  0  0  0  0
 13 18  2  0  0  0  0
 14 19  1  0  0  0  0
 15 21  1  0  0  0  0
 16 17  1  0  0  0  0
 16 19  1  0  0  0  0
 16 20  2  0  0  0  0
  1 22  1  0  0  0  0
  2 23  1  0  0  0  0
  3 24  1  0  0  0  0
  4 25  1  0  0  0  0
  5 26  1  0  0  0  0
  6 27  1  0  0  0  0
  7 28  1  0  0  0  0
  8 29  1  0  0  0  0
  9 30  1  0  0  0  0
 10 31  1  0  0  0  0
 17 32  1  0  0  0  0
 17 33  1  0  0  0  0
 19 34  1  0  0  0  0
M  END
> <compound>
ALP-POS-3b848b35-3

> <compound_smiles>
c1ccc2c(c1)cc(cn2)NC(=O)Cc3cccc(c3)Cl

> <enantiomer_smiles>
c1ccc2c(c1)cc(cn2)NC(=O)Cc3cccc(c3)Cl

> <scaffold>
chlorobenzene-linker

> <clash_score>
2.951994200056748

> <docking_score>
-4.626497268676758

> <overlap_score>
0.8406475782394409

> <MMFF_internal_energy>
84.8349469960809

> <docked_smiles>
c1ccc2c(c1)cc(cn2)NC(=O)Cc3cccc(c3)Cl

$$$$
ALP-POS-ddb41b15-9_2
  -OEChem-07262101013D

 49 52  0     1  0  0  0  0  0999 V2000
    4.4383    5.3236   21.1668 C   0  0  0  0  0  0  0  0  0  0  0  0
    5.0731    5.0556   22.3818 C   0  0  0  0  0  0  0  0  0  0  0  0
    8.2290    1.1064   16.3500 C   0  0  0  0  0  0  0  0  0  0  0  0
   11.9780    0.4600   23.9150 C   0  0  0  0  0  0  0  0  0  0  0  0
    7.3768    1.0472   17.4526 C   0  0  0  0  0  0  0  0  0  0  0  0
   10.6560    0.0720   23.7350 C   0  0  0  0  0  0  0  0  0  0  0  0
    4.4897    4.4075   20.1085 C   0  0  0  0  0  0  0  0  0  0  0  0
    5.7805    3.8660   22.5842 C   0  0  0  0  0  0  0  0  0  0  0  0
    9.2539    0.1706   16.2096 C   0  0  0  0  0  0  0  0  0  0  0  0
   12.9840   -0.1200   23.1530 C   0  0  0  0  0  0  0  0  0  0  0  0
    8.5744   -0.8834   18.2746 C   0  0  0  0  0  0  0  0  0  0  0  0
   11.3360   -1.5050   22.0650 C   0  0  0  0  0  0  0  0  0  0  0  0
    7.5495    0.0524   18.4149 C   0  0  0  0  0  0  0  0  0  0  0  0
   10.3220   -0.8940   22.7910 C   0  0  0  0  0  0  0  0  0  0  0  0
    5.1962    3.2073   20.2944 C   0  0  0  0  0  0  0  0  0  0  0  0
    5.8184    2.9685   21.5166 C   0  0  0  0  0  0  0  0  0  0  0  0
    9.4266   -0.8242   17.1719 C   0  0  0  0  0  0  0  0  0  0  0  0
   12.6400   -1.1000   22.2390 C   0  0  0  0  0  0  0  0  0  0  0  0
    6.1243    1.2937   20.1038 C   0  0  0  0  0  0  0  0  0  0  0  0
    8.3880   -0.3240   21.3070 C   0  0  0  0  0  0  0  0  0  0  0  0
   10.5461   -2.7274   18.0551 C   0  0  0  0  0  0  0  0  0  0  0  0
    8.8810   -1.1900   22.4510 C   0  0  0  0  0  0  0  0  0  0  0  0
    6.6148   -0.0121   19.6247 C   0  0  2  0  0  0  0  0  0  0  0  0
    5.3970    2.1560   19.4296 N   0  0  0  0  0  0  0  0  0  0  0  0
    6.4041    1.7377   21.3662 N   0  0  0  0  0  0  0  0  0  0  0  0
    7.2820   -0.7860   20.6970 N   0  0  0  0  0  0  0  0  0  0  0  0
    8.9170    0.7530   21.0260 O   0  0  0  0  0  0  0  0  0  0  0  0
   10.4263   -1.7377   17.0346 O   0  0  0  0  0  0  0  0  0  0  0  0
   13.8840   -1.8490   21.2740 Cl  0  0  0  0  0  0  0  0  0  0  0  0
    3.8956    6.2569   21.0400 H   0  0  0  0  0  0  0  0  0  0  0  0
    5.0178    5.7857   23.1856 H   0  0  0  0  0  0  0  0  0  0  0  0
    8.0941    1.8806   15.6006 H   0  0  0  0  0  0  0  0  0  0  0  0
   12.2249    1.2198   24.6546 H   0  0  0  0  0  0  0  0  0  0  0  0
    6.5813    1.7809   17.5537 H   0  0  0  0  0  0  0  0  0  0  0  0
    9.8763    0.5350   24.3454 H   0  0  0  0  0  0  0  0  0  0  0  0
    3.9921    4.6251   19.1689 H   0  0  0  0  0  0  0  0  0  0  0  0
    6.2729    3.6559   23.5269 H   0  0  0  0  0  0  0  0  0  0  0  0
    9.9143    0.2221   15.3485 H   0  0  0  0  0  0  0  0  0  0  0  0
   14.0077    0.1988   23.2842 H   0  0  0  0  0  0  0  0  0  0  0  0
    8.7116   -1.6599   19.0235 H   0  0  0  0  0  0  0  0  0  0  0  0
   11.0892   -2.3009   21.3624 H   0  0  0  0  0  0  0  0  0  0  0  0
   11.3821   -3.3918   17.8231 H   0  0  0  0  0  0  0  0  0  0  0  0
    9.6179   -3.3008   18.1186 H   0  0  0  0  0  0  0  0  0  0  0  0
   10.7320   -2.2318   19.0109 H   0  0  0  0  0  0  0  0  0  0  0  0
    8.7773   -2.2383   22.1737 H   0  0  0  0  0  0  0  0  0  0  0  0
    8.2516   -1.0144   23.3225 H   0  0  0  0  0  0  0  0  0  0  0  0
    5.7577   -0.6617   19.3471 H   0  0  0  0  0  0  0  0  0  0  0  0
    6.9451    1.2479   22.0666 H   0  0  0  0  0  0  0  0  0  0  0  0
    6.9031   -1.6683   20.9725 H   0  0  0  0  0  0  0  0  0  0  0  0
  1  2  1  0  0  0  0
  1  7  2  0  0  0  0
  2  8  2  0  0  0  0
  3  5  1  0  0  0  0
  3  9  2  0  0  0  0
  4  6  2  0  0  0  0
  4 10  1  0  0  0  0
  5 13  2  0  0  0  0
  6 14  1  0  0  0  0
  7 15  1  0  0  0  0
  8 16  1  0  0  0  0
  9 17  1  0  0  0  0
 10 18  2  0  0  0  0
 11 13  1  0  0  0  0
 11 17  2  0  0  0  0
 12 14  2  0  0  0  0
 12 18  1  0  0  0  0
 13 23  1  0  0  0  0
 14 22  1  0  0  0  0
 15 16  2  0  0  0  0
 15 24  1  0  0  0  0
 16 25  1  0  0  0  0
 17 28  1  0  0  0  0
 18 29  1  0  0  0  0
 19 23  1  0  0  0  0
 19 24  2  0  0  0  0
 19 25  1  0  0  0  0
 20 22  1  0  0  0  0
 20 26  1  0  0  0  0
 20 27  2  0  0  0  0
 21 28  1  0  0  0  0
 23 26  1  6  0  0  0
  1 30  1  0  0  0  0
  2 31  1  0  0  0  0
  3 32  1  0  0  0  0
  4 33  1  0  0  0  0
  5 34  1  0  0  0  0
  6 35  1  0  0  0  0
  7 36  1  0  0  0  0
  8 37  1  0  0  0  0
  9 38  1  0  0  0  0
 10 39  1  0  0  0  0
 11 40  1  0  0  0  0
 12 41  1  0  0  0  0
 21 42  1  0  0  0  0
 21 43  1  0  0  0  0
 21 44  1  0  0  0  0
 22 45  1  0  0  0  0
 22 46  1  0  0  0  0
 23 47  1  0  0  0  0
 25 48  1  0  0  0  0
 26 49  1  0  0  0  0
M  END
> <compound>
ALP-POS-ddb41b15-9

> <compound_smiles>
COc1cccc(c1)C(c2[nH]c3ccccc3n2)NC(=O)Cc4cccc(c4)Cl

> <enantiomer_smiles>
COc1cccc(c1)[C@H](c2[nH]c3ccccc3n2)NC(=O)Cc4cccc(c4)Cl

> <scaffold>
chlorobenzene-linker

> <canonical_CID>
ALP-POS-ddb41b15-9

> <r_inhibition_at_20_uM>

> <r_inhibition_at_50_uM>

> <r_avg_IC50>

> <f_inhibition_at_20_uM>

> <f_inhibition_at_50_uM>

> <f_avg_IC50>
99.5

> <f_avg_pIC50>

> <relative_solubility_at_20_uM>

> <relative_solubility_at_100_uM>

> <trypsin_IC50>

> <NMR_std_ratio>

> <acrylamide>
False

> <chloroacetamide>
False

> <series>

> <frag_id>

> <clash_score>
7.856694744825333

> <docking_score>
1.682490587234497

> <overlap_score>
0.7465482354164124

> <MMFF_internal_energy>
75.41010987203012

> <docked_smiles>
COc1cccc(c1)[C@H](c2[nH]c3ccccc3n2)NC(=O)Cc4cccc(c4)Cl

$$$$
ALP-POS-0c2c77e1-1_1
  -OEChem-07262101013D

 38 40  0     0  0  0  0  0  0999 V2000
    4.3203    1.9007   23.6667 C   0  0  0  0  0  0  0  0  0  0  0  0
    3.7304    0.7904   23.0629 C   0  0  0  0  0  0  0  0  0  0  0  0
    5.3165    2.6116   22.9974 C   0  0  0  0  0  0  0  0  0  0  0  0
   11.9780    0.4600   23.9150 C   0  0  0  0  0  0  0  0  0  0  0  0
    4.1367    0.3907   21.7898 C   0  0  0  0  0  0  0  0  0  0  0  0
    5.7229    2.2119   21.7243 C   0  0  0  0  0  0  0  0  0  0  0  0
   10.6560    0.0720   23.7350 C   0  0  0  0  0  0  0  0  0  0  0  0
   12.9840   -0.1200   23.1530 C   0  0  0  0  0  0  0  0  0  0  0  0
    4.9023    1.2144   18.6908 C   0  0  0  0  0  0  0  0  0  0  0  0
   11.3360   -1.5050   22.0650 C   0  0  0  0  0  0  0  0  0  0  0  0
    5.3213    0.8029   17.4358 C   0  0  0  0  0  0  0  0  0  0  0  0
    6.9335   -0.5706   18.3259 C   0  0  0  0  0  0  0  0  0  0  0  0
    5.1330    1.1015   21.1205 C   0  0  0  0  0  0  0  0  0  0  0  0
    5.5540    0.6867   19.7999 C   0  0  0  0  0  0  0  0  0  0  0  0
   10.3220   -0.8940   22.7910 C   0  0  0  0  0  0  0  0  0  0  0  0
    6.5902   -0.2234   19.6226 C   0  0  0  0  0  0  0  0  0  0  0  0
   12.6400   -1.1000   22.2390 C   0  0  0  0  0  0  0  0  0  0  0  0
    8.3880   -0.3240   21.3070 C   0  0  0  0  0  0  0  0  0  0  0  0
    8.8810   -1.1900   22.4510 C   0  0  0  0  0  0  0  0  0  0  0  0
    6.3237   -0.0791   17.2240 N   0  0  0  0  0  0  0  0  0  0  0  0
    7.2820   -0.7860   20.6970 N   0  0  0  0  0  0  0  0  0  0  0  0
    8.9170    0.7530   21.0260 O   0  0  0  0  0  0  0  0  0  0  0  0
   13.8840   -1.8490   21.2740 Cl  0  0  0  0  0  0  0  0  0  0  0  0
    4.0025    2.2127   24.6573 H   0  0  0  0  0  0  0  0  0  0  0  0
    2.9535    0.2378   23.5832 H   0  0  0  0  0  0  0  0  0  0  0  0
    5.7753    3.4771   23.4664 H   0  0  0  0  0  0  0  0  0  0  0  0
   12.2249    1.2198   24.6546 H   0  0  0  0  0  0  0  0  0  0  0  0
    3.6670   -0.4769   21.3324 H   0  0  0  0  0  0  0  0  0  0  0  0
    6.5002    2.7761   21.2145 H   0  0  0  0  0  0  0  0  0  0  0  0
    9.8763    0.5350   24.3454 H   0  0  0  0  0  0  0  0  0  0  0  0
   14.0077    0.1988   23.2842 H   0  0  0  0  0  0  0  0  0  0  0  0
    4.0884    1.9259   18.7876 H   0  0  0  0  0  0  0  0  0  0  0  0
   11.0892   -2.3009   21.3624 H   0  0  0  0  0  0  0  0  0  0  0  0
    4.8446    1.1846   16.5387 H   0  0  0  0  0  0  0  0  0  0  0  0
    7.7342   -1.2756   18.1226 H   0  0  0  0  0  0  0  0  0  0  0  0
    8.7774   -2.2383   22.1732 H   0  0  0  0  0  0  0  0  0  0  0  0
    8.2557   -1.0153   23.3257 H   0  0  0  0  0  0  0  0  0  0  0  0
    6.8982   -1.6624   21.0679 H   0  0  0  0  0  0  0  0  0  0  0  0
  1  2  1  0  0  0  0
  1  3  2  0  0  0  0
  2  5  2  0  0  0  0
  3  6  1  0  0  0  0
  4  7  2  0  0  0  0
  4  8  1  0  0  0  0
  5 13  1  0  0  0  0
  6 13  2  0  0  0  0
  7 15  1  0  0  0  0
  8 17  2  0  0  0  0
  9 11  2  0  0  0  0
  9 14  1  0  0  0  0
 10 15  2  0  0  0  0
 10 17  1  0  0  0  0
 11 20  1  0  0  0  0
 12 16  1  0  0  0  0
 12 20  2  0  0  0  0
 13 14  1  0  0  0  0
 14 16  2  0  0  0  0
 15 19  1  0  0  0  0
 16 21  1  0  0  0  0
 17 23  1  0  0  0  0
 18 19  1  0  0  0  0
 18 21  1  0  0  0  0
 18 22  2  0  0  0  0
  1 24  1  0  0  0  0
  2 25  1  0  0  0  0
  3 26  1  0  0  0  0
  4 27  1  0  0  0  0
  5 28  1  0  0  0  0
  6 29  1  0  0  0  0
  7 30  1  0  0  0  0
  8 31  1  0  0  0  0
  9 32  1  0  0  0  0
 10 33  1  0  0  0  0
 11 34  1  0  0  0  0
 12 35  1  0  0  0  0
 19 36  1  0  0  0  0
 19 37  1  0  0  0  0
 21 38  1  0  0  0  0
M  END
> <compound>
ALP-POS-0c2c77e1-1

> <compound_smiles>
c1ccc(cc1)c2ccncc2NC(=O)Cc3cccc(c3)Cl

> <enantiomer_smiles>
c1ccc(cc1)c2ccncc2NC(=O)Cc3cccc(c3)Cl

> <scaffold>
chlorobenzene-linker

> <canonical_CID>
ALP-POS-0c2c77e1-1

> <r_inhibition_at_20_uM>

> <r_inhibition_at_50_uM>

> <r_avg_IC50>
25.1337812588461

> <f_inhibition_at_20_uM>

> <f_inhibition_at_50_uM>

> <f_avg_IC50>
40.8917363574677

> <f_avg_pIC50>

> <relative_solubility_at_20_uM>

> <relative_solubility_at_100_uM>

> <trypsin_IC50>

> <NMR_std_ratio>

> <acrylamide>
False

> <chloroacetamide>
False

> <series>
3-aminopyridine-like

> <frag_id>
x11507

> <clash_score>
0

> <docking_score>
-10.253774642944336

> <overlap_score>
0.9141029119491577

> <MMFF_internal_energy>
97.74279236213869

> <docked_smiles>
c1ccc(cc1)c2ccncc2NC(=O)Cc3cccc(c3)Cl

$$$$
EDJ-MED-50fe53e8-1_1
  -OEChem-07262101013D

 33 35  0     0  0  0  0  0  0999 V2000
    4.7514    3.5798   20.1895 C   0  0  0  0  0  0  0  0  0  0  0  0
    5.4761    3.0243   21.2423 C   0  0  0  0  0  0  0  0  0  0  0  0
   11.9780    0.4600   23.9150 C   0  0  0  0  0  0  0  0  0  0  0  0
    4.6287    2.8888   18.9834 C   0  0  0  0  0  0  0  0  0  0  0  0
    6.0807    1.7756   21.0932 C   0  0  0  0  0  0  0  0  0  0  0  0
   10.6560    0.0720   23.7350 C   0  0  0  0  0  0  0  0  0  0  0  0
   12.9840   -0.1200   23.1530 C   0  0  0  0  0  0  0  0  0  0  0  0
   11.3360   -1.5050   22.0650 C   0  0  0  0  0  0  0  0  0  0  0  0
    5.1474    0.8942   17.6471 C   0  0  0  0  0  0  0  0  0  0  0  0
    5.2336    1.6309   18.8232 C   0  0  0  0  0  0  0  0  0  0  0  0
    5.9631    1.0717   19.8829 C   0  0  0  0  0  0  0  0  0  0  0  0
   10.3220   -0.8940   22.7910 C   0  0  0  0  0  0  0  0  0  0  0  0
   12.6400   -1.1000   22.2390 C   0  0  0  0  0  0  0  0  0  0  0  0
    6.5421   -0.1750   19.6733 C   0  0  0  0  0  0  0  0  0  0  0  0
    8.3880   -0.3240   21.3070 C   0  0  0  0  0  0  0  0  0  0  0  0
    8.8810   -1.1900   22.4510 C   0  0  0  0  0  0  0  0  0  0  0  0
    5.7263   -0.3154   17.4859 N   0  0  0  0  0  0  0  0  0  0  0  0
    6.4331   -0.8572   18.5127 N   0  0  0  0  0  0  0  0  0  0  0  0
    7.2820   -0.7860   20.6970 N   0  0  0  0  0  0  0  0  0  0  0  0
    8.9170    0.7530   21.0260 O   0  0  0  0  0  0  0  0  0  0  0  0
   13.8840   -1.8490   21.2740 Cl  0  0  0  0  0  0  0  0  0  0  0  0
    4.2819    4.5520   20.3081 H   0  0  0  0  0  0  0  0  0  0  0  0
    5.5689    3.5630   22.1806 H   0  0  0  0  0  0  0  0  0  0  0  0
   12.2249    1.2198   24.6546 H   0  0  0  0  0  0  0  0  0  0  0  0
    4.0595    3.3371   18.1724 H   0  0  0  0  0  0  0  0  0  0  0  0
    6.6381    1.3736   21.9358 H   0  0  0  0  0  0  0  0  0  0  0  0
    9.8763    0.5350   24.3454 H   0  0  0  0  0  0  0  0  0  0  0  0
   14.0077    0.1988   23.2842 H   0  0  0  0  0  0  0  0  0  0  0  0
   11.0892   -2.3009   21.3624 H   0  0  0  0  0  0  0  0  0  0  0  0
    4.6024    1.2565   16.7814 H   0  0  0  0  0  0  0  0  0  0  0  0
    8.7774   -2.2383   22.1732 H   0  0  0  0  0  0  0  0  0  0  0  0
    8.2557   -1.0153   23.3257 H   0  0  0  0  0  0  0  0  0  0  0  0
    6.9380   -1.6942   21.0188 H   0  0  0  0  0  0  0  0  0  0  0  0
  1  2  1  0  0  0  0
  1  4  2  0  0  0  0
  2  5  2  0  0  0  0
  3  6  2  0  0  0  0
  3  7  1  0  0  0  0
  4 10  1  0  0  0  0
  5 11  1  0  0  0  0
  6 12  1  0  0  0  0
  7 13  2  0  0  0  0
  8 12  2  0  0  0  0
  8 13  1  0  0  0  0
  9 10  2  0  0  0  0
  9 17  1  0  0  0  0
 10 11  1  0  0  0  0
 11 14  2  0  0  0  0
 12 16  1  0  0  0  0
 13 21  1  0  0  0  0
 14 18  1  0  0  0  0
 14 19  1  0  0  0  0
 15 16  1  0  0  0  0
 15 19  1  0  0  0  0
 15 20  2  0  0  0  0
 17 18  2  0  0  0  0
  1 22  1  0  0  0  0
  2 23  1  0  0  0  0
  3 24  1  0  0  0  0
  4 25  1  0  0  0  0
  5 26  1  0  0  0  0
  6 27  1  0  0  0  0
  7 28  1  0  0  0  0
  8 29  1  0  0  0  0
  9 30  1  0  0  0  0
 16 31  1  0  0  0  0
 16 32  1  0  0  0  0
 19 33  1  0  0  0  0
M  END
> <compound>
EDJ-MED-50fe53e8-1

> <compound_smiles>
c1ccc2c(c1)cnnc2NC(=O)Cc3cccc(c3)Cl

> <enantiomer_smiles>
c1ccc2c(c1)cnnc2NC(=O)Cc3cccc(c3)Cl

> <scaffold>
chlorobenzene-linker

> <canonical_CID>
EDJ-MED-50fe53e8-1

> <r_inhibition_at_20_uM>

> <r_inhibition_at_50_uM>

> <r_avg_IC50>

> <f_inhibition_at_20_uM>

> <f_inhibition_at_50_uM>

> <f_avg_IC50>
21.6513749569535

> <f_avg_pIC50>

> <relative_solubility_at_20_uM>

> <relative_solubility_at_100_uM>

> <trypsin_IC50>

> <NMR_std_ratio>

> <acrylamide>
False

> <chloroacetamide>
False

> <series>
3-aminopyridine-like

> <frag_id>
x11508

> <clash_score>
0

> <docking_score>
-6.167929649353027

> <overlap_score>
0.8563365936279297

> <MMFF_internal_energy>
72.5931921506838

> <docked_smiles>
c1ccc2c(c1)cnnc2NC(=O)Cc3cccc(c3)Cl

$$$$
EDJ-MED-50fe53e8-2_1
  -OEChem-07262101013D

 33 35  0     0  0  0  0  0  0999 V2000
    5.5394    3.1211   20.8448 C   0  0  0  0  0  0  0  0  0  0  0  0
    4.8704    3.5915   19.7212 C   0  0  0  0  0  0  0  0  0  0  0  0
   11.9780    0.4600   23.9150 C   0  0  0  0  0  0  0  0  0  0  0  0
    6.1153    1.8536   20.8218 C   0  0  0  0  0  0  0  0  0  0  0  0
   10.6560    0.0720   23.7350 C   0  0  0  0  0  0  0  0  0  0  0  0
    4.7792    2.7936   18.5786 C   0  0  0  0  0  0  0  0  0  0  0  0
   12.9840   -0.1200   23.1530 C   0  0  0  0  0  0  0  0  0  0  0  0
   11.3360   -1.5050   22.0650 C   0  0  0  0  0  0  0  0  0  0  0  0
    6.4603   -0.9523   18.4604 C   0  0  0  0  0  0  0  0  0  0  0  0
    6.0229    1.0515   19.6717 C   0  0  0  0  0  0  0  0  0  0  0  0
   10.3220   -0.8940   22.7910 C   0  0  0  0  0  0  0  0  0  0  0  0
    5.3472    1.5231   18.5331 C   0  0  0  0  0  0  0  0  0  0  0  0
    6.5902   -0.2219   19.6214 C   0  0  0  0  0  0  0  0  0  0  0  0
   12.6400   -1.1000   22.2390 C   0  0  0  0  0  0  0  0  0  0  0  0
    8.3880   -0.3240   21.3070 C   0  0  0  0  0  0  0  0  0  0  0  0
    8.8810   -1.1900   22.4510 C   0  0  0  0  0  0  0  0  0  0  0  0
    5.8100   -0.4833   17.3819 N   0  0  0  0  0  0  0  0  0  0  0  0
    5.2521    0.7654   17.4273 N   0  0  0  0  0  0  0  0  0  0  0  0
    7.2820   -0.7860   20.6970 N   0  0  0  0  0  0  0  0  0  0  0  0
    8.9170    0.7530   21.0260 O   0  0  0  0  0  0  0  0  0  0  0  0
   13.8840   -1.8490   21.2740 Cl  0  0  0  0  0  0  0  0  0  0  0  0
    5.6132    3.7374   21.7355 H   0  0  0  0  0  0  0  0  0  0  0  0
    4.4179    4.5787   19.7311 H   0  0  0  0  0  0  0  0  0  0  0  0
   12.2249    1.2198   24.6546 H   0  0  0  0  0  0  0  0  0  0  0  0
    6.6331    1.5108   21.7146 H   0  0  0  0  0  0  0  0  0  0  0  0
    9.8763    0.5350   24.3454 H   0  0  0  0  0  0  0  0  0  0  0  0
    4.2507    3.1823   17.7101 H   0  0  0  0  0  0  0  0  0  0  0  0
   14.0077    0.1988   23.2842 H   0  0  0  0  0  0  0  0  0  0  0  0
   11.0892   -2.3009   21.3624 H   0  0  0  0  0  0  0  0  0  0  0  0
    6.8756   -1.9483   18.3532 H   0  0  0  0  0  0  0  0  0  0  0  0
    8.7774   -2.2383   22.1732 H   0  0  0  0  0  0  0  0  0  0  0  0
    8.2557   -1.0153   23.3257 H   0  0  0  0  0  0  0  0  0  0  0  0
    6.8981   -1.6619   21.0674 H   0  0  0  0  0  0  0  0  0  0  0  0
  1  2  1  0  0  0  0
  1  4  2  0  0  0  0
  2  6  2  0  0  0  0
  3  5  2  0  0  0  0
  3  7  1  0  0  0  0
  4 10  1  0  0  0  0
  5 11  1  0  0  0  0
  6 12  1  0  0  0  0
  7 14  2  0  0  0  0
  8 11  2  0  0  0  0
  8 14  1  0  0  0  0
  9 13  1  0  0  0  0
  9 17  2  0  0  0  0
 10 12  1  0  0  0  0
 10 13  2  0  0  0  0
 11 16  1  0  0  0  0
 12 18  2  0  0  0  0
 13 19  1  0  0  0  0
 14 21  1  0  0  0  0
 15 16  1  0  0  0  0
 15 19  1  0  0  0  0
 15 20  2  0  0  0  0
 17 18  1  0  0  0  0
  1 22  1  0  0  0  0
  2 23  1  0  0  0  0
  3 24  1  0  0  0  0
  4 25  1  0  0  0  0
  5 26  1  0  0  0  0
  6 27  1  0  0  0  0
  7 28  1  0  0  0  0
  8 29  1  0  0  0  0
  9 30  1  0  0  0  0
 16 31  1  0  0  0  0
 16 32  1  0  0  0  0
 19 33  1  0  0  0  0
M  END
> <compound>
EDJ-MED-50fe53e8-2

> <compound_smiles>
c1ccc2c(c1)c(cnn2)NC(=O)Cc3cccc(c3)Cl

> <enantiomer_smiles>
c1ccc2c(c1)c(cnn2)NC(=O)Cc3cccc(c3)Cl

> <scaffold>
chlorobenzene-linker

> <canonical_CID>
EDJ-MED-50fe53e8-2

> <r_inhibition_at_20_uM>

> <r_inhibition_at_50_uM>

> <r_avg_IC50>
99.0

> <f_inhibition_at_20_uM>

> <f_inhibition_at_50_uM>

> <f_avg_IC50>
99.5

> <f_avg_pIC50>

> <relative_solubility_at_20_uM>

> <relative_solubility_at_100_uM>

> <trypsin_IC50>

> <NMR_std_ratio>

> <acrylamide>
False

> <chloroacetamide>
False

> <series>
3-aminopyridine-like

> <frag_id>

> <clash_score>
0.6383942623064081

> <docking_score>
-5.131796836853027

> <overlap_score>
0.8436604738235474

> <MMFF_internal_energy>
96.76633205398072

> <docked_smiles>
c1ccc2c(c1)c(cnn2)NC(=O)Cc3cccc(c3)Cl

$$$$
NAU-LAT-e1818702-4_1
  -OEChem-07262101013D

 32 34  0     0  0  0  0  0  0999 V2000
   11.9780    0.4600   23.9150 C   0  0  0  0  0  0  0  0  0  0  0  0
   10.6560    0.0720   23.7350 C   0  0  0  0  0  0  0  0  0  0  0  0
   12.9840   -0.1200   23.1530 C   0  0  0  0  0  0  0  0  0  0  0  0
   11.3360   -1.5050   22.0650 C   0  0  0  0  0  0  0  0  0  0  0  0
    4.8466    0.3977   18.4314 C   0  0  0  0  0  0  0  0  0  0  0  0
   10.3220   -0.8940   22.7910 C   0  0  0  0  0  0  0  0  0  0  0  0
   12.6400   -1.1000   22.2390 C   0  0  0  0  0  0  0  0  0  0  0  0
    6.5410   -0.1643   19.6652 C   0  0  0  0  0  0  0  0  0  0  0  0
    8.3880   -0.3240   21.3070 C   0  0  0  0  0  0  0  0  0  0  0  0
    3.1582   -1.9026   19.7001 C   0  0  0  0  0  0  0  0  0  0  0  0
    2.8952   -0.7314   20.5939 C   0  0  0  0  0  0  0  0  0  0  0  0
    4.3180   -1.1591   20.3203 C   0  0  0  0  0  0  0  0  0  0  0  0
    8.8810   -1.1900   22.4510 C   0  0  0  0  0  0  0  0  0  0  0  0
    5.9064    1.0043   17.9464 N   0  0  0  0  0  0  0  0  0  0  0  0
    6.9844    0.6467   18.7314 N   0  0  0  0  0  0  0  0  0  0  0  0
    5.2001   -0.3488   19.5142 N   0  0  0  0  0  0  0  0  0  0  0  0
    7.2820   -0.7860   20.6970 N   0  0  0  0  0  0  0  0  0  0  0  0
    8.9170    0.7530   21.0260 O   0  0  0  0  0  0  0  0  0  0  0  0
    8.0541   -0.9914   23.5369 F   0  0  0  0  0  0  0  0  0  0  0  0
    8.6843   -2.5219   22.1510 F   0  0  0  0  0  0  0  0  0  0  0  0
   13.8840   -1.8490   21.2740 Cl  0  0  0  0  0  0  0  0  0  0  0  0
   12.2249    1.2198   24.6546 H   0  0  0  0  0  0  0  0  0  0  0  0
    9.8763    0.5350   24.3454 H   0  0  0  0  0  0  0  0  0  0  0  0
   14.0077    0.1988   23.2842 H   0  0  0  0  0  0  0  0  0  0  0  0
   11.0892   -2.3009   21.3624 H   0  0  0  0  0  0  0  0  0  0  0  0
    3.8373    0.4616   18.0503 H   0  0  0  0  0  0  0  0  0  0  0  0
    2.9322   -2.8905   20.0830 H   0  0  0  0  0  0  0  0  0  0  0  0
    2.9727   -1.7800   18.6401 H   0  0  0  0  0  0  0  0  0  0  0  0
    2.5333    0.1809   20.1353 H   0  0  0  0  0  0  0  0  0  0  0  0
    2.4918   -0.9279   21.5798 H   0  0  0  0  0  0  0  0  0  0  0  0
    4.8424   -1.6579   21.1278 H   0  0  0  0  0  0  0  0  0  0  0  0
    6.9274   -1.6882   21.0072 H   0  0  0  0  0  0  0  0  0  0  0  0
  1  2  1  0  0  0  0
  1  3  2  0  0  0  0
  2  6  2  0  0  0  0
  3  7  1  0  0  0  0
  4  6  1  0  0  0  0
  4  7  2  0  0  0  0
  5 14  2  0  0  0  0
  5 16  1  0  0  0  0
  6 13  1  0  0  0  0
  7 21  1  0  0  0  0
  8 15  2  0  0  0  0
  8 16  1  0  0  0  0
  8 17  1  0  0  0  0
  9 13  1  0  0  0  0
  9 17  1  0  0  0  0
  9 18  2  0  0  0  0
 10 11  1  0  0  0  0
 10 12  1  0  0  0  0
 11 12  1  0  0  0  0
 12 16  1  0  0  0  0
 13 19  1  0  0  0  0
 13 20  1  0  0  0  0
 14 15  1  0  0  0  0
  1 22  1  0  0  0  0
  2 23  1  0  0  0  0
  3 24  1  0  0  0  0
  4 25  1  0  0  0  0
  5 26  1  0  0  0  0
 10 27  1  0  0  0  0
 10 28  1  0  0  0  0
 11 29  1  0  0  0  0
 11 30  1  0  0  0  0
 12 31  1  0  0  0  0
 17 32  1  0  0  0  0
M  END
> <compound>
NAU-LAT-e1818702-4

> <compound_smiles>
c1cc(cc(c1)Cl)C(C(=O)Nc2nncn2C3CC3)(F)F

> <enantiomer_smiles>
c1cc(cc(c1)Cl)C(C(=O)Nc2nncn2C3CC3)(F)F

> <scaffold>
chlorobenzene-linker

> <clash_score>
5.296862781572243

> <docking_score>
-2.6815176010131836

> <overlap_score>
0.7888242602348328

> <MMFF_internal_energy>
125.77447502421522

> <docked_smiles>
c1cc(cc(c1)Cl)C(C(=O)Nc2nncn2C3CC3)(F)F

$$$$
ALP-POS-ddb41b15-9_1
  -OEChem-07262101013D

 49 52  0     1  0  0  0  0  0999 V2000
    2.4291    3.7562   21.5904 C   0  0  0  0  0  0  0  0  0  0  0  0
    3.4683    4.2477   22.3839 C   0  0  0  0  0  0  0  0  0  0  0  0
    6.3211   -2.4378   16.6904 C   0  0  0  0  0  0  0  0  0  0  0  0
   11.9780    0.4600   23.9150 C   0  0  0  0  0  0  0  0  0  0  0  0
    6.8532   -1.5477   17.6233 C   0  0  0  0  0  0  0  0  0  0  0  0
   10.6560    0.0720   23.7350 C   0  0  0  0  0  0  0  0  0  0  0  0
    2.6390    2.6914   20.7051 C   0  0  0  0  0  0  0  0  0  0  0  0
    4.7519    3.6953   22.3227 C   0  0  0  0  0  0  0  0  0  0  0  0
    4.9667   -2.7682   16.7354 C   0  0  0  0  0  0  0  0  0  0  0  0
   12.9840   -0.1200   23.1530 C   0  0  0  0  0  0  0  0  0  0  0  0
    4.6764   -1.3185   18.6462 C   0  0  0  0  0  0  0  0  0  0  0  0
   11.3360   -1.5050   22.0650 C   0  0  0  0  0  0  0  0  0  0  0  0
    6.0309   -0.9881   18.6012 C   0  0  0  0  0  0  0  0  0  0  0  0
   10.3220   -0.8940   22.7910 C   0  0  0  0  0  0  0  0  0  0  0  0
    3.9225    2.1246   20.6305 C   0  0  0  0  0  0  0  0  0  0  0  0
    4.9378    2.6359   21.4339 C   0  0  0  0  0  0  0  0  0  0  0  0
    4.1444   -2.2086   17.7133 C   0  0  0  0  0  0  0  0  0  0  0  0
   12.6400   -1.1000   22.2390 C   0  0  0  0  0  0  0  0  0  0  0  0
    5.6563    0.9641   20.1756 C   0  0  0  0  0  0  0  0  0  0  0  0
    8.3880   -0.3240   21.3070 C   0  0  0  0  0  0  0  0  0  0  0  0
    2.0395   -1.9223   18.7825 C   0  0  0  0  0  0  0  0  0  0  0  0
    8.8810   -1.1900   22.4510 C   0  0  0  0  0  0  0  0  0  0  0  0
    6.6148   -0.0121   19.6247 C   0  0  1  0  0  0  0  0  0  0  0  0
    4.3875    1.0866   19.8559 N   0  0  0  0  0  0  0  0  0  0  0  0
    6.0352    1.8749   21.1222 N   0  0  0  0  0  0  0  0  0  0  0  0
    7.2820   -0.7860   20.6970 N   0  0  0  0  0  0  0  0  0  0  0  0
    8.9170    0.7530   21.0260 O   0  0  0  0  0  0  0  0  0  0  0  0
    2.8225   -2.5307   17.7568 O   0  0  0  0  0  0  0  0  0  0  0  0
   13.8840   -1.8490   21.2740 Cl  0  0  0  0  0  0  0  0  0  0  0  0
    1.4420    4.2062   21.6609 H   0  0  0  0  0  0  0  0  0  0  0  0
    3.2768    5.0763   23.0614 H   0  0  0  0  0  0  0  0  0  0  0  0
    6.9613   -2.8730   15.9288 H   0  0  0  0  0  0  0  0  0  0  0  0
   12.2249    1.2198   24.6546 H   0  0  0  0  0  0  0  0  0  0  0  0
    7.9097   -1.2965   17.5806 H   0  0  0  0  0  0  0  0  0  0  0  0
    9.8763    0.5350   24.3454 H   0  0  0  0  0  0  0  0  0  0  0  0
    1.8245    2.3165   20.0937 H   0  0  0  0  0  0  0  0  0  0  0  0
    5.5593    4.0748   22.9385 H   0  0  0  0  0  0  0  0  0  0  0  0
    4.5584   -3.4621   16.0060 H   0  0  0  0  0  0  0  0  0  0  0  0
   14.0077    0.1988   23.2842 H   0  0  0  0  0  0  0  0  0  0  0  0
    4.0330   -0.8840   19.4077 H   0  0  0  0  0  0  0  0  0  0  0  0
   11.0892   -2.3009   21.3624 H   0  0  0  0  0  0  0  0  0  0  0  0
    1.0048   -2.2647   18.7036 H   0  0  0  0  0  0  0  0  0  0  0  0
    2.0836   -0.8351   18.6794 H   0  0  0  0  0  0  0  0  0  0  0  0
    2.4430   -2.2106   19.7561 H   0  0  0  0  0  0  0  0  0  0  0  0
    8.7773   -2.2383   22.1737 H   0  0  0  0  0  0  0  0  0  0  0  0
    8.2516   -1.0144   23.3225 H   0  0  0  0  0  0  0  0  0  0  0  0
    7.4590    0.5172   19.1338 H   0  0  0  0  0  0  0  0  0  0  0  0
    6.9586    1.9719   21.5234 H   0  0  0  0  0  0  0  0  0  0  0  0
    6.9031   -1.6683   20.9725 H   0  0  0  0  0  0  0  0  0  0  0  0
  1  2  1  0  0  0  0
  1  7  2  0  0  0  0
  2  8  2  0  0  0  0
  3  5  1  0  0  0  0
  3  9  2  0  0  0  0
  4  6  2  0  0  0  0
  4 10  1  0  0  0  0
  5 13  2  0  0  0  0
  6 14  1  0  0  0  0
  7 15  1  0  0  0  0
  8 16  1  0  0  0  0
  9 17  1  0  0  0  0
 10 18  2  0  0  0  0
 11 13  1  0  0  0  0
 11 17  2  0  0  0  0
 12 14  2  0  0  0  0
 12 18  1  0  0  0  0
 13 23  1  0  0  0  0
 14 22  1  0  0  0  0
 15 16  2  0  0  0  0
 15 24  1  0  0  0  0
 16 25  1  0  0  0  0
 17 28  1  0  0  0  0
 18 29  1  0  0  0  0
 19 23  1  0  0  0  0
 19 24  2  0  0  0  0
 19 25  1  0  0  0  0
 20 22  1  0  0  0  0
 20 26  1  0  0  0  0
 20 27  2  0  0  0  0
 21 28  1  0  0  0  0
 23 26  1  1  0  0  0
  1 30  1  0  0  0  0
  2 31  1  0  0  0  0
  3 32  1  0  0  0  0
  4 33  1  0  0  0  0
  5 34  1  0  0  0  0
  6 35  1  0  0  0  0
  7 36  1  0  0  0  0
  8 37  1  0  0  0  0
  9 38  1  0  0  0  0
 10 39  1  0  0  0  0
 11 40  1  0  0  0  0
 12 41  1  0  0  0  0
 21 42  1  0  0  0  0
 21 43  1  0  0  0  0
 21 44  1  0  0  0  0
 22 45  1  0  0  0  0
 22 46  1  0  0  0  0
 23 47  1  0  0  0  0
 25 48  1  0  0  0  0
 26 49  1  0  0  0  0
M  END
> <compound>
ALP-POS-ddb41b15-9

> <compound_smiles>
COc1cccc(c1)C(c2[nH]c3ccccc3n2)NC(=O)Cc4cccc(c4)Cl

> <enantiomer_smiles>
COc1cccc(c1)[C@@H](c2[nH]c3ccccc3n2)NC(=O)Cc4cccc(c4)Cl

> <scaffold>
chlorobenzene-linker

> <canonical_CID>
ALP-POS-ddb41b15-9

> <r_inhibition_at_20_uM>

> <r_inhibition_at_50_uM>

> <r_avg_IC50>

> <f_inhibition_at_20_uM>

> <f_inhibition_at_50_uM>

> <f_avg_IC50>
99.5

> <f_avg_pIC50>

> <relative_solubility_at_20_uM>

> <relative_solubility_at_100_uM>

> <trypsin_IC50>

> <NMR_std_ratio>

> <acrylamide>
False

> <chloroacetamide>
False

> <series>

> <frag_id>

> <clash_score>
10.33617046398015

> <docking_score>
0.13314342498779297

> <overlap_score>
0.8499732613563538

> <MMFF_internal_energy>
60.92239263011935

> <docked_smiles>
COc1cccc(c1)[C@@H](c2[nH]c3ccccc3n2)NC(=O)Cc4cccc(c4)Cl

$$$$
WIL-UNI-2e73223c-4_1
  -OEChem-07262101013D

 44 45  0     0  0  0  0  0  0999 V2000
   11.9780    0.4600   23.9150 C   0  0  0  0  0  0  0  0  0  0  0  0
   10.6560    0.0720   23.7350 C   0  0  0  0  0  0  0  0  0  0  0  0
   12.9840   -0.1200   23.1530 C   0  0  0  0  0  0  0  0  0  0  0  0
    4.9968    4.4505   23.3562 C   0  0  0  0  0  0  0  0  0  0  0  0
   11.3360   -1.5050   22.0650 C   0  0  0  0  0  0  0  0  0  0  0  0
    3.6501    4.3764   23.0390 C   0  0  0  0  0  0  0  0  0  0  0  0
    4.0003    2.6480   21.5665 C   0  0  0  0  0  0  0  0  0  0  0  0
   10.3220   -0.8940   22.7910 C   0  0  0  0  0  0  0  0  0  0  0  0
    5.8632    3.5628   22.7280 C   0  0  0  0  0  0  0  0  0  0  0  0
    5.3635    2.6412   21.8146 C   0  0  0  0  0  0  0  0  0  0  0  0
   12.6400   -1.1000   22.2390 C   0  0  0  0  0  0  0  0  0  0  0  0
    8.3880   -0.3240   21.3070 C   0  0  0  0  0  0  0  0  0  0  0  0
    7.3210    3.6132   23.0436 C   0  0  0  0  0  0  0  0  0  0  0  0
    8.7800   -2.6901   22.0469 C   0  0  0  0  0  0  0  0  0  0  0  0
    7.8867   -1.0026   23.6354 C   0  0  0  0  0  0  0  0  0  0  0  0
    6.6076   -0.0566   19.6485 C   0  0  0  0  0  0  0  0  0  0  0  0
    5.5573    0.8548   20.2567 C   0  0  0  0  0  0  0  0  0  0  0  0
    8.8810   -1.1900   22.4510 C   0  0  0  0  0  0  0  0  0  0  0  0
    3.1276    3.4949   22.1572 N   0  0  0  0  0  0  0  0  0  0  0  0
    7.2820   -0.7860   20.6970 N   0  0  0  0  0  0  0  0  0  0  0  0
    8.9170    0.7530   21.0260 O   0  0  0  0  0  0  0  0  0  0  0  0
    6.1799    1.7489   21.1705 O   0  0  0  0  0  0  0  0  0  0  0  0
   13.8840   -1.8490   21.2740 Cl  0  0  0  0  0  0  0  0  0  0  0  0
   12.2249    1.2198   24.6546 H   0  0  0  0  0  0  0  0  0  0  0  0
    9.8763    0.5350   24.3454 H   0  0  0  0  0  0  0  0  0  0  0  0
   14.0077    0.1988   23.2842 H   0  0  0  0  0  0  0  0  0  0  0  0
    5.3552    5.1811   24.0733 H   0  0  0  0  0  0  0  0  0  0  0  0
   11.0892   -2.3009   21.3624 H   0  0  0  0  0  0  0  0  0  0  0  0
    2.9329    5.0476   23.5000 H   0  0  0  0  0  0  0  0  0  0  0  0
    3.5546    1.9507   20.8641 H   0  0  0  0  0  0  0  0  0  0  0  0
    7.5516    2.9493   23.8853 H   0  0  0  0  0  0  0  0  0  0  0  0
    7.9253    3.3054   22.1809 H   0  0  0  0  0  0  0  0  0  0  0  0
    7.6358    4.6313   23.3060 H   0  0  0  0  0  0  0  0  0  0  0  0
    7.7552   -2.9851   21.7926 H   0  0  0  0  0  0  0  0  0  0  0  0
    9.1081   -3.3488   22.8600 H   0  0  0  0  0  0  0  0  0  0  0  0
    9.4084   -2.8993   21.1730 H   0  0  0  0  0  0  0  0  0  0  0  0
    6.8607   -1.2419   23.3301 H   0  0  0  0  0  0  0  0  0  0  0  0
    7.8777    0.0311   23.9992 H   0  0  0  0  0  0  0  0  0  0  0  0
    8.1338   -1.6505   24.4845 H   0  0  0  0  0  0  0  0  0  0  0  0
    6.1559   -0.7805   18.9629 H   0  0  0  0  0  0  0  0  0  0  0  0
    7.3548    0.5316   19.1071 H   0  0  0  0  0  0  0  0  0  0  0  0
    4.8228    0.2624   20.8111 H   0  0  0  0  0  0  0  0  0  0  0  0
    5.0389    1.4395   19.4899 H   0  0  0  0  0  0  0  0  0  0  0  0
    6.9059   -1.6839   20.9852 H   0  0  0  0  0  0  0  0  0  0  0  0
  1  2  2  0  0  0  0
  1  3  1  0  0  0  0
  2  8  1  0  0  0  0
  3 11  2  0  0  0  0
  4  6  2  0  0  0  0
  4  9  1  0  0  0  0
  5  8  2  0  0  0  0
  5 11  1  0  0  0  0
  6 19  1  0  0  0  0
  7 10  1  0  0  0  0
  7 19  2  0  0  0  0
  8 18  1  0  0  0  0
  9 10  2  0  0  0  0
  9 13  1  0  0  0  0
 10 22  1  0  0  0  0
 11 23  1  0  0  0  0
 12 18  1  0  0  0  0
 12 20  1  0  0  0  0
 12 21  2  0  0  0  0
 14 18  1  0  0  0  0
 15 18  1  0  0  0  0
 16 17  1  0  0  0  0
 16 20  1  0  0  0  0
 17 22  1  0  0  0  0
  1 24  1  0  0  0  0
  2 25  1  0  0  0  0
  3 26  1  0  0  0  0
  4 27  1  0  0  0  0
  5 28  1  0  0  0  0
  6 29  1  0  0  0  0
  7 30  1  0  0  0  0
 13 31  1  0  0  0  0
 13 32  1  0  0  0  0
 13 33  1  0  0  0  0
 14 34  1  0  0  0  0
 14 35  1  0  0  0  0
 14 36  1  0  0  0  0
 15 37  1  0  0  0  0
 15 38  1  0  0  0  0
 15 39  1  0  0  0  0
 16 40  1  0  0  0  0
 16 41  1  0  0  0  0
 17 42  1  0  0  0  0
 17 43  1  0  0  0  0
 20 44  1  0  0  0  0
M  END
> <compound>
WIL-UNI-2e73223c-4

> <compound_smiles>
Cc1ccncc1OCCNC(=O)C(C)(C)c2cccc(c2)Cl

> <enantiomer_smiles>
Cc1ccncc1OCCNC(=O)C(C)(C)c2cccc(c2)Cl

> <scaffold>
chlorobenzene-linker

> <canonical_CID>
WIL-UNI-2e73223c-4

> <r_inhibition_at_20_uM>

> <r_inhibition_at_50_uM>

> <r_avg_IC50>
99.0

> <f_inhibition_at_20_uM>

> <f_inhibition_at_50_uM>

> <f_avg_IC50>
99.5

> <f_avg_pIC50>

> <relative_solubility_at_20_uM>

> <relative_solubility_at_100_uM>

> <trypsin_IC50>

> <NMR_std_ratio>

> <acrylamide>
False

> <chloroacetamide>
False

> <series>

> <frag_id>

> <clash_score>
0

> <docking_score>
-6.445508003234863

> <overlap_score>
0.7180928587913513

> <MMFF_internal_energy>
96.75687276850219

> <docked_smiles>
Cc1ccncc1OCCNC(=O)C(C)(C)c2cccc(c2)Cl

$$$$
EDJ-MED-00c1612e-1_1
  -OEChem-07262101013D

 38 40  0     0  0  0  0  0  0999 V2000
   11.9780    0.4600   23.9150 C   0  0  0  0  0  0  0  0  0  0  0  0
    3.8518    2.1350   18.7974 C   0  0  0  0  0  0  0  0  0  0  0  0
   10.6560    0.0720   23.7350 C   0  0  0  0  0  0  0  0  0  0  0  0
    3.4434    2.5374   20.0688 C   0  0  0  0  0  0  0  0  0  0  0  0
   12.9840   -0.1200   23.1530 C   0  0  0  0  0  0  0  0  0  0  0  0
    5.1217    1.1107   21.0634 C   0  0  0  0  0  0  0  0  0  0  0  0
   11.3360   -1.5050   22.0650 C   0  0  0  0  0  0  0  0  0  0  0  0
    5.3512    0.7771   17.4011 C   0  0  0  0  0  0  0  0  0  0  0  0
    6.9505   -0.5831   18.3322 C   0  0  0  0  0  0  0  0  0  0  0  0
    4.9021    1.2140   18.6489 C   0  0  0  0  0  0  0  0  0  0  0  0
    5.5460    0.6944   19.7909 C   0  0  0  0  0  0  0  0  0  0  0  0
   10.3220   -0.8940   22.7910 C   0  0  0  0  0  0  0  0  0  0  0  0
    6.5902   -0.2221   19.6216 C   0  0  0  0  0  0  0  0  0  0  0  0
    4.0769    2.0264   21.1992 C   0  0  0  0  0  0  0  0  0  0  0  0
   12.6400   -1.1000   22.2390 C   0  0  0  0  0  0  0  0  0  0  0  0
    8.3880   -0.3240   21.3070 C   0  0  0  0  0  0  0  0  0  0  0  0
    4.3658    1.8588   23.5538 C   0  0  0  0  0  0  0  0  0  0  0  0
    8.8810   -1.1900   22.4510 C   0  0  0  0  0  0  0  0  0  0  0  0
    6.3576   -0.1069   17.2167 N   0  0  0  0  0  0  0  0  0  0  0  0
    7.2820   -0.7860   20.6970 N   0  0  0  0  0  0  0  0  0  0  0  0
    8.9170    0.7530   21.0260 O   0  0  0  0  0  0  0  0  0  0  0  0
    3.6750    2.4202   22.4391 O   0  0  0  0  0  0  0  0  0  0  0  0
   13.8840   -1.8490   21.2740 Cl  0  0  0  0  0  0  0  0  0  0  0  0
   12.2249    1.2198   24.6546 H   0  0  0  0  0  0  0  0  0  0  0  0
    3.3460    2.5441   17.9259 H   0  0  0  0  0  0  0  0  0  0  0  0
    9.8763    0.5350   24.3454 H   0  0  0  0  0  0  0  0  0  0  0  0
    2.6279    3.2480   20.1713 H   0  0  0  0  0  0  0  0  0  0  0  0
   14.0077    0.1988   23.2842 H   0  0  0  0  0  0  0  0  0  0  0  0
    5.5961    0.7309   21.9660 H   0  0  0  0  0  0  0  0  0  0  0  0
   11.0892   -2.3009   21.3624 H   0  0  0  0  0  0  0  0  0  0  0  0
    4.8980    1.1378   16.4817 H   0  0  0  0  0  0  0  0  0  0  0  0
    7.7540   -1.2904   18.1477 H   0  0  0  0  0  0  0  0  0  0  0  0
    3.9466    2.2565   24.4812 H   0  0  0  0  0  0  0  0  0  0  0  0
    5.4285    2.1051   23.4867 H   0  0  0  0  0  0  0  0  0  0  0  0
    4.2437    0.7731   23.5376 H   0  0  0  0  0  0  0  0  0  0  0  0
    8.7774   -2.2383   22.1732 H   0  0  0  0  0  0  0  0  0  0  0  0
    8.2557   -1.0153   23.3257 H   0  0  0  0  0  0  0  0  0  0  0  0
    6.8981   -1.6619   21.0675 H   0  0  0  0  0  0  0  0  0  0  0  0
  1  3  2  0  0  0  0
  1  5  1  0  0  0  0
  2  4  2  0  0  0  0
  2 10  1  0  0  0  0
  3 12  1  0  0  0  0
  4 14  1  0  0  0  0
  5 15  2  0  0  0  0
  6 11  1  0  0  0  0
  6 14  2  0  0  0  0
  7 12  2  0  0  0  0
  7 15  1  0  0  0  0
  8 10  1  0  0  0  0
  8 19  2  0  0  0  0
  9 13  2  0  0  0  0
  9 19  1  0  0  0  0
 10 11  2  0  0  0  0
 11 13  1  0  0  0  0
 12 18  1  0  0  0  0
 13 20  1  0  0  0  0
 14 22  1  0  0  0  0
 15 23  1  0  0  0  0
 16 18  1  0  0  0  0
 16 20  1  0  0  0  0
 16 21  2  0  0  0  0
 17 22  1  0  0  0  0
  1 24  1  0  0  0  0
  2 25  1  0  0  0  0
  3 26  1  0  0  0  0
  4 27  1  0  0  0  0
  5 28  1  0  0  0  0
  6 29  1  0  0  0  0
  7 30  1  0  0  0  0
  8 31  1  0  0  0  0
  9 32  1  0  0  0  0
 17 33  1  0  0  0  0
 17 34  1  0  0  0  0
 17 35  1  0  0  0  0
 18 36  1  0  0  0  0
 18 37  1  0  0  0  0
 20 38  1  0  0  0  0
M  END
> <compound>
EDJ-MED-00c1612e-1

> <compound_smiles>
COc1ccc2cncc(c2c1)NC(=O)Cc3cccc(c3)Cl

> <enantiomer_smiles>
COc1ccc2cncc(c2c1)NC(=O)Cc3cccc(c3)Cl

> <scaffold>
chlorobenzene-linker

> <canonical_CID>
EDJ-MED-00c1612e-1

> <r_inhibition_at_20_uM>

> <r_inhibition_at_50_uM>

> <r_avg_IC50>
0.549993865056918

> <f_inhibition_at_20_uM>

> <f_inhibition_at_50_uM>

> <f_avg_IC50>
0.897800405241959

> <f_avg_pIC50>

> <relative_solubility_at_20_uM>

> <relative_solubility_at_100_uM>

> <trypsin_IC50>

> <NMR_std_ratio>

> <acrylamide>
False

> <chloroacetamide>
False

> <series>
3-aminopyridine-like

> <frag_id>

> <clash_score>
0

> <docking_score>
-11.212129592895508

> <overlap_score>
1.0

> <MMFF_internal_energy>
105.54616266550931

> <docked_smiles>
COc1ccc2cncc(c2c1)NC(=O)Cc3cccc(c3)Cl

$$$$
MAT-POS-e1b5ac6b-1_1
  -OEChem-07262101013D

 35 37  0     0  0  0  0  0  0999 V2000
    4.1600    2.2130   21.2811 C   0  0  0  0  0  0  0  0  0  0  0  0
    3.5953    2.8123   20.1597 C   0  0  0  0  0  0  0  0  0  0  0  0
   11.9780    0.4600   23.9150 C   0  0  0  0  0  0  0  0  0  0  0  0
    5.1629    1.2481   21.1369 C   0  0  0  0  0  0  0  0  0  0  0  0
   10.6560    0.0720   23.7350 C   0  0  0  0  0  0  0  0  0  0  0  0
    4.0317    2.4487   18.8900 C   0  0  0  0  0  0  0  0  0  0  0  0
   12.9840   -0.1200   23.1530 C   0  0  0  0  0  0  0  0  0  0  0  0
   11.3360   -1.5050   22.0650 C   0  0  0  0  0  0  0  0  0  0  0  0
    5.6208    0.8637   19.8659 C   0  0  0  0  0  0  0  0  0  0  0  0
   10.3220   -0.8940   22.7910 C   0  0  0  0  0  0  0  0  0  0  0  0
    5.0353    1.4831   18.7480 C   0  0  0  0  0  0  0  0  0  0  0  0
   12.6400   -1.1000   22.2390 C   0  0  0  0  0  0  0  0  0  0  0  0
    7.0421   -0.4430   18.3834 C   0  0  0  0  0  0  0  0  0  0  0  0
    6.6807   -0.1527   19.6458 C   0  0  0  0  0  0  0  0  0  0  0  0
    6.4310    0.2051   17.1964 C   0  0  0  0  0  0  0  0  0  0  0  0
    8.3880   -0.3240   21.3070 C   0  0  0  0  0  0  0  0  0  0  0  0
    8.8810   -1.1900   22.4510 C   0  0  0  0  0  0  0  0  0  0  0  0
    5.4542    1.1384   17.4524 N   0  0  0  0  0  0  0  0  0  0  0  0
    7.2820   -0.7860   20.6970 N   0  0  0  0  0  0  0  0  0  0  0  0
    6.8027   -0.1038   16.0664 O   0  0  0  0  0  0  0  0  0  0  0  0
    8.9170    0.7530   21.0260 O   0  0  0  0  0  0  0  0  0  0  0  0
   13.8840   -1.8490   21.2740 Cl  0  0  0  0  0  0  0  0  0  0  0  0
    3.8209    2.4945   22.2741 H   0  0  0  0  0  0  0  0  0  0  0  0
    2.8171    3.5607   20.2754 H   0  0  0  0  0  0  0  0  0  0  0  0
   12.2249    1.2198   24.6546 H   0  0  0  0  0  0  0  0  0  0  0  0
    5.5714    0.8096   22.0431 H   0  0  0  0  0  0  0  0  0  0  0  0
    9.8763    0.5350   24.3454 H   0  0  0  0  0  0  0  0  0  0  0  0
    3.5869    2.9211   18.0179 H   0  0  0  0  0  0  0  0  0  0  0  0
   14.0077    0.1988   23.2842 H   0  0  0  0  0  0  0  0  0  0  0  0
   11.0892   -2.3009   21.3624 H   0  0  0  0  0  0  0  0  0  0  0  0
    7.8126   -1.1811   18.1772 H   0  0  0  0  0  0  0  0  0  0  0  0
    8.2535   -1.0146   23.3240 H   0  0  0  0  0  0  0  0  0  0  0  0
    8.7756   -2.2377   22.1724 H   0  0  0  0  0  0  0  0  0  0  0  0
    5.0095    1.6035   16.6660 H   0  0  0  0  0  0  0  0  0  0  0  0
    6.8587   -1.6467   21.0211 H   0  0  0  0  0  0  0  0  0  0  0  0
  1  2  1  0  0  0  0
  1  4  2  0  0  0  0
  2  6  2  0  0  0  0
  3  5  2  0  0  0  0
  3  7  1  0  0  0  0
  4  9  1  0  0  0  0
  5 10  1  0  0  0  0
  6 11  1  0  0  0  0
  7 12  2  0  0  0  0
  8 10  2  0  0  0  0
  8 12  1  0  0  0  0
  9 11  2  0  0  0  0
  9 14  1  0  0  0  0
 10 17  1  0  0  0  0
 11 18  1  0  0  0  0
 12 22  1  0  0  0  0
 13 14  2  0  0  0  0
 13 15  1  0  0  0  0
 14 19  1  0  0  0  0
 15 18  1  0  0  0  0
 15 20  2  0  0  0  0
 16 17  1  0  0  0  0
 16 19  1  0  0  0  0
 16 21  2  0  0  0  0
  1 23  1  0  0  0  0
  2 24  1  0  0  0  0
  3 25  1  0  0  0  0
  4 26  1  0  0  0  0
  5 27  1  0  0  0  0
  6 28  1  0  0  0  0
  7 29  1  0  0  0  0
  8 30  1  0  0  0  0
 13 31  1  0  0  0  0
 17 32  1  0  0  0  0
 17 33  1  0  0  0  0
 18 34  1  0  0  0  0
 19 35  1  0  0  0  0
M  END
> <compound>
MAT-POS-e1b5ac6b-1

> <compound_smiles>
c1ccc2c(c1)c(cc(=O)[nH]2)NC(=O)Cc3cccc(c3)Cl

> <enantiomer_smiles>
c1ccc2c(c1)c(cc(=O)[nH]2)NC(=O)Cc3cccc(c3)Cl

> <scaffold>
chlorobenzene-linker

> <clash_score>
0.7492217306452789

> <docking_score>
-6.952237129211426

> <overlap_score>
0.9812189936637878

> <MMFF_internal_energy>
46.62173876422463

> <docked_smiles>
c1ccc2c(c1)c(cc(=O)[nH]2)NC(=O)Cc3cccc(c3)Cl

$$$$
EDJ-MED-a364e151-1_1
  -OEChem-07262101013D

 38 40  0     0  0  0  0  0  0999 V2000
   11.9780    0.4600   23.9150 C   0  0  0  0  0  0  0  0  0  0  0  0
   10.6560    0.0720   23.7350 C   0  0  0  0  0  0  0  0  0  0  0  0
   12.9840   -0.1200   23.1530 C   0  0  0  0  0  0  0  0  0  0  0  0
   11.3360   -1.5050   22.0650 C   0  0  0  0  0  0  0  0  0  0  0  0
    5.3381    0.7876   17.4227 C   0  0  0  0  0  0  0  0  0  0  0  0
    6.9429   -0.5784   18.3305 C   0  0  0  0  0  0  0  0  0  0  0  0
    4.8934    1.2072   18.6738 C   0  0  0  0  0  0  0  0  0  0  0  0
    5.5539    0.6974   19.8005 C   0  0  0  0  0  0  0  0  0  0  0  0
   10.3220   -0.8940   22.7910 C   0  0  0  0  0  0  0  0  0  0  0  0
    6.5902   -0.2233   19.6225 C   0  0  0  0  0  0  0  0  0  0  0  0
   12.6400   -1.1000   22.2390 C   0  0  0  0  0  0  0  0  0  0  0  0
    8.3880   -0.3240   21.3070 C   0  0  0  0  0  0  0  0  0  0  0  0
    3.7866    2.2187   18.7855 C   0  0  0  0  0  0  0  0  0  0  0  0
    5.1295    1.0747   21.1970 C   0  0  0  0  0  0  0  0  0  0  0  0
    3.1774    2.2839   20.1855 C   0  0  0  0  0  0  0  0  0  0  0  0
    4.2736    2.3402   21.2432 C   0  0  0  0  0  0  0  0  0  0  0  0
    8.8810   -1.1900   22.4510 C   0  0  0  0  0  0  0  0  0  0  0  0
    6.3437   -0.0933   17.2230 N   0  0  0  0  0  0  0  0  0  0  0  0
    7.2820   -0.7860   20.6970 N   0  0  0  0  0  0  0  0  0  0  0  0
    8.9170    0.7530   21.0260 O   0  0  0  0  0  0  0  0  0  0  0  0
   13.8840   -1.8490   21.2740 Cl  0  0  0  0  0  0  0  0  0  0  0  0
   12.2249    1.2198   24.6546 H   0  0  0  0  0  0  0  0  0  0  0  0
    9.8763    0.5350   24.3454 H   0  0  0  0  0  0  0  0  0  0  0  0
   14.0077    0.1988   23.2842 H   0  0  0  0  0  0  0  0  0  0  0  0
   11.0892   -2.3009   21.3624 H   0  0  0  0  0  0  0  0  0  0  0  0
    4.8795    1.1624   16.5121 H   0  0  0  0  0  0  0  0  0  0  0  0
    7.7456   -1.2843   18.1372 H   0  0  0  0  0  0  0  0  0  0  0  0
    4.1598    3.2138   18.5159 H   0  0  0  0  0  0  0  0  0  0  0  0
    3.0054    1.9508   18.0632 H   0  0  0  0  0  0  0  0  0  0  0  0
    4.5540    0.2625   21.6571 H   0  0  0  0  0  0  0  0  0  0  0  0
    6.0332    1.2286   21.8003 H   0  0  0  0  0  0  0  0  0  0  0  0
    2.5381    3.1715   20.2733 H   0  0  0  0  0  0  0  0  0  0  0  0
    2.5376    1.4096   20.3496 H   0  0  0  0  0  0  0  0  0  0  0  0
    3.8189    2.4475   22.2363 H   0  0  0  0  0  0  0  0  0  0  0  0
    4.9080    3.2193   21.0837 H   0  0  0  0  0  0  0  0  0  0  0  0
    8.7774   -2.2383   22.1732 H   0  0  0  0  0  0  0  0  0  0  0  0
    8.2557   -1.0153   23.3257 H   0  0  0  0  0  0  0  0  0  0  0  0
    6.8982   -1.6624   21.0679 H   0  0  0  0  0  0  0  0  0  0  0  0
  1  2  1  0  0  0  0
  1  3  2  0  0  0  0
  2  9  2  0  0  0  0
  3 11  1  0  0  0  0
  4  9  1  0  0  0  0
  4 11  2  0  0  0  0
  5  7  2  0  0  0  0
  5 18  1  0  0  0  0
  6 10  1  0  0  0  0
  6 18  2  0  0  0  0
  7  8  1  0  0  0  0
  7 13  1  0  0  0  0
  8 10  2  0  0  0  0
  8 14  1  0  0  0  0
  9 17  1  0  0  0  0
 10 19  1  0  0  0  0
 11 21  1  0  0  0  0
 12 17  1  0  0  0  0
 12 19  1  0  0  0  0
 12 20  2  0  0  0  0
 13 15  1  0  0  0  0
 14 16  1  0  0  0  0
 15 16  1  0  0  0  0
  1 22  1  0  0  0  0
  2 23  1  0  0  0  0
  3 24  1  0  0  0  0
  4 25  1  0  0  0  0
  5 26  1  0  0  0  0
  6 27  1  0  0  0  0
 13 28  1  0  0  0  0
 13 29  1  0  0  0  0
 14 30  1  0  0  0  0
 14 31  1  0  0  0  0
 15 32  1  0  0  0  0
 15 33  1  0  0  0  0
 16 34  1  0  0  0  0
 16 35  1  0  0  0  0
 17 36  1  0  0  0  0
 17 37  1  0  0  0  0
 19 38  1  0  0  0  0
M  END
> <compound>
EDJ-MED-a364e151-1

> <compound_smiles>
c1cc(cc(c1)Cl)CC(=O)Nc2cncc3c2CCCC3

> <enantiomer_smiles>
c1cc(cc(c1)Cl)CC(=O)Nc2cncc3c2CCCC3

> <scaffold>
chlorobenzene-linker

> <canonical_CID>
EDJ-MED-a364e151-1

> <r_inhibition_at_20_uM>

> <r_inhibition_at_50_uM>

> <r_avg_IC50>
1.84189968986135

> <f_inhibition_at_20_uM>

> <f_inhibition_at_50_uM>

> <f_avg_IC50>
99.5

> <f_avg_pIC50>

> <relative_solubility_at_20_uM>

> <relative_solubility_at_100_uM>

> <trypsin_IC50>

> <NMR_std_ratio>

> <acrylamide>
False

> <chloroacetamide>
False

> <series>
3-aminopyridine-like

> <frag_id>
x11431

> <clash_score>
0

> <docking_score>
-11.312568664550781

> <overlap_score>
0.9728519320487976

> <MMFF_internal_energy>
80.17400026264585

> <docked_smiles>
c1cc(cc(c1)Cl)CC(=O)Nc2cncc3c2CCCC3

$$$$
ALP-POS-3b848b35-4_1
  -OEChem-07262101013D

 56 59  0     1  0  0  0  0  0999 V2000
    3.4750    2.5900   20.0549 C   0  0  0  0  0  0  0  0  0  0  0  0
    4.1006    2.0696   21.1854 C   0  0  0  0  0  0  0  0  0  0  0  0
   11.9780    0.4600   23.9150 C   0  0  0  0  0  0  0  0  0  0  0  0
    3.8811    2.1854   18.7835 C   0  0  0  0  0  0  0  0  0  0  0  0
    5.1350    1.1421   21.0496 C   0  0  0  0  0  0  0  0  0  0  0  0
   10.6560    0.0720   23.7350 C   0  0  0  0  0  0  0  0  0  0  0  0
   12.9840   -0.1200   23.1530 C   0  0  0  0  0  0  0  0  0  0  0  0
   11.3360   -1.5050   22.0650 C   0  0  0  0  0  0  0  0  0  0  0  0
    5.3671    0.8129   17.3871 C   0  0  0  0  0  0  0  0  0  0  0  0
    6.9488   -0.5675   18.3184 C   0  0  0  0  0  0  0  0  0  0  0  0
    4.9208    1.2526   18.6350 C   0  0  0  0  0  0  0  0  0  0  0  0
    5.5566    0.7234   19.7771 C   0  0  0  0  0  0  0  0  0  0  0  0
   10.3220   -0.8940   22.7910 C   0  0  0  0  0  0  0  0  0  0  0  0
    6.5905   -0.2048   19.6078 C   0  0  0  0  0  0  0  0  0  0  0  0
   12.6400   -1.1000   22.2390 C   0  0  0  0  0  0  0  0  0  0  0  0
    8.3880   -0.3240   21.3070 C   0  0  0  0  0  0  0  0  0  0  0  0
    6.9936   -5.8290   25.5141 C   0  0  0  0  0  0  0  0  0  0  0  0
    6.4811   -5.1104   24.2699 C   0  0  0  0  0  0  0  0  0  0  0  0
    8.4738   -5.5537   25.7603 C   0  0  0  0  0  0  0  0  0  0  0  0
    6.7742   -3.6120   24.3228 C   0  0  0  0  0  0  0  0  0  0  0  0
    8.7674   -4.0554   25.8140 C   0  0  0  0  0  0  0  0  0  0  0  0
    8.2550   -3.2968   24.5809 C   0  0  0  0  0  0  0  0  0  0  0  0
    9.1160   -3.5780   23.3463 C   0  0  0  0  0  0  0  0  0  0  0  0
    8.6877   -2.7059   22.1641 C   0  0  0  0  0  0  0  0  0  0  0  0
    8.8810   -1.1900   22.4510 C   0  0  1  0  0  0  0  0  0  0  0  0
    6.3635   -0.0823   17.2028 N   0  0  0  0  0  0  0  0  0  0  0  0
    7.2820   -0.7860   20.6970 N   0  0  0  0  0  0  0  0  0  0  0  0
    8.9170    0.7530   21.0260 O   0  0  0  0  0  0  0  0  0  0  0  0
   13.8840   -1.8490   21.2740 Cl  0  0  0  0  0  0  0  0  0  0  0  0
    2.6704    3.3113   20.1635 H   0  0  0  0  0  0  0  0  0  0  0  0
    3.7826    2.3859   22.1748 H   0  0  0  0  0  0  0  0  0  0  0  0
   12.2249    1.2198   24.6546 H   0  0  0  0  0  0  0  0  0  0  0  0
    3.3818    2.6016   17.9115 H   0  0  0  0  0  0  0  0  0  0  0  0
    5.5990    0.7592   21.9557 H   0  0  0  0  0  0  0  0  0  0  0  0
    9.8763    0.5351   24.3454 H   0  0  0  0  0  0  0  0  0  0  0  0
   14.0077    0.1988   23.2842 H   0  0  0  0  0  0  0  0  0  0  0  0
   11.0892   -2.3009   21.3624 H   0  0  0  0  0  0  0  0  0  0  0  0
    4.9206    1.1803   16.4672 H   0  0  0  0  0  0  0  0  0  0  0  0
    7.7441   -1.2843   18.1342 H   0  0  0  0  0  0  0  0  0  0  0  0
    6.4099   -5.5142   26.3882 H   0  0  0  0  0  0  0  0  0  0  0  0
    6.8382   -6.9102   25.4004 H   0  0  0  0  0  0  0  0  0  0  0  0
    6.9443   -5.5451   23.3768 H   0  0  0  0  0  0  0  0  0  0  0  0
    5.3994   -5.2669   24.1768 H   0  0  0  0  0  0  0  0  0  0  0  0
    8.7799   -6.0190   26.7053 H   0  0  0  0  0  0  0  0  0  0  0  0
    9.0713   -6.0182   24.9677 H   0  0  0  0  0  0  0  0  0  0  0  0
    6.4555   -3.1501   23.3724 H   0  0  0  0  0  0  0  0  0  0  0  0
    6.1522   -3.1502   25.1076 H   0  0  0  0  0  0  0  0  0  0  0  0
    8.3163   -3.6320   26.7267 H   0  0  0  0  0  0  0  0  0  0  0  0
    9.8562   -3.9066   25.9168 H   0  0  0  0  0  0  0  0  0  0  0  0
    8.3338   -2.2106   24.7989 H   0  0  0  0  0  0  0  0  0  0  0  0
    9.0215   -4.6364   23.0861 H   0  0  0  0  0  0  0  0  0  0  0  0
   10.1628   -3.3944   23.6029 H   0  0  0  0  0  0  0  0  0  0  0  0
    7.6395   -2.9173   21.9174 H   0  0  0  0  0  0  0  0  0  0  0  0
    9.2791   -2.9930   21.2843 H   0  0  0  0  0  0  0  0  0  0  0  0
    8.2561   -0.9661   23.3396 H   0  0  0  0  0  0  0  0  0  0  0  0
    6.8800   -1.6506   21.0527 H   0  0  0  0  0  0  0  0  0  0  0  0
  1  2  1  0  0  0  0
  1  4  2  0  0  0  0
  2  5  2  0  0  0  0
  3  6  2  0  0  0  0
  3  7  1  0  0  0  0
  4 11  1  0  0  0  0
  5 12  1  0  0  0  0
  6 13  1  0  0  0  0
  7 15  2  0  0  0  0
  8 13  2  0  0  0  0
  8 15  1  0  0  0  0
  9 11  2  0  0  0  0
  9 26  1  0  0  0  0
 10 14  1  0  0  0  0
 10 26  2  0  0  0  0
 11 12  1  0  0  0  0
 12 14  2  0  0  0  0
 13 25  1  0  0  0  0
 14 27  1  0  0  0  0
 15 29  1  0  0  0  0
 16 25  1  1  0  0  0
 16 27  1  0  0  0  0
 16 28  2  0  0  0  0
 17 18  1  0  0  0  0
 17 19  1  0  0  0  0
 18 20  1  0  0  0  0
 19 21  1  0  0  0  0
 20 22  1  0  0  0  0
 21 22  1  0  0  0  0
 22 23  1  0  0  0  0
 23 24  1  0  0  0  0
 24 25  1  0  0  0  0
  1 30  1  0  0  0  0
  2 31  1  0  0  0  0
  3 32  1  0  0  0  0
  4 33  1  0  0  0  0
  5 34  1  0  0  0  0
  6 35  1  0  0  0  0
  7 36  1  0  0  0  0
  8 37  1  0  0  0  0
  9 38  1  0  0  0  0
 10 39  1  0  0  0  0
 17 40  1  0  0  0  0
 17 41  1  0  0  0  0
 18 42  1  0  0  0  0
 18 43  1  0  0  0  0
 19 44  1  0  0  0  0
 19 45  1  0  0  0  0
 20 46  1  0  0  0  0
 20 47  1  0  0  0  0
 21 48  1  0  0  0  0
 21 49  1  0  0  0  0
 22 50  1  0  0  0  0
 23 51  1  0  0  0  0
 23 52  1  0  0  0  0
 24 53  1  0  0  0  0
 24 54  1  0  0  0  0
 25 55  1  0  0  0  0
 27 56  1  0  0  0  0
M  END
> <compound>
ALP-POS-3b848b35-4

> <compound_smiles>
c1ccc2c(c1)cncc2NC(=O)C(CCC3CCCCC3)c4cccc(c4)Cl

> <enantiomer_smiles>
c1ccc2c(c1)cncc2NC(=O)[C@@H](CCC3CCCCC3)c4cccc(c4)Cl

> <scaffold>
chlorobenzene-linker

> <clash_score>
0

> <docking_score>
-12.994317054748535

> <overlap_score>
0.978541910648346

> <MMFF_internal_energy>
123.6432581178911

> <docked_smiles>
c1ccc2c(c1)cncc2NC(=O)[C@@H](CCC3CCCCC3)c4cccc(c4)Cl

$$$$
EDJ-MED-50fe53e8-4_1
  -OEChem-07262101013D

 33 35  0     0  0  0  0  0  0999 V2000
   11.9780    0.4600   23.9150 C   0  0  0  0  0  0  0  0  0  0  0  0
   10.6560    0.0720   23.7350 C   0  0  0  0  0  0  0  0  0  0  0  0
   12.9840   -0.1200   23.1530 C   0  0  0  0  0  0  0  0  0  0  0  0
   11.3360   -1.5050   22.0650 C   0  0  0  0  0  0  0  0  0  0  0  0
    5.9962    1.1137   18.0057 C   0  0  0  0  0  0  0  0  0  0  0  0
   10.3220   -0.8940   22.7910 C   0  0  0  0  0  0  0  0  0  0  0  0
   12.6400   -1.1000   22.2390 C   0  0  0  0  0  0  0  0  0  0  0  0
    5.0942    0.0858   18.0377 C   0  0  0  0  0  0  0  0  0  0  0  0
    6.5905   -0.2578   19.6509 C   0  0  0  0  0  0  0  0  0  0  0  0
    3.8976   -0.2208   17.2207 C   0  0  0  0  0  0  0  0  0  0  0  0
    3.2353   -1.3459   17.5457 C   0  0  0  0  0  0  0  0  0  0  0  0
    3.6893   -2.1962   18.6425 C   0  0  0  0  0  0  0  0  0  0  0  0
    4.7793   -1.9057   19.3777 C   0  0  0  0  0  0  0  0  0  0  0  0
    8.3880   -0.3240   21.3070 C   0  0  0  0  0  0  0  0  0  0  0  0
    8.8810   -1.1900   22.4510 C   0  0  0  0  0  0  0  0  0  0  0  0
    5.4891   -0.7602   19.0781 N   0  0  0  0  0  0  0  0  0  0  0  0
    6.9045    0.8745   19.0096 N   0  3  0  0  0  0  0  0  0  0  0  0
    7.2820   -0.7860   20.6970 N   0  0  0  0  0  0  0  0  0  0  0  0
    8.9170    0.7530   21.0260 O   0  0  0  0  0  0  0  0  0  0  0  0
   13.8840   -1.8490   21.2740 Cl  0  0  0  0  0  0  0  0  0  0  0  0
   12.2249    1.2198   24.6546 H   0  0  0  0  0  0  0  0  0  0  0  0
    9.8763    0.5350   24.3454 H   0  0  0  0  0  0  0  0  0  0  0  0
   14.0077    0.1988   23.2842 H   0  0  0  0  0  0  0  0  0  0  0  0
   11.0892   -2.3009   21.3624 H   0  0  0  0  0  0  0  0  0  0  0  0
    6.1353    1.9957   17.4128 H   0  0  0  0  0  0  0  0  0  0  0  0
    3.5885    0.4319   16.4143 H   0  0  0  0  0  0  0  0  0  0  0  0
    2.3481   -1.6497   17.0014 H   0  0  0  0  0  0  0  0  0  0  0  0
    3.1086   -3.0885   18.8513 H   0  0  0  0  0  0  0  0  0  0  0  0
    5.1321   -2.5230   20.1936 H   0  0  0  0  0  0  0  0  0  0  0  0
    8.7774   -2.2383   22.1732 H   0  0  0  0  0  0  0  0  0  0  0  0
    8.2557   -1.0153   23.3257 H   0  0  0  0  0  0  0  0  0  0  0  0
    7.6976    1.4695   19.2333 H   0  0  0  0  0  0  0  0  0  0  0  0
    6.8996   -1.6766   21.0807 H   0  0  0  0  0  0  0  0  0  0  0  0
  1  2  2  0  0  0  0
  1  3  1  0  0  0  0
  2  6  1  0  0  0  0
  3  7  2  0  0  0  0
  4  6  2  0  0  0  0
  4  7  1  0  0  0  0
  5  8  2  0  0  0  0
  5 17  1  0  0  0  0
  6 15  1  0  0  0  0
  7 20  1  0  0  0  0
  8 10  1  0  0  0  0
  8 16  1  0  0  0  0
  9 16  1  0  0  0  0
  9 17  2  0  0  0  0
  9 18  1  0  0  0  0
 10 11  2  0  0  0  0
 11 12  1  0  0  0  0
 12 13  2  0  0  0  0
 13 16  1  0  0  0  0
 14 15  1  0  0  0  0
 14 18  1  0  0  0  0
 14 19  2  0  0  0  0
  1 21  1  0  0  0  0
  2 22  1  0  0  0  0
  3 23  1  0  0  0  0
  4 24  1  0  0  0  0
  5 25  1  0  0  0  0
 10 26  1  0  0  0  0
 11 27  1  0  0  0  0
 12 28  1  0  0  0  0
 13 29  1  0  0  0  0
 15 30  1  0  0  0  0
 15 31  1  0  0  0  0
 17 32  1  0  0  0  0
 18 33  1  0  0  0  0
M  CHG  1  17   1
M  END
> <compound>
EDJ-MED-50fe53e8-4

> <compound_smiles>
c1ccn2c(c1)cnc2NC(=O)Cc3cccc(c3)Cl

> <enantiomer_smiles>
c1ccn2c(c1)cnc2NC(=O)Cc3cccc(c3)Cl

> <scaffold>
chlorobenzene-linker

> <clash_score>
3.9279841321802227

> <docking_score>
-0.9152788519859314

> <overlap_score>
0.7408018112182617

> <MMFF_internal_energy>
-63.003342387135774

> <docked_smiles>
c1ccn2c(c1)c[nH+]c2NC(=O)Cc3cccc(c3)Cl

$$$$
ALP-POS-3b848b35-4_2
  -OEChem-07262101013D

 56 59  0     1  0  0  0  0  0999 V2000
    3.4750    2.5900   20.0549 C   0  0  0  0  0  0  0  0  0  0  0  0
    4.1005    2.0695   21.1854 C   0  0  0  0  0  0  0  0  0  0  0  0
   11.9780    0.4600   23.9150 C   0  0  0  0  0  0  0  0  0  0  0  0
    3.8810    2.1854   18.7835 C   0  0  0  0  0  0  0  0  0  0  0  0
    5.1350    1.1421   21.0496 C   0  0  0  0  0  0  0  0  0  0  0  0
   10.6560    0.0720   23.7350 C   0  0  0  0  0  0  0  0  0  0  0  0
   12.9840   -0.1200   23.1530 C   0  0  0  0  0  0  0  0  0  0  0  0
   11.3360   -1.5050   22.0650 C   0  0  0  0  0  0  0  0  0  0  0  0
    5.3671    0.8129   17.3871 C   0  0  0  0  0  0  0  0  0  0  0  0
    6.9488   -0.5675   18.3184 C   0  0  0  0  0  0  0  0  0  0  0  0
    4.9208    1.2526   18.6350 C   0  0  0  0  0  0  0  0  0  0  0  0
    5.5566    0.7234   19.7771 C   0  0  0  0  0  0  0  0  0  0  0  0
   10.3220   -0.8940   22.7910 C   0  0  0  0  0  0  0  0  0  0  0  0
    6.5905   -0.2048   19.6078 C   0  0  0  0  0  0  0  0  0  0  0  0
   12.6400   -1.1000   22.2390 C   0  0  0  0  0  0  0  0  0  0  0  0
    8.3880   -0.3240   21.3070 C   0  0  0  0  0  0  0  0  0  0  0  0
    6.1756   -5.0087   25.7296 C   0  0  0  0  0  0  0  0  0  0  0  0
    7.5102   -4.6896   26.3959 C   0  0  0  0  0  0  0  0  0  0  0  0
    5.8108   -3.9784   24.6654 C   0  0  0  0  0  0  0  0  0  0  0  0
    8.6280   -4.5213   25.3682 C   0  0  0  0  0  0  0  0  0  0  0  0
    6.9279   -3.8102   23.6370 C   0  0  0  0  0  0  0  0  0  0  0  0
    8.2905   -3.4985   24.2735 C   0  0  0  0  0  0  0  0  0  0  0  0
    8.3517   -2.0631   24.8030 C   0  0  0  0  0  0  0  0  0  0  0  0
    7.9817   -1.0558   23.7121 C   0  0  0  0  0  0  0  0  0  0  0  0
    8.8810   -1.1900   22.4510 C   0  0  2  0  0  0  0  0  0  0  0  0
    6.3635   -0.0823   17.2028 N   0  0  0  0  0  0  0  0  0  0  0  0
    7.2820   -0.7860   20.6970 N   0  0  0  0  0  0  0  0  0  0  0  0
    8.9170    0.7530   21.0260 O   0  0  0  0  0  0  0  0  0  0  0  0
   13.8840   -1.8490   21.2740 Cl  0  0  0  0  0  0  0  0  0  0  0  0
    2.6704    3.3113   20.1635 H   0  0  0  0  0  0  0  0  0  0  0  0
    3.7826    2.3859   22.1748 H   0  0  0  0  0  0  0  0  0  0  0  0
   12.2249    1.2198   24.6546 H   0  0  0  0  0  0  0  0  0  0  0  0
    3.3818    2.6016   17.9115 H   0  0  0  0  0  0  0  0  0  0  0  0
    5.5990    0.7592   21.9557 H   0  0  0  0  0  0  0  0  0  0  0  0
    9.8763    0.5350   24.3454 H   0  0  0  0  0  0  0  0  0  0  0  0
   14.0077    0.1988   23.2842 H   0  0  0  0  0  0  0  0  0  0  0  0
   11.0892   -2.3009   21.3624 H   0  0  0  0  0  0  0  0  0  0  0  0
    4.9206    1.1803   16.4672 H   0  0  0  0  0  0  0  0  0  0  0  0
    7.7441   -1.2843   18.1342 H   0  0  0  0  0  0  0  0  0  0  0  0
    6.2194   -6.0070   25.2764 H   0  0  0  0  0  0  0  0  0  0  0  0
    5.3859   -5.0400   26.4922 H   0  0  0  0  0  0  0  0  0  0  0  0
    7.4151   -3.7736   26.9902 H   0  0  0  0  0  0  0  0  0  0  0  0
    7.7735   -5.4957   27.0918 H   0  0  0  0  0  0  0  0  0  0  0  0
    4.8904   -4.2893   24.1560 H   0  0  0  0  0  0  0  0  0  0  0  0
    5.6012   -3.0145   25.1429 H   0  0  0  0  0  0  0  0  0  0  0  0
    9.5521   -4.2173   25.8896 H   0  0  0  0  0  0  0  0  0  0  0  0
    8.8468   -5.5001   24.9098 H   0  0  0  0  0  0  0  0  0  0  0  0
    7.0008   -4.7280   23.0302 H   0  0  0  0  0  0  0  0  0  0  0  0
    6.6516   -3.0041   22.9356 H   0  0  0  0  0  0  0  0  0  0  0  0
    9.0608   -3.5912   23.4786 H   0  0  0  0  0  0  0  0  0  0  0  0
    9.3641   -1.8666   25.1683 H   0  0  0  0  0  0  0  0  0  0  0  0
    7.6721   -1.9772   25.6551 H   0  0  0  0  0  0  0  0  0  0  0  0
    8.0351   -0.0395   24.1226 H   0  0  0  0  0  0  0  0  0  0  0  0
    6.9351   -1.2208   23.4231 H   0  0  0  0  0  0  0  0  0  0  0  0
    8.8046   -2.2495   22.1323 H   0  0  0  0  0  0  0  0  0  0  0  0
    6.8800   -1.6507   21.0527 H   0  0  0  0  0  0  0  0  0  0  0  0
  1  2  1  0  0  0  0
  1  4  2  0  0  0  0
  2  5  2  0  0  0  0
  3  6  2  0  0  0  0
  3  7  1  0  0  0  0
  4 11  1  0  0  0  0
  5 12  1  0  0  0  0
  6 13  1  0  0  0  0
  7 15  2  0  0  0  0
  8 13  2  0  0  0  0
  8 15  1  0  0  0  0
  9 11  2  0  0  0  0
  9 26  1  0  0  0  0
 10 14  1  0  0  0  0
 10 26  2  0  0  0  0
 11 12  1  0  0  0  0
 12 14  2  0  0  0  0
 13 25  1  0  0  0  0
 14 27  1  0  0  0  0
 15 29  1  0  0  0  0
 16 25  1  6  0  0  0
 16 27  1  0  0  0  0
 16 28  2  0  0  0  0
 17 18  1  0  0  0  0
 17 19  1  0  0  0  0
 18 20  1  0  0  0  0
 19 21  1  0  0  0  0
 20 22  1  0  0  0  0
 21 22  1  0  0  0  0
 22 23  1  0  0  0  0
 23 24  1  0  0  0  0
 24 25  1  0  0  0  0
  1 30  1  0  0  0  0
  2 31  1  0  0  0  0
  3 32  1  0  0  0  0
  4 33  1  0  0  0  0
  5 34  1  0  0  0  0
  6 35  1  0  0  0  0
  7 36  1  0  0  0  0
  8 37  1  0  0  0  0
  9 38  1  0  0  0  0
 10 39  1  0  0  0  0
 17 40  1  0  0  0  0
 17 41  1  0  0  0  0
 18 42  1  0  0  0  0
 18 43  1  0  0  0  0
 19 44  1  0  0  0  0
 19 45  1  0  0  0  0
 20 46  1  0  0  0  0
 20 47  1  0  0  0  0
 21 48  1  0  0  0  0
 21 49  1  0  0  0  0
 22 50  1  0  0  0  0
 23 51  1  0  0  0  0
 23 52  1  0  0  0  0
 24 53  1  0  0  0  0
 24 54  1  0  0  0  0
 25 55  1  0  0  0  0
 27 56  1  0  0  0  0
M  END
> <compound>
ALP-POS-3b848b35-4

> <compound_smiles>
c1ccc2c(c1)cncc2NC(=O)C(CCC3CCCCC3)c4cccc(c4)Cl

> <enantiomer_smiles>
c1ccc2c(c1)cncc2NC(=O)[C@H](CCC3CCCCC3)c4cccc(c4)Cl

> <scaffold>
chlorobenzene-linker

> <clash_score>
0

> <docking_score>
-13.010332107543945

> <overlap_score>
0.9783056974411011

> <MMFF_internal_energy>
120.65299881521071

> <docked_smiles>
c1ccc2c(c1)cncc2NC(=O)[C@H](CCC3CCCCC3)c4cccc(c4)Cl

$$$$
JAN-GHE-f4ca5a00-20_1
  -OEChem-07262101013D

 44 46  0     1  0  0  0  0  0999 V2000
   11.9780    0.4600   23.9150 C   0  0  0  0  0  0  0  0  0  0  0  0
   10.6560    0.0720   23.7350 C   0  0  0  0  0  0  0  0  0  0  0  0
   12.9840   -0.1200   23.1530 C   0  0  0  0  0  0  0  0  0  0  0  0
   11.3360   -1.5050   22.0650 C   0  0  0  0  0  0  0  0  0  0  0  0
    5.2056    0.9840   18.4811 C   0  0  0  0  0  0  0  0  0  0  0  0
   10.3220   -0.8940   22.7910 C   0  0  0  0  0  0  0  0  0  0  0  0
   12.6400   -1.1000   22.2390 C   0  0  0  0  0  0  0  0  0  0  0  0
    5.5822    0.6859   19.7665 C   0  0  0  0  0  0  0  0  0  0  0  0
    8.3880   -0.3240   21.3070 C   0  0  0  0  0  0  0  0  0  0  0  0
    4.3140    2.5935   21.0411 C   0  0  0  0  0  0  0  0  0  0  0  0
    5.6428    2.4415   21.7129 C   0  0  0  0  0  0  0  0  0  0  0  0
    4.9925    1.2357   21.0590 C   0  0  0  0  0  0  0  0  0  0  0  0
    8.5732   -4.1668   25.7540 C   0  0  0  0  0  0  0  0  0  0  0  0
    8.2147   -3.2735   24.5772 C   0  0  0  0  0  0  0  0  0  0  0  0
    9.0736   -3.5893   23.3522 C   0  0  0  0  0  0  0  0  0  0  0  0
    8.6878   -2.7047   22.1600 C   0  0  0  0  0  0  0  0  0  0  0  0
    8.8810   -1.1900   22.4510 C   0  0  1  0  0  0  0  0  0  0  0  0
    5.9806    0.2814   17.6006 N   0  0  0  0  0  0  0  0  0  0  0  0
    6.8354   -0.4524   18.3047 N   0  0  0  0  0  0  0  0  0  0  0  0
    6.5948   -0.2086   19.6031 N   0  0  0  0  0  0  0  0  0  0  0  0
    7.2820   -0.7860   20.6970 N   0  0  0  0  0  0  0  0  0  0  0  0
    8.9170    0.7530   21.0260 O   0  0  0  0  0  0  0  0  0  0  0  0
   13.8840   -1.8490   21.2740 Cl  0  0  0  0  0  0  0  0  0  0  0  0
   12.2249    1.2198   24.6546 H   0  0  0  0  0  0  0  0  0  0  0  0
    9.8763    0.5350   24.3454 H   0  0  0  0  0  0  0  0  0  0  0  0
   14.0077    0.1988   23.2842 H   0  0  0  0  0  0  0  0  0  0  0  0
   11.0892   -2.3009   21.3624 H   0  0  0  0  0  0  0  0  0  0  0  0
    4.4305    1.6564   18.1449 H   0  0  0  0  0  0  0  0  0  0  0  0
    3.4430    2.7348   21.6695 H   0  0  0  0  0  0  0  0  0  0  0  0
    4.2823    3.1400   20.1062 H   0  0  0  0  0  0  0  0  0  0  0  0
    6.5056    2.8842   21.2298 H   0  0  0  0  0  0  0  0  0  0  0  0
    5.6696    2.4797   22.7952 H   0  0  0  0  0  0  0  0  0  0  0  0
    4.5661    0.4934   21.7336 H   0  0  0  0  0  0  0  0  0  0  0  0
    8.4442   -5.2195   25.4837 H   0  0  0  0  0  0  0  0  0  0  0  0
    9.6150   -4.0187   26.0557 H   0  0  0  0  0  0  0  0  0  0  0  0
    7.9326   -3.9561   26.6161 H   0  0  0  0  0  0  0  0  0  0  0  0
    8.3502   -2.2251   24.8671 H   0  0  0  0  0  0  0  0  0  0  0  0
    7.1545   -3.4086   24.3335 H   0  0  0  0  0  0  0  0  0  0  0  0
   10.1312   -3.4331   23.5972 H   0  0  0  0  0  0  0  0  0  0  0  0
    8.9563   -4.6471   23.0903 H   0  0  0  0  0  0  0  0  0  0  0  0
    7.6329   -2.8893   21.9165 H   0  0  0  0  0  0  0  0  0  0  0  0
    9.2689   -3.0097   21.2805 H   0  0  0  0  0  0  0  0  0  0  0  0
    8.2561   -0.9664   23.3393 H   0  0  0  0  0  0  0  0  0  0  0  0
    6.8838   -1.6541   21.0484 H   0  0  0  0  0  0  0  0  0  0  0  0
  1  2  2  0  0  0  0
  1  3  1  0  0  0  0
  2  6  1  0  0  0  0
  3  7  2  0  0  0  0
  4  6  2  0  0  0  0
  4  7  1  0  0  0  0
  5  8  2  0  0  0  0
  5 18  1  0  0  0  0
  6 17  1  0  0  0  0
  7 23  1  0  0  0  0
  8 12  1  0  0  0  0
  8 20  1  0  0  0  0
  9 17  1  0  0  0  0
  9 21  1  0  0  0  0
  9 22  2  0  0  0  0
 10 11  1  0  0  0  0
 10 12  1  0  0  0  0
 11 12  1  0  0  0  0
 13 14  1  0  0  0  0
 14 15  1  0  0  0  0
 15 16  1  0  0  0  0
 16 17  1  1  0  0  0
 18 19  2  0  0  0  0
 19 20  1  0  0  0  0
 20 21  1  0  0  0  0
  1 24  1  0  0  0  0
  2 25  1  0  0  0  0
  3 26  1  0  0  0  0
  4 27  1  0  0  0  0
  5 28  1  0  0  0  0
 10 29  1  0  0  0  0
 10 30  1  0  0  0  0
 11 31  1  0  0  0  0
 11 32  1  0  0  0  0
 12 33  1  0  0  0  0
 13 34  1  0  0  0  0
 13 35  1  0  0  0  0
 13 36  1  0  0  0  0
 14 37  1  0  0  0  0
 14 38  1  0  0  0  0
 15 39  1  0  0  0  0
 15 40  1  0  0  0  0
 16 41  1  0  0  0  0
 16 42  1  0  0  0  0
 17 43  1  0  0  0  0
 21 44  1  0  0  0  0
M  END
> <compound>
JAN-GHE-f4ca5a00-20

> <compound_smiles>
CCCCC(c1cccc(c1)Cl)C(=O)Nn2c(cnn2)C3CC3

> <enantiomer_smiles>
CCCC[C@@H](c1cccc(c1)Cl)C(=O)Nn2c(cnn2)C3CC3

> <scaffold>
chlorobenzene-linker

> <clash_score>
0

> <docking_score>
-9.024603843688965

> <overlap_score>
0.8844351768493652

> <MMFF_internal_energy>
17.92134842191026

> <docked_smiles>
CCCC[C@@H](c1cccc(c1)Cl)C(=O)Nn2c(cnn2)C3CC3

$$$$
EDJ-MED-50fe53e8-3_1
  -OEChem-07262101013D

 32 34  0     0  0  0  0  0  0999 V2000
   11.9780    0.4600   23.9150 C   0  0  0  0  0  0  0  0  0  0  0  0
   10.6560    0.0720   23.7350 C   0  0  0  0  0  0  0  0  0  0  0  0
   12.9840   -0.1200   23.1530 C   0  0  0  0  0  0  0  0  0  0  0  0
   11.3360   -1.5050   22.0650 C   0  0  0  0  0  0  0  0  0  0  0  0
    6.0896    0.6374   17.7816 C   0  0  0  0  0  0  0  0  0  0  0  0
   10.3220   -0.8940   22.7910 C   0  0  0  0  0  0  0  0  0  0  0  0
   12.6400   -1.1000   22.2390 C   0  0  0  0  0  0  0  0  0  0  0  0
    5.2161    0.1490   19.7529 C   0  0  0  0  0  0  0  0  0  0  0  0
    6.5434   -0.2036   19.6935 C   0  0  0  0  0  0  0  0  0  0  0  0
    4.1679    0.0882   20.7099 C   0  0  0  0  0  0  0  0  0  0  0  0
    2.9482    0.5569   20.3787 C   0  0  0  0  0  0  0  0  0  0  0  0
    2.6803    1.1234   19.0640 C   0  0  0  0  0  0  0  0  0  0  0  0
    3.6729    1.1797   18.1600 C   0  0  0  0  0  0  0  0  0  0  0  0
    8.3880   -0.3240   21.3070 C   0  0  0  0  0  0  0  0  0  0  0  0
    8.8810   -1.1900   22.4510 C   0  0  0  0  0  0  0  0  0  0  0  0
    7.0783    0.1029   18.4661 N   0  0  0  0  0  0  0  0  0  0  0  0
    4.9289    0.6937   18.5104 N   0  0  0  0  0  0  0  0  0  0  0  0
    7.2820   -0.7860   20.6970 N   0  0  0  0  0  0  0  0  0  0  0  0
    8.9170    0.7530   21.0260 O   0  0  0  0  0  0  0  0  0  0  0  0
   13.8840   -1.8490   21.2740 Cl  0  0  0  0  0  0  0  0  0  0  0  0
   12.2249    1.2198   24.6546 H   0  0  0  0  0  0  0  0  0  0  0  0
    9.8763    0.5350   24.3454 H   0  0  0  0  0  0  0  0  0  0  0  0
   14.0077    0.1988   23.2842 H   0  0  0  0  0  0  0  0  0  0  0  0
   11.0892   -2.3009   21.3624 H   0  0  0  0  0  0  0  0  0  0  0  0
    6.1525    0.9989   16.7642 H   0  0  0  0  0  0  0  0  0  0  0  0
    4.3536   -0.3316   21.6922 H   0  0  0  0  0  0  0  0  0  0  0  0
    2.1289    0.5228   21.0888 H   0  0  0  0  0  0  0  0  0  0  0  0
    1.6842    1.4869   18.8431 H   0  0  0  0  0  0  0  0  0  0  0  0
    3.5430    1.5873   17.1651 H   0  0  0  0  0  0  0  0  0  0  0  0
    8.7775   -2.2383   22.1732 H   0  0  0  0  0  0  0  0  0  0  0  0
    8.2557   -1.0153   23.3257 H   0  0  0  0  0  0  0  0  0  0  0  0
    6.9398   -1.7056   21.0280 H   0  0  0  0  0  0  0  0  0  0  0  0
  1  2  2  0  0  0  0
  1  3  1  0  0  0  0
  2  6  1  0  0  0  0
  3  7  2  0  0  0  0
  4  6  2  0  0  0  0
  4  7  1  0  0  0  0
  5 16  2  0  0  0  0
  5 17  1  0  0  0  0
  6 15  1  0  0  0  0
  7 20  1  0  0  0  0
  8  9  2  0  0  0  0
  8 10  1  0  0  0  0
  8 17  1  0  0  0  0
  9 16  1  0  0  0  0
  9 18  1  0  0  0  0
 10 11  2  0  0  0  0
 11 12  1  0  0  0  0
 12 13  2  0  0  0  0
 13 17  1  0  0  0  0
 14 15  1  0  0  0  0
 14 18  1  0  0  0  0
 14 19  2  0  0  0  0
  1 21  1  0  0  0  0
  2 22  1  0  0  0  0
  3 23  1  0  0  0  0
  4 24  1  0  0  0  0
  5 25  1  0  0  0  0
 10 26  1  0  0  0  0
 11 27  1  0  0  0  0
 12 28  1  0  0  0  0
 13 29  1  0  0  0  0
 15 30  1  0  0  0  0
 15 31  1  0  0  0  0
 18 32  1  0  0  0  0
M  END
> <compound>
EDJ-MED-50fe53e8-3

> <compound_smiles>
c1ccn2cnc(c2c1)NC(=O)Cc3cccc(c3)Cl

> <enantiomer_smiles>
c1ccn2cnc(c2c1)NC(=O)Cc3cccc(c3)Cl

> <scaffold>
chlorobenzene-linker

> <canonical_CID>
EDJ-MED-50fe53e8-3

> <r_inhibition_at_20_uM>

> <r_inhibition_at_50_uM>

> <r_avg_IC50>
99.0

> <f_inhibition_at_20_uM>

> <f_inhibition_at_50_uM>

> <f_avg_IC50>
99.5

> <f_avg_pIC50>

> <relative_solubility_at_20_uM>

> <relative_solubility_at_100_uM>

> <trypsin_IC50>

> <NMR_std_ratio>

> <acrylamide>
False

> <chloroacetamide>
False

> <series>
3-aminopyridine-like

> <frag_id>
x11493

> <clash_score>
0.6236829531942876

> <docking_score>
-3.800492525100708

> <overlap_score>
0.867023229598999

> <MMFF_internal_energy>
45.94194580064972

> <docked_smiles>
c1ccn2cnc(c2c1)NC(=O)Cc3cccc(c3)Cl

$$$$
EDJ-MED-a364e151-3_1
  -OEChem-07262101013D

 31 33  0     0  0  0  0  0  0999 V2000
   11.9780    0.4600   23.9150 C   0  0  0  0  0  0  0  0  0  0  0  0
   10.6560    0.0720   23.7350 C   0  0  0  0  0  0  0  0  0  0  0  0
   12.9840   -0.1200   23.1530 C   0  0  0  0  0  0  0  0  0  0  0  0
   11.3360   -1.5050   22.0650 C   0  0  0  0  0  0  0  0  0  0  0  0
    7.1932   -0.0204   18.3945 C   0  0  0  0  0  0  0  0  0  0  0  0
    5.2736    0.8737   17.4571 C   0  0  0  0  0  0  0  0  0  0  0  0
   10.3220   -0.8940   22.7910 C   0  0  0  0  0  0  0  0  0  0  0  0
    6.5901   -0.2286   19.6268 C   0  0  0  0  0  0  0  0  0  0  0  0
    4.6113    0.6981   18.6435 C   0  0  0  0  0  0  0  0  0  0  0  0
    5.2713    0.1513   19.7138 C   0  0  0  0  0  0  0  0  0  0  0  0
   12.6400   -1.1000   22.2390 C   0  0  0  0  0  0  0  0  0  0  0  0
    8.3880   -0.3240   21.3070 C   0  0  0  0  0  0  0  0  0  0  0  0
    3.2370    0.5920   20.3020 C   0  0  0  0  0  0  0  0  0  0  0  0
    8.8810   -1.1900   22.4510 C   0  0  0  0  0  0  0  0  0  0  0  0
    6.5712    0.5197   17.3088 N   0  0  0  0  0  0  0  0  0  0  0  0
    7.2820   -0.7860   20.6970 N   0  0  0  0  0  0  0  0  0  0  0  0
    8.9170    0.7530   21.0260 O   0  0  0  0  0  0  0  0  0  0  0  0
    3.3217    1.0079   18.9226 O   0  0  0  0  0  0  0  0  0  0  0  0
    4.4732    0.0467   20.8105 O   0  0  0  0  0  0  0  0  0  0  0  0
   13.8840   -1.8490   21.2740 Cl  0  0  0  0  0  0  0  0  0  0  0  0
   12.2249    1.2198   24.6546 H   0  0  0  0  0  0  0  0  0  0  0  0
    9.8763    0.5350   24.3454 H   0  0  0  0  0  0  0  0  0  0  0  0
   14.0077    0.1988   23.2842 H   0  0  0  0  0  0  0  0  0  0  0  0
   11.0892   -2.3009   21.3624 H   0  0  0  0  0  0  0  0  0  0  0  0
    8.2323   -0.2890   18.2258 H   0  0  0  0  0  0  0  0  0  0  0  0
    4.7957    1.3004   16.5840 H   0  0  0  0  0  0  0  0  0  0  0  0
    2.9572    1.4577   20.9133 H   0  0  0  0  0  0  0  0  0  0  0  0
    2.4539   -0.1696   20.3917 H   0  0  0  0  0  0  0  0  0  0  0  0
    8.7774   -2.2383   22.1732 H   0  0  0  0  0  0  0  0  0  0  0  0
    8.2557   -1.0153   23.3257 H   0  0  0  0  0  0  0  0  0  0  0  0
    6.8984   -1.6645   21.0698 H   0  0  0  0  0  0  0  0  0  0  0  0
  1  2  1  0  0  0  0
  1  3  2  0  0  0  0
  2  7  2  0  0  0  0
  3 11  1  0  0  0  0
  4  7  1  0  0  0  0
  4 11  2  0  0  0  0
  5  8  1  0  0  0  0
  5 15  2  0  0  0  0
  6  9  2  0  0  0  0
  6 15  1  0  0  0  0
  7 14  1  0  0  0  0
  8 10  2  0  0  0  0
  8 16  1  0  0  0  0
  9 10  1  0  0  0  0
  9 18  1  0  0  0  0
 10 19  1  0  0  0  0
 11 20  1  0  0  0  0
 12 14  1  0  0  0  0
 12 16  1  0  0  0  0
 12 17  2  0  0  0  0
 13 18  1  0  0  0  0
 13 19  1  0  0  0  0
  1 21  1  0  0  0  0
  2 22  1  0  0  0  0
  3 23  1  0  0  0  0
  4 24  1  0  0  0  0
  5 25  1  0  0  0  0
  6 26  1  0  0  0  0
 13 27  1  0  0  0  0
 13 28  1  0  0  0  0
 14 29  1  0  0  0  0
 14 30  1  0  0  0  0
 16 31  1  0  0  0  0
M  END
> <compound>
EDJ-MED-a364e151-3

> <compound_smiles>
c1cc(cc(c1)Cl)CC(=O)Nc2cncc3c2OCO3

> <enantiomer_smiles>
c1cc(cc(c1)Cl)CC(=O)Nc2cncc3c2OCO3

> <scaffold>
chlorobenzene-linker

> <clash_score>
0

> <docking_score>
-7.0890703201293945

> <overlap_score>
0.8847913146018982

> <MMFF_internal_energy>
83.084982078336

> <docked_smiles>
c1cc(cc(c1)Cl)CC(=O)Nc2cncc3c2OCO3

$$$$
EDJ-MED-a364e151-2_1
  -OEChem-07262101013D

 34 36  0     0  0  0  0  0  0999 V2000
   11.9780    0.4600   23.9150 C   0  0  0  0  0  0  0  0  0  0  0  0
   10.6560    0.0720   23.7350 C   0  0  0  0  0  0  0  0  0  0  0  0
   12.9840   -0.1200   23.1530 C   0  0  0  0  0  0  0  0  0  0  0  0
   11.3360   -1.5050   22.0650 C   0  0  0  0  0  0  0  0  0  0  0  0
    7.2272   -0.0310   18.4082 C   0  0  0  0  0  0  0  0  0  0  0  0
    5.3358    0.8567   17.4470 C   0  0  0  0  0  0  0  0  0  0  0  0
   10.3220   -0.8940   22.7910 C   0  0  0  0  0  0  0  0  0  0  0  0
    6.5902   -0.2248   19.6237 C   0  0  0  0  0  0  0  0  0  0  0  0
    4.6147    0.7152   18.6209 C   0  0  0  0  0  0  0  0  0  0  0  0
    5.2534    0.1444   19.7180 C   0  0  0  0  0  0  0  0  0  0  0  0
   12.6400   -1.1000   22.2390 C   0  0  0  0  0  0  0  0  0  0  0  0
    8.3880   -0.3240   21.3070 C   0  0  0  0  0  0  0  0  0  0  0  0
    2.8147    1.2427   19.9759 C   0  0  0  0  0  0  0  0  0  0  0  0
    3.1985    0.0184   20.7862 C   0  0  0  0  0  0  0  0  0  0  0  0
    8.8810   -1.1900   22.4510 C   0  0  0  0  0  0  0  0  0  0  0  0
    6.6320    0.4958   17.3137 N   0  0  0  0  0  0  0  0  0  0  0  0
    7.2820   -0.7860   20.6970 N   0  0  0  0  0  0  0  0  0  0  0  0
    8.9170    0.7530   21.0260 O   0  0  0  0  0  0  0  0  0  0  0  0
    3.3154    1.1336   18.6399 O   0  0  0  0  0  0  0  0  0  0  0  0
    4.6212   -0.0686   20.9144 O   0  0  0  0  0  0  0  0  0  0  0  0
   13.8840   -1.8490   21.2740 Cl  0  0  0  0  0  0  0  0  0  0  0  0
   12.2249    1.2198   24.6546 H   0  0  0  0  0  0  0  0  0  0  0  0
    9.8763    0.5350   24.3454 H   0  0  0  0  0  0  0  0  0  0  0  0
   14.0077    0.1988   23.2842 H   0  0  0  0  0  0  0  0  0  0  0  0
   11.0892   -2.3009   21.3624 H   0  0  0  0  0  0  0  0  0  0  0  0
    8.2691   -0.3044   18.2670 H   0  0  0  0  0  0  0  0  0  0  0  0
    4.8860    1.2840   16.5564 H   0  0  0  0  0  0  0  0  0  0  0  0
    1.7255    1.3331   19.9170 H   0  0  0  0  0  0  0  0  0  0  0  0
    3.2108    2.1626   20.4236 H   0  0  0  0  0  0  0  0  0  0  0  0
    2.7771    0.0825   21.7942 H   0  0  0  0  0  0  0  0  0  0  0  0
    2.8324   -0.9048   20.3201 H   0  0  0  0  0  0  0  0  0  0  0  0
    8.7774   -2.2383   22.1732 H   0  0  0  0  0  0  0  0  0  0  0  0
    8.2557   -1.0153   23.3257 H   0  0  0  0  0  0  0  0  0  0  0  0
    6.8983   -1.6630   21.0684 H   0  0  0  0  0  0  0  0  0  0  0  0
  1  2  1  0  0  0  0
  1  3  2  0  0  0  0
  2  7  2  0  0  0  0
  3 11  1  0  0  0  0
  4  7  1  0  0  0  0
  4 11  2  0  0  0  0
  5  8  1  0  0  0  0
  5 16  2  0  0  0  0
  6  9  2  0  0  0  0
  6 16  1  0  0  0  0
  7 15  1  0  0  0  0
  8 10  2  0  0  0  0
  8 17  1  0  0  0  0
  9 10  1  0  0  0  0
  9 19  1  0  0  0  0
 10 20  1  0  0  0  0
 11 21  1  0  0  0  0
 12 15  1  0  0  0  0
 12 17  1  0  0  0  0
 12 18  2  0  0  0  0
 13 14  1  0  0  0  0
 13 19  1  0  0  0  0
 14 20  1  0  0  0  0
  1 22  1  0  0  0  0
  2 23  1  0  0  0  0
  3 24  1  0  0  0  0
  4 25  1  0  0  0  0
  5 26  1  0  0  0  0
  6 27  1  0  0  0  0
 13 28  1  0  0  0  0
 13 29  1  0  0  0  0
 14 30  1  0  0  0  0
 14 31  1  0  0  0  0
 15 32  1  0  0  0  0
 15 33  1  0  0  0  0
 17 34  1  0  0  0  0
M  END
> <compound>
EDJ-MED-a364e151-2

> <compound_smiles>
c1cc(cc(c1)Cl)CC(=O)Nc2cncc3c2OCCO3

> <enantiomer_smiles>
c1cc(cc(c1)Cl)CC(=O)Nc2cncc3c2OCCO3

> <scaffold>
chlorobenzene-linker

> <clash_score>
0.6145863191930042

> <docking_score>
-6.6823015213012695

> <overlap_score>
0.8970379829406738

> <MMFF_internal_energy>
109.31851892268656

> <docked_smiles>
c1cc(cc(c1)Cl)CC(=O)Nc2cncc3c2OCCO3

$$$$
EDJ-MED-976da9a6-1_1
  -OEChem-07262101013D

 36 38  0     0  0  0  0  0  0999 V2000
   11.9780    0.4600   23.9150 C   0  0  0  0  0  0  0  0  0  0  0  0
   10.6560    0.0720   23.7350 C   0  0  0  0  0  0  0  0  0  0  0  0
   12.9840   -0.1200   23.1530 C   0  0  0  0  0  0  0  0  0  0  0  0
   11.3360   -1.5050   22.0650 C   0  0  0  0  0  0  0  0  0  0  0  0
    5.3449    0.8662   17.4528 C   0  0  0  0  0  0  0  0  0  0  0  0
    7.2306   -0.0322   18.4102 C   0  0  0  0  0  0  0  0  0  0  0  0
    4.6091    0.7288   18.6246 C   0  0  0  0  0  0  0  0  0  0  0  0
   10.3220   -0.8940   22.7910 C   0  0  0  0  0  0  0  0  0  0  0  0
    6.5902   -0.2243   19.6234 C   0  0  0  0  0  0  0  0  0  0  0  0
    5.2534    0.1514   19.7207 C   0  0  0  0  0  0  0  0  0  0  0  0
   12.6400   -1.1000   22.2390 C   0  0  0  0  0  0  0  0  0  0  0  0
    8.3880   -0.3240   21.3070 C   0  0  0  0  0  0  0  0  0  0  0  0
    3.1757    1.1565   18.6946 C   0  0  0  0  0  0  0  0  0  0  0  0
    2.7312    1.2648   20.1474 C   0  0  0  0  0  0  0  0  0  0  0  0
    3.2183    0.0436   20.9131 C   0  0  0  0  0  0  0  0  0  0  0  0
    8.8810   -1.1900   22.4510 C   0  0  0  0  0  0  0  0  0  0  0  0
    6.6400    0.5006   17.3183 N   0  0  0  0  0  0  0  0  0  0  0  0
    7.2820   -0.7860   20.6970 N   0  0  0  0  0  0  0  0  0  0  0  0
    8.9170    0.7530   21.0260 O   0  0  0  0  0  0  0  0  0  0  0  0
    4.6477   -0.0457   20.9347 O   0  0  0  0  0  0  0  0  0  0  0  0
   13.8840   -1.8490   21.2740 Cl  0  0  0  0  0  0  0  0  0  0  0  0
   12.2249    1.2198   24.6546 H   0  0  0  0  0  0  0  0  0  0  0  0
    9.8763    0.5350   24.3454 H   0  0  0  0  0  0  0  0  0  0  0  0
   14.0077    0.1988   23.2842 H   0  0  0  0  0  0  0  0  0  0  0  0
   11.0892   -2.3009   21.3624 H   0  0  0  0  0  0  0  0  0  0  0  0
    4.9000    1.2930   16.5590 H   0  0  0  0  0  0  0  0  0  0  0  0
    8.2714   -0.3101   18.2706 H   0  0  0  0  0  0  0  0  0  0  0  0
    3.0362    2.1231   18.1975 H   0  0  0  0  0  0  0  0  0  0  0  0
    2.5613    0.4138   18.1716 H   0  0  0  0  0  0  0  0  0  0  0  0
    3.1665    2.1684   20.5930 H   0  0  0  0  0  0  0  0  0  0  0  0
    1.6415    1.3539   20.2054 H   0  0  0  0  0  0  0  0  0  0  0  0
    2.8835    0.1057   21.9538 H   0  0  0  0  0  0  0  0  0  0  0  0
    2.8094   -0.8842   20.4939 H   0  0  0  0  0  0  0  0  0  0  0  0
    8.7774   -2.2383   22.1732 H   0  0  0  0  0  0  0  0  0  0  0  0
    8.2557   -1.0153   23.3257 H   0  0  0  0  0  0  0  0  0  0  0  0
    6.8982   -1.6628   21.0683 H   0  0  0  0  0  0  0  0  0  0  0  0
  1  2  1  0  0  0  0
  1  3  2  0  0  0  0
  2  8  2  0  0  0  0
  3 11  1  0  0  0  0
  4  8  1  0  0  0  0
  4 11  2  0  0  0  0
  5  7  2  0  0  0  0
  5 17  1  0  0  0  0
  6  9  1  0  0  0  0
  6 17  2  0  0  0  0
  7 10  1  0  0  0  0
  7 13  1  0  0  0  0
  8 16  1  0  0  0  0
  9 10  2  0  0  0  0
  9 18  1  0  0  0  0
 10 20  1  0  0  0  0
 11 21  1  0  0  0  0
 12 16  1  0  0  0  0
 12 18  1  0  0  0  0
 12 19  2  0  0  0  0
 13 14  1  0  0  0  0
 14 15  1  0  0  0  0
 15 20  1  0  0  0  0
  1 22  1  0  0  0  0
  2 23  1  0  0  0  0
  3 24  1  0  0  0  0
  4 25  1  0  0  0  0
  5 26  1  0  0  0  0
  6 27  1  0  0  0  0
 13 28  1  0  0  0  0
 13 29  1  0  0  0  0
 14 30  1  0  0  0  0
 14 31  1  0  0  0  0
 15 32  1  0  0  0  0
 15 33  1  0  0  0  0
 16 34  1  0  0  0  0
 16 35  1  0  0  0  0
 18 36  1  0  0  0  0
M  END
> <compound>
EDJ-MED-976da9a6-1

> <compound_smiles>
c1cc(cc(c1)Cl)CC(=O)Nc2cncc3c2OCCC3

> <enantiomer_smiles>
c1cc(cc(c1)Cl)CC(=O)Nc2cncc3c2OCCC3

> <scaffold>
chlorobenzene-linker

> <canonical_CID>
EDJ-MED-976da9a6-1

> <r_inhibition_at_20_uM>

> <r_inhibition_at_50_uM>

> <r_avg_IC50>
9.85585385180378

> <f_inhibition_at_20_uM>

> <f_inhibition_at_50_uM>

> <f_avg_IC50>
11.8845465740254

> <f_avg_pIC50>

> <relative_solubility_at_20_uM>

> <relative_solubility_at_100_uM>

> <trypsin_IC50>

> <NMR_std_ratio>

> <acrylamide>
False

> <chloroacetamide>
False

> <series>
3-aminopyridine-like

> <frag_id>

> <clash_score>
0

> <docking_score>
-6.919499397277832

> <overlap_score>
0.8967577219009399

> <MMFF_internal_energy>
70.725117046891

> <docked_smiles>
c1cc(cc(c1)Cl)CC(=O)Nc2cncc3c2OCCC3

$$$$
JAN-GHE-f4ca5a00-19_2
  -OEChem-07262101013D

 44 46  0     1  0  0  0  0  0999 V2000
   11.9780    0.4600   23.9150 C   0  0  0  0  0  0  0  0  0  0  0  0
   10.6560    0.0720   23.7350 C   0  0  0  0  0  0  0  0  0  0  0  0
   12.9840   -0.1200   23.1530 C   0  0  0  0  0  0  0  0  0  0  0  0
   11.3360   -1.5050   22.0650 C   0  0  0  0  0  0  0  0  0  0  0  0
    6.8231   -0.4418   18.2809 C   0  0  0  0  0  0  0  0  0  0  0  0
   10.3220   -0.8940   22.7910 C   0  0  0  0  0  0  0  0  0  0  0  0
   12.6400   -1.1000   22.2390 C   0  0  0  0  0  0  0  0  0  0  0  0
    5.5731    0.6909   19.6460 C   0  0  0  0  0  0  0  0  0  0  0  0
    8.3880   -0.3240   21.3070 C   0  0  0  0  0  0  0  0  0  0  0  0
    4.2685    2.6307   20.8322 C   0  0  0  0  0  0  0  0  0  0  0  0
    5.5765    2.4961   21.5474 C   0  0  0  0  0  0  0  0  0  0  0  0
    4.9420    1.2768   20.9119 C   0  0  0  0  0  0  0  0  0  0  0  0
    8.7413   -4.4604   25.4240 C   0  0  0  0  0  0  0  0  0  0  0  0
    8.3147   -3.4861   24.3376 C   0  0  0  0  0  0  0  0  0  0  0  0
    8.3884   -2.0382   24.8235 C   0  0  0  0  0  0  0  0  0  0  0  0
    7.9846   -1.0587   23.7144 C   0  0  0  0  0  0  0  0  0  0  0  0
    8.8810   -1.1900   22.4510 C   0  0  2  0  0  0  0  0  0  0  0  0
    5.9917    0.2714   17.5553 N   0  0  0  0  0  0  0  0  0  0  0  0
    5.1964    0.9920   18.4238 N   0  0  0  0  0  0  0  0  0  0  0  0
    6.5948   -0.2086   19.6031 N   0  0  0  0  0  0  0  0  0  0  0  0
    7.2820   -0.7860   20.6970 N   0  0  0  0  0  0  0  0  0  0  0  0
    8.9170    0.7530   21.0260 O   0  0  0  0  0  0  0  0  0  0  0  0
   13.8840   -1.8490   21.2740 Cl  0  0  0  0  0  0  0  0  0  0  0  0
   12.2249    1.2198   24.6546 H   0  0  0  0  0  0  0  0  0  0  0  0
    9.8763    0.5350   24.3454 H   0  0  0  0  0  0  0  0  0  0  0  0
   14.0077    0.1988   23.2842 H   0  0  0  0  0  0  0  0  0  0  0  0
   11.0892   -2.3009   21.3624 H   0  0  0  0  0  0  0  0  0  0  0  0
    7.5817   -1.1179   17.9124 H   0  0  0  0  0  0  0  0  0  0  0  0
    3.3792    2.7881   21.4303 H   0  0  0  0  0  0  0  0  0  0  0  0
    4.2654    3.1529   19.8830 H   0  0  0  0  0  0  0  0  0  0  0  0
    6.4538    2.9262   21.0793 H   0  0  0  0  0  0  0  0  0  0  0  0
    5.5707    2.5622   22.6287 H   0  0  0  0  0  0  0  0  0  0  0  0
    4.4981    0.5492   21.5860 H   0  0  0  0  0  0  0  0  0  0  0  0
    9.7624   -4.2403   25.7508 H   0  0  0  0  0  0  0  0  0  0  0  0
    8.0827   -4.3889   26.2955 H   0  0  0  0  0  0  0  0  0  0  0  0
    8.7163   -5.4917   25.0581 H   0  0  0  0  0  0  0  0  0  0  0  0
    7.2913   -3.7225   24.0241 H   0  0  0  0  0  0  0  0  0  0  0  0
    8.9613   -3.6185   23.4623 H   0  0  0  0  0  0  0  0  0  0  0  0
    7.7245   -1.9081   25.6867 H   0  0  0  0  0  0  0  0  0  0  0  0
    9.4071   -1.8218   25.1650 H   0  0  0  0  0  0  0  0  0  0  0  0
    8.0533   -0.0367   24.1104 H   0  0  0  0  0  0  0  0  0  0  0  0
    6.9312   -1.2219   23.4537 H   0  0  0  0  0  0  0  0  0  0  0  0
    8.8046   -2.2491   22.1314 H   0  0  0  0  0  0  0  0  0  0  0  0
    6.8838   -1.6541   21.0484 H   0  0  0  0  0  0  0  0  0  0  0  0
  1  2  2  0  0  0  0
  1  3  1  0  0  0  0
  2  6  1  0  0  0  0
  3  7  2  0  0  0  0
  4  6  2  0  0  0  0
  4  7  1  0  0  0  0
  5 18  2  0  0  0  0
  5 20  1  0  0  0  0
  6 17  1  0  0  0  0
  7 23  1  0  0  0  0
  8 12  1  0  0  0  0
  8 19  2  0  0  0  0
  8 20  1  0  0  0  0
  9 17  1  0  0  0  0
  9 21  1  0  0  0  0
  9 22  2  0  0  0  0
 10 11  1  0  0  0  0
 10 12  1  0  0  0  0
 11 12  1  0  0  0  0
 13 14  1  0  0  0  0
 14 15  1  0  0  0  0
 15 16  1  0  0  0  0
 16 17  1  6  0  0  0
 18 19  1  0  0  0  0
 20 21  1  0  0  0  0
  1 24  1  0  0  0  0
  2 25  1  0  0  0  0
  3 26  1  0  0  0  0
  4 27  1  0  0  0  0
  5 28  1  0  0  0  0
 10 29  1  0  0  0  0
 10 30  1  0  0  0  0
 11 31  1  0  0  0  0
 11 32  1  0  0  0  0
 12 33  1  0  0  0  0
 13 34  1  0  0  0  0
 13 35  1  0  0  0  0
 13 36  1  0  0  0  0
 14 37  1  0  0  0  0
 14 38  1  0  0  0  0
 15 39  1  0  0  0  0
 15 40  1  0  0  0  0
 16 41  1  0  0  0  0
 16 42  1  0  0  0  0
 17 43  1  0  0  0  0
 21 44  1  0  0  0  0
M  END
> <compound>
JAN-GHE-f4ca5a00-19

> <compound_smiles>
CCCCC(c1cccc(c1)Cl)C(=O)Nn2cnnc2C3CC3

> <enantiomer_smiles>
CCCC[C@H](c1cccc(c1)Cl)C(=O)Nn2cnnc2C3CC3

> <scaffold>
chlorobenzene-linker

> <clash_score>
0

> <docking_score>
-10.105657577514648

> <overlap_score>
0.8876725435256958

> <MMFF_internal_energy>
49.19399663121107

> <docked_smiles>
CCCC[C@H](c1cccc(c1)Cl)C(=O)Nn2cnnc2C3CC3

$$$$
JAN-GHE-f4ca5a00-18_2
  -OEChem-07262101013D

 45 47  0     1  0  0  0  0  0999 V2000
   11.9780    0.4600   23.9150 C   0  0  0  0  0  0  0  0  0  0  0  0
   10.6560    0.0720   23.7350 C   0  0  0  0  0  0  0  0  0  0  0  0
   12.9840   -0.1200   23.1530 C   0  0  0  0  0  0  0  0  0  0  0  0
   11.3360   -1.5050   22.0650 C   0  0  0  0  0  0  0  0  0  0  0  0
    5.2414    0.9495   18.3594 C   0  0  0  0  0  0  0  0  0  0  0  0
    6.8385   -0.4553   18.2806 C   0  0  0  0  0  0  0  0  0  0  0  0
   10.3220   -0.8940   22.7910 C   0  0  0  0  0  0  0  0  0  0  0  0
   12.6400   -1.1000   22.2390 C   0  0  0  0  0  0  0  0  0  0  0  0
    5.5705    0.6934   19.6696 C   0  0  0  0  0  0  0  0  0  0  0  0
    8.3880   -0.3240   21.3070 C   0  0  0  0  0  0  0  0  0  0  0  0
    4.8742    2.8014   21.0637 C   0  0  0  0  0  0  0  0  0  0  0  0
    5.8035    2.0066   21.9268 C   0  0  0  0  0  0  0  0  0  0  0  0
    4.9269    1.2921   20.9150 C   0  0  0  0  0  0  0  0  0  0  0  0
    8.7413   -4.4604   25.4240 C   0  0  0  0  0  0  0  0  0  0  0  0
    8.3147   -3.4861   24.3376 C   0  0  0  0  0  0  0  0  0  0  0  0
    8.3884   -2.0382   24.8235 C   0  0  0  0  0  0  0  0  0  0  0  0
    7.9846   -1.0587   23.7144 C   0  0  0  0  0  0  0  0  0  0  0  0
    8.8810   -1.1900   22.4510 C   0  0  2  0  0  0  0  0  0  0  0  0
    6.0341    0.2311   17.4997 N   0  0  0  0  0  0  0  0  0  0  0  0
    6.5948   -0.2086   19.6031 N   0  0  0  0  0  0  0  0  0  0  0  0
    7.2820   -0.7860   20.6970 N   0  0  0  0  0  0  0  0  0  0  0  0
    8.9170    0.7530   21.0260 O   0  0  0  0  0  0  0  0  0  0  0  0
   13.8840   -1.8490   21.2740 Cl  0  0  0  0  0  0  0  0  0  0  0  0
   12.2249    1.2198   24.6546 H   0  0  0  0  0  0  0  0  0  0  0  0
    9.8763    0.5350   24.3454 H   0  0  0  0  0  0  0  0  0  0  0  0
   14.0077    0.1988   23.2842 H   0  0  0  0  0  0  0  0  0  0  0  0
   11.0892   -2.3009   21.3624 H   0  0  0  0  0  0  0  0  0  0  0  0
    4.4753    1.6152   17.9884 H   0  0  0  0  0  0  0  0  0  0  0  0
    7.6083   -1.1386   17.9476 H   0  0  0  0  0  0  0  0  0  0  0  0
    3.9981    3.2354   21.5300 H   0  0  0  0  0  0  0  0  0  0  0  0
    5.3111    3.4111   20.2820 H   0  0  0  0  0  0  0  0  0  0  0  0
    6.8655    2.0800   21.7255 H   0  0  0  0  0  0  0  0  0  0  0  0
    5.5551    1.9034   22.9762 H   0  0  0  0  0  0  0  0  0  0  0  0
    4.0792    0.7380   21.3168 H   0  0  0  0  0  0  0  0  0  0  0  0
    9.7624   -4.2403   25.7508 H   0  0  0  0  0  0  0  0  0  0  0  0
    8.0827   -4.3889   26.2955 H   0  0  0  0  0  0  0  0  0  0  0  0
    8.7163   -5.4917   25.0581 H   0  0  0  0  0  0  0  0  0  0  0  0
    7.2913   -3.7225   24.0241 H   0  0  0  0  0  0  0  0  0  0  0  0
    8.9613   -3.6185   23.4623 H   0  0  0  0  0  0  0  0  0  0  0  0
    7.7245   -1.9081   25.6867 H   0  0  0  0  0  0  0  0  0  0  0  0
    9.4071   -1.8218   25.1650 H   0  0  0  0  0  0  0  0  0  0  0  0
    8.0533   -0.0367   24.1104 H   0  0  0  0  0  0  0  0  0  0  0  0
    6.9312   -1.2219   23.4537 H   0  0  0  0  0  0  0  0  0  0  0  0
    8.8046   -2.2491   22.1314 H   0  0  0  0  0  0  0  0  0  0  0  0
    6.8838   -1.6541   21.0484 H   0  0  0  0  0  0  0  0  0  0  0  0
  1  2  2  0  0  0  0
  1  3  1  0  0  0  0
  2  7  1  0  0  0  0
  3  8  2  0  0  0  0
  4  7  2  0  0  0  0
  4  8  1  0  0  0  0
  5  9  2  0  0  0  0
  5 19  1  0  0  0  0
  6 19  2  0  0  0  0
  6 20  1  0  0  0  0
  7 18  1  0  0  0  0
  8 23  1  0  0  0  0
  9 13  1  0  0  0  0
  9 20  1  0  0  0  0
 10 18  1  0  0  0  0
 10 21  1  0  0  0  0
 10 22  2  0  0  0  0
 11 12  1  0  0  0  0
 11 13  1  0  0  0  0
 12 13  1  0  0  0  0
 14 15  1  0  0  0  0
 15 16  1  0  0  0  0
 16 17  1  0  0  0  0
 17 18  1  6  0  0  0
 20 21  1  0  0  0  0
  1 24  1  0  0  0  0
  2 25  1  0  0  0  0
  3 26  1  0  0  0  0
  4 27  1  0  0  0  0
  5 28  1  0  0  0  0
  6 29  1  0  0  0  0
 11 30  1  0  0  0  0
 11 31  1  0  0  0  0
 12 32  1  0  0  0  0
 12 33  1  0  0  0  0
 13 34  1  0  0  0  0
 14 35  1  0  0  0  0
 14 36  1  0  0  0  0
 14 37  1  0  0  0  0
 15 38  1  0  0  0  0
 15 39  1  0  0  0  0
 16 40  1  0  0  0  0
 16 41  1  0  0  0  0
 17 42  1  0  0  0  0
 17 43  1  0  0  0  0
 18 44  1  0  0  0  0
 21 45  1  0  0  0  0
M  END
> <compound>
JAN-GHE-f4ca5a00-18

> <compound_smiles>
CCCCC(c1cccc(c1)Cl)C(=O)Nn2cncc2C3CC3

> <enantiomer_smiles>
CCCC[C@H](c1cccc(c1)Cl)C(=O)Nn2cncc2C3CC3

> <scaffold>
chlorobenzene-linker

> <clash_score>
0

> <docking_score>
-10.557109832763672

> <overlap_score>
0.8723379969596863

> <MMFF_internal_energy>
40.97423369355926

> <docked_smiles>
CCCC[C@H](c1cccc(c1)Cl)C(=O)Nn2cncc2C3CC3

$$$$
JAN-GHE-f4ca5a00-20_2
  -OEChem-07262101013D

 44 46  0     1  0  0  0  0  0999 V2000
   11.9780    0.4600   23.9150 C   0  0  0  0  0  0  0  0  0  0  0  0
   10.6560    0.0720   23.7350 C   0  0  0  0  0  0  0  0  0  0  0  0
   12.9840   -0.1200   23.1530 C   0  0  0  0  0  0  0  0  0  0  0  0
   11.3360   -1.5050   22.0650 C   0  0  0  0  0  0  0  0  0  0  0  0
    5.2056    0.9840   18.4811 C   0  0  0  0  0  0  0  0  0  0  0  0
   10.3220   -0.8940   22.7910 C   0  0  0  0  0  0  0  0  0  0  0  0
   12.6400   -1.1000   22.2390 C   0  0  0  0  0  0  0  0  0  0  0  0
    5.5822    0.6859   19.7665 C   0  0  0  0  0  0  0  0  0  0  0  0
    8.3880   -0.3240   21.3070 C   0  0  0  0  0  0  0  0  0  0  0  0
    4.3140    2.5935   21.0411 C   0  0  0  0  0  0  0  0  0  0  0  0
    5.6428    2.4415   21.7129 C   0  0  0  0  0  0  0  0  0  0  0  0
    4.9925    1.2357   21.0590 C   0  0  0  0  0  0  0  0  0  0  0  0
    8.7413   -4.4604   25.4240 C   0  0  0  0  0  0  0  0  0  0  0  0
    8.3147   -3.4861   24.3376 C   0  0  0  0  0  0  0  0  0  0  0  0
    8.3884   -2.0382   24.8235 C   0  0  0  0  0  0  0  0  0  0  0  0
    7.9846   -1.0587   23.7144 C   0  0  0  0  0  0  0  0  0  0  0  0
    8.8810   -1.1900   22.4510 C   0  0  2  0  0  0  0  0  0  0  0  0
    5.9806    0.2814   17.6006 N   0  0  0  0  0  0  0  0  0  0  0  0
    6.8354   -0.4524   18.3047 N   0  0  0  0  0  0  0  0  0  0  0  0
    6.5948   -0.2086   19.6031 N   0  0  0  0  0  0  0  0  0  0  0  0
    7.2820   -0.7860   20.6970 N   0  0  0  0  0  0  0  0  0  0  0  0
    8.9170    0.7530   21.0260 O   0  0  0  0  0  0  0  0  0  0  0  0
   13.8840   -1.8490   21.2740 Cl  0  0  0  0  0  0  0  0  0  0  0  0
   12.2249    1.2198   24.6546 H   0  0  0  0  0  0  0  0  0  0  0  0
    9.8763    0.5350   24.3454 H   0  0  0  0  0  0  0  0  0  0  0  0
   14.0077    0.1988   23.2842 H   0  0  0  0  0  0  0  0  0  0  0  0
   11.0892   -2.3009   21.3624 H   0  0  0  0  0  0  0  0  0  0  0  0
    4.4305    1.6564   18.1449 H   0  0  0  0  0  0  0  0  0  0  0  0
    3.4430    2.7348   21.6695 H   0  0  0  0  0  0  0  0  0  0  0  0
    4.2823    3.1400   20.1062 H   0  0  0  0  0  0  0  0  0  0  0  0
    6.5056    2.8842   21.2298 H   0  0  0  0  0  0  0  0  0  0  0  0
    5.6696    2.4797   22.7952 H   0  0  0  0  0  0  0  0  0  0  0  0
    4.5660    0.4934   21.7336 H   0  0  0  0  0  0  0  0  0  0  0  0
    9.7624   -4.2403   25.7508 H   0  0  0  0  0  0  0  0  0  0  0  0
    8.0827   -4.3889   26.2955 H   0  0  0  0  0  0  0  0  0  0  0  0
    8.7163   -5.4917   25.0581 H   0  0  0  0  0  0  0  0  0  0  0  0
    7.2913   -3.7225   24.0241 H   0  0  0  0  0  0  0  0  0  0  0  0
    8.9613   -3.6185   23.4623 H   0  0  0  0  0  0  0  0  0  0  0  0
    7.7245   -1.9081   25.6867 H   0  0  0  0  0  0  0  0  0  0  0  0
    9.4071   -1.8218   25.1650 H   0  0  0  0  0  0  0  0  0  0  0  0
    8.0533   -0.0367   24.1104 H   0  0  0  0  0  0  0  0  0  0  0  0
    6.9312   -1.2219   23.4537 H   0  0  0  0  0  0  0  0  0  0  0  0
    8.8046   -2.2491   22.1314 H   0  0  0  0  0  0  0  0  0  0  0  0
    6.8838   -1.6541   21.0484 H   0  0  0  0  0  0  0  0  0  0  0  0
  1  2  2  0  0  0  0
  1  3  1  0  0  0  0
  2  6  1  0  0  0  0
  3  7  2  0  0  0  0
  4  6  2  0  0  0  0
  4  7  1  0  0  0  0
  5  8  2  0  0  0  0
  5 18  1  0  0  0  0
  6 17  1  0  0  0  0
  7 23  1  0  0  0  0
  8 12  1  0  0  0  0
  8 20  1  0  0  0  0
  9 17  1  0  0  0  0
  9 21  1  0  0  0  0
  9 22  2  0  0  0  0
 10 11  1  0  0  0  0
 10 12  1  0  0  0  0
 11 12  1  0  0  0  0
 13 14  1  0  0  0  0
 14 15  1  0  0  0  0
 15 16  1  0  0  0  0
 16 17  1  6  0  0  0
 18 19  2  0  0  0  0
 19 20  1  0  0  0  0
 20 21  1  0  0  0  0
  1 24  1  0  0  0  0
  2 25  1  0  0  0  0
  3 26  1  0  0  0  0
  4 27  1  0  0  0  0
  5 28  1  0  0  0  0
 10 29  1  0  0  0  0
 10 30  1  0  0  0  0
 11 31  1  0  0  0  0
 11 32  1  0  0  0  0
 12 33  1  0  0  0  0
 13 34  1  0  0  0  0
 13 35  1  0  0  0  0
 13 36  1  0  0  0  0
 14 37  1  0  0  0  0
 14 38  1  0  0  0  0
 15 39  1  0  0  0  0
 15 40  1  0  0  0  0
 16 41  1  0  0  0  0
 16 42  1  0  0  0  0
 17 43  1  0  0  0  0
 21 44  1  0  0  0  0
M  END
> <compound>
JAN-GHE-f4ca5a00-20

> <compound_smiles>
CCCCC(c1cccc(c1)Cl)C(=O)Nn2c(cnn2)C3CC3

> <enantiomer_smiles>
CCCC[C@H](c1cccc(c1)Cl)C(=O)Nn2c(cnn2)C3CC3

> <scaffold>
chlorobenzene-linker

> <clash_score>
0

> <docking_score>
-9.99077320098877

> <overlap_score>
0.8841774463653564

> <MMFF_internal_energy>
14.601387177605222

> <docked_smiles>
CCCC[C@H](c1cccc(c1)Cl)C(=O)Nn2c(cnn2)C3CC3

$$$$
JAN-GHE-f4ca5a00-19_1
  -OEChem-07262101013D

 44 46  0     1  0  0  0  0  0999 V2000
   11.9780    0.4600   23.9150 C   0  0  0  0  0  0  0  0  0  0  0  0
   10.6560    0.0720   23.7350 C   0  0  0  0  0  0  0  0  0  0  0  0
   12.9840   -0.1200   23.1530 C   0  0  0  0  0  0  0  0  0  0  0  0
   11.3360   -1.5050   22.0650 C   0  0  0  0  0  0  0  0  0  0  0  0
    6.8231   -0.4418   18.2809 C   0  0  0  0  0  0  0  0  0  0  0  0
   10.3220   -0.8940   22.7910 C   0  0  0  0  0  0  0  0  0  0  0  0
   12.6400   -1.1000   22.2390 C   0  0  0  0  0  0  0  0  0  0  0  0
    5.5731    0.6909   19.6460 C   0  0  0  0  0  0  0  0  0  0  0  0
    8.3880   -0.3240   21.3070 C   0  0  0  0  0  0  0  0  0  0  0  0
    4.2685    2.6307   20.8322 C   0  0  0  0  0  0  0  0  0  0  0  0
    5.5765    2.4961   21.5474 C   0  0  0  0  0  0  0  0  0  0  0  0
    4.9420    1.2768   20.9119 C   0  0  0  0  0  0  0  0  0  0  0  0
    8.5732   -4.1668   25.7540 C   0  0  0  0  0  0  0  0  0  0  0  0
    8.2147   -3.2735   24.5772 C   0  0  0  0  0  0  0  0  0  0  0  0
    9.0736   -3.5893   23.3522 C   0  0  0  0  0  0  0  0  0  0  0  0
    8.6878   -2.7047   22.1600 C   0  0  0  0  0  0  0  0  0  0  0  0
    8.8810   -1.1900   22.4510 C   0  0  1  0  0  0  0  0  0  0  0  0
    5.9917    0.2714   17.5553 N   0  0  0  0  0  0  0  0  0  0  0  0
    5.1964    0.9920   18.4238 N   0  0  0  0  0  0  0  0  0  0  0  0
    6.5948   -0.2086   19.6031 N   0  0  0  0  0  0  0  0  0  0  0  0
    7.2820   -0.7860   20.6970 N   0  0  0  0  0  0  0  0  0  0  0  0
    8.9170    0.7530   21.0260 O   0  0  0  0  0  0  0  0  0  0  0  0
   13.8840   -1.8490   21.2740 Cl  0  0  0  0  0  0  0  0  0  0  0  0
   12.2249    1.2198   24.6546 H   0  0  0  0  0  0  0  0  0  0  0  0
    9.8763    0.5350   24.3454 H   0  0  0  0  0  0  0  0  0  0  0  0
   14.0077    0.1988   23.2842 H   0  0  0  0  0  0  0  0  0  0  0  0
   11.0892   -2.3009   21.3624 H   0  0  0  0  0  0  0  0  0  0  0  0
    7.5817   -1.1179   17.9124 H   0  0  0  0  0  0  0  0  0  0  0  0
    3.3792    2.7881   21.4303 H   0  0  0  0  0  0  0  0  0  0  0  0
    4.2654    3.1529   19.8830 H   0  0  0  0  0  0  0  0  0  0  0  0
    6.4538    2.9262   21.0793 H   0  0  0  0  0  0  0  0  0  0  0  0
    5.5707    2.5622   22.6287 H   0  0  0  0  0  0  0  0  0  0  0  0
    4.4981    0.5492   21.5860 H   0  0  0  0  0  0  0  0  0  0  0  0
    8.4442   -5.2195   25.4837 H   0  0  0  0  0  0  0  0  0  0  0  0
    9.6150   -4.0187   26.0557 H   0  0  0  0  0  0  0  0  0  0  0  0
    7.9326   -3.9561   26.6161 H   0  0  0  0  0  0  0  0  0  0  0  0
    8.3502   -2.2251   24.8671 H   0  0  0  0  0  0  0  0  0  0  0  0
    7.1545   -3.4086   24.3335 H   0  0  0  0  0  0  0  0  0  0  0  0
   10.1312   -3.4331   23.5972 H   0  0  0  0  0  0  0  0  0  0  0  0
    8.9563   -4.6471   23.0903 H   0  0  0  0  0  0  0  0  0  0  0  0
    7.6329   -2.8893   21.9165 H   0  0  0  0  0  0  0  0  0  0  0  0
    9.2689   -3.0097   21.2805 H   0  0  0  0  0  0  0  0  0  0  0  0
    8.2561   -0.9664   23.3393 H   0  0  0  0  0  0  0  0  0  0  0  0
    6.8838   -1.6541   21.0484 H   0  0  0  0  0  0  0  0  0  0  0  0
  1  2  2  0  0  0  0
  1  3  1  0  0  0  0
  2  6  1  0  0  0  0
  3  7  2  0  0  0  0
  4  6  2  0  0  0  0
  4  7  1  0  0  0  0
  5 18  2  0  0  0  0
  5 20  1  0  0  0  0
  6 17  1  0  0  0  0
  7 23  1  0  0  0  0
  8 12  1  0  0  0  0
  8 19  2  0  0  0  0
  8 20  1  0  0  0  0
  9 17  1  0  0  0  0
  9 21  1  0  0  0  0
  9 22  2  0  0  0  0
 10 11  1  0  0  0  0
 10 12  1  0  0  0  0
 11 12  1  0  0  0  0
 13 14  1  0  0  0  0
 14 15  1  0  0  0  0
 15 16  1  0  0  0  0
 16 17  1  1  0  0  0
 18 19  1  0  0  0  0
 20 21  1  0  0  0  0
  1 24  1  0  0  0  0
  2 25  1  0  0  0  0
  3 26  1  0  0  0  0
  4 27  1  0  0  0  0
  5 28  1  0  0  0  0
 10 29  1  0  0  0  0
 10 30  1  0  0  0  0
 11 31  1  0  0  0  0
 11 32  1  0  0  0  0
 12 33  1  0  0  0  0
 13 34  1  0  0  0  0
 13 35  1  0  0  0  0
 13 36  1  0  0  0  0
 14 37  1  0  0  0  0
 14 38  1  0  0  0  0
 15 39  1  0  0  0  0
 15 40  1  0  0  0  0
 16 41  1  0  0  0  0
 16 42  1  0  0  0  0
 17 43  1  0  0  0  0
 21 44  1  0  0  0  0
M  END
> <compound>
JAN-GHE-f4ca5a00-19

> <compound_smiles>
CCCCC(c1cccc(c1)Cl)C(=O)Nn2cnnc2C3CC3

> <enantiomer_smiles>
CCCC[C@@H](c1cccc(c1)Cl)C(=O)Nn2cnnc2C3CC3

> <scaffold>
chlorobenzene-linker

> <clash_score>
0

> <docking_score>
-9.139493942260742

> <overlap_score>
0.887930154800415

> <MMFF_internal_energy>
52.46147458354129

> <docked_smiles>
CCCC[C@@H](c1cccc(c1)Cl)C(=O)Nn2cnnc2C3CC3

$$$$
JAN-GHE-f4ca5a00-18_1
  -OEChem-07262101013D

 45 47  0     1  0  0  0  0  0999 V2000
   11.9780    0.4600   23.9150 C   0  0  0  0  0  0  0  0  0  0  0  0
   10.6560    0.0720   23.7350 C   0  0  0  0  0  0  0  0  0  0  0  0
   12.9840   -0.1200   23.1530 C   0  0  0  0  0  0  0  0  0  0  0  0
   11.3360   -1.5050   22.0650 C   0  0  0  0  0  0  0  0  0  0  0  0
    5.2414    0.9495   18.3594 C   0  0  0  0  0  0  0  0  0  0  0  0
    6.8385   -0.4553   18.2806 C   0  0  0  0  0  0  0  0  0  0  0  0
   10.3220   -0.8940   22.7910 C   0  0  0  0  0  0  0  0  0  0  0  0
   12.6400   -1.1000   22.2390 C   0  0  0  0  0  0  0  0  0  0  0  0
    5.5705    0.6934   19.6696 C   0  0  0  0  0  0  0  0  0  0  0  0
    8.3880   -0.3240   21.3070 C   0  0  0  0  0  0  0  0  0  0  0  0
    4.8742    2.8014   21.0637 C   0  0  0  0  0  0  0  0  0  0  0  0
    5.8035    2.0066   21.9268 C   0  0  0  0  0  0  0  0  0  0  0  0
    4.9269    1.2921   20.9150 C   0  0  0  0  0  0  0  0  0  0  0  0
    8.5732   -4.1668   25.7540 C   0  0  0  0  0  0  0  0  0  0  0  0
    8.2147   -3.2735   24.5772 C   0  0  0  0  0  0  0  0  0  0  0  0
    9.0736   -3.5893   23.3522 C   0  0  0  0  0  0  0  0  0  0  0  0
    8.6878   -2.7047   22.1600 C   0  0  0  0  0  0  0  0  0  0  0  0
    8.8810   -1.1900   22.4510 C   0  0  1  0  0  0  0  0  0  0  0  0
    6.0341    0.2311   17.4997 N   0  0  0  0  0  0  0  0  0  0  0  0
    6.5948   -0.2086   19.6031 N   0  0  0  0  0  0  0  0  0  0  0  0
    7.2820   -0.7860   20.6970 N   0  0  0  0  0  0  0  0  0  0  0  0
    8.9170    0.7530   21.0260 O   0  0  0  0  0  0  0  0  0  0  0  0
   13.8840   -1.8490   21.2740 Cl  0  0  0  0  0  0  0  0  0  0  0  0
   12.2249    1.2198   24.6546 H   0  0  0  0  0  0  0  0  0  0  0  0
    9.8763    0.5350   24.3454 H   0  0  0  0  0  0  0  0  0  0  0  0
   14.0077    0.1988   23.2842 H   0  0  0  0  0  0  0  0  0  0  0  0
   11.0892   -2.3009   21.3624 H   0  0  0  0  0  0  0  0  0  0  0  0
    4.4753    1.6152   17.9884 H   0  0  0  0  0  0  0  0  0  0  0  0
    7.6083   -1.1386   17.9476 H   0  0  0  0  0  0  0  0  0  0  0  0
    3.9981    3.2354   21.5300 H   0  0  0  0  0  0  0  0  0  0  0  0
    5.3111    3.4111   20.2820 H   0  0  0  0  0  0  0  0  0  0  0  0
    6.8655    2.0800   21.7255 H   0  0  0  0  0  0  0  0  0  0  0  0
    5.5551    1.9034   22.9762 H   0  0  0  0  0  0  0  0  0  0  0  0
    4.0792    0.7380   21.3168 H   0  0  0  0  0  0  0  0  0  0  0  0
    8.4442   -5.2195   25.4837 H   0  0  0  0  0  0  0  0  0  0  0  0
    9.6150   -4.0187   26.0557 H   0  0  0  0  0  0  0  0  0  0  0  0
    7.9326   -3.9561   26.6161 H   0  0  0  0  0  0  0  0  0  0  0  0
    8.3502   -2.2251   24.8671 H   0  0  0  0  0  0  0  0  0  0  0  0
    7.1545   -3.4086   24.3335 H   0  0  0  0  0  0  0  0  0  0  0  0
   10.1312   -3.4331   23.5972 H   0  0  0  0  0  0  0  0  0  0  0  0
    8.9563   -4.6471   23.0903 H   0  0  0  0  0  0  0  0  0  0  0  0
    7.6329   -2.8893   21.9165 H   0  0  0  0  0  0  0  0  0  0  0  0
    9.2689   -3.0097   21.2805 H   0  0  0  0  0  0  0  0  0  0  0  0
    8.2561   -0.9664   23.3393 H   0  0  0  0  0  0  0  0  0  0  0  0
    6.8838   -1.6541   21.0484 H   0  0  0  0  0  0  0  0  0  0  0  0
  1  2  2  0  0  0  0
  1  3  1  0  0  0  0
  2  7  1  0  0  0  0
  3  8  2  0  0  0  0
  4  7  2  0  0  0  0
  4  8  1  0  0  0  0
  5  9  2  0  0  0  0
  5 19  1  0  0  0  0
  6 19  2  0  0  0  0
  6 20  1  0  0  0  0
  7 18  1  0  0  0  0
  8 23  1  0  0  0  0
  9 13  1  0  0  0  0
  9 20  1  0  0  0  0
 10 18  1  0  0  0  0
 10 21  1  0  0  0  0
 10 22  2  0  0  0  0
 11 12  1  0  0  0  0
 11 13  1  0  0  0  0
 12 13  1  0  0  0  0
 14 15  1  0  0  0  0
 15 16  1  0  0  0  0
 16 17  1  0  0  0  0
 17 18  1  1  0  0  0
 20 21  1  0  0  0  0
  1 24  1  0  0  0  0
  2 25  1  0  0  0  0
  3 26  1  0  0  0  0
  4 27  1  0  0  0  0
  5 28  1  0  0  0  0
  6 29  1  0  0  0  0
 11 30  1  0  0  0  0
 11 31  1  0  0  0  0
 12 32  1  0  0  0  0
 12 33  1  0  0  0  0
 13 34  1  0  0  0  0
 14 35  1  0  0  0  0
 14 36  1  0  0  0  0
 14 37  1  0  0  0  0
 15 38  1  0  0  0  0
 15 39  1  0  0  0  0
 16 40  1  0  0  0  0
 16 41  1  0  0  0  0
 17 42  1  0  0  0  0
 17 43  1  0  0  0  0
 18 44  1  0  0  0  0
 21 45  1  0  0  0  0
M  END
> <compound>
JAN-GHE-f4ca5a00-18

> <compound_smiles>
CCCCC(c1cccc(c1)Cl)C(=O)Nn2cncc2C3CC3

> <enantiomer_smiles>
CCCC[C@@H](c1cccc(c1)Cl)C(=O)Nn2cncc2C3CC3

> <scaffold>
chlorobenzene-linker

> <clash_score>
0

> <docking_score>
-9.590954780578613

> <overlap_score>
0.8725977540016174

> <MMFF_internal_energy>
44.33113707410563

> <docked_smiles>
CCCC[C@@H](c1cccc(c1)Cl)C(=O)Nn2cncc2C3CC3

$$$$
EDJ-MED-976da9a6-2_1
  -OEChem-07262101013D

 36 38  0     0  0  0  0  0  0999 V2000
   11.9780    0.4600   23.9150 C   0  0  0  0  0  0  0  0  0  0  0  0
   10.6560    0.0720   23.7350 C   0  0  0  0  0  0  0  0  0  0  0  0
   12.9840   -0.1200   23.1530 C   0  0  0  0  0  0  0  0  0  0  0  0
   11.3360   -1.5050   22.0650 C   0  0  0  0  0  0  0  0  0  0  0  0
    6.9383   -0.5755   18.3281 C   0  0  0  0  0  0  0  0  0  0  0  0
    5.3182    0.7791   17.4261 C   0  0  0  0  0  0  0  0  0  0  0  0
    5.5490    0.6881   19.8034 C   0  0  0  0  0  0  0  0  0  0  0  0
   10.3220   -0.8940   22.7910 C   0  0  0  0  0  0  0  0  0  0  0  0
    6.5902   -0.2239   19.6230 C   0  0  0  0  0  0  0  0  0  0  0  0
    4.8858    1.1855   18.6798 C   0  0  0  0  0  0  0  0  0  0  0  0
   12.6400   -1.1000   22.2390 C   0  0  0  0  0  0  0  0  0  0  0  0
    8.3880   -0.3240   21.3070 C   0  0  0  0  0  0  0  0  0  0  0  0
    5.1350    1.1011   21.1862 C   0  0  0  0  0  0  0  0  0  0  0  0
    4.2848    2.3638   21.1275 C   0  0  0  0  0  0  0  0  0  0  0  0
    3.2493    2.2203   20.0220 C   0  0  0  0  0  0  0  0  0  0  0  0
    8.8810   -1.1900   22.4510 C   0  0  0  0  0  0  0  0  0  0  0  0
    6.3304   -0.0928   17.2223 N   0  0  0  0  0  0  0  0  0  0  0  0
    7.2820   -0.7860   20.6970 N   0  0  0  0  0  0  0  0  0  0  0  0
    8.9170    0.7530   21.0260 O   0  0  0  0  0  0  0  0  0  0  0  0
    3.8531    2.0789   18.7310 O   0  0  0  0  0  0  0  0  0  0  0  0
   13.8840   -1.8490   21.2740 Cl  0  0  0  0  0  0  0  0  0  0  0  0
   12.2249    1.2198   24.6546 H   0  0  0  0  0  0  0  0  0  0  0  0
    9.8763    0.5350   24.3454 H   0  0  0  0  0  0  0  0  0  0  0  0
   14.0077    0.1988   23.2842 H   0  0  0  0  0  0  0  0  0  0  0  0
   11.0892   -2.3009   21.3624 H   0  0  0  0  0  0  0  0  0  0  0  0
    7.7414   -1.2795   18.1298 H   0  0  0  0  0  0  0  0  0  0  0  0
    4.8535    1.1573   16.5208 H   0  0  0  0  0  0  0  0  0  0  0  0
    4.5561    0.3119   21.6791 H   0  0  0  0  0  0  0  0  0  0  0  0
    6.0360    1.2884   21.7829 H   0  0  0  0  0  0  0  0  0  0  0  0
    3.7718    2.5004   22.0881 H   0  0  0  0  0  0  0  0  0  0  0  0
    4.9184    3.2406   20.9580 H   0  0  0  0  0  0  0  0  0  0  0  0
    2.6479    1.3220   20.1970 H   0  0  0  0  0  0  0  0  0  0  0  0
    2.5610    3.0745   20.0019 H   0  0  0  0  0  0  0  0  0  0  0  0
    8.7774   -2.2383   22.1732 H   0  0  0  0  0  0  0  0  0  0  0  0
    8.2557   -1.0153   23.3257 H   0  0  0  0  0  0  0  0  0  0  0  0
    6.8982   -1.6626   21.0681 H   0  0  0  0  0  0  0  0  0  0  0  0
  1  2  1  0  0  0  0
  1  3  2  0  0  0  0
  2  8  2  0  0  0  0
  3 11  1  0  0  0  0
  4  8  1  0  0  0  0
  4 11  2  0  0  0  0
  5  9  1  0  0  0  0
  5 17  2  0  0  0  0
  6 10  2  0  0  0  0
  6 17  1  0  0  0  0
  7  9  2  0  0  0  0
  7 10  1  0  0  0  0
  7 13  1  0  0  0  0
  8 16  1  0  0  0  0
  9 18  1  0  0  0  0
 10 20  1  0  0  0  0
 11 21  1  0  0  0  0
 12 16  1  0  0  0  0
 12 18  1  0  0  0  0
 12 19  2  0  0  0  0
 13 14  1  0  0  0  0
 14 15  1  0  0  0  0
 15 20  1  0  0  0  0
  1 22  1  0  0  0  0
  2 23  1  0  0  0  0
  3 24  1  0  0  0  0
  4 25  1  0  0  0  0
  5 26  1  0  0  0  0
  6 27  1  0  0  0  0
 13 28  1  0  0  0  0
 13 29  1  0  0  0  0
 14 30  1  0  0  0  0
 14 31  1  0  0  0  0
 15 32  1  0  0  0  0
 15 33  1  0  0  0  0
 16 34  1  0  0  0  0
 16 35  1  0  0  0  0
 18 36  1  0  0  0  0
M  END
> <compound>
EDJ-MED-976da9a6-2

> <compound_smiles>
c1cc(cc(c1)Cl)CC(=O)Nc2cncc3c2CCCO3

> <enantiomer_smiles>
c1cc(cc(c1)Cl)CC(=O)Nc2cncc3c2CCCO3

> <scaffold>
chlorobenzene-linker

> <clash_score>
0

> <docking_score>
-11.379623413085938

> <overlap_score>
0.9756539463996887

> <MMFF_internal_energy>
87.54508881331434

> <docked_smiles>
c1cc(cc(c1)Cl)CC(=O)Nc2cncc3c2CCCO3

$$$$
PET-UNK-8df914d1-1_1
  -OEChem-07262101013D

 38 40  0     0  0  0  0  0  0999 V2000
   11.9780    0.4600   23.9150 C   0  0  0  0  0  0  0  0  0  0  0  0
    3.8518    2.1350   18.7974 C   0  0  0  0  0  0  0  0  0  0  0  0
   10.6560    0.0720   23.7350 C   0  0  0  0  0  0  0  0  0  0  0  0
    3.4434    2.5374   20.0688 C   0  0  0  0  0  0  0  0  0  0  0  0
   12.9840   -0.1200   23.1530 C   0  0  0  0  0  0  0  0  0  0  0  0
    5.1217    1.1107   21.0634 C   0  0  0  0  0  0  0  0  0  0  0  0
   11.3360   -1.5050   22.0650 C   0  0  0  0  0  0  0  0  0  0  0  0
    5.3512    0.7771   17.4011 C   0  0  0  0  0  0  0  0  0  0  0  0
    6.9505   -0.5831   18.3322 C   0  0  0  0  0  0  0  0  0  0  0  0
    4.9021    1.2140   18.6489 C   0  0  0  0  0  0  0  0  0  0  0  0
    5.5460    0.6944   19.7909 C   0  0  0  0  0  0  0  0  0  0  0  0
   10.3220   -0.8940   22.7910 C   0  0  0  0  0  0  0  0  0  0  0  0
    6.5902   -0.2221   19.6216 C   0  0  0  0  0  0  0  0  0  0  0  0
    4.0769    2.0264   21.1992 C   0  0  0  0  0  0  0  0  0  0  0  0
   12.6400   -1.1000   22.2390 C   0  0  0  0  0  0  0  0  0  0  0  0
    8.3880   -0.3240   21.3070 C   0  0  0  0  0  0  0  0  0  0  0  0
    4.3658    1.8588   23.5538 C   0  0  0  0  0  0  0  0  0  0  0  0
    8.8810   -1.1900   22.4510 C   0  0  0  0  0  0  0  0  0  0  0  0
    6.3576   -0.1069   17.2167 N   0  0  0  0  0  0  0  0  0  0  0  0
    7.2820   -0.7860   20.6970 N   0  0  0  0  0  0  0  0  0  0  0  0
    8.9170    0.7530   21.0260 O   0  0  0  0  0  0  0  0  0  0  0  0
    3.6750    2.4202   22.4391 O   0  0  0  0  0  0  0  0  0  0  0  0
   13.8840   -1.8490   21.2740 Cl  0  0  0  0  0  0  0  0  0  0  0  0
   12.2249    1.2198   24.6546 H   0  0  0  0  0  0  0  0  0  0  0  0
    3.3460    2.5441   17.9259 H   0  0  0  0  0  0  0  0  0  0  0  0
    9.8763    0.5350   24.3454 H   0  0  0  0  0  0  0  0  0  0  0  0
    2.6279    3.2480   20.1713 H   0  0  0  0  0  0  0  0  0  0  0  0
   14.0077    0.1988   23.2842 H   0  0  0  0  0  0  0  0  0  0  0  0
    5.5961    0.7309   21.9660 H   0  0  0  0  0  0  0  0  0  0  0  0
   11.0892   -2.3009   21.3624 H   0  0  0  0  0  0  0  0  0  0  0  0
    4.8980    1.1378   16.4817 H   0  0  0  0  0  0  0  0  0  0  0  0
    7.7540   -1.2904   18.1477 H   0  0  0  0  0  0  0  0  0  0  0  0
    3.9466    2.2565   24.4812 H   0  0  0  0  0  0  0  0  0  0  0  0
    5.4285    2.1051   23.4867 H   0  0  0  0  0  0  0  0  0  0  0  0
    4.2437    0.7731   23.5376 H   0  0  0  0  0  0  0  0  0  0  0  0
    8.7774   -2.2383   22.1732 H   0  0  0  0  0  0  0  0  0  0  0  0
    8.2557   -1.0153   23.3257 H   0  0  0  0  0  0  0  0  0  0  0  0
    6.8981   -1.6619   21.0675 H   0  0  0  0  0  0  0  0  0  0  0  0
  1  3  2  0  0  0  0
  1  5  1  0  0  0  0
  2  4  2  0  0  0  0
  2 10  1  0  0  0  0
  3 12  1  0  0  0  0
  4 14  1  0  0  0  0
  5 15  2  0  0  0  0
  6 11  1  0  0  0  0
  6 14  2  0  0  0  0
  7 12  2  0  0  0  0
  7 15  1  0  0  0  0
  8 10  1  0  0  0  0
  8 19  2  0  0  0  0
  9 13  2  0  0  0  0
  9 19  1  0  0  0  0
 10 11  2  0  0  0  0
 11 13  1  0  0  0  0
 12 18  1  0  0  0  0
 13 20  1  0  0  0  0
 14 22  1  0  0  0  0
 15 23  1  0  0  0  0
 16 18  1  0  0  0  0
 16 20  1  0  0  0  0
 16 21  2  0  0  0  0
 17 22  1  0  0  0  0
  1 24  1  0  0  0  0
  2 25  1  0  0  0  0
  3 26  1  0  0  0  0
  4 27  1  0  0  0  0
  5 28  1  0  0  0  0
  6 29  1  0  0  0  0
  7 30  1  0  0  0  0
  8 31  1  0  0  0  0
  9 32  1  0  0  0  0
 17 33  1  0  0  0  0
 17 34  1  0  0  0  0
 17 35  1  0  0  0  0
 18 36  1  0  0  0  0
 18 37  1  0  0  0  0
 20 38  1  0  0  0  0
M  END
> <compound>
PET-UNK-8df914d1-1

> <compound_smiles>
COc1ccc2cncc(c2c1)NC(=O)Cc3cccc(c3)Cl

> <enantiomer_smiles>
COc1ccc2cncc(c2c1)NC(=O)Cc3cccc(c3)Cl

> <scaffold>
chlorobenzene-linker

> <clash_score>
0

> <docking_score>
-11.212129592895508

> <overlap_score>
1.0

> <MMFF_internal_energy>
105.54616266550931

> <docked_smiles>
COc1ccc2cncc(c2c1)NC(=O)Cc3cccc(c3)Cl

$$$$
MAT-POS-0bc33984-1_1
  -OEChem-07262101013D

 36 37  0     1  0  0  0  0  0999 V2000
   11.9780    0.4600   23.9150 C   0  0  0  0  0  0  0  0  0  0  0  0
   10.6560    0.0720   23.7350 C   0  0  0  0  0  0  0  0  0  0  0  0
   12.9840   -0.1200   23.1530 C   0  0  0  0  0  0  0  0  0  0  0  0
   11.3360   -1.5050   22.0650 C   0  0  0  0  0  0  0  0  0  0  0  0
   10.3220   -0.8940   22.7910 C   0  0  0  0  0  0  0  0  0  0  0  0
   12.6400   -1.1000   22.2390 C   0  0  0  0  0  0  0  0  0  0  0  0
    6.0807   -1.0623   18.6303 C   0  0  0  0  0  0  0  0  0  0  0  0
    8.3880   -0.3240   21.3070 C   0  0  0  0  0  0  0  0  0  0  0  0
    4.8412    1.5615   19.0061 C   0  0  0  0  0  0  0  0  0  0  0  0
    4.1968    0.5290   18.0978 C   0  0  0  0  0  0  0  0  0  0  0  0
    6.6086   -0.0587   19.6508 C   0  0  2  0  0  0  0  0  0  0  0  0
    5.5442    0.9019   20.1956 C   0  0  2  0  0  0  0  0  0  0  0  0
    4.5458    0.2331   21.1480 C   0  0  0  0  0  0  0  0  0  0  0  0
    8.8810   -1.1900   22.4510 C   0  0  0  0  0  0  0  0  0  0  0  0
    5.0233   -0.6385   17.8529 N   0  0  0  0  0  0  0  0  0  0  0  0
    7.2820   -0.7860   20.6970 N   0  0  0  0  0  0  0  0  0  0  0  0
    6.6341   -2.1464   18.4357 O   0  0  0  0  0  0  0  0  0  0  0  0
    8.9170    0.7530   21.0260 O   0  0  0  0  0  0  0  0  0  0  0  0
   13.8840   -1.8490   21.2740 Cl  0  0  0  0  0  0  0  0  0  0  0  0
   12.2249    1.2198   24.6546 H   0  0  0  0  0  0  0  0  0  0  0  0
    9.8763    0.5350   24.3454 H   0  0  0  0  0  0  0  0  0  0  0  0
   14.0077    0.1988   23.2842 H   0  0  0  0  0  0  0  0  0  0  0  0
   11.0892   -2.3009   21.3624 H   0  0  0  0  0  0  0  0  0  0  0  0
    5.5743    2.1403   18.4294 H   0  0  0  0  0  0  0  0  0  0  0  0
    4.0844    2.2748   19.3528 H   0  0  0  0  0  0  0  0  0  0  0  0
    3.2617    0.1629   18.5354 H   0  0  0  0  0  0  0  0  0  0  0  0
    3.9495    0.9700   17.1267 H   0  0  0  0  0  0  0  0  0  0  0  0
    7.3851    0.5217   19.1366 H   0  0  0  0  0  0  0  0  0  0  0  0
    6.0506    1.6948   20.7624 H   0  0  0  0  0  0  0  0  0  0  0  0
    4.0208   -0.5613   20.6243 H   0  0  0  0  0  0  0  0  0  0  0  0
    3.8285    0.9705   21.4983 H   0  0  0  0  0  0  0  0  0  0  0  0
    5.0788   -0.1849   21.9978 H   0  0  0  0  0  0  0  0  0  0  0  0
    8.7773   -2.2383   22.1737 H   0  0  0  0  0  0  0  0  0  0  0  0
    8.2516   -1.0144   23.3225 H   0  0  0  0  0  0  0  0  0  0  0  0
    4.8025   -1.1952   17.0329 H   0  0  0  0  0  0  0  0  0  0  0  0
    6.9053   -1.6856   20.9859 H   0  0  0  0  0  0  0  0  0  0  0  0
  1  2  2  0  0  0  0
  1  3  1  0  0  0  0
  2  5  1  0  0  0  0
  3  6  2  0  0  0  0
  4  5  2  0  0  0  0
  4  6  1  0  0  0  0
  5 14  1  0  0  0  0
  6 19  1  0  0  0  0
  7 11  1  0  0  0  0
  7 15  1  0  0  0  0
  7 17  2  0  0  0  0
  8 14  1  0  0  0  0
  8 16  1  0  0  0  0
  8 18  2  0  0  0  0
  9 10  1  0  0  0  0
  9 12  1  0  0  0  0
 10 15  1  0  0  0  0
 11 12  1  0  0  0  0
 11 16  1  1  0  0  0
 12 13  1  1  0  0  0
  1 20  1  0  0  0  0
  2 21  1  0  0  0  0
  3 22  1  0  0  0  0
  4 23  1  0  0  0  0
  9 24  1  0  0  0  0
  9 25  1  0  0  0  0
 10 26  1  0  0  0  0
 10 27  1  0  0  0  0
 11 28  1  0  0  0  0
 12 29  1  0  0  0  0
 13 30  1  0  0  0  0
 13 31  1  0  0  0  0
 13 32  1  0  0  0  0
 14 33  1  0  0  0  0
 14 34  1  0  0  0  0
 15 35  1  0  0  0  0
 16 36  1  0  0  0  0
M  END
> <compound>
MAT-POS-0bc33984-1

> <compound_smiles>
CC1CCNC(=O)C1NC(=O)Cc2cccc(c2)Cl

> <enantiomer_smiles>
C[C@@H]1CCNC(=O)[C@@H]1NC(=O)Cc2cccc(c2)Cl

> <scaffold>
chlorobenzene-linker

> <canonical_CID>
MAT-POS-0bc33984-1

> <r_inhibition_at_20_uM>

> <r_inhibition_at_50_uM>

> <r_avg_IC50>
99.0

> <f_inhibition_at_20_uM>

> <f_inhibition_at_50_uM>

> <f_avg_IC50>
43.7142909815475

> <f_avg_pIC50>

> <relative_solubility_at_20_uM>

> <relative_solubility_at_100_uM>

> <trypsin_IC50>

> <NMR_std_ratio>

> <acrylamide>
False

> <chloroacetamide>
False

> <series>
Ugi

> <frag_id>

> <clash_score>
0

> <docking_score>
-6.290407180786133

> <overlap_score>
0.8075752258300781

> <MMFF_internal_energy>
36.73140281121284

> <docked_smiles>
C[C@@H]1CCNC(=O)[C@@H]1NC(=O)Cc2cccc(c2)Cl

$$$$
MAT-POS-0bc33984-1_2
  -OEChem-07262101013D

 36 37  0     1  0  0  0  0  0999 V2000
   11.9780    0.4600   23.9150 C   0  0  0  0  0  0  0  0  0  0  0  0
   10.6560    0.0720   23.7350 C   0  0  0  0  0  0  0  0  0  0  0  0
   12.9840   -0.1200   23.1530 C   0  0  0  0  0  0  0  0  0  0  0  0
   11.3360   -1.5050   22.0650 C   0  0  0  0  0  0  0  0  0  0  0  0
   10.3220   -0.8940   22.7910 C   0  0  0  0  0  0  0  0  0  0  0  0
   12.6400   -1.1000   22.2390 C   0  0  0  0  0  0  0  0  0  0  0  0
    5.5042   -0.9607   19.1329 C   0  0  0  0  0  0  0  0  0  0  0  0
    8.3880   -0.3240   21.3070 C   0  0  0  0  0  0  0  0  0  0  0  0
    4.9117    1.1655   21.1270 C   0  0  0  0  0  0  0  0  0  0  0  0
    4.2012   -0.1838   21.0972 C   0  0  0  0  0  0  0  0  0  0  0  0
    6.6093   -0.0590   19.6515 C   0  0  2  0  0  0  0  0  0  0  0  0
    6.0634    1.2989   20.1150 C   0  0  1  0  0  0  0  0  0  0  0  0
    5.6182    2.1367   18.9068 C   0  0  0  0  0  0  0  0  0  0  0  0
    8.8810   -1.1900   22.4510 C   0  0  0  0  0  0  0  0  0  0  0  0
    4.3183   -0.8798   19.8351 N   0  0  0  0  0  0  0  0  0  0  0  0
    7.2820   -0.7860   20.6970 N   0  0  0  0  0  0  0  0  0  0  0  0
    5.6843   -1.7385   18.1973 O   0  0  0  0  0  0  0  0  0  0  0  0
    8.9170    0.7530   21.0260 O   0  0  0  0  0  0  0  0  0  0  0  0
   13.8840   -1.8490   21.2740 Cl  0  0  0  0  0  0  0  0  0  0  0  0
   12.2249    1.2198   24.6546 H   0  0  0  0  0  0  0  0  0  0  0  0
    9.8763    0.5350   24.3454 H   0  0  0  0  0  0  0  0  0  0  0  0
   14.0077    0.1988   23.2842 H   0  0  0  0  0  0  0  0  0  0  0  0
   11.0892   -2.3009   21.3624 H   0  0  0  0  0  0  0  0  0  0  0  0
    4.1648    1.9773   20.9566 H   0  0  0  0  0  0  0  0  0  0  0  0
    5.2899    1.3479   22.1599 H   0  0  0  0  0  0  0  0  0  0  0  0
    4.6239   -0.8462   21.8618 H   0  0  0  0  0  0  0  0  0  0  0  0
    3.1353   -0.0618   21.3180 H   0  0  0  0  0  0  0  0  0  0  0  0
    7.3164    0.0773   18.8337 H   0  0  0  0  0  0  0  0  0  0  0  0
    6.8873    1.8693   20.6076 H   0  0  0  0  0  0  0  0  0  0  0  0
    4.8115    1.6269   18.3844 H   0  0  0  0  0  0  0  0  0  0  0  0
    6.4561    2.2731   18.2265 H   0  0  0  0  0  0  0  0  0  0  0  0
    5.2682    3.1099   19.2445 H   0  0  0  0  0  0  0  0  0  0  0  0
    8.7773   -2.2383   22.1737 H   0  0  0  0  0  0  0  0  0  0  0  0
    8.2516   -1.0144   23.3225 H   0  0  0  0  0  0  0  0  0  0  0  0
    3.5111   -1.3192   19.4555 H   0  0  0  0  0  0  0  0  0  0  0  0
    6.9053   -1.6855   20.9858 H   0  0  0  0  0  0  0  0  0  0  0  0
  1  2  2  0  0  0  0
  1  3  1  0  0  0  0
  2  5  1  0  0  0  0
  3  6  2  0  0  0  0
  4  5  2  0  0  0  0
  4  6  1  0  0  0  0
  5 14  1  0  0  0  0
  6 19  1  0  0  0  0
  7 11  1  0  0  0  0
  7 15  1  0  0  0  0
  7 17  2  0  0  0  0
  8 14  1  0  0  0  0
  8 16  1  0  0  0  0
  8 18  2  0  0  0  0
  9 10  1  0  0  0  0
  9 12  1  0  0  0  0
 10 15  1  0  0  0  0
 11 12  1  0  0  0  0
 11 16  1  1  0  0  0
 12 13  1  6  0  0  0
  1 20  1  0  0  0  0
  2 21  1  0  0  0  0
  3 22  1  0  0  0  0
  4 23  1  0  0  0  0
  9 24  1  0  0  0  0
  9 25  1  0  0  0  0
 10 26  1  0  0  0  0
 10 27  1  0  0  0  0
 11 28  1  0  0  0  0
 12 29  1  0  0  0  0
 13 30  1  0  0  0  0
 13 31  1  0  0  0  0
 13 32  1  0  0  0  0
 14 33  1  0  0  0  0
 14 34  1  0  0  0  0
 15 35  1  0  0  0  0
 16 36  1  0  0  0  0
M  END
> <compound>
MAT-POS-0bc33984-1

> <compound_smiles>
CC1CCNC(=O)C1NC(=O)Cc2cccc(c2)Cl

> <enantiomer_smiles>
C[C@H]1CCNC(=O)[C@@H]1NC(=O)Cc2cccc(c2)Cl

> <scaffold>
chlorobenzene-linker

> <canonical_CID>
MAT-POS-0bc33984-1

> <r_inhibition_at_20_uM>

> <r_inhibition_at_50_uM>

> <r_avg_IC50>
99.0

> <f_inhibition_at_20_uM>

> <f_inhibition_at_50_uM>

> <f_avg_IC50>
43.7142909815475

> <f_avg_pIC50>

> <relative_solubility_at_20_uM>

> <relative_solubility_at_100_uM>

> <trypsin_IC50>

> <NMR_std_ratio>

> <acrylamide>
False

> <chloroacetamide>
False

> <series>
Ugi

> <frag_id>

> <clash_score>
0

> <docking_score>
-4.401768684387207

> <overlap_score>
0.7720101475715637

> <MMFF_internal_energy>
43.88599544090258

> <docked_smiles>
C[C@H]1CCNC(=O)[C@@H]1NC(=O)Cc2cccc(c2)Cl

$$$$
PET-UNK-8df914d1-3_1
  -OEChem-07262101013D

 34 35  0     0  0  0  0  0  0999 V2000
   11.9780    0.4600   23.9150 C   0  0  0  0  0  0  0  0  0  0  0  0
   10.6560    0.0720   23.7350 C   0  0  0  0  0  0  0  0  0  0  0  0
   12.9840   -0.1200   23.1530 C   0  0  0  0  0  0  0  0  0  0  0  0
   11.3360   -1.5050   22.0650 C   0  0  0  0  0  0  0  0  0  0  0  0
    5.3290    0.8528   17.4314 C   0  0  0  0  0  0  0  0  0  0  0  0
    6.9322   -0.5401   18.3074 C   0  0  0  0  0  0  0  0  0  0  0  0
   10.3220   -0.8940   22.7910 C   0  0  0  0  0  0  0  0  0  0  0  0
    4.9122    1.2537   18.6905 C   0  0  0  0  0  0  0  0  0  0  0  0
    5.5603    0.7104   19.7942 C   0  0  0  0  0  0  0  0  0  0  0  0
    6.5908   -0.2043   19.6076 C   0  0  0  0  0  0  0  0  0  0  0  0
   12.6400   -1.1000   22.2390 C   0  0  0  0  0  0  0  0  0  0  0  0
    8.3880   -0.3240   21.3070 C   0  0  0  0  0  0  0  0  0  0  0  0
    3.8024    2.2373   18.8303 C   0  0  0  0  0  0  0  0  0  0  0  0
    5.1474    1.1113   21.1748 C   0  0  0  0  0  0  0  0  0  0  0  0
    8.8810   -1.1900   22.4510 C   0  0  0  0  0  0  0  0  0  0  0  0
    6.3258   -0.0333   17.2106 N   0  0  0  0  0  0  0  0  0  0  0  0
    7.2820   -0.7860   20.6970 N   0  0  0  0  0  0  0  0  0  0  0  0
    8.9170    0.7530   21.0260 O   0  0  0  0  0  0  0  0  0  0  0  0
   13.8840   -1.8490   21.2740 Cl  0  0  0  0  0  0  0  0  0  0  0  0
   12.2249    1.2198   24.6546 H   0  0  0  0  0  0  0  0  0  0  0  0
    9.8763    0.5350   24.3454 H   0  0  0  0  0  0  0  0  0  0  0  0
   14.0077    0.1988   23.2842 H   0  0  0  0  0  0  0  0  0  0  0  0
   11.0892   -2.3009   21.3624 H   0  0  0  0  0  0  0  0  0  0  0  0
    4.8610    1.2425   16.5325 H   0  0  0  0  0  0  0  0  0  0  0  0
    7.7281   -1.2485   18.0971 H   0  0  0  0  0  0  0  0  0  0  0  0
    2.8360    1.7202   18.8864 H   0  0  0  0  0  0  0  0  0  0  0  0
    3.9211    2.8489   19.7349 H   0  0  0  0  0  0  0  0  0  0  0  0
    3.7744    2.9326   17.9802 H   0  0  0  0  0  0  0  0  0  0  0  0
    4.3627    0.4419   21.5435 H   0  0  0  0  0  0  0  0  0  0  0  0
    5.9964    1.0725   21.8670 H   0  0  0  0  0  0  0  0  0  0  0  0
    4.7678    2.1397   21.1895 H   0  0  0  0  0  0  0  0  0  0  0  0
    8.7709   -2.2387   22.1706 H   0  0  0  0  0  0  0  0  0  0  0  0
    8.2491   -1.0157   23.3232 H   0  0  0  0  0  0  0  0  0  0  0  0
    6.8973   -1.6552   21.0612 H   0  0  0  0  0  0  0  0  0  0  0  0
  1  2  2  0  0  0  0
  1  3  1  0  0  0  0
  2  7  1  0  0  0  0
  3 11  2  0  0  0  0
  4  7  2  0  0  0  0
  4 11  1  0  0  0  0
  5  8  1  0  0  0  0
  5 16  2  0  0  0  0
  6 10  2  0  0  0  0
  6 16  1  0  0  0  0
  7 15  1  0  0  0  0
  8  9  2  0  0  0  0
  8 13  1  0  0  0  0
  9 10  1  0  0  0  0
  9 14  1  0  0  0  0
 10 17  1  0  0  0  0
 11 19  1  0  0  0  0
 12 15  1  0  0  0  0
 12 17  1  0  0  0  0
 12 18  2  0  0  0  0
  1 20  1  0  0  0  0
  2 21  1  0  0  0  0
  3 22  1  0  0  0  0
  4 23  1  0  0  0  0
  5 24  1  0  0  0  0
  6 25  1  0  0  0  0
 13 26  1  0  0  0  0
 13 27  1  0  0  0  0
 13 28  1  0  0  0  0
 14 29  1  0  0  0  0
 14 30  1  0  0  0  0
 14 31  1  0  0  0  0
 15 32  1  0  0  0  0
 15 33  1  0  0  0  0
 17 34  1  0  0  0  0
M  END
> <compound>
PET-UNK-8df914d1-3

> <compound_smiles>
Cc1cncc(c1C)NC(=O)Cc2cccc(c2)Cl

> <enantiomer_smiles>
Cc1cncc(c1C)NC(=O)Cc2cccc(c2)Cl

> <scaffold>
chlorobenzene-linker

> <clash_score>
0

> <docking_score>
-10.709927558898926

> <overlap_score>
0.8955589532852173

> <MMFF_internal_energy>
85.01642595295358

> <docked_smiles>
Cc1cncc(c1C)NC(=O)Cc2cccc(c2)Cl

$$$$
MAT-POS-0bc33984-1_4
  -OEChem-07262101013D

 36 37  0     1  0  0  0  0  0999 V2000
   11.9780    0.4600   23.9150 C   0  0  0  0  0  0  0  0  0  0  0  0
   10.6560    0.0720   23.7350 C   0  0  0  0  0  0  0  0  0  0  0  0
   12.9840   -0.1200   23.1530 C   0  0  0  0  0  0  0  0  0  0  0  0
   11.3360   -1.5050   22.0650 C   0  0  0  0  0  0  0  0  0  0  0  0
   10.3220   -0.8940   22.7910 C   0  0  0  0  0  0  0  0  0  0  0  0
   12.6400   -1.1000   22.2390 C   0  0  0  0  0  0  0  0  0  0  0  0
    7.7183    0.3627   18.6972 C   0  0  0  0  0  0  0  0  0  0  0  0
    8.3880   -0.3240   21.3070 C   0  0  0  0  0  0  0  0  0  0  0  0
    6.6217    2.2481   20.6468 C   0  0  0  0  0  0  0  0  0  0  0  0
    7.5041    2.7362   19.5121 C   0  0  0  0  0  0  0  0  0  0  0  0
    6.6076   -0.0574   19.6491 C   0  0  1  0  0  0  0  0  0  0  0  0
    5.7388    1.1049   20.1475 C   0  0  1  0  0  0  0  0  0  0  0  0
    4.7278    0.6851   21.2146 C   0  0  0  0  0  0  0  0  0  0  0  0
    8.8810   -1.1900   22.4510 C   0  0  0  0  0  0  0  0  0  0  0  0
    8.1563    1.6657   18.7832 N   0  0  0  0  0  0  0  0  0  0  0  0
    7.2820   -0.7860   20.6970 N   0  0  0  0  0  0  0  0  0  0  0  0
    8.2771   -0.4658   17.9742 O   0  0  0  0  0  0  0  0  0  0  0  0
    8.9170    0.7530   21.0260 O   0  0  0  0  0  0  0  0  0  0  0  0
   13.8840   -1.8490   21.2740 Cl  0  0  0  0  0  0  0  0  0  0  0  0
   12.2249    1.2198   24.6546 H   0  0  0  0  0  0  0  0  0  0  0  0
    9.8763    0.5350   24.3454 H   0  0  0  0  0  0  0  0  0  0  0  0
   14.0077    0.1988   23.2842 H   0  0  0  0  0  0  0  0  0  0  0  0
   11.0892   -2.3009   21.3624 H   0  0  0  0  0  0  0  0  0  0  0  0
    7.2369    1.9253   21.4837 H   0  0  0  0  0  0  0  0  0  0  0  0
    5.9938    3.0683   20.9937 H   0  0  0  0  0  0  0  0  0  0  0  0
    6.9218    3.3202   18.7942 H   0  0  0  0  0  0  0  0  0  0  0  0
    8.2985    3.3842   19.8942 H   0  0  0  0  0  0  0  0  0  0  0  0
    6.0046   -0.7791   19.1113 H   0  0  0  0  0  0  0  0  0  0  0  0
    5.1500    1.4890   19.2943 H   0  0  0  0  0  0  0  0  0  0  0  0
    5.2553    0.2971   22.0820 H   0  0  0  0  0  0  0  0  0  0  0  0
    4.0756   -0.0862   20.8136 H   0  0  0  0  0  0  0  0  0  0  0  0
    4.1321    1.5452   21.5089 H   0  0  0  0  0  0  0  0  0  0  0  0
    8.7773   -2.2383   22.1737 H   0  0  0  0  0  0  0  0  0  0  0  0
    8.2516   -1.0144   23.3225 H   0  0  0  0  0  0  0  0  0  0  0  0
    9.0134    1.8981   18.2919 H   0  0  0  0  0  0  0  0  0  0  0  0
    6.9053   -1.6856   20.9859 H   0  0  0  0  0  0  0  0  0  0  0  0
  1  2  2  0  0  0  0
  1  3  1  0  0  0  0
  2  5  1  0  0  0  0
  3  6  2  0  0  0  0
  4  5  2  0  0  0  0
  4  6  1  0  0  0  0
  5 14  1  0  0  0  0
  6 19  1  0  0  0  0
  7 11  1  0  0  0  0
  7 15  1  0  0  0  0
  7 17  2  0  0  0  0
  8 14  1  0  0  0  0
  8 16  1  0  0  0  0
  8 18  2  0  0  0  0
  9 10  1  0  0  0  0
  9 12  1  0  0  0  0
 10 15  1  0  0  0  0
 11 12  1  0  0  0  0
 11 16  1  6  0  0  0
 12 13  1  6  0  0  0
  1 20  1  0  0  0  0
  2 21  1  0  0  0  0
  3 22  1  0  0  0  0
  4 23  1  0  0  0  0
  9 24  1  0  0  0  0
  9 25  1  0  0  0  0
 10 26  1  0  0  0  0
 10 27  1  0  0  0  0
 11 28  1  0  0  0  0
 12 29  1  0  0  0  0
 13 30  1  0  0  0  0
 13 31  1  0  0  0  0
 13 32  1  0  0  0  0
 14 33  1  0  0  0  0
 14 34  1  0  0  0  0
 15 35  1  0  0  0  0
 16 36  1  0  0  0  0
M  END
> <compound>
MAT-POS-0bc33984-1

> <compound_smiles>
CC1CCNC(=O)C1NC(=O)Cc2cccc(c2)Cl

> <enantiomer_smiles>
C[C@H]1CCNC(=O)[C@H]1NC(=O)Cc2cccc(c2)Cl

> <scaffold>
chlorobenzene-linker

> <canonical_CID>
MAT-POS-0bc33984-1

> <r_inhibition_at_20_uM>

> <r_inhibition_at_50_uM>

> <r_avg_IC50>
99.0

> <f_inhibition_at_20_uM>

> <f_inhibition_at_50_uM>

> <f_avg_IC50>
43.7142909815475

> <f_avg_pIC50>

> <relative_solubility_at_20_uM>

> <relative_solubility_at_100_uM>

> <trypsin_IC50>

> <NMR_std_ratio>

> <acrylamide>
False

> <chloroacetamide>
False

> <series>
Ugi

> <frag_id>

> <clash_score>
1.433755709271713

> <docking_score>
-5.009109020233154

> <overlap_score>
0.7373559474945068

> <MMFF_internal_energy>
53.24168554193386

> <docked_smiles>
C[C@H]1CCNC(=O)[C@H]1NC(=O)Cc2cccc(c2)Cl

$$$$
MAT-POS-0bc33984-1_3
  -OEChem-07262101013D

 36 37  0     1  0  0  0  0  0999 V2000
   11.9780    0.4600   23.9150 C   0  0  0  0  0  0  0  0  0  0  0  0
   10.6560    0.0720   23.7350 C   0  0  0  0  0  0  0  0  0  0  0  0
   12.9840   -0.1200   23.1530 C   0  0  0  0  0  0  0  0  0  0  0  0
   11.3360   -1.5050   22.0650 C   0  0  0  0  0  0  0  0  0  0  0  0
   10.3220   -0.8940   22.7910 C   0  0  0  0  0  0  0  0  0  0  0  0
   12.6400   -1.1000   22.2390 C   0  0  0  0  0  0  0  0  0  0  0  0
    7.7265    0.3665   18.7100 C   0  0  0  0  0  0  0  0  0  0  0  0
    8.3880   -0.3240   21.3070 C   0  0  0  0  0  0  0  0  0  0  0  0
    6.6024    2.2620   20.6311 C   0  0  0  0  0  0  0  0  0  0  0  0
    7.4748    2.7488   19.4890 C   0  0  0  0  0  0  0  0  0  0  0  0
    6.6078   -0.0574   19.6492 C   0  0  1  0  0  0  0  0  0  0  0  0
    5.7376    1.0750   20.2032 C   0  0  2  0  0  0  0  0  0  0  0  0
    4.6725    1.4896   19.1807 C   0  0  0  0  0  0  0  0  0  0  0  0
    8.8810   -1.1900   22.4510 C   0  0  0  0  0  0  0  0  0  0  0  0
    8.1425    1.6770   18.7774 N   0  0  0  0  0  0  0  0  0  0  0  0
    7.2820   -0.7860   20.6970 N   0  0  0  0  0  0  0  0  0  0  0  0
    8.3061   -0.4636   18.0050 O   0  0  0  0  0  0  0  0  0  0  0  0
    8.9170    0.7530   21.0260 O   0  0  0  0  0  0  0  0  0  0  0  0
   13.8840   -1.8490   21.2740 Cl  0  0  0  0  0  0  0  0  0  0  0  0
   12.2249    1.2198   24.6546 H   0  0  0  0  0  0  0  0  0  0  0  0
    9.8763    0.5350   24.3454 H   0  0  0  0  0  0  0  0  0  0  0  0
   14.0077    0.1988   23.2842 H   0  0  0  0  0  0  0  0  0  0  0  0
   11.0892   -2.3009   21.3624 H   0  0  0  0  0  0  0  0  0  0  0  0
    7.2449    1.9825   21.4833 H   0  0  0  0  0  0  0  0  0  0  0  0
    5.9641    3.0893   20.9888 H   0  0  0  0  0  0  0  0  0  0  0  0
    6.8850    3.3159   18.7632 H   0  0  0  0  0  0  0  0  0  0  0  0
    8.2622    3.4083   19.8684 H   0  0  0  0  0  0  0  0  0  0  0  0
    5.9997   -0.7877   19.1077 H   0  0  0  0  0  0  0  0  0  0  0  0
    5.1975    0.6996   21.1026 H   0  0  0  0  0  0  0  0  0  0  0  0
    5.1547    1.8648   18.2806 H   0  0  0  0  0  0  0  0  0  0  0  0
    4.0436    2.2706   19.6027 H   0  0  0  0  0  0  0  0  0  0  0  0
    4.0553    0.6307   18.9256 H   0  0  0  0  0  0  0  0  0  0  0  0
    8.7773   -2.2383   22.1737 H   0  0  0  0  0  0  0  0  0  0  0  0
    8.2516   -1.0144   23.3225 H   0  0  0  0  0  0  0  0  0  0  0  0
    8.9990    1.9161   18.2815 H   0  0  0  0  0  0  0  0  0  0  0  0
    6.9053   -1.6855   20.9858 H   0  0  0  0  0  0  0  0  0  0  0  0
  1  2  2  0  0  0  0
  1  3  1  0  0  0  0
  2  5  1  0  0  0  0
  3  6  2  0  0  0  0
  4  5  2  0  0  0  0
  4  6  1  0  0  0  0
  5 14  1  0  0  0  0
  6 19  1  0  0  0  0
  7 11  1  0  0  0  0
  7 15  1  0  0  0  0
  7 17  2  0  0  0  0
  8 14  1  0  0  0  0
  8 16  1  0  0  0  0
  8 18  2  0  0  0  0
  9 10  1  0  0  0  0
  9 12  1  0  0  0  0
 10 15  1  0  0  0  0
 11 12  1  0  0  0  0
 11 16  1  6  0  0  0
 12 13  1  1  0  0  0
  1 20  1  0  0  0  0
  2 21  1  0  0  0  0
  3 22  1  0  0  0  0
  4 23  1  0  0  0  0
  9 24  1  0  0  0  0
  9 25  1  0  0  0  0
 10 26  1  0  0  0  0
 10 27  1  0  0  0  0
 11 28  1  0  0  0  0
 12 29  1  0  0  0  0
 13 30  1  0  0  0  0
 13 31  1  0  0  0  0
 13 32  1  0  0  0  0
 14 33  1  0  0  0  0
 14 34  1  0  0  0  0
 15 35  1  0  0  0  0
 16 36  1  0  0  0  0
M  END
> <compound>
MAT-POS-0bc33984-1

> <compound_smiles>
CC1CCNC(=O)C1NC(=O)Cc2cccc(c2)Cl

> <enantiomer_smiles>
C[C@@H]1CCNC(=O)[C@H]1NC(=O)Cc2cccc(c2)Cl

> <scaffold>
chlorobenzene-linker

> <canonical_CID>
MAT-POS-0bc33984-1

> <r_inhibition_at_20_uM>

> <r_inhibition_at_50_uM>

> <r_avg_IC50>
99.0

> <f_inhibition_at_20_uM>

> <f_inhibition_at_50_uM>

> <f_avg_IC50>
43.7142909815475

> <f_avg_pIC50>

> <relative_solubility_at_20_uM>

> <relative_solubility_at_100_uM>

> <trypsin_IC50>

> <NMR_std_ratio>

> <acrylamide>
False

> <chloroacetamide>
False

> <series>
Ugi

> <frag_id>

> <clash_score>
1.4380810879703971

> <docking_score>
-5.409831523895264

> <overlap_score>
0.7465189695358276

> <MMFF_internal_energy>
52.946379101426075

> <docked_smiles>
C[C@@H]1CCNC(=O)[C@H]1NC(=O)Cc2cccc(c2)Cl

$$$$
PET-UNK-8df914d1-2_1
  -OEChem-07262101013D

 33 35  0     0  0  0  0  0  0999 V2000
   11.9780    0.4600   23.9150 C   0  0  0  0  0  0  0  0  0  0  0  0
   10.6560    0.0720   23.7350 C   0  0  0  0  0  0  0  0  0  0  0  0
   12.9840   -0.1200   23.1530 C   0  0  0  0  0  0  0  0  0  0  0  0
   11.3360   -1.5050   22.0650 C   0  0  0  0  0  0  0  0  0  0  0  0
    5.4902   -0.3867   18.9879 C   0  0  0  0  0  0  0  0  0  0  0  0
   10.3220   -0.8940   22.7910 C   0  0  0  0  0  0  0  0  0  0  0  0
   12.6400   -1.1000   22.2390 C   0  0  0  0  0  0  0  0  0  0  0  0
    6.2597    0.0083   20.0509 C   0  0  0  0  0  0  0  0  0  0  0  0
    4.8873    1.6707   19.5254 C   0  0  0  0  0  0  0  0  0  0  0  0
    4.2653    3.0189   19.6318 C   0  0  0  0  0  0  0  0  0  0  0  0
    4.7465    3.8064   20.6099 C   0  0  0  0  0  0  0  0  0  0  0  0
    5.8110    3.3324   21.4899 C   0  0  0  0  0  0  0  0  0  0  0  0
    6.3554    2.1067   21.3702 C   0  0  0  0  0  0  0  0  0  0  0  0
    8.3880   -0.3240   21.3070 C   0  0  0  0  0  0  0  0  0  0  0  0
    8.8810   -1.1900   22.4510 C   0  0  0  0  0  0  0  0  0  0  0  0
    5.8680    1.2919   20.3696 N   0  0  0  0  0  0  0  0  0  0  0  0
    4.6513    0.6603   18.6846 N   0  3  0  0  0  0  0  0  0  0  0  0
    7.2820   -0.7860   20.6970 N   0  0  0  0  0  0  0  0  0  0  0  0
    8.9170    0.7530   21.0260 O   0  0  0  0  0  0  0  0  0  0  0  0
   13.8840   -1.8490   21.2740 Cl  0  0  0  0  0  0  0  0  0  0  0  0
   12.2249    1.2198   24.6546 H   0  0  0  0  0  0  0  0  0  0  0  0
    9.8763    0.5350   24.3454 H   0  0  0  0  0  0  0  0  0  0  0  0
   14.0077    0.1988   23.2842 H   0  0  0  0  0  0  0  0  0  0  0  0
   11.0892   -2.3009   21.3624 H   0  0  0  0  0  0  0  0  0  0  0  0
    5.4097   -1.2713   18.3872 H   0  0  0  0  0  0  0  0  0  0  0  0
    3.4782    3.3223   18.9548 H   0  0  0  0  0  0  0  0  0  0  0  0
    4.3587    4.8061   20.7683 H   0  0  0  0  0  0  0  0  0  0  0  0
    6.1577    4.0142   22.2592 H   0  0  0  0  0  0  0  0  0  0  0  0
    7.1448    1.7345   22.0098 H   0  0  0  0  0  0  0  0  0  0  0  0
    8.7774   -2.2383   22.1732 H   0  0  0  0  0  0  0  0  0  0  0  0
    8.2557   -1.0153   23.3257 H   0  0  0  0  0  0  0  0  0  0  0  0
    3.9612    0.6648   17.9385 H   0  0  0  0  0  0  0  0  0  0  0  0
    7.1527   -1.7824   20.6892 H   0  0  0  0  0  0  0  0  0  0  0  0
  1  2  2  0  0  0  0
  1  3  1  0  0  0  0
  2  6  1  0  0  0  0
  3  7  2  0  0  0  0
  4  6  2  0  0  0  0
  4  7  1  0  0  0  0
  5  8  2  0  0  0  0
  5 17  1  0  0  0  0
  6 15  1  0  0  0  0
  7 20  1  0  0  0  0
  8 16  1  0  0  0  0
  8 18  1  0  0  0  0
  9 10  1  0  0  0  0
  9 16  1  0  0  0  0
  9 17  2  0  0  0  0
 10 11  2  0  0  0  0
 11 12  1  0  0  0  0
 12 13  2  0  0  0  0
 13 16  1  0  0  0  0
 14 15  1  0  0  0  0
 14 18  1  0  0  0  0
 14 19  2  0  0  0  0
  1 21  1  0  0  0  0
  2 22  1  0  0  0  0
  3 23  1  0  0  0  0
  4 24  1  0  0  0  0
  5 25  1  0  0  0  0
 10 26  1  0  0  0  0
 11 27  1  0  0  0  0
 12 28  1  0  0  0  0
 13 29  1  0  0  0  0
 15 30  1  0  0  0  0
 15 31  1  0  0  0  0
 17 32  1  0  0  0  0
 18 33  1  0  0  0  0
M  CHG  1  17   1
M  END
> <compound>
PET-UNK-8df914d1-2

> <compound_smiles>
c1ccn2c(c1)ncc2NC(=O)Cc3cccc(c3)Cl

> <enantiomer_smiles>
c1ccn2c(c1)ncc2NC(=O)Cc3cccc(c3)Cl

> <scaffold>
chlorobenzene-linker

> <canonical_CID>
PET-UNK-8df914d1-2

> <r_inhibition_at_20_uM>

> <r_inhibition_at_50_uM>

> <r_avg_IC50>

> <f_inhibition_at_20_uM>

> <f_inhibition_at_50_uM>

> <f_avg_IC50>
8.03394500289595

> <f_avg_pIC50>

> <relative_solubility_at_20_uM>

> <relative_solubility_at_100_uM>

> <trypsin_IC50>

> <NMR_std_ratio>

> <acrylamide>
False

> <chloroacetamide>
False

> <series>
3-aminopyridine-like

> <frag_id>
x11454

> <clash_score>
0

> <docking_score>
-6.159751892089844

> <overlap_score>
0.8071626424789429

> <MMFF_internal_energy>
40.490272485409385

> <docked_smiles>
c1ccn2c(c1)[nH+]cc2NC(=O)Cc3cccc(c3)Cl

$$$$
MAT-POS-0bc33984-2_1
  -OEChem-07262101013D

 33 34  0     1  0  0  0  0  0999 V2000
   11.9780    0.4600   23.9150 C   0  0  0  0  0  0  0  0  0  0  0  0
   10.6560    0.0720   23.7350 C   0  0  0  0  0  0  0  0  0  0  0  0
   12.9840   -0.1200   23.1530 C   0  0  0  0  0  0  0  0  0  0  0  0
   11.3360   -1.5050   22.0650 C   0  0  0  0  0  0  0  0  0  0  0  0
   10.3220   -0.8940   22.7910 C   0  0  0  0  0  0  0  0  0  0  0  0
   12.6400   -1.1000   22.2390 C   0  0  0  0  0  0  0  0  0  0  0  0
    5.4062   -0.8768   19.1989 C   0  0  0  0  0  0  0  0  0  0  0  0
    8.3880   -0.3240   21.3070 C   0  0  0  0  0  0  0  0  0  0  0  0
    7.4507    0.0324   18.3703 C   0  0  0  0  0  0  0  0  0  0  0  0
    6.4207   -0.0032   17.2548 C   0  0  0  0  0  0  0  0  0  0  0  0
    6.6083   -0.0614   19.6523 C   0  0  2  0  0  0  0  0  0  0  0  0
    6.1501    1.3105   20.1439 C   0  0  0  0  0  0  0  0  0  0  0  0
    8.8810   -1.1900   22.4510 C   0  0  0  0  0  0  0  0  0  0  0  0
    5.3459   -0.7781   17.8110 N   0  0  0  0  0  0  0  0  0  0  0  0
    7.2820   -0.7860   20.6970 N   0  0  0  0  0  0  0  0  0  0  0  0
    4.6187   -1.4655   19.9245 O   0  0  0  0  0  0  0  0  0  0  0  0
    8.9170    0.7530   21.0260 O   0  0  0  0  0  0  0  0  0  0  0  0
   13.8840   -1.8490   21.2740 Cl  0  0  0  0  0  0  0  0  0  0  0  0
   12.2249    1.2198   24.6546 H   0  0  0  0  0  0  0  0  0  0  0  0
    9.8763    0.5350   24.3454 H   0  0  0  0  0  0  0  0  0  0  0  0
   14.0077    0.1988   23.2842 H   0  0  0  0  0  0  0  0  0  0  0  0
   11.0892   -2.3009   21.3624 H   0  0  0  0  0  0  0  0  0  0  0  0
    8.1102   -0.8399   18.2711 H   0  0  0  0  0  0  0  0  0  0  0  0
    8.0757    0.9302   18.3304 H   0  0  0  0  0  0  0  0  0  0  0  0
    6.0356    0.9925   17.0150 H   0  0  0  0  0  0  0  0  0  0  0  0
    6.7949   -0.4816   16.3463 H   0  0  0  0  0  0  0  0  0  0  0  0
    7.0111    1.8926   20.4680 H   0  0  0  0  0  0  0  0  0  0  0  0
    5.4640    1.1920   20.9808 H   0  0  0  0  0  0  0  0  0  0  0  0
    5.6435    1.8403   19.3390 H   0  0  0  0  0  0  0  0  0  0  0  0
    8.7773   -2.2383   22.1737 H   0  0  0  0  0  0  0  0  0  0  0  0
    8.2516   -1.0144   23.3225 H   0  0  0  0  0  0  0  0  0  0  0  0
    4.6179   -1.2091   17.2501 H   0  0  0  0  0  0  0  0  0  0  0  0
    6.9055   -1.6867   20.9867 H   0  0  0  0  0  0  0  0  0  0  0  0
  1  2  2  0  0  0  0
  1  3  1  0  0  0  0
  2  5  1  0  0  0  0
  3  6  2  0  0  0  0
  4  5  2  0  0  0  0
  4  6  1  0  0  0  0
  5 13  1  0  0  0  0
  6 18  1  0  0  0  0
  7 11  1  0  0  0  0
  7 14  1  0  0  0  0
  7 16  2  0  0  0  0
  8 13  1  0  0  0  0
  8 15  1  0  0  0  0
  8 17  2  0  0  0  0
  9 10  1  0  0  0  0
  9 11  1  0  0  0  0
 10 14  1  0  0  0  0
 11 12  1  1  0  0  0
 11 15  1  0  0  0  0
  1 19  1  0  0  0  0
  2 20  1  0  0  0  0
  3 21  1  0  0  0  0
  4 22  1  0  0  0  0
  9 23  1  0  0  0  0
  9 24  1  0  0  0  0
 10 25  1  0  0  0  0
 10 26  1  0  0  0  0
 12 27  1  0  0  0  0
 12 28  1  0  0  0  0
 12 29  1  0  0  0  0
 13 30  1  0  0  0  0
 13 31  1  0  0  0  0
 14 32  1  0  0  0  0
 15 33  1  0  0  0  0
M  END
> <compound>
MAT-POS-0bc33984-2

> <compound_smiles>
CC1(CCNC1=O)NC(=O)Cc2cccc(c2)Cl

> <enantiomer_smiles>
C[C@@]1(CCNC1=O)NC(=O)Cc2cccc(c2)Cl

> <scaffold>
chlorobenzene-linker

> <canonical_CID>
MAT-POS-0bc33984-2

> <r_inhibition_at_20_uM>

> <r_inhibition_at_50_uM>

> <r_avg_IC50>
99.0

> <f_inhibition_at_20_uM>

> <f_inhibition_at_50_uM>

> <f_avg_IC50>
99.5

> <f_avg_pIC50>

> <relative_solubility_at_20_uM>

> <relative_solubility_at_100_uM>

> <trypsin_IC50>

> <NMR_std_ratio>

> <acrylamide>
False

> <chloroacetamide>
False

> <series>
Ugi

> <frag_id>

> <clash_score>
0

> <docking_score>
-5.555399417877197

> <overlap_score>
0.7450823187828064

> <MMFF_internal_energy>
35.73069556496364

> <docked_smiles>
C[C@@]1(CCNC1=O)NC(=O)Cc2cccc(c2)Cl

$$$$
MIC-UNK-8971c93c-1_1
  -OEChem-07262101013D

 32 34  0     0  0  0  0  0  0999 V2000
   11.9780    0.4600   23.9150 C   0  0  0  0  0  0  0  0  0  0  0  0
   10.6560    0.0720   23.7350 C   0  0  0  0  0  0  0  0  0  0  0  0
   12.9840   -0.1200   23.1530 C   0  0  0  0  0  0  0  0  0  0  0  0
   11.3360   -1.5050   22.0650 C   0  0  0  0  0  0  0  0  0  0  0  0
    5.2669    0.8815   17.4309 C   0  0  0  0  0  0  0  0  0  0  0  0
    7.1869   -0.0183   18.3907 C   0  0  0  0  0  0  0  0  0  0  0  0
   10.3220   -0.8940   22.7910 C   0  0  0  0  0  0  0  0  0  0  0  0
    4.6117    0.7042   18.6173 C   0  0  0  0  0  0  0  0  0  0  0  0
    5.2746    0.1526   19.7020 C   0  0  0  0  0  0  0  0  0  0  0  0
    6.5901   -0.2295   19.6275 C   0  0  0  0  0  0  0  0  0  0  0  0
   12.6400   -1.1000   22.2390 C   0  0  0  0  0  0  0  0  0  0  0  0
    3.1263    0.6084   20.3503 C   0  0  0  0  0  0  0  0  0  0  0  0
    8.3880   -0.3240   21.3070 C   0  0  0  0  0  0  0  0  0  0  0  0
    8.8810   -1.1900   22.4510 C   0  0  0  0  0  0  0  0  0  0  0  0
    6.5658    0.5231   17.2975 N   0  0  0  0  0  0  0  0  0  0  0  0
    3.3011    0.9900   18.9888 N   0  0  0  0  0  0  0  0  0  0  0  0
    4.3831    0.0854   20.7725 N   0  0  0  0  0  0  0  0  0  0  0  0
    7.2820   -0.7860   20.6970 N   0  0  0  0  0  0  0  0  0  0  0  0
    2.1077    0.7086   21.0189 O   0  0  0  0  0  0  0  0  0  0  0  0
    8.9170    0.7530   21.0260 O   0  0  0  0  0  0  0  0  0  0  0  0
   13.8840   -1.8490   21.2740 Cl  0  0  0  0  0  0  0  0  0  0  0  0
   12.2249    1.2198   24.6546 H   0  0  0  0  0  0  0  0  0  0  0  0
    9.8763    0.5350   24.3454 H   0  0  0  0  0  0  0  0  0  0  0  0
   14.0077    0.1988   23.2842 H   0  0  0  0  0  0  0  0  0  0  0  0
   11.0892   -2.3009   21.3624 H   0  0  0  0  0  0  0  0  0  0  0  0
    4.7950    1.3054   16.5539 H   0  0  0  0  0  0  0  0  0  0  0  0
    8.2263   -0.2863   18.2200 H   0  0  0  0  0  0  0  0  0  0  0  0
    8.7774   -2.2383   22.1732 H   0  0  0  0  0  0  0  0  0  0  0  0
    8.2557   -1.0153   23.3257 H   0  0  0  0  0  0  0  0  0  0  0  0
    2.5924    1.3994   18.3928 H   0  0  0  0  0  0  0  0  0  0  0  0
    4.5935   -0.2747   21.6950 H   0  0  0  0  0  0  0  0  0  0  0  0
    6.8985   -1.6648   21.0701 H   0  0  0  0  0  0  0  0  0  0  0  0
  1  2  1  0  0  0  0
  1  3  2  0  0  0  0
  2  7  2  0  0  0  0
  3 11  1  0  0  0  0
  4  7  1  0  0  0  0
  4 11  2  0  0  0  0
  5  8  2  0  0  0  0
  5 15  1  0  0  0  0
  6 10  1  0  0  0  0
  6 15  2  0  0  0  0
  7 14  1  0  0  0  0
  8  9  1  0  0  0  0
  8 16  1  0  0  0  0
  9 10  2  0  0  0  0
  9 17  1  0  0  0  0
 10 18  1  0  0  0  0
 11 21  1  0  0  0  0
 12 16  1  0  0  0  0
 12 17  1  0  0  0  0
 12 19  2  0  0  0  0
 13 14  1  0  0  0  0
 13 18  1  0  0  0  0
 13 20  2  0  0  0  0
  1 22  1  0  0  0  0
  2 23  1  0  0  0  0
  3 24  1  0  0  0  0
  4 25  1  0  0  0  0
  5 26  1  0  0  0  0
  6 27  1  0  0  0  0
 14 28  1  0  0  0  0
 14 29  1  0  0  0  0
 16 30  1  0  0  0  0
 17 31  1  0  0  0  0
 18 32  1  0  0  0  0
M  END
> <compound>
MIC-UNK-8971c93c-1

> <compound_smiles>
c1cc(cc(c1)Cl)CC(=O)Nc2cncc3c2[nH]c(=O)[nH]3

> <enantiomer_smiles>
c1cc(cc(c1)Cl)CC(=O)Nc2cncc3c2[nH]c(=O)[nH]3

> <scaffold>
chlorobenzene-linker

> <clash_score>
0

> <docking_score>
-5.207728385925293

> <overlap_score>
0.8905450105667114

> <MMFF_internal_energy>
40.30560379046095

> <docked_smiles>
c1cc(cc(c1)Cl)CC(=O)Nc2cncc3c2[nH]c(=O)[nH]3

$$$$
PET-UNK-8df914d1-4_1
  -OEChem-07262101013D

 29 30  0     0  0  0  0  0  0999 V2000
   11.9780    0.4600   23.9150 C   0  0  0  0  0  0  0  0  0  0  0  0
   10.6560    0.0720   23.7350 C   0  0  0  0  0  0  0  0  0  0  0  0
   12.9840   -0.1200   23.1530 C   0  0  0  0  0  0  0  0  0  0  0  0
   11.3360   -1.5050   22.0650 C   0  0  0  0  0  0  0  0  0  0  0  0
    6.3148   -0.6831   18.3486 C   0  0  0  0  0  0  0  0  0  0  0  0
    5.4562    1.2633   18.4179 C   0  0  0  0  0  0  0  0  0  0  0  0
   10.3220   -0.8940   22.7910 C   0  0  0  0  0  0  0  0  0  0  0  0
   12.6400   -1.1000   22.2390 C   0  0  0  0  0  0  0  0  0  0  0  0
    6.5908   -0.2043   19.6076 C   0  0  0  0  0  0  0  0  0  0  0  0
    8.3880   -0.3240   21.3070 C   0  0  0  0  0  0  0  0  0  0  0  0
    6.0450    1.9749   20.7408 C   0  0  0  0  0  0  0  0  0  0  0  0
    8.8810   -1.1900   22.4510 C   0  0  0  0  0  0  0  0  0  0  0  0
    5.6086    0.2353   17.6129 N   0  0  0  0  0  0  0  0  0  0  0  0
    6.0350    1.0437   19.6370 N   0  0  0  0  0  0  0  0  0  0  0  0
    7.2820   -0.7860   20.6970 N   0  0  0  0  0  0  0  0  0  0  0  0
    8.9170    0.7530   21.0260 O   0  0  0  0  0  0  0  0  0  0  0  0
   13.8840   -1.8490   21.2740 Cl  0  0  0  0  0  0  0  0  0  0  0  0
   12.2249    1.2198   24.6546 H   0  0  0  0  0  0  0  0  0  0  0  0
    9.8763    0.5350   24.3454 H   0  0  0  0  0  0  0  0  0  0  0  0
   14.0077    0.1988   23.2842 H   0  0  0  0  0  0  0  0  0  0  0  0
   11.0892   -2.3009   21.3624 H   0  0  0  0  0  0  0  0  0  0  0  0
    6.5869   -1.6421   17.9313 H   0  0  0  0  0  0  0  0  0  0  0  0
    4.9421    2.1837   18.1760 H   0  0  0  0  0  0  0  0  0  0  0  0
    5.1561    1.7871   21.3487 H   0  0  0  0  0  0  0  0  0  0  0  0
    6.9519    1.8270   21.3338 H   0  0  0  0  0  0  0  0  0  0  0  0
    6.0344    2.9969   20.3516 H   0  0  0  0  0  0  0  0  0  0  0  0
    8.7709   -2.2387   22.1706 H   0  0  0  0  0  0  0  0  0  0  0  0
    8.2491   -1.0157   23.3232 H   0  0  0  0  0  0  0  0  0  0  0  0
    6.8973   -1.6552   21.0612 H   0  0  0  0  0  0  0  0  0  0  0  0
  1  2  2  0  0  0  0
  1  3  1  0  0  0  0
  2  7  1  0  0  0  0
  3  8  2  0  0  0  0
  4  7  2  0  0  0  0
  4  8  1  0  0  0  0
  5  9  2  0  0  0  0
  5 13  1  0  0  0  0
  6 13  2  0  0  0  0
  6 14  1  0  0  0  0
  7 12  1  0  0  0  0
  8 17  1  0  0  0  0
  9 14  1  0  0  0  0
  9 15  1  0  0  0  0
 10 12  1  0  0  0  0
 10 15  1  0  0  0  0
 10 16  2  0  0  0  0
 11 14  1  0  0  0  0
  1 18  1  0  0  0  0
  2 19  1  0  0  0  0
  3 20  1  0  0  0  0
  4 21  1  0  0  0  0
  5 22  1  0  0  0  0
  6 23  1  0  0  0  0
 11 24  1  0  0  0  0
 11 25  1  0  0  0  0
 11 26  1  0  0  0  0
 12 27  1  0  0  0  0
 12 28  1  0  0  0  0
 15 29  1  0  0  0  0
M  END
> <compound>
PET-UNK-8df914d1-4

> <compound_smiles>
Cn1cncc1NC(=O)Cc2cccc(c2)Cl

> <enantiomer_smiles>
Cn1cncc1NC(=O)Cc2cccc(c2)Cl

> <scaffold>
chlorobenzene-linker

> <canonical_CID>
PET-UNK-8df914d1-4

> <r_inhibition_at_20_uM>

> <r_inhibition_at_50_uM>

> <r_avg_IC50>
99.0

> <f_inhibition_at_20_uM>

> <f_inhibition_at_50_uM>

> <f_avg_IC50>
93.8839238811251

> <f_avg_pIC50>

> <relative_solubility_at_20_uM>

> <relative_solubility_at_100_uM>

> <trypsin_IC50>

> <NMR_std_ratio>

> <acrylamide>
False

> <chloroacetamide>
False

> <series>
3-aminopyridine-like

> <frag_id>
x11473

> <clash_score>
0

> <docking_score>
-7.072343826293945

> <overlap_score>
0.786247730255127

> <MMFF_internal_energy>
64.68872436346044

> <docked_smiles>
Cn1cncc1NC(=O)Cc2cccc(c2)Cl

$$$$
MIC-UNK-c66144cb-3_1
  -OEChem-07262101013D

 56 59  0     1  0  0  0  0  0999 V2000
    3.4750    2.5900   20.0549 C   0  0  0  0  0  0  0  0  0  0  0  0
    4.1006    2.0696   21.1854 C   0  0  0  0  0  0  0  0  0  0  0  0
   11.9780    0.4600   23.9150 C   0  0  0  0  0  0  0  0  0  0  0  0
    3.8811    2.1854   18.7835 C   0  0  0  0  0  0  0  0  0  0  0  0
    5.1350    1.1421   21.0496 C   0  0  0  0  0  0  0  0  0  0  0  0
   10.6560    0.0720   23.7350 C   0  0  0  0  0  0  0  0  0  0  0  0
   12.9840   -0.1200   23.1530 C   0  0  0  0  0  0  0  0  0  0  0  0
   11.3360   -1.5050   22.0650 C   0  0  0  0  0  0  0  0  0  0  0  0
    5.3671    0.8129   17.3871 C   0  0  0  0  0  0  0  0  0  0  0  0
    6.9488   -0.5675   18.3184 C   0  0  0  0  0  0  0  0  0  0  0  0
    4.9208    1.2526   18.6350 C   0  0  0  0  0  0  0  0  0  0  0  0
    5.5566    0.7234   19.7771 C   0  0  0  0  0  0  0  0  0  0  0  0
   10.3220   -0.8940   22.7910 C   0  0  0  0  0  0  0  0  0  0  0  0
    6.5905   -0.2048   19.6078 C   0  0  0  0  0  0  0  0  0  0  0  0
   12.6400   -1.1000   22.2390 C   0  0  0  0  0  0  0  0  0  0  0  0
    8.3880   -0.3240   21.3070 C   0  0  0  0  0  0  0  0  0  0  0  0
    6.9936   -5.8290   25.5141 C   0  0  0  0  0  0  0  0  0  0  0  0
    6.4811   -5.1104   24.2699 C   0  0  0  0  0  0  0  0  0  0  0  0
    8.4738   -5.5537   25.7603 C   0  0  0  0  0  0  0  0  0  0  0  0
    6.7742   -3.6120   24.3228 C   0  0  0  0  0  0  0  0  0  0  0  0
    8.7674   -4.0554   25.8140 C   0  0  0  0  0  0  0  0  0  0  0  0
    8.2550   -3.2968   24.5809 C   0  0  0  0  0  0  0  0  0  0  0  0
    9.1160   -3.5780   23.3463 C   0  0  0  0  0  0  0  0  0  0  0  0
    8.6877   -2.7059   22.1641 C   0  0  0  0  0  0  0  0  0  0  0  0
    8.8810   -1.1900   22.4510 C   0  0  1  0  0  0  0  0  0  0  0  0
    6.3635   -0.0823   17.2028 N   0  0  0  0  0  0  0  0  0  0  0  0
    7.2820   -0.7860   20.6970 N   0  0  0  0  0  0  0  0  0  0  0  0
    8.9170    0.7530   21.0260 O   0  0  0  0  0  0  0  0  0  0  0  0
   13.8840   -1.8490   21.2740 Cl  0  0  0  0  0  0  0  0  0  0  0  0
    2.6704    3.3113   20.1635 H   0  0  0  0  0  0  0  0  0  0  0  0
    3.7826    2.3859   22.1748 H   0  0  0  0  0  0  0  0  0  0  0  0
   12.2249    1.2198   24.6546 H   0  0  0  0  0  0  0  0  0  0  0  0
    3.3818    2.6016   17.9115 H   0  0  0  0  0  0  0  0  0  0  0  0
    5.5990    0.7592   21.9557 H   0  0  0  0  0  0  0  0  0  0  0  0
    9.8763    0.5351   24.3454 H   0  0  0  0  0  0  0  0  0  0  0  0
   14.0077    0.1988   23.2842 H   0  0  0  0  0  0  0  0  0  0  0  0
   11.0892   -2.3009   21.3624 H   0  0  0  0  0  0  0  0  0  0  0  0
    4.9206    1.1803   16.4672 H   0  0  0  0  0  0  0  0  0  0  0  0
    7.7441   -1.2843   18.1342 H   0  0  0  0  0  0  0  0  0  0  0  0
    6.4099   -5.5142   26.3882 H   0  0  0  0  0  0  0  0  0  0  0  0
    6.8382   -6.9102   25.4004 H   0  0  0  0  0  0  0  0  0  0  0  0
    6.9443   -5.5451   23.3768 H   0  0  0  0  0  0  0  0  0  0  0  0
    5.3994   -5.2669   24.1768 H   0  0  0  0  0  0  0  0  0  0  0  0
    8.7799   -6.0190   26.7053 H   0  0  0  0  0  0  0  0  0  0  0  0
    9.0713   -6.0182   24.9677 H   0  0  0  0  0  0  0  0  0  0  0  0
    6.4555   -3.1501   23.3724 H   0  0  0  0  0  0  0  0  0  0  0  0
    6.1522   -3.1502   25.1076 H   0  0  0  0  0  0  0  0  0  0  0  0
    8.3163   -3.6320   26.7267 H   0  0  0  0  0  0  0  0  0  0  0  0
    9.8562   -3.9066   25.9168 H   0  0  0  0  0  0  0  0  0  0  0  0
    8.3338   -2.2106   24.7989 H   0  0  0  0  0  0  0  0  0  0  0  0
    9.0215   -4.6364   23.0861 H   0  0  0  0  0  0  0  0  0  0  0  0
   10.1628   -3.3944   23.6029 H   0  0  0  0  0  0  0  0  0  0  0  0
    7.6395   -2.9173   21.9174 H   0  0  0  0  0  0  0  0  0  0  0  0
    9.2791   -2.9930   21.2843 H   0  0  0  0  0  0  0  0  0  0  0  0
    8.2561   -0.9661   23.3396 H   0  0  0  0  0  0  0  0  0  0  0  0
    6.8800   -1.6506   21.0527 H   0  0  0  0  0  0  0  0  0  0  0  0
  1  2  1  0  0  0  0
  1  4  2  0  0  0  0
  2  5  2  0  0  0  0
  3  6  2  0  0  0  0
  3  7  1  0  0  0  0
  4 11  1  0  0  0  0
  5 12  1  0  0  0  0
  6 13  1  0  0  0  0
  7 15  2  0  0  0  0
  8 13  2  0  0  0  0
  8 15  1  0  0  0  0
  9 11  2  0  0  0  0
  9 26  1  0  0  0  0
 10 14  1  0  0  0  0
 10 26  2  0  0  0  0
 11 12  1  0  0  0  0
 12 14  2  0  0  0  0
 13 25  1  0  0  0  0
 14 27  1  0  0  0  0
 15 29  1  0  0  0  0
 16 25  1  1  0  0  0
 16 27  1  0  0  0  0
 16 28  2  0  0  0  0
 17 18  1  0  0  0  0
 17 19  1  0  0  0  0
 18 20  1  0  0  0  0
 19 21  1  0  0  0  0
 20 22  1  0  0  0  0
 21 22  1  0  0  0  0
 22 23  1  0  0  0  0
 23 24  1  0  0  0  0
 24 25  1  0  0  0  0
  1 30  1  0  0  0  0
  2 31  1  0  0  0  0
  3 32  1  0  0  0  0
  4 33  1  0  0  0  0
  5 34  1  0  0  0  0
  6 35  1  0  0  0  0
  7 36  1  0  0  0  0
  8 37  1  0  0  0  0
  9 38  1  0  0  0  0
 10 39  1  0  0  0  0
 17 40  1  0  0  0  0
 17 41  1  0  0  0  0
 18 42  1  0  0  0  0
 18 43  1  0  0  0  0
 19 44  1  0  0  0  0
 19 45  1  0  0  0  0
 20 46  1  0  0  0  0
 20 47  1  0  0  0  0
 21 48  1  0  0  0  0
 21 49  1  0  0  0  0
 22 50  1  0  0  0  0
 23 51  1  0  0  0  0
 23 52  1  0  0  0  0
 24 53  1  0  0  0  0
 24 54  1  0  0  0  0
 25 55  1  0  0  0  0
 27 56  1  0  0  0  0
M  END
> <compound>
MIC-UNK-c66144cb-3

> <compound_smiles>
c1ccc2c(c1)cncc2NC(=O)C(CCC3CCCCC3)c4cccc(c4)Cl

> <enantiomer_smiles>
c1ccc2c(c1)cncc2NC(=O)[C@@H](CCC3CCCCC3)c4cccc(c4)Cl

> <scaffold>
chlorobenzene-linker

> <clash_score>
0

> <docking_score>
-12.994317054748535

> <overlap_score>
0.978541910648346

> <MMFF_internal_energy>
123.6432581178911

> <docked_smiles>
c1ccc2c(c1)cncc2NC(=O)[C@@H](CCC3CCCCC3)c4cccc(c4)Cl

$$$$
MAT-POS-0bc33984-2_2
  -OEChem-07262101013D

 33 34  0     1  0  0  0  0  0999 V2000
   11.9780    0.4600   23.9150 C   0  0  0  0  0  0  0  0  0  0  0  0
   10.6560    0.0720   23.7350 C   0  0  0  0  0  0  0  0  0  0  0  0
   12.9840   -0.1200   23.1530 C   0  0  0  0  0  0  0  0  0  0  0  0
   11.3360   -1.5050   22.0650 C   0  0  0  0  0  0  0  0  0  0  0  0
   10.3220   -0.8940   22.7910 C   0  0  0  0  0  0  0  0  0  0  0  0
   12.6400   -1.1000   22.2390 C   0  0  0  0  0  0  0  0  0  0  0  0
    5.4033   -0.8692   19.1914 C   0  0  0  0  0  0  0  0  0  0  0  0
    8.3880   -0.3240   21.3070 C   0  0  0  0  0  0  0  0  0  0  0  0
    5.9635    1.2311   20.1745 C   0  0  0  0  0  0  0  0  0  0  0  0
    4.7139    1.3840   19.3252 C   0  0  0  0  0  0  0  0  0  0  0  0
    6.6083   -0.0614   19.6523 C   0  0  1  0  0  0  0  0  0  0  0  0
    7.5422    0.1896   18.4699 C   0  0  0  0  0  0  0  0  0  0  0  0
    8.8810   -1.1900   22.4510 C   0  0  0  0  0  0  0  0  0  0  0  0
    4.3579    0.0306   18.9993 N   0  0  0  0  0  0  0  0  0  0  0  0
    7.2820   -0.7860   20.6970 N   0  0  0  0  0  0  0  0  0  0  0  0
    5.3783   -2.0737   18.9869 O   0  0  0  0  0  0  0  0  0  0  0  0
    8.9170    0.7530   21.0260 O   0  0  0  0  0  0  0  0  0  0  0  0
   13.8840   -1.8490   21.2740 Cl  0  0  0  0  0  0  0  0  0  0  0  0
   12.2249    1.2198   24.6546 H   0  0  0  0  0  0  0  0  0  0  0  0
    9.8763    0.5350   24.3454 H   0  0  0  0  0  0  0  0  0  0  0  0
   14.0077    0.1988   23.2842 H   0  0  0  0  0  0  0  0  0  0  0  0
   11.0892   -2.3009   21.3624 H   0  0  0  0  0  0  0  0  0  0  0  0
    6.6231    2.1018   20.1030 H   0  0  0  0  0  0  0  0  0  0  0  0
    5.6651    1.1219   21.2257 H   0  0  0  0  0  0  0  0  0  0  0  0
    3.8929    1.8670   19.8608 H   0  0  0  0  0  0  0  0  0  0  0  0
    4.9104    1.9197   18.3918 H   0  0  0  0  0  0  0  0  0  0  0  0
    8.4049    0.7674   18.7973 H   0  0  0  0  0  0  0  0  0  0  0  0
    7.0153    0.7435   17.6948 H   0  0  0  0  0  0  0  0  0  0  0  0
    7.8831   -0.7601   18.0610 H   0  0  0  0  0  0  0  0  0  0  0  0
    8.7773   -2.2383   22.1737 H   0  0  0  0  0  0  0  0  0  0  0  0
    8.2516   -1.0144   23.3225 H   0  0  0  0  0  0  0  0  0  0  0  0
    3.4450   -0.2433   18.6501 H   0  0  0  0  0  0  0  0  0  0  0  0
    6.9055   -1.6867   20.9867 H   0  0  0  0  0  0  0  0  0  0  0  0
  1  2  2  0  0  0  0
  1  3  1  0  0  0  0
  2  5  1  0  0  0  0
  3  6  2  0  0  0  0
  4  5  2  0  0  0  0
  4  6  1  0  0  0  0
  5 13  1  0  0  0  0
  6 18  1  0  0  0  0
  7 11  1  0  0  0  0
  7 14  1  0  0  0  0
  7 16  2  0  0  0  0
  8 13  1  0  0  0  0
  8 15  1  0  0  0  0
  8 17  2  0  0  0  0
  9 10  1  0  0  0  0
  9 11  1  0  0  0  0
 10 14  1  0  0  0  0
 11 12  1  6  0  0  0
 11 15  1  0  0  0  0
  1 19  1  0  0  0  0
  2 20  1  0  0  0  0
  3 21  1  0  0  0  0
  4 22  1  0  0  0  0
  9 23  1  0  0  0  0
  9 24  1  0  0  0  0
 10 25  1  0  0  0  0
 10 26  1  0  0  0  0
 12 27  1  0  0  0  0
 12 28  1  0  0  0  0
 12 29  1  0  0  0  0
 13 30  1  0  0  0  0
 13 31  1  0  0  0  0
 14 32  1  0  0  0  0
 15 33  1  0  0  0  0
M  END
> <compound>
MAT-POS-0bc33984-2

> <compound_smiles>
CC1(CCNC1=O)NC(=O)Cc2cccc(c2)Cl

> <enantiomer_smiles>
C[C@]1(CCNC1=O)NC(=O)Cc2cccc(c2)Cl

> <scaffold>
chlorobenzene-linker

> <canonical_CID>
MAT-POS-0bc33984-2

> <r_inhibition_at_20_uM>

> <r_inhibition_at_50_uM>

> <r_avg_IC50>
99.0

> <f_inhibition_at_20_uM>

> <f_inhibition_at_50_uM>

> <f_avg_IC50>
99.5

> <f_avg_pIC50>

> <relative_solubility_at_20_uM>

> <relative_solubility_at_100_uM>

> <trypsin_IC50>

> <NMR_std_ratio>

> <acrylamide>
False

> <chloroacetamide>
False

> <series>
Ugi

> <frag_id>

> <clash_score>
0

> <docking_score>
-5.703660011291504

> <overlap_score>
0.7742097973823547

> <MMFF_internal_energy>
35.949229832532

> <docked_smiles>
C[C@]1(CCNC1=O)NC(=O)Cc2cccc(c2)Cl

$$$$
MIC-UNK-08cd9c58-1_1
  -OEChem-07262101013D

 33 35  0     0  0  0  0  0  0999 V2000
   11.9780    0.4600   23.9150 C   0  0  0  0  0  0  0  0  0  0  0  0
    5.5272    3.1241   20.8227 C   0  0  0  0  0  0  0  0  0  0  0  0
    6.1072    1.8628   20.8151 C   0  0  0  0  0  0  0  0  0  0  0  0
   10.6560    0.0720   23.7350 C   0  0  0  0  0  0  0  0  0  0  0  0
   12.9840   -0.1200   23.1530 C   0  0  0  0  0  0  0  0  0  0  0  0
   11.3360   -1.5050   22.0650 C   0  0  0  0  0  0  0  0  0  0  0  0
    4.8753    3.5360   19.6768 C   0  0  0  0  0  0  0  0  0  0  0  0
    5.2704    0.7384   17.4473 C   0  0  0  0  0  0  0  0  0  0  0  0
    6.4564   -0.9509   18.4537 C   0  0  0  0  0  0  0  0  0  0  0  0
    6.0202    1.0557   19.6727 C   0  0  0  0  0  0  0  0  0  0  0  0
   10.3220   -0.8940   22.7910 C   0  0  0  0  0  0  0  0  0  0  0  0
    5.3347    1.5656   18.5561 C   0  0  0  0  0  0  0  0  0  0  0  0
    6.5902   -0.2223   19.6218 C   0  0  0  0  0  0  0  0  0  0  0  0
   12.6400   -1.1000   22.2390 C   0  0  0  0  0  0  0  0  0  0  0  0
    8.3880   -0.3240   21.3070 C   0  0  0  0  0  0  0  0  0  0  0  0
    8.8810   -1.1900   22.4510 C   0  0  0  0  0  0  0  0  0  0  0  0
    5.8086   -0.5013   17.3611 N   0  0  0  0  0  0  0  0  0  0  0  0
    4.7686    2.7887   18.5544 N   0  0  0  0  0  0  0  0  0  0  0  0
    7.2820   -0.7860   20.6970 N   0  0  0  0  0  0  0  0  0  0  0  0
    8.9170    0.7530   21.0260 O   0  0  0  0  0  0  0  0  0  0  0  0
   13.8840   -1.8490   21.2740 Cl  0  0  0  0  0  0  0  0  0  0  0  0
   12.2249    1.2198   24.6546 H   0  0  0  0  0  0  0  0  0  0  0  0
    5.5849    3.7622   21.6966 H   0  0  0  0  0  0  0  0  0  0  0  0
    6.6236    1.5289   21.7117 H   0  0  0  0  0  0  0  0  0  0  0  0
    9.8763    0.5350   24.3454 H   0  0  0  0  0  0  0  0  0  0  0  0
   14.0077    0.1988   23.2842 H   0  0  0  0  0  0  0  0  0  0  0  0
   11.0892   -2.3009   21.3624 H   0  0  0  0  0  0  0  0  0  0  0  0
    4.4047    4.5125   19.6262 H   0  0  0  0  0  0  0  0  0  0  0  0
    4.7572    1.0627   16.5457 H   0  0  0  0  0  0  0  0  0  0  0  0
    6.8767   -1.9473   18.3543 H   0  0  0  0  0  0  0  0  0  0  0  0
    8.7774   -2.2383   22.1732 H   0  0  0  0  0  0  0  0  0  0  0  0
    8.2557   -1.0153   23.3257 H   0  0  0  0  0  0  0  0  0  0  0  0
    6.8982   -1.6620   21.0676 H   0  0  0  0  0  0  0  0  0  0  0  0
  1  4  1  0  0  0  0
  1  5  2  0  0  0  0
  2  3  2  0  0  0  0
  2  7  1  0  0  0  0
  3 10  1  0  0  0  0
  4 11  2  0  0  0  0
  5 14  1  0  0  0  0
  6 11  1  0  0  0  0
  6 14  2  0  0  0  0
  7 18  2  0  0  0  0
  8 12  2  0  0  0  0
  8 17  1  0  0  0  0
  9 13  1  0  0  0  0
  9 17  2  0  0  0  0
 10 12  1  0  0  0  0
 10 13  2  0  0  0  0
 11 16  1  0  0  0  0
 12 18  1  0  0  0  0
 13 19  1  0  0  0  0
 14 21  1  0  0  0  0
 15 16  1  0  0  0  0
 15 19  1  0  0  0  0
 15 20  2  0  0  0  0
  1 22  1  0  0  0  0
  2 23  1  0  0  0  0
  3 24  1  0  0  0  0
  4 25  1  0  0  0  0
  5 26  1  0  0  0  0
  6 27  1  0  0  0  0
  7 28  1  0  0  0  0
  8 29  1  0  0  0  0
  9 30  1  0  0  0  0
 16 31  1  0  0  0  0
 16 32  1  0  0  0  0
 19 33  1  0  0  0  0
M  END
> <compound>
MIC-UNK-08cd9c58-1

> <compound_smiles>
c1cc(cc(c1)Cl)CC(=O)Nc2cncc3c2cccn3

> <enantiomer_smiles>
c1cc(cc(c1)Cl)CC(=O)Nc2cncc3c2cccn3

> <scaffold>
chlorobenzene-linker

> <canonical_CID>
MIC-UNK-08cd9c58-1

> <r_inhibition_at_20_uM>

> <r_inhibition_at_50_uM>

> <r_avg_IC50>
57.9270096444696

> <f_inhibition_at_20_uM>

> <f_inhibition_at_50_uM>

> <f_avg_IC50>
67.1123602063983

> <f_avg_pIC50>

> <relative_solubility_at_20_uM>

> <relative_solubility_at_100_uM>

> <trypsin_IC50>

> <NMR_std_ratio>

> <acrylamide>
False

> <chloroacetamide>
False

> <series>
3-aminopyridine-like

> <frag_id>
x11548

> <clash_score>
0.6265809004140106

> <docking_score>
-6.587357521057129

> <overlap_score>
0.8436579704284668

> <MMFF_internal_energy>
110.72853946892342

> <docked_smiles>
c1cc(cc(c1)Cl)CC(=O)Nc2cncc3c2cccn3

$$$$
MIC-UNK-8373f97b-2_1
  -OEChem-07262101013D

 41 43  0     1  0  0  0  0  0999 V2000
    5.6185    3.3694   21.0737 C   0  0  0  0  0  0  0  0  0  0  0  0
    4.2255    3.2231   20.9412 C   0  0  0  0  0  0  0  0  0  0  0  0
   11.9780    0.4600   23.9150 C   0  0  0  0  0  0  0  0  0  0  0  0
    6.4881    2.3473   20.6797 C   0  0  0  0  0  0  0  0  0  0  0  0
   10.6560    0.0720   23.7350 C   0  0  0  0  0  0  0  0  0  0  0  0
    3.6781    2.0529   20.4127 C   0  0  0  0  0  0  0  0  0  0  0  0
   12.9840   -0.1200   23.1530 C   0  0  0  0  0  0  0  0  0  0  0  0
   11.3360   -1.5050   22.0650 C   0  0  0  0  0  0  0  0  0  0  0  0
    5.9403    1.1892   20.1570 C   0  0  0  0  0  0  0  0  0  0  0  0
   10.3220   -0.8940   22.7910 C   0  0  0  0  0  0  0  0  0  0  0  0
    4.5579    1.0597   20.0314 C   0  0  0  0  0  0  0  0  0  0  0  0
   12.6400   -1.1000   22.2390 C   0  0  0  0  0  0  0  0  0  0  0  0
    5.4012   -0.9299   19.2303 C   0  0  0  0  0  0  0  0  0  0  0  0
    8.3880   -0.3240   21.3070 C   0  0  0  0  0  0  0  0  0  0  0  0
    6.7837    0.8050   17.2892 C   0  0  0  0  0  0  0  0  0  0  0  0
    6.6085   -0.0600   19.6515 C   0  0  1  0  0  0  0  0  0  0  0  0
    8.8810   -1.1900   22.4510 C   0  0  0  0  0  0  0  0  0  0  0  0
    7.5240    0.1991   18.4611 C   0  0  0  0  0  0  0  0  0  0  0  0
    4.2463   -0.1809   19.4863 N   0  0  0  0  0  0  0  0  0  0  0  0
    6.7585    2.1819   17.3476 N   0  0  0  0  0  0  0  0  0  0  0  0
    7.2820   -0.7860   20.6970 N   0  0  0  0  0  0  0  0  0  0  0  0
    5.4547   -2.0679   18.7880 O   0  0  0  0  0  0  0  0  0  0  0  0
    8.9170    0.7530   21.0260 O   0  0  0  0  0  0  0  0  0  0  0  0
    6.2643    0.1507   16.3898 O   0  0  0  0  0  0  0  0  0  0  0  0
   13.8840   -1.8490   21.2740 Cl  0  0  0  0  0  0  0  0  0  0  0  0
    6.0225    4.2894   21.4877 H   0  0  0  0  0  0  0  0  0  0  0  0
    3.5703    4.0315   21.2544 H   0  0  0  0  0  0  0  0  0  0  0  0
   12.2249    1.2198   24.6546 H   0  0  0  0  0  0  0  0  0  0  0  0
    7.5609    2.4663   20.7846 H   0  0  0  0  0  0  0  0  0  0  0  0
    9.8763    0.5350   24.3454 H   0  0  0  0  0  0  0  0  0  0  0  0
    2.6053    1.9374   20.3098 H   0  0  0  0  0  0  0  0  0  0  0  0
   14.0077    0.1988   23.2842 H   0  0  0  0  0  0  0  0  0  0  0  0
   11.0892   -2.3008   21.3624 H   0  0  0  0  0  0  0  0  0  0  0  0
    8.7773   -2.2383   22.1737 H   0  0  0  0  0  0  0  0  0  0  0  0
    8.2516   -1.0144   23.3225 H   0  0  0  0  0  0  0  0  0  0  0  0
    7.9778   -0.7435   18.1416 H   0  0  0  0  0  0  0  0  0  0  0  0
    8.3245    0.8811   18.7620 H   0  0  0  0  0  0  0  0  0  0  0  0
    3.2990   -0.4956   19.3123 H   0  0  0  0  0  0  0  0  0  0  0  0
    7.2093    2.6582   18.1224 H   0  0  0  0  0  0  0  0  0  0  0  0
    6.2958    2.7263   16.6271 H   0  0  0  0  0  0  0  0  0  0  0  0
    6.9054   -1.6861   20.9863 H   0  0  0  0  0  0  0  0  0  0  0  0
  1  2  1  0  0  0  0
  1  4  2  0  0  0  0
  2  6  2  0  0  0  0
  3  5  2  0  0  0  0
  3  7  1  0  0  0  0
  4  9  1  0  0  0  0
  5 10  1  0  0  0  0
  6 11  1  0  0  0  0
  7 12  2  0  0  0  0
  8 10  2  0  0  0  0
  8 12  1  0  0  0  0
  9 11  2  0  0  0  0
  9 16  1  0  0  0  0
 10 17  1  0  0  0  0
 11 19  1  0  0  0  0
 12 25  1  0  0  0  0
 13 16  1  0  0  0  0
 13 19  1  0  0  0  0
 13 22  2  0  0  0  0
 14 17  1  0  0  0  0
 14 21  1  0  0  0  0
 14 23  2  0  0  0  0
 15 18  1  0  0  0  0
 15 20  1  0  0  0  0
 15 24  2  0  0  0  0
 16 18  1  1  0  0  0
 16 21  1  0  0  0  0
  1 26  1  0  0  0  0
  2 27  1  0  0  0  0
  3 28  1  0  0  0  0
  4 29  1  0  0  0  0
  5 30  1  0  0  0  0
  6 31  1  0  0  0  0
  7 32  1  0  0  0  0
  8 33  1  0  0  0  0
 17 34  1  0  0  0  0
 17 35  1  0  0  0  0
 18 36  1  0  0  0  0
 18 37  1  0  0  0  0
 19 38  1  0  0  0  0
 20 39  1  0  0  0  0
 20 40  1  0  0  0  0
 21 41  1  0  0  0  0
M  END
> <compound>
MIC-UNK-8373f97b-2

> <compound_smiles>
c1ccc2c(c1)C(C(=O)N2)(CC(=O)N)NC(=O)Cc3cccc(c3)Cl

> <enantiomer_smiles>
c1ccc2c(c1)[C@@](C(=O)N2)(CC(=O)N)NC(=O)Cc3cccc(c3)Cl

> <scaffold>
chlorobenzene-linker

> <clash_score>
0

> <docking_score>
-3.2889604568481445

> <overlap_score>
0.9180943965911865

> <MMFF_internal_energy>
22.92173913278507

> <docked_smiles>
c1ccc2c(c1)[C@@](C(=O)N2)(CC(=O)N)NC(=O)Cc3cccc(c3)Cl

$$$$
MIC-UNK-8373f97b-2_2
  -OEChem-07262101013D

 41 43  0     1  0  0  0  0  0999 V2000
    9.1471    0.5297   16.8279 C   0  0  0  0  0  0  0  0  0  0  0  0
    8.4746   -0.1960   15.8278 C   0  0  0  0  0  0  0  0  0  0  0  0
   11.9780    0.4600   23.9150 C   0  0  0  0  0  0  0  0  0  0  0  0
    8.6172    0.6338   18.1180 C   0  0  0  0  0  0  0  0  0  0  0  0
   10.6560    0.0720   23.7350 C   0  0  0  0  0  0  0  0  0  0  0  0
    7.2612   -0.8298   16.1001 C   0  0  0  0  0  0  0  0  0  0  0  0
   12.9840   -0.1200   23.1530 C   0  0  0  0  0  0  0  0  0  0  0  0
   11.3360   -1.5050   22.0650 C   0  0  0  0  0  0  0  0  0  0  0  0
    7.4145    0.0031   18.3830 C   0  0  0  0  0  0  0  0  0  0  0  0
   10.3220   -0.8940   22.7910 C   0  0  0  0  0  0  0  0  0  0  0  0
    6.7598   -0.7116   17.3810 C   0  0  0  0  0  0  0  0  0  0  0  0
   12.6400   -1.1000   22.2390 C   0  0  0  0  0  0  0  0  0  0  0  0
    5.4011   -0.9292   19.2297 C   0  0  0  0  0  0  0  0  0  0  0  0
    8.3880   -0.3240   21.3070 C   0  0  0  0  0  0  0  0  0  0  0  0
    4.9818    1.2196   21.0924 C   0  0  0  0  0  0  0  0  0  0  0  0
    6.6085   -0.0599   19.6515 C   0  0  2  0  0  0  0  0  0  0  0  0
    8.8810   -1.1900   22.4510 C   0  0  0  0  0  0  0  0  0  0  0  0
    6.1408    1.3112   20.1244 C   0  0  0  0  0  0  0  0  0  0  0  0
    5.5804   -1.2536   17.8794 N   0  0  0  0  0  0  0  0  0  0  0  0
    5.2984    0.4809   22.2122 N   0  0  0  0  0  0  0  0  0  0  0  0
    7.2820   -0.7860   20.6970 N   0  0  0  0  0  0  0  0  0  0  0  0
    4.4843   -1.2864   19.9547 O   0  0  0  0  0  0  0  0  0  0  0  0
    8.9170    0.7530   21.0260 O   0  0  0  0  0  0  0  0  0  0  0  0
    3.8859    1.7404   20.9060 O   0  0  0  0  0  0  0  0  0  0  0  0
   13.8840   -1.8490   21.2740 Cl  0  0  0  0  0  0  0  0  0  0  0  0
   10.0909    1.0150   16.5933 H   0  0  0  0  0  0  0  0  0  0  0  0
    8.9066   -0.2628   14.8329 H   0  0  0  0  0  0  0  0  0  0  0  0
   12.2249    1.2198   24.6546 H   0  0  0  0  0  0  0  0  0  0  0  0
    9.1408    1.1942   18.8847 H   0  0  0  0  0  0  0  0  0  0  0  0
    9.8763    0.5350   24.3454 H   0  0  0  0  0  0  0  0  0  0  0  0
    6.7411   -1.3901   15.3316 H   0  0  0  0  0  0  0  0  0  0  0  0
   14.0077    0.1988   23.2842 H   0  0  0  0  0  0  0  0  0  0  0  0
   11.0892   -2.3009   21.3624 H   0  0  0  0  0  0  0  0  0  0  0  0
    8.7773   -2.2383   22.1737 H   0  0  0  0  0  0  0  0  0  0  0  0
    8.2516   -1.0144   23.3225 H   0  0  0  0  0  0  0  0  0  0  0  0
    5.8315    1.9061   19.2602 H   0  0  0  0  0  0  0  0  0  0  0  0
    6.9705    1.8265   20.6170 H   0  0  0  0  0  0  0  0  0  0  0  0
    4.9335   -1.8120   17.3352 H   0  0  0  0  0  0  0  0  0  0  0  0
    6.2260    0.0782   22.3001 H   0  0  0  0  0  0  0  0  0  0  0  0
    4.6174    0.3339   22.9499 H   0  0  0  0  0  0  0  0  0  0  0  0
    6.9054   -1.6861   20.9863 H   0  0  0  0  0  0  0  0  0  0  0  0
  1  2  1  0  0  0  0
  1  4  2  0  0  0  0
  2  6  2  0  0  0  0
  3  5  2  0  0  0  0
  3  7  1  0  0  0  0
  4  9  1  0  0  0  0
  5 10  1  0  0  0  0
  6 11  1  0  0  0  0
  7 12  2  0  0  0  0
  8 10  2  0  0  0  0
  8 12  1  0  0  0  0
  9 11  2  0  0  0  0
  9 16  1  0  0  0  0
 10 17  1  0  0  0  0
 11 19  1  0  0  0  0
 12 25  1  0  0  0  0
 13 16  1  0  0  0  0
 13 19  1  0  0  0  0
 13 22  2  0  0  0  0
 14 17  1  0  0  0  0
 14 21  1  0  0  0  0
 14 23  2  0  0  0  0
 15 18  1  0  0  0  0
 15 20  1  0  0  0  0
 15 24  2  0  0  0  0
 16 18  1  6  0  0  0
 16 21  1  0  0  0  0
  1 26  1  0  0  0  0
  2 27  1  0  0  0  0
  3 28  1  0  0  0  0
  4 29  1  0  0  0  0
  5 30  1  0  0  0  0
  6 31  1  0  0  0  0
  7 32  1  0  0  0  0
  8 33  1  0  0  0  0
 17 34  1  0  0  0  0
 17 35  1  0  0  0  0
 18 36  1  0  0  0  0
 18 37  1  0  0  0  0
 19 38  1  0  0  0  0
 20 39  1  0  0  0  0
 20 40  1  0  0  0  0
 21 41  1  0  0  0  0
M  END
> <compound>
MIC-UNK-8373f97b-2

> <compound_smiles>
c1ccc2c(c1)C(C(=O)N2)(CC(=O)N)NC(=O)Cc3cccc(c3)Cl

> <enantiomer_smiles>
c1ccc2c(c1)[C@](C(=O)N2)(CC(=O)N)NC(=O)Cc3cccc(c3)Cl

> <scaffold>
chlorobenzene-linker

> <clash_score>
3.897865003587339

> <docking_score>
-0.8787877559661865

> <overlap_score>
0.8606861233711243

> <MMFF_internal_energy>
30.799834591834195

> <docked_smiles>
c1ccc2c(c1)[C@](C(=O)N2)(CC(=O)N)NC(=O)Cc3cccc(c3)Cl

$$$$
MIC-UNK-c66144cb-3_2
  -OEChem-07262101013D

 56 59  0     1  0  0  0  0  0999 V2000
    3.4750    2.5900   20.0549 C   0  0  0  0  0  0  0  0  0  0  0  0
    4.1005    2.0695   21.1854 C   0  0  0  0  0  0  0  0  0  0  0  0
   11.9780    0.4600   23.9150 C   0  0  0  0  0  0  0  0  0  0  0  0
    3.8810    2.1854   18.7835 C   0  0  0  0  0  0  0  0  0  0  0  0
    5.1350    1.1421   21.0496 C   0  0  0  0  0  0  0  0  0  0  0  0
   10.6560    0.0720   23.7350 C   0  0  0  0  0  0  0  0  0  0  0  0
   12.9840   -0.1200   23.1530 C   0  0  0  0  0  0  0  0  0  0  0  0
   11.3360   -1.5050   22.0650 C   0  0  0  0  0  0  0  0  0  0  0  0
    5.3671    0.8129   17.3871 C   0  0  0  0  0  0  0  0  0  0  0  0
    6.9488   -0.5675   18.3184 C   0  0  0  0  0  0  0  0  0  0  0  0
    4.9208    1.2526   18.6350 C   0  0  0  0  0  0  0  0  0  0  0  0
    5.5566    0.7234   19.7771 C   0  0  0  0  0  0  0  0  0  0  0  0
   10.3220   -0.8940   22.7910 C   0  0  0  0  0  0  0  0  0  0  0  0
    6.5905   -0.2048   19.6078 C   0  0  0  0  0  0  0  0  0  0  0  0
   12.6400   -1.1000   22.2390 C   0  0  0  0  0  0  0  0  0  0  0  0
    8.3880   -0.3240   21.3070 C   0  0  0  0  0  0  0  0  0  0  0  0
    6.1756   -5.0087   25.7296 C   0  0  0  0  0  0  0  0  0  0  0  0
    7.5102   -4.6896   26.3959 C   0  0  0  0  0  0  0  0  0  0  0  0
    5.8108   -3.9784   24.6654 C   0  0  0  0  0  0  0  0  0  0  0  0
    8.6280   -4.5213   25.3682 C   0  0  0  0  0  0  0  0  0  0  0  0
    6.9279   -3.8102   23.6370 C   0  0  0  0  0  0  0  0  0  0  0  0
    8.2905   -3.4985   24.2735 C   0  0  0  0  0  0  0  0  0  0  0  0
    8.3517   -2.0631   24.8030 C   0  0  0  0  0  0  0  0  0  0  0  0
    7.9817   -1.0558   23.7121 C   0  0  0  0  0  0  0  0  0  0  0  0
    8.8810   -1.1900   22.4510 C   0  0  2  0  0  0  0  0  0  0  0  0
    6.3635   -0.0823   17.2028 N   0  0  0  0  0  0  0  0  0  0  0  0
    7.2820   -0.7860   20.6970 N   0  0  0  0  0  0  0  0  0  0  0  0
    8.9170    0.7530   21.0260 O   0  0  0  0  0  0  0  0  0  0  0  0
   13.8840   -1.8490   21.2740 Cl  0  0  0  0  0  0  0  0  0  0  0  0
    2.6704    3.3113   20.1635 H   0  0  0  0  0  0  0  0  0  0  0  0
    3.7826    2.3859   22.1748 H   0  0  0  0  0  0  0  0  0  0  0  0
   12.2249    1.2198   24.6546 H   0  0  0  0  0  0  0  0  0  0  0  0
    3.3818    2.6016   17.9115 H   0  0  0  0  0  0  0  0  0  0  0  0
    5.5990    0.7592   21.9557 H   0  0  0  0  0  0  0  0  0  0  0  0
    9.8763    0.5350   24.3454 H   0  0  0  0  0  0  0  0  0  0  0  0
   14.0077    0.1988   23.2842 H   0  0  0  0  0  0  0  0  0  0  0  0
   11.0892   -2.3009   21.3624 H   0  0  0  0  0  0  0  0  0  0  0  0
    4.9206    1.1803   16.4672 H   0  0  0  0  0  0  0  0  0  0  0  0
    7.7441   -1.2843   18.1342 H   0  0  0  0  0  0  0  0  0  0  0  0
    6.2194   -6.0070   25.2764 H   0  0  0  0  0  0  0  0  0  0  0  0
    5.3859   -5.0400   26.4922 H   0  0  0  0  0  0  0  0  0  0  0  0
    7.4151   -3.7736   26.9902 H   0  0  0  0  0  0  0  0  0  0  0  0
    7.7735   -5.4957   27.0918 H   0  0  0  0  0  0  0  0  0  0  0  0
    4.8904   -4.2893   24.1560 H   0  0  0  0  0  0  0  0  0  0  0  0
    5.6012   -3.0145   25.1429 H   0  0  0  0  0  0  0  0  0  0  0  0
    9.5521   -4.2173   25.8896 H   0  0  0  0  0  0  0  0  0  0  0  0
    8.8468   -5.5001   24.9098 H   0  0  0  0  0  0  0  0  0  0  0  0
    7.0008   -4.7280   23.0302 H   0  0  0  0  0  0  0  0  0  0  0  0
    6.6516   -3.0041   22.9356 H   0  0  0  0  0  0  0  0  0  0  0  0
    9.0608   -3.5912   23.4786 H   0  0  0  0  0  0  0  0  0  0  0  0
    9.3641   -1.8666   25.1683 H   0  0  0  0  0  0  0  0  0  0  0  0
    7.6721   -1.9772   25.6551 H   0  0  0  0  0  0  0  0  0  0  0  0
    8.0351   -0.0395   24.1226 H   0  0  0  0  0  0  0  0  0  0  0  0
    6.9351   -1.2208   23.4231 H   0  0  0  0  0  0  0  0  0  0  0  0
    8.8046   -2.2495   22.1323 H   0  0  0  0  0  0  0  0  0  0  0  0
    6.8800   -1.6507   21.0527 H   0  0  0  0  0  0  0  0  0  0  0  0
  1  2  1  0  0  0  0
  1  4  2  0  0  0  0
  2  5  2  0  0  0  0
  3  6  2  0  0  0  0
  3  7  1  0  0  0  0
  4 11  1  0  0  0  0
  5 12  1  0  0  0  0
  6 13  1  0  0  0  0
  7 15  2  0  0  0  0
  8 13  2  0  0  0  0
  8 15  1  0  0  0  0
  9 11  2  0  0  0  0
  9 26  1  0  0  0  0
 10 14  1  0  0  0  0
 10 26  2  0  0  0  0
 11 12  1  0  0  0  0
 12 14  2  0  0  0  0
 13 25  1  0  0  0  0
 14 27  1  0  0  0  0
 15 29  1  0  0  0  0
 16 25  1  6  0  0  0
 16 27  1  0  0  0  0
 16 28  2  0  0  0  0
 17 18  1  0  0  0  0
 17 19  1  0  0  0  0
 18 20  1  0  0  0  0
 19 21  1  0  0  0  0
 20 22  1  0  0  0  0
 21 22  1  0  0  0  0
 22 23  1  0  0  0  0
 23 24  1  0  0  0  0
 24 25  1  0  0  0  0
  1 30  1  0  0  0  0
  2 31  1  0  0  0  0
  3 32  1  0  0  0  0
  4 33  1  0  0  0  0
  5 34  1  0  0  0  0
  6 35  1  0  0  0  0
  7 36  1  0  0  0  0
  8 37  1  0  0  0  0
  9 38  1  0  0  0  0
 10 39  1  0  0  0  0
 17 40  1  0  0  0  0
 17 41  1  0  0  0  0
 18 42  1  0  0  0  0
 18 43  1  0  0  0  0
 19 44  1  0  0  0  0
 19 45  1  0  0  0  0
 20 46  1  0  0  0  0
 20 47  1  0  0  0  0
 21 48  1  0  0  0  0
 21 49  1  0  0  0  0
 22 50  1  0  0  0  0
 23 51  1  0  0  0  0
 23 52  1  0  0  0  0
 24 53  1  0  0  0  0
 24 54  1  0  0  0  0
 25 55  1  0  0  0  0
 27 56  1  0  0  0  0
M  END
> <compound>
MIC-UNK-c66144cb-3

> <compound_smiles>
c1ccc2c(c1)cncc2NC(=O)C(CCC3CCCCC3)c4cccc(c4)Cl

> <enantiomer_smiles>
c1ccc2c(c1)cncc2NC(=O)[C@H](CCC3CCCCC3)c4cccc(c4)Cl

> <scaffold>
chlorobenzene-linker

> <clash_score>
0

> <docking_score>
-13.010332107543945

> <overlap_score>
0.9783056974411011

> <MMFF_internal_energy>
120.65299881521071

> <docked_smiles>
c1ccc2c(c1)cncc2NC(=O)[C@H](CCC3CCCCC3)c4cccc(c4)Cl

$$$$
PET-UNK-8df914d1-5_1
  -OEChem-07262101013D

 33 35  0     0  0  0  0  0  0999 V2000
   11.9780    0.4600   23.9150 C   0  0  0  0  0  0  0  0  0  0  0  0
   10.6560    0.0720   23.7350 C   0  0  0  0  0  0  0  0  0  0  0  0
   12.9840   -0.1200   23.1530 C   0  0  0  0  0  0  0  0  0  0  0  0
   11.3360   -1.5050   22.0650 C   0  0  0  0  0  0  0  0  0  0  0  0
    6.3150   -0.6835   18.3487 C   0  0  0  0  0  0  0  0  0  0  0  0
    5.4543    1.2620   18.4181 C   0  0  0  0  0  0  0  0  0  0  0  0
   10.3220   -0.8940   22.7910 C   0  0  0  0  0  0  0  0  0  0  0  0
   12.6400   -1.1000   22.2390 C   0  0  0  0  0  0  0  0  0  0  0  0
    6.5908   -0.2043   19.6076 C   0  0  0  0  0  0  0  0  0  0  0  0
    8.3880   -0.3240   21.3070 C   0  0  0  0  0  0  0  0  0  0  0  0
    5.0095    1.8950   21.8408 C   0  0  0  0  0  0  0  0  0  0  0  0
    4.9813    3.0405   20.8781 C   0  0  0  0  0  0  0  0  0  0  0  0
    6.0443    1.9757   20.7430 C   0  0  0  0  0  0  0  0  0  0  0  0
    8.8810   -1.1900   22.4510 C   0  0  0  0  0  0  0  0  0  0  0  0
    5.6075    0.2342   17.6131 N   0  0  0  0  0  0  0  0  0  0  0  0
    6.0336    1.0430   19.6370 N   0  0  0  0  0  0  0  0  0  0  0  0
    7.2820   -0.7860   20.6970 N   0  0  0  0  0  0  0  0  0  0  0  0
    8.9170    0.7530   21.0260 O   0  0  0  0  0  0  0  0  0  0  0  0
   13.8840   -1.8490   21.2740 Cl  0  0  0  0  0  0  0  0  0  0  0  0
   12.2249    1.2198   24.6546 H   0  0  0  0  0  0  0  0  0  0  0  0
    9.8763    0.5350   24.3454 H   0  0  0  0  0  0  0  0  0  0  0  0
   14.0077    0.1988   23.2842 H   0  0  0  0  0  0  0  0  0  0  0  0
   11.0892   -2.3009   21.3624 H   0  0  0  0  0  0  0  0  0  0  0  0
    6.5880   -1.6423   17.9316 H   0  0  0  0  0  0  0  0  0  0  0  0
    4.9386    2.1813   18.1760 H   0  0  0  0  0  0  0  0  0  0  0  0
    5.3355    2.0953   22.8543 H   0  0  0  0  0  0  0  0  0  0  0  0
    4.2278    1.1496   21.7610 H   0  0  0  0  0  0  0  0  0  0  0  0
    4.1807    3.0660   20.1489 H   0  0  0  0  0  0  0  0  0  0  0  0
    5.2880    4.0140   21.2410 H   0  0  0  0  0  0  0  0  0  0  0  0
    7.0508    2.2493   21.0394 H   0  0  0  0  0  0  0  0  0  0  0  0
    8.7709   -2.2387   22.1706 H   0  0  0  0  0  0  0  0  0  0  0  0
    8.2491   -1.0157   23.3232 H   0  0  0  0  0  0  0  0  0  0  0  0
    6.8973   -1.6552   21.0612 H   0  0  0  0  0  0  0  0  0  0  0  0
  1  2  1  0  0  0  0
  1  3  2  0  0  0  0
  2  7  2  0  0  0  0
  3  8  1  0  0  0  0
  4  7  1  0  0  0  0
  4  8  2  0  0  0  0
  5  9  2  0  0  0  0
  5 15  1  0  0  0  0
  6 15  2  0  0  0  0
  6 16  1  0  0  0  0
  7 14  1  0  0  0  0
  8 19  1  0  0  0  0
  9 16  1  0  0  0  0
  9 17  1  0  0  0  0
 10 14  1  0  0  0  0
 10 17  1  0  0  0  0
 10 18  2  0  0  0  0
 11 12  1  0  0  0  0
 11 13  1  0  0  0  0
 12 13  1  0  0  0  0
 13 16  1  0  0  0  0
  1 20  1  0  0  0  0
  2 21  1  0  0  0  0
  3 22  1  0  0  0  0
  4 23  1  0  0  0  0
  5 24  1  0  0  0  0
  6 25  1  0  0  0  0
 11 26  1  0  0  0  0
 11 27  1  0  0  0  0
 12 28  1  0  0  0  0
 12 29  1  0  0  0  0
 13 30  1  0  0  0  0
 14 31  1  0  0  0  0
 14 32  1  0  0  0  0
 17 33  1  0  0  0  0
M  END
> <compound>
PET-UNK-8df914d1-5

> <compound_smiles>
c1cc(cc(c1)Cl)CC(=O)Nc2cncn2C3CC3

> <enantiomer_smiles>
c1cc(cc(c1)Cl)CC(=O)Nc2cncn2C3CC3

> <scaffold>
chlorobenzene-linker

> <clash_score>
0

> <docking_score>
-7.316275596618652

> <overlap_score>
0.8300000429153442

> <MMFF_internal_energy>
95.00887894640977

> <docked_smiles>
c1cc(cc(c1)Cl)CC(=O)Nc2cncn2C3CC3

$$$$
MIC-UNK-8373f97b-4_1
  -OEChem-07262101013D

 40 42  0     1  0  0  0  0  0999 V2000
   11.9780    0.4600   23.9150 C   0  0  0  0  0  0  0  0  0  0  0  0
   10.6560    0.0720   23.7350 C   0  0  0  0  0  0  0  0  0  0  0  0
   12.9840   -0.1200   23.1530 C   0  0  0  0  0  0  0  0  0  0  0  0
   11.3360   -1.5050   22.0650 C   0  0  0  0  0  0  0  0  0  0  0  0
   10.3220   -0.8940   22.7910 C   0  0  0  0  0  0  0  0  0  0  0  0
   12.6400   -1.1000   22.2390 C   0  0  0  0  0  0  0  0  0  0  0  0
    5.4181   -0.8592   19.1362 C   0  0  0  0  0  0  0  0  0  0  0  0
    8.3880   -0.3240   21.3070 C   0  0  0  0  0  0  0  0  0  0  0  0
    4.4066    2.3736   21.7529 C   0  0  0  0  0  0  0  0  0  0  0  0
    3.2586    2.2987   20.7549 C   0  0  0  0  0  0  0  0  0  0  0  0
    5.4055    1.2514   21.5047 C   0  0  0  0  0  0  0  0  0  0  0  0
    3.7738    2.4168   19.3272 C   0  0  0  0  0  0  0  0  0  0  0  0
    6.6074   -0.0713   19.6582 C   0  0  2  0  0  0  0  0  0  0  0  0
    5.9730    1.2717   20.0726 C   0  0  2  0  0  0  0  0  0  0  0  0
    4.8915    1.4356   18.9958 C   0  0  2  0  0  0  0  0  0  0  0  0
    8.8810   -1.1900   22.4510 C   0  0  0  0  0  0  0  0  0  0  0  0
    4.4433    0.0784   18.7908 N   0  0  0  0  0  0  0  0  0  0  0  0
    7.2820   -0.7860   20.6970 N   0  0  0  0  0  0  0  0  0  0  0  0
    5.3553   -2.0711   19.0008 O   0  0  0  0  0  0  0  0  0  0  0  0
    8.9170    0.7530   21.0260 O   0  0  0  0  0  0  0  0  0  0  0  0
   13.8840   -1.8490   21.2740 Cl  0  0  0  0  0  0  0  0  0  0  0  0
   12.2249    1.2198   24.6546 H   0  0  0  0  0  0  0  0  0  0  0  0
    9.8763    0.5350   24.3454 H   0  0  0  0  0  0  0  0  0  0  0  0
   14.0077    0.1988   23.2842 H   0  0  0  0  0  0  0  0  0  0  0  0
   11.0892   -2.3009   21.3624 H   0  0  0  0  0  0  0  0  0  0  0  0
    4.9095    3.3450   21.6754 H   0  0  0  0  0  0  0  0  0  0  0  0
    4.0125    2.2949   22.7724 H   0  0  0  0  0  0  0  0  0  0  0  0
    2.7171    1.3531   20.8790 H   0  0  0  0  0  0  0  0  0  0  0  0
    2.5438    3.1050   20.9542 H   0  0  0  0  0  0  0  0  0  0  0  0
    6.2277    1.3345   22.2256 H   0  0  0  0  0  0  0  0  0  0  0  0
    4.9089    0.2941   21.7095 H   0  0  0  0  0  0  0  0  0  0  0  0
    2.9437    2.3027   18.6198 H   0  0  0  0  0  0  0  0  0  0  0  0
    4.1584    3.4351   19.1836 H   0  0  0  0  0  0  0  0  0  0  0  0
    7.3110    0.0690   18.8295 H   0  0  0  0  0  0  0  0  0  0  0  0
    6.7088    2.0817   19.9974 H   0  0  0  0  0  0  0  0  0  0  0  0
    5.3551    1.7392   18.0477 H   0  0  0  0  0  0  0  0  0  0  0  0
    8.7773   -2.2383   22.1737 H   0  0  0  0  0  0  0  0  0  0  0  0
    8.2516   -1.0144   23.3225 H   0  0  0  0  0  0  0  0  0  0  0  0
    3.5240   -0.1661   18.4360 H   0  0  0  0  0  0  0  0  0  0  0  0
    6.9059   -1.6906   20.9897 H   0  0  0  0  0  0  0  0  0  0  0  0
  1  2  1  0  0  0  0
  1  3  2  0  0  0  0
  2  5  2  0  0  0  0
  3  6  1  0  0  0  0
  4  5  1  0  0  0  0
  4  6  2  0  0  0  0
  5 16  1  0  0  0  0
  6 21  1  0  0  0  0
  7 13  1  0  0  0  0
  7 17  1  0  0  0  0
  7 19  2  0  0  0  0
  8 16  1  0  0  0  0
  8 18  1  0  0  0  0
  8 20  2  0  0  0  0
  9 10  1  0  0  0  0
  9 11  1  0  0  0  0
 10 12  1  0  0  0  0
 11 14  1  1  0  0  0
 12 15  1  1  0  0  0
 13 14  1  0  0  0  0
 13 18  1  1  0  0  0
 14 15  1  0  0  0  0
 15 17  1  0  0  0  0
  1 22  1  0  0  0  0
  2 23  1  0  0  0  0
  3 24  1  0  0  0  0
  4 25  1  0  0  0  0
  9 26  1  0  0  0  0
  9 27  1  0  0  0  0
 10 28  1  0  0  0  0
 10 29  1  0  0  0  0
 11 30  1  0  0  0  0
 11 31  1  0  0  0  0
 12 32  1  0  0  0  0
 12 33  1  0  0  0  0
 13 34  1  0  0  0  0
 14 35  1  0  0  0  0
 15 36  1  0  0  0  0
 16 37  1  0  0  0  0
 16 38  1  0  0  0  0
 17 39  1  0  0  0  0
 18 40  1  0  0  0  0
M  END
> <compound>
MIC-UNK-8373f97b-4

> <compound_smiles>
c1cc(cc(c1)Cl)CC(=O)NC2C3CCCCC3NC2=O

> <enantiomer_smiles>
c1cc(cc(c1)Cl)CC(=O)N[C@@H]2[C@@H]3CCCC[C@@H]3NC2=O

> <scaffold>
chlorobenzene-linker

> <clash_score>
0

> <docking_score>
-6.866354465484619

> <overlap_score>
0.8892936706542969

> <MMFF_internal_energy>
33.36815297832201

> <docked_smiles>
c1cc(cc(c1)Cl)CC(=O)N[C@@H]2[C@@H]3CCCC[C@@H]3NC2=O

$$$$
MIC-UNK-8373f97b-4_3
  -OEChem-07262101013D

 40 42  0     1  0  0  0  0  0999 V2000
   11.9780    0.4600   23.9150 C   0  0  0  0  0  0  0  0  0  0  0  0
   10.6560    0.0720   23.7350 C   0  0  0  0  0  0  0  0  0  0  0  0
   12.9840   -0.1200   23.1530 C   0  0  0  0  0  0  0  0  0  0  0  0
   11.3360   -1.5050   22.0650 C   0  0  0  0  0  0  0  0  0  0  0  0
   10.3220   -0.8940   22.7910 C   0  0  0  0  0  0  0  0  0  0  0  0
   12.6400   -1.1000   22.2390 C   0  0  0  0  0  0  0  0  0  0  0  0
    5.9241   -1.0450   18.7004 C   0  0  0  0  0  0  0  0  0  0  0  0
    8.3880   -0.3240   21.3070 C   0  0  0  0  0  0  0  0  0  0  0  0
    4.3074    2.7851   21.0407 C   0  0  0  0  0  0  0  0  0  0  0  0
    3.3296    2.7629   19.8529 C   0  0  0  0  0  0  0  0  0  0  0  0
    5.6629    2.1295   20.7289 C   0  0  0  0  0  0  0  0  0  0  0  0
    3.2016    1.3797   19.1928 C   0  0  0  0  0  0  0  0  0  0  0  0
    6.6073   -0.0714   19.6582 C   0  0  2  0  0  0  0  0  0  0  0  0
    5.4176    0.7486   20.1461 C   0  0  1  0  0  0  0  0  0  0  0  0
    4.5931    0.8682   18.8704 C   0  0  2  0  0  0  0  0  0  0  0  0
    8.8810   -1.1900   22.4510 C   0  0  0  0  0  0  0  0  0  0  0  0
    4.7146   -0.4471   18.3138 N   0  0  0  0  0  0  0  0  0  0  0  0
    7.2820   -0.7860   20.6970 N   0  0  0  0  0  0  0  0  0  0  0  0
    6.3700   -2.1155   18.3175 O   0  0  0  0  0  0  0  0  0  0  0  0
    8.9170    0.7530   21.0260 O   0  0  0  0  0  0  0  0  0  0  0  0
   13.8840   -1.8490   21.2740 Cl  0  0  0  0  0  0  0  0  0  0  0  0
   12.2249    1.2198   24.6546 H   0  0  0  0  0  0  0  0  0  0  0  0
    9.8763    0.5350   24.3454 H   0  0  0  0  0  0  0  0  0  0  0  0
   14.0077    0.1988   23.2842 H   0  0  0  0  0  0  0  0  0  0  0  0
   11.0892   -2.3008   21.3624 H   0  0  0  0  0  0  0  0  0  0  0  0
    4.4661    3.8195   21.3659 H   0  0  0  0  0  0  0  0  0  0  0  0
    3.8448    2.2568   21.8841 H   0  0  0  0  0  0  0  0  0  0  0  0
    2.3424    3.1047   20.1840 H   0  0  0  0  0  0  0  0  0  0  0  0
    3.6769    3.4827   19.1008 H   0  0  0  0  0  0  0  0  0  0  0  0
    6.2213    2.7542   20.0215 H   0  0  0  0  0  0  0  0  0  0  0  0
    6.2612    2.0597   21.6439 H   0  0  0  0  0  0  0  0  0  0  0  0
    2.6825    0.6945   19.8738 H   0  0  0  0  0  0  0  0  0  0  0  0
    2.5981    1.4589   18.2818 H   0  0  0  0  0  0  0  0  0  0  0  0
    7.3364    0.5300   19.1051 H   0  0  0  0  0  0  0  0  0  0  0  0
    4.8566    0.1551   20.8864 H   0  0  0  0  0  0  0  0  0  0  0  0
    5.0741    1.5490   18.1537 H   0  0  0  0  0  0  0  0  0  0  0  0
    8.7773   -2.2383   22.1737 H   0  0  0  0  0  0  0  0  0  0  0  0
    8.2516   -1.0144   23.3225 H   0  0  0  0  0  0  0  0  0  0  0  0
    4.0190   -0.8873   17.7197 H   0  0  0  0  0  0  0  0  0  0  0  0
    6.9059   -1.6906   20.9897 H   0  0  0  0  0  0  0  0  0  0  0  0
  1  2  1  0  0  0  0
  1  3  2  0  0  0  0
  2  5  2  0  0  0  0
  3  6  1  0  0  0  0
  4  5  1  0  0  0  0
  4  6  2  0  0  0  0
  5 16  1  0  0  0  0
  6 21  1  0  0  0  0
  7 13  1  0  0  0  0
  7 17  1  0  0  0  0
  7 19  2  0  0  0  0
  8 16  1  0  0  0  0
  8 18  1  0  0  0  0
  8 20  2  0  0  0  0
  9 10  1  0  0  0  0
  9 11  1  0  0  0  0
 10 12  1  0  0  0  0
 11 14  1  6  0  0  0
 12 15  1  1  0  0  0
 13 14  1  0  0  0  0
 13 18  1  1  0  0  0
 14 15  1  0  0  0  0
 15 17  1  0  0  0  0
  1 22  1  0  0  0  0
  2 23  1  0  0  0  0
  3 24  1  0  0  0  0
  4 25  1  0  0  0  0
  9 26  1  0  0  0  0
  9 27  1  0  0  0  0
 10 28  1  0  0  0  0
 10 29  1  0  0  0  0
 11 30  1  0  0  0  0
 11 31  1  0  0  0  0
 12 32  1  0  0  0  0
 12 33  1  0  0  0  0
 13 34  1  0  0  0  0
 14 35  1  0  0  0  0
 15 36  1  0  0  0  0
 16 37  1  0  0  0  0
 16 38  1  0  0  0  0
 17 39  1  0  0  0  0
 18 40  1  0  0  0  0
M  END
> <compound>
MIC-UNK-8373f97b-4

> <compound_smiles>
c1cc(cc(c1)Cl)CC(=O)NC2C3CCCCC3NC2=O

> <enantiomer_smiles>
c1cc(cc(c1)Cl)CC(=O)N[C@@H]2[C@H]3CCCC[C@@H]3NC2=O

> <scaffold>
chlorobenzene-linker

> <clash_score>
0

> <docking_score>
-6.31840705871582

> <overlap_score>
0.8617206811904907

> <MMFF_internal_energy>
38.36880250073788

> <docked_smiles>
c1cc(cc(c1)Cl)CC(=O)N[C@@H]2[C@H]3CCCC[C@@H]3NC2=O

$$$$
MIC-UNK-8373f97b-4_4
  -OEChem-07262101013D

 40 42  0     1  0  0  0  0  0999 V2000
   11.9780    0.4600   23.9150 C   0  0  0  0  0  0  0  0  0  0  0  0
   10.6560    0.0720   23.7350 C   0  0  0  0  0  0  0  0  0  0  0  0
   12.9840   -0.1200   23.1530 C   0  0  0  0  0  0  0  0  0  0  0  0
   11.3360   -1.5050   22.0650 C   0  0  0  0  0  0  0  0  0  0  0  0
   10.3220   -0.8940   22.7910 C   0  0  0  0  0  0  0  0  0  0  0  0
   12.6400   -1.1000   22.2390 C   0  0  0  0  0  0  0  0  0  0  0  0
    7.5933    0.9407   19.0765 C   0  0  0  0  0  0  0  0  0  0  0  0
    8.3880   -0.3240   21.3070 C   0  0  0  0  0  0  0  0  0  0  0  0
    3.4962    1.5180   21.4671 C   0  0  0  0  0  0  0  0  0  0  0  0
    4.1501    2.8893   21.7114 C   0  0  0  0  0  0  0  0  0  0  0  0
    4.5137    0.3936   21.2089 C   0  0  0  0  0  0  0  0  0  0  0  0
    5.2107    3.2569   20.6597 C   0  0  0  0  0  0  0  0  0  0  0  0
    6.6076   -0.0685   19.6565 C   0  0  1  0  0  0  0  0  0  0  0  0
    5.4659    0.8384   20.1108 C   0  0  1  0  0  0  0  0  0  0  0  0
    6.1923    2.1056   20.5398 C   0  0  2  0  0  0  0  0  0  0  0  0
    8.8810   -1.1900   22.4510 C   0  0  0  0  0  0  0  0  0  0  0  0
    7.2302    2.2070   19.5576 N   0  0  0  0  0  0  0  0  0  0  0  0
    7.2820   -0.7860   20.6970 N   0  0  0  0  0  0  0  0  0  0  0  0
    8.5665    0.6699   18.3888 O   0  0  0  0  0  0  0  0  0  0  0  0
    8.9170    0.7530   21.0260 O   0  0  0  0  0  0  0  0  0  0  0  0
   13.8840   -1.8490   21.2740 Cl  0  0  0  0  0  0  0  0  0  0  0  0
   12.2249    1.2198   24.6546 H   0  0  0  0  0  0  0  0  0  0  0  0
    9.8763    0.5350   24.3454 H   0  0  0  0  0  0  0  0  0  0  0  0
   14.0077    0.1988   23.2842 H   0  0  0  0  0  0  0  0  0  0  0  0
   11.0892   -2.3009   21.3624 H   0  0  0  0  0  0  0  0  0  0  0  0
    2.8671    1.2535   22.3245 H   0  0  0  0  0  0  0  0  0  0  0  0
    2.8292    1.5983   20.5993 H   0  0  0  0  0  0  0  0  0  0  0  0
    3.3765    3.6650   21.7390 H   0  0  0  0  0  0  0  0  0  0  0  0
    4.6228    2.8796   22.7018 H   0  0  0  0  0  0  0  0  0  0  0  0
    5.0571    0.1753   22.1358 H   0  0  0  0  0  0  0  0  0  0  0  0
    3.9895   -0.5219   20.9138 H   0  0  0  0  0  0  0  0  0  0  0  0
    4.7213    3.4538   19.6982 H   0  0  0  0  0  0  0  0  0  0  0  0
    5.7270    4.1752   20.9606 H   0  0  0  0  0  0  0  0  0  0  0  0
    6.2839   -0.7774   18.8895 H   0  0  0  0  0  0  0  0  0  0  0  0
    4.8609    1.0551   19.2152 H   0  0  0  0  0  0  0  0  0  0  0  0
    6.6986    1.9627   21.5046 H   0  0  0  0  0  0  0  0  0  0  0  0
    8.7773   -2.2383   22.1737 H   0  0  0  0  0  0  0  0  0  0  0  0
    8.2516   -1.0144   23.3225 H   0  0  0  0  0  0  0  0  0  0  0  0
    7.6477    3.0800   19.2505 H   0  0  0  0  0  0  0  0  0  0  0  0
    6.9058   -1.6895   20.9889 H   0  0  0  0  0  0  0  0  0  0  0  0
  1  2  1  0  0  0  0
  1  3  2  0  0  0  0
  2  5  2  0  0  0  0
  3  6  1  0  0  0  0
  4  5  1  0  0  0  0
  4  6  2  0  0  0  0
  5 16  1  0  0  0  0
  6 21  1  0  0  0  0
  7 13  1  0  0  0  0
  7 17  1  0  0  0  0
  7 19  2  0  0  0  0
  8 16  1  0  0  0  0
  8 18  1  0  0  0  0
  8 20  2  0  0  0  0
  9 10  1  0  0  0  0
  9 11  1  0  0  0  0
 10 12  1  0  0  0  0
 11 14  1  6  0  0  0
 12 15  1  1  0  0  0
 13 14  1  0  0  0  0
 13 18  1  6  0  0  0
 14 15  1  0  0  0  0
 15 17  1  0  0  0  0
  1 22  1  0  0  0  0
  2 23  1  0  0  0  0
  3 24  1  0  0  0  0
  4 25  1  0  0  0  0
  9 26  1  0  0  0  0
  9 27  1  0  0  0  0
 10 28  1  0  0  0  0
 10 29  1  0  0  0  0
 11 30  1  0  0  0  0
 11 31  1  0  0  0  0
 12 32  1  0  0  0  0
 12 33  1  0  0  0  0
 13 34  1  0  0  0  0
 14 35  1  0  0  0  0
 15 36  1  0  0  0  0
 16 37  1  0  0  0  0
 16 38  1  0  0  0  0
 17 39  1  0  0  0  0
 18 40  1  0  0  0  0
M  END
> <compound>
MIC-UNK-8373f97b-4

> <compound_smiles>
c1cc(cc(c1)Cl)CC(=O)NC2C3CCCCC3NC2=O

> <enantiomer_smiles>
c1cc(cc(c1)Cl)CC(=O)N[C@H]2[C@H]3CCCC[C@@H]3NC2=O

> <scaffold>
chlorobenzene-linker

> <clash_score>
0.6098026559989373

> <docking_score>
-4.024116516113281

> <overlap_score>
0.8074914216995239

> <MMFF_internal_energy>
63.155132816621624

> <docked_smiles>
c1cc(cc(c1)Cl)CC(=O)N[C@H]2[C@H]3CCCC[C@@H]3NC2=O

$$$$
MIC-UNK-8373f97b-4_5
  -OEChem-07262101013D

 40 42  0     1  0  0  0  0  0999 V2000
   11.9780    0.4600   23.9150 C   0  0  0  0  0  0  0  0  0  0  0  0
   10.6560    0.0720   23.7350 C   0  0  0  0  0  0  0  0  0  0  0  0
   12.9840   -0.1200   23.1530 C   0  0  0  0  0  0  0  0  0  0  0  0
   11.3360   -1.5050   22.0650 C   0  0  0  0  0  0  0  0  0  0  0  0
   10.3220   -0.8940   22.7910 C   0  0  0  0  0  0  0  0  0  0  0  0
   12.6400   -1.1000   22.2390 C   0  0  0  0  0  0  0  0  0  0  0  0
    5.4033   -0.9005   19.2220 C   0  0  0  0  0  0  0  0  0  0  0  0
    8.3880   -0.3240   21.3070 C   0  0  0  0  0  0  0  0  0  0  0  0
    5.6990    3.3840   21.3152 C   0  0  0  0  0  0  0  0  0  0  0  0
    4.2675    2.9850   21.7130 C   0  0  0  0  0  0  0  0  0  0  0  0
    6.6192    2.1775   21.0634 C   0  0  0  0  0  0  0  0  0  0  0  0
    3.6468    1.9305   20.7814 C   0  0  0  0  0  0  0  0  0  0  0  0
    6.6069   -0.0682   19.6557 C   0  0  2  0  0  0  0  0  0  0  0  0
    5.9383    1.2384   20.0807 C   0  0  2  0  0  0  0  0  0  0  0  0
    4.6109    0.7649   20.6564 C   0  0  1  0  0  0  0  0  0  0  0  0
    8.8810   -1.1900   22.4510 C   0  0  0  0  0  0  0  0  0  0  0  0
    4.2589   -0.3015   19.7668 N   0  0  0  0  0  0  0  0  0  0  0  0
    7.2820   -0.7860   20.6970 N   0  0  0  0  0  0  0  0  0  0  0  0
    5.4524   -1.9447   18.5891 O   0  0  0  0  0  0  0  0  0  0  0  0
    8.9170    0.7530   21.0260 O   0  0  0  0  0  0  0  0  0  0  0  0
   13.8840   -1.8490   21.2740 Cl  0  0  0  0  0  0  0  0  0  0  0  0
   12.2249    1.2198   24.6546 H   0  0  0  0  0  0  0  0  0  0  0  0
    9.8763    0.5350   24.3454 H   0  0  0  0  0  0  0  0  0  0  0  0
   14.0077    0.1988   23.2842 H   0  0  0  0  0  0  0  0  0  0  0  0
   11.0892   -2.3009   21.3624 H   0  0  0  0  0  0  0  0  0  0  0  0
    5.6528    3.9915   20.4024 H   0  0  0  0  0  0  0  0  0  0  0  0
    6.1329    4.0199   22.0951 H   0  0  0  0  0  0  0  0  0  0  0  0
    4.2869    2.5861   22.7352 H   0  0  0  0  0  0  0  0  0  0  0  0
    3.6306    3.8765   21.7343 H   0  0  0  0  0  0  0  0  0  0  0  0
    7.5795    2.5199   20.6626 H   0  0  0  0  0  0  0  0  0  0  0  0
    6.8235    1.6709   22.0140 H   0  0  0  0  0  0  0  0  0  0  0  0
    2.6867    1.5957   21.1893 H   0  0  0  0  0  0  0  0  0  0  0  0
    3.4493    2.3791   19.8002 H   0  0  0  0  0  0  0  0  0  0  0  0
    7.2970    0.0798   18.8214 H   0  0  0  0  0  0  0  0  0  0  0  0
    5.7475    1.8086   19.1568 H   0  0  0  0  0  0  0  0  0  0  0  0
    4.7502    0.3052   21.6448 H   0  0  0  0  0  0  0  0  0  0  0  0
    8.7773   -2.2383   22.1737 H   0  0  0  0  0  0  0  0  0  0  0  0
    8.2516   -1.0144   23.3225 H   0  0  0  0  0  0  0  0  0  0  0  0
    3.3069   -0.5857   19.5585 H   0  0  0  0  0  0  0  0  0  0  0  0
    6.9058   -1.6896   20.9890 H   0  0  0  0  0  0  0  0  0  0  0  0
  1  2  1  0  0  0  0
  1  3  2  0  0  0  0
  2  5  2  0  0  0  0
  3  6  1  0  0  0  0
  4  5  1  0  0  0  0
  4  6  2  0  0  0  0
  5 16  1  0  0  0  0
  6 21  1  0  0  0  0
  7 13  1  0  0  0  0
  7 17  1  0  0  0  0
  7 19  2  0  0  0  0
  8 16  1  0  0  0  0
  8 18  1  0  0  0  0
  8 20  2  0  0  0  0
  9 10  1  0  0  0  0
  9 11  1  0  0  0  0
 10 12  1  0  0  0  0
 11 14  1  1  0  0  0
 12 15  1  6  0  0  0
 13 14  1  0  0  0  0
 13 18  1  1  0  0  0
 14 15  1  0  0  0  0
 15 17  1  0  0  0  0
  1 22  1  0  0  0  0
  2 23  1  0  0  0  0
  3 24  1  0  0  0  0
  4 25  1  0  0  0  0
  9 26  1  0  0  0  0
  9 27  1  0  0  0  0
 10 28  1  0  0  0  0
 10 29  1  0  0  0  0
 11 30  1  0  0  0  0
 11 31  1  0  0  0  0
 12 32  1  0  0  0  0
 12 33  1  0  0  0  0
 13 34  1  0  0  0  0
 14 35  1  0  0  0  0
 15 36  1  0  0  0  0
 16 37  1  0  0  0  0
 16 38  1  0  0  0  0
 17 39  1  0  0  0  0
 18 40  1  0  0  0  0
M  END
> <compound>
MIC-UNK-8373f97b-4

> <compound_smiles>
c1cc(cc(c1)Cl)CC(=O)NC2C3CCCCC3NC2=O

> <enantiomer_smiles>
c1cc(cc(c1)Cl)CC(=O)N[C@@H]2[C@@H]3CCCC[C@H]3NC2=O

> <scaffold>
chlorobenzene-linker

> <clash_score>
0

> <docking_score>
-5.688442707061768

> <overlap_score>
0.8089997172355652

> <MMFF_internal_energy>
45.29911175799218

> <docked_smiles>
c1cc(cc(c1)Cl)CC(=O)N[C@@H]2[C@@H]3CCCC[C@H]3NC2=O

$$$$
MIC-UNK-8373f97b-4_2
  -OEChem-07262101013D

 40 42  0     1  0  0  0  0  0999 V2000
   11.9780    0.4600   23.9150 C   0  0  0  0  0  0  0  0  0  0  0  0
   10.6560    0.0720   23.7350 C   0  0  0  0  0  0  0  0  0  0  0  0
   12.9840   -0.1200   23.1530 C   0  0  0  0  0  0  0  0  0  0  0  0
   11.3360   -1.5050   22.0650 C   0  0  0  0  0  0  0  0  0  0  0  0
   10.3220   -0.8940   22.7910 C   0  0  0  0  0  0  0  0  0  0  0  0
   12.6400   -1.1000   22.2390 C   0  0  0  0  0  0  0  0  0  0  0  0
    7.5419    0.1336   18.4778 C   0  0  0  0  0  0  0  0  0  0  0  0
    8.3880   -0.3240   21.3070 C   0  0  0  0  0  0  0  0  0  0  0  0
    3.6853    1.3685   20.0470 C   0  0  0  0  0  0  0  0  0  0  0  0
    3.6989    2.2764   18.8230 C   0  0  0  0  0  0  0  0  0  0  0  0
    4.9637    1.5239   20.8627 C   0  0  0  0  0  0  0  0  0  0  0  0
    4.8929    1.9624   17.9312 C   0  0  0  0  0  0  0  0  0  0  0  0
    6.6072   -0.0690   19.6565 C   0  0  1  0  0  0  0  0  0  0  0  0
    6.2436    1.3733   20.0426 C   0  0  2  0  0  0  0  0  0  0  0  0
    6.2205    2.0842   18.6847 C   0  0  2  0  0  0  0  0  0  0  0  0
    8.8810   -1.1900   22.4510 C   0  0  0  0  0  0  0  0  0  0  0  0
    7.2695    1.4010   17.9626 N   0  0  0  0  0  0  0  0  0  0  0  0
    7.2820   -0.7860   20.6970 N   0  0  0  0  0  0  0  0  0  0  0  0
    8.3454   -0.6780   18.0448 O   0  0  0  0  0  0  0  0  0  0  0  0
    8.9170    0.7530   21.0260 O   0  0  0  0  0  0  0  0  0  0  0  0
   13.8840   -1.8490   21.2740 Cl  0  0  0  0  0  0  0  0  0  0  0  0
   12.2249    1.2198   24.6546 H   0  0  0  0  0  0  0  0  0  0  0  0
    9.8763    0.5350   24.3454 H   0  0  0  0  0  0  0  0  0  0  0  0
   14.0077    0.1988   23.2842 H   0  0  0  0  0  0  0  0  0  0  0  0
   11.0892   -2.3009   21.3624 H   0  0  0  0  0  0  0  0  0  0  0  0
    2.8206    1.6124   20.6749 H   0  0  0  0  0  0  0  0  0  0  0  0
    3.5647    0.3246   19.7344 H   0  0  0  0  0  0  0  0  0  0  0  0
    2.7712    2.1419   18.2556 H   0  0  0  0  0  0  0  0  0  0  0  0
    3.7349    3.3266   19.1369 H   0  0  0  0  0  0  0  0  0  0  0  0
    4.9609    2.5257   21.3118 H   0  0  0  0  0  0  0  0  0  0  0  0
    4.9600    0.8118   21.6960 H   0  0  0  0  0  0  0  0  0  0  0  0
    4.7690    0.9474   17.5306 H   0  0  0  0  0  0  0  0  0  0  0  0
    4.8968    2.6376   17.0671 H   0  0  0  0  0  0  0  0  0  0  0  0
    5.7432   -0.6543   19.3301 H   0  0  0  0  0  0  0  0  0  0  0  0
    7.0723    1.7950   20.6316 H   0  0  0  0  0  0  0  0  0  0  0  0
    6.4973    3.1386   18.7939 H   0  0  0  0  0  0  0  0  0  0  0  0
    8.7773   -2.2383   22.1737 H   0  0  0  0  0  0  0  0  0  0  0  0
    8.2516   -1.0144   23.3225 H   0  0  0  0  0  0  0  0  0  0  0  0
    7.7558    1.8004   17.1662 H   0  0  0  0  0  0  0  0  0  0  0  0
    6.9058   -1.6898   20.9891 H   0  0  0  0  0  0  0  0  0  0  0  0
  1  2  1  0  0  0  0
  1  3  2  0  0  0  0
  2  5  2  0  0  0  0
  3  6  1  0  0  0  0
  4  5  1  0  0  0  0
  4  6  2  0  0  0  0
  5 16  1  0  0  0  0
  6 21  1  0  0  0  0
  7 13  1  0  0  0  0
  7 17  1  0  0  0  0
  7 19  2  0  0  0  0
  8 16  1  0  0  0  0
  8 18  1  0  0  0  0
  8 20  2  0  0  0  0
  9 10  1  0  0  0  0
  9 11  1  0  0  0  0
 10 12  1  0  0  0  0
 11 14  1  1  0  0  0
 12 15  1  1  0  0  0
 13 14  1  0  0  0  0
 13 18  1  6  0  0  0
 14 15  1  0  0  0  0
 15 17  1  0  0  0  0
  1 22  1  0  0  0  0
  2 23  1  0  0  0  0
  3 24  1  0  0  0  0
  4 25  1  0  0  0  0
  9 26  1  0  0  0  0
  9 27  1  0  0  0  0
 10 28  1  0  0  0  0
 10 29  1  0  0  0  0
 11 30  1  0  0  0  0
 11 31  1  0  0  0  0
 12 32  1  0  0  0  0
 12 33  1  0  0  0  0
 13 34  1  0  0  0  0
 14 35  1  0  0  0  0
 15 36  1  0  0  0  0
 16 37  1  0  0  0  0
 16 38  1  0  0  0  0
 17 39  1  0  0  0  0
 18 40  1  0  0  0  0
M  END
> <compound>
MIC-UNK-8373f97b-4

> <compound_smiles>
c1cc(cc(c1)Cl)CC(=O)NC2C3CCCCC3NC2=O

> <enantiomer_smiles>
c1cc(cc(c1)Cl)CC(=O)N[C@H]2[C@@H]3CCCC[C@@H]3NC2=O

> <scaffold>
chlorobenzene-linker

> <clash_score>
0

> <docking_score>
-3.8430349826812744

> <overlap_score>
0.8790921568870544

> <MMFF_internal_energy>
41.661430813883385

> <docked_smiles>
c1cc(cc(c1)Cl)CC(=O)N[C@H]2[C@@H]3CCCC[C@@H]3NC2=O

$$$$
MIC-UNK-8373f97b-4_6
  -OEChem-07262101013D

 40 42  0     1  0  0  0  0  0999 V2000
   11.9780    0.4600   23.9150 C   0  0  0  0  0  0  0  0  0  0  0  0
   10.6560    0.0720   23.7350 C   0  0  0  0  0  0  0  0  0  0  0  0
   12.9840   -0.1200   23.1530 C   0  0  0  0  0  0  0  0  0  0  0  0
   11.3360   -1.5050   22.0650 C   0  0  0  0  0  0  0  0  0  0  0  0
   10.3220   -0.8940   22.7910 C   0  0  0  0  0  0  0  0  0  0  0  0
   12.6400   -1.1000   22.2390 C   0  0  0  0  0  0  0  0  0  0  0  0
    7.5370    0.9673   19.0323 C   0  0  0  0  0  0  0  0  0  0  0  0
    8.3880   -0.3240   21.3070 C   0  0  0  0  0  0  0  0  0  0  0  0
    3.1237    1.3073   20.8109 C   0  0  0  0  0  0  0  0  0  0  0  0
    3.1092    2.4899   19.8268 C   0  0  0  0  0  0  0  0  0  0  0  0
    4.1095    0.1953   20.4158 C   0  0  0  0  0  0  0  0  0  0  0  0
    4.5134    3.0132   19.4807 C   0  0  0  0  0  0  0  0  0  0  0  0
    6.6072   -0.0710   19.6578 C   0  0  1  0  0  0  0  0  0  0  0  0
    5.4730    0.8151   20.1628 C   0  0  2  0  0  0  0  0  0  0  0  0
    5.3704    1.8410   19.0410 C   0  0  1  0  0  0  0  0  0  0  0  0
    8.8810   -1.1900   22.4510 C   0  0  0  0  0  0  0  0  0  0  0  0
    6.7490    2.0910   18.7400 N   0  0  0  0  0  0  0  0  0  0  0  0
    7.2820   -0.7860   20.6970 N   0  0  0  0  0  0  0  0  0  0  0  0
    8.7268    0.8231   18.7978 O   0  0  0  0  0  0  0  0  0  0  0  0
    8.9170    0.7530   21.0260 O   0  0  0  0  0  0  0  0  0  0  0  0
   13.8840   -1.8490   21.2740 Cl  0  0  0  0  0  0  0  0  0  0  0  0
   12.2249    1.2198   24.6546 H   0  0  0  0  0  0  0  0  0  0  0  0
    9.8763    0.5350   24.3454 H   0  0  0  0  0  0  0  0  0  0  0  0
   14.0077    0.1988   23.2842 H   0  0  0  0  0  0  0  0  0  0  0  0
   11.0892   -2.3009   21.3624 H   0  0  0  0  0  0  0  0  0  0  0  0
    3.3952    1.6835   21.8054 H   0  0  0  0  0  0  0  0  0  0  0  0
    2.1142    0.8894   20.8970 H   0  0  0  0  0  0  0  0  0  0  0  0
    2.6133    2.1690   18.9018 H   0  0  0  0  0  0  0  0  0  0  0  0
    2.5054    3.3049   20.2417 H   0  0  0  0  0  0  0  0  0  0  0  0
    4.1690   -0.5504   21.2159 H   0  0  0  0  0  0  0  0  0  0  0  0
    3.7459   -0.3187   19.5179 H   0  0  0  0  0  0  0  0  0  0  0  0
    4.4433    3.7613   18.6834 H   0  0  0  0  0  0  0  0  0  0  0  0
    4.9479    3.5065   20.3586 H   0  0  0  0  0  0  0  0  0  0  0  0
    6.2814   -0.7774   18.8883 H   0  0  0  0  0  0  0  0  0  0  0  0
    5.8008    1.3195   21.0864 H   0  0  0  0  0  0  0  0  0  0  0  0
    4.9366    1.3923   18.1361 H   0  0  0  0  0  0  0  0  0  0  0  0
    8.7773   -2.2383   22.1737 H   0  0  0  0  0  0  0  0  0  0  0  0
    8.2516   -1.0144   23.3225 H   0  0  0  0  0  0  0  0  0  0  0  0
    7.1074    2.9638   18.3656 H   0  0  0  0  0  0  0  0  0  0  0  0
    6.9059   -1.6905   20.9897 H   0  0  0  0  0  0  0  0  0  0  0  0
  1  2  1  0  0  0  0
  1  3  2  0  0  0  0
  2  5  2  0  0  0  0
  3  6  1  0  0  0  0
  4  5  1  0  0  0  0
  4  6  2  0  0  0  0
  5 16  1  0  0  0  0
  6 21  1  0  0  0  0
  7 13  1  0  0  0  0
  7 17  1  0  0  0  0
  7 19  2  0  0  0  0
  8 16  1  0  0  0  0
  8 18  1  0  0  0  0
  8 20  2  0  0  0  0
  9 10  1  0  0  0  0
  9 11  1  0  0  0  0
 10 12  1  0  0  0  0
 11 14  1  1  0  0  0
 12 15  1  6  0  0  0
 13 14  1  0  0  0  0
 13 18  1  6  0  0  0
 14 15  1  0  0  0  0
 15 17  1  0  0  0  0
  1 22  1  0  0  0  0
  2 23  1  0  0  0  0
  3 24  1  0  0  0  0
  4 25  1  0  0  0  0
  9 26  1  0  0  0  0
  9 27  1  0  0  0  0
 10 28  1  0  0  0  0
 10 29  1  0  0  0  0
 11 30  1  0  0  0  0
 11 31  1  0  0  0  0
 12 32  1  0  0  0  0
 12 33  1  0  0  0  0
 13 34  1  0  0  0  0
 14 35  1  0  0  0  0
 15 36  1  0  0  0  0
 16 37  1  0  0  0  0
 16 38  1  0  0  0  0
 17 39  1  0  0  0  0
 18 40  1  0  0  0  0
M  END
> <compound>
MIC-UNK-8373f97b-4

> <compound_smiles>
c1cc(cc(c1)Cl)CC(=O)NC2C3CCCCC3NC2=O

> <enantiomer_smiles>
c1cc(cc(c1)Cl)CC(=O)N[C@H]2[C@@H]3CCCC[C@H]3NC2=O

> <scaffold>
chlorobenzene-linker

> <clash_score>
1.2440069604677162

> <docking_score>
-2.87235689163208

> <overlap_score>
0.8638908863067627

> <MMFF_internal_energy>
65.77237268277513

> <docked_smiles>
c1cc(cc(c1)Cl)CC(=O)N[C@H]2[C@@H]3CCCC[C@H]3NC2=O

$$$$
MIC-UNK-8373f97b-5_1
  -OEChem-07262101013D

 37 39  0     1  0  0  0  0  0999 V2000
   11.9780    0.4600   23.9150 C   0  0  0  0  0  0  0  0  0  0  0  0
   10.6560    0.0720   23.7350 C   0  0  0  0  0  0  0  0  0  0  0  0
   12.9840   -0.1200   23.1530 C   0  0  0  0  0  0  0  0  0  0  0  0
   11.3360   -1.5050   22.0650 C   0  0  0  0  0  0  0  0  0  0  0  0
   10.3220   -0.8940   22.7910 C   0  0  0  0  0  0  0  0  0  0  0  0
   12.6400   -1.1000   22.2390 C   0  0  0  0  0  0  0  0  0  0  0  0
    5.4283   -0.8653   19.1355 C   0  0  0  0  0  0  0  0  0  0  0  0
    8.3880   -0.3240   21.3070 C   0  0  0  0  0  0  0  0  0  0  0  0
    4.3701    2.4047   21.3968 C   0  0  0  0  0  0  0  0  0  0  0  0
    5.4621    1.3538   21.5125 C   0  0  0  0  0  0  0  0  0  0  0  0
    3.6740    2.0665   20.0828 C   0  0  0  0  0  0  0  0  0  0  0  0
    6.6074   -0.0706   19.6577 C   0  0  2  0  0  0  0  0  0  0  0  0
    5.9935    1.2637   20.0810 C   0  0  2  0  0  0  0  0  0  0  0  0
    4.7410    1.4020   19.2114 C   0  0  2  0  0  0  0  0  0  0  0  0
    8.8810   -1.1900   22.4510 C   0  0  0  0  0  0  0  0  0  0  0  0
    4.4109    0.0427   18.8605 N   0  0  0  0  0  0  0  0  0  0  0  0
    7.2820   -0.7860   20.6970 N   0  0  0  0  0  0  0  0  0  0  0  0
    5.4048   -2.0715   18.9424 O   0  0  0  0  0  0  0  0  0  0  0  0
    8.9170    0.7530   21.0260 O   0  0  0  0  0  0  0  0  0  0  0  0
   13.8840   -1.8490   21.2740 Cl  0  0  0  0  0  0  0  0  0  0  0  0
   12.2249    1.2198   24.6546 H   0  0  0  0  0  0  0  0  0  0  0  0
    9.8763    0.5350   24.3454 H   0  0  0  0  0  0  0  0  0  0  0  0
   14.0077    0.1988   23.2842 H   0  0  0  0  0  0  0  0  0  0  0  0
   11.0892   -2.3009   21.3624 H   0  0  0  0  0  0  0  0  0  0  0  0
    3.6820    2.3876   22.2468 H   0  0  0  0  0  0  0  0  0  0  0  0
    4.8144    3.4056   21.3390 H   0  0  0  0  0  0  0  0  0  0  0  0
    6.2403    1.6450   22.2243 H   0  0  0  0  0  0  0  0  0  0  0  0
    5.0310    0.4024   21.8472 H   0  0  0  0  0  0  0  0  0  0  0  0
    2.8288    1.3918   20.2644 H   0  0  0  0  0  0  0  0  0  0  0  0
    3.2701    2.9669   19.6080 H   0  0  0  0  0  0  0  0  0  0  0  0
    7.3088    0.0710   18.8280 H   0  0  0  0  0  0  0  0  0  0  0  0
    6.6927    2.0890   19.8978 H   0  0  0  0  0  0  0  0  0  0  0  0
    4.9303    1.9541   18.2853 H   0  0  0  0  0  0  0  0  0  0  0  0
    8.7773   -2.2383   22.1737 H   0  0  0  0  0  0  0  0  0  0  0  0
    8.2516   -1.0144   23.3225 H   0  0  0  0  0  0  0  0  0  0  0  0
    3.5309   -0.2271   18.4322 H   0  0  0  0  0  0  0  0  0  0  0  0
    6.9059   -1.6903   20.9895 H   0  0  0  0  0  0  0  0  0  0  0  0
  1  2  1  0  0  0  0
  1  3  2  0  0  0  0
  2  5  2  0  0  0  0
  3  6  1  0  0  0  0
  4  5  1  0  0  0  0
  4  6  2  0  0  0  0
  5 15  1  0  0  0  0
  6 20  1  0  0  0  0
  7 12  1  0  0  0  0
  7 16  1  0  0  0  0
  7 18  2  0  0  0  0
  8 15  1  0  0  0  0
  8 17  1  0  0  0  0
  8 19  2  0  0  0  0
  9 10  1  0  0  0  0
  9 11  1  0  0  0  0
 10 13  1  1  0  0  0
 11 14  1  1  0  0  0
 12 13  1  0  0  0  0
 12 17  1  1  0  0  0
 13 14  1  0  0  0  0
 14 16  1  0  0  0  0
  1 21  1  0  0  0  0
  2 22  1  0  0  0  0
  3 23  1  0  0  0  0
  4 24  1  0  0  0  0
  9 25  1  0  0  0  0
  9 26  1  0  0  0  0
 10 27  1  0  0  0  0
 10 28  1  0  0  0  0
 11 29  1  0  0  0  0
 11 30  1  0  0  0  0
 12 31  1  0  0  0  0
 13 32  1  0  0  0  0
 14 33  1  0  0  0  0
 15 34  1  0  0  0  0
 15 35  1  0  0  0  0
 16 36  1  0  0  0  0
 17 37  1  0  0  0  0
M  END
> <compound>
MIC-UNK-8373f97b-5

> <compound_smiles>
c1cc(cc(c1)Cl)CC(=O)NC2C3CCCC3NC2=O

> <enantiomer_smiles>
c1cc(cc(c1)Cl)CC(=O)N[C@@H]2[C@@H]3CCC[C@@H]3NC2=O

> <scaffold>
chlorobenzene-linker

> <clash_score>
0

> <docking_score>
-6.811714172363281

> <overlap_score>
0.8579577207565308

> <MMFF_internal_energy>
36.79357978497708

> <docked_smiles>
c1cc(cc(c1)Cl)CC(=O)N[C@@H]2[C@@H]3CCC[C@@H]3NC2=O

$$$$
MIC-UNK-8373f97b-5_2
  -OEChem-07262101013D

 37 39  0     1  0  0  0  0  0999 V2000
   11.9780    0.4600   23.9150 C   0  0  0  0  0  0  0  0  0  0  0  0
   10.6560    0.0720   23.7350 C   0  0  0  0  0  0  0  0  0  0  0  0
   12.9840   -0.1200   23.1530 C   0  0  0  0  0  0  0  0  0  0  0  0
   11.3360   -1.5050   22.0650 C   0  0  0  0  0  0  0  0  0  0  0  0
   10.3220   -0.8940   22.7910 C   0  0  0  0  0  0  0  0  0  0  0  0
   12.6400   -1.1000   22.2390 C   0  0  0  0  0  0  0  0  0  0  0  0
    7.5513    0.0856   18.4862 C   0  0  0  0  0  0  0  0  0  0  0  0
    8.3880   -0.3240   21.3070 C   0  0  0  0  0  0  0  0  0  0  0  0
    4.2095    1.7453   18.8144 C   0  0  0  0  0  0  0  0  0  0  0  0
    4.7292    1.5689   20.2343 C   0  0  0  0  0  0  0  0  0  0  0  0
    5.2863    2.5817   18.1362 C   0  0  0  0  0  0  0  0  0  0  0  0
    6.6078   -0.0669   19.6555 C   0  0  1  0  0  0  0  0  0  0  0  0
    6.2323    1.3690   20.0565 C   0  0  2  0  0  0  0  0  0  0  0  0
    6.5979    2.2254   18.8394 C   0  0  2  0  0  0  0  0  0  0  0  0
    8.8810   -1.1900   22.4510 C   0  0  0  0  0  0  0  0  0  0  0  0
    7.4676    1.3985   18.0499 N   0  0  0  0  0  0  0  0  0  0  0  0
    7.2820   -0.7860   20.6970 N   0  0  0  0  0  0  0  0  0  0  0  0
    8.2416   -0.8007   18.0044 O   0  0  0  0  0  0  0  0  0  0  0  0
    8.9170    0.7530   21.0260 O   0  0  0  0  0  0  0  0  0  0  0  0
   13.8840   -1.8490   21.2740 Cl  0  0  0  0  0  0  0  0  0  0  0  0
   12.2249    1.2198   24.6546 H   0  0  0  0  0  0  0  0  0  0  0  0
    9.8763    0.5350   24.3454 H   0  0  0  0  0  0  0  0  0  0  0  0
   14.0077    0.1988   23.2842 H   0  0  0  0  0  0  0  0  0  0  0  0
   11.0892   -2.3009   21.3624 H   0  0  0  0  0  0  0  0  0  0  0  0
    4.1146    0.7746   18.3147 H   0  0  0  0  0  0  0  0  0  0  0  0
    3.2308    2.2333   18.7893 H   0  0  0  0  0  0  0  0  0  0  0  0
    4.5434    2.4841   20.8097 H   0  0  0  0  0  0  0  0  0  0  0  0
    4.2445    0.7378   20.7551 H   0  0  0  0  0  0  0  0  0  0  0  0
    5.3140    2.4188   17.0538 H   0  0  0  0  0  0  0  0  0  0  0  0
    5.0736    3.6462   18.2951 H   0  0  0  0  0  0  0  0  0  0  0  0
    5.7461   -0.6624   19.3379 H   0  0  0  0  0  0  0  0  0  0  0  0
    6.7832    1.6902   20.9484 H   0  0  0  0  0  0  0  0  0  0  0  0
    7.1506    3.1290   19.1169 H   0  0  0  0  0  0  0  0  0  0  0  0
    8.7773   -2.2383   22.1737 H   0  0  0  0  0  0  0  0  0  0  0  0
    8.2516   -1.0144   23.3225 H   0  0  0  0  0  0  0  0  0  0  0  0
    8.0036    1.7506   17.2630 H   0  0  0  0  0  0  0  0  0  0  0  0
    6.9057   -1.6888   20.9884 H   0  0  0  0  0  0  0  0  0  0  0  0
  1  2  1  0  0  0  0
  1  3  2  0  0  0  0
  2  5  2  0  0  0  0
  3  6  1  0  0  0  0
  4  5  1  0  0  0  0
  4  6  2  0  0  0  0
  5 15  1  0  0  0  0
  6 20  1  0  0  0  0
  7 12  1  0  0  0  0
  7 16  1  0  0  0  0
  7 18  2  0  0  0  0
  8 15  1  0  0  0  0
  8 17  1  0  0  0  0
  8 19  2  0  0  0  0
  9 10  1  0  0  0  0
  9 11  1  0  0  0  0
 10 13  1  1  0  0  0
 11 14  1  1  0  0  0
 12 13  1  0  0  0  0
 12 17  1  6  0  0  0
 13 14  1  0  0  0  0
 14 16  1  0  0  0  0
  1 21  1  0  0  0  0
  2 22  1  0  0  0  0
  3 23  1  0  0  0  0
  4 24  1  0  0  0  0
  9 25  1  0  0  0  0
  9 26  1  0  0  0  0
 10 27  1  0  0  0  0
 10 28  1  0  0  0  0
 11 29  1  0  0  0  0
 11 30  1  0  0  0  0
 12 31  1  0  0  0  0
 13 32  1  0  0  0  0
 14 33  1  0  0  0  0
 15 34  1  0  0  0  0
 15 35  1  0  0  0  0
 16 36  1  0  0  0  0
 17 37  1  0  0  0  0
M  END
> <compound>
MIC-UNK-8373f97b-5

> <compound_smiles>
c1cc(cc(c1)Cl)CC(=O)NC2C3CCCC3NC2=O

> <enantiomer_smiles>
c1cc(cc(c1)Cl)CC(=O)N[C@H]2[C@@H]3CCC[C@@H]3NC2=O

> <scaffold>
chlorobenzene-linker

> <clash_score>
0.623355267534247

> <docking_score>
-3.836911201477051

> <overlap_score>
0.8211113214492798

> <MMFF_internal_energy>
42.58956882426649

> <docked_smiles>
c1cc(cc(c1)Cl)CC(=O)N[C@H]2[C@@H]3CCC[C@@H]3NC2=O

$$$$
MIC-UNK-8373f97b-5_5
  -OEChem-07262101013D

 37 39  0     1  0  0  0  0  0999 V2000
   11.9780    0.4600   23.9150 C   0  0  0  0  0  0  0  0  0  0  0  0
   10.6560    0.0720   23.7350 C   0  0  0  0  0  0  0  0  0  0  0  0
   12.9840   -0.1200   23.1530 C   0  0  0  0  0  0  0  0  0  0  0  0
   11.3360   -1.5050   22.0650 C   0  0  0  0  0  0  0  0  0  0  0  0
   10.3220   -0.8940   22.7910 C   0  0  0  0  0  0  0  0  0  0  0  0
   12.6400   -1.1000   22.2390 C   0  0  0  0  0  0  0  0  0  0  0  0
    5.9229   -1.0827   18.7238 C   0  0  0  0  0  0  0  0  0  0  0  0
    8.3880   -0.3240   21.3070 C   0  0  0  0  0  0  0  0  0  0  0  0
    3.6566    1.5902   21.4546 C   0  0  0  0  0  0  0  0  0  0  0  0
    5.2060    1.5057   21.3775 C   0  0  0  0  0  0  0  0  0  0  0  0
    3.1018    0.5464   20.4478 C   0  0  0  0  0  0  0  0  0  0  0  0
    6.6074   -0.0706   19.6577 C   0  0  2  0  0  0  0  0  0  0  0  0
    5.4069    0.7498   20.0863 C   0  0  2  0  0  0  0  0  0  0  0  0
    4.3225   -0.3030   20.1955 C   0  0  1  0  0  0  0  0  0  0  0  0
    8.8810   -1.1900   22.4510 C   0  0  0  0  0  0  0  0  0  0  0  0
    4.5424   -1.0683   19.0196 N   0  0  0  0  0  0  0  0  0  0  0  0
    7.2820   -0.7860   20.6970 N   0  0  0  0  0  0  0  0  0  0  0  0
    6.4939   -1.8186   17.9328 O   0  0  0  0  0  0  0  0  0  0  0  0
    8.9170    0.7530   21.0260 O   0  0  0  0  0  0  0  0  0  0  0  0
   13.8840   -1.8490   21.2740 Cl  0  0  0  0  0  0  0  0  0  0  0  0
   12.2249    1.2198   24.6546 H   0  0  0  0  0  0  0  0  0  0  0  0
    9.8763    0.5350   24.3454 H   0  0  0  0  0  0  0  0  0  0  0  0
   14.0077    0.1988   23.2842 H   0  0  0  0  0  0  0  0  0  0  0  0
   11.0892   -2.3009   21.3624 H   0  0  0  0  0  0  0  0  0  0  0  0
    3.3184    1.3729   22.4737 H   0  0  0  0  0  0  0  0  0  0  0  0
    3.3029    2.5928   21.1915 H   0  0  0  0  0  0  0  0  0  0  0  0
    5.6688    2.4966   21.3650 H   0  0  0  0  0  0  0  0  0  0  0  0
    5.5968    0.9546   22.2401 H   0  0  0  0  0  0  0  0  0  0  0  0
    2.2642   -0.0214   20.8626 H   0  0  0  0  0  0  0  0  0  0  0  0
    2.7618    1.0496   19.5353 H   0  0  0  0  0  0  0  0  0  0  0  0
    7.3375    0.5289   19.1074 H   0  0  0  0  0  0  0  0  0  0  0  0
    5.1813    1.4445   19.2586 H   0  0  0  0  0  0  0  0  0  0  0  0
    4.4794   -0.9782   21.0495 H   0  0  0  0  0  0  0  0  0  0  0  0
    8.7773   -2.2383   22.1737 H   0  0  0  0  0  0  0  0  0  0  0  0
    8.2516   -1.0144   23.3225 H   0  0  0  0  0  0  0  0  0  0  0  0
    3.8205   -1.5321   18.4771 H   0  0  0  0  0  0  0  0  0  0  0  0
    6.9059   -1.6903   20.9895 H   0  0  0  0  0  0  0  0  0  0  0  0
  1  2  1  0  0  0  0
  1  3  2  0  0  0  0
  2  5  2  0  0  0  0
  3  6  1  0  0  0  0
  4  5  1  0  0  0  0
  4  6  2  0  0  0  0
  5 15  1  0  0  0  0
  6 20  1  0  0  0  0
  7 12  1  0  0  0  0
  7 16  1  0  0  0  0
  7 18  2  0  0  0  0
  8 15  1  0  0  0  0
  8 17  1  0  0  0  0
  8 19  2  0  0  0  0
  9 10  1  0  0  0  0
  9 11  1  0  0  0  0
 10 13  1  1  0  0  0
 11 14  1  6  0  0  0
 12 13  1  0  0  0  0
 12 17  1  1  0  0  0
 13 14  1  0  0  0  0
 14 16  1  0  0  0  0
  1 21  1  0  0  0  0
  2 22  1  0  0  0  0
  3 23  1  0  0  0  0
  4 24  1  0  0  0  0
  9 25  1  0  0  0  0
  9 26  1  0  0  0  0
 10 27  1  0  0  0  0
 10 28  1  0  0  0  0
 11 29  1  0  0  0  0
 11 30  1  0  0  0  0
 12 31  1  0  0  0  0
 13 32  1  0  0  0  0
 14 33  1  0  0  0  0
 15 34  1  0  0  0  0
 15 35  1  0  0  0  0
 16 36  1  0  0  0  0
 17 37  1  0  0  0  0
M  END
> <compound>
MIC-UNK-8373f97b-5

> <compound_smiles>
c1cc(cc(c1)Cl)CC(=O)NC2C3CCCC3NC2=O

> <enantiomer_smiles>
c1cc(cc(c1)Cl)CC(=O)N[C@@H]2[C@@H]3CCC[C@H]3NC2=O

> <scaffold>
chlorobenzene-linker

> <clash_score>
0

> <docking_score>
-4.63560676574707

> <overlap_score>
0.8093819618225098

> <MMFF_internal_energy>
56.9925462501293

> <docked_smiles>
c1cc(cc(c1)Cl)CC(=O)N[C@@H]2[C@@H]3CCC[C@H]3NC2=O

$$$$
MIC-UNK-8373f97b-5_4
  -OEChem-07262101013D

 37 39  0     1  0  0  0  0  0999 V2000
   11.9780    0.4600   23.9150 C   0  0  0  0  0  0  0  0  0  0  0  0
   10.6560    0.0720   23.7350 C   0  0  0  0  0  0  0  0  0  0  0  0
   12.9840   -0.1200   23.1530 C   0  0  0  0  0  0  0  0  0  0  0  0
   11.3360   -1.5050   22.0650 C   0  0  0  0  0  0  0  0  0  0  0  0
   10.3220   -0.8940   22.7910 C   0  0  0  0  0  0  0  0  0  0  0  0
   12.6400   -1.1000   22.2390 C   0  0  0  0  0  0  0  0  0  0  0  0
    7.5767    0.9644   19.0627 C   0  0  0  0  0  0  0  0  0  0  0  0
    8.3880   -0.3240   21.3070 C   0  0  0  0  0  0  0  0  0  0  0  0
    4.0655    2.0886   21.5433 C   0  0  0  0  0  0  0  0  0  0  0  0
    4.5103    0.6312   21.2388 C   0  0  0  0  0  0  0  0  0  0  0  0
    5.0959    3.0236   20.8530 C   0  0  0  0  0  0  0  0  0  0  0  0
    6.6074   -0.0705   19.6577 C   0  0  1  0  0  0  0  0  0  0  0  0
    5.4803    0.8397   20.1013 C   0  0  1  0  0  0  0  0  0  0  0  0
    6.2293    2.0664   20.5813 C   0  0  2  0  0  0  0  0  0  0  0  0
    8.8810   -1.1900   22.4510 C   0  0  0  0  0  0  0  0  0  0  0  0
    7.2008    2.2321   19.5586 N   0  0  0  0  0  0  0  0  0  0  0  0
    7.2820   -0.7860   20.6970 N   0  0  0  0  0  0  0  0  0  0  0  0
    8.5409    0.7113   18.3561 O   0  0  0  0  0  0  0  0  0  0  0  0
    8.9170    0.7530   21.0260 O   0  0  0  0  0  0  0  0  0  0  0  0
   13.8840   -1.8490   21.2740 Cl  0  0  0  0  0  0  0  0  0  0  0  0
   12.2249    1.2198   24.6546 H   0  0  0  0  0  0  0  0  0  0  0  0
    9.8763    0.5350   24.3454 H   0  0  0  0  0  0  0  0  0  0  0  0
   14.0077    0.1988   23.2842 H   0  0  0  0  0  0  0  0  0  0  0  0
   11.0892   -2.3009   21.3624 H   0  0  0  0  0  0  0  0  0  0  0  0
    3.0602    2.2834   21.1540 H   0  0  0  0  0  0  0  0  0  0  0  0
    4.0438    2.2571   22.6253 H   0  0  0  0  0  0  0  0  0  0  0  0
    4.9961    0.1943   22.1183 H   0  0  0  0  0  0  0  0  0  0  0  0
    3.6645   -0.0047   20.9625 H   0  0  0  0  0  0  0  0  0  0  0  0
    4.6741    3.4270   19.9250 H   0  0  0  0  0  0  0  0  0  0  0  0
    5.3871    3.8604   21.4936 H   0  0  0  0  0  0  0  0  0  0  0  0
    6.2837   -0.7797   18.8912 H   0  0  0  0  0  0  0  0  0  0  0  0
    4.8883    1.0814   19.2017 H   0  0  0  0  0  0  0  0  0  0  0  0
    6.7804    1.8808   21.5149 H   0  0  0  0  0  0  0  0  0  0  0  0
    8.7773   -2.2383   22.1737 H   0  0  0  0  0  0  0  0  0  0  0  0
    8.2516   -1.0144   23.3225 H   0  0  0  0  0  0  0  0  0  0  0  0
    7.5672    3.1218   19.2350 H   0  0  0  0  0  0  0  0  0  0  0  0
    6.9059   -1.6903   20.9895 H   0  0  0  0  0  0  0  0  0  0  0  0
  1  2  1  0  0  0  0
  1  3  2  0  0  0  0
  2  5  2  0  0  0  0
  3  6  1  0  0  0  0
  4  5  1  0  0  0  0
  4  6  2  0  0  0  0
  5 15  1  0  0  0  0
  6 20  1  0  0  0  0
  7 12  1  0  0  0  0
  7 16  1  0  0  0  0
  7 18  2  0  0  0  0
  8 15  1  0  0  0  0
  8 17  1  0  0  0  0
  8 19  2  0  0  0  0
  9 10  1  0  0  0  0
  9 11  1  0  0  0  0
 10 13  1  6  0  0  0
 11 14  1  1  0  0  0
 12 13  1  0  0  0  0
 12 17  1  6  0  0  0
 13 14  1  0  0  0  0
 14 16  1  0  0  0  0
  1 21  1  0  0  0  0
  2 22  1  0  0  0  0
  3 23  1  0  0  0  0
  4 24  1  0  0  0  0
  9 25  1  0  0  0  0
  9 26  1  0  0  0  0
 10 27  1  0  0  0  0
 10 28  1  0  0  0  0
 11 29  1  0  0  0  0
 11 30  1  0  0  0  0
 12 31  1  0  0  0  0
 13 32  1  0  0  0  0
 14 33  1  0  0  0  0
 15 34  1  0  0  0  0
 15 35  1  0  0  0  0
 16 36  1  0  0  0  0
 17 37  1  0  0  0  0
M  END
> <compound>
MIC-UNK-8373f97b-5

> <compound_smiles>
c1cc(cc(c1)Cl)CC(=O)NC2C3CCCC3NC2=O

> <enantiomer_smiles>
c1cc(cc(c1)Cl)CC(=O)N[C@H]2[C@H]3CCC[C@@H]3NC2=O

> <scaffold>
chlorobenzene-linker

> <clash_score>
0.6138340886964102

> <docking_score>
-4.354956150054932

> <overlap_score>
0.7936500310897827

> <MMFF_internal_energy>
76.87561381818179

> <docked_smiles>
c1cc(cc(c1)Cl)CC(=O)N[C@H]2[C@H]3CCC[C@@H]3NC2=O

$$$$
MIC-UNK-8373f97b-5_3
  -OEChem-07262101013D

 37 39  0     1  0  0  0  0  0999 V2000
   11.9780    0.4600   23.9150 C   0  0  0  0  0  0  0  0  0  0  0  0
   10.6560    0.0720   23.7350 C   0  0  0  0  0  0  0  0  0  0  0  0
   12.9840   -0.1200   23.1530 C   0  0  0  0  0  0  0  0  0  0  0  0
   11.3360   -1.5050   22.0650 C   0  0  0  0  0  0  0  0  0  0  0  0
   10.3220   -0.8940   22.7910 C   0  0  0  0  0  0  0  0  0  0  0  0
   12.6400   -1.1000   22.2390 C   0  0  0  0  0  0  0  0  0  0  0  0
    5.9005   -1.0481   18.7013 C   0  0  0  0  0  0  0  0  0  0  0  0
    8.3880   -0.3240   21.3070 C   0  0  0  0  0  0  0  0  0  0  0  0
    3.9807    2.6096   20.3220 C   0  0  0  0  0  0  0  0  0  0  0  0
    5.4271    2.1446   20.6438 C   0  0  0  0  0  0  0  0  0  0  0  0
    3.3957    1.5830   19.3145 C   0  0  0  0  0  0  0  0  0  0  0  0
    6.6072   -0.0726   19.6589 C   0  0  2  0  0  0  0  0  0  0  0  0
    5.4124    0.7233   20.1387 C   0  0  1  0  0  0  0  0  0  0  0  0
    4.6464    0.8875   18.8393 C   0  0  2  0  0  0  0  0  0  0  0  0
    8.8810   -1.1900   22.4510 C   0  0  0  0  0  0  0  0  0  0  0  0
    4.6881   -0.4326   18.3157 N   0  0  0  0  0  0  0  0  0  0  0  0
    7.2820   -0.7860   20.6970 N   0  0  0  0  0  0  0  0  0  0  0  0
    6.3283   -2.1280   18.3241 O   0  0  0  0  0  0  0  0  0  0  0  0
    8.9170    0.7530   21.0260 O   0  0  0  0  0  0  0  0  0  0  0  0
   13.8840   -1.8490   21.2740 Cl  0  0  0  0  0  0  0  0  0  0  0  0
   12.2249    1.2198   24.6546 H   0  0  0  0  0  0  0  0  0  0  0  0
    9.8763    0.5350   24.3454 H   0  0  0  0  0  0  0  0  0  0  0  0
   14.0077    0.1988   23.2842 H   0  0  0  0  0  0  0  0  0  0  0  0
   11.0892   -2.3009   21.3624 H   0  0  0  0  0  0  0  0  0  0  0  0
    3.3657    2.6407   21.2278 H   0  0  0  0  0  0  0  0  0  0  0  0
    3.9964    3.6176   19.8935 H   0  0  0  0  0  0  0  0  0  0  0  0
    6.1543    2.7582   20.0997 H   0  0  0  0  0  0  0  0  0  0  0  0
    5.6517    2.2129   21.7120 H   0  0  0  0  0  0  0  0  0  0  0  0
    2.7191    0.8929   19.8319 H   0  0  0  0  0  0  0  0  0  0  0  0
    2.8429    2.0683   18.5053 H   0  0  0  0  0  0  0  0  0  0  0  0
    7.3324    0.5301   19.1030 H   0  0  0  0  0  0  0  0  0  0  0  0
    4.8314    0.1106   20.8497 H   0  0  0  0  0  0  0  0  0  0  0  0
    5.1799    1.5319   18.1244 H   0  0  0  0  0  0  0  0  0  0  0  0
    8.7773   -2.2383   22.1737 H   0  0  0  0  0  0  0  0  0  0  0  0
    8.2516   -1.0144   23.3225 H   0  0  0  0  0  0  0  0  0  0  0  0
    3.9620   -0.8653   17.7537 H   0  0  0  0  0  0  0  0  0  0  0  0
    6.9060   -1.6911   20.9901 H   0  0  0  0  0  0  0  0  0  0  0  0
  1  2  1  0  0  0  0
  1  3  2  0  0  0  0
  2  5  2  0  0  0  0
  3  6  1  0  0  0  0
  4  5  1  0  0  0  0
  4  6  2  0  0  0  0
  5 15  1  0  0  0  0
  6 20  1  0  0  0  0
  7 12  1  0  0  0  0
  7 16  1  0  0  0  0
  7 18  2  0  0  0  0
  8 15  1  0  0  0  0
  8 17  1  0  0  0  0
  8 19  2  0  0  0  0
  9 10  1  0  0  0  0
  9 11  1  0  0  0  0
 10 13  1  6  0  0  0
 11 14  1  1  0  0  0
 12 13  1  0  0  0  0
 12 17  1  1  0  0  0
 13 14  1  0  0  0  0
 14 16  1  0  0  0  0
  1 21  1  0  0  0  0
  2 22  1  0  0  0  0
  3 23  1  0  0  0  0
  4 24  1  0  0  0  0
  9 25  1  0  0  0  0
  9 26  1  0  0  0  0
 10 27  1  0  0  0  0
 10 28  1  0  0  0  0
 11 29  1  0  0  0  0
 11 30  1  0  0  0  0
 12 31  1  0  0  0  0
 13 32  1  0  0  0  0
 14 33  1  0  0  0  0
 15 34  1  0  0  0  0
 15 35  1  0  0  0  0
 16 36  1  0  0  0  0
 17 37  1  0  0  0  0
M  END
> <compound>
MIC-UNK-8373f97b-5

> <compound_smiles>
c1cc(cc(c1)Cl)CC(=O)NC2C3CCCC3NC2=O

> <enantiomer_smiles>
c1cc(cc(c1)Cl)CC(=O)N[C@@H]2[C@H]3CCC[C@@H]3NC2=O

> <scaffold>
chlorobenzene-linker

> <clash_score>
0

> <docking_score>
-6.697071075439453

> <overlap_score>
0.8504397869110107

> <MMFF_internal_energy>
52.86714683238408

> <docked_smiles>
c1cc(cc(c1)Cl)CC(=O)N[C@@H]2[C@H]3CCC[C@@H]3NC2=O

$$$$
MIC-UNK-8373f97b-4_7
  -OEChem-07262101013D

 40 42  0     1  0  0  0  0  0999 V2000
   11.9780    0.4600   23.9150 C   0  0  0  0  0  0  0  0  0  0  0  0
   10.6560    0.0720   23.7350 C   0  0  0  0  0  0  0  0  0  0  0  0
   12.9840   -0.1200   23.1530 C   0  0  0  0  0  0  0  0  0  0  0  0
   11.3360   -1.5050   22.0650 C   0  0  0  0  0  0  0  0  0  0  0  0
   10.3220   -0.8940   22.7910 C   0  0  0  0  0  0  0  0  0  0  0  0
   12.6400   -1.1000   22.2390 C   0  0  0  0  0  0  0  0  0  0  0  0
    6.6854   -0.9384   18.4233 C   0  0  0  0  0  0  0  0  0  0  0  0
    8.3880   -0.3240   21.3070 C   0  0  0  0  0  0  0  0  0  0  0  0
    4.3076    1.6253   18.0330 C   0  0  0  0  0  0  0  0  0  0  0  0
    3.2761    0.6029   17.5528 C   0  0  0  0  0  0  0  0  0  0  0  0
    4.5912    1.5084   19.5257 C   0  0  0  0  0  0  0  0  0  0  0  0
    3.1214   -0.6045   18.4799 C   0  0  0  0  0  0  0  0  0  0  0  0
    6.6047   -0.0664   19.6526 C   0  0  2  0  0  0  0  0  0  0  0  0
    5.1015    0.1131   19.9295 C   0  0  1  0  0  0  0  0  0  0  0  0
    4.4282   -1.0227   19.1442 C   0  0  1  0  0  0  0  0  0  0  0  0
    8.8810   -1.1900   22.4510 C   0  0  0  0  0  0  0  0  0  0  0  0
    5.4164   -1.4377   18.1786 N   0  0  0  0  0  0  0  0  0  0  0  0
    7.2820   -0.7860   20.6970 N   0  0  0  0  0  0  0  0  0  0  0  0
    7.7086   -1.2125   17.8133 O   0  0  0  0  0  0  0  0  0  0  0  0
    8.9170    0.7530   21.0260 O   0  0  0  0  0  0  0  0  0  0  0  0
   13.8840   -1.8490   21.2740 Cl  0  0  0  0  0  0  0  0  0  0  0  0
   12.2249    1.2198   24.6546 H   0  0  0  0  0  0  0  0  0  0  0  0
    9.8763    0.5350   24.3454 H   0  0  0  0  0  0  0  0  0  0  0  0
   14.0077    0.1988   23.2842 H   0  0  0  0  0  0  0  0  0  0  0  0
   11.0892   -2.3009   21.3624 H   0  0  0  0  0  0  0  0  0  0  0  0
    5.2416    1.5012   17.4627 H   0  0  0  0  0  0  0  0  0  0  0  0
    3.9453    2.6401   17.8080 H   0  0  0  0  0  0  0  0  0  0  0  0
    2.2922    1.0996   17.4282 H   0  0  0  0  0  0  0  0  0  0  0  0
    3.5569    0.2500   16.5405 H   0  0  0  0  0  0  0  0  0  0  0  0
    5.3045    2.2728   19.8330 H   0  0  0  0  0  0  0  0  0  0  0  0
    3.6619    1.6970   20.0678 H   0  0  0  0  0  0  0  0  0  0  0  0
    2.3678   -0.3773   19.2509 H   0  0  0  0  0  0  0  0  0  0  0  0
    2.7013   -1.4362   17.8889 H   0  0  0  0  0  0  0  0  0  0  0  0
    7.1406    0.8606   19.4778 H   0  0  0  0  0  0  0  0  0  0  0  0
    4.9076   -0.0169   20.9871 H   0  0  0  0  0  0  0  0  0  0  0  0
    4.2278   -1.8795   19.8292 H   0  0  0  0  0  0  0  0  0  0  0  0
    8.7773   -2.2383   22.1737 H   0  0  0  0  0  0  0  0  0  0  0  0
    8.2516   -1.0144   23.3225 H   0  0  0  0  0  0  0  0  0  0  0  0
    5.1948   -2.0265   17.3688 H   0  0  0  0  0  0  0  0  0  0  0  0
    6.9058   -1.6898   20.9891 H   0  0  0  0  0  0  0  0  0  0  0  0
  1  2  1  0  0  0  0
  1  3  2  0  0  0  0
  2  5  2  0  0  0  0
  3  6  1  0  0  0  0
  4  5  1  0  0  0  0
  4  6  2  0  0  0  0
  5 16  1  0  0  0  0
  6 21  1  0  0  0  0
  7 13  1  0  0  0  0
  7 17  1  0  0  0  0
  7 19  2  0  0  0  0
  8 16  1  0  0  0  0
  8 18  1  0  0  0  0
  8 20  2  0  0  0  0
  9 10  1  0  0  0  0
  9 11  1  0  0  0  0
 10 12  1  0  0  0  0
 11 14  1  6  0  0  0
 12 15  1  6  0  0  0
 13 14  1  0  0  0  0
 13 18  1  1  0  0  0
 14 15  1  0  0  0  0
 15 17  1  0  0  0  0
  1 22  1  0  0  0  0
  2 23  1  0  0  0  0
  3 24  1  0  0  0  0
  4 25  1  0  0  0  0
  9 26  1  0  0  0  0
  9 27  1  0  0  0  0
 10 28  1  0  0  0  0
 10 29  1  0  0  0  0
 11 30  1  0  0  0  0
 11 31  1  0  0  0  0
 12 32  1  0  0  0  0
 12 33  1  0  0  0  0
 13 34  1  0  0  0  0
 14 35  1  0  0  0  0
 15 36  1  0  0  0  0
 16 37  1  0  0  0  0
 16 38  1  0  0  0  0
 17 39  1  0  0  0  0
 18 40  1  0  0  0  0
M  END
> <compound>
MIC-UNK-8373f97b-4

> <compound_smiles>
c1cc(cc(c1)Cl)CC(=O)NC2C3CCCCC3NC2=O

> <enantiomer_smiles>
c1cc(cc(c1)Cl)CC(=O)N[C@@H]2[C@H]3CCCC[C@H]3NC2=O

> <scaffold>
chlorobenzene-linker

> <clash_score>
3.7122310142171955

> <docking_score>
-3.8805289268493652

> <overlap_score>
0.7940673232078552

> <MMFF_internal_energy>
44.23384244708581

> <docked_smiles>
c1cc(cc(c1)Cl)CC(=O)N[C@@H]2[C@H]3CCCC[C@H]3NC2=O

$$$$
MIC-UNK-8373f97b-5_7
  -OEChem-07262101013D

 37 39  0     1  0  0  0  0  0999 V2000
   11.9780    0.4600   23.9150 C   0  0  0  0  0  0  0  0  0  0  0  0
   10.6560    0.0720   23.7350 C   0  0  0  0  0  0  0  0  0  0  0  0
   12.9840   -0.1200   23.1530 C   0  0  0  0  0  0  0  0  0  0  0  0
   11.3360   -1.5050   22.0650 C   0  0  0  0  0  0  0  0  0  0  0  0
   10.3220   -0.8940   22.7910 C   0  0  0  0  0  0  0  0  0  0  0  0
   12.6400   -1.1000   22.2390 C   0  0  0  0  0  0  0  0  0  0  0  0
    5.4772   -0.9634   19.2107 C   0  0  0  0  0  0  0  0  0  0  0  0
    8.3880   -0.3240   21.3070 C   0  0  0  0  0  0  0  0  0  0  0  0
    4.5165    2.4197   18.5616 C   0  0  0  0  0  0  0  0  0  0  0  0
    5.9306    2.3593   19.1228 C   0  0  0  0  0  0  0  0  0  0  0  0
    3.6556    1.9736   19.7322 C   0  0  0  0  0  0  0  0  0  0  0  0
    6.6062   -0.0651   19.6530 C   0  0  2  0  0  0  0  0  0  0  0  0
    5.9314    1.2164   20.1539 C   0  0  1  0  0  0  0  0  0  0  0  0
    4.4582    0.8442   20.3630 C   0  0  1  0  0  0  0  0  0  0  0  0
    8.8810   -1.1900   22.4510 C   0  0  0  0  0  0  0  0  0  0  0  0
    4.2911   -0.4016   19.6568 N   0  0  0  0  0  0  0  0  0  0  0  0
    7.2820   -0.7860   20.6970 N   0  0  0  0  0  0  0  0  0  0  0  0
    5.6067   -2.0369   18.6400 O   0  0  0  0  0  0  0  0  0  0  0  0
    8.9170    0.7530   21.0260 O   0  0  0  0  0  0  0  0  0  0  0  0
   13.8840   -1.8490   21.2740 Cl  0  0  0  0  0  0  0  0  0  0  0  0
   12.2249    1.2198   24.6546 H   0  0  0  0  0  0  0  0  0  0  0  0
    9.8763    0.5350   24.3454 H   0  0  0  0  0  0  0  0  0  0  0  0
   14.0077    0.1988   23.2842 H   0  0  0  0  0  0  0  0  0  0  0  0
   11.0892   -2.3009   21.3624 H   0  0  0  0  0  0  0  0  0  0  0  0
    4.2532    3.4206   18.2112 H   0  0  0  0  0  0  0  0  0  0  0  0
    4.4050    1.7257   17.7224 H   0  0  0  0  0  0  0  0  0  0  0  0
    6.6876    2.2179   18.3352 H   0  0  0  0  0  0  0  0  0  0  0  0
    6.1679    3.3092   19.6316 H   0  0  0  0  0  0  0  0  0  0  0  0
    3.5630    2.7920   20.4468 H   0  0  0  0  0  0  0  0  0  0  0  0
    2.6553    1.6823   19.4220 H   0  0  0  0  0  0  0  0  0  0  0  0
    7.2931    0.0765   18.8358 H   0  0  0  0  0  0  0  0  0  0  0  0
    6.3883    1.5567   21.1038 H   0  0  0  0  0  0  0  0  0  0  0  0
    4.1981    0.6946   21.3981 H   0  0  0  0  0  0  0  0  0  0  0  0
    8.7773   -2.2383   22.1737 H   0  0  0  0  0  0  0  0  0  0  0  0
    8.2516   -1.0144   23.3225 H   0  0  0  0  0  0  0  0  0  0  0  0
    3.3841   -0.8275   19.5013 H   0  0  0  0  0  0  0  0  0  0  0  0
    6.9057   -1.6888   20.9883 H   0  0  0  0  0  0  0  0  0  0  0  0
  1  2  1  0  0  0  0
  1  3  2  0  0  0  0
  2  5  2  0  0  0  0
  3  6  1  0  0  0  0
  4  5  1  0  0  0  0
  4  6  2  0  0  0  0
  5 15  1  0  0  0  0
  6 20  1  0  0  0  0
  7 12  1  0  0  0  0
  7 16  1  0  0  0  0
  7 18  2  0  0  0  0
  8 15  1  0  0  0  0
  8 17  1  0  0  0  0
  8 19  2  0  0  0  0
  9 10  1  0  0  0  0
  9 11  1  0  0  0  0
 10 13  1  6  0  0  0
 11 14  1  6  0  0  0
 12 13  1  0  0  0  0
 12 17  1  1  0  0  0
 13 14  1  0  0  0  0
 14 16  1  0  0  0  0
  1 21  1  0  0  0  0
  2 22  1  0  0  0  0
  3 23  1  0  0  0  0
  4 24  1  0  0  0  0
  9 25  1  0  0  0  0
  9 26  1  0  0  0  0
 10 27  1  0  0  0  0
 10 28  1  0  0  0  0
 11 29  1  0  0  0  0
 11 30  1  0  0  0  0
 12 31  1  0  0  0  0
 13 32  1  0  0  0  0
 14 33  1  0  0  0  0
 15 34  1  0  0  0  0
 15 35  1  0  0  0  0
 16 36  1  0  0  0  0
 17 37  1  0  0  0  0
M  END
> <compound>
MIC-UNK-8373f97b-5

> <compound_smiles>
c1cc(cc(c1)Cl)CC(=O)NC2C3CCCC3NC2=O

> <enantiomer_smiles>
c1cc(cc(c1)Cl)CC(=O)N[C@@H]2[C@H]3CCC[C@H]3NC2=O

> <scaffold>
chlorobenzene-linker

> <clash_score>
0

> <docking_score>
-4.476914405822754

> <overlap_score>
0.8327378034591675

> <MMFF_internal_energy>
39.06351192778999

> <docked_smiles>
c1cc(cc(c1)Cl)CC(=O)N[C@@H]2[C@H]3CCC[C@H]3NC2=O

$$$$
MIC-UNK-8373f97b-5_6
  -OEChem-07262101013D

 37 39  0     1  0  0  0  0  0999 V2000
   11.9780    0.4600   23.9150 C   0  0  0  0  0  0  0  0  0  0  0  0
   10.6560    0.0720   23.7350 C   0  0  0  0  0  0  0  0  0  0  0  0
   12.9840   -0.1200   23.1530 C   0  0  0  0  0  0  0  0  0  0  0  0
   11.3360   -1.5050   22.0650 C   0  0  0  0  0  0  0  0  0  0  0  0
   10.3220   -0.8940   22.7910 C   0  0  0  0  0  0  0  0  0  0  0  0
   12.6400   -1.1000   22.2390 C   0  0  0  0  0  0  0  0  0  0  0  0
    7.5357    0.9843   19.0347 C   0  0  0  0  0  0  0  0  0  0  0  0
    8.3880   -0.3240   21.3070 C   0  0  0  0  0  0  0  0  0  0  0  0
    3.3302    1.8001   20.1909 C   0  0  0  0  0  0  0  0  0  0  0  0
    4.0536    0.4368   20.3633 C   0  0  0  0  0  0  0  0  0  0  0  0
    4.3435    2.7602   19.5109 C   0  0  0  0  0  0  0  0  0  0  0  0
    6.6072   -0.0728   19.6590 C   0  0  1  0  0  0  0  0  0  0  0  0
    5.4960    0.8261   20.1560 C   0  0  2  0  0  0  0  0  0  0  0  0
    5.3700    1.7870   18.9887 C   0  0  1  0  0  0  0  0  0  0  0  0
    8.8810   -1.1900   22.4510 C   0  0  0  0  0  0  0  0  0  0  0  0
    6.7308    2.1062   18.7344 N   0  0  0  0  0  0  0  0  0  0  0  0
    7.2820   -0.7860   20.6970 N   0  0  0  0  0  0  0  0  0  0  0  0
    8.7297    0.8564   18.8123 O   0  0  0  0  0  0  0  0  0  0  0  0
    8.9170    0.7530   21.0260 O   0  0  0  0  0  0  0  0  0  0  0  0
   13.8840   -1.8490   21.2740 Cl  0  0  0  0  0  0  0  0  0  0  0  0
   12.2249    1.2198   24.6546 H   0  0  0  0  0  0  0  0  0  0  0  0
    9.8763    0.5350   24.3454 H   0  0  0  0  0  0  0  0  0  0  0  0
   14.0077    0.1988   23.2842 H   0  0  0  0  0  0  0  0  0  0  0  0
   11.0892   -2.3009   21.3624 H   0  0  0  0  0  0  0  0  0  0  0  0
    2.4328    1.6742   19.5754 H   0  0  0  0  0  0  0  0  0  0  0  0
    3.0175    2.2061   21.1589 H   0  0  0  0  0  0  0  0  0  0  0  0
    3.8707   -0.0025   21.3480 H   0  0  0  0  0  0  0  0  0  0  0  0
    3.7139   -0.2739   19.6012 H   0  0  0  0  0  0  0  0  0  0  0  0
    3.8797    3.3575   18.7209 H   0  0  0  0  0  0  0  0  0  0  0  0
    4.7723    3.4415   20.2550 H   0  0  0  0  0  0  0  0  0  0  0  0
    6.2802   -0.7780   18.8882 H   0  0  0  0  0  0  0  0  0  0  0  0
    5.8403    1.3630   21.0569 H   0  0  0  0  0  0  0  0  0  0  0  0
    4.9841    1.2909   18.0853 H   0  0  0  0  0  0  0  0  0  0  0  0
    8.7773   -2.2383   22.1737 H   0  0  0  0  0  0  0  0  0  0  0  0
    8.2516   -1.0144   23.3225 H   0  0  0  0  0  0  0  0  0  0  0  0
    7.0711    2.9990   18.3912 H   0  0  0  0  0  0  0  0  0  0  0  0
    6.9060   -1.6912   20.9902 H   0  0  0  0  0  0  0  0  0  0  0  0
  1  2  1  0  0  0  0
  1  3  2  0  0  0  0
  2  5  2  0  0  0  0
  3  6  1  0  0  0  0
  4  5  1  0  0  0  0
  4  6  2  0  0  0  0
  5 15  1  0  0  0  0
  6 20  1  0  0  0  0
  7 12  1  0  0  0  0
  7 16  1  0  0  0  0
  7 18  2  0  0  0  0
  8 15  1  0  0  0  0
  8 17  1  0  0  0  0
  8 19  2  0  0  0  0
  9 10  1  0  0  0  0
  9 11  1  0  0  0  0
 10 13  1  1  0  0  0
 11 14  1  6  0  0  0
 12 13  1  0  0  0  0
 12 17  1  6  0  0  0
 13 14  1  0  0  0  0
 14 16  1  0  0  0  0
  1 21  1  0  0  0  0
  2 22  1  0  0  0  0
  3 23  1  0  0  0  0
  4 24  1  0  0  0  0
  9 25  1  0  0  0  0
  9 26  1  0  0  0  0
 10 27  1  0  0  0  0
 10 28  1  0  0  0  0
 11 29  1  0  0  0  0
 11 30  1  0  0  0  0
 12 31  1  0  0  0  0
 13 32  1  0  0  0  0
 14 33  1  0  0  0  0
 15 34  1  0  0  0  0
 15 35  1  0  0  0  0
 16 36  1  0  0  0  0
 17 37  1  0  0  0  0
M  END
> <compound>
MIC-UNK-8373f97b-5

> <compound_smiles>
c1cc(cc(c1)Cl)CC(=O)NC2C3CCCC3NC2=O

> <enantiomer_smiles>
c1cc(cc(c1)Cl)CC(=O)N[C@H]2[C@@H]3CCC[C@H]3NC2=O

> <scaffold>
chlorobenzene-linker

> <clash_score>
1.254316357522275

> <docking_score>
-3.40999174118042

> <overlap_score>
0.8496959805488586

> <MMFF_internal_energy>
80.93127188516742

> <docked_smiles>
c1cc(cc(c1)Cl)CC(=O)N[C@H]2[C@@H]3CCC[C@H]3NC2=O

$$$$
MIC-UNK-8373f97b-5_8
  -OEChem-07262101013D

 37 39  0     1  0  0  0  0  0999 V2000
   11.9780    0.4600   23.9150 C   0  0  0  0  0  0  0  0  0  0  0  0
   10.6560    0.0720   23.7350 C   0  0  0  0  0  0  0  0  0  0  0  0
   12.9840   -0.1200   23.1530 C   0  0  0  0  0  0  0  0  0  0  0  0
   11.3360   -1.5050   22.0650 C   0  0  0  0  0  0  0  0  0  0  0  0
   10.3220   -0.8940   22.7910 C   0  0  0  0  0  0  0  0  0  0  0  0
   12.6400   -1.1000   22.2390 C   0  0  0  0  0  0  0  0  0  0  0  0
    7.5991    0.5376   18.6884 C   0  0  0  0  0  0  0  0  0  0  0  0
    8.3880   -0.3240   21.3070 C   0  0  0  0  0  0  0  0  0  0  0  0
    5.7218    3.2814   21.1190 C   0  0  0  0  0  0  0  0  0  0  0  0
    6.2844    1.8874   21.3449 C   0  0  0  0  0  0  0  0  0  0  0  0
    5.9172    3.5161   19.6249 C   0  0  0  0  0  0  0  0  0  0  0  0
    6.6076   -0.0708   19.6581 C   0  0  1  0  0  0  0  0  0  0  0  0
    5.7702    1.1181   20.1272 C   0  0  1  0  0  0  0  0  0  0  0  0
    5.8665    2.1293   18.9817 C   0  0  1  0  0  0  0  0  0  0  0  0
    8.8810   -1.1900   22.4510 C   0  0  0  0  0  0  0  0  0  0  0  0
    7.0934    1.7774   18.3101 N   0  0  0  0  0  0  0  0  0  0  0  0
    7.2820   -0.7860   20.6970 N   0  0  0  0  0  0  0  0  0  0  0  0
    8.6207    0.0074   18.2787 O   0  0  0  0  0  0  0  0  0  0  0  0
    8.9170    0.7530   21.0260 O   0  0  0  0  0  0  0  0  0  0  0  0
   13.8840   -1.8490   21.2740 Cl  0  0  0  0  0  0  0  0  0  0  0  0
   12.2249    1.2198   24.6546 H   0  0  0  0  0  0  0  0  0  0  0  0
    9.8763    0.5350   24.3454 H   0  0  0  0  0  0  0  0  0  0  0  0
   14.0077    0.1988   23.2842 H   0  0  0  0  0  0  0  0  0  0  0  0
   11.0892   -2.3009   21.3624 H   0  0  0  0  0  0  0  0  0  0  0  0
    4.6536    3.3021   21.3656 H   0  0  0  0  0  0  0  0  0  0  0  0
    6.2252    4.0388   21.7268 H   0  0  0  0  0  0  0  0  0  0  0  0
    7.3802    1.9255   21.3687 H   0  0  0  0  0  0  0  0  0  0  0  0
    5.9374    1.4507   22.2861 H   0  0  0  0  0  0  0  0  0  0  0  0
    5.1394    4.1746   19.2245 H   0  0  0  0  0  0  0  0  0  0  0  0
    6.8806    4.0068   19.4416 H   0  0  0  0  0  0  0  0  0  0  0  0
    5.9888   -0.7828   19.0991 H   0  0  0  0  0  0  0  0  0  0  0  0
    4.7293    0.8165   20.2985 H   0  0  0  0  0  0  0  0  0  0  0  0
    5.0468    2.0299   18.2629 H   0  0  0  0  0  0  0  0  0  0  0  0
    8.7773   -2.2383   22.1737 H   0  0  0  0  0  0  0  0  0  0  0  0
    8.2516   -1.0144   23.3225 H   0  0  0  0  0  0  0  0  0  0  0  0
    7.5449    2.3771   17.6267 H   0  0  0  0  0  0  0  0  0  0  0  0
    6.9059   -1.6903   20.9895 H   0  0  0  0  0  0  0  0  0  0  0  0
  1  2  1  0  0  0  0
  1  3  2  0  0  0  0
  2  5  2  0  0  0  0
  3  6  1  0  0  0  0
  4  5  1  0  0  0  0
  4  6  2  0  0  0  0
  5 15  1  0  0  0  0
  6 20  1  0  0  0  0
  7 12  1  0  0  0  0
  7 16  1  0  0  0  0
  7 18  2  0  0  0  0
  8 15  1  0  0  0  0
  8 17  1  0  0  0  0
  8 19  2  0  0  0  0
  9 10  1  0  0  0  0
  9 11  1  0  0  0  0
 10 13  1  6  0  0  0
 11 14  1  6  0  0  0
 12 13  1  0  0  0  0
 12 17  1  6  0  0  0
 13 14  1  0  0  0  0
 14 16  1  0  0  0  0
  1 21  1  0  0  0  0
  2 22  1  0  0  0  0
  3 23  1  0  0  0  0
  4 24  1  0  0  0  0
  9 25  1  0  0  0  0
  9 26  1  0  0  0  0
 10 27  1  0  0  0  0
 10 28  1  0  0  0  0
 11 29  1  0  0  0  0
 11 30  1  0  0  0  0
 12 31  1  0  0  0  0
 13 32  1  0  0  0  0
 14 33  1  0  0  0  0
 15 34  1  0  0  0  0
 15 35  1  0  0  0  0
 16 36  1  0  0  0  0
 17 37  1  0  0  0  0
M  END
> <compound>
MIC-UNK-8373f97b-5

> <compound_smiles>
c1cc(cc(c1)Cl)CC(=O)NC2C3CCCC3NC2=O

> <enantiomer_smiles>
c1cc(cc(c1)Cl)CC(=O)N[C@H]2[C@H]3CCC[C@H]3NC2=O

> <scaffold>
chlorobenzene-linker

> <clash_score>
0

> <docking_score>
-3.056422710418701

> <overlap_score>
0.7387202382087708

> <MMFF_internal_energy>
55.190530733941074

> <docked_smiles>
c1cc(cc(c1)Cl)CC(=O)N[C@H]2[C@H]3CCC[C@H]3NC2=O

$$$$
MIC-UNK-8373f97b-4_8
  -OEChem-07262101013D

 40 42  0     1  0  0  0  0  0999 V2000
   11.9780    0.4600   23.9150 C   0  0  0  0  0  0  0  0  0  0  0  0
   10.6560    0.0720   23.7350 C   0  0  0  0  0  0  0  0  0  0  0  0
   12.9840   -0.1200   23.1530 C   0  0  0  0  0  0  0  0  0  0  0  0
   11.3360   -1.5050   22.0650 C   0  0  0  0  0  0  0  0  0  0  0  0
   10.3220   -0.8940   22.7910 C   0  0  0  0  0  0  0  0  0  0  0  0
   12.6400   -1.1000   22.2390 C   0  0  0  0  0  0  0  0  0  0  0  0
    7.6071    0.5233   18.6887 C   0  0  0  0  0  0  0  0  0  0  0  0
    8.3880   -0.3240   21.3070 C   0  0  0  0  0  0  0  0  0  0  0  0
    5.3790    3.0555   21.7191 C   0  0  0  0  0  0  0  0  0  0  0  0
    4.8814    3.7994   20.4778 C   0  0  0  0  0  0  0  0  0  0  0  0
    6.2246    1.8181   21.4006 C   0  0  0  0  0  0  0  0  0  0  0  0
    5.7935    3.5723   19.2799 C   0  0  0  0  0  0  0  0  0  0  0  0
    6.6072   -0.0706   19.6575 C   0  0  1  0  0  0  0  0  0  0  0  0
    5.7600    1.1316   20.1105 C   0  0  1  0  0  0  0  0  0  0  0  0
    5.8451    2.0895   18.9099 C   0  0  1  0  0  0  0  0  0  0  0  0
    8.8810   -1.1900   22.4510 C   0  0  0  0  0  0  0  0  0  0  0  0
    7.0921    1.7442   18.2713 N   0  0  0  0  0  0  0  0  0  0  0  0
    7.2820   -0.7860   20.6970 N   0  0  0  0  0  0  0  0  0  0  0  0
    8.6394   -0.0058   18.3052 O   0  0  0  0  0  0  0  0  0  0  0  0
    8.9170    0.7530   21.0260 O   0  0  0  0  0  0  0  0  0  0  0  0
   13.8840   -1.8490   21.2740 Cl  0  0  0  0  0  0  0  0  0  0  0  0
   12.2249    1.2198   24.6546 H   0  0  0  0  0  0  0  0  0  0  0  0
    9.8763    0.5350   24.3454 H   0  0  0  0  0  0  0  0  0  0  0  0
   14.0077    0.1988   23.2842 H   0  0  0  0  0  0  0  0  0  0  0  0
   11.0892   -2.3008   21.3624 H   0  0  0  0  0  0  0  0  0  0  0  0
    5.9739    3.7494   22.3455 H   0  0  0  0  0  0  0  0  0  0  0  0
    4.5147    2.7596   22.3480 H   0  0  0  0  0  0  0  0  0  0  0  0
    3.8636    3.4631   20.2346 H   0  0  0  0  0  0  0  0  0  0  0  0
    4.8109    4.8753   20.6956 H   0  0  0  0  0  0  0  0  0  0  0  0
    7.2703    2.1290   21.3235 H   0  0  0  0  0  0  0  0  0  0  0  0
    6.1607    1.1190   22.2374 H   0  0  0  0  0  0  0  0  0  0  0  0
    5.3951    4.1213   18.4327 H   0  0  0  0  0  0  0  0  0  0  0  0
    6.7873    3.9490   19.4855 H   0  0  0  0  0  0  0  0  0  0  0  0
    5.9885   -0.7989   19.1035 H   0  0  0  0  0  0  0  0  0  0  0  0
    4.6999    0.8268   20.2530 H   0  0  0  0  0  0  0  0  0  0  0  0
    5.0619    1.8836   18.1915 H   0  0  0  0  0  0  0  0  0  0  0  0
    8.7773   -2.2383   22.1737 H   0  0  0  0  0  0  0  0  0  0  0  0
    8.2516   -1.0144   23.3225 H   0  0  0  0  0  0  0  0  0  0  0  0
    7.5510    2.3429   17.5778 H   0  0  0  0  0  0  0  0  0  0  0  0
    6.9059   -1.6904   20.9895 H   0  0  0  0  0  0  0  0  0  0  0  0
  1  2  1  0  0  0  0
  1  3  2  0  0  0  0
  2  5  2  0  0  0  0
  3  6  1  0  0  0  0
  4  5  1  0  0  0  0
  4  6  2  0  0  0  0
  5 16  1  0  0  0  0
  6 21  1  0  0  0  0
  7 13  1  0  0  0  0
  7 17  1  0  0  0  0
  7 19  2  0  0  0  0
  8 16  1  0  0  0  0
  8 18  1  0  0  0  0
  8 20  2  0  0  0  0
  9 10  1  0  0  0  0
  9 11  1  0  0  0  0
 10 12  1  0  0  0  0
 11 14  1  6  0  0  0
 12 15  1  6  0  0  0
 13 14  1  0  0  0  0
 13 18  1  6  0  0  0
 14 15  1  0  0  0  0
 15 17  1  0  0  0  0
  1 22  1  0  0  0  0
  2 23  1  0  0  0  0
  3 24  1  0  0  0  0
  4 25  1  0  0  0  0
  9 26  1  0  0  0  0
  9 27  1  0  0  0  0
 10 28  1  0  0  0  0
 10 29  1  0  0  0  0
 11 30  1  0  0  0  0
 11 31  1  0  0  0  0
 12 32  1  0  0  0  0
 12 33  1  0  0  0  0
 13 34  1  0  0  0  0
 14 35  1  0  0  0  0
 15 36  1  0  0  0  0
 16 37  1  0  0  0  0
 16 38  1  0  0  0  0
 17 39  1  0  0  0  0
 18 40  1  0  0  0  0
M  END
> <compound>
MIC-UNK-8373f97b-4

> <compound_smiles>
c1cc(cc(c1)Cl)CC(=O)NC2C3CCCCC3NC2=O

> <enantiomer_smiles>
c1cc(cc(c1)Cl)CC(=O)N[C@H]2[C@H]3CCCC[C@H]3NC2=O

> <scaffold>
chlorobenzene-linker

> <clash_score>
0.610379282145833

> <docking_score>
-2.6404924392700195

> <overlap_score>
0.7513761520385742

> <MMFF_internal_energy>
53.109031722259324

> <docked_smiles>
c1cc(cc(c1)Cl)CC(=O)N[C@H]2[C@H]3CCCC[C@H]3NC2=O

$$$$
VLA-UCB-1dbca3b4-1_2
  -OEChem-07262101013D

 34 36  0     1  0  0  0  0  0999 V2000
    4.2595    2.4832   21.2843 C   0  0  0  0  0  0  0  0  0  0  0  0
    3.0659    2.0301   20.6919 C   0  0  0  0  0  0  0  0  0  0  0  0
   11.9780    0.4600   23.9150 C   0  0  0  0  0  0  0  0  0  0  0  0
    5.4797    1.8569   21.0107 C   0  0  0  0  0  0  0  0  0  0  0  0
   10.6560    0.0720   23.7350 C   0  0  0  0  0  0  0  0  0  0  0  0
    3.0712    0.9435   19.8155 C   0  0  0  0  0  0  0  0  0  0  0  0
   12.9840   -0.1200   23.1530 C   0  0  0  0  0  0  0  0  0  0  0  0
   11.3360   -1.5050   22.0650 C   0  0  0  0  0  0  0  0  0  0  0  0
    5.4768    0.7794   20.1451 C   0  0  0  0  0  0  0  0  0  0  0  0
   10.3220   -0.8940   22.7910 C   0  0  0  0  0  0  0  0  0  0  0  0
    4.2881    0.3433   19.5625 C   0  0  0  0  0  0  0  0  0  0  0  0
   12.6400   -1.1000   22.2390 C   0  0  0  0  0  0  0  0  0  0  0  0
    5.9012   -1.0837   18.7433 C   0  0  0  0  0  0  0  0  0  0  0  0
    8.3880   -0.3240   21.3070 C   0  0  0  0  0  0  0  0  0  0  0  0
    6.6075   -0.0692   19.6569 C   0  0  2  0  0  0  0  0  0  0  0  0
    8.8810   -1.1900   22.4510 C   0  0  0  0  0  0  0  0  0  0  0  0
    4.5411   -0.7481   18.7377 N   0  0  0  0  0  0  0  0  0  0  0  0
    7.2820   -0.7860   20.6970 N   0  0  0  0  0  0  0  0  0  0  0  0
    6.4341   -2.0164   18.1615 O   0  0  0  0  0  0  0  0  0  0  0  0
    8.9170    0.7530   21.0260 O   0  0  0  0  0  0  0  0  0  0  0  0
   13.8840   -1.8490   21.2740 Cl  0  0  0  0  0  0  0  0  0  0  0  0
    4.2310    3.3324   21.9621 H   0  0  0  0  0  0  0  0  0  0  0  0
    2.1304    2.5338   20.9205 H   0  0  0  0  0  0  0  0  0  0  0  0
   12.2249    1.2198   24.6546 H   0  0  0  0  0  0  0  0  0  0  0  0
    6.3973    2.2121   21.4665 H   0  0  0  0  0  0  0  0  0  0  0  0
    9.8763    0.5350   24.3454 H   0  0  0  0  0  0  0  0  0  0  0  0
    2.1536    0.5922   19.3580 H   0  0  0  0  0  0  0  0  0  0  0  0
   14.0077    0.1988   23.2842 H   0  0  0  0  0  0  0  0  0  0  0  0
   11.0892   -2.3009   21.3624 H   0  0  0  0  0  0  0  0  0  0  0  0
    7.3272    0.5103   19.0713 H   0  0  0  0  0  0  0  0  0  0  0  0
    8.7773   -2.2383   22.1737 H   0  0  0  0  0  0  0  0  0  0  0  0
    8.2516   -1.0144   23.3225 H   0  0  0  0  0  0  0  0  0  0  0  0
    3.8220   -1.2403   18.2210 H   0  0  0  0  0  0  0  0  0  0  0  0
    6.9058   -1.6898   20.9891 H   0  0  0  0  0  0  0  0  0  0  0  0
  1  2  1  0  0  0  0
  1  4  2  0  0  0  0
  2  6  2  0  0  0  0
  3  5  2  0  0  0  0
  3  7  1  0  0  0  0
  4  9  1  0  0  0  0
  5 10  1  0  0  0  0
  6 11  1  0  0  0  0
  7 12  2  0  0  0  0
  8 10  2  0  0  0  0
  8 12  1  0  0  0  0
  9 11  2  0  0  0  0
  9 15  1  0  0  0  0
 10 16  1  0  0  0  0
 11 17  1  0  0  0  0
 12 21  1  0  0  0  0
 13 15  1  0  0  0  0
 13 17  1  0  0  0  0
 13 19  2  0  0  0  0
 14 16  1  0  0  0  0
 14 18  1  0  0  0  0
 14 20  2  0  0  0  0
 15 18  1  6  0  0  0
  1 22  1  0  0  0  0
  2 23  1  0  0  0  0
  3 24  1  0  0  0  0
  4 25  1  0  0  0  0
  5 26  1  0  0  0  0
  6 27  1  0  0  0  0
  7 28  1  0  0  0  0
  8 29  1  0  0  0  0
 15 30  1  0  0  0  0
 16 31  1  0  0  0  0
 16 32  1  0  0  0  0
 17 33  1  0  0  0  0
 18 34  1  0  0  0  0
M  END
> <compound>
VLA-UCB-1dbca3b4-1

> <compound_smiles>
c1ccc2c(c1)C(C(=O)N2)NC(=O)Cc3cccc(c3)Cl

> <enantiomer_smiles>
c1ccc2c(c1)[C@H](C(=O)N2)NC(=O)Cc3cccc(c3)Cl

> <scaffold>
chlorobenzene-linker

> <canonical_CID>
VLA-UCB-1dbca3b4-1

> <r_inhibition_at_20_uM>

> <r_inhibition_at_50_uM>

> <r_avg_IC50>
99.0

> <f_inhibition_at_20_uM>

> <f_inhibition_at_50_uM>

> <f_avg_IC50>
99.5

> <f_avg_pIC50>

> <relative_solubility_at_20_uM>

> <relative_solubility_at_100_uM>

> <trypsin_IC50>

> <NMR_std_ratio>

> <acrylamide>
False

> <chloroacetamide>
False

> <series>
Ugi

> <frag_id>

> <clash_score>
0.6088108629531825

> <docking_score>
-4.445033073425293

> <overlap_score>
0.8547785878181458

> <MMFF_internal_energy>
51.736088787783004

> <docked_smiles>
c1ccc2c(c1)[C@H](C(=O)N2)NC(=O)Cc3cccc(c3)Cl

$$$$
MIC-UNK-d36ab305-1_1
  -OEChem-07262101013D

 51 54  0     1  0  0  0  0  0999 V2000
    2.5668    0.9991   19.8292 C   0  0  0  0  0  0  0  0  0  0  0  0
    3.1777    0.4474   20.9529 C   0  0  0  0  0  0  0  0  0  0  0  0
   11.9780    0.4600   23.9150 C   0  0  0  0  0  0  0  0  0  0  0  0
    3.2867    1.1444   18.6435 C   0  0  0  0  0  0  0  0  0  0  0  0
    4.5112    0.0385   20.8961 C   0  0  0  0  0  0  0  0  0  0  0  0
   10.6560    0.0720   23.7350 C   0  0  0  0  0  0  0  0  0  0  0  0
    7.7324   -3.3486   23.0784 C   0  0  0  0  0  0  0  0  0  0  0  0
    9.2211   -3.3456   21.1755 C   0  0  0  0  0  0  0  0  0  0  0  0
    7.4763   -4.7047   22.8759 C   0  0  0  0  0  0  0  0  0  0  0  0
    8.9650   -4.7017   20.9731 C   0  0  0  0  0  0  0  0  0  0  0  0
   12.9840   -0.1200   23.1530 C   0  0  0  0  0  0  0  0  0  0  0  0
   11.3360   -1.5050   22.0650 C   0  0  0  0  0  0  0  0  0  0  0  0
    5.3962    0.8584   17.4147 C   0  0  0  0  0  0  0  0  0  0  0  0
    7.2517   -0.0529   18.4154 C   0  0  0  0  0  0  0  0  0  0  0  0
    4.6291    0.7363   18.5749 C   0  0  0  0  0  0  0  0  0  0  0  0
    5.2511    0.1773   19.7105 C   0  0  0  0  0  0  0  0  0  0  0  0
    8.6048   -2.6690   22.2282 C   0  0  0  0  0  0  0  0  0  0  0  0
   10.3220   -0.8940   22.7910 C   0  0  0  0  0  0  0  0  0  0  0  0
    8.0926   -5.3812   21.8233 C   0  0  0  0  0  0  0  0  0  0  0  0
    6.5894   -0.2231   19.6216 C   0  0  0  0  0  0  0  0  0  0  0  0
   12.6400   -1.1000   22.2390 C   0  0  0  0  0  0  0  0  0  0  0  0
    6.9991   -7.5806   22.3632 C   0  0  0  0  0  0  0  0  0  0  0  0
    8.3880   -0.3240   21.3070 C   0  0  0  0  0  0  0  0  0  0  0  0
    6.9957   -8.9868   21.8183 C   0  0  0  0  0  0  0  0  0  0  0  0
    8.8810   -1.1900   22.4510 C   0  0  1  0  0  0  0  0  0  0  0  0
    6.6894    0.4780   17.3088 N   0  0  0  0  0  0  0  0  0  0  0  0
    7.8369   -6.7377   21.6206 N   0  0  0  0  0  0  0  0  0  0  0  0
    7.2820   -0.7860   20.6970 N   0  0  0  0  0  0  0  0  0  0  0  0
    6.3207   -7.2843   23.3414 O   0  0  0  0  0  0  0  0  0  0  0  0
    8.9170    0.7530   21.0260 O   0  0  0  0  0  0  0  0  0  0  0  0
   13.8840   -1.8490   21.2740 Cl  0  0  0  0  0  0  0  0  0  0  0  0
    1.5292    1.3162   19.8761 H   0  0  0  0  0  0  0  0  0  0  0  0
    2.6151    0.3349   21.8753 H   0  0  0  0  0  0  0  0  0  0  0  0
   12.2249    1.2198   24.6546 H   0  0  0  0  0  0  0  0  0  0  0  0
    2.7944    1.5769   17.7756 H   0  0  0  0  0  0  0  0  0  0  0  0
    4.9530   -0.3868   21.7943 H   0  0  0  0  0  0  0  0  0  0  0  0
    9.8763    0.5350   24.3454 H   0  0  0  0  0  0  0  0  0  0  0  0
    7.2461   -2.8288   23.8997 H   0  0  0  0  0  0  0  0  0  0  0  0
    9.9016   -2.8237   20.5078 H   0  0  0  0  0  0  0  0  0  0  0  0
    6.7950   -5.2244   23.5449 H   0  0  0  0  0  0  0  0  0  0  0  0
    9.4499   -5.2190   20.1489 H   0  0  0  0  0  0  0  0  0  0  0  0
   14.0077    0.1988   23.2842 H   0  0  0  0  0  0  0  0  0  0  0  0
   11.0892   -2.3009   21.3624 H   0  0  0  0  0  0  0  0  0  0  0  0
    4.9786    1.2803   16.5046 H   0  0  0  0  0  0  0  0  0  0  0  0
    8.2902   -0.3481   18.2953 H   0  0  0  0  0  0  0  0  0  0  0  0
    7.7831   -9.5727   22.3008 H   0  0  0  0  0  0  0  0  0  0  0  0
    7.1791   -8.9666   20.7403 H   0  0  0  0  0  0  0  0  0  0  0  0
    6.0248   -9.4562   22.0026 H   0  0  0  0  0  0  0  0  0  0  0  0
    8.2916   -0.8789   23.3253 H   0  0  0  0  0  0  0  0  0  0  0  0
    8.3195   -7.1793   20.8294 H   0  0  0  0  0  0  0  0  0  0  0  0
    6.8947   -1.6571   21.0746 H   0  0  0  0  0  0  0  0  0  0  0  0
  1  2  1  0  0  0  0
  1  4  2  0  0  0  0
  2  5  2  0  0  0  0
  3  6  2  0  0  0  0
  3 11  1  0  0  0  0
  4 15  1  0  0  0  0
  5 16  1  0  0  0  0
  6 18  1  0  0  0  0
  7  9  2  0  0  0  0
  7 17  1  0  0  0  0
  8 10  1  0  0  0  0
  8 17  2  0  0  0  0
  9 19  1  0  0  0  0
 10 19  2  0  0  0  0
 11 21  2  0  0  0  0
 12 18  2  0  0  0  0
 12 21  1  0  0  0  0
 13 15  2  0  0  0  0
 13 26  1  0  0  0  0
 14 20  1  0  0  0  0
 14 26  2  0  0  0  0
 15 16  1  0  0  0  0
 16 20  2  0  0  0  0
 17 25  1  0  0  0  0
 18 25  1  0  0  0  0
 19 27  1  0  0  0  0
 20 28  1  0  0  0  0
 21 31  1  0  0  0  0
 22 24  1  0  0  0  0
 22 27  1  0  0  0  0
 22 29  2  0  0  0  0
 23 25  1  1  0  0  0
 23 28  1  0  0  0  0
 23 30  2  0  0  0  0
  1 32  1  0  0  0  0
  2 33  1  0  0  0  0
  3 34  1  0  0  0  0
  4 35  1  0  0  0  0
  5 36  1  0  0  0  0
  6 37  1  0  0  0  0
  7 38  1  0  0  0  0
  8 39  1  0  0  0  0
  9 40  1  0  0  0  0
 10 41  1  0  0  0  0
 11 42  1  0  0  0  0
 12 43  1  0  0  0  0
 13 44  1  0  0  0  0
 14 45  1  0  0  0  0
 24 46  1  0  0  0  0
 24 47  1  0  0  0  0
 24 48  1  0  0  0  0
 25 49  1  0  0  0  0
 27 50  1  0  0  0  0
 28 51  1  0  0  0  0
M  END
> <compound>
MIC-UNK-d36ab305-1

> <compound_smiles>
CC(=O)Nc1ccc(cc1)C(c2cccc(c2)Cl)C(=O)Nc3cncc4c3cccc4

> <enantiomer_smiles>
CC(=O)Nc1ccc(cc1)[C@@H](c2cccc(c2)Cl)C(=O)Nc3cncc4c3cccc4

> <scaffold>
chlorobenzene-linker

> <clash_score>
0.7241548957900199

> <docking_score>
-2.1057863235473633

> <overlap_score>
0.892296552658081

> <MMFF_internal_energy>
144.95382179671287

> <docked_smiles>
CC(=O)Nc1ccc(cc1)[C@@H](c2cccc(c2)Cl)C(=O)Nc3cncc4c3cccc4

$$$$
VLA-UCB-1dbca3b4-1_1
  -OEChem-07262101013D

 34 36  0     1  0  0  0  0  0999 V2000
    5.2380    3.1903   21.1344 C   0  0  0  0  0  0  0  0  0  0  0  0
    5.9004    4.0737   20.2619 C   0  0  0  0  0  0  0  0  0  0  0  0
   11.9780    0.4600   23.9150 C   0  0  0  0  0  0  0  0  0  0  0  0
    5.4075    1.8067   21.0201 C   0  0  0  0  0  0  0  0  0  0  0  0
   10.6560    0.0720   23.7350 C   0  0  0  0  0  0  0  0  0  0  0  0
    6.7430    3.5895   19.2597 C   0  0  0  0  0  0  0  0  0  0  0  0
   12.9840   -0.1200   23.1530 C   0  0  0  0  0  0  0  0  0  0  0  0
   11.3360   -1.5050   22.0650 C   0  0  0  0  0  0  0  0  0  0  0  0
    6.2468    1.3343   20.0284 C   0  0  0  0  0  0  0  0  0  0  0  0
   10.3220   -0.8940   22.7910 C   0  0  0  0  0  0  0  0  0  0  0  0
    6.8930    2.2204   19.1686 C   0  0  0  0  0  0  0  0  0  0  0  0
   12.6400   -1.1000   22.2390 C   0  0  0  0  0  0  0  0  0  0  0  0
    7.5853    0.1315   18.4876 C   0  0  0  0  0  0  0  0  0  0  0  0
    8.3880   -0.3240   21.3070 C   0  0  0  0  0  0  0  0  0  0  0  0
    6.6075   -0.0696   19.6571 C   0  0  1  0  0  0  0  0  0  0  0  0
    8.8810   -1.1900   22.4510 C   0  0  0  0  0  0  0  0  0  0  0  0
    7.6754    1.5111   18.2634 N   0  0  0  0  0  0  0  0  0  0  0  0
    7.2820   -0.7860   20.6970 N   0  0  0  0  0  0  0  0  0  0  0  0
    8.1839   -0.7532   17.8947 O   0  0  0  0  0  0  0  0  0  0  0  0
    8.9170    0.7530   21.0260 O   0  0  0  0  0  0  0  0  0  0  0  0
   13.8840   -1.8490   21.2740 Cl  0  0  0  0  0  0  0  0  0  0  0  0
    4.5852    3.5901   21.9058 H   0  0  0  0  0  0  0  0  0  0  0  0
    5.7522    5.1447   20.3710 H   0  0  0  0  0  0  0  0  0  0  0  0
   12.2249    1.2198   24.6546 H   0  0  0  0  0  0  0  0  0  0  0  0
    4.8919    1.1299   21.6921 H   0  0  0  0  0  0  0  0  0  0  0  0
    9.8763    0.5350   24.3454 H   0  0  0  0  0  0  0  0  0  0  0  0
    7.2543    4.2675   18.5862 H   0  0  0  0  0  0  0  0  0  0  0  0
   14.0077    0.1988   23.2842 H   0  0  0  0  0  0  0  0  0  0  0  0
   11.0892   -2.3009   21.3624 H   0  0  0  0  0  0  0  0  0  0  0  0
    5.7372   -0.6354   19.3124 H   0  0  0  0  0  0  0  0  0  0  0  0
    8.7773   -2.2383   22.1737 H   0  0  0  0  0  0  0  0  0  0  0  0
    8.2516   -1.0144   23.3225 H   0  0  0  0  0  0  0  0  0  0  0  0
    8.2376    1.9372   17.5360 H   0  0  0  0  0  0  0  0  0  0  0  0
    6.9058   -1.6899   20.9892 H   0  0  0  0  0  0  0  0  0  0  0  0
  1  2  1  0  0  0  0
  1  4  2  0  0  0  0
  2  6  2  0  0  0  0
  3  5  2  0  0  0  0
  3  7  1  0  0  0  0
  4  9  1  0  0  0  0
  5 10  1  0  0  0  0
  6 11  1  0  0  0  0
  7 12  2  0  0  0  0
  8 10  2  0  0  0  0
  8 12  1  0  0  0  0
  9 11  2  0  0  0  0
  9 15  1  0  0  0  0
 10 16  1  0  0  0  0
 11 17  1  0  0  0  0
 12 21  1  0  0  0  0
 13 15  1  0  0  0  0
 13 17  1  0  0  0  0
 13 19  2  0  0  0  0
 14 16  1  0  0  0  0
 14 18  1  0  0  0  0
 14 20  2  0  0  0  0
 15 18  1  1  0  0  0
  1 22  1  0  0  0  0
  2 23  1  0  0  0  0
  3 24  1  0  0  0  0
  4 25  1  0  0  0  0
  5 26  1  0  0  0  0
  6 27  1  0  0  0  0
  7 28  1  0  0  0  0
  8 29  1  0  0  0  0
 15 30  1  0  0  0  0
 16 31  1  0  0  0  0
 16 32  1  0  0  0  0
 17 33  1  0  0  0  0
 18 34  1  0  0  0  0
M  END
> <compound>
VLA-UCB-1dbca3b4-1

> <compound_smiles>
c1ccc2c(c1)C(C(=O)N2)NC(=O)Cc3cccc(c3)Cl

> <enantiomer_smiles>
c1ccc2c(c1)[C@@H](C(=O)N2)NC(=O)Cc3cccc(c3)Cl

> <scaffold>
chlorobenzene-linker

> <canonical_CID>
VLA-UCB-1dbca3b4-1

> <r_inhibition_at_20_uM>

> <r_inhibition_at_50_uM>

> <r_avg_IC50>
99.0

> <f_inhibition_at_20_uM>

> <f_inhibition_at_50_uM>

> <f_avg_IC50>
99.5

> <f_avg_pIC50>

> <relative_solubility_at_20_uM>

> <relative_solubility_at_100_uM>

> <trypsin_IC50>

> <NMR_std_ratio>

> <acrylamide>
False

> <chloroacetamide>
False

> <series>
Ugi

> <frag_id>

> <clash_score>
2.0784572346609744

> <docking_score>
-3.099950075149536

> <overlap_score>
0.7295798659324646

> <MMFF_internal_energy>
58.94367715001033

> <docked_smiles>
c1ccc2c(c1)[C@@H](C(=O)N2)NC(=O)Cc3cccc(c3)Cl

$$$$
MIC-UNK-d36ab305-1_2
  -OEChem-07262101013D

 51 54  0     1  0  0  0  0  0999 V2000
    3.4633    2.5600   20.0688 C   0  0  0  0  0  0  0  0  0  0  0  0
    4.0987    2.0507   21.1990 C   0  0  0  0  0  0  0  0  0  0  0  0
   11.9780    0.4600   23.9150 C   0  0  0  0  0  0  0  0  0  0  0  0
    3.8631    2.1481   18.7978 C   0  0  0  0  0  0  0  0  0  0  0  0
    5.1367    1.1272   21.0631 C   0  0  0  0  0  0  0  0  0  0  0  0
   10.6560    0.0720   23.7350 C   0  0  0  0  0  0  0  0  0  0  0  0
    7.7797   -2.2940   24.4446 C   0  0  0  0  0  0  0  0  0  0  0  0
    7.2754    0.0233   23.9833 C   0  0  0  0  0  0  0  0  0  0  0  0
    6.9298   -2.2589   25.5500 C   0  0  0  0  0  0  0  0  0  0  0  0
    6.4254    0.0584   25.0887 C   0  0  0  0  0  0  0  0  0  0  0  0
   12.9840   -0.1200   23.1530 C   0  0  0  0  0  0  0  0  0  0  0  0
   11.3360   -1.5050   22.0650 C   0  0  0  0  0  0  0  0  0  0  0  0
    5.3467    0.7727   17.4017 C   0  0  0  0  0  0  0  0  0  0  0  0
    6.9411   -0.5933   18.3326 C   0  0  0  0  0  0  0  0  0  0  0  0
    4.9064    1.2193   18.6492 C   0  0  0  0  0  0  0  0  0  0  0  0
    5.5521    0.7013   19.7909 C   0  0  0  0  0  0  0  0  0  0  0  0
    7.9526   -1.1529   23.6612 C   0  0  0  0  0  0  0  0  0  0  0  0
   10.3220   -0.8940   22.7910 C   0  0  0  0  0  0  0  0  0  0  0  0
    6.2526   -1.0828   25.8720 C   0  0  0  0  0  0  0  0  0  0  0  0
    6.5894   -0.2231   19.6216 C   0  0  0  0  0  0  0  0  0  0  0  0
   12.6400   -1.1000   22.2390 C   0  0  0  0  0  0  0  0  0  0  0  0
    5.1046   -2.0828   27.8736 C   0  0  0  0  0  0  0  0  0  0  0  0
    8.3880   -0.3240   21.3070 C   0  0  0  0  0  0  0  0  0  0  0  0
    4.1340   -1.6386   28.9390 C   0  0  0  0  0  0  0  0  0  0  0  0
    8.8810   -1.1900   22.4510 C   0  0  2  0  0  0  0  0  0  0  0  0
    6.3463   -0.1190   17.2173 N   0  0  0  0  0  0  0  0  0  0  0  0
    5.4022   -1.0475   26.9775 N   0  0  0  0  0  0  0  0  0  0  0  0
    7.2820   -0.7860   20.6970 N   0  0  0  0  0  0  0  0  0  0  0  0
    5.5412   -3.2292   27.8602 O   0  0  0  0  0  0  0  0  0  0  0  0
    8.9170    0.7530   21.0260 O   0  0  0  0  0  0  0  0  0  0  0  0
   13.8840   -1.8490   21.2740 Cl  0  0  0  0  0  0  0  0  0  0  0  0
    2.6559    3.2781   20.1775 H   0  0  0  0  0  0  0  0  0  0  0  0
    3.7856    2.3726   22.1881 H   0  0  0  0  0  0  0  0  0  0  0  0
   12.2249    1.2198   24.6546 H   0  0  0  0  0  0  0  0  0  0  0  0
    3.3562    2.5557   17.9261 H   0  0  0  0  0  0  0  0  0  0  0  0
    5.6084    0.7531   21.9689 H   0  0  0  0  0  0  0  0  0  0  0  0
    9.8763    0.5350   24.3454 H   0  0  0  0  0  0  0  0  0  0  0  0
    8.3051   -3.2141   24.2024 H   0  0  0  0  0  0  0  0  0  0  0  0
    7.4048    0.9173   23.3789 H   0  0  0  0  0  0  0  0  0  0  0  0
    6.8023   -3.1543   26.1533 H   0  0  0  0  0  0  0  0  0  0  0  0
    5.9034    0.9806   25.3313 H   0  0  0  0  0  0  0  0  0  0  0  0
   14.0077    0.1988   23.2842 H   0  0  0  0  0  0  0  0  0  0  0  0
   11.0892   -2.3009   21.3624 H   0  0  0  0  0  0  0  0  0  0  0  0
    4.8926    1.1313   16.4820 H   0  0  0  0  0  0  0  0  0  0  0  0
    7.7387   -1.3076   18.1483 H   0  0  0  0  0  0  0  0  0  0  0  0
    3.1086   -1.8195   28.6042 H   0  0  0  0  0  0  0  0  0  0  0  0
    4.2603   -0.5695   29.1323 H   0  0  0  0  0  0  0  0  0  0  0  0
    4.3192   -2.1894   29.8659 H   0  0  0  0  0  0  0  0  0  0  0  0
    8.8597   -2.2241   22.0688 H   0  0  0  0  0  0  0  0  0  0  0  0
    4.9331   -0.1534   27.1633 H   0  0  0  0  0  0  0  0  0  0  0  0
    6.8947   -1.6571   21.0746 H   0  0  0  0  0  0  0  0  0  0  0  0
  1  2  1  0  0  0  0
  1  4  2  0  0  0  0
  2  5  2  0  0  0  0
  3  6  2  0  0  0  0
  3 11  1  0  0  0  0
  4 15  1  0  0  0  0
  5 16  1  0  0  0  0
  6 18  1  0  0  0  0
  7  9  2  0  0  0  0
  7 17  1  0  0  0  0
  8 10  1  0  0  0  0
  8 17  2  0  0  0  0
  9 19  1  0  0  0  0
 10 19  2  0  0  0  0
 11 21  2  0  0  0  0
 12 18  2  0  0  0  0
 12 21  1  0  0  0  0
 13 15  2  0  0  0  0
 13 26  1  0  0  0  0
 14 20  1  0  0  0  0
 14 26  2  0  0  0  0
 15 16  1  0  0  0  0
 16 20  2  0  0  0  0
 17 25  1  0  0  0  0
 18 25  1  0  0  0  0
 19 27  1  0  0  0  0
 20 28  1  0  0  0  0
 21 31  1  0  0  0  0
 22 24  1  0  0  0  0
 22 27  1  0  0  0  0
 22 29  2  0  0  0  0
 23 25  1  6  0  0  0
 23 28  1  0  0  0  0
 23 30  2  0  0  0  0
  1 32  1  0  0  0  0
  2 33  1  0  0  0  0
  3 34  1  0  0  0  0
  4 35  1  0  0  0  0
  5 36  1  0  0  0  0
  6 37  1  0  0  0  0
  7 38  1  0  0  0  0
  8 39  1  0  0  0  0
  9 40  1  0  0  0  0
 10 41  1  0  0  0  0
 11 42  1  0  0  0  0
 12 43  1  0  0  0  0
 13 44  1  0  0  0  0
 14 45  1  0  0  0  0
 24 46  1  0  0  0  0
 24 47  1  0  0  0  0
 24 48  1  0  0  0  0
 25 49  1  0  0  0  0
 27 50  1  0  0  0  0
 28 51  1  0  0  0  0
M  END
> <compound>
MIC-UNK-d36ab305-1

> <compound_smiles>
CC(=O)Nc1ccc(cc1)C(c2cccc(c2)Cl)C(=O)Nc3cncc4c3cccc4

> <enantiomer_smiles>
CC(=O)Nc1ccc(cc1)[C@H](c2cccc(c2)Cl)C(=O)Nc3cncc4c3cccc4

> <scaffold>
chlorobenzene-linker

> <clash_score>
0

> <docking_score>
-10.693397521972656

> <overlap_score>
0.9748271703720093

> <MMFF_internal_energy>
133.59739827024092

> <docked_smiles>
CC(=O)Nc1ccc(cc1)[C@H](c2cccc(c2)Cl)C(=O)Nc3cncc4c3cccc4

$$$$
MIC-UNK-d36ab305-4_1
  -OEChem-07262101013D

 52 55  0     1  0  0  0  0  0999 V2000
    3.4633    2.5600   20.0688 C   0  0  0  0  0  0  0  0  0  0  0  0
    4.0987    2.0507   21.1990 C   0  0  0  0  0  0  0  0  0  0  0  0
   11.9780    0.4600   23.9150 C   0  0  0  0  0  0  0  0  0  0  0  0
    3.8631    2.1481   18.7977 C   0  0  0  0  0  0  0  0  0  0  0  0
    5.1367    1.1272   21.0631 C   0  0  0  0  0  0  0  0  0  0  0  0
   10.6560    0.0720   23.7350 C   0  0  0  0  0  0  0  0  0  0  0  0
    8.2955   -3.4900   23.3126 C   0  0  0  0  0  0  0  0  0  0  0  0
    8.6592   -3.2044   20.9413 C   0  0  0  0  0  0  0  0  0  0  0  0
    8.0404   -4.8463   23.1102 C   0  0  0  0  0  0  0  0  0  0  0  0
    8.4042   -4.5607   20.7388 C   0  0  0  0  0  0  0  0  0  0  0  0
   12.9840   -0.1200   23.1530 C   0  0  0  0  0  0  0  0  0  0  0  0
   11.3360   -1.5050   22.0650 C   0  0  0  0  0  0  0  0  0  0  0  0
    5.3467    0.7728   17.4017 C   0  0  0  0  0  0  0  0  0  0  0  0
    6.9411   -0.5933   18.3326 C   0  0  0  0  0  0  0  0  0  0  0  0
    4.9064    1.2193   18.6492 C   0  0  0  0  0  0  0  0  0  0  0  0
    5.5521    0.7014   19.7909 C   0  0  0  0  0  0  0  0  0  0  0  0
    8.6048   -2.6690   22.2282 C   0  0  0  0  0  0  0  0  0  0  0  0
   10.3220   -0.8940   22.7910 C   0  0  0  0  0  0  0  0  0  0  0  0
    8.0948   -5.3817   21.8233 C   0  0  0  0  0  0  0  0  0  0  0  0
    6.5894   -0.2231   19.6216 C   0  0  0  0  0  0  0  0  0  0  0  0
   12.6400   -1.1000   22.2390 C   0  0  0  0  0  0  0  0  0  0  0  0
    8.3880   -0.3240   21.3070 C   0  0  0  0  0  0  0  0  0  0  0  0
    6.9361   -7.4708   22.4966 C   0  0  0  0  0  0  0  0  0  0  0  0
    8.4645   -7.4604   20.5186 C   0  0  0  0  0  0  0  0  0  0  0  0
    8.8810   -1.1900   22.4510 C   0  0  1  0  0  0  0  0  0  0  0  0
    6.3463   -0.1190   17.2173 N   0  0  0  0  0  0  0  0  0  0  0  0
    7.2820   -0.7860   20.6970 N   0  0  0  0  0  0  0  0  0  0  0  0
    7.8389   -6.7533   21.6184 N   0  0  0  0  0  0  0  0  0  0  0  0
    8.9170    0.7530   21.0260 O   0  0  0  0  0  0  0  0  0  0  0  0
   13.8840   -1.8490   21.2740 Cl  0  0  0  0  0  0  0  0  0  0  0  0
    2.6559    3.2781   20.1774 H   0  0  0  0  0  0  0  0  0  0  0  0
    3.7856    2.3726   22.1881 H   0  0  0  0  0  0  0  0  0  0  0  0
   12.2249    1.2198   24.6546 H   0  0  0  0  0  0  0  0  0  0  0  0
    3.3562    2.5557   17.9261 H   0  0  0  0  0  0  0  0  0  0  0  0
    5.6084    0.7531   21.9689 H   0  0  0  0  0  0  0  0  0  0  0  0
    9.8763    0.5350   24.3454 H   0  0  0  0  0  0  0  0  0  0  0  0
    8.2499   -3.0811   24.3184 H   0  0  0  0  0  0  0  0  0  0  0  0
    8.8977   -2.5722   20.0903 H   0  0  0  0  0  0  0  0  0  0  0  0
    7.7989   -5.4768   23.9620 H   0  0  0  0  0  0  0  0  0  0  0  0
    8.4486   -4.9671   19.7317 H   0  0  0  0  0  0  0  0  0  0  0  0
   14.0077    0.1988   23.2842 H   0  0  0  0  0  0  0  0  0  0  0  0
   11.0892   -2.3009   21.3624 H   0  0  0  0  0  0  0  0  0  0  0  0
    4.8926    1.1314   16.4820 H   0  0  0  0  0  0  0  0  0  0  0  0
    7.7387   -1.3076   18.1483 H   0  0  0  0  0  0  0  0  0  0  0  0
    6.8685   -8.5207   22.1753 H   0  0  0  0  0  0  0  0  0  0  0  0
    7.3159   -7.4267   23.5280 H   0  0  0  0  0  0  0  0  0  0  0  0
    5.9386   -7.0092   22.4531 H   0  0  0  0  0  0  0  0  0  0  0  0
    8.1420   -8.5121   20.5273 H   0  0  0  0  0  0  0  0  0  0  0  0
    8.1684   -6.9941   19.5673 H   0  0  0  0  0  0  0  0  0  0  0  0
    9.5581   -7.4116   20.6261 H   0  0  0  0  0  0  0  0  0  0  0  0
    8.2916   -0.8789   23.3253 H   0  0  0  0  0  0  0  0  0  0  0  0
    6.8947   -1.6571   21.0746 H   0  0  0  0  0  0  0  0  0  0  0  0
  1  2  1  0  0  0  0
  1  4  2  0  0  0  0
  2  5  2  0  0  0  0
  3  6  2  0  0  0  0
  3 11  1  0  0  0  0
  4 15  1  0  0  0  0
  5 16  1  0  0  0  0
  6 18  1  0  0  0  0
  7  9  2  0  0  0  0
  7 17  1  0  0  0  0
  8 10  1  0  0  0  0
  8 17  2  0  0  0  0
  9 19  1  0  0  0  0
 10 19  2  0  0  0  0
 11 21  2  0  0  0  0
 12 18  2  0  0  0  0
 12 21  1  0  0  0  0
 13 15  2  0  0  0  0
 13 26  1  0  0  0  0
 14 20  1  0  0  0  0
 14 26  2  0  0  0  0
 15 16  1  0  0  0  0
 16 20  2  0  0  0  0
 17 25  1  0  0  0  0
 18 25  1  0  0  0  0
 19 28  1  0  0  0  0
 20 27  1  0  0  0  0
 21 30  1  0  0  0  0
 22 25  1  1  0  0  0
 22 27  1  0  0  0  0
 22 29  2  0  0  0  0
 23 28  1  0  0  0  0
 24 28  1  0  0  0  0
  1 31  1  0  0  0  0
  2 32  1  0  0  0  0
  3 33  1  0  0  0  0
  4 34  1  0  0  0  0
  5 35  1  0  0  0  0
  6 36  1  0  0  0  0
  7 37  1  0  0  0  0
  8 38  1  0  0  0  0
  9 39  1  0  0  0  0
 10 40  1  0  0  0  0
 11 41  1  0  0  0  0
 12 42  1  0  0  0  0
 13 43  1  0  0  0  0
 14 44  1  0  0  0  0
 23 45  1  0  0  0  0
 23 46  1  0  0  0  0
 23 47  1  0  0  0  0
 24 48  1  0  0  0  0
 24 49  1  0  0  0  0
 24 50  1  0  0  0  0
 25 51  1  0  0  0  0
 27 52  1  0  0  0  0
M  END
> <compound>
MIC-UNK-d36ab305-4

> <compound_smiles>
CN(C)c1ccc(cc1)C(c2cccc(c2)Cl)C(=O)Nc3cncc4c3cccc4

> <enantiomer_smiles>
CN(C)c1ccc(cc1)[C@@H](c2cccc(c2)Cl)C(=O)Nc3cncc4c3cccc4

> <scaffold>
chlorobenzene-linker

> <clash_score>
1.4122140831325027

> <docking_score>
-7.136998176574707

> <overlap_score>
0.9780572056770325

> <MMFF_internal_energy>
160.67511986825744

> <docked_smiles>
CN(C)c1ccc(cc1)[C@@H](c2cccc(c2)Cl)C(=O)Nc3cncc4c3cccc4

$$$$
MIC-UNK-d36ab305-4_2
  -OEChem-07262101013D

 52 55  0     1  0  0  0  0  0999 V2000
    3.4633    2.5600   20.0688 C   0  0  0  0  0  0  0  0  0  0  0  0
    4.0987    2.0507   21.1990 C   0  0  0  0  0  0  0  0  0  0  0  0
   11.9780    0.4600   23.9150 C   0  0  0  0  0  0  0  0  0  0  0  0
    3.8631    2.1481   18.7978 C   0  0  0  0  0  0  0  0  0  0  0  0
    5.1367    1.1272   21.0631 C   0  0  0  0  0  0  0  0  0  0  0  0
   10.6560    0.0720   23.7350 C   0  0  0  0  0  0  0  0  0  0  0  0
    7.7790   -2.2935   24.4452 C   0  0  0  0  0  0  0  0  0  0  0  0
    7.2761    0.0239   23.9826 C   0  0  0  0  0  0  0  0  0  0  0  0
    6.9292   -2.2573   25.5506 C   0  0  0  0  0  0  0  0  0  0  0  0
    6.4262    0.0601   25.0880 C   0  0  0  0  0  0  0  0  0  0  0  0
   12.9840   -0.1200   23.1530 C   0  0  0  0  0  0  0  0  0  0  0  0
   11.3360   -1.5050   22.0650 C   0  0  0  0  0  0  0  0  0  0  0  0
    5.3467    0.7727   17.4017 C   0  0  0  0  0  0  0  0  0  0  0  0
    6.9411   -0.5933   18.3326 C   0  0  0  0  0  0  0  0  0  0  0  0
    4.9064    1.2193   18.6492 C   0  0  0  0  0  0  0  0  0  0  0  0
    5.5521    0.7013   19.7909 C   0  0  0  0  0  0  0  0  0  0  0  0
    7.9526   -1.1529   23.6612 C   0  0  0  0  0  0  0  0  0  0  0  0
   10.3220   -0.8940   22.7910 C   0  0  0  0  0  0  0  0  0  0  0  0
    6.2527   -1.0805   25.8720 C   0  0  0  0  0  0  0  0  0  0  0  0
    6.5894   -0.2231   19.6216 C   0  0  0  0  0  0  0  0  0  0  0  0
   12.6400   -1.1000   22.2390 C   0  0  0  0  0  0  0  0  0  0  0  0
    8.3880   -0.3240   21.3070 C   0  0  0  0  0  0  0  0  0  0  0  0
    5.2030   -2.2241   27.8087 C   0  0  0  0  0  0  0  0  0  0  0  0
    4.6953    0.1779   27.3387 C   0  0  0  0  0  0  0  0  0  0  0  0
    8.8810   -1.1900   22.4510 C   0  0  2  0  0  0  0  0  0  0  0  0
    6.3463   -0.1190   17.2173 N   0  0  0  0  0  0  0  0  0  0  0  0
    7.2820   -0.7860   20.6970 N   0  0  0  0  0  0  0  0  0  0  0  0
    5.3918   -1.0441   26.9885 N   0  0  0  0  0  0  0  0  0  0  0  0
    8.9170    0.7530   21.0260 O   0  0  0  0  0  0  0  0  0  0  0  0
   13.8840   -1.8490   21.2740 Cl  0  0  0  0  0  0  0  0  0  0  0  0
    2.6559    3.2781   20.1775 H   0  0  0  0  0  0  0  0  0  0  0  0
    3.7856    2.3726   22.1881 H   0  0  0  0  0  0  0  0  0  0  0  0
   12.2249    1.2198   24.6546 H   0  0  0  0  0  0  0  0  0  0  0  0
    3.3562    2.5557   17.9261 H   0  0  0  0  0  0  0  0  0  0  0  0
    5.6084    0.7531   21.9689 H   0  0  0  0  0  0  0  0  0  0  0  0
    9.8763    0.5350   24.3454 H   0  0  0  0  0  0  0  0  0  0  0  0
    8.3029   -3.2141   24.2028 H   0  0  0  0  0  0  0  0  0  0  0  0
    7.4064    0.9178   23.3787 H   0  0  0  0  0  0  0  0  0  0  0  0
    6.8022   -3.1513   26.1557 H   0  0  0  0  0  0  0  0  0  0  0  0
    5.9046    0.9826   25.3297 H   0  0  0  0  0  0  0  0  0  0  0  0
   14.0077    0.1988   23.2842 H   0  0  0  0  0  0  0  0  0  0  0  0
   11.0892   -2.3009   21.3624 H   0  0  0  0  0  0  0  0  0  0  0  0
    4.8926    1.1313   16.4820 H   0  0  0  0  0  0  0  0  0  0  0  0
    7.7387   -1.3076   18.1483 H   0  0  0  0  0  0  0  0  0  0  0  0
    4.5004   -1.9961   28.6238 H   0  0  0  0  0  0  0  0  0  0  0  0
    4.7961   -3.0384   27.1911 H   0  0  0  0  0  0  0  0  0  0  0  0
    6.1692   -2.5337   28.2334 H   0  0  0  0  0  0  0  0  0  0  0  0
    4.0774    0.0053   28.2322 H   0  0  0  0  0  0  0  0  0  0  0  0
    5.4286    0.9708   27.5478 H   0  0  0  0  0  0  0  0  0  0  0  0
    4.0513    0.4856   26.5016 H   0  0  0  0  0  0  0  0  0  0  0  0
    8.8597   -2.2241   22.0688 H   0  0  0  0  0  0  0  0  0  0  0  0
    6.8947   -1.6571   21.0746 H   0  0  0  0  0  0  0  0  0  0  0  0
  1  2  1  0  0  0  0
  1  4  2  0  0  0  0
  2  5  2  0  0  0  0
  3  6  2  0  0  0  0
  3 11  1  0  0  0  0
  4 15  1  0  0  0  0
  5 16  1  0  0  0  0
  6 18  1  0  0  0  0
  7  9  2  0  0  0  0
  7 17  1  0  0  0  0
  8 10  1  0  0  0  0
  8 17  2  0  0  0  0
  9 19  1  0  0  0  0
 10 19  2  0  0  0  0
 11 21  2  0  0  0  0
 12 18  2  0  0  0  0
 12 21  1  0  0  0  0
 13 15  2  0  0  0  0
 13 26  1  0  0  0  0
 14 20  1  0  0  0  0
 14 26  2  0  0  0  0
 15 16  1  0  0  0  0
 16 20  2  0  0  0  0
 17 25  1  0  0  0  0
 18 25  1  0  0  0  0
 19 28  1  0  0  0  0
 20 27  1  0  0  0  0
 21 30  1  0  0  0  0
 22 25  1  6  0  0  0
 22 27  1  0  0  0  0
 22 29  2  0  0  0  0
 23 28  1  0  0  0  0
 24 28  1  0  0  0  0
  1 31  1  0  0  0  0
  2 32  1  0  0  0  0
  3 33  1  0  0  0  0
  4 34  1  0  0  0  0
  5 35  1  0  0  0  0
  6 36  1  0  0  0  0
  7 37  1  0  0  0  0
  8 38  1  0  0  0  0
  9 39  1  0  0  0  0
 10 40  1  0  0  0  0
 11 41  1  0  0  0  0
 12 42  1  0  0  0  0
 13 43  1  0  0  0  0
 14 44  1  0  0  0  0
 23 45  1  0  0  0  0
 23 46  1  0  0  0  0
 23 47  1  0  0  0  0
 24 48  1  0  0  0  0
 24 49  1  0  0  0  0
 24 50  1  0  0  0  0
 25 51  1  0  0  0  0
 27 52  1  0  0  0  0
M  END
> <compound>
MIC-UNK-d36ab305-4

> <compound_smiles>
CN(C)c1ccc(cc1)C(c2cccc(c2)Cl)C(=O)Nc3cncc4c3cccc4

> <enantiomer_smiles>
CN(C)c1ccc(cc1)[C@H](c2cccc(c2)Cl)C(=O)Nc3cncc4c3cccc4

> <scaffold>
chlorobenzene-linker

> <clash_score>
0

> <docking_score>
-10.77269172668457

> <overlap_score>
0.9771877527236938

> <MMFF_internal_energy>
153.7915208760292

> <docked_smiles>
CN(C)c1ccc(cc1)[C@H](c2cccc(c2)Cl)C(=O)Nc3cncc4c3cccc4

$$$$
MIC-UNK-c66144cb-2_2
  -OEChem-07262101013D

 50 53  0     1  0  0  0  0  0999 V2000
    3.4421    2.5357   20.0698 C   0  0  0  0  0  0  0  0  0  0  0  0
    4.0763    2.0252   21.2000 C   0  0  0  0  0  0  0  0  0  0  0  0
   11.9780    0.4600   23.9150 C   0  0  0  0  0  0  0  0  0  0  0  0
    3.8501    2.1333   18.7984 C   0  0  0  0  0  0  0  0  0  0  0  0
    5.1215    1.1099   21.0639 C   0  0  0  0  0  0  0  0  0  0  0  0
   10.6560    0.0720   23.7350 C   0  0  0  0  0  0  0  0  0  0  0  0
    6.0699   -3.9308   23.6058 C   0  0  0  0  0  0  0  0  0  0  0  0
    8.4124   -4.4109   23.2608 C   0  0  0  0  0  0  0  0  0  0  0  0
    5.7297   -5.0917   22.9114 C   0  0  0  0  0  0  0  0  0  0  0  0
    8.0723   -5.5718   22.5665 C   0  0  0  0  0  0  0  0  0  0  0  0
   12.9840   -0.1200   23.1530 C   0  0  0  0  0  0  0  0  0  0  0  0
   11.3360   -1.5050   22.0650 C   0  0  0  0  0  0  0  0  0  0  0  0
    5.3495    0.7759   17.4016 C   0  0  0  0  0  0  0  0  0  0  0  0
    6.9497   -0.5835   18.3322 C   0  0  0  0  0  0  0  0  0  0  0  0
    4.9007    1.2128   18.6495 C   0  0  0  0  0  0  0  0  0  0  0  0
    5.5453    0.6936   19.7912 C   0  0  0  0  0  0  0  0  0  0  0  0
    7.4113   -3.5904   23.7804 C   0  0  0  0  0  0  0  0  0  0  0  0
   10.3220   -0.8940   22.7910 C   0  0  0  0  0  0  0  0  0  0  0  0
    6.5899   -0.2225   19.6216 C   0  0  0  0  0  0  0  0  0  0  0  0
    6.7308   -5.9122   22.3917 C   0  0  0  0  0  0  0  0  0  0  0  0
   12.6400   -1.1000   22.2390 C   0  0  0  0  0  0  0  0  0  0  0  0
    8.3880   -0.3240   21.3070 C   0  0  0  0  0  0  0  0  0  0  0  0
    7.7797   -2.3362   24.5315 C   0  0  0  0  0  0  0  0  0  0  0  0
    7.9139   -1.0677   23.6720 C   0  0  0  0  0  0  0  0  0  0  0  0
    8.8810   -1.1900   22.4510 C   0  0  2  0  0  0  0  0  0  0  0  0
    6.3562   -0.1077   17.2169 N   0  0  0  0  0  0  0  0  0  0  0  0
    7.2820   -0.7860   20.6970 N   0  0  0  0  0  0  0  0  0  0  0  0
    8.9170    0.7530   21.0260 O   0  0  0  0  0  0  0  0  0  0  0  0
    6.4043   -7.0285   21.7272 F   0  0  0  0  0  0  0  0  0  0  0  0
   13.8840   -1.8490   21.2740 Cl  0  0  0  0  0  0  0  0  0  0  0  0
    2.6291    3.2475   20.1787 H   0  0  0  0  0  0  0  0  0  0  0  0
    3.7567    2.3397   22.1895 H   0  0  0  0  0  0  0  0  0  0  0  0
   12.2249    1.2198   24.6546 H   0  0  0  0  0  0  0  0  0  0  0  0
    3.3440    2.5418   17.9267 H   0  0  0  0  0  0  0  0  0  0  0  0
    5.5920    0.7345   21.9697 H   0  0  0  0  0  0  0  0  0  0  0  0
    9.8763    0.5350   24.3454 H   0  0  0  0  0  0  0  0  0  0  0  0
    5.2828   -3.2973   24.0063 H   0  0  0  0  0  0  0  0  0  0  0  0
    9.4603   -4.1538   23.3923 H   0  0  0  0  0  0  0  0  0  0  0  0
    4.6856   -5.3572   22.7759 H   0  0  0  0  0  0  0  0  0  0  0  0
    8.8514   -6.2107   22.1614 H   0  0  0  0  0  0  0  0  0  0  0  0
   14.0077    0.1988   23.2842 H   0  0  0  0  0  0  0  0  0  0  0  0
   11.0892   -2.3008   21.3624 H   0  0  0  0  0  0  0  0  0  0  0  0
    4.8966    1.1360   16.4818 H   0  0  0  0  0  0  0  0  0  0  0  0
    7.7532   -1.2911   18.1477 H   0  0  0  0  0  0  0  0  0  0  0  0
    8.7400   -2.5245   25.0297 H   0  0  0  0  0  0  0  0  0  0  0  0
    7.0605   -2.1512   25.3393 H   0  0  0  0  0  0  0  0  0  0  0  0
    8.1827   -0.2059   24.2942 H   0  0  0  0  0  0  0  0  0  0  0  0
    6.9096   -0.8477   23.2836 H   0  0  0  0  0  0  0  0  0  0  0  0
    8.7985   -2.2469   22.1188 H   0  0  0  0  0  0  0  0  0  0  0  0
    6.8984   -1.6617   21.0675 H   0  0  0  0  0  0  0  0  0  0  0  0
  1  2  1  0  0  0  0
  1  4  2  0  0  0  0
  2  5  2  0  0  0  0
  3  6  2  0  0  0  0
  3 11  1  0  0  0  0
  4 15  1  0  0  0  0
  5 16  1  0  0  0  0
  6 18  1  0  0  0  0
  7  9  2  0  0  0  0
  7 17  1  0  0  0  0
  8 10  1  0  0  0  0
  8 17  2  0  0  0  0
  9 20  1  0  0  0  0
 10 20  2  0  0  0  0
 11 21  2  0  0  0  0
 12 18  2  0  0  0  0
 12 21  1  0  0  0  0
 13 15  2  0  0  0  0
 13 26  1  0  0  0  0
 14 19  1  0  0  0  0
 14 26  2  0  0  0  0
 15 16  1  0  0  0  0
 16 19  2  0  0  0  0
 17 23  1  0  0  0  0
 18 25  1  0  0  0  0
 19 27  1  0  0  0  0
 20 29  1  0  0  0  0
 21 30  1  0  0  0  0
 22 25  1  6  0  0  0
 22 27  1  0  0  0  0
 22 28  2  0  0  0  0
 23 24  1  0  0  0  0
 24 25  1  0  0  0  0
  1 31  1  0  0  0  0
  2 32  1  0  0  0  0
  3 33  1  0  0  0  0
  4 34  1  0  0  0  0
  5 35  1  0  0  0  0
  6 36  1  0  0  0  0
  7 37  1  0  0  0  0
  8 38  1  0  0  0  0
  9 39  1  0  0  0  0
 10 40  1  0  0  0  0
 11 41  1  0  0  0  0
 12 42  1  0  0  0  0
 13 43  1  0  0  0  0
 14 44  1  0  0  0  0
 23 45  1  0  0  0  0
 23 46  1  0  0  0  0
 24 47  1  0  0  0  0
 24 48  1  0  0  0  0
 25 49  1  0  0  0  0
 27 50  1  0  0  0  0
M  END
> <compound>
MIC-UNK-c66144cb-2

> <compound_smiles>
c1ccc2c(c1)cncc2NC(=O)C(CCc3ccc(cc3)F)c4cccc(c4)Cl

> <enantiomer_smiles>
c1ccc2c(c1)cncc2NC(=O)[C@H](CCc3ccc(cc3)F)c4cccc(c4)Cl

> <scaffold>
chlorobenzene-linker

> <clash_score>
0

> <docking_score>
-11.310717582702637

> <overlap_score>
0.9758504033088684

> <MMFF_internal_energy>
125.9340595285499

> <docked_smiles>
c1ccc2c(c1)cncc2NC(=O)[C@H](CCc3ccc(cc3)F)c4cccc(c4)Cl

$$$$
MIC-UNK-c66144cb-1_1
  -OEChem-07262101013D

 50 53  0     1  0  0  0  0  0999 V2000
    3.4421    2.5357   20.0698 C   0  0  0  0  0  0  0  0  0  0  0  0
    4.0763    2.0251   21.2000 C   0  0  0  0  0  0  0  0  0  0  0  0
    5.2562   -3.8562   25.1190 C   0  0  0  0  0  0  0  0  0  0  0  0
   11.9780    0.4600   23.9150 C   0  0  0  0  0  0  0  0  0  0  0  0
    3.8501    2.1333   18.7984 C   0  0  0  0  0  0  0  0  0  0  0  0
    5.1214    1.1099   21.0639 C   0  0  0  0  0  0  0  0  0  0  0  0
    6.2886   -4.0707   24.2059 C   0  0  0  0  0  0  0  0  0  0  0  0
   10.6560    0.0720   23.7350 C   0  0  0  0  0  0  0  0  0  0  0  0
    5.4306   -2.9560   26.1702 C   0  0  0  0  0  0  0  0  0  0  0  0
   12.9840   -0.1200   23.1530 C   0  0  0  0  0  0  0  0  0  0  0  0
    7.6699   -2.4850   25.3953 C   0  0  0  0  0  0  0  0  0  0  0  0
   11.3360   -1.5050   22.0650 C   0  0  0  0  0  0  0  0  0  0  0  0
    5.3495    0.7759   17.4015 C   0  0  0  0  0  0  0  0  0  0  0  0
    6.9497   -0.5835   18.3322 C   0  0  0  0  0  0  0  0  0  0  0  0
    4.9007    1.2128   18.6495 C   0  0  0  0  0  0  0  0  0  0  0  0
    5.5453    0.6936   19.7912 C   0  0  0  0  0  0  0  0  0  0  0  0
    7.4954   -3.3851   24.3440 C   0  0  0  0  0  0  0  0  0  0  0  0
   10.3220   -0.8940   22.7910 C   0  0  0  0  0  0  0  0  0  0  0  0
    6.5899   -0.2225   19.6216 C   0  0  0  0  0  0  0  0  0  0  0  0
    6.6375   -2.2704   26.3083 C   0  0  0  0  0  0  0  0  0  0  0  0
   12.6400   -1.1000   22.2390 C   0  0  0  0  0  0  0  0  0  0  0  0
    8.3880   -0.3240   21.3070 C   0  0  0  0  0  0  0  0  0  0  0  0
    8.6104   -3.6177   23.3565 C   0  0  0  0  0  0  0  0  0  0  0  0
    8.6067   -2.6933   22.1271 C   0  0  0  0  0  0  0  0  0  0  0  0
    8.8810   -1.1900   22.4510 C   0  0  1  0  0  0  0  0  0  0  0  0
    6.3562   -0.1077   17.2169 N   0  0  0  0  0  0  0  0  0  0  0  0
    7.2820   -0.7860   20.6970 N   0  0  0  0  0  0  0  0  0  0  0  0
    8.9170    0.7530   21.0260 O   0  0  0  0  0  0  0  0  0  0  0  0
    6.8053   -1.4063   27.3179 F   0  0  0  0  0  0  0  0  0  0  0  0
   13.8840   -1.8490   21.2740 Cl  0  0  0  0  0  0  0  0  0  0  0  0
    2.6291    3.2475   20.1787 H   0  0  0  0  0  0  0  0  0  0  0  0
    3.7567    2.3397   22.1894 H   0  0  0  0  0  0  0  0  0  0  0  0
    4.3162   -4.3896   25.0113 H   0  0  0  0  0  0  0  0  0  0  0  0
   12.2249    1.2198   24.6546 H   0  0  0  0  0  0  0  0  0  0  0  0
    3.3440    2.5417   17.9266 H   0  0  0  0  0  0  0  0  0  0  0  0
    5.5920    0.7344   21.9697 H   0  0  0  0  0  0  0  0  0  0  0  0
    6.1436   -4.7741   23.3901 H   0  0  0  0  0  0  0  0  0  0  0  0
    9.8763    0.5350   24.3454 H   0  0  0  0  0  0  0  0  0  0  0  0
    4.6270   -2.7896   26.8812 H   0  0  0  0  0  0  0  0  0  0  0  0
   14.0077    0.1988   23.2842 H   0  0  0  0  0  0  0  0  0  0  0  0
    8.6062   -1.9457   25.5107 H   0  0  0  0  0  0  0  0  0  0  0  0
   11.0892   -2.3008   21.3624 H   0  0  0  0  0  0  0  0  0  0  0  0
    4.8966    1.1360   16.4818 H   0  0  0  0  0  0  0  0  0  0  0  0
    7.7532   -1.2911   18.1477 H   0  0  0  0  0  0  0  0  0  0  0  0
    8.5300   -4.6575   23.0126 H   0  0  0  0  0  0  0  0  0  0  0  0
    9.5839   -3.5483   23.8581 H   0  0  0  0  0  0  0  0  0  0  0  0
    7.6765   -2.8101   21.5586 H   0  0  0  0  0  0  0  0  0  0  0  0
    9.4041   -3.0559   21.4632 H   0  0  0  0  0  0  0  0  0  0  0  0
    8.2472   -0.9575   23.3331 H   0  0  0  0  0  0  0  0  0  0  0  0
    6.8984   -1.6617   21.0675 H   0  0  0  0  0  0  0  0  0  0  0  0
  1  2  1  0  0  0  0
  1  5  2  0  0  0  0
  2  6  2  0  0  0  0
  3  7  2  0  0  0  0
  3  9  1  0  0  0  0
  4  8  2  0  0  0  0
  4 10  1  0  0  0  0
  5 15  1  0  0  0  0
  6 16  1  0  0  0  0
  7 17  1  0  0  0  0
  8 18  1  0  0  0  0
  9 20  2  0  0  0  0
 10 21  2  0  0  0  0
 11 17  2  0  0  0  0
 11 20  1  0  0  0  0
 12 18  2  0  0  0  0
 12 21  1  0  0  0  0
 13 15  2  0  0  0  0
 13 26  1  0  0  0  0
 14 19  1  0  0  0  0
 14 26  2  0  0  0  0
 15 16  1  0  0  0  0
 16 19  2  0  0  0  0
 17 23  1  0  0  0  0
 18 25  1  0  0  0  0
 19 27  1  0  0  0  0
 20 29  1  0  0  0  0
 21 30  1  0  0  0  0
 22 25  1  1  0  0  0
 22 27  1  0  0  0  0
 22 28  2  0  0  0  0
 23 24  1  0  0  0  0
 24 25  1  0  0  0  0
  1 31  1  0  0  0  0
  2 32  1  0  0  0  0
  3 33  1  0  0  0  0
  4 34  1  0  0  0  0
  5 35  1  0  0  0  0
  6 36  1  0  0  0  0
  7 37  1  0  0  0  0
  8 38  1  0  0  0  0
  9 39  1  0  0  0  0
 10 40  1  0  0  0  0
 11 41  1  0  0  0  0
 12 42  1  0  0  0  0
 13 43  1  0  0  0  0
 14 44  1  0  0  0  0
 23 45  1  0  0  0  0
 23 46  1  0  0  0  0
 24 47  1  0  0  0  0
 24 48  1  0  0  0  0
 25 49  1  0  0  0  0
 27 50  1  0  0  0  0
M  END
> <compound>
MIC-UNK-c66144cb-1

> <compound_smiles>
c1ccc2c(c1)cncc2NC(=O)C(CCc3cccc(c3)F)c4cccc(c4)Cl

> <enantiomer_smiles>
c1ccc2c(c1)cncc2NC(=O)[C@@H](CCc3cccc(c3)F)c4cccc(c4)Cl

> <scaffold>
chlorobenzene-linker

> <clash_score>
0

> <docking_score>
-10.91031551361084

> <overlap_score>
0.9762117862701416

> <MMFF_internal_energy>
136.78042652972061

> <docked_smiles>
c1ccc2c(c1)cncc2NC(=O)[C@@H](CCc3cccc(c3)F)c4cccc(c4)Cl

$$$$
MIC-UNK-c66144cb-2_1
  -OEChem-07262101013D

 50 53  0     1  0  0  0  0  0999 V2000
    3.4421    2.5357   20.0698 C   0  0  0  0  0  0  0  0  0  0  0  0
    4.0763    2.0251   21.2000 C   0  0  0  0  0  0  0  0  0  0  0  0
   11.9780    0.4600   23.9150 C   0  0  0  0  0  0  0  0  0  0  0  0
    3.8501    2.1333   18.7984 C   0  0  0  0  0  0  0  0  0  0  0  0
    5.1214    1.1099   21.0639 C   0  0  0  0  0  0  0  0  0  0  0  0
   10.6560    0.0720   23.7350 C   0  0  0  0  0  0  0  0  0  0  0  0
    7.6707   -2.4855   25.3956 C   0  0  0  0  0  0  0  0  0  0  0  0
    6.2884   -4.0705   24.2064 C   0  0  0  0  0  0  0  0  0  0  0  0
    6.6389   -2.2712   26.3094 C   0  0  0  0  0  0  0  0  0  0  0  0
    5.2566   -3.8563   25.1203 C   0  0  0  0  0  0  0  0  0  0  0  0
   12.9840   -0.1200   23.1530 C   0  0  0  0  0  0  0  0  0  0  0  0
   11.3360   -1.5050   22.0650 C   0  0  0  0  0  0  0  0  0  0  0  0
    5.3495    0.7759   17.4015 C   0  0  0  0  0  0  0  0  0  0  0  0
    6.9497   -0.5835   18.3322 C   0  0  0  0  0  0  0  0  0  0  0  0
    4.9007    1.2128   18.6495 C   0  0  0  0  0  0  0  0  0  0  0  0
    5.5453    0.6936   19.7912 C   0  0  0  0  0  0  0  0  0  0  0  0
    7.4954   -3.3851   24.3440 C   0  0  0  0  0  0  0  0  0  0  0  0
   10.3220   -0.8940   22.7910 C   0  0  0  0  0  0  0  0  0  0  0  0
    6.5899   -0.2225   19.6216 C   0  0  0  0  0  0  0  0  0  0  0  0
    5.4319   -2.9566   26.1718 C   0  0  0  0  0  0  0  0  0  0  0  0
   12.6400   -1.1000   22.2390 C   0  0  0  0  0  0  0  0  0  0  0  0
    8.3880   -0.3240   21.3070 C   0  0  0  0  0  0  0  0  0  0  0  0
    8.6104   -3.6177   23.3565 C   0  0  0  0  0  0  0  0  0  0  0  0
    8.6067   -2.6933   22.1271 C   0  0  0  0  0  0  0  0  0  0  0  0
    8.8810   -1.1900   22.4510 C   0  0  1  0  0  0  0  0  0  0  0  0
    6.3562   -0.1077   17.2169 N   0  0  0  0  0  0  0  0  0  0  0  0
    7.2820   -0.7860   20.6970 N   0  0  0  0  0  0  0  0  0  0  0  0
    8.9170    0.7530   21.0260 O   0  0  0  0  0  0  0  0  0  0  0  0
    4.4419   -2.7529   27.0508 F   0  0  0  0  0  0  0  0  0  0  0  0
   13.8840   -1.8490   21.2740 Cl  0  0  0  0  0  0  0  0  0  0  0  0
    2.6291    3.2475   20.1787 H   0  0  0  0  0  0  0  0  0  0  0  0
    3.7567    2.3397   22.1894 H   0  0  0  0  0  0  0  0  0  0  0  0
   12.2249    1.2198   24.6546 H   0  0  0  0  0  0  0  0  0  0  0  0
    3.3440    2.5417   17.9266 H   0  0  0  0  0  0  0  0  0  0  0  0
    5.5920    0.7344   21.9697 H   0  0  0  0  0  0  0  0  0  0  0  0
    9.8763    0.5350   24.3454 H   0  0  0  0  0  0  0  0  0  0  0  0
    8.6073   -1.9462   25.5105 H   0  0  0  0  0  0  0  0  0  0  0  0
    6.1429   -4.7736   23.3905 H   0  0  0  0  0  0  0  0  0  0  0  0
    6.7754   -1.5714   27.1284 H   0  0  0  0  0  0  0  0  0  0  0  0
    4.3166   -4.3893   25.0132 H   0  0  0  0  0  0  0  0  0  0  0  0
   14.0077    0.1988   23.2842 H   0  0  0  0  0  0  0  0  0  0  0  0
   11.0892   -2.3008   21.3624 H   0  0  0  0  0  0  0  0  0  0  0  0
    4.8966    1.1360   16.4818 H   0  0  0  0  0  0  0  0  0  0  0  0
    7.7532   -1.2911   18.1477 H   0  0  0  0  0  0  0  0  0  0  0  0
    8.5300   -4.6575   23.0126 H   0  0  0  0  0  0  0  0  0  0  0  0
    9.5839   -3.5483   23.8581 H   0  0  0  0  0  0  0  0  0  0  0  0
    7.6765   -2.8101   21.5586 H   0  0  0  0  0  0  0  0  0  0  0  0
    9.4041   -3.0559   21.4632 H   0  0  0  0  0  0  0  0  0  0  0  0
    8.2472   -0.9575   23.3331 H   0  0  0  0  0  0  0  0  0  0  0  0
    6.8984   -1.6617   21.0675 H   0  0  0  0  0  0  0  0  0  0  0  0
  1  2  1  0  0  0  0
  1  4  2  0  0  0  0
  2  5  2  0  0  0  0
  3  6  2  0  0  0  0
  3 11  1  0  0  0  0
  4 15  1  0  0  0  0
  5 16  1  0  0  0  0
  6 18  1  0  0  0  0
  7  9  2  0  0  0  0
  7 17  1  0  0  0  0
  8 10  1  0  0  0  0
  8 17  2  0  0  0  0
  9 20  1  0  0  0  0
 10 20  2  0  0  0  0
 11 21  2  0  0  0  0
 12 18  2  0  0  0  0
 12 21  1  0  0  0  0
 13 15  2  0  0  0  0
 13 26  1  0  0  0  0
 14 19  1  0  0  0  0
 14 26  2  0  0  0  0
 15 16  1  0  0  0  0
 16 19  2  0  0  0  0
 17 23  1  0  0  0  0
 18 25  1  0  0  0  0
 19 27  1  0  0  0  0
 20 29  1  0  0  0  0
 21 30  1  0  0  0  0
 22 25  1  1  0  0  0
 22 27  1  0  0  0  0
 22 28  2  0  0  0  0
 23 24  1  0  0  0  0
 24 25  1  0  0  0  0
  1 31  1  0  0  0  0
  2 32  1  0  0  0  0
  3 33  1  0  0  0  0
  4 34  1  0  0  0  0
  5 35  1  0  0  0  0
  6 36  1  0  0  0  0
  7 37  1  0  0  0  0
  8 38  1  0  0  0  0
  9 39  1  0  0  0  0
 10 40  1  0  0  0  0
 11 41  1  0  0  0  0
 12 42  1  0  0  0  0
 13 43  1  0  0  0  0
 14 44  1  0  0  0  0
 23 45  1  0  0  0  0
 23 46  1  0  0  0  0
 24 47  1  0  0  0  0
 24 48  1  0  0  0  0
 25 49  1  0  0  0  0
 27 50  1  0  0  0  0
M  END
> <compound>
MIC-UNK-c66144cb-2

> <compound_smiles>
c1ccc2c(c1)cncc2NC(=O)C(CCc3ccc(cc3)F)c4cccc(c4)Cl

> <enantiomer_smiles>
c1ccc2c(c1)cncc2NC(=O)[C@@H](CCc3ccc(cc3)F)c4cccc(c4)Cl

> <scaffold>
chlorobenzene-linker

> <clash_score>
0

> <docking_score>
-10.94448184967041

> <overlap_score>
0.9762116074562073

> <MMFF_internal_energy>
136.82034168316366

> <docked_smiles>
c1ccc2c(c1)cncc2NC(=O)[C@@H](CCc3ccc(cc3)F)c4cccc(c4)Cl

$$$$
MIC-UNK-c66144cb-1_2
  -OEChem-07262101013D

 50 53  0     1  0  0  0  0  0999 V2000
    3.4421    2.5357   20.0698 C   0  0  0  0  0  0  0  0  0  0  0  0
    4.0763    2.0252   21.2000 C   0  0  0  0  0  0  0  0  0  0  0  0
   10.1038   -5.0986   25.5152 C   0  0  0  0  0  0  0  0  0  0  0  0
   11.9780    0.4600   23.9150 C   0  0  0  0  0  0  0  0  0  0  0  0
    3.8501    2.1333   18.7984 C   0  0  0  0  0  0  0  0  0  0  0  0
    5.1215    1.1099   21.0639 C   0  0  0  0  0  0  0  0  0  0  0  0
    9.7549   -3.7544   25.6452 C   0  0  0  0  0  0  0  0  0  0  0  0
   10.6560    0.0720   23.7350 C   0  0  0  0  0  0  0  0  0  0  0  0
    9.4708   -5.8943   24.5603 C   0  0  0  0  0  0  0  0  0  0  0  0
   12.9840   -0.1200   23.1530 C   0  0  0  0  0  0  0  0  0  0  0  0
    8.1397   -4.0016   23.8655 C   0  0  0  0  0  0  0  0  0  0  0  0
   11.3360   -1.5050   22.0650 C   0  0  0  0  0  0  0  0  0  0  0  0
    5.3495    0.7759   17.4016 C   0  0  0  0  0  0  0  0  0  0  0  0
    6.9497   -0.5835   18.3322 C   0  0  0  0  0  0  0  0  0  0  0  0
    4.9007    1.2128   18.6495 C   0  0  0  0  0  0  0  0  0  0  0  0
    5.5453    0.6936   19.7912 C   0  0  0  0  0  0  0  0  0  0  0  0
    8.7729   -3.2059   24.8203 C   0  0  0  0  0  0  0  0  0  0  0  0
   10.3220   -0.8940   22.7910 C   0  0  0  0  0  0  0  0  0  0  0  0
    6.5899   -0.2225   19.6216 C   0  0  0  0  0  0  0  0  0  0  0  0
    8.4887   -5.3458   23.7355 C   0  0  0  0  0  0  0  0  0  0  0  0
   12.6400   -1.1000   22.2390 C   0  0  0  0  0  0  0  0  0  0  0  0
    8.3880   -0.3240   21.3070 C   0  0  0  0  0  0  0  0  0  0  0  0
    8.3967   -1.7529   24.9617 C   0  0  0  0  0  0  0  0  0  0  0  0
    7.9139   -1.0677   23.6720 C   0  0  0  0  0  0  0  0  0  0  0  0
    8.8810   -1.1900   22.4510 C   0  0  2  0  0  0  0  0  0  0  0  0
    6.3562   -0.1077   17.2169 N   0  0  0  0  0  0  0  0  0  0  0  0
    7.2820   -0.7860   20.6970 N   0  0  0  0  0  0  0  0  0  0  0  0
    8.9170    0.7530   21.0260 O   0  0  0  0  0  0  0  0  0  0  0  0
    7.8804   -6.1099   22.8188 F   0  0  0  0  0  0  0  0  0  0  0  0
   13.8840   -1.8490   21.2740 Cl  0  0  0  0  0  0  0  0  0  0  0  0
    2.6291    3.2475   20.1787 H   0  0  0  0  0  0  0  0  0  0  0  0
    3.7567    2.3397   22.1895 H   0  0  0  0  0  0  0  0  0  0  0  0
   10.8689   -5.5257   26.1571 H   0  0  0  0  0  0  0  0  0  0  0  0
   12.2249    1.2198   24.6546 H   0  0  0  0  0  0  0  0  0  0  0  0
    3.3440    2.5418   17.9267 H   0  0  0  0  0  0  0  0  0  0  0  0
    5.5920    0.7345   21.9697 H   0  0  0  0  0  0  0  0  0  0  0  0
   10.2534   -3.1421   26.3922 H   0  0  0  0  0  0  0  0  0  0  0  0
    9.8763    0.5350   24.3454 H   0  0  0  0  0  0  0  0  0  0  0  0
    9.7422   -6.9408   24.4596 H   0  0  0  0  0  0  0  0  0  0  0  0
   14.0077    0.1988   23.2842 H   0  0  0  0  0  0  0  0  0  0  0  0
    7.3740   -3.5831   23.2179 H   0  0  0  0  0  0  0  0  0  0  0  0
   11.0892   -2.3008   21.3624 H   0  0  0  0  0  0  0  0  0  0  0  0
    4.8966    1.1360   16.4818 H   0  0  0  0  0  0  0  0  0  0  0  0
    7.7532   -1.2911   18.1477 H   0  0  0  0  0  0  0  0  0  0  0  0
    9.2838   -1.2205   25.3297 H   0  0  0  0  0  0  0  0  0  0  0  0
    7.6355   -1.6310   25.7426 H   0  0  0  0  0  0  0  0  0  0  0  0
    7.6622   -0.0178   23.8631 H   0  0  0  0  0  0  0  0  0  0  0  0
    6.9659   -1.5521   23.3988 H   0  0  0  0  0  0  0  0  0  0  0  0
    8.7985   -2.2469   22.1188 H   0  0  0  0  0  0  0  0  0  0  0  0
    6.8984   -1.6617   21.0675 H   0  0  0  0  0  0  0  0  0  0  0  0
  1  2  1  0  0  0  0
  1  5  2  0  0  0  0
  2  6  2  0  0  0  0
  3  7  2  0  0  0  0
  3  9  1  0  0  0  0
  4  8  2  0  0  0  0
  4 10  1  0  0  0  0
  5 15  1  0  0  0  0
  6 16  1  0  0  0  0
  7 17  1  0  0  0  0
  8 18  1  0  0  0  0
  9 20  2  0  0  0  0
 10 21  2  0  0  0  0
 11 17  2  0  0  0  0
 11 20  1  0  0  0  0
 12 18  2  0  0  0  0
 12 21  1  0  0  0  0
 13 15  2  0  0  0  0
 13 26  1  0  0  0  0
 14 19  1  0  0  0  0
 14 26  2  0  0  0  0
 15 16  1  0  0  0  0
 16 19  2  0  0  0  0
 17 23  1  0  0  0  0
 18 25  1  0  0  0  0
 19 27  1  0  0  0  0
 20 29  1  0  0  0  0
 21 30  1  0  0  0  0
 22 25  1  6  0  0  0
 22 27  1  0  0  0  0
 22 28  2  0  0  0  0
 23 24  1  0  0  0  0
 24 25  1  0  0  0  0
  1 31  1  0  0  0  0
  2 32  1  0  0  0  0
  3 33  1  0  0  0  0
  4 34  1  0  0  0  0
  5 35  1  0  0  0  0
  6 36  1  0  0  0  0
  7 37  1  0  0  0  0
  8 38  1  0  0  0  0
  9 39  1  0  0  0  0
 10 40  1  0  0  0  0
 11 41  1  0  0  0  0
 12 42  1  0  0  0  0
 13 43  1  0  0  0  0
 14 44  1  0  0  0  0
 23 45  1  0  0  0  0
 23 46  1  0  0  0  0
 24 47  1  0  0  0  0
 24 48  1  0  0  0  0
 25 49  1  0  0  0  0
 27 50  1  0  0  0  0
M  END
> <compound>
MIC-UNK-c66144cb-1

> <compound_smiles>
c1ccc2c(c1)cncc2NC(=O)C(CCc3cccc(c3)F)c4cccc(c4)Cl

> <enantiomer_smiles>
c1ccc2c(c1)cncc2NC(=O)[C@H](CCc3cccc(c3)F)c4cccc(c4)Cl

> <scaffold>
chlorobenzene-linker

> <clash_score>
0

> <docking_score>
-12.015875816345215

> <overlap_score>
0.9766321182250977

> <MMFF_internal_energy>
128.57111907503514

> <docked_smiles>
c1ccc2c(c1)cncc2NC(=O)[C@H](CCc3cccc(c3)F)c4cccc(c4)Cl

$$$$
ALP-POS-90e38439-2_1
  -OEChem-07262101023D

 30 31  0     1  0  0  0  0  0999 V2000
   11.9780    0.4600   23.9150 C   0  0  0  0  0  0  0  0  0  0  0  0
   10.6560    0.0720   23.7350 C   0  0  0  0  0  0  0  0  0  0  0  0
   12.9840   -0.1200   23.1530 C   0  0  0  0  0  0  0  0  0  0  0  0
   11.3360   -1.5050   22.0650 C   0  0  0  0  0  0  0  0  0  0  0  0
   10.3220   -0.8940   22.7910 C   0  0  0  0  0  0  0  0  0  0  0  0
   12.6400   -1.1000   22.2390 C   0  0  0  0  0  0  0  0  0  0  0  0
    6.1277    1.2714   20.1667 C   0  0  0  0  0  0  0  0  0  0  0  0
    8.3880   -0.3240   21.3070 C   0  0  0  0  0  0  0  0  0  0  0  0
    7.5091    0.3011   18.4834 C   0  0  0  0  0  0  0  0  0  0  0  0
    6.8781    1.5748   17.9520 C   0  0  0  0  0  0  0  0  0  0  0  0
    6.6074   -0.0710   19.6580 C   0  0  2  0  0  0  0  0  0  0  0  0
    8.8810   -1.1900   22.4510 C   0  0  0  0  0  0  0  0  0  0  0  0
    6.2941    2.1755   19.1203 N   0  0  0  0  0  0  0  0  0  0  0  0
    7.2820   -0.7860   20.6970 N   0  0  0  0  0  0  0  0  0  0  0  0
    5.6439    1.4977   21.2650 O   0  0  0  0  0  0  0  0  0  0  0  0
    8.9170    0.7530   21.0260 O   0  0  0  0  0  0  0  0  0  0  0  0
   13.8840   -1.8490   21.2740 Cl  0  0  0  0  0  0  0  0  0  0  0  0
   12.2249    1.2198   24.6546 H   0  0  0  0  0  0  0  0  0  0  0  0
    9.8763    0.5350   24.3454 H   0  0  0  0  0  0  0  0  0  0  0  0
   14.0077    0.1988   23.2842 H   0  0  0  0  0  0  0  0  0  0  0  0
   11.0892   -2.3009   21.3624 H   0  0  0  0  0  0  0  0  0  0  0  0
    7.5565   -0.4893   17.7285 H   0  0  0  0  0  0  0  0  0  0  0  0
    8.5312    0.5134   18.8221 H   0  0  0  0  0  0  0  0  0  0  0  0
    7.6050    2.2561   17.5031 H   0  0  0  0  0  0  0  0  0  0  0  0
    6.0741    1.3676   17.2390 H   0  0  0  0  0  0  0  0  0  0  0  0
    5.7414   -0.6553   19.3293 H   0  0  0  0  0  0  0  0  0  0  0  0
    8.7773   -2.2383   22.1737 H   0  0  0  0  0  0  0  0  0  0  0  0
    8.2516   -1.0144   23.3225 H   0  0  0  0  0  0  0  0  0  0  0  0
    6.0106    3.1488   19.1731 H   0  0  0  0  0  0  0  0  0  0  0  0
    6.9059   -1.6905   20.9896 H   0  0  0  0  0  0  0  0  0  0  0  0
  1  2  1  0  0  0  0
  1  3  2  0  0  0  0
  2  5  2  0  0  0  0
  3  6  1  0  0  0  0
  4  5  1  0  0  0  0
  4  6  2  0  0  0  0
  5 12  1  0  0  0  0
  6 17  1  0  0  0  0
  7 11  1  0  0  0  0
  7 13  1  0  0  0  0
  7 15  2  0  0  0  0
  8 12  1  0  0  0  0
  8 14  1  0  0  0  0
  8 16  2  0  0  0  0
  9 10  1  0  0  0  0
  9 11  1  0  0  0  0
 10 13  1  0  0  0  0
 11 14  1  1  0  0  0
  1 18  1  0  0  0  0
  2 19  1  0  0  0  0
  3 20  1  0  0  0  0
  4 21  1  0  0  0  0
  9 22  1  0  0  0  0
  9 23  1  0  0  0  0
 10 24  1  0  0  0  0
 10 25  1  0  0  0  0
 11 26  1  0  0  0  0
 12 27  1  0  0  0  0
 12 28  1  0  0  0  0
 13 29  1  0  0  0  0
 14 30  1  0  0  0  0
M  END
> <compound>
ALP-POS-90e38439-2

> <compound_smiles>
c1cc(cc(c1)Cl)CC(=O)NC2CCNC2=O

> <enantiomer_smiles>
c1cc(cc(c1)Cl)CC(=O)N[C@@H]2CCNC2=O

> <scaffold>
chlorobenzene-linker

> <clash_score>
0

> <docking_score>
-5.957755088806152

> <overlap_score>
0.7336689233779907

> <MMFF_internal_energy>
31.9974487551521

> <docked_smiles>
c1cc(cc(c1)Cl)CC(=O)N[C@@H]2CCNC2=O

$$$$
ALP-POS-90e38439-3_1
  -OEChem-07262101023D

 30 31  0     1  0  0  0  0  0999 V2000
   11.9780    0.4600   23.9150 C   0  0  0  0  0  0  0  0  0  0  0  0
   10.6560    0.0720   23.7350 C   0  0  0  0  0  0  0  0  0  0  0  0
   12.9840   -0.1200   23.1530 C   0  0  0  0  0  0  0  0  0  0  0  0
   11.3360   -1.5050   22.0650 C   0  0  0  0  0  0  0  0  0  0  0  0
   10.3220   -0.8940   22.7910 C   0  0  0  0  0  0  0  0  0  0  0  0
   12.6400   -1.1000   22.2390 C   0  0  0  0  0  0  0  0  0  0  0  0
    6.8560    1.4545   17.8539 C   0  0  0  0  0  0  0  0  0  0  0  0
    8.3880   -0.3240   21.3070 C   0  0  0  0  0  0  0  0  0  0  0  0
    7.4941    0.2194   18.4449 C   0  0  0  0  0  0  0  0  0  0  0  0
    6.1309    1.3060   20.0898 C   0  0  0  0  0  0  0  0  0  0  0  0
    6.6077   -0.0678   19.6561 C   0  0  2  0  0  0  0  0  0  0  0  0
    8.8810   -1.1900   22.4510 C   0  0  0  0  0  0  0  0  0  0  0  0
    6.0788    2.0350   18.8515 N   0  0  0  0  0  0  0  0  0  0  0  0
    7.2820   -0.7860   20.6970 N   0  0  0  0  0  0  0  0  0  0  0  0
    7.0383    1.8714   16.7206 O   0  0  0  0  0  0  0  0  0  0  0  0
    8.9170    0.7530   21.0260 O   0  0  0  0  0  0  0  0  0  0  0  0
   13.8840   -1.8490   21.2740 Cl  0  0  0  0  0  0  0  0  0  0  0  0
   12.2249    1.2198   24.6546 H   0  0  0  0  0  0  0  0  0  0  0  0
    9.8763    0.5350   24.3454 H   0  0  0  0  0  0  0  0  0  0  0  0
   14.0077    0.1988   23.2842 H   0  0  0  0  0  0  0  0  0  0  0  0
   11.0892   -2.3009   21.3624 H   0  0  0  0  0  0  0  0  0  0  0  0
    7.4854   -0.6056   17.7280 H   0  0  0  0  0  0  0  0  0  0  0  0
    8.5234    0.4649   18.7275 H   0  0  0  0  0  0  0  0  0  0  0  0
    5.1410    1.2897   20.5532 H   0  0  0  0  0  0  0  0  0  0  0  0
    6.8407    1.8196   20.7467 H   0  0  0  0  0  0  0  0  0  0  0  0
    5.7476   -0.6755   19.3479 H   0  0  0  0  0  0  0  0  0  0  0  0
    8.7773   -2.2383   22.1737 H   0  0  0  0  0  0  0  0  0  0  0  0
    8.2516   -1.0144   23.3225 H   0  0  0  0  0  0  0  0  0  0  0  0
    5.5718    2.9057   18.7286 H   0  0  0  0  0  0  0  0  0  0  0  0
    6.9057   -1.6892   20.9886 H   0  0  0  0  0  0  0  0  0  0  0  0
  1  2  1  0  0  0  0
  1  3  2  0  0  0  0
  2  5  2  0  0  0  0
  3  6  1  0  0  0  0
  4  5  1  0  0  0  0
  4  6  2  0  0  0  0
  5 12  1  0  0  0  0
  6 17  1  0  0  0  0
  7  9  1  0  0  0  0
  7 13  1  0  0  0  0
  7 15  2  0  0  0  0
  8 12  1  0  0  0  0
  8 14  1  0  0  0  0
  8 16  2  0  0  0  0
  9 11  1  0  0  0  0
 10 11  1  0  0  0  0
 10 13  1  0  0  0  0
 11 14  1  1  0  0  0
  1 18  1  0  0  0  0
  2 19  1  0  0  0  0
  3 20  1  0  0  0  0
  4 21  1  0  0  0  0
  9 22  1  0  0  0  0
  9 23  1  0  0  0  0
 10 24  1  0  0  0  0
 10 25  1  0  0  0  0
 11 26  1  0  0  0  0
 12 27  1  0  0  0  0
 12 28  1  0  0  0  0
 13 29  1  0  0  0  0
 14 30  1  0  0  0  0
M  END
> <compound>
ALP-POS-90e38439-3

> <compound_smiles>
c1cc(cc(c1)Cl)CC(=O)NC2CC(=O)NC2

> <enantiomer_smiles>
c1cc(cc(c1)Cl)CC(=O)N[C@@H]2CC(=O)NC2

> <scaffold>
chlorobenzene-linker

> <clash_score>
0

> <docking_score>
-6.164961814880371

> <overlap_score>
0.7215521335601807

> <MMFF_internal_energy>
14.556257278631518

> <docked_smiles>
c1cc(cc(c1)Cl)CC(=O)N[C@@H]2CC(=O)NC2

$$$$
ALP-POS-90e38439-1_2
  -OEChem-07262101023D

 34 36  0     1  0  0  0  0  0999 V2000
    4.2595    2.4832   21.2843 C   0  0  0  0  0  0  0  0  0  0  0  0
    3.0659    2.0301   20.6919 C   0  0  0  0  0  0  0  0  0  0  0  0
   11.9780    0.4600   23.9150 C   0  0  0  0  0  0  0  0  0  0  0  0
    5.4797    1.8569   21.0107 C   0  0  0  0  0  0  0  0  0  0  0  0
   10.6560    0.0720   23.7350 C   0  0  0  0  0  0  0  0  0  0  0  0
    3.0712    0.9435   19.8155 C   0  0  0  0  0  0  0  0  0  0  0  0
   12.9840   -0.1200   23.1530 C   0  0  0  0  0  0  0  0  0  0  0  0
   11.3360   -1.5050   22.0650 C   0  0  0  0  0  0  0  0  0  0  0  0
    5.4768    0.7794   20.1451 C   0  0  0  0  0  0  0  0  0  0  0  0
   10.3220   -0.8940   22.7910 C   0  0  0  0  0  0  0  0  0  0  0  0
    4.2881    0.3433   19.5625 C   0  0  0  0  0  0  0  0  0  0  0  0
   12.6400   -1.1000   22.2390 C   0  0  0  0  0  0  0  0  0  0  0  0
    5.9012   -1.0837   18.7433 C   0  0  0  0  0  0  0  0  0  0  0  0
    8.3880   -0.3240   21.3070 C   0  0  0  0  0  0  0  0  0  0  0  0
    6.6075   -0.0692   19.6569 C   0  0  2  0  0  0  0  0  0  0  0  0
    8.8810   -1.1900   22.4510 C   0  0  0  0  0  0  0  0  0  0  0  0
    4.5411   -0.7481   18.7377 N   0  0  0  0  0  0  0  0  0  0  0  0
    7.2820   -0.7860   20.6970 N   0  0  0  0  0  0  0  0  0  0  0  0
    6.4341   -2.0164   18.1615 O   0  0  0  0  0  0  0  0  0  0  0  0
    8.9170    0.7530   21.0260 O   0  0  0  0  0  0  0  0  0  0  0  0
   13.8840   -1.8490   21.2740 Cl  0  0  0  0  0  0  0  0  0  0  0  0
    4.2310    3.3324   21.9621 H   0  0  0  0  0  0  0  0  0  0  0  0
    2.1304    2.5338   20.9205 H   0  0  0  0  0  0  0  0  0  0  0  0
   12.2249    1.2198   24.6546 H   0  0  0  0  0  0  0  0  0  0  0  0
    6.3973    2.2121   21.4665 H   0  0  0  0  0  0  0  0  0  0  0  0
    9.8763    0.5350   24.3454 H   0  0  0  0  0  0  0  0  0  0  0  0
    2.1536    0.5922   19.3580 H   0  0  0  0  0  0  0  0  0  0  0  0
   14.0077    0.1988   23.2842 H   0  0  0  0  0  0  0  0  0  0  0  0
   11.0892   -2.3009   21.3624 H   0  0  0  0  0  0  0  0  0  0  0  0
    7.3272    0.5103   19.0713 H   0  0  0  0  0  0  0  0  0  0  0  0
    8.7773   -2.2383   22.1737 H   0  0  0  0  0  0  0  0  0  0  0  0
    8.2516   -1.0144   23.3225 H   0  0  0  0  0  0  0  0  0  0  0  0
    3.8220   -1.2403   18.2210 H   0  0  0  0  0  0  0  0  0  0  0  0
    6.9058   -1.6898   20.9891 H   0  0  0  0  0  0  0  0  0  0  0  0
  1  2  1  0  0  0  0
  1  4  2  0  0  0  0
  2  6  2  0  0  0  0
  3  5  2  0  0  0  0
  3  7  1  0  0  0  0
  4  9  1  0  0  0  0
  5 10  1  0  0  0  0
  6 11  1  0  0  0  0
  7 12  2  0  0  0  0
  8 10  2  0  0  0  0
  8 12  1  0  0  0  0
  9 11  2  0  0  0  0
  9 15  1  0  0  0  0
 10 16  1  0  0  0  0
 11 17  1  0  0  0  0
 12 21  1  0  0  0  0
 13 15  1  0  0  0  0
 13 17  1  0  0  0  0
 13 19  2  0  0  0  0
 14 16  1  0  0  0  0
 14 18  1  0  0  0  0
 14 20  2  0  0  0  0
 15 18  1  6  0  0  0
  1 22  1  0  0  0  0
  2 23  1  0  0  0  0
  3 24  1  0  0  0  0
  4 25  1  0  0  0  0
  5 26  1  0  0  0  0
  6 27  1  0  0  0  0
  7 28  1  0  0  0  0
  8 29  1  0  0  0  0
 15 30  1  0  0  0  0
 16 31  1  0  0  0  0
 16 32  1  0  0  0  0
 17 33  1  0  0  0  0
 18 34  1  0  0  0  0
M  END
> <compound>
ALP-POS-90e38439-1

> <compound_smiles>
c1ccc2c(c1)C(C(=O)N2)NC(=O)Cc3cccc(c3)Cl

> <enantiomer_smiles>
c1ccc2c(c1)[C@H](C(=O)N2)NC(=O)Cc3cccc(c3)Cl

> <scaffold>
chlorobenzene-linker

> <clash_score>
0.6088108629531825

> <docking_score>
-4.445033073425293

> <overlap_score>
0.8547785878181458

> <MMFF_internal_energy>
51.736088787783004

> <docked_smiles>
c1ccc2c(c1)[C@H](C(=O)N2)NC(=O)Cc3cccc(c3)Cl

$$$$
ALP-POS-90e38439-1_1
  -OEChem-07262101023D

 34 36  0     1  0  0  0  0  0999 V2000
    5.2380    3.1903   21.1344 C   0  0  0  0  0  0  0  0  0  0  0  0
    5.9004    4.0737   20.2619 C   0  0  0  0  0  0  0  0  0  0  0  0
   11.9780    0.4600   23.9150 C   0  0  0  0  0  0  0  0  0  0  0  0
    5.4075    1.8067   21.0201 C   0  0  0  0  0  0  0  0  0  0  0  0
   10.6560    0.0720   23.7350 C   0  0  0  0  0  0  0  0  0  0  0  0
    6.7430    3.5895   19.2597 C   0  0  0  0  0  0  0  0  0  0  0  0
   12.9840   -0.1200   23.1530 C   0  0  0  0  0  0  0  0  0  0  0  0
   11.3360   -1.5050   22.0650 C   0  0  0  0  0  0  0  0  0  0  0  0
    6.2468    1.3343   20.0284 C   0  0  0  0  0  0  0  0  0  0  0  0
   10.3220   -0.8940   22.7910 C   0  0  0  0  0  0  0  0  0  0  0  0
    6.8930    2.2204   19.1686 C   0  0  0  0  0  0  0  0  0  0  0  0
   12.6400   -1.1000   22.2390 C   0  0  0  0  0  0  0  0  0  0  0  0
    7.5853    0.1315   18.4876 C   0  0  0  0  0  0  0  0  0  0  0  0
    8.3880   -0.3240   21.3070 C   0  0  0  0  0  0  0  0  0  0  0  0
    6.6075   -0.0696   19.6571 C   0  0  1  0  0  0  0  0  0  0  0  0
    8.8810   -1.1900   22.4510 C   0  0  0  0  0  0  0  0  0  0  0  0
    7.6754    1.5111   18.2634 N   0  0  0  0  0  0  0  0  0  0  0  0
    7.2820   -0.7860   20.6970 N   0  0  0  0  0  0  0  0  0  0  0  0
    8.1839   -0.7532   17.8947 O   0  0  0  0  0  0  0  0  0  0  0  0
    8.9170    0.7530   21.0260 O   0  0  0  0  0  0  0  0  0  0  0  0
   13.8840   -1.8490   21.2740 Cl  0  0  0  0  0  0  0  0  0  0  0  0
    4.5852    3.5901   21.9058 H   0  0  0  0  0  0  0  0  0  0  0  0
    5.7522    5.1447   20.3710 H   0  0  0  0  0  0  0  0  0  0  0  0
   12.2249    1.2198   24.6546 H   0  0  0  0  0  0  0  0  0  0  0  0
    4.8919    1.1299   21.6921 H   0  0  0  0  0  0  0  0  0  0  0  0
    9.8763    0.5350   24.3454 H   0  0  0  0  0  0  0  0  0  0  0  0
    7.2543    4.2675   18.5862 H   0  0  0  0  0  0  0  0  0  0  0  0
   14.0077    0.1988   23.2842 H   0  0  0  0  0  0  0  0  0  0  0  0
   11.0892   -2.3009   21.3624 H   0  0  0  0  0  0  0  0  0  0  0  0
    5.7372   -0.6354   19.3124 H   0  0  0  0  0  0  0  0  0  0  0  0
    8.7773   -2.2383   22.1737 H   0  0  0  0  0  0  0  0  0  0  0  0
    8.2516   -1.0144   23.3225 H   0  0  0  0  0  0  0  0  0  0  0  0
    8.2376    1.9372   17.5360 H   0  0  0  0  0  0  0  0  0  0  0  0
    6.9058   -1.6899   20.9892 H   0  0  0  0  0  0  0  0  0  0  0  0
  1  2  1  0  0  0  0
  1  4  2  0  0  0  0
  2  6  2  0  0  0  0
  3  5  2  0  0  0  0
  3  7  1  0  0  0  0
  4  9  1  0  0  0  0
  5 10  1  0  0  0  0
  6 11  1  0  0  0  0
  7 12  2  0  0  0  0
  8 10  2  0  0  0  0
  8 12  1  0  0  0  0
  9 11  2  0  0  0  0
  9 15  1  0  0  0  0
 10 16  1  0  0  0  0
 11 17  1  0  0  0  0
 12 21  1  0  0  0  0
 13 15  1  0  0  0  0
 13 17  1  0  0  0  0
 13 19  2  0  0  0  0
 14 16  1  0  0  0  0
 14 18  1  0  0  0  0
 14 20  2  0  0  0  0
 15 18  1  1  0  0  0
  1 22  1  0  0  0  0
  2 23  1  0  0  0  0
  3 24  1  0  0  0  0
  4 25  1  0  0  0  0
  5 26  1  0  0  0  0
  6 27  1  0  0  0  0
  7 28  1  0  0  0  0
  8 29  1  0  0  0  0
 15 30  1  0  0  0  0
 16 31  1  0  0  0  0
 16 32  1  0  0  0  0
 17 33  1  0  0  0  0
 18 34  1  0  0  0  0
M  END
> <compound>
ALP-POS-90e38439-1

> <compound_smiles>
c1ccc2c(c1)C(C(=O)N2)NC(=O)Cc3cccc(c3)Cl

> <enantiomer_smiles>
c1ccc2c(c1)[C@@H](C(=O)N2)NC(=O)Cc3cccc(c3)Cl

> <scaffold>
chlorobenzene-linker

> <clash_score>
2.0784572346609744

> <docking_score>
-3.099950075149536

> <overlap_score>
0.7295798659324646

> <MMFF_internal_energy>
58.94367715001033

> <docked_smiles>
c1ccc2c(c1)[C@@H](C(=O)N2)NC(=O)Cc3cccc(c3)Cl

$$$$
ALP-POS-90e38439-3_2
  -OEChem-07262101023D

 30 31  0     1  0  0  0  0  0999 V2000
   11.9780    0.4600   23.9150 C   0  0  0  0  0  0  0  0  0  0  0  0
   10.6560    0.0720   23.7350 C   0  0  0  0  0  0  0  0  0  0  0  0
   12.9840   -0.1200   23.1530 C   0  0  0  0  0  0  0  0  0  0  0  0
   11.3360   -1.5050   22.0650 C   0  0  0  0  0  0  0  0  0  0  0  0
   10.3220   -0.8940   22.7910 C   0  0  0  0  0  0  0  0  0  0  0  0
   12.6400   -1.1000   22.2390 C   0  0  0  0  0  0  0  0  0  0  0  0
    4.7900   -0.0896   18.1324 C   0  0  0  0  0  0  0  0  0  0  0  0
    8.3880   -0.3240   21.3070 C   0  0  0  0  0  0  0  0  0  0  0  0
    5.8849   -0.9818   18.6683 C   0  0  0  0  0  0  0  0  0  0  0  0
    5.5128    0.8513   20.1668 C   0  0  0  0  0  0  0  0  0  0  0  0
    6.6077   -0.0678   19.6561 C   0  0  1  0  0  0  0  0  0  0  0  0
    8.8810   -1.1900   22.4510 C   0  0  0  0  0  0  0  0  0  0  0  0
    4.6257    0.9525   19.0397 N   0  0  0  0  0  0  0  0  0  0  0  0
    7.2820   -0.7860   20.6970 N   0  0  0  0  0  0  0  0  0  0  0  0
    4.1508   -0.2896   17.1112 O   0  0  0  0  0  0  0  0  0  0  0  0
    8.9170    0.7530   21.0260 O   0  0  0  0  0  0  0  0  0  0  0  0
   13.8840   -1.8490   21.2740 Cl  0  0  0  0  0  0  0  0  0  0  0  0
   12.2249    1.2198   24.6546 H   0  0  0  0  0  0  0  0  0  0  0  0
    9.8763    0.5350   24.3454 H   0  0  0  0  0  0  0  0  0  0  0  0
   14.0077    0.1988   23.2842 H   0  0  0  0  0  0  0  0  0  0  0  0
   11.0892   -2.3009   21.3624 H   0  0  0  0  0  0  0  0  0  0  0  0
    5.4193   -1.8437   19.1578 H   0  0  0  0  0  0  0  0  0  0  0  0
    6.5447   -1.3154   17.8633 H   0  0  0  0  0  0  0  0  0  0  0  0
    4.9443    0.4209   20.9979 H   0  0  0  0  0  0  0  0  0  0  0  0
    5.8798    1.8434   20.4423 H   0  0  0  0  0  0  0  0  0  0  0  0
    7.3660    0.5216   19.1254 H   0  0  0  0  0  0  0  0  0  0  0  0
    8.7773   -2.2383   22.1737 H   0  0  0  0  0  0  0  0  0  0  0  0
    8.2516   -1.0144   23.3225 H   0  0  0  0  0  0  0  0  0  0  0  0
    3.9526    1.7028   18.9190 H   0  0  0  0  0  0  0  0  0  0  0  0
    6.9057   -1.6892   20.9886 H   0  0  0  0  0  0  0  0  0  0  0  0
  1  2  1  0  0  0  0
  1  3  2  0  0  0  0
  2  5  2  0  0  0  0
  3  6  1  0  0  0  0
  4  5  1  0  0  0  0
  4  6  2  0  0  0  0
  5 12  1  0  0  0  0
  6 17  1  0  0  0  0
  7  9  1  0  0  0  0
  7 13  1  0  0  0  0
  7 15  2  0  0  0  0
  8 12  1  0  0  0  0
  8 14  1  0  0  0  0
  8 16  2  0  0  0  0
  9 11  1  0  0  0  0
 10 11  1  0  0  0  0
 10 13  1  0  0  0  0
 11 14  1  6  0  0  0
  1 18  1  0  0  0  0
  2 19  1  0  0  0  0
  3 20  1  0  0  0  0
  4 21  1  0  0  0  0
  9 22  1  0  0  0  0
  9 23  1  0  0  0  0
 10 24  1  0  0  0  0
 10 25  1  0  0  0  0
 11 26  1  0  0  0  0
 12 27  1  0  0  0  0
 12 28  1  0  0  0  0
 13 29  1  0  0  0  0
 14 30  1  0  0  0  0
M  END
> <compound>
ALP-POS-90e38439-3

> <compound_smiles>
c1cc(cc(c1)Cl)CC(=O)NC2CC(=O)NC2

> <enantiomer_smiles>
c1cc(cc(c1)Cl)CC(=O)N[C@H]2CC(=O)NC2

> <scaffold>
chlorobenzene-linker

> <clash_score>
0.6588837165272358

> <docking_score>
-5.458438873291016

> <overlap_score>
0.7516830563545227

> <MMFF_internal_energy>
13.103137740184719

> <docked_smiles>
c1cc(cc(c1)Cl)CC(=O)N[C@H]2CC(=O)NC2

$$$$
ALP-POS-90e38439-2_2
  -OEChem-07262101023D

 30 31  0     1  0  0  0  0  0999 V2000
   11.9780    0.4600   23.9150 C   0  0  0  0  0  0  0  0  0  0  0  0
   10.6560    0.0720   23.7350 C   0  0  0  0  0  0  0  0  0  0  0  0
   12.9840   -0.1200   23.1530 C   0  0  0  0  0  0  0  0  0  0  0  0
   11.3360   -1.5050   22.0650 C   0  0  0  0  0  0  0  0  0  0  0  0
   10.3220   -0.8940   22.7910 C   0  0  0  0  0  0  0  0  0  0  0  0
   12.6400   -1.1000   22.2390 C   0  0  0  0  0  0  0  0  0  0  0  0
    5.3963   -0.8530   19.1921 C   0  0  0  0  0  0  0  0  0  0  0  0
    8.3880   -0.3240   21.3070 C   0  0  0  0  0  0  0  0  0  0  0  0
    7.4311    0.0805   18.3817 C   0  0  0  0  0  0  0  0  0  0  0  0
    6.3768    0.1410   17.2937 C   0  0  0  0  0  0  0  0  0  0  0  0
    6.6073   -0.0710   19.6579 C   0  0  1  0  0  0  0  0  0  0  0  0
    8.8810   -1.1900   22.4510 C   0  0  0  0  0  0  0  0  0  0  0  0
    5.3164   -0.6795   17.8118 N   0  0  0  0  0  0  0  0  0  0  0  0
    7.2820   -0.7860   20.6970 N   0  0  0  0  0  0  0  0  0  0  0  0
    4.6198   -1.4738   19.9014 O   0  0  0  0  0  0  0  0  0  0  0  0
    8.9170    0.7530   21.0260 O   0  0  0  0  0  0  0  0  0  0  0  0
   13.8840   -1.8490   21.2740 Cl  0  0  0  0  0  0  0  0  0  0  0  0
   12.2249    1.2198   24.6546 H   0  0  0  0  0  0  0  0  0  0  0  0
    9.8763    0.5350   24.3454 H   0  0  0  0  0  0  0  0  0  0  0  0
   14.0077    0.1988   23.2842 H   0  0  0  0  0  0  0  0  0  0  0  0
   11.0892   -2.3009   21.3624 H   0  0  0  0  0  0  0  0  0  0  0  0
    8.0743   -0.7942   18.2201 H   0  0  0  0  0  0  0  0  0  0  0  0
    8.0655    0.9716   18.4000 H   0  0  0  0  0  0  0  0  0  0  0  0
    5.9867    1.1542   17.1550 H   0  0  0  0  0  0  0  0  0  0  0  0
    6.7263   -0.2563   16.3377 H   0  0  0  0  0  0  0  0  0  0  0  0
    6.2788    0.8965   20.0455 H   0  0  0  0  0  0  0  0  0  0  0  0
    8.7773   -2.2383   22.1737 H   0  0  0  0  0  0  0  0  0  0  0  0
    8.2516   -1.0144   23.3225 H   0  0  0  0  0  0  0  0  0  0  0  0
    4.5881   -1.0883   17.2347 H   0  0  0  0  0  0  0  0  0  0  0  0
    6.9059   -1.6905   20.9896 H   0  0  0  0  0  0  0  0  0  0  0  0
  1  2  1  0  0  0  0
  1  3  2  0  0  0  0
  2  5  2  0  0  0  0
  3  6  1  0  0  0  0
  4  5  1  0  0  0  0
  4  6  2  0  0  0  0
  5 12  1  0  0  0  0
  6 17  1  0  0  0  0
  7 11  1  0  0  0  0
  7 13  1  0  0  0  0
  7 15  2  0  0  0  0
  8 12  1  0  0  0  0
  8 14  1  0  0  0  0
  8 16  2  0  0  0  0
  9 10  1  0  0  0  0
  9 11  1  0  0  0  0
 10 13  1  0  0  0  0
 11 14  1  6  0  0  0
  1 18  1  0  0  0  0
  2 19  1  0  0  0  0
  3 20  1  0  0  0  0
  4 21  1  0  0  0  0
  9 22  1  0  0  0  0
  9 23  1  0  0  0  0
 10 24  1  0  0  0  0
 10 25  1  0  0  0  0
 11 26  1  0  0  0  0
 12 27  1  0  0  0  0
 12 28  1  0  0  0  0
 13 29  1  0  0  0  0
 14 30  1  0  0  0  0
M  END
> <compound>
ALP-POS-90e38439-2

> <compound_smiles>
c1cc(cc(c1)Cl)CC(=O)NC2CCNC2=O

> <enantiomer_smiles>
c1cc(cc(c1)Cl)CC(=O)N[C@H]2CCNC2=O

> <scaffold>
chlorobenzene-linker

> <clash_score>
0

> <docking_score>
-5.5197978019714355

> <overlap_score>
0.709894597530365

> <MMFF_internal_energy>
25.29359246384863

> <docked_smiles>
c1cc(cc(c1)Cl)CC(=O)N[C@H]2CCNC2=O

$$$$
MAT-POS-bb423b95-1_1
  -OEChem-07262101023D

 33 35  0     0  0  0  0  0  0999 V2000
   11.9780    0.4600   23.9150 C   0  0  0  0  0  0  0  0  0  0  0  0
   10.6560    0.0720   23.7350 C   0  0  0  0  0  0  0  0  0  0  0  0
   12.9840   -0.1200   23.1530 C   0  0  0  0  0  0  0  0  0  0  0  0
    6.1064    1.8667   20.8145 C   0  0  0  0  0  0  0  0  0  0  0  0
   11.3360   -1.5050   22.0650 C   0  0  0  0  0  0  0  0  0  0  0  0
    5.5131    3.1203   20.7768 C   0  0  0  0  0  0  0  0  0  0  0  0
    4.7830    2.8210   18.6193 C   0  0  0  0  0  0  0  0  0  0  0  0
    5.2694    0.7212   17.4205 C   0  0  0  0  0  0  0  0  0  0  0  0
    6.4566   -0.9540   18.4506 C   0  0  0  0  0  0  0  0  0  0  0  0
    6.0226    1.0561   19.6764 C   0  0  0  0  0  0  0  0  0  0  0  0
    5.3433    1.5437   18.5470 C   0  0  0  0  0  0  0  0  0  0  0  0
   10.3220   -0.8940   22.7910 C   0  0  0  0  0  0  0  0  0  0  0  0
    6.5902   -0.2224   19.6218 C   0  0  0  0  0  0  0  0  0  0  0  0
   12.6400   -1.1000   22.2390 C   0  0  0  0  0  0  0  0  0  0  0  0
    8.3880   -0.3240   21.3070 C   0  0  0  0  0  0  0  0  0  0  0  0
    8.8810   -1.1900   22.4510 C   0  0  0  0  0  0  0  0  0  0  0  0
    4.8531    3.6186   19.7082 N   0  0  0  0  0  0  0  0  0  0  0  0
    5.8106   -0.5152   17.3479 N   0  0  0  0  0  0  0  0  0  0  0  0
    7.2820   -0.7860   20.6970 N   0  0  0  0  0  0  0  0  0  0  0  0
    8.9170    0.7530   21.0260 O   0  0  0  0  0  0  0  0  0  0  0  0
   13.8840   -1.8490   21.2740 Cl  0  0  0  0  0  0  0  0  0  0  0  0
   12.2249    1.2198   24.6546 H   0  0  0  0  0  0  0  0  0  0  0  0
    9.8763    0.5350   24.3454 H   0  0  0  0  0  0  0  0  0  0  0  0
   14.0077    0.1988   23.2842 H   0  0  0  0  0  0  0  0  0  0  0  0
    6.6165    1.5487   21.7183 H   0  0  0  0  0  0  0  0  0  0  0  0
   11.0892   -2.3009   21.3624 H   0  0  0  0  0  0  0  0  0  0  0  0
    5.5561    3.7784   21.6387 H   0  0  0  0  0  0  0  0  0  0  0  0
    4.2462    3.2509   17.7786 H   0  0  0  0  0  0  0  0  0  0  0  0
    4.7576    1.0441   16.5185 H   0  0  0  0  0  0  0  0  0  0  0  0
    6.8783   -1.9509   18.3577 H   0  0  0  0  0  0  0  0  0  0  0  0
    8.7774   -2.2383   22.1732 H   0  0  0  0  0  0  0  0  0  0  0  0
    8.2557   -1.0153   23.3257 H   0  0  0  0  0  0  0  0  0  0  0  0
    6.8982   -1.6620   21.0676 H   0  0  0  0  0  0  0  0  0  0  0  0
  1  2  1  0  0  0  0
  1  3  2  0  0  0  0
  2 12  2  0  0  0  0
  3 14  1  0  0  0  0
  4  6  2  0  0  0  0
  4 10  1  0  0  0  0
  5 12  1  0  0  0  0
  5 14  2  0  0  0  0
  6 17  1  0  0  0  0
  7 11  1  0  0  0  0
  7 17  2  0  0  0  0
  8 11  2  0  0  0  0
  8 18  1  0  0  0  0
  9 13  1  0  0  0  0
  9 18  2  0  0  0  0
 10 11  1  0  0  0  0
 10 13  2  0  0  0  0
 12 16  1  0  0  0  0
 13 19  1  0  0  0  0
 14 21  1  0  0  0  0
 15 16  1  0  0  0  0
 15 19  1  0  0  0  0
 15 20  2  0  0  0  0
  1 22  1  0  0  0  0
  2 23  1  0  0  0  0
  3 24  1  0  0  0  0
  4 25  1  0  0  0  0
  5 26  1  0  0  0  0
  6 27  1  0  0  0  0
  7 28  1  0  0  0  0
  8 29  1  0  0  0  0
  9 30  1  0  0  0  0
 16 31  1  0  0  0  0
 16 32  1  0  0  0  0
 19 33  1  0  0  0  0
M  END
> <compound>
MAT-POS-bb423b95-1

> <compound_smiles>
c1cc(cc(c1)Cl)CC(=O)Nc2cncc3c2ccnc3

> <enantiomer_smiles>
c1cc(cc(c1)Cl)CC(=O)Nc2cncc3c2ccnc3

> <scaffold>
chlorobenzene-linker

> <canonical_CID>
MAT-POS-bb423b95-1

> <r_inhibition_at_20_uM>

> <r_inhibition_at_50_uM>

> <r_avg_IC50>
3.70893090095161

> <f_inhibition_at_20_uM>

> <f_inhibition_at_50_uM>

> <f_avg_IC50>
7.94165822521731

> <f_avg_pIC50>

> <relative_solubility_at_20_uM>

> <relative_solubility_at_100_uM>

> <trypsin_IC50>

> <NMR_std_ratio>

> <acrylamide>
False

> <chloroacetamide>
False

> <series>
3-aminopyridine-like

> <frag_id>
x11542

> <clash_score>
0.6471388645896042

> <docking_score>
-4.813924789428711

> <overlap_score>
0.8415303230285645

> <MMFF_internal_energy>
90.9502419084513

> <docked_smiles>
c1cc(cc(c1)Cl)CC(=O)Nc2cncc3c2ccnc3

$$$$
MAT-POS-bb423b95-3_1
  -OEChem-07262101023D

 38 40  0     0  0  0  0  0  0999 V2000
    4.3203    1.9007   23.6667 C   0  0  0  0  0  0  0  0  0  0  0  0
    3.7304    0.7904   23.0629 C   0  0  0  0  0  0  0  0  0  0  0  0
    5.3165    2.6116   22.9974 C   0  0  0  0  0  0  0  0  0  0  0  0
   11.9780    0.4600   23.9150 C   0  0  0  0  0  0  0  0  0  0  0  0
    4.1367    0.3907   21.7898 C   0  0  0  0  0  0  0  0  0  0  0  0
    5.7229    2.2119   21.7243 C   0  0  0  0  0  0  0  0  0  0  0  0
   10.6560    0.0720   23.7350 C   0  0  0  0  0  0  0  0  0  0  0  0
   12.9840   -0.1200   23.1530 C   0  0  0  0  0  0  0  0  0  0  0  0
    4.9023    1.2144   18.6908 C   0  0  0  0  0  0  0  0  0  0  0  0
   11.3360   -1.5050   22.0650 C   0  0  0  0  0  0  0  0  0  0  0  0
    5.3213    0.8029   17.4358 C   0  0  0  0  0  0  0  0  0  0  0  0
    6.9335   -0.5706   18.3259 C   0  0  0  0  0  0  0  0  0  0  0  0
    5.1330    1.1015   21.1205 C   0  0  0  0  0  0  0  0  0  0  0  0
    5.5540    0.6867   19.7999 C   0  0  0  0  0  0  0  0  0  0  0  0
   10.3220   -0.8940   22.7910 C   0  0  0  0  0  0  0  0  0  0  0  0
    6.5902   -0.2234   19.6226 C   0  0  0  0  0  0  0  0  0  0  0  0
   12.6400   -1.1000   22.2390 C   0  0  0  0  0  0  0  0  0  0  0  0
    8.3880   -0.3240   21.3070 C   0  0  0  0  0  0  0  0  0  0  0  0
    8.8810   -1.1900   22.4510 C   0  0  0  0  0  0  0  0  0  0  0  0
    6.3237   -0.0791   17.2240 N   0  0  0  0  0  0  0  0  0  0  0  0
    7.2820   -0.7860   20.6970 N   0  0  0  0  0  0  0  0  0  0  0  0
    8.9170    0.7530   21.0260 O   0  0  0  0  0  0  0  0  0  0  0  0
   13.8840   -1.8490   21.2740 Cl  0  0  0  0  0  0  0  0  0  0  0  0
    4.0025    2.2127   24.6573 H   0  0  0  0  0  0  0  0  0  0  0  0
    2.9535    0.2378   23.5832 H   0  0  0  0  0  0  0  0  0  0  0  0
    5.7753    3.4771   23.4664 H   0  0  0  0  0  0  0  0  0  0  0  0
   12.2249    1.2198   24.6546 H   0  0  0  0  0  0  0  0  0  0  0  0
    3.6670   -0.4769   21.3324 H   0  0  0  0  0  0  0  0  0  0  0  0
    6.5002    2.7761   21.2145 H   0  0  0  0  0  0  0  0  0  0  0  0
    9.8763    0.5350   24.3454 H   0  0  0  0  0  0  0  0  0  0  0  0
   14.0077    0.1988   23.2842 H   0  0  0  0  0  0  0  0  0  0  0  0
    4.0884    1.9259   18.7876 H   0  0  0  0  0  0  0  0  0  0  0  0
   11.0892   -2.3009   21.3624 H   0  0  0  0  0  0  0  0  0  0  0  0
    4.8446    1.1846   16.5387 H   0  0  0  0  0  0  0  0  0  0  0  0
    7.7342   -1.2756   18.1226 H   0  0  0  0  0  0  0  0  0  0  0  0
    8.7774   -2.2383   22.1732 H   0  0  0  0  0  0  0  0  0  0  0  0
    8.2557   -1.0153   23.3257 H   0  0  0  0  0  0  0  0  0  0  0  0
    6.8982   -1.6624   21.0679 H   0  0  0  0  0  0  0  0  0  0  0  0
  1  2  1  0  0  0  0
  1  3  2  0  0  0  0
  2  5  2  0  0  0  0
  3  6  1  0  0  0  0
  4  7  2  0  0  0  0
  4  8  1  0  0  0  0
  5 13  1  0  0  0  0
  6 13  2  0  0  0  0
  7 15  1  0  0  0  0
  8 17  2  0  0  0  0
  9 11  2  0  0  0  0
  9 14  1  0  0  0  0
 10 15  2  0  0  0  0
 10 17  1  0  0  0  0
 11 20  1  0  0  0  0
 12 16  1  0  0  0  0
 12 20  2  0  0  0  0
 13 14  1  0  0  0  0
 14 16  2  0  0  0  0
 15 19  1  0  0  0  0
 16 21  1  0  0  0  0
 17 23  1  0  0  0  0
 18 19  1  0  0  0  0
 18 21  1  0  0  0  0
 18 22  2  0  0  0  0
  1 24  1  0  0  0  0
  2 25  1  0  0  0  0
  3 26  1  0  0  0  0
  4 27  1  0  0  0  0
  5 28  1  0  0  0  0
  6 29  1  0  0  0  0
  7 30  1  0  0  0  0
  8 31  1  0  0  0  0
  9 32  1  0  0  0  0
 10 33  1  0  0  0  0
 11 34  1  0  0  0  0
 12 35  1  0  0  0  0
 19 36  1  0  0  0  0
 19 37  1  0  0  0  0
 21 38  1  0  0  0  0
M  END
> <compound>
MAT-POS-bb423b95-3

> <compound_smiles>
c1ccc(cc1)c2ccncc2NC(=O)Cc3cccc(c3)Cl

> <enantiomer_smiles>
c1ccc(cc1)c2ccncc2NC(=O)Cc3cccc(c3)Cl

> <scaffold>
chlorobenzene-linker

> <clash_score>
0

> <docking_score>
-10.253774642944336

> <overlap_score>
0.9141029119491577

> <MMFF_internal_energy>
97.74279236213869

> <docked_smiles>
c1ccc(cc1)c2ccncc2NC(=O)Cc3cccc(c3)Cl

$$$$
MAT-POS-bb423b95-7_1
  -OEChem-07262101023D

 37 39  0     0  0  0  0  0  0999 V2000
    4.8097    3.6913   20.5777 C   0  0  0  0  0  0  0  0  0  0  0  0
    5.5026    3.0196   21.5821 C   0  0  0  0  0  0  0  0  0  0  0  0
   11.9780    0.4600   23.9150 C   0  0  0  0  0  0  0  0  0  0  0  0
    4.7015    3.1272   19.3067 C   0  0  0  0  0  0  0  0  0  0  0  0
    6.0906    1.7809   21.3202 C   0  0  0  0  0  0  0  0  0  0  0  0
   10.6560    0.0720   23.7350 C   0  0  0  0  0  0  0  0  0  0  0  0
   12.9840   -0.1200   23.1530 C   0  0  0  0  0  0  0  0  0  0  0  0
   11.3360   -1.5050   22.0650 C   0  0  0  0  0  0  0  0  0  0  0  0
    5.2119    1.2709   17.7785 C   0  0  0  0  0  0  0  0  0  0  0  0
    6.4277   -0.5506   18.4702 C   0  0  0  0  0  0  0  0  0  0  0  0
    5.2891    1.8812   19.0320 C   0  0  0  0  0  0  0  0  0  0  0  0
    5.9915    1.1981   20.0462 C   0  0  0  0  0  0  0  0  0  0  0  0
   10.3220   -0.8940   22.7910 C   0  0  0  0  0  0  0  0  0  0  0  0
    6.5697   -0.0422   19.7523 C   0  0  0  0  0  0  0  0  0  0  0  0
   12.6400   -1.1000   22.2390 C   0  0  0  0  0  0  0  0  0  0  0  0
    8.3880   -0.3240   21.3070 C   0  0  0  0  0  0  0  0  0  0  0  0
    6.7276   -2.1082   21.1209 C   0  0  0  0  0  0  0  0  0  0  0  0
    8.8810   -1.1900   22.4510 C   0  0  0  0  0  0  0  0  0  0  0  0
    5.7633    0.0743   17.4749 N   0  0  0  0  0  0  0  0  0  0  0  0
    7.2820   -0.7860   20.6970 N   0  0  0  0  0  0  0  0  0  0  0  0
    8.9170    0.7530   21.0260 O   0  0  0  0  0  0  0  0  0  0  0  0
   13.8840   -1.8490   21.2740 Cl  0  0  0  0  0  0  0  0  0  0  0  0
    4.3531    4.6547   20.7843 H   0  0  0  0  0  0  0  0  0  0  0  0
    5.5855    3.4606   22.5714 H   0  0  0  0  0  0  0  0  0  0  0  0
   12.2249    1.2198   24.6546 H   0  0  0  0  0  0  0  0  0  0  0  0
    4.1569    3.6651   18.5341 H   0  0  0  0  0  0  0  0  0  0  0  0
    6.6237    1.2879   22.1299 H   0  0  0  0  0  0  0  0  0  0  0  0
    9.8763    0.5350   24.3454 H   0  0  0  0  0  0  0  0  0  0  0  0
   14.0077    0.1988   23.2842 H   0  0  0  0  0  0  0  0  0  0  0  0
   11.0892   -2.3008   21.3624 H   0  0  0  0  0  0  0  0  0  0  0  0
    4.6857    1.7428   16.9532 H   0  0  0  0  0  0  0  0  0  0  0  0
    6.8572   -1.5090   18.1924 H   0  0  0  0  0  0  0  0  0  0  0  0
    7.1174   -2.8981   20.4621 H   0  0  0  0  0  0  0  0  0  0  0  0
    7.0271   -2.3155   22.1588 H   0  0  0  0  0  0  0  0  0  0  0  0
    5.6299   -2.0838   21.0540 H   0  0  0  0  0  0  0  0  0  0  0  0
    8.8006   -2.2403   22.1717 H   0  0  0  0  0  0  0  0  0  0  0  0
    8.2668   -1.0117   23.3332 H   0  0  0  0  0  0  0  0  0  0  0  0
  1  2  1  0  0  0  0
  1  4  2  0  0  0  0
  2  5  2  0  0  0  0
  3  6  2  0  0  0  0
  3  7  1  0  0  0  0
  4 11  1  0  0  0  0
  5 12  1  0  0  0  0
  6 13  1  0  0  0  0
  7 15  2  0  0  0  0
  8 13  2  0  0  0  0
  8 15  1  0  0  0  0
  9 11  2  0  0  0  0
  9 19  1  0  0  0  0
 10 14  1  0  0  0  0
 10 19  2  0  0  0  0
 11 12  1  0  0  0  0
 12 14  2  0  0  0  0
 13 18  1  0  0  0  0
 14 20  1  0  0  0  0
 15 22  1  0  0  0  0
 16 18  1  0  0  0  0
 16 20  1  0  0  0  0
 16 21  2  0  0  0  0
 17 20  1  0  0  0  0
  1 23  1  0  0  0  0
  2 24  1  0  0  0  0
  3 25  1  0  0  0  0
  4 26  1  0  0  0  0
  5 27  1  0  0  0  0
  6 28  1  0  0  0  0
  7 29  1  0  0  0  0
  8 30  1  0  0  0  0
  9 31  1  0  0  0  0
 10 32  1  0  0  0  0
 17 33  1  0  0  0  0
 17 34  1  0  0  0  0
 17 35  1  0  0  0  0
 18 36  1  0  0  0  0
 18 37  1  0  0  0  0
M  END
> <compound>
MAT-POS-bb423b95-7

> <compound_smiles>
CN(c1cncc2c1cccc2)C(=O)Cc3cccc(c3)Cl

> <enantiomer_smiles>
CN(c1cncc2c1cccc2)C(=O)Cc3cccc(c3)Cl

> <scaffold>
chlorobenzene-linker

> <canonical_CID>
MAT-POS-bb423b95-7

> <r_inhibition_at_20_uM>

> <r_inhibition_at_50_uM>

> <r_avg_IC50>
48.193545284778

> <f_inhibition_at_20_uM>

> <f_inhibition_at_50_uM>

> <f_avg_IC50>
34.3682484253434

> <f_avg_pIC50>

> <relative_solubility_at_20_uM>

> <relative_solubility_at_100_uM>

> <trypsin_IC50>

> <NMR_std_ratio>

> <acrylamide>
False

> <chloroacetamide>
False

> <series>
3-aminopyridine-like

> <frag_id>
x11501

> <clash_score>
0

> <docking_score>
-6.359652519226074

> <overlap_score>
0.8641744256019592

> <MMFF_internal_energy>
116.82132683130347

> <docked_smiles>
CN(c1cncc2c1cccc2)C(=O)Cc3cccc(c3)Cl

$$$$
MAT-POS-bb423b95-5_1
  -OEChem-07262101023D

 37 38  0     0  0  0  0  0  0999 V2000
   11.9780    0.4600   23.9150 C   0  0  0  0  0  0  0  0  0  0  0  0
   10.6560    0.0720   23.7350 C   0  0  0  0  0  0  0  0  0  0  0  0
   12.9840   -0.1200   23.1530 C   0  0  0  0  0  0  0  0  0  0  0  0
    4.6234    0.7522   18.6081 C   0  0  0  0  0  0  0  0  0  0  0  0
   11.3360   -1.5050   22.0650 C   0  0  0  0  0  0  0  0  0  0  0  0
    5.3564    0.9068   17.4425 C   0  0  0  0  0  0  0  0  0  0  0  0
    7.2357   -0.0071   18.3972 C   0  0  0  0  0  0  0  0  0  0  0  0
   10.3220   -0.8940   22.7910 C   0  0  0  0  0  0  0  0  0  0  0  0
    5.2597    0.1852   19.7067 C   0  0  0  0  0  0  0  0  0  0  0  0
    6.5908   -0.2043   19.6076 C   0  0  0  0  0  0  0  0  0  0  0  0
   12.6400   -1.1000   22.2390 C   0  0  0  0  0  0  0  0  0  0  0  0
    8.3880   -0.3240   21.3070 C   0  0  0  0  0  0  0  0  0  0  0  0
    5.0910    0.8179   22.1409 C   0  0  0  0  0  0  0  0  0  0  0  0
    4.3627   -1.4726   21.3804 C   0  0  0  0  0  0  0  0  0  0  0  0
    8.8810   -1.1900   22.4510 C   0  0  0  0  0  0  0  0  0  0  0  0
    4.4934    0.0073   20.9763 C   0  0  0  0  0  0  0  0  0  0  0  0
    6.6508    0.5405   17.3083 N   0  0  0  0  0  0  0  0  0  0  0  0
    7.2820   -0.7860   20.6970 N   0  0  0  0  0  0  0  0  0  0  0  0
    8.9170    0.7530   21.0260 O   0  0  0  0  0  0  0  0  0  0  0  0
   13.8840   -1.8490   21.2740 Cl  0  0  0  0  0  0  0  0  0  0  0  0
   12.2249    1.2198   24.6546 H   0  0  0  0  0  0  0  0  0  0  0  0
    9.8763    0.5350   24.3454 H   0  0  0  0  0  0  0  0  0  0  0  0
   14.0077    0.1988   23.2842 H   0  0  0  0  0  0  0  0  0  0  0  0
    3.5863    1.0668   18.6527 H   0  0  0  0  0  0  0  0  0  0  0  0
   11.0892   -2.3009   21.3624 H   0  0  0  0  0  0  0  0  0  0  0  0
    4.9063    1.3439   16.5573 H   0  0  0  0  0  0  0  0  0  0  0  0
    8.2746   -0.2909   18.2576 H   0  0  0  0  0  0  0  0  0  0  0  0
    6.1238    0.5199   22.3520 H   0  0  0  0  0  0  0  0  0  0  0  0
    4.5115    0.6824   23.0605 H   0  0  0  0  0  0  0  0  0  0  0  0
    5.0945    1.8872   21.9013 H   0  0  0  0  0  0  0  0  0  0  0  0
    5.3527   -1.9173   21.5316 H   0  0  0  0  0  0  0  0  0  0  0  0
    3.8488   -2.0537   20.6070 H   0  0  0  0  0  0  0  0  0  0  0  0
    3.7987   -1.5883   22.3124 H   0  0  0  0  0  0  0  0  0  0  0  0
    8.7709   -2.2387   22.1706 H   0  0  0  0  0  0  0  0  0  0  0  0
    8.2491   -1.0157   23.3232 H   0  0  0  0  0  0  0  0  0  0  0  0
    3.4604    0.3796   20.8438 H   0  0  0  0  0  0  0  0  0  0  0  0
    6.8973   -1.6552   21.0612 H   0  0  0  0  0  0  0  0  0  0  0  0
  1  2  2  0  0  0  0
  1  3  1  0  0  0  0
  2  8  1  0  0  0  0
  3 11  2  0  0  0  0
  4  6  2  0  0  0  0
  4  9  1  0  0  0  0
  5  8  2  0  0  0  0
  5 11  1  0  0  0  0
  6 17  1  0  0  0  0
  7 10  1  0  0  0  0
  7 17  2  0  0  0  0
  8 15  1  0  0  0  0
  9 10  2  0  0  0  0
  9 16  1  0  0  0  0
 10 18  1  0  0  0  0
 11 20  1  0  0  0  0
 12 15  1  0  0  0  0
 12 18  1  0  0  0  0
 12 19  2  0  0  0  0
 13 16  1  0  0  0  0
 14 16  1  0  0  0  0
  1 21  1  0  0  0  0
  2 22  1  0  0  0  0
  3 23  1  0  0  0  0
  4 24  1  0  0  0  0
  5 25  1  0  0  0  0
  6 26  1  0  0  0  0
  7 27  1  0  0  0  0
 13 28  1  0  0  0  0
 13 29  1  0  0  0  0
 13 30  1  0  0  0  0
 14 31  1  0  0  0  0
 14 32  1  0  0  0  0
 14 33  1  0  0  0  0
 15 34  1  0  0  0  0
 15 35  1  0  0  0  0
 16 36  1  0  0  0  0
 18 37  1  0  0  0  0
M  END
> <compound>
MAT-POS-bb423b95-5

> <compound_smiles>
CC(C)c1ccncc1NC(=O)Cc2cccc(c2)Cl

> <enantiomer_smiles>
CC(C)c1ccncc1NC(=O)Cc2cccc(c2)Cl

> <scaffold>
chlorobenzene-linker

> <canonical_CID>
MAT-POS-bb423b95-5

> <r_inhibition_at_20_uM>

> <r_inhibition_at_50_uM>

> <r_avg_IC50>
26.3771424007404

> <f_inhibition_at_20_uM>

> <f_inhibition_at_50_uM>

> <f_avg_IC50>
19.5089876933868

> <f_avg_pIC50>

> <relative_solubility_at_20_uM>

> <relative_solubility_at_100_uM>

> <trypsin_IC50>

> <NMR_std_ratio>

> <acrylamide>
False

> <chloroacetamide>
False

> <series>
3-aminopyridine-like

> <frag_id>

> <clash_score>
0

> <docking_score>
-8.087570190429688

> <overlap_score>
0.8636134266853333

> <MMFF_internal_energy>
84.12002228059063

> <docked_smiles>
CC(C)c1ccncc1NC(=O)Cc2cccc(c2)Cl

$$$$
MAT-POS-bb423b95-6_1
  -OEChem-07262101023D

 35 37  0     0  0  0  0  0  0999 V2000
    5.7356    3.2708   21.0297 C   0  0  0  0  0  0  0  0  0  0  0  0
    5.1354    3.8513   19.9164 C   0  0  0  0  0  0  0  0  0  0  0  0
   11.9780    0.4600   23.9150 C   0  0  0  0  0  0  0  0  0  0  0  0
    6.2437    1.9700   20.9599 C   0  0  0  0  0  0  0  0  0  0  0  0
    5.0395    3.1346   18.7268 C   0  0  0  0  0  0  0  0  0  0  0  0
   10.6560    0.0720   23.7350 C   0  0  0  0  0  0  0  0  0  0  0  0
   12.9840   -0.1200   23.1530 C   0  0  0  0  0  0  0  0  0  0  0  0
   11.3360   -1.5050   22.0650 C   0  0  0  0  0  0  0  0  0  0  0  0
    6.1598    1.2258   19.7727 C   0  0  0  0  0  0  0  0  0  0  0  0
    5.5480    1.8312   18.6556 C   0  0  0  0  0  0  0  0  0  0  0  0
   10.3220   -0.8940   22.7910 C   0  0  0  0  0  0  0  0  0  0  0  0
   12.6400   -1.1000   22.2390 C   0  0  0  0  0  0  0  0  0  0  0  0
    6.5526   -0.7806   18.4684 C   0  0  0  0  0  0  0  0  0  0  0  0
    6.6808   -0.1525   19.6456 C   0  0  0  0  0  0  0  0  0  0  0  0
    5.4358    1.0817   17.3753 C   0  0  0  0  0  0  0  0  0  0  0  0
    8.3880   -0.3240   21.3070 C   0  0  0  0  0  0  0  0  0  0  0  0
    8.8810   -1.1900   22.4510 C   0  0  0  0  0  0  0  0  0  0  0  0
    5.9599   -0.1988   17.3804 N   0  0  0  0  0  0  0  0  0  0  0  0
    7.2820   -0.7860   20.6970 N   0  0  0  0  0  0  0  0  0  0  0  0
    4.9075    1.5896   16.3911 O   0  0  0  0  0  0  0  0  0  0  0  0
    8.9170    0.7530   21.0260 O   0  0  0  0  0  0  0  0  0  0  0  0
   13.8840   -1.8490   21.2740 Cl  0  0  0  0  0  0  0  0  0  0  0  0
    5.8095    3.8300   21.9581 H   0  0  0  0  0  0  0  0  0  0  0  0
    4.7417    4.8618   19.9759 H   0  0  0  0  0  0  0  0  0  0  0  0
   12.2249    1.2198   24.6546 H   0  0  0  0  0  0  0  0  0  0  0  0
    6.7023    1.5632   21.8568 H   0  0  0  0  0  0  0  0  0  0  0  0
    4.5665    3.6049   17.8693 H   0  0  0  0  0  0  0  0  0  0  0  0
    9.8763    0.5350   24.3454 H   0  0  0  0  0  0  0  0  0  0  0  0
   14.0077    0.1988   23.2842 H   0  0  0  0  0  0  0  0  0  0  0  0
   11.0892   -2.3009   21.3624 H   0  0  0  0  0  0  0  0  0  0  0  0
    6.9107   -1.7909   18.3029 H   0  0  0  0  0  0  0  0  0  0  0  0
    8.2535   -1.0146   23.3240 H   0  0  0  0  0  0  0  0  0  0  0  0
    8.7756   -2.2377   22.1724 H   0  0  0  0  0  0  0  0  0  0  0  0
    5.9064   -0.7485   16.5279 H   0  0  0  0  0  0  0  0  0  0  0  0
    6.8585   -1.6466   21.0208 H   0  0  0  0  0  0  0  0  0  0  0  0
  1  2  1  0  0  0  0
  1  4  2  0  0  0  0
  2  5  2  0  0  0  0
  3  6  2  0  0  0  0
  3  7  1  0  0  0  0
  4  9  1  0  0  0  0
  5 10  1  0  0  0  0
  6 11  1  0  0  0  0
  7 12  2  0  0  0  0
  8 11  2  0  0  0  0
  8 12  1  0  0  0  0
  9 10  2  0  0  0  0
  9 14  1  0  0  0  0
 10 15  1  0  0  0  0
 11 17  1  0  0  0  0
 12 22  1  0  0  0  0
 13 14  2  0  0  0  0
 13 18  1  0  0  0  0
 14 19  1  0  0  0  0
 15 18  1  0  0  0  0
 15 20  2  0  0  0  0
 16 17  1  0  0  0  0
 16 19  1  0  0  0  0
 16 21  2  0  0  0  0
  1 23  1  0  0  0  0
  2 24  1  0  0  0  0
  3 25  1  0  0  0  0
  4 26  1  0  0  0  0
  5 27  1  0  0  0  0
  6 28  1  0  0  0  0
  7 29  1  0  0  0  0
  8 30  1  0  0  0  0
 13 31  1  0  0  0  0
 17 32  1  0  0  0  0
 17 33  1  0  0  0  0
 18 34  1  0  0  0  0
 19 35  1  0  0  0  0
M  END
> <compound>
MAT-POS-bb423b95-6

> <compound_smiles>
c1ccc2c(c1)c(c[nH]c2=O)NC(=O)Cc3cccc(c3)Cl

> <enantiomer_smiles>
c1ccc2c(c1)c(c[nH]c2=O)NC(=O)Cc3cccc(c3)Cl

> <scaffold>
chlorobenzene-linker

> <canonical_CID>
MAT-POS-bb423b95-6

> <r_inhibition_at_20_uM>

> <r_inhibition_at_50_uM>

> <r_avg_IC50>

> <f_inhibition_at_20_uM>

> <f_inhibition_at_50_uM>

> <f_avg_IC50>
99.5

> <f_avg_pIC50>

> <relative_solubility_at_20_uM>

> <relative_solubility_at_100_uM>

> <trypsin_IC50>

> <NMR_std_ratio>

> <acrylamide>
False

> <chloroacetamide>
False

> <series>
3-aminopyridine-like

> <frag_id>

> <clash_score>
0.6851712973595664

> <docking_score>
-4.199223518371582

> <overlap_score>
0.8323191404342651

> <MMFF_internal_energy>
79.12068030774877

> <docked_smiles>
c1ccc2c(c1)c(c[nH]c2=O)NC(=O)Cc3cccc(c3)Cl

$$$$
MAT-POS-bb423b95-2_1
  -OEChem-07262101023D

 33 35  0     0  0  0  0  0  0999 V2000
   11.9780    0.4600   23.9150 C   0  0  0  0  0  0  0  0  0  0  0  0
    2.6092    0.9280   19.9006 C   0  0  0  0  0  0  0  0  0  0  0  0
    3.2923    1.1011   18.7061 C   0  0  0  0  0  0  0  0  0  0  0  0
   10.6560    0.0720   23.7350 C   0  0  0  0  0  0  0  0  0  0  0  0
   12.9840   -0.1200   23.1530 C   0  0  0  0  0  0  0  0  0  0  0  0
   11.3360   -1.5050   22.0650 C   0  0  0  0  0  0  0  0  0  0  0  0
    3.3018    0.3704   20.9577 C   0  0  0  0  0  0  0  0  0  0  0  0
    5.3831    0.8587   17.4379 C   0  0  0  0  0  0  0  0  0  0  0  0
    7.2480   -0.0367   18.4135 C   0  0  0  0  0  0  0  0  0  0  0  0
    4.6359    0.7135   18.6093 C   0  0  0  0  0  0  0  0  0  0  0  0
   10.3220   -0.8940   22.7910 C   0  0  0  0  0  0  0  0  0  0  0  0
    5.2592    0.1543   19.7388 C   0  0  0  0  0  0  0  0  0  0  0  0
    6.5902   -0.2225   19.6219 C   0  0  0  0  0  0  0  0  0  0  0  0
   12.6400   -1.1000   22.2390 C   0  0  0  0  0  0  0  0  0  0  0  0
    8.3880   -0.3240   21.3070 C   0  0  0  0  0  0  0  0  0  0  0  0
    8.8810   -1.1900   22.4510 C   0  0  0  0  0  0  0  0  0  0  0  0
    6.6769    0.4961   17.3148 N   0  0  0  0  0  0  0  0  0  0  0  0
    4.5981   -0.0152   20.8998 N   0  0  0  0  0  0  0  0  0  0  0  0
    7.2820   -0.7860   20.6970 N   0  0  0  0  0  0  0  0  0  0  0  0
    8.9170    0.7530   21.0260 O   0  0  0  0  0  0  0  0  0  0  0  0
   13.8840   -1.8490   21.2740 Cl  0  0  0  0  0  0  0  0  0  0  0  0
   12.2249    1.2198   24.6546 H   0  0  0  0  0  0  0  0  0  0  0  0
    1.5704    1.2199   20.0004 H   0  0  0  0  0  0  0  0  0  0  0  0
    2.7757    1.5363   17.8545 H   0  0  0  0  0  0  0  0  0  0  0  0
    9.8763    0.5350   24.3454 H   0  0  0  0  0  0  0  0  0  0  0  0
   14.0077    0.1988   23.2842 H   0  0  0  0  0  0  0  0  0  0  0  0
   11.0892   -2.3008   21.3624 H   0  0  0  0  0  0  0  0  0  0  0  0
    2.8179    0.2104   21.9160 H   0  0  0  0  0  0  0  0  0  0  0  0
    4.9469    1.2850   16.5388 H   0  0  0  0  0  0  0  0  0  0  0  0
    8.2891   -0.3207   18.2891 H   0  0  0  0  0  0  0  0  0  0  0  0
    8.7774   -2.2383   22.1732 H   0  0  0  0  0  0  0  0  0  0  0  0
    8.2557   -1.0153   23.3257 H   0  0  0  0  0  0  0  0  0  0  0  0
    6.8982   -1.6621   21.0676 H   0  0  0  0  0  0  0  0  0  0  0  0
  1  4  1  0  0  0  0
  1  5  2  0  0  0  0
  2  3  2  0  0  0  0
  2  7  1  0  0  0  0
  3 10  1  0  0  0  0
  4 11  2  0  0  0  0
  5 14  1  0  0  0  0
  6 11  1  0  0  0  0
  6 14  2  0  0  0  0
  7 18  2  0  0  0  0
  8 10  2  0  0  0  0
  8 17  1  0  0  0  0
  9 13  1  0  0  0  0
  9 17  2  0  0  0  0
 10 12  1  0  0  0  0
 11 16  1  0  0  0  0
 12 13  2  0  0  0  0
 12 18  1  0  0  0  0
 13 19  1  0  0  0  0
 14 21  1  0  0  0  0
 15 16  1  0  0  0  0
 15 19  1  0  0  0  0
 15 20  2  0  0  0  0
  1 22  1  0  0  0  0
  2 23  1  0  0  0  0
  3 24  1  0  0  0  0
  4 25  1  0  0  0  0
  5 26  1  0  0  0  0
  6 27  1  0  0  0  0
  7 28  1  0  0  0  0
  8 29  1  0  0  0  0
  9 30  1  0  0  0  0
 16 31  1  0  0  0  0
 16 32  1  0  0  0  0
 19 33  1  0  0  0  0
M  END
> <compound>
MAT-POS-bb423b95-2

> <compound_smiles>
c1cc(cc(c1)Cl)CC(=O)Nc2cncc3c2nccc3

> <enantiomer_smiles>
c1cc(cc(c1)Cl)CC(=O)Nc2cncc3c2nccc3

> <scaffold>
chlorobenzene-linker

> <canonical_CID>
MAT-POS-bb423b95-2

> <r_inhibition_at_20_uM>

> <r_inhibition_at_50_uM>

> <r_avg_IC50>
6.21925304679007

> <f_inhibition_at_20_uM>

> <f_inhibition_at_50_uM>

> <f_avg_IC50>
7.01875264650223

> <f_avg_pIC50>

> <relative_solubility_at_20_uM>

> <relative_solubility_at_100_uM>

> <trypsin_IC50>

> <NMR_std_ratio>

> <acrylamide>
False

> <chloroacetamide>
False

> <series>
3-aminopyridine-like

> <frag_id>
x11530

> <clash_score>
0.6156757688939836

> <docking_score>
-6.9210920333862305

> <overlap_score>
0.8965491056442261

> <MMFF_internal_energy>
94.89393997503352

> <docked_smiles>
c1cc(cc(c1)Cl)CC(=O)Nc2cncc3c2nccc3

$$$$
MAT-POS-bb423b95-4_1
  -OEChem-07262101023D

 35 37  0     0  0  0  0  0  0999 V2000
   11.9780    0.4600   23.9150 C   0  0  0  0  0  0  0  0  0  0  0  0
   10.6560    0.0720   23.7350 C   0  0  0  0  0  0  0  0  0  0  0  0
   12.9840   -0.1200   23.1530 C   0  0  0  0  0  0  0  0  0  0  0  0
    4.6265    0.7569   18.6065 C   0  0  0  0  0  0  0  0  0  0  0  0
   11.3360   -1.5050   22.0650 C   0  0  0  0  0  0  0  0  0  0  0  0
    5.3611    0.9105   17.4418 C   0  0  0  0  0  0  0  0  0  0  0  0
    7.2374   -0.0079   18.3980 C   0  0  0  0  0  0  0  0  0  0  0  0
    5.2605    0.1881   19.7055 C   0  0  0  0  0  0  0  0  0  0  0  0
   10.3220   -0.8940   22.7910 C   0  0  0  0  0  0  0  0  0  0  0  0
    6.5908   -0.2043   19.6076 C   0  0  0  0  0  0  0  0  0  0  0  0
   12.6400   -1.1000   22.2390 C   0  0  0  0  0  0  0  0  0  0  0  0
    8.3880   -0.3240   21.3070 C   0  0  0  0  0  0  0  0  0  0  0  0
    3.0272   -0.3232   20.8992 C   0  0  0  0  0  0  0  0  0  0  0  0
    3.4599    1.0354   21.3543 C   0  0  0  0  0  0  0  0  0  0  0  0
    4.4935    0.0091   20.9739 C   0  0  0  0  0  0  0  0  0  0  0  0
    8.8810   -1.1900   22.4510 C   0  0  0  0  0  0  0  0  0  0  0  0
    6.6548    0.5415   17.3087 N   0  0  0  0  0  0  0  0  0  0  0  0
    7.2820   -0.7860   20.6970 N   0  0  0  0  0  0  0  0  0  0  0  0
    8.9170    0.7530   21.0260 O   0  0  0  0  0  0  0  0  0  0  0  0
   13.8840   -1.8490   21.2740 Cl  0  0  0  0  0  0  0  0  0  0  0  0
   12.2249    1.2198   24.6546 H   0  0  0  0  0  0  0  0  0  0  0  0
    9.8763    0.5350   24.3454 H   0  0  0  0  0  0  0  0  0  0  0  0
   14.0077    0.1988   23.2842 H   0  0  0  0  0  0  0  0  0  0  0  0
    3.5898    1.0729   18.6489 H   0  0  0  0  0  0  0  0  0  0  0  0
   11.0892   -2.3009   21.3624 H   0  0  0  0  0  0  0  0  0  0  0  0
    4.9139    1.3494   16.5561 H   0  0  0  0  0  0  0  0  0  0  0  0
    8.2759   -0.2937   18.2591 H   0  0  0  0  0  0  0  0  0  0  0  0
    2.6328   -1.0031   21.6453 H   0  0  0  0  0  0  0  0  0  0  0  0
    2.5497   -0.4008   19.9300 H   0  0  0  0  0  0  0  0  0  0  0  0
    3.2749    1.8710   20.6896 H   0  0  0  0  0  0  0  0  0  0  0  0
    3.3562    1.2725   22.4064 H   0  0  0  0  0  0  0  0  0  0  0  0
    5.0497   -0.4392   21.7861 H   0  0  0  0  0  0  0  0  0  0  0  0
    8.7709   -2.2387   22.1706 H   0  0  0  0  0  0  0  0  0  0  0  0
    8.2491   -1.0157   23.3232 H   0  0  0  0  0  0  0  0  0  0  0  0
    6.8973   -1.6552   21.0612 H   0  0  0  0  0  0  0  0  0  0  0  0
  1  2  1  0  0  0  0
  1  3  2  0  0  0  0
  2  9  2  0  0  0  0
  3 11  1  0  0  0  0
  4  6  2  0  0  0  0
  4  8  1  0  0  0  0
  5  9  1  0  0  0  0
  5 11  2  0  0  0  0
  6 17  1  0  0  0  0
  7 10  1  0  0  0  0
  7 17  2  0  0  0  0
  8 10  2  0  0  0  0
  8 15  1  0  0  0  0
  9 16  1  0  0  0  0
 10 18  1  0  0  0  0
 11 20  1  0  0  0  0
 12 16  1  0  0  0  0
 12 18  1  0  0  0  0
 12 19  2  0  0  0  0
 13 14  1  0  0  0  0
 13 15  1  0  0  0  0
 14 15  1  0  0  0  0
  1 21  1  0  0  0  0
  2 22  1  0  0  0  0
  3 23  1  0  0  0  0
  4 24  1  0  0  0  0
  5 25  1  0  0  0  0
  6 26  1  0  0  0  0
  7 27  1  0  0  0  0
 13 28  1  0  0  0  0
 13 29  1  0  0  0  0
 14 30  1  0  0  0  0
 14 31  1  0  0  0  0
 15 32  1  0  0  0  0
 16 33  1  0  0  0  0
 16 34  1  0  0  0  0
 18 35  1  0  0  0  0
M  END
> <compound>
MAT-POS-bb423b95-4

> <compound_smiles>
c1cc(cc(c1)Cl)CC(=O)Nc2cnccc2C3CC3

> <enantiomer_smiles>
c1cc(cc(c1)Cl)CC(=O)Nc2cnccc2C3CC3

> <scaffold>
chlorobenzene-linker

> <clash_score>
1.9998773845197908

> <docking_score>
-7.8810296058654785

> <overlap_score>
0.8768176436424255

> <MMFF_internal_energy>
86.52719246778344

> <docked_smiles>
c1cc(cc(c1)Cl)CC(=O)Nc2cnccc2C3CC3

$$$$
MAT-POS-bb423b95-8_1
  -OEChem-07262101023D

 35 37  0     0  0  0  0  0  0999 V2000
   11.9780    0.4600   23.9150 C   0  0  0  0  0  0  0  0  0  0  0  0
    5.1229    1.1115   21.0639 C   0  0  0  0  0  0  0  0  0  0  0  0
   10.6560    0.0720   23.7350 C   0  0  0  0  0  0  0  0  0  0  0  0
    4.0789    2.0281   21.2000 C   0  0  0  0  0  0  0  0  0  0  0  0
   12.9840   -0.1200   23.1530 C   0  0  0  0  0  0  0  0  0  0  0  0
    3.8542    2.1379   18.7983 C   0  0  0  0  0  0  0  0  0  0  0  0
   11.3360   -1.5050   22.0650 C   0  0  0  0  0  0  0  0  0  0  0  0
    5.3523    0.7792   17.4015 C   0  0  0  0  0  0  0  0  0  0  0  0
    6.9502   -0.5830   18.3322 C   0  0  0  0  0  0  0  0  0  0  0  0
    5.5468    0.6953   19.7912 C   0  0  0  0  0  0  0  0  0  0  0  0
    4.9035    1.2160   18.6494 C   0  0  0  0  0  0  0  0  0  0  0  0
   10.3220   -0.8940   22.7910 C   0  0  0  0  0  0  0  0  0  0  0  0
    6.5902   -0.2221   19.6216 C   0  0  0  0  0  0  0  0  0  0  0  0
    3.4460    2.5402   20.0697 C   0  0  0  0  0  0  0  0  0  0  0  0
   12.6400   -1.1000   22.2390 C   0  0  0  0  0  0  0  0  0  0  0  0
    8.3880   -0.3240   21.3070 C   0  0  0  0  0  0  0  0  0  0  0  0
    8.8810   -1.1900   22.4510 C   0  0  0  0  0  0  0  0  0  0  0  0
    6.3579   -0.1057   17.2168 N   0  0  0  0  0  0  0  0  0  0  0  0
    7.2820   -0.7860   20.6970 N   0  0  0  0  0  0  0  0  0  0  0  0
    8.9170    0.7530   21.0260 O   0  0  0  0  0  0  0  0  0  0  0  0
    2.4280    3.4334   20.2070 O   0  0  0  0  0  0  0  0  0  0  0  0
   13.8840   -1.8490   21.2740 Cl  0  0  0  0  0  0  0  0  0  0  0  0
   12.2249    1.2198   24.6546 H   0  0  0  0  0  0  0  0  0  0  0  0
    5.5922    0.7343   21.9696 H   0  0  0  0  0  0  0  0  0  0  0  0
    9.8763    0.5350   24.3454 H   0  0  0  0  0  0  0  0  0  0  0  0
    3.7637    2.3391   22.1925 H   0  0  0  0  0  0  0  0  0  0  0  0
   14.0077    0.1988   23.2842 H   0  0  0  0  0  0  0  0  0  0  0  0
    3.3539    2.5446   17.9217 H   0  0  0  0  0  0  0  0  0  0  0  0
   11.0892   -2.3009   21.3624 H   0  0  0  0  0  0  0  0  0  0  0  0
    4.8995    1.1405   16.4822 H   0  0  0  0  0  0  0  0  0  0  0  0
    7.7536   -1.2904   18.1477 H   0  0  0  0  0  0  0  0  0  0  0  0
    8.7775   -2.2383   22.1732 H   0  0  0  0  0  0  0  0  0  0  0  0
    8.2557   -1.0153   23.3257 H   0  0  0  0  0  0  0  0  0  0  0  0
    6.8981   -1.6619   21.0675 H   0  0  0  0  0  0  0  0  0  0  0  0
    2.0914    3.6961   19.3355 H   0  0  0  0  0  0  0  0  0  0  0  0
  1  3  1  0  0  0  0
  1  5  2  0  0  0  0
  2  4  2  0  0  0  0
  2 10  1  0  0  0  0
  3 12  2  0  0  0  0
  4 14  1  0  0  0  0
  5 15  1  0  0  0  0
  6 11  1  0  0  0  0
  6 14  2  0  0  0  0
  7 12  1  0  0  0  0
  7 15  2  0  0  0  0
  8 11  2  0  0  0  0
  8 18  1  0  0  0  0
  9 13  1  0  0  0  0
  9 18  2  0  0  0  0
 10 11  1  0  0  0  0
 10 13  2  0  0  0  0
 12 17  1  0  0  0  0
 13 19  1  0  0  0  0
 14 21  1  0  0  0  0
 15 22  1  0  0  0  0
 16 17  1  0  0  0  0
 16 19  1  0  0  0  0
 16 20  2  0  0  0  0
  1 23  1  0  0  0  0
  2 24  1  0  0  0  0
  3 25  1  0  0  0  0
  4 26  1  0  0  0  0
  5 27  1  0  0  0  0
  6 28  1  0  0  0  0
  7 29  1  0  0  0  0
  8 30  1  0  0  0  0
  9 31  1  0  0  0  0
 17 32  1  0  0  0  0
 17 33  1  0  0  0  0
 19 34  1  0  0  0  0
 21 35  1  0  0  0  0
M  END
> <compound>
MAT-POS-bb423b95-8

> <compound_smiles>
c1cc(cc(c1)Cl)CC(=O)Nc2cncc3c2ccc(c3)O

> <enantiomer_smiles>
c1cc(cc(c1)Cl)CC(=O)Nc2cncc3c2ccc(c3)O

> <scaffold>
chlorobenzene-linker

> <clash_score>
0

> <docking_score>
-11.952812194824219

> <overlap_score>
1.0

> <MMFF_internal_energy>
87.44733429518577

> <docked_smiles>
c1cc(cc(c1)Cl)CC(=O)Nc2cncc3c2ccc(c3)O

$$$$
MAT-POS-3cc264b0-1_1
  -OEChem-07262101023D

 33 35  0     0  0  0  0  0  0999 V2000
    4.7514    3.5798   20.1895 C   0  0  0  0  0  0  0  0  0  0  0  0
    5.4761    3.0243   21.2423 C   0  0  0  0  0  0  0  0  0  0  0  0
   11.9780    0.4600   23.9150 C   0  0  0  0  0  0  0  0  0  0  0  0
    4.6287    2.8888   18.9834 C   0  0  0  0  0  0  0  0  0  0  0  0
    6.0807    1.7756   21.0932 C   0  0  0  0  0  0  0  0  0  0  0  0
   10.6560    0.0720   23.7350 C   0  0  0  0  0  0  0  0  0  0  0  0
   12.9840   -0.1200   23.1530 C   0  0  0  0  0  0  0  0  0  0  0  0
   11.3360   -1.5050   22.0650 C   0  0  0  0  0  0  0  0  0  0  0  0
    5.1474    0.8942   17.6471 C   0  0  0  0  0  0  0  0  0  0  0  0
    5.2336    1.6309   18.8232 C   0  0  0  0  0  0  0  0  0  0  0  0
    5.9631    1.0717   19.8829 C   0  0  0  0  0  0  0  0  0  0  0  0
   10.3220   -0.8940   22.7910 C   0  0  0  0  0  0  0  0  0  0  0  0
   12.6400   -1.1000   22.2390 C   0  0  0  0  0  0  0  0  0  0  0  0
    6.5421   -0.1750   19.6733 C   0  0  0  0  0  0  0  0  0  0  0  0
    8.3880   -0.3240   21.3070 C   0  0  0  0  0  0  0  0  0  0  0  0
    8.8810   -1.1900   22.4510 C   0  0  0  0  0  0  0  0  0  0  0  0
    5.7263   -0.3154   17.4859 N   0  0  0  0  0  0  0  0  0  0  0  0
    6.4331   -0.8572   18.5127 N   0  0  0  0  0  0  0  0  0  0  0  0
    7.2820   -0.7860   20.6970 N   0  0  0  0  0  0  0  0  0  0  0  0
    8.9170    0.7530   21.0260 O   0  0  0  0  0  0  0  0  0  0  0  0
   13.8840   -1.8490   21.2740 Cl  0  0  0  0  0  0  0  0  0  0  0  0
    4.2819    4.5520   20.3081 H   0  0  0  0  0  0  0  0  0  0  0  0
    5.5689    3.5630   22.1806 H   0  0  0  0  0  0  0  0  0  0  0  0
   12.2249    1.2198   24.6546 H   0  0  0  0  0  0  0  0  0  0  0  0
    4.0595    3.3371   18.1724 H   0  0  0  0  0  0  0  0  0  0  0  0
    6.6381    1.3736   21.9358 H   0  0  0  0  0  0  0  0  0  0  0  0
    9.8763    0.5350   24.3454 H   0  0  0  0  0  0  0  0  0  0  0  0
   14.0077    0.1988   23.2842 H   0  0  0  0  0  0  0  0  0  0  0  0
   11.0892   -2.3009   21.3624 H   0  0  0  0  0  0  0  0  0  0  0  0
    4.6024    1.2565   16.7814 H   0  0  0  0  0  0  0  0  0  0  0  0
    8.7774   -2.2383   22.1732 H   0  0  0  0  0  0  0  0  0  0  0  0
    8.2557   -1.0153   23.3257 H   0  0  0  0  0  0  0  0  0  0  0  0
    6.9380   -1.6942   21.0188 H   0  0  0  0  0  0  0  0  0  0  0  0
  1  2  1  0  0  0  0
  1  4  2  0  0  0  0
  2  5  2  0  0  0  0
  3  6  2  0  0  0  0
  3  7  1  0  0  0  0
  4 10  1  0  0  0  0
  5 11  1  0  0  0  0
  6 12  1  0  0  0  0
  7 13  2  0  0  0  0
  8 12  2  0  0  0  0
  8 13  1  0  0  0  0
  9 10  2  0  0  0  0
  9 17  1  0  0  0  0
 10 11  1  0  0  0  0
 11 14  2  0  0  0  0
 12 16  1  0  0  0  0
 13 21  1  0  0  0  0
 14 18  1  0  0  0  0
 14 19  1  0  0  0  0
 15 16  1  0  0  0  0
 15 19  1  0  0  0  0
 15 20  2  0  0  0  0
 17 18  2  0  0  0  0
  1 22  1  0  0  0  0
  2 23  1  0  0  0  0
  3 24  1  0  0  0  0
  4 25  1  0  0  0  0
  5 26  1  0  0  0  0
  6 27  1  0  0  0  0
  7 28  1  0  0  0  0
  8 29  1  0  0  0  0
  9 30  1  0  0  0  0
 16 31  1  0  0  0  0
 16 32  1  0  0  0  0
 19 33  1  0  0  0  0
M  END
> <compound>
MAT-POS-3cc264b0-1

> <compound_smiles>
c1ccc2c(c1)cnnc2NC(=O)Cc3cccc(c3)Cl

> <enantiomer_smiles>
c1ccc2c(c1)cnnc2NC(=O)Cc3cccc(c3)Cl

> <scaffold>
chlorobenzene-linker

> <clash_score>
0

> <docking_score>
-6.167929649353027

> <overlap_score>
0.8563365936279297

> <MMFF_internal_energy>
72.5931921506838

> <docked_smiles>
c1ccc2c(c1)cnnc2NC(=O)Cc3cccc(c3)Cl

$$$$
MAT-POS-f7918075-3_1
  -OEChem-07262101023D

 33 35  0     0  0  0  0  0  0999 V2000
   11.9780    0.4600   23.9150 C   0  0  0  0  0  0  0  0  0  0  0  0
    5.5272    3.1241   20.8227 C   0  0  0  0  0  0  0  0  0  0  0  0
    6.1072    1.8628   20.8151 C   0  0  0  0  0  0  0  0  0  0  0  0
   10.6560    0.0720   23.7350 C   0  0  0  0  0  0  0  0  0  0  0  0
   12.9840   -0.1200   23.1530 C   0  0  0  0  0  0  0  0  0  0  0  0
   11.3360   -1.5050   22.0650 C   0  0  0  0  0  0  0  0  0  0  0  0
    4.8753    3.5360   19.6768 C   0  0  0  0  0  0  0  0  0  0  0  0
    5.2704    0.7384   17.4473 C   0  0  0  0  0  0  0  0  0  0  0  0
    6.4564   -0.9509   18.4537 C   0  0  0  0  0  0  0  0  0  0  0  0
    6.0202    1.0557   19.6727 C   0  0  0  0  0  0  0  0  0  0  0  0
   10.3220   -0.8940   22.7910 C   0  0  0  0  0  0  0  0  0  0  0  0
    5.3347    1.5656   18.5561 C   0  0  0  0  0  0  0  0  0  0  0  0
    6.5902   -0.2223   19.6218 C   0  0  0  0  0  0  0  0  0  0  0  0
   12.6400   -1.1000   22.2390 C   0  0  0  0  0  0  0  0  0  0  0  0
    8.3880   -0.3240   21.3070 C   0  0  0  0  0  0  0  0  0  0  0  0
    8.8810   -1.1900   22.4510 C   0  0  0  0  0  0  0  0  0  0  0  0
    5.8086   -0.5013   17.3611 N   0  0  0  0  0  0  0  0  0  0  0  0
    4.7686    2.7887   18.5544 N   0  0  0  0  0  0  0  0  0  0  0  0
    7.2820   -0.7860   20.6970 N   0  0  0  0  0  0  0  0  0  0  0  0
    8.9170    0.7530   21.0260 O   0  0  0  0  0  0  0  0  0  0  0  0
   13.8840   -1.8490   21.2740 Cl  0  0  0  0  0  0  0  0  0  0  0  0
   12.2249    1.2198   24.6546 H   0  0  0  0  0  0  0  0  0  0  0  0
    5.5849    3.7622   21.6966 H   0  0  0  0  0  0  0  0  0  0  0  0
    6.6236    1.5289   21.7117 H   0  0  0  0  0  0  0  0  0  0  0  0
    9.8763    0.5350   24.3454 H   0  0  0  0  0  0  0  0  0  0  0  0
   14.0077    0.1988   23.2842 H   0  0  0  0  0  0  0  0  0  0  0  0
   11.0892   -2.3009   21.3624 H   0  0  0  0  0  0  0  0  0  0  0  0
    4.4047    4.5125   19.6262 H   0  0  0  0  0  0  0  0  0  0  0  0
    4.7572    1.0627   16.5457 H   0  0  0  0  0  0  0  0  0  0  0  0
    6.8767   -1.9473   18.3543 H   0  0  0  0  0  0  0  0  0  0  0  0
    8.7774   -2.2383   22.1732 H   0  0  0  0  0  0  0  0  0  0  0  0
    8.2557   -1.0153   23.3257 H   0  0  0  0  0  0  0  0  0  0  0  0
    6.8982   -1.6620   21.0676 H   0  0  0  0  0  0  0  0  0  0  0  0
  1  4  1  0  0  0  0
  1  5  2  0  0  0  0
  2  3  2  0  0  0  0
  2  7  1  0  0  0  0
  3 10  1  0  0  0  0
  4 11  2  0  0  0  0
  5 14  1  0  0  0  0
  6 11  1  0  0  0  0
  6 14  2  0  0  0  0
  7 18  2  0  0  0  0
  8 12  2  0  0  0  0
  8 17  1  0  0  0  0
  9 13  1  0  0  0  0
  9 17  2  0  0  0  0
 10 12  1  0  0  0  0
 10 13  2  0  0  0  0
 11 16  1  0  0  0  0
 12 18  1  0  0  0  0
 13 19  1  0  0  0  0
 14 21  1  0  0  0  0
 15 16  1  0  0  0  0
 15 19  1  0  0  0  0
 15 20  2  0  0  0  0
  1 22  1  0  0  0  0
  2 23  1  0  0  0  0
  3 24  1  0  0  0  0
  4 25  1  0  0  0  0
  5 26  1  0  0  0  0
  6 27  1  0  0  0  0
  7 28  1  0  0  0  0
  8 29  1  0  0  0  0
  9 30  1  0  0  0  0
 16 31  1  0  0  0  0
 16 32  1  0  0  0  0
 19 33  1  0  0  0  0
M  END
> <compound>
MAT-POS-f7918075-3

> <compound_smiles>
c1cc(cc(c1)Cl)CC(=O)Nc2cncc3c2cccn3

> <enantiomer_smiles>
c1cc(cc(c1)Cl)CC(=O)Nc2cncc3c2cccn3

> <scaffold>
chlorobenzene-linker

> <clash_score>
0.6265809004140106

> <docking_score>
-6.587357521057129

> <overlap_score>
0.8436579704284668

> <MMFF_internal_energy>
110.72853946892342

> <docked_smiles>
c1cc(cc(c1)Cl)CC(=O)Nc2cncc3c2cccn3

$$$$
MAT-POS-bb423b95-9_1
  -OEChem-07262101023D

 34 36  0     0  0  0  0  0  0999 V2000
    5.5319    3.1318   20.8435 C   0  0  0  0  0  0  0  0  0  0  0  0
   11.9780    0.4600   23.9150 C   0  0  0  0  0  0  0  0  0  0  0  0
    6.1104    1.8616   20.8215 C   0  0  0  0  0  0  0  0  0  0  0  0
   10.6560    0.0720   23.7350 C   0  0  0  0  0  0  0  0  0  0  0  0
    4.8581    3.6129   19.7233 C   0  0  0  0  0  0  0  0  0  0  0  0
   12.9840   -0.1200   23.1530 C   0  0  0  0  0  0  0  0  0  0  0  0
   11.3360   -1.5050   22.0650 C   0  0  0  0  0  0  0  0  0  0  0  0
    5.2700    0.7168   17.4216 C   0  0  0  0  0  0  0  0  0  0  0  0
    6.4588   -0.9561   18.4526 C   0  0  0  0  0  0  0  0  0  0  0  0
    6.0210    1.0556   19.6748 C   0  0  0  0  0  0  0  0  0  0  0  0
    5.3381    1.5462   18.5428 C   0  0  0  0  0  0  0  0  0  0  0  0
   10.3220   -0.8940   22.7910 C   0  0  0  0  0  0  0  0  0  0  0  0
    6.5902   -0.2220   19.6215 C   0  0  0  0  0  0  0  0  0  0  0  0
   12.6400   -1.1000   22.2390 C   0  0  0  0  0  0  0  0  0  0  0  0
    4.7598    2.8260   18.5761 C   0  0  0  0  0  0  0  0  0  0  0  0
    8.3880   -0.3240   21.3070 C   0  0  0  0  0  0  0  0  0  0  0  0
    8.8810   -1.1900   22.4510 C   0  0  0  0  0  0  0  0  0  0  0  0
    5.8130   -0.5195   17.3504 N   0  0  0  0  0  0  0  0  0  0  0  0
    7.2820   -0.7860   20.6970 N   0  0  0  0  0  0  0  0  0  0  0  0
    8.9170    0.7530   21.0260 O   0  0  0  0  0  0  0  0  0  0  0  0
   13.8840   -1.8490   21.2740 Cl  0  0  0  0  0  0  0  0  0  0  0  0
    3.9042    3.5078   17.2320 Cl  0  0  0  0  0  0  0  0  0  0  0  0
    5.6080    3.7463   21.7360 H   0  0  0  0  0  0  0  0  0  0  0  0
   12.2249    1.2198   24.6546 H   0  0  0  0  0  0  0  0  0  0  0  0
    6.6281    1.5211   21.7152 H   0  0  0  0  0  0  0  0  0  0  0  0
    9.8763    0.5350   24.3454 H   0  0  0  0  0  0  0  0  0  0  0  0
    4.4155    4.6052   19.7624 H   0  0  0  0  0  0  0  0  0  0  0  0
   14.0077    0.1988   23.2842 H   0  0  0  0  0  0  0  0  0  0  0  0
   11.0892   -2.3009   21.3624 H   0  0  0  0  0  0  0  0  0  0  0  0
    4.7657    1.0109   16.5065 H   0  0  0  0  0  0  0  0  0  0  0  0
    6.8828   -1.9521   18.3615 H   0  0  0  0  0  0  0  0  0  0  0  0
    8.7774   -2.2383   22.1732 H   0  0  0  0  0  0  0  0  0  0  0  0
    8.2557   -1.0153   23.3257 H   0  0  0  0  0  0  0  0  0  0  0  0
    6.8981   -1.6619   21.0674 H   0  0  0  0  0  0  0  0  0  0  0  0
  1  3  2  0  0  0  0
  1  5  1  0  0  0  0
  2  4  1  0  0  0  0
  2  6  2  0  0  0  0
  3 10  1  0  0  0  0
  4 12  2  0  0  0  0
  5 15  2  0  0  0  0
  6 14  1  0  0  0  0
  7 12  1  0  0  0  0
  7 14  2  0  0  0  0
  8 11  2  0  0  0  0
  8 18  1  0  0  0  0
  9 13  1  0  0  0  0
  9 18  2  0  0  0  0
 10 11  1  0  0  0  0
 10 13  2  0  0  0  0
 11 15  1  0  0  0  0
 12 17  1  0  0  0  0
 13 19  1  0  0  0  0
 14 21  1  0  0  0  0
 15 22  1  0  0  0  0
 16 17  1  0  0  0  0
 16 19  1  0  0  0  0
 16 20  2  0  0  0  0
  1 23  1  0  0  0  0
  2 24  1  0  0  0  0
  3 25  1  0  0  0  0
  4 26  1  0  0  0  0
  5 27  1  0  0  0  0
  6 28  1  0  0  0  0
  7 29  1  0  0  0  0
  8 30  1  0  0  0  0
  9 31  1  0  0  0  0
 17 32  1  0  0  0  0
 17 33  1  0  0  0  0
 19 34  1  0  0  0  0
M  END
> <compound>
MAT-POS-bb423b95-9

> <compound_smiles>
c1cc(cc(c1)Cl)CC(=O)Nc2cncc3c2cccc3Cl

> <enantiomer_smiles>
c1cc(cc(c1)Cl)CC(=O)Nc2cncc3c2cccc3Cl

> <scaffold>
chlorobenzene-linker

> <canonical_CID>
MAT-POS-bb423b95-9

> <r_inhibition_at_20_uM>

> <r_inhibition_at_50_uM>

> <r_avg_IC50>
99.0

> <f_inhibition_at_20_uM>

> <f_inhibition_at_50_uM>

> <f_avg_IC50>
99.5

> <f_avg_pIC50>

> <relative_solubility_at_20_uM>

> <relative_solubility_at_100_uM>

> <trypsin_IC50>

> <NMR_std_ratio>

> <acrylamide>
False

> <chloroacetamide>
False

> <series>
3-aminopyridine-like

> <frag_id>

> <clash_score>
1.3697691020451166

> <docking_score>
-4.419073104858398

> <overlap_score>
0.8428418636322021

> <MMFF_internal_energy>
95.92965099833437

> <docked_smiles>
c1cc(cc(c1)Cl)CC(=O)Nc2cncc3c2cccc3Cl

$$$$
MAT-POS-4211dce8-1_1
  -OEChem-07262101023D

 38 40  0     0  0  0  0  0  0999 V2000
    4.1745    2.1975   21.2885 C   0  0  0  0  0  0  0  0  0  0  0  0
    3.6077    2.8023   20.1718 C   0  0  0  0  0  0  0  0  0  0  0  0
   11.9780    0.4600   23.9150 C   0  0  0  0  0  0  0  0  0  0  0  0
    5.1756    1.2342   21.1349 C   0  0  0  0  0  0  0  0  0  0  0  0
    4.0394    2.4463   18.8969 C   0  0  0  0  0  0  0  0  0  0  0  0
   10.6560    0.0720   23.7350 C   0  0  0  0  0  0  0  0  0  0  0  0
   12.9840   -0.1200   23.1530 C   0  0  0  0  0  0  0  0  0  0  0  0
   11.3360   -1.5050   22.0650 C   0  0  0  0  0  0  0  0  0  0  0  0
    5.6280    0.8584   19.8595 C   0  0  0  0  0  0  0  0  0  0  0  0
    5.0437    1.4800   18.7403 C   0  0  0  0  0  0  0  0  0  0  0  0
   10.3220   -0.8940   22.7910 C   0  0  0  0  0  0  0  0  0  0  0  0
   12.6400   -1.1000   22.2390 C   0  0  0  0  0  0  0  0  0  0  0  0
    7.0475   -0.4462   18.3900 C   0  0  0  0  0  0  0  0  0  0  0  0
    6.6808   -0.1519   19.6452 C   0  0  0  0  0  0  0  0  0  0  0  0
    5.4870    1.1173   17.3652 C   0  0  0  0  0  0  0  0  0  0  0  0
    8.3880   -0.3240   21.3070 C   0  0  0  0  0  0  0  0  0  0  0  0
    6.9909   -0.2728   15.9693 C   0  0  0  0  0  0  0  0  0  0  0  0
    8.8810   -1.1900   22.4510 C   0  0  0  0  0  0  0  0  0  0  0  0
    6.4913    0.1477   17.2745 N   0  0  0  0  0  0  0  0  0  0  0  0
    7.2820   -0.7860   20.6970 N   0  0  0  0  0  0  0  0  0  0  0  0
    4.9628    1.6717   16.4019 O   0  0  0  0  0  0  0  0  0  0  0  0
    8.9170    0.7530   21.0260 O   0  0  0  0  0  0  0  0  0  0  0  0
   13.8840   -1.8490   21.2740 Cl  0  0  0  0  0  0  0  0  0  0  0  0
    3.8386    2.4752   22.2836 H   0  0  0  0  0  0  0  0  0  0  0  0
    2.8304    3.5508   20.2941 H   0  0  0  0  0  0  0  0  0  0  0  0
   12.2249    1.2198   24.6546 H   0  0  0  0  0  0  0  0  0  0  0  0
    5.5863    0.7925   22.0384 H   0  0  0  0  0  0  0  0  0  0  0  0
    3.5824    2.9319   18.0390 H   0  0  0  0  0  0  0  0  0  0  0  0
    9.8763    0.5350   24.3454 H   0  0  0  0  0  0  0  0  0  0  0  0
   14.0077    0.1988   23.2842 H   0  0  0  0  0  0  0  0  0  0  0  0
   11.0892   -2.3009   21.3624 H   0  0  0  0  0  0  0  0  0  0  0  0
    7.8189   -1.1844   18.1885 H   0  0  0  0  0  0  0  0  0  0  0  0
    6.3953   -1.1226   15.6045 H   0  0  0  0  0  0  0  0  0  0  0  0
    6.9100    0.5632   15.2590 H   0  0  0  0  0  0  0  0  0  0  0  0
    8.0444   -0.5759   16.0603 H   0  0  0  0  0  0  0  0  0  0  0  0
    8.2535   -1.0146   23.3240 H   0  0  0  0  0  0  0  0  0  0  0  0
    8.7756   -2.2377   22.1724 H   0  0  0  0  0  0  0  0  0  0  0  0
    6.8580   -1.6463   21.0202 H   0  0  0  0  0  0  0  0  0  0  0  0
  1  2  1  0  0  0  0
  1  4  2  0  0  0  0
  2  5  2  0  0  0  0
  3  6  2  0  0  0  0
  3  7  1  0  0  0  0
  4  9  1  0  0  0  0
  5 10  1  0  0  0  0
  6 11  1  0  0  0  0
  7 12  2  0  0  0  0
  8 11  2  0  0  0  0
  8 12  1  0  0  0  0
  9 10  2  0  0  0  0
  9 14  1  0  0  0  0
 10 15  1  0  0  0  0
 11 18  1  0  0  0  0
 12 23  1  0  0  0  0
 13 14  2  0  0  0  0
 13 19  1  0  0  0  0
 14 20  1  0  0  0  0
 15 19  1  0  0  0  0
 15 21  2  0  0  0  0
 16 18  1  0  0  0  0
 16 20  1  0  0  0  0
 16 22  2  0  0  0  0
 17 19  1  0  0  0  0
  1 24  1  0  0  0  0
  2 25  1  0  0  0  0
  3 26  1  0  0  0  0
  4 27  1  0  0  0  0
  5 28  1  0  0  0  0
  6 29  1  0  0  0  0
  7 30  1  0  0  0  0
  8 31  1  0  0  0  0
 13 32  1  0  0  0  0
 17 33  1  0  0  0  0
 17 34  1  0  0  0  0
 17 35  1  0  0  0  0
 18 36  1  0  0  0  0
 18 37  1  0  0  0  0
 20 38  1  0  0  0  0
M  END
> <compound>
MAT-POS-4211dce8-1

> <compound_smiles>
Cn1cc(c2ccccc2c1=O)NC(=O)Cc3cccc(c3)Cl

> <enantiomer_smiles>
Cn1cc(c2ccccc2c1=O)NC(=O)Cc3cccc(c3)Cl

> <scaffold>
chlorobenzene-linker

> <canonical_CID>
MAT-POS-4211dce8-1

> <r_inhibition_at_20_uM>

> <r_inhibition_at_50_uM>

> <r_avg_IC50>
99.0

> <f_inhibition_at_20_uM>

> <f_inhibition_at_50_uM>

> <f_avg_IC50>
99.5

> <f_avg_pIC50>

> <relative_solubility_at_20_uM>

> <relative_solubility_at_100_uM>

> <trypsin_IC50>

> <NMR_std_ratio>

> <acrylamide>
False

> <chloroacetamide>
False

> <series>
3-aminopyridine-like

> <frag_id>

> <clash_score>
0.8125893451280499

> <docking_score>
-7.155993938446045

> <overlap_score>
0.9906643629074097

> <MMFF_internal_energy>
88.64688239809267

> <docked_smiles>
Cn1cc(c2ccccc2c1=O)NC(=O)Cc3cccc(c3)Cl

$$$$
MAT-POS-f7918075-6_1
  -OEChem-07262101023D

 33 35  0     0  0  0  0  0  0999 V2000
    5.5394    3.1211   20.8448 C   0  0  0  0  0  0  0  0  0  0  0  0
    4.8704    3.5915   19.7212 C   0  0  0  0  0  0  0  0  0  0  0  0
   11.9780    0.4600   23.9150 C   0  0  0  0  0  0  0  0  0  0  0  0
    6.1153    1.8536   20.8218 C   0  0  0  0  0  0  0  0  0  0  0  0
   10.6560    0.0720   23.7350 C   0  0  0  0  0  0  0  0  0  0  0  0
    4.7792    2.7936   18.5786 C   0  0  0  0  0  0  0  0  0  0  0  0
   12.9840   -0.1200   23.1530 C   0  0  0  0  0  0  0  0  0  0  0  0
   11.3360   -1.5050   22.0650 C   0  0  0  0  0  0  0  0  0  0  0  0
    6.4603   -0.9523   18.4604 C   0  0  0  0  0  0  0  0  0  0  0  0
    6.0229    1.0515   19.6717 C   0  0  0  0  0  0  0  0  0  0  0  0
   10.3220   -0.8940   22.7910 C   0  0  0  0  0  0  0  0  0  0  0  0
    5.3472    1.5231   18.5331 C   0  0  0  0  0  0  0  0  0  0  0  0
    6.5902   -0.2219   19.6214 C   0  0  0  0  0  0  0  0  0  0  0  0
   12.6400   -1.1000   22.2390 C   0  0  0  0  0  0  0  0  0  0  0  0
    8.3880   -0.3240   21.3070 C   0  0  0  0  0  0  0  0  0  0  0  0
    8.8810   -1.1900   22.4510 C   0  0  0  0  0  0  0  0  0  0  0  0
    5.8100   -0.4833   17.3819 N   0  0  0  0  0  0  0  0  0  0  0  0
    5.2521    0.7654   17.4273 N   0  0  0  0  0  0  0  0  0  0  0  0
    7.2820   -0.7860   20.6970 N   0  0  0  0  0  0  0  0  0  0  0  0
    8.9170    0.7530   21.0260 O   0  0  0  0  0  0  0  0  0  0  0  0
   13.8840   -1.8490   21.2740 Cl  0  0  0  0  0  0  0  0  0  0  0  0
    5.6132    3.7374   21.7355 H   0  0  0  0  0  0  0  0  0  0  0  0
    4.4179    4.5787   19.7311 H   0  0  0  0  0  0  0  0  0  0  0  0
   12.2249    1.2198   24.6546 H   0  0  0  0  0  0  0  0  0  0  0  0
    6.6331    1.5108   21.7146 H   0  0  0  0  0  0  0  0  0  0  0  0
    9.8763    0.5350   24.3454 H   0  0  0  0  0  0  0  0  0  0  0  0
    4.2507    3.1823   17.7101 H   0  0  0  0  0  0  0  0  0  0  0  0
   14.0077    0.1988   23.2842 H   0  0  0  0  0  0  0  0  0  0  0  0
   11.0892   -2.3009   21.3624 H   0  0  0  0  0  0  0  0  0  0  0  0
    6.8756   -1.9483   18.3532 H   0  0  0  0  0  0  0  0  0  0  0  0
    8.7774   -2.2383   22.1732 H   0  0  0  0  0  0  0  0  0  0  0  0
    8.2557   -1.0153   23.3257 H   0  0  0  0  0  0  0  0  0  0  0  0
    6.8981   -1.6619   21.0674 H   0  0  0  0  0  0  0  0  0  0  0  0
  1  2  1  0  0  0  0
  1  4  2  0  0  0  0
  2  6  2  0  0  0  0
  3  5  2  0  0  0  0
  3  7  1  0  0  0  0
  4 10  1  0  0  0  0
  5 11  1  0  0  0  0
  6 12  1  0  0  0  0
  7 14  2  0  0  0  0
  8 11  2  0  0  0  0
  8 14  1  0  0  0  0
  9 13  1  0  0  0  0
  9 17  2  0  0  0  0
 10 12  1  0  0  0  0
 10 13  2  0  0  0  0
 11 16  1  0  0  0  0
 12 18  2  0  0  0  0
 13 19  1  0  0  0  0
 14 21  1  0  0  0  0
 15 16  1  0  0  0  0
 15 19  1  0  0  0  0
 15 20  2  0  0  0  0
 17 18  1  0  0  0  0
  1 22  1  0  0  0  0
  2 23  1  0  0  0  0
  3 24  1  0  0  0  0
  4 25  1  0  0  0  0
  5 26  1  0  0  0  0
  6 27  1  0  0  0  0
  7 28  1  0  0  0  0
  8 29  1  0  0  0  0
  9 30  1  0  0  0  0
 16 31  1  0  0  0  0
 16 32  1  0  0  0  0
 19 33  1  0  0  0  0
M  END
> <compound>
MAT-POS-f7918075-6

> <compound_smiles>
c1ccc2c(c1)c(cnn2)NC(=O)Cc3cccc(c3)Cl

> <enantiomer_smiles>
c1ccc2c(c1)c(cnn2)NC(=O)Cc3cccc(c3)Cl

> <scaffold>
chlorobenzene-linker

> <clash_score>
0.6383942623064081

> <docking_score>
-5.131796836853027

> <overlap_score>
0.8436604738235474

> <MMFF_internal_energy>
96.76633205398072

> <docked_smiles>
c1ccc2c(c1)c(cnn2)NC(=O)Cc3cccc(c3)Cl

$$$$
MAT-POS-f7918075-4_1
  -OEChem-07262101023D

 32 34  0     0  0  0  0  0  0999 V2000
   11.9780    0.4600   23.9150 C   0  0  0  0  0  0  0  0  0  0  0  0
   10.6560    0.0720   23.7350 C   0  0  0  0  0  0  0  0  0  0  0  0
   12.9840   -0.1200   23.1530 C   0  0  0  0  0  0  0  0  0  0  0  0
   11.3360   -1.5050   22.0650 C   0  0  0  0  0  0  0  0  0  0  0  0
    5.2669    0.8815   17.4309 C   0  0  0  0  0  0  0  0  0  0  0  0
    7.1869   -0.0183   18.3907 C   0  0  0  0  0  0  0  0  0  0  0  0
   10.3220   -0.8940   22.7910 C   0  0  0  0  0  0  0  0  0  0  0  0
    4.6117    0.7042   18.6173 C   0  0  0  0  0  0  0  0  0  0  0  0
    5.2746    0.1526   19.7020 C   0  0  0  0  0  0  0  0  0  0  0  0
    6.5901   -0.2295   19.6275 C   0  0  0  0  0  0  0  0  0  0  0  0
   12.6400   -1.1000   22.2390 C   0  0  0  0  0  0  0  0  0  0  0  0
    3.1263    0.6084   20.3503 C   0  0  0  0  0  0  0  0  0  0  0  0
    8.3880   -0.3240   21.3070 C   0  0  0  0  0  0  0  0  0  0  0  0
    8.8810   -1.1900   22.4510 C   0  0  0  0  0  0  0  0  0  0  0  0
    6.5658    0.5231   17.2975 N   0  0  0  0  0  0  0  0  0  0  0  0
    3.3011    0.9900   18.9888 N   0  0  0  0  0  0  0  0  0  0  0  0
    4.3831    0.0854   20.7725 N   0  0  0  0  0  0  0  0  0  0  0  0
    7.2820   -0.7860   20.6970 N   0  0  0  0  0  0  0  0  0  0  0  0
    2.1077    0.7086   21.0189 O   0  0  0  0  0  0  0  0  0  0  0  0
    8.9170    0.7530   21.0260 O   0  0  0  0  0  0  0  0  0  0  0  0
   13.8840   -1.8490   21.2740 Cl  0  0  0  0  0  0  0  0  0  0  0  0
   12.2249    1.2198   24.6546 H   0  0  0  0  0  0  0  0  0  0  0  0
    9.8763    0.5350   24.3454 H   0  0  0  0  0  0  0  0  0  0  0  0
   14.0077    0.1988   23.2842 H   0  0  0  0  0  0  0  0  0  0  0  0
   11.0892   -2.3009   21.3624 H   0  0  0  0  0  0  0  0  0  0  0  0
    4.7950    1.3054   16.5539 H   0  0  0  0  0  0  0  0  0  0  0  0
    8.2263   -0.2863   18.2200 H   0  0  0  0  0  0  0  0  0  0  0  0
    8.7774   -2.2383   22.1732 H   0  0  0  0  0  0  0  0  0  0  0  0
    8.2557   -1.0153   23.3257 H   0  0  0  0  0  0  0  0  0  0  0  0
    2.5924    1.3994   18.3928 H   0  0  0  0  0  0  0  0  0  0  0  0
    4.5935   -0.2747   21.6950 H   0  0  0  0  0  0  0  0  0  0  0  0
    6.8985   -1.6648   21.0701 H   0  0  0  0  0  0  0  0  0  0  0  0
  1  2  1  0  0  0  0
  1  3  2  0  0  0  0
  2  7  2  0  0  0  0
  3 11  1  0  0  0  0
  4  7  1  0  0  0  0
  4 11  2  0  0  0  0
  5  8  2  0  0  0  0
  5 15  1  0  0  0  0
  6 10  1  0  0  0  0
  6 15  2  0  0  0  0
  7 14  1  0  0  0  0
  8  9  1  0  0  0  0
  8 16  1  0  0  0  0
  9 10  2  0  0  0  0
  9 17  1  0  0  0  0
 10 18  1  0  0  0  0
 11 21  1  0  0  0  0
 12 16  1  0  0  0  0
 12 17  1  0  0  0  0
 12 19  2  0  0  0  0
 13 14  1  0  0  0  0
 13 18  1  0  0  0  0
 13 20  2  0  0  0  0
  1 22  1  0  0  0  0
  2 23  1  0  0  0  0
  3 24  1  0  0  0  0
  4 25  1  0  0  0  0
  5 26  1  0  0  0  0
  6 27  1  0  0  0  0
 14 28  1  0  0  0  0
 14 29  1  0  0  0  0
 16 30  1  0  0  0  0
 17 31  1  0  0  0  0
 18 32  1  0  0  0  0
M  END
> <compound>
MAT-POS-f7918075-4

> <compound_smiles>
c1cc(cc(c1)Cl)CC(=O)Nc2cncc3c2[nH]c(=O)[nH]3

> <enantiomer_smiles>
c1cc(cc(c1)Cl)CC(=O)Nc2cncc3c2[nH]c(=O)[nH]3

> <scaffold>
chlorobenzene-linker

> <clash_score>
0

> <docking_score>
-5.207728385925293

> <overlap_score>
0.8905450105667114

> <MMFF_internal_energy>
40.30560379046095

> <docked_smiles>
c1cc(cc(c1)Cl)CC(=O)Nc2cncc3c2[nH]c(=O)[nH]3

$$$$
MAT-POS-f7918075-5_1
  -OEChem-07262101023D

 33 35  0     0  0  0  0  0  0999 V2000
   11.9780    0.4600   23.9150 C   0  0  0  0  0  0  0  0  0  0  0  0
   10.6560    0.0720   23.7350 C   0  0  0  0  0  0  0  0  0  0  0  0
   12.9840   -0.1200   23.1530 C   0  0  0  0  0  0  0  0  0  0  0  0
    4.7686    2.8343   18.6098 C   0  0  0  0  0  0  0  0  0  0  0  0
   11.3360   -1.5050   22.0650 C   0  0  0  0  0  0  0  0  0  0  0  0
    4.9054    3.5606   19.7824 C   0  0  0  0  0  0  0  0  0  0  0  0
    5.2641    0.7338   17.4294 C   0  0  0  0  0  0  0  0  0  0  0  0
    6.0946    1.8777   20.8024 C   0  0  0  0  0  0  0  0  0  0  0  0
    6.4534   -0.9490   18.4495 C   0  0  0  0  0  0  0  0  0  0  0  0
    5.3376    1.5563   18.5555 C   0  0  0  0  0  0  0  0  0  0  0  0
    6.0212    1.0553   19.6763 C   0  0  0  0  0  0  0  0  0  0  0  0
   10.3220   -0.8940   22.7910 C   0  0  0  0  0  0  0  0  0  0  0  0
    6.5902   -0.2227   19.6221 C   0  0  0  0  0  0  0  0  0  0  0  0
   12.6400   -1.1000   22.2390 C   0  0  0  0  0  0  0  0  0  0  0  0
    8.3880   -0.3240   21.3070 C   0  0  0  0  0  0  0  0  0  0  0  0
    8.8810   -1.1900   22.4510 C   0  0  0  0  0  0  0  0  0  0  0  0
    5.5539    3.1153   20.8808 N   0  0  0  0  0  0  0  0  0  0  0  0
    5.8048   -0.5038   17.3510 N   0  0  0  0  0  0  0  0  0  0  0  0
    7.2820   -0.7860   20.6970 N   0  0  0  0  0  0  0  0  0  0  0  0
    8.9170    0.7530   21.0260 O   0  0  0  0  0  0  0  0  0  0  0  0
   13.8840   -1.8490   21.2740 Cl  0  0  0  0  0  0  0  0  0  0  0  0
   12.2249    1.2198   24.6546 H   0  0  0  0  0  0  0  0  0  0  0  0
    9.8763    0.5350   24.3454 H   0  0  0  0  0  0  0  0  0  0  0  0
   14.0077    0.1988   23.2842 H   0  0  0  0  0  0  0  0  0  0  0  0
    4.2324    3.2544   17.7650 H   0  0  0  0  0  0  0  0  0  0  0  0
   11.0892   -2.3009   21.3624 H   0  0  0  0  0  0  0  0  0  0  0  0
    4.4801    4.5552   19.8702 H   0  0  0  0  0  0  0  0  0  0  0  0
    4.7511    1.0572   16.5280 H   0  0  0  0  0  0  0  0  0  0  0  0
    6.6042    1.5667   21.7100 H   0  0  0  0  0  0  0  0  0  0  0  0
    6.8738   -1.9458   18.3507 H   0  0  0  0  0  0  0  0  0  0  0  0
    8.7774   -2.2383   22.1732 H   0  0  0  0  0  0  0  0  0  0  0  0
    8.2557   -1.0153   23.3257 H   0  0  0  0  0  0  0  0  0  0  0  0
    6.8982   -1.6622   21.0677 H   0  0  0  0  0  0  0  0  0  0  0  0
  1  2  1  0  0  0  0
  1  3  2  0  0  0  0
  2 12  2  0  0  0  0
  3 14  1  0  0  0  0
  4  6  2  0  0  0  0
  4 10  1  0  0  0  0
  5 12  1  0  0  0  0
  5 14  2  0  0  0  0
  6 17  1  0  0  0  0
  7 10  2  0  0  0  0
  7 18  1  0  0  0  0
  8 11  1  0  0  0  0
  8 17  2  0  0  0  0
  9 13  1  0  0  0  0
  9 18  2  0  0  0  0
 10 11  1  0  0  0  0
 11 13  2  0  0  0  0
 12 16  1  0  0  0  0
 13 19  1  0  0  0  0
 14 21  1  0  0  0  0
 15 16  1  0  0  0  0
 15 19  1  0  0  0  0
 15 20  2  0  0  0  0
  1 22  1  0  0  0  0
  2 23  1  0  0  0  0
  3 24  1  0  0  0  0
  4 25  1  0  0  0  0
  5 26  1  0  0  0  0
  6 27  1  0  0  0  0
  7 28  1  0  0  0  0
  8 29  1  0  0  0  0
  9 30  1  0  0  0  0
 16 31  1  0  0  0  0
 16 32  1  0  0  0  0
 19 33  1  0  0  0  0
M  END
> <compound>
MAT-POS-f7918075-5

> <compound_smiles>
c1cc(cc(c1)Cl)CC(=O)Nc2cncc3c2cncc3

> <enantiomer_smiles>
c1cc(cc(c1)Cl)CC(=O)Nc2cncc3c2cncc3

> <scaffold>
chlorobenzene-linker

> <canonical_CID>
MAT-POS-f7918075-5

> <r_inhibition_at_20_uM>

> <r_inhibition_at_50_uM>

> <r_avg_IC50>
2.13050080931241

> <f_inhibition_at_20_uM>

> <f_inhibition_at_50_uM>

> <f_avg_IC50>
4.2732635771199

> <f_avg_pIC50>

> <relative_solubility_at_20_uM>

> <relative_solubility_at_100_uM>

> <trypsin_IC50>

> <NMR_std_ratio>

> <acrylamide>
False

> <chloroacetamide>
False

> <series>
3-aminopyridine-like

> <frag_id>
x11499

> <clash_score>
0.6238159338595326

> <docking_score>
-5.850894451141357

> <overlap_score>
0.8415153622627258

> <MMFF_internal_energy>
91.52712238338995

> <docked_smiles>
c1cc(cc(c1)Cl)CC(=O)Nc2cncc3c2cncc3

$$$$
MAT-POS-f7918075-7_1
  -OEChem-07262101023D

 33 35  0     0  0  0  0  0  0999 V2000
   11.9780    0.4600   23.9150 C   0  0  0  0  0  0  0  0  0  0  0  0
   10.6560    0.0720   23.7350 C   0  0  0  0  0  0  0  0  0  0  0  0
   12.9840   -0.1200   23.1530 C   0  0  0  0  0  0  0  0  0  0  0  0
   11.3360   -1.5050   22.0650 C   0  0  0  0  0  0  0  0  0  0  0  0
    5.2274    0.8051   17.4371 C   0  0  0  0  0  0  0  0  0  0  0  0
    6.4227   -0.9149   18.4301 C   0  0  0  0  0  0  0  0  0  0  0  0
    6.0325    1.0287   19.6821 C   0  0  0  0  0  0  0  0  0  0  0  0
   10.3220   -0.8940   22.7910 C   0  0  0  0  0  0  0  0  0  0  0  0
    5.3530    1.5405   18.5866 C   0  0  0  0  0  0  0  0  0  0  0  0
    6.5901   -0.2286   19.6268 C   0  0  0  0  0  0  0  0  0  0  0  0
   12.6400   -1.1000   22.2390 C   0  0  0  0  0  0  0  0  0  0  0  0
    5.2314    3.1968   20.1706 C   0  0  0  0  0  0  0  0  0  0  0  0
    8.3880   -0.3240   21.3070 C   0  0  0  0  0  0  0  0  0  0  0  0
    6.0178    2.0332   20.7894 C   0  0  0  0  0  0  0  0  0  0  0  0
    8.8810   -1.1900   22.4510 C   0  0  0  0  0  0  0  0  0  0  0  0
    5.7594   -0.4340   17.3388 N   0  0  0  0  0  0  0  0  0  0  0  0
    4.8809    2.8139   18.8704 N   0  0  0  0  0  0  0  0  0  0  0  0
    7.2820   -0.7860   20.6970 N   0  0  0  0  0  0  0  0  0  0  0  0
    4.9716    4.2511   20.7297 O   0  0  0  0  0  0  0  0  0  0  0  0
    8.9170    0.7530   21.0260 O   0  0  0  0  0  0  0  0  0  0  0  0
   13.8840   -1.8490   21.2740 Cl  0  0  0  0  0  0  0  0  0  0  0  0
   12.2249    1.2198   24.6546 H   0  0  0  0  0  0  0  0  0  0  0  0
    9.8763    0.5350   24.3454 H   0  0  0  0  0  0  0  0  0  0  0  0
   14.0077    0.1988   23.2842 H   0  0  0  0  0  0  0  0  0  0  0  0
   11.0892   -2.3009   21.3624 H   0  0  0  0  0  0  0  0  0  0  0  0
    4.7050    1.1702   16.5618 H   0  0  0  0  0  0  0  0  0  0  0  0
    6.8296   -1.9139   18.2973 H   0  0  0  0  0  0  0  0  0  0  0  0
    5.4843    1.6575   21.6662 H   0  0  0  0  0  0  0  0  0  0  0  0
    7.0271    2.3689   21.0414 H   0  0  0  0  0  0  0  0  0  0  0  0
    8.7774   -2.2383   22.1732 H   0  0  0  0  0  0  0  0  0  0  0  0
    8.2557   -1.0153   23.3257 H   0  0  0  0  0  0  0  0  0  0  0  0
    4.3554    3.3807   18.2154 H   0  0  0  0  0  0  0  0  0  0  0  0
    6.8984   -1.6645   21.0698 H   0  0  0  0  0  0  0  0  0  0  0  0
  1  2  1  0  0  0  0
  1  3  2  0  0  0  0
  2  8  2  0  0  0  0
  3 11  1  0  0  0  0
  4  8  1  0  0  0  0
  4 11  2  0  0  0  0
  5  9  2  0  0  0  0
  5 16  1  0  0  0  0
  6 10  1  0  0  0  0
  6 16  2  0  0  0  0
  7  9  1  0  0  0  0
  7 10  2  0  0  0  0
  7 14  1  0  0  0  0
  8 15  1  0  0  0  0
  9 17  1  0  0  0  0
 10 18  1  0  0  0  0
 11 21  1  0  0  0  0
 12 14  1  0  0  0  0
 12 17  1  0  0  0  0
 12 19  2  0  0  0  0
 13 15  1  0  0  0  0
 13 18  1  0  0  0  0
 13 20  2  0  0  0  0
  1 22  1  0  0  0  0
  2 23  1  0  0  0  0
  3 24  1  0  0  0  0
  4 25  1  0  0  0  0
  5 26  1  0  0  0  0
  6 27  1  0  0  0  0
 14 28  1  0  0  0  0
 14 29  1  0  0  0  0
 15 30  1  0  0  0  0
 15 31  1  0  0  0  0
 17 32  1  0  0  0  0
 18 33  1  0  0  0  0
M  END
> <compound>
MAT-POS-f7918075-7

> <compound_smiles>
c1cc(cc(c1)Cl)CC(=O)Nc2cncc3c2CC(=O)N3

> <enantiomer_smiles>
c1cc(cc(c1)Cl)CC(=O)Nc2cncc3c2CC(=O)N3

> <scaffold>
chlorobenzene-linker

> <clash_score>
0.6149360125372346

> <docking_score>
-6.215262413024902

> <overlap_score>
0.8388378024101257

> <MMFF_internal_energy>
73.6908640747382

> <docked_smiles>
c1cc(cc(c1)Cl)CC(=O)Nc2cncc3c2CC(=O)N3

$$$$
MAT-POS-f7918075-8_1
  -OEChem-07262101023D

 31 33  0     0  0  0  0  0  0999 V2000
   11.9780    0.4600   23.9150 C   0  0  0  0  0  0  0  0  0  0  0  0
   10.6560    0.0720   23.7350 C   0  0  0  0  0  0  0  0  0  0  0  0
   12.9840   -0.1200   23.1530 C   0  0  0  0  0  0  0  0  0  0  0  0
   11.3360   -1.5050   22.0650 C   0  0  0  0  0  0  0  0  0  0  0  0
    5.2930    0.8886   17.3914 C   0  0  0  0  0  0  0  0  0  0  0  0
    7.1953   -0.0206   18.3929 C   0  0  0  0  0  0  0  0  0  0  0  0
    3.2438    0.5875   20.3107 C   0  0  0  0  0  0  0  0  0  0  0  0
   10.3220   -0.8940   22.7910 C   0  0  0  0  0  0  0  0  0  0  0  0
    5.2489    0.1584   19.7140 C   0  0  0  0  0  0  0  0  0  0  0  0
    4.6311    0.7080   18.5949 C   0  0  0  0  0  0  0  0  0  0  0  0
    6.5901   -0.2286   19.6268 C   0  0  0  0  0  0  0  0  0  0  0  0
   12.6400   -1.1000   22.2390 C   0  0  0  0  0  0  0  0  0  0  0  0
    8.3880   -0.3240   21.3070 C   0  0  0  0  0  0  0  0  0  0  0  0
    8.8810   -1.1900   22.4510 C   0  0  0  0  0  0  0  0  0  0  0  0
    6.5922    0.5150   17.3030 N   0  0  0  0  0  0  0  0  0  0  0  0
    4.3707    0.0912   20.7710 N   0  0  0  0  0  0  0  0  0  0  0  0
    3.3509    0.9734   19.0031 N   0  0  0  0  0  0  0  0  0  0  0  0
    7.2820   -0.7860   20.6970 N   0  0  0  0  0  0  0  0  0  0  0  0
    8.9170    0.7530   21.0260 O   0  0  0  0  0  0  0  0  0  0  0  0
   13.8840   -1.8490   21.2740 Cl  0  0  0  0  0  0  0  0  0  0  0  0
   12.2249    1.2198   24.6546 H   0  0  0  0  0  0  0  0  0  0  0  0
    9.8763    0.5350   24.3454 H   0  0  0  0  0  0  0  0  0  0  0  0
   14.0077    0.1988   23.2842 H   0  0  0  0  0  0  0  0  0  0  0  0
   11.0892   -2.3009   21.3624 H   0  0  0  0  0  0  0  0  0  0  0  0
    4.8336    1.3133   16.5093 H   0  0  0  0  0  0  0  0  0  0  0  0
    8.2359   -0.2925   18.2346 H   0  0  0  0  0  0  0  0  0  0  0  0
    2.3228    0.6946   20.8659 H   0  0  0  0  0  0  0  0  0  0  0  0
    8.7774   -2.2383   22.1732 H   0  0  0  0  0  0  0  0  0  0  0  0
    8.2557   -1.0153   23.3257 H   0  0  0  0  0  0  0  0  0  0  0  0
    2.6168    1.3818   18.4400 H   0  0  0  0  0  0  0  0  0  0  0  0
    6.8984   -1.6645   21.0698 H   0  0  0  0  0  0  0  0  0  0  0  0
  1  2  1  0  0  0  0
  1  3  2  0  0  0  0
  2  8  2  0  0  0  0
  3 12  1  0  0  0  0
  4  8  1  0  0  0  0
  4 12  2  0  0  0  0
  5 10  2  0  0  0  0
  5 15  1  0  0  0  0
  6 11  1  0  0  0  0
  6 15  2  0  0  0  0
  7 16  2  0  0  0  0
  7 17  1  0  0  0  0
  8 14  1  0  0  0  0
  9 10  1  0  0  0  0
  9 11  2  0  0  0  0
  9 16  1  0  0  0  0
 10 17  1  0  0  0  0
 11 18  1  0  0  0  0
 12 20  1  0  0  0  0
 13 14  1  0  0  0  0
 13 18  1  0  0  0  0
 13 19  2  0  0  0  0
  1 21  1  0  0  0  0
  2 22  1  0  0  0  0
  3 23  1  0  0  0  0
  4 24  1  0  0  0  0
  5 25  1  0  0  0  0
  6 26  1  0  0  0  0
  7 27  1  0  0  0  0
 14 28  1  0  0  0  0
 14 29  1  0  0  0  0
 17 30  1  0  0  0  0
 18 31  1  0  0  0  0
M  END
> <compound>
MAT-POS-f7918075-8

> <compound_smiles>
c1cc(cc(c1)Cl)CC(=O)Nc2cncc3c2[nH]cn3

> <enantiomer_smiles>
c1cc(cc(c1)Cl)CC(=O)Nc2cncc3c2[nH]cn3

> <scaffold>
chlorobenzene-linker

> <canonical_CID>
MAT-POS-f7918075-8

> <r_inhibition_at_20_uM>

> <r_inhibition_at_50_uM>

> <r_avg_IC50>
7.96693326437447

> <f_inhibition_at_20_uM>

> <f_inhibition_at_50_uM>

> <f_avg_IC50>
13.260878543169

> <f_avg_pIC50>

> <relative_solubility_at_20_uM>

> <relative_solubility_at_100_uM>

> <trypsin_IC50>

> <NMR_std_ratio>

> <acrylamide>
False

> <chloroacetamide>
False

> <series>
3-aminopyridine-like

> <frag_id>
x11742

> <clash_score>
0

> <docking_score>
-6.507935523986816

> <overlap_score>
0.8839800953865051

> <MMFF_internal_energy>
65.44461445542791

> <docked_smiles>
c1cc(cc(c1)Cl)CC(=O)Nc2cncc3c2nc[nH]3

$$$$
MAT-POS-1e5f28a7-1_1
  -OEChem-07262101023D

 37 38  0     1  0  0  0  0  0999 V2000
   11.9780    0.4600   23.9150 C   0  0  0  0  0  0  0  0  0  0  0  0
   10.6560    0.0720   23.7350 C   0  0  0  0  0  0  0  0  0  0  0  0
   12.9840   -0.1200   23.1530 C   0  0  0  0  0  0  0  0  0  0  0  0
    4.9925    1.3275   18.7068 C   0  0  0  0  0  0  0  0  0  0  0  0
   11.3360   -1.5050   22.0650 C   0  0  0  0  0  0  0  0  0  0  0  0
    5.4070    0.9271   17.4468 C   0  0  0  0  0  0  0  0  0  0  0  0
    6.9657   -0.5170   18.3202 C   0  0  0  0  0  0  0  0  0  0  0  0
   10.3220   -0.8940   22.7910 C   0  0  0  0  0  0  0  0  0  0  0  0
    5.6179    0.7564   19.8096 C   0  0  0  0  0  0  0  0  0  0  0  0
    6.6244   -0.1842   19.6212 C   0  0  0  0  0  0  0  0  0  0  0  0
   12.6400   -1.1000   22.2390 C   0  0  0  0  0  0  0  0  0  0  0  0
    8.3880   -0.3240   21.3070 C   0  0  0  0  0  0  0  0  0  0  0  0
    7.9715   -1.1275   23.6862 C   0  0  0  0  0  0  0  0  0  0  0  0
    5.1913    1.1701   21.1798 C   0  0  0  0  0  0  0  0  0  0  0  0
    7.5891   -2.1113   25.8066 C   0  0  0  0  0  0  0  0  0  0  0  0
    8.8810   -1.1900   22.4510 C   0  0  1  0  0  0  0  0  0  0  0  0
    6.3809    0.0164   17.2242 N   0  0  0  0  0  0  0  0  0  0  0  0
    7.2820   -0.7860   20.6970 N   0  0  0  0  0  0  0  0  0  0  0  0
    8.9170    0.7530   21.0260 O   0  0  0  0  0  0  0  0  0  0  0  0
    6.9833   -0.4114   23.7860 O   0  0  0  0  0  0  0  0  0  0  0  0
    8.3928   -2.0275   24.6254 O   0  0  0  0  0  0  0  0  0  0  0  0
   13.8840   -1.8490   21.2740 Cl  0  0  0  0  0  0  0  0  0  0  0  0
   12.2249    1.2198   24.6546 H   0  0  0  0  0  0  0  0  0  0  0  0
    9.8763    0.5350   24.3454 H   0  0  0  0  0  0  0  0  0  0  0  0
   14.0077    0.1988   23.2842 H   0  0  0  0  0  0  0  0  0  0  0  0
    4.2043    2.0641   18.8195 H   0  0  0  0  0  0  0  0  0  0  0  0
   11.0892   -2.3009   21.3624 H   0  0  0  0  0  0  0  0  0  0  0  0
    4.9510    1.3427   16.5541 H   0  0  0  0  0  0  0  0  0  0  0  0
    7.7433   -1.2450   18.1086 H   0  0  0  0  0  0  0  0  0  0  0  0
    4.3814    0.5236   21.5368 H   0  0  0  0  0  0  0  0  0  0  0  0
    6.0255    1.1100   21.8897 H   0  0  0  0  0  0  0  0  0  0  0  0
    4.8391    2.2091   21.1884 H   0  0  0  0  0  0  0  0  0  0  0  0
    8.0133   -2.8555   26.4849 H   0  0  0  0  0  0  0  0  0  0  0  0
    6.5681   -2.3906   25.5345 H   0  0  0  0  0  0  0  0  0  0  0  0
    7.5789   -1.1362   26.2995 H   0  0  0  0  0  0  0  0  0  0  0  0
    8.8091   -2.2513   22.1369 H   0  0  0  0  0  0  0  0  0  0  0  0
    6.8646   -1.6463   21.0445 H   0  0  0  0  0  0  0  0  0  0  0  0
  1  2  2  0  0  0  0
  1  3  1  0  0  0  0
  2  8  1  0  0  0  0
  3 11  2  0  0  0  0
  4  6  2  0  0  0  0
  4  9  1  0  0  0  0
  5  8  2  0  0  0  0
  5 11  1  0  0  0  0
  6 17  1  0  0  0  0
  7 10  1  0  0  0  0
  7 17  2  0  0  0  0
  8 16  1  0  0  0  0
  9 10  2  0  0  0  0
  9 14  1  0  0  0  0
 10 18  1  0  0  0  0
 11 22  1  0  0  0  0
 12 16  1  1  0  0  0
 12 18  1  0  0  0  0
 12 19  2  0  0  0  0
 13 16  1  0  0  0  0
 13 20  2  0  0  0  0
 13 21  1  0  0  0  0
 15 21  1  0  0  0  0
  1 23  1  0  0  0  0
  2 24  1  0  0  0  0
  3 25  1  0  0  0  0
  4 26  1  0  0  0  0
  5 27  1  0  0  0  0
  6 28  1  0  0  0  0
  7 29  1  0  0  0  0
 14 30  1  0  0  0  0
 14 31  1  0  0  0  0
 14 32  1  0  0  0  0
 15 33  1  0  0  0  0
 15 34  1  0  0  0  0
 15 35  1  0  0  0  0
 16 36  1  0  0  0  0
 18 37  1  0  0  0  0
M  END
> <compound>
MAT-POS-1e5f28a7-1

> <compound_smiles>
Cc1ccncc1NC(=O)C(c2cccc(c2)Cl)C(=O)OC

> <enantiomer_smiles>
Cc1ccncc1NC(=O)[C@@H](c2cccc(c2)Cl)C(=O)OC

> <scaffold>
chlorobenzene-linker

> <canonical_CID>
MAT-POS-1e5f28a7-1

> <r_inhibition_at_20_uM>

> <r_inhibition_at_50_uM>

> <r_avg_IC50>
17.0913969381816

> <f_inhibition_at_20_uM>

> <f_inhibition_at_50_uM>

> <f_avg_IC50>
23.7122950305224

> <f_avg_pIC50>

> <relative_solubility_at_20_uM>

> <relative_solubility_at_100_uM>

> <trypsin_IC50>

> <NMR_std_ratio>

> <acrylamide>
False

> <chloroacetamide>
False

> <series>
3-aminopyridine-like

> <frag_id>
x11488

> <clash_score>
0

> <docking_score>
-11.241571426391602

> <overlap_score>
0.8692413568496704

> <MMFF_internal_energy>
83.26661119336953

> <docked_smiles>
Cc1ccncc1NC(=O)[C@@H](c2cccc(c2)Cl)C(=O)OC

$$$$
MAT-POS-1e5f28a7-1_2
  -OEChem-07262101023D

 37 38  0     1  0  0  0  0  0999 V2000
   11.9780    0.4600   23.9150 C   0  0  0  0  0  0  0  0  0  0  0  0
   10.6560    0.0720   23.7350 C   0  0  0  0  0  0  0  0  0  0  0  0
   12.9840   -0.1200   23.1530 C   0  0  0  0  0  0  0  0  0  0  0  0
    4.9925    1.3275   18.7068 C   0  0  0  0  0  0  0  0  0  0  0  0
   11.3360   -1.5050   22.0650 C   0  0  0  0  0  0  0  0  0  0  0  0
    5.4070    0.9271   17.4468 C   0  0  0  0  0  0  0  0  0  0  0  0
    6.9657   -0.5170   18.3202 C   0  0  0  0  0  0  0  0  0  0  0  0
   10.3220   -0.8940   22.7910 C   0  0  0  0  0  0  0  0  0  0  0  0
    5.6179    0.7564   19.8096 C   0  0  0  0  0  0  0  0  0  0  0  0
    6.6244   -0.1842   19.6212 C   0  0  0  0  0  0  0  0  0  0  0  0
   12.6400   -1.1000   22.2390 C   0  0  0  0  0  0  0  0  0  0  0  0
    8.3880   -0.3240   21.3070 C   0  0  0  0  0  0  0  0  0  0  0  0
    8.6442   -2.6913   22.2334 C   0  0  0  0  0  0  0  0  0  0  0  0
    5.1913    1.1701   21.1798 C   0  0  0  0  0  0  0  0  0  0  0  0
    6.9381   -4.3006   21.9031 C   0  0  0  0  0  0  0  0  0  0  0  0
    8.8810   -1.1900   22.4510 C   0  0  2  0  0  0  0  0  0  0  0  0
    6.3809    0.0164   17.2242 N   0  0  0  0  0  0  0  0  0  0  0  0
    7.2820   -0.7860   20.6970 N   0  0  0  0  0  0  0  0  0  0  0  0
    8.9170    0.7530   21.0260 O   0  0  0  0  0  0  0  0  0  0  0  0
    9.5176   -3.5493   22.2507 O   0  0  0  0  0  0  0  0  0  0  0  0
    7.3078   -2.9278   22.0671 O   0  0  0  0  0  0  0  0  0  0  0  0
   13.8840   -1.8490   21.2740 Cl  0  0  0  0  0  0  0  0  0  0  0  0
   12.2249    1.2198   24.6546 H   0  0  0  0  0  0  0  0  0  0  0  0
    9.8763    0.5350   24.3454 H   0  0  0  0  0  0  0  0  0  0  0  0
   14.0077    0.1988   23.2842 H   0  0  0  0  0  0  0  0  0  0  0  0
    4.2043    2.0641   18.8195 H   0  0  0  0  0  0  0  0  0  0  0  0
   11.0892   -2.3009   21.3624 H   0  0  0  0  0  0  0  0  0  0  0  0
    4.9510    1.3427   16.5541 H   0  0  0  0  0  0  0  0  0  0  0  0
    7.7433   -1.2450   18.1086 H   0  0  0  0  0  0  0  0  0  0  0  0
    4.3814    0.5236   21.5368 H   0  0  0  0  0  0  0  0  0  0  0  0
    6.0255    1.1100   21.8897 H   0  0  0  0  0  0  0  0  0  0  0  0
    4.8391    2.2091   21.1884 H   0  0  0  0  0  0  0  0  0  0  0  0
    5.8549   -4.3747   21.7789 H   0  0  0  0  0  0  0  0  0  0  0  0
    7.2550   -4.8715   22.7795 H   0  0  0  0  0  0  0  0  0  0  0  0
    7.4325   -4.6981   21.0136 H   0  0  0  0  0  0  0  0  0  0  0  0
    8.2609   -0.9688   23.3437 H   0  0  0  0  0  0  0  0  0  0  0  0
    6.8646   -1.6463   21.0445 H   0  0  0  0  0  0  0  0  0  0  0  0
  1  2  2  0  0  0  0
  1  3  1  0  0  0  0
  2  8  1  0  0  0  0
  3 11  2  0  0  0  0
  4  6  2  0  0  0  0
  4  9  1  0  0  0  0
  5  8  2  0  0  0  0
  5 11  1  0  0  0  0
  6 17  1  0  0  0  0
  7 10  1  0  0  0  0
  7 17  2  0  0  0  0
  8 16  1  0  0  0  0
  9 10  2  0  0  0  0
  9 14  1  0  0  0  0
 10 18  1  0  0  0  0
 11 22  1  0  0  0  0
 12 16  1  6  0  0  0
 12 18  1  0  0  0  0
 12 19  2  0  0  0  0
 13 16  1  0  0  0  0
 13 20  2  0  0  0  0
 13 21  1  0  0  0  0
 15 21  1  0  0  0  0
  1 23  1  0  0  0  0
  2 24  1  0  0  0  0
  3 25  1  0  0  0  0
  4 26  1  0  0  0  0
  5 27  1  0  0  0  0
  6 28  1  0  0  0  0
  7 29  1  0  0  0  0
 14 30  1  0  0  0  0
 14 31  1  0  0  0  0
 14 32  1  0  0  0  0
 15 33  1  0  0  0  0
 15 34  1  0  0  0  0
 15 35  1  0  0  0  0
 16 36  1  0  0  0  0
 18 37  1  0  0  0  0
M  END
> <compound>
MAT-POS-1e5f28a7-1

> <compound_smiles>
Cc1ccncc1NC(=O)C(c2cccc(c2)Cl)C(=O)OC

> <enantiomer_smiles>
Cc1ccncc1NC(=O)[C@H](c2cccc(c2)Cl)C(=O)OC

> <scaffold>
chlorobenzene-linker

> <canonical_CID>
MAT-POS-1e5f28a7-1

> <r_inhibition_at_20_uM>

> <r_inhibition_at_50_uM>

> <r_avg_IC50>
17.0913969381816

> <f_inhibition_at_20_uM>

> <f_inhibition_at_50_uM>

> <f_avg_IC50>
23.7122950305224

> <f_avg_pIC50>

> <relative_solubility_at_20_uM>

> <relative_solubility_at_100_uM>

> <trypsin_IC50>

> <NMR_std_ratio>

> <acrylamide>
False

> <chloroacetamide>
False

> <series>
3-aminopyridine-like

> <frag_id>
x11488

> <clash_score>
0

> <docking_score>
-9.362125396728516

> <overlap_score>
0.8709267973899841

> <MMFF_internal_energy>
88.99097068371096

> <docked_smiles>
Cc1ccncc1NC(=O)[C@H](c2cccc(c2)Cl)C(=O)OC

$$$$
MIC-UNK-6ab519a7-1_2
  -OEChem-07262101023D

 54 57  0     1  0  0  0  0  0999 V2000
    4.8867    3.6427   19.7211 C   0  0  0  0  0  0  0  0  0  0  0  0
    5.5503    3.1504   20.8424 C   0  0  0  0  0  0  0  0  0  0  0  0
   11.9780    0.4600   23.9150 C   0  0  0  0  0  0  0  0  0  0  0  0
    4.7892    2.8630   18.5689 C   0  0  0  0  0  0  0  0  0  0  0  0
    6.1195    1.8760   20.8166 C   0  0  0  0  0  0  0  0  0  0  0  0
   10.6560    0.0720   23.7350 C   0  0  0  0  0  0  0  0  0  0  0  0
   12.9840   -0.1200   23.1530 C   0  0  0  0  0  0  0  0  0  0  0  0
   11.3360   -1.5050   22.0650 C   0  0  0  0  0  0  0  0  0  0  0  0
    5.2903    0.7565   17.4056 C   0  0  0  0  0  0  0  0  0  0  0  0
    6.4606   -0.9310   18.4340 C   0  0  0  0  0  0  0  0  0  0  0  0
    5.3581    1.5791   18.5317 C   0  0  0  0  0  0  0  0  0  0  0  0
    6.0308    1.0771   19.6649 C   0  0  0  0  0  0  0  0  0  0  0  0
   10.3220   -0.8940   22.7910 C   0  0  0  0  0  0  0  0  0  0  0  0
    6.5908   -0.2044   19.6077 C   0  0  0  0  0  0  0  0  0  0  0  0
   12.6400   -1.1000   22.2390 C   0  0  0  0  0  0  0  0  0  0  0  0
    5.7962   -4.3865   24.9643 C   0  0  0  0  0  0  0  0  0  0  0  0
    8.3880   -0.3240   21.3070 C   0  0  0  0  0  0  0  0  0  0  0  0
    8.0052   -3.3291   24.6209 C   0  0  0  0  0  0  0  0  0  0  0  0
    6.1613   -2.6840   23.1117 C   0  0  0  0  0  0  0  0  0  0  0  0
    8.3675   -1.8667   24.8344 C   0  0  0  0  0  0  0  0  0  0  0  0
    6.5005   -1.2117   23.3026 C   0  0  0  0  0  0  0  0  0  0  0  0
    6.4871   -5.6065   25.5195 C   0  0  0  0  0  0  0  0  0  0  0  0
    8.8810   -1.1900   22.4510 C   0  0  2  0  0  0  0  0  0  0  0  0
    5.8245   -0.4834   17.3305 N   0  0  0  0  0  0  0  0  0  0  0  0
    6.5936   -3.4798   24.2660 N   0  0  0  0  0  0  0  0  0  0  0  0
    7.2820   -0.7860   20.6970 N   0  0  0  0  0  0  0  0  0  0  0  0
    7.9638   -1.0391   23.6364 N   0  3  0  0  0  0  0  0  0  0  0  0
    4.5838   -4.2466   25.1446 O   0  0  0  0  0  0  0  0  0  0  0  0
    8.9170    0.7530   21.0260 O   0  0  0  0  0  0  0  0  0  0  0  0
   13.8840   -1.8490   21.2740 Cl  0  0  0  0  0  0  0  0  0  0  0  0
    4.4446    4.6344   19.7440 H   0  0  0  0  0  0  0  0  0  0  0  0
    5.6249    3.7592   21.7389 H   0  0  0  0  0  0  0  0  0  0  0  0
   12.2249    1.2198   24.6546 H   0  0  0  0  0  0  0  0  0  0  0  0
    4.2674    3.2627   17.7024 H   0  0  0  0  0  0  0  0  0  0  0  0
    6.6299    1.5271   21.7114 H   0  0  0  0  0  0  0  0  0  0  0  0
    9.8763    0.5350   24.3454 H   0  0  0  0  0  0  0  0  0  0  0  0
   14.0077    0.1988   23.2842 H   0  0  0  0  0  0  0  0  0  0  0  0
   11.0892   -2.3009   21.3624 H   0  0  0  0  0  0  0  0  0  0  0  0
    4.7868    1.0816   16.4993 H   0  0  0  0  0  0  0  0  0  0  0  0
    6.8769   -1.9300   18.3396 H   0  0  0  0  0  0  0  0  0  0  0  0
    8.6483   -3.7552   23.8433 H   0  0  0  0  0  0  0  0  0  0  0  0
    8.1780   -3.9096   25.5363 H   0  0  0  0  0  0  0  0  0  0  0  0
    5.0769   -2.8200   23.0112 H   0  0  0  0  0  0  0  0  0  0  0  0
    6.6130   -3.0369   22.1820 H   0  0  0  0  0  0  0  0  0  0  0  0
    7.8330   -1.4598   25.7071 H   0  0  0  0  0  0  0  0  0  0  0  0
    9.4509   -1.7304   24.9876 H   0  0  0  0  0  0  0  0  0  0  0  0
    6.2909   -0.6221   22.3947 H   0  0  0  0  0  0  0  0  0  0  0  0
    5.9231   -0.7887   24.1397 H   0  0  0  0  0  0  0  0  0  0  0  0
    6.8398   -5.3891   26.5223 H   0  0  0  0  0  0  0  0  0  0  0  0
    7.3250   -5.8628   24.8791 H   0  0  0  0  0  0  0  0  0  0  0  0
    5.7835   -6.4324   25.5445 H   0  0  0  0  0  0  0  0  0  0  0  0
    8.7698   -2.2472   22.1731 H   0  0  0  0  0  0  0  0  0  0  0  0
    6.8974   -1.6551   21.0612 H   0  0  0  0  0  0  0  0  0  0  0  0
    8.0693   -0.0280   23.9392 H   0  0  0  0  0  0  0  0  0  0  0  0
  1  2  1  0  0  0  0
  1  4  2  0  0  0  0
  2  5  2  0  0  0  0
  3  6  2  0  0  0  0
  3  7  1  0  0  0  0
  4 11  1  0  0  0  0
  5 12  1  0  0  0  0
  6 13  1  0  0  0  0
  7 15  2  0  0  0  0
  8 13  2  0  0  0  0
  8 15  1  0  0  0  0
  9 11  2  0  0  0  0
  9 24  1  0  0  0  0
 10 14  1  0  0  0  0
 10 24  2  0  0  0  0
 11 12  1  0  0  0  0
 12 14  2  0  0  0  0
 13 23  1  0  0  0  0
 14 26  1  0  0  0  0
 15 30  1  0  0  0  0
 16 22  1  0  0  0  0
 16 25  1  0  0  0  0
 16 28  2  0  0  0  0
 17 23  1  6  0  0  0
 17 26  1  0  0  0  0
 17 29  2  0  0  0  0
 18 20  1  0  0  0  0
 18 25  1  0  0  0  0
 19 21  1  0  0  0  0
 19 25  1  0  0  0  0
 20 27  1  0  0  0  0
 21 27  1  0  0  0  0
 23 27  1  0  0  0  0
  1 31  1  0  0  0  0
  2 32  1  0  0  0  0
  3 33  1  0  0  0  0
  4 34  1  0  0  0  0
  5 35  1  0  0  0  0
  6 36  1  0  0  0  0
  7 37  1  0  0  0  0
  8 38  1  0  0  0  0
  9 39  1  0  0  0  0
 10 40  1  0  0  0  0
 18 41  1  0  0  0  0
 18 42  1  0  0  0  0
 19 43  1  0  0  0  0
 19 44  1  0  0  0  0
 20 45  1  0  0  0  0
 20 46  1  0  0  0  0
 21 47  1  0  0  0  0
 21 48  1  0  0  0  0
 22 49  1  0  0  0  0
 22 50  1  0  0  0  0
 22 51  1  0  0  0  0
 23 52  1  0  0  0  0
 26 53  1  0  0  0  0
 27 54  1  0  0  0  0
M  CHG  1  27   1
M  END
> <compound>
MIC-UNK-6ab519a7-1

> <compound_smiles>
CC(=O)N1CCN(CC1)C(c2cccc(c2)Cl)C(=O)Nc3cncc4c3cccc4

> <enantiomer_smiles>
CC(=O)N1CCN(CC1)[C@H](c2cccc(c2)Cl)C(=O)Nc3cncc4c3cccc4

> <scaffold>
chlorobenzene-linker

> <clash_score>
0.6532360200676584

> <docking_score>
-5.196829319000244

> <overlap_score>
0.8409225344657898

> <MMFF_internal_energy>
230.78253658986426

> <docked_smiles>
CC(=O)N1CC[NH+](CC1)[C@H](c2cccc(c2)Cl)C(=O)Nc3cncc4c3cccc4

$$$$
MAT-POS-afd4d4fd-1_1
  -OEChem-07262101023D

 37 39  0     0  0  0  0  0  0999 V2000
    4.8624    3.6148   19.7221 C   0  0  0  0  0  0  0  0  0  0  0  0
    5.5348    3.1330   20.8427 C   0  0  0  0  0  0  0  0  0  0  0  0
   11.9780    0.4600   23.9150 C   0  0  0  0  0  0  0  0  0  0  0  0
    4.7639    2.8279   18.5748 C   0  0  0  0  0  0  0  0  0  0  0  0
    6.1120    1.8621   20.8212 C   0  0  0  0  0  0  0  0  0  0  0  0
   10.6560    0.0720   23.7350 C   0  0  0  0  0  0  0  0  0  0  0  0
   12.9840   -0.1200   23.1530 C   0  0  0  0  0  0  0  0  0  0  0  0
    5.2724    0.7181   17.4208 C   0  0  0  0  0  0  0  0  0  0  0  0
    6.4587   -0.9561   18.4527 C   0  0  0  0  0  0  0  0  0  0  0  0
    5.3407    1.5475   18.5420 C   0  0  0  0  0  0  0  0  0  0  0  0
    6.0224    1.0562   19.6745 C   0  0  0  0  0  0  0  0  0  0  0  0
   10.3220   -0.8940   22.7910 C   0  0  0  0  0  0  0  0  0  0  0  0
   11.3360   -1.5050   22.0650 C   0  0  0  0  0  0  0  0  0  0  0  0
    6.5902   -0.2221   19.6216 C   0  0  0  0  0  0  0  0  0  0  0  0
   12.6400   -1.1000   22.2390 C   0  0  0  0  0  0  0  0  0  0  0  0
    8.3880   -0.3240   21.3070 C   0  0  0  0  0  0  0  0  0  0  0  0
   10.9880   -2.5995   21.1010 C   0  0  0  0  0  0  0  0  0  0  0  0
    8.8810   -1.1900   22.4510 C   0  0  0  0  0  0  0  0  0  0  0  0
    5.8141   -0.5188   17.3500 N   0  0  0  0  0  0  0  0  0  0  0  0
    7.2820   -0.7860   20.6970 N   0  0  0  0  0  0  0  0  0  0  0  0
    8.9170    0.7530   21.0260 O   0  0  0  0  0  0  0  0  0  0  0  0
   13.8840   -1.8490   21.2740 Cl  0  0  0  0  0  0  0  0  0  0  0  0
    4.4141    4.6038   19.7417 H   0  0  0  0  0  0  0  0  0  0  0  0
    5.6102    3.7474   21.7354 H   0  0  0  0  0  0  0  0  0  0  0  0
   12.2253    1.2198   24.6544 H   0  0  0  0  0  0  0  0  0  0  0  0
    4.2352    3.2195   17.7088 H   0  0  0  0  0  0  0  0  0  0  0  0
    6.6291    1.5215   21.7152 H   0  0  0  0  0  0  0  0  0  0  0  0
    9.8773    0.5359   24.3459 H   0  0  0  0  0  0  0  0  0  0  0  0
   14.0068    0.2005   23.2856 H   0  0  0  0  0  0  0  0  0  0  0  0
    4.7622    1.0349   16.5153 H   0  0  0  0  0  0  0  0  0  0  0  0
    6.8808   -1.9530   18.3618 H   0  0  0  0  0  0  0  0  0  0  0  0
   10.7854   -2.1785   20.1108 H   0  0  0  0  0  0  0  0  0  0  0  0
   11.8087   -3.3206   21.0163 H   0  0  0  0  0  0  0  0  0  0  0  0
   10.1045   -3.1548   21.4356 H   0  0  0  0  0  0  0  0  0  0  0  0
    8.7775   -2.2383   22.1732 H   0  0  0  0  0  0  0  0  0  0  0  0
    8.2557   -1.0153   23.3257 H   0  0  0  0  0  0  0  0  0  0  0  0
    6.8981   -1.6619   21.0675 H   0  0  0  0  0  0  0  0  0  0  0  0
  1  2  1  0  0  0  0
  1  4  2  0  0  0  0
  2  5  2  0  0  0  0
  3  6  1  0  0  0  0
  3  7  2  0  0  0  0
  4 10  1  0  0  0  0
  5 11  1  0  0  0  0
  6 12  2  0  0  0  0
  7 15  1  0  0  0  0
  8 10  2  0  0  0  0
  8 19  1  0  0  0  0
  9 14  1  0  0  0  0
  9 19  2  0  0  0  0
 10 11  1  0  0  0  0
 11 14  2  0  0  0  0
 12 13  1  0  0  0  0
 12 18  1  0  0  0  0
 13 15  2  0  0  0  0
 13 17  1  0  0  0  0
 14 20  1  0  0  0  0
 15 22  1  0  0  0  0
 16 18  1  0  0  0  0
 16 20  1  0  0  0  0
 16 21  2  0  0  0  0
  1 23  1  0  0  0  0
  2 24  1  0  0  0  0
  3 25  1  0  0  0  0
  4 26  1  0  0  0  0
  5 27  1  0  0  0  0
  6 28  1  0  0  0  0
  7 29  1  0  0  0  0
  8 30  1  0  0  0  0
  9 31  1  0  0  0  0
 17 32  1  0  0  0  0
 17 33  1  0  0  0  0
 17 34  1  0  0  0  0
 18 35  1  0  0  0  0
 18 36  1  0  0  0  0
 20 37  1  0  0  0  0
M  END
> <compound>
MAT-POS-afd4d4fd-1

> <compound_smiles>
Cc1c(cccc1Cl)CC(=O)Nc2cncc3c2cccc3

> <enantiomer_smiles>
Cc1c(cccc1Cl)CC(=O)Nc2cncc3c2cccc3

> <scaffold>
chlorobenzene-linker

> <clash_score>
0.6448568279069334

> <docking_score>
-5.070708751678467

> <overlap_score>
0.8517707586288452

> <MMFF_internal_energy>
109.06488207443546

> <docked_smiles>
Cc1c(cccc1Cl)CC(=O)Nc2cncc3c2cccc3

$$$$
MIC-UNK-6ab519a7-1_1
  -OEChem-07262101023D

 54 57  0     1  0  0  0  0  0999 V2000
    3.4588    2.5718   20.0554 C   0  0  0  0  0  0  0  0  0  0  0  0
    4.0835    2.0505   21.1859 C   0  0  0  0  0  0  0  0  0  0  0  0
   11.9780    0.4600   23.9150 C   0  0  0  0  0  0  0  0  0  0  0  0
    3.8711    2.1742   18.7837 C   0  0  0  0  0  0  0  0  0  0  0  0
    5.1234    1.1291   21.0499 C   0  0  0  0  0  0  0  0  0  0  0  0
   10.6560    0.0720   23.7350 C   0  0  0  0  0  0  0  0  0  0  0  0
   12.9840   -0.1200   23.1530 C   0  0  0  0  0  0  0  0  0  0  0  0
   11.3360   -1.5050   22.0650 C   0  0  0  0  0  0  0  0  0  0  0  0
    5.3689    0.8151   17.3870 C   0  0  0  0  0  0  0  0  0  0  0  0
    6.9552   -0.5603   18.3181 C   0  0  0  0  0  0  0  0  0  0  0  0
    4.9163    1.2476   18.6351 C   0  0  0  0  0  0  0  0  0  0  0  0
    5.5514    0.7175   19.7772 C   0  0  0  0  0  0  0  0  0  0  0  0
   10.3220   -0.8940   22.7910 C   0  0  0  0  0  0  0  0  0  0  0  0
    6.5908   -0.2044   19.6077 C   0  0  0  0  0  0  0  0  0  0  0  0
   12.6400   -1.1000   22.2390 C   0  0  0  0  0  0  0  0  0  0  0  0
   10.0549   -6.3970   20.9567 C   0  0  0  0  0  0  0  0  0  0  0  0
    8.3880   -0.3240   21.3070 C   0  0  0  0  0  0  0  0  0  0  0  0
    9.0070   -5.0039   22.7124 C   0  0  0  0  0  0  0  0  0  0  0  0
    8.6216   -4.3830   20.3588 C   0  0  0  0  0  0  0  0  0  0  0  0
    9.3715   -3.5664   23.0534 C   0  0  0  0  0  0  0  0  0  0  0  0
    8.9788   -2.9348   20.6651 C   0  0  0  0  0  0  0  0  0  0  0  0
   10.8601   -6.2818   19.6870 C   0  0  0  0  0  0  0  0  0  0  0  0
    8.8810   -1.1900   22.4510 C   0  0  1  0  0  0  0  0  0  0  0  0
    6.3708   -0.0740   17.2025 N   0  0  0  0  0  0  0  0  0  0  0  0
    9.2756   -5.2944   21.3040 N   0  0  0  0  0  0  0  0  0  0  0  0
    7.2820   -0.7860   20.6970 N   0  0  0  0  0  0  0  0  0  0  0  0
    8.6433   -2.6361   22.1092 N   0  3  0  0  0  0  0  0  0  0  0  0
   10.1200   -7.4353   21.6198 O   0  0  0  0  0  0  0  0  0  0  0  0
    8.9170    0.7530   21.0260 O   0  0  0  0  0  0  0  0  0  0  0  0
   13.8840   -1.8490   21.2740 Cl  0  0  0  0  0  0  0  0  0  0  0  0
    2.6499    3.2883   20.1641 H   0  0  0  0  0  0  0  0  0  0  0  0
    3.7607    2.3613   22.1754 H   0  0  0  0  0  0  0  0  0  0  0  0
   12.2249    1.2198   24.6546 H   0  0  0  0  0  0  0  0  0  0  0  0
    3.3723    2.5910   17.9118 H   0  0  0  0  0  0  0  0  0  0  0  0
    5.5866    0.7453   21.9560 H   0  0  0  0  0  0  0  0  0  0  0  0
    9.8763    0.5350   24.3454 H   0  0  0  0  0  0  0  0  0  0  0  0
   14.0077    0.1988   23.2842 H   0  0  0  0  0  0  0  0  0  0  0  0
   11.0892   -2.3009   21.3624 H   0  0  0  0  0  0  0  0  0  0  0  0
    4.9234    1.1835   16.4670 H   0  0  0  0  0  0  0  0  0  0  0  0
    7.7549   -1.2720   18.1337 H   0  0  0  0  0  0  0  0  0  0  0  0
    9.5635   -5.6862   23.3626 H   0  0  0  0  0  0  0  0  0  0  0  0
    7.9398   -5.1861   22.8884 H   0  0  0  0  0  0  0  0  0  0  0  0
    7.5401   -4.5410   20.4502 H   0  0  0  0  0  0  0  0  0  0  0  0
    8.8907   -4.6064   19.3251 H   0  0  0  0  0  0  0  0  0  0  0  0
    9.0502   -3.3169   24.0698 H   0  0  0  0  0  0  0  0  0  0  0  0
   10.4461   -3.3790   22.9490 H   0  0  0  0  0  0  0  0  0  0  0  0
   10.0464   -2.7357   20.5193 H   0  0  0  0  0  0  0  0  0  0  0  0
    8.3881   -2.2524   20.0453 H   0  0  0  0  0  0  0  0  0  0  0  0
   11.8351   -5.8674   19.9214 H   0  0  0  0  0  0  0  0  0  0  0  0
   10.3379   -5.6313   18.9927 H   0  0  0  0  0  0  0  0  0  0  0  0
   10.9720   -7.2674   19.2469 H   0  0  0  0  0  0  0  0  0  0  0  0
    8.2445   -1.0188   23.3300 H   0  0  0  0  0  0  0  0  0  0  0  0
    6.8974   -1.6551   21.0612 H   0  0  0  0  0  0  0  0  0  0  0  0
    7.6346   -2.8016   22.2306 H   0  0  0  0  0  0  0  0  0  0  0  0
  1  2  1  0  0  0  0
  1  4  2  0  0  0  0
  2  5  2  0  0  0  0
  3  6  2  0  0  0  0
  3  7  1  0  0  0  0
  4 11  1  0  0  0  0
  5 12  1  0  0  0  0
  6 13  1  0  0  0  0
  7 15  2  0  0  0  0
  8 13  2  0  0  0  0
  8 15  1  0  0  0  0
  9 11  2  0  0  0  0
  9 24  1  0  0  0  0
 10 14  1  0  0  0  0
 10 24  2  0  0  0  0
 11 12  1  0  0  0  0
 12 14  2  0  0  0  0
 13 23  1  0  0  0  0
 14 26  1  0  0  0  0
 15 30  1  0  0  0  0
 16 22  1  0  0  0  0
 16 25  1  0  0  0  0
 16 28  2  0  0  0  0
 17 23  1  1  0  0  0
 17 26  1  0  0  0  0
 17 29  2  0  0  0  0
 18 20  1  0  0  0  0
 18 25  1  0  0  0  0
 19 21  1  0  0  0  0
 19 25  1  0  0  0  0
 20 27  1  0  0  0  0
 21 27  1  0  0  0  0
 23 27  1  0  0  0  0
  1 31  1  0  0  0  0
  2 32  1  0  0  0  0
  3 33  1  0  0  0  0
  4 34  1  0  0  0  0
  5 35  1  0  0  0  0
  6 36  1  0  0  0  0
  7 37  1  0  0  0  0
  8 38  1  0  0  0  0
  9 39  1  0  0  0  0
 10 40  1  0  0  0  0
 18 41  1  0  0  0  0
 18 42  1  0  0  0  0
 19 43  1  0  0  0  0
 19 44  1  0  0  0  0
 20 45  1  0  0  0  0
 20 46  1  0  0  0  0
 21 47  1  0  0  0  0
 21 48  1  0  0  0  0
 22 49  1  0  0  0  0
 22 50  1  0  0  0  0
 22 51  1  0  0  0  0
 23 52  1  0  0  0  0
 26 53  1  0  0  0  0
 27 54  1  0  0  0  0
M  CHG  1  27   1
M  END
> <compound>
MIC-UNK-6ab519a7-1

> <compound_smiles>
CC(=O)N1CCN(CC1)C(c2cccc(c2)Cl)C(=O)Nc3cncc4c3cccc4

> <enantiomer_smiles>
CC(=O)N1CCN(CC1)[C@@H](c2cccc(c2)Cl)C(=O)Nc3cncc4c3cccc4

> <scaffold>
chlorobenzene-linker

> <clash_score>
4.8796285249287905

> <docking_score>
-3.913654327392578

> <overlap_score>
0.9816785454750061

> <MMFF_internal_energy>
263.5182084982723

> <docked_smiles>
CC(=O)N1CC[NH+](CC1)[C@@H](c2cccc(c2)Cl)C(=O)Nc3cncc4c3cccc4

$$$$
MAT-POS-14ad9fe9-1_1
  -OEChem-07262101023D

 37 39  0     0  0  0  0  0  0999 V2000
   11.9780    0.4600   23.9150 C   0  0  0  0  0  0  0  0  0  0  0  0
   10.6560    0.0720   23.7350 C   0  0  0  0  0  0  0  0  0  0  0  0
   12.9840   -0.1200   23.1530 C   0  0  0  0  0  0  0  0  0  0  0  0
   11.3360   -1.5050   22.0650 C   0  0  0  0  0  0  0  0  0  0  0  0
    5.2725    0.7504   17.4444 C   0  0  0  0  0  0  0  0  0  0  0  0
    6.4507   -0.9459   18.4502 C   0  0  0  0  0  0  0  0  0  0  0  0
    6.0213    1.0499   19.6847 C   0  0  0  0  0  0  0  0  0  0  0  0
   10.3220   -0.8940   22.7910 C   0  0  0  0  0  0  0  0  0  0  0  0
    5.3606    1.5740   18.5625 C   0  0  0  0  0  0  0  0  0  0  0  0
    6.5902   -0.2241   19.6232 C   0  0  0  0  0  0  0  0  0  0  0  0
   12.6400   -1.1000   22.2390 C   0  0  0  0  0  0  0  0  0  0  0  0
    8.3880   -0.3240   21.3070 C   0  0  0  0  0  0  0  0  0  0  0  0
    6.1558    1.8787   20.9369 C   0  0  0  0  0  0  0  0  0  0  0  0
    5.0826    2.9657   21.0008 C   0  0  0  0  0  0  0  0  0  0  0  0
    5.0127    3.7333   19.6846 C   0  0  0  0  0  0  0  0  0  0  0  0
    8.8810   -1.1900   22.4510 C   0  0  0  0  0  0  0  0  0  0  0  0
    5.8006   -0.4924   17.3581 N   0  0  0  0  0  0  0  0  0  0  0  0
    4.7769    2.8291   18.5751 N   0  0  0  0  0  0  0  0  0  0  0  0
    7.2820   -0.7860   20.6970 N   0  0  0  0  0  0  0  0  0  0  0  0
    8.9170    0.7530   21.0260 O   0  0  0  0  0  0  0  0  0  0  0  0
   13.8840   -1.8490   21.2740 Cl  0  0  0  0  0  0  0  0  0  0  0  0
   12.2249    1.2198   24.6546 H   0  0  0  0  0  0  0  0  0  0  0  0
    9.8763    0.5350   24.3454 H   0  0  0  0  0  0  0  0  0  0  0  0
   14.0077    0.1988   23.2842 H   0  0  0  0  0  0  0  0  0  0  0  0
   11.0892   -2.3008   21.3624 H   0  0  0  0  0  0  0  0  0  0  0  0
    4.7498    1.0770   16.5497 H   0  0  0  0  0  0  0  0  0  0  0  0
    6.8688   -1.9428   18.3457 H   0  0  0  0  0  0  0  0  0  0  0  0
    6.0650    1.2160   21.8063 H   0  0  0  0  0  0  0  0  0  0  0  0
    7.1366    2.3655   20.9821 H   0  0  0  0  0  0  0  0  0  0  0  0
    4.1101    2.5129   21.2245 H   0  0  0  0  0  0  0  0  0  0  0  0
    5.3052    3.6636   21.8187 H   0  0  0  0  0  0  0  0  0  0  0  0
    4.2070    4.4759   19.7242 H   0  0  0  0  0  0  0  0  0  0  0  0
    5.9489    4.2761   19.5170 H   0  0  0  0  0  0  0  0  0  0  0  0
    8.7774   -2.2383   22.1732 H   0  0  0  0  0  0  0  0  0  0  0  0
    8.2557   -1.0153   23.3257 H   0  0  0  0  0  0  0  0  0  0  0  0
    4.0204    3.0276   17.9309 H   0  0  0  0  0  0  0  0  0  0  0  0
    6.8983   -1.6627   21.0682 H   0  0  0  0  0  0  0  0  0  0  0  0
  1  2  1  0  0  0  0
  1  3  2  0  0  0  0
  2  8  2  0  0  0  0
  3 11  1  0  0  0  0
  4  8  1  0  0  0  0
  4 11  2  0  0  0  0
  5  9  2  0  0  0  0
  5 17  1  0  0  0  0
  6 10  1  0  0  0  0
  6 17  2  0  0  0  0
  7  9  1  0  0  0  0
  7 10  2  0  0  0  0
  7 13  1  0  0  0  0
  8 16  1  0  0  0  0
  9 18  1  0  0  0  0
 10 19  1  0  0  0  0
 11 21  1  0  0  0  0
 12 16  1  0  0  0  0
 12 19  1  0  0  0  0
 12 20  2  0  0  0  0
 13 14  1  0  0  0  0
 14 15  1  0  0  0  0
 15 18  1  0  0  0  0
  1 22  1  0  0  0  0
  2 23  1  0  0  0  0
  3 24  1  0  0  0  0
  4 25  1  0  0  0  0
  5 26  1  0  0  0  0
  6 27  1  0  0  0  0
 13 28  1  0  0  0  0
 13 29  1  0  0  0  0
 14 30  1  0  0  0  0
 14 31  1  0  0  0  0
 15 32  1  0  0  0  0
 15 33  1  0  0  0  0
 16 34  1  0  0  0  0
 16 35  1  0  0  0  0
 18 36  1  0  0  0  0
 19 37  1  0  0  0  0
M  END
> <compound>
MAT-POS-14ad9fe9-1

> <compound_smiles>
c1cc(cc(c1)Cl)CC(=O)Nc2cncc3c2CCCN3

> <enantiomer_smiles>
c1cc(cc(c1)Cl)CC(=O)Nc2cncc3c2CCCN3

> <scaffold>
chlorobenzene-linker

> <canonical_CID>
MAT-POS-14ad9fe9-1

> <r_inhibition_at_20_uM>

> <r_inhibition_at_50_uM>

> <r_avg_IC50>
4.03950730516133

> <f_inhibition_at_20_uM>

> <f_inhibition_at_50_uM>

> <f_avg_IC50>
7.27197662949492

> <f_avg_pIC50>

> <relative_solubility_at_20_uM>

> <relative_solubility_at_100_uM>

> <trypsin_IC50>

> <NMR_std_ratio>

> <acrylamide>
False

> <chloroacetamide>
False

> <series>
3-aminopyridine-like

> <frag_id>

> <clash_score>
0.6826241196356383

> <docking_score>
-6.577842712402344

> <overlap_score>
0.8442780375480652

> <MMFF_internal_energy>
86.3534760781835

> <docked_smiles>
c1cc(cc(c1)Cl)CC(=O)Nc2cncc3c2CCCN3

$$$$
MAT-POS-bfb445d4-2_1
  -OEChem-07262101023D

 31 33  0     0  0  0  0  0  0999 V2000
    3.5133    2.3986   19.4106 C   0  0  0  0  0  0  0  0  0  0  0  0
    3.9319    2.0971   20.7101 C   0  0  0  0  0  0  0  0  0  0  0  0
   11.9780    0.4600   23.9150 C   0  0  0  0  0  0  0  0  0  0  0  0
   10.6560    0.0720   23.7350 C   0  0  0  0  0  0  0  0  0  0  0  0
    4.1324    1.8152   18.2973 C   0  0  0  0  0  0  0  0  0  0  0  0
    4.9823    1.2034   20.9473 C   0  0  0  0  0  0  0  0  0  0  0  0
   12.9840   -0.1200   23.1530 C   0  0  0  0  0  0  0  0  0  0  0  0
   11.3360   -1.5050   22.0650 C   0  0  0  0  0  0  0  0  0  0  0  0
   10.3220   -0.8940   22.7910 C   0  0  0  0  0  0  0  0  0  0  0  0
    5.1866    0.9178   18.5214 C   0  0  0  0  0  0  0  0  0  0  0  0
    5.5799    0.6380   19.8229 C   0  0  0  0  0  0  0  0  0  0  0  0
   12.6400   -1.1000   22.2390 C   0  0  0  0  0  0  0  0  0  0  0  0
    8.3880   -0.3240   21.3070 C   0  0  0  0  0  0  0  0  0  0  0  0
    8.8810   -1.1900   22.4510 C   0  0  0  0  0  0  0  0  0  0  0  0
    5.9664    0.2068   17.6479 N   0  0  0  0  0  0  0  0  0  0  0  0
    6.8333   -0.5075   18.3575 N   0  0  0  0  0  0  0  0  0  0  0  0
    6.6029   -0.2501   19.6557 N   0  0  0  0  0  0  0  0  0  0  0  0
    7.2820   -0.7860   20.6970 N   0  0  0  0  0  0  0  0  0  0  0  0
    8.9170    0.7530   21.0260 O   0  0  0  0  0  0  0  0  0  0  0  0
   13.8840   -1.8490   21.2740 Cl  0  0  0  0  0  0  0  0  0  0  0  0
    2.6939    3.0974   19.2604 H   0  0  0  0  0  0  0  0  0  0  0  0
    3.4319    2.5658   21.5544 H   0  0  0  0  0  0  0  0  0  0  0  0
   12.2249    1.2198   24.6546 H   0  0  0  0  0  0  0  0  0  0  0  0
    9.8763    0.5350   24.3454 H   0  0  0  0  0  0  0  0  0  0  0  0
    3.8009    2.0553   17.2924 H   0  0  0  0  0  0  0  0  0  0  0  0
    5.3064    0.9701   21.9550 H   0  0  0  0  0  0  0  0  0  0  0  0
   14.0077    0.1988   23.2842 H   0  0  0  0  0  0  0  0  0  0  0  0
   11.0892   -2.3008   21.3624 H   0  0  0  0  0  0  0  0  0  0  0  0
    8.2520   -1.0134   23.3227 H   0  0  0  0  0  0  0  0  0  0  0  0
    8.7794   -2.2394   22.1763 H   0  0  0  0  0  0  0  0  0  0  0  0
    6.8840   -1.7035   21.0887 H   0  0  0  0  0  0  0  0  0  0  0  0
  1  2  1  0  0  0  0
  1  5  2  0  0  0  0
  2  6  2  0  0  0  0
  3  4  2  0  0  0  0
  3  7  1  0  0  0  0
  4  9  1  0  0  0  0
  5 10  1  0  0  0  0
  6 11  1  0  0  0  0
  7 12  2  0  0  0  0
  8  9  2  0  0  0  0
  8 12  1  0  0  0  0
  9 14  1  0  0  0  0
 10 11  2  0  0  0  0
 10 15  1  0  0  0  0
 11 17  1  0  0  0  0
 12 20  1  0  0  0  0
 13 14  1  0  0  0  0
 13 18  1  0  0  0  0
 13 19  2  0  0  0  0
 15 16  2  0  0  0  0
 16 17  1  0  0  0  0
 17 18  1  0  0  0  0
  1 21  1  0  0  0  0
  2 22  1  0  0  0  0
  3 23  1  0  0  0  0
  4 24  1  0  0  0  0
  5 25  1  0  0  0  0
  6 26  1  0  0  0  0
  7 27  1  0  0  0  0
  8 28  1  0  0  0  0
 14 29  1  0  0  0  0
 14 30  1  0  0  0  0
 18 31  1  0  0  0  0
M  END
> <compound>
MAT-POS-bfb445d4-2

> <compound_smiles>
c1ccc2c(c1)nnn2NC(=O)Cc3cccc(c3)Cl

> <enantiomer_smiles>
c1ccc2c(c1)nnn2NC(=O)Cc3cccc(c3)Cl

> <scaffold>
chlorobenzene-linker

> <canonical_CID>
MAT-POS-bfb445d4-2

> <r_inhibition_at_20_uM>

> <r_inhibition_at_50_uM>

> <r_avg_IC50>
31.0430348120063

> <f_inhibition_at_20_uM>

> <f_inhibition_at_50_uM>

> <f_avg_IC50>
5.80242437708152

> <f_avg_pIC50>

> <relative_solubility_at_20_uM>

> <relative_solubility_at_100_uM>

> <trypsin_IC50>

> <NMR_std_ratio>

> <acrylamide>
False

> <chloroacetamide>
False

> <series>
3-aminopyridine-like

> <frag_id>
x11789

> <clash_score>
0

> <docking_score>
-8.586787223815918

> <overlap_score>
0.9577213525772095

> <MMFF_internal_energy>
14.39025485831382

> <docked_smiles>
c1ccc2c(c1)nnn2NC(=O)Cc3cccc(c3)Cl

$$$$
MAT-POS-afd4d4fd-3_1
  -OEChem-07262101023D

 34 36  0     0  0  0  0  0  0999 V2000
    4.8624    3.6148   19.7221 C   0  0  0  0  0  0  0  0  0  0  0  0
    5.5348    3.1330   20.8427 C   0  0  0  0  0  0  0  0  0  0  0  0
   11.9780    0.4600   23.9150 C   0  0  0  0  0  0  0  0  0  0  0  0
    4.7639    2.8279   18.5748 C   0  0  0  0  0  0  0  0  0  0  0  0
    6.1120    1.8621   20.8212 C   0  0  0  0  0  0  0  0  0  0  0  0
   10.6560    0.0720   23.7350 C   0  0  0  0  0  0  0  0  0  0  0  0
   12.9840   -0.1200   23.1530 C   0  0  0  0  0  0  0  0  0  0  0  0
    5.2724    0.7181   17.4208 C   0  0  0  0  0  0  0  0  0  0  0  0
    6.4587   -0.9561   18.4527 C   0  0  0  0  0  0  0  0  0  0  0  0
    5.3407    1.5475   18.5420 C   0  0  0  0  0  0  0  0  0  0  0  0
    6.0224    1.0562   19.6745 C   0  0  0  0  0  0  0  0  0  0  0  0
   10.3220   -0.8940   22.7910 C   0  0  0  0  0  0  0  0  0  0  0  0
    6.5902   -0.2221   19.6216 C   0  0  0  0  0  0  0  0  0  0  0  0
   12.6400   -1.1000   22.2390 C   0  0  0  0  0  0  0  0  0  0  0  0
   11.3360   -1.5050   22.0650 C   0  0  0  0  0  0  0  0  0  0  0  0
    8.3880   -0.3240   21.3070 C   0  0  0  0  0  0  0  0  0  0  0  0
    8.8810   -1.1900   22.4510 C   0  0  0  0  0  0  0  0  0  0  0  0
    5.8141   -0.5188   17.3500 N   0  0  0  0  0  0  0  0  0  0  0  0
    7.2820   -0.7860   20.6970 N   0  0  0  0  0  0  0  0  0  0  0  0
    8.9170    0.7530   21.0260 O   0  0  0  0  0  0  0  0  0  0  0  0
   13.8840   -1.8490   21.2740 Cl  0  0  0  0  0  0  0  0  0  0  0  0
   10.9282   -2.7729   20.9493 Cl  0  0  0  0  0  0  0  0  0  0  0  0
    4.4141    4.6038   19.7417 H   0  0  0  0  0  0  0  0  0  0  0  0
    5.6102    3.7474   21.7354 H   0  0  0  0  0  0  0  0  0  0  0  0
   12.2252    1.2192   24.6548 H   0  0  0  0  0  0  0  0  0  0  0  0
    4.2352    3.2195   17.7088 H   0  0  0  0  0  0  0  0  0  0  0  0
    6.6291    1.5215   21.7152 H   0  0  0  0  0  0  0  0  0  0  0  0
    9.8781    0.5363   24.3467 H   0  0  0  0  0  0  0  0  0  0  0  0
   14.0066    0.2014   23.2870 H   0  0  0  0  0  0  0  0  0  0  0  0
    4.7622    1.0349   16.5153 H   0  0  0  0  0  0  0  0  0  0  0  0
    6.8808   -1.9530   18.3618 H   0  0  0  0  0  0  0  0  0  0  0  0
    8.7775   -2.2383   22.1732 H   0  0  0  0  0  0  0  0  0  0  0  0
    8.2557   -1.0153   23.3257 H   0  0  0  0  0  0  0  0  0  0  0  0
    6.8981   -1.6619   21.0675 H   0  0  0  0  0  0  0  0  0  0  0  0
  1  2  1  0  0  0  0
  1  4  2  0  0  0  0
  2  5  2  0  0  0  0
  3  6  2  0  0  0  0
  3  7  1  0  0  0  0
  4 10  1  0  0  0  0
  5 11  1  0  0  0  0
  6 12  1  0  0  0  0
  7 14  2  0  0  0  0
  8 10  2  0  0  0  0
  8 18  1  0  0  0  0
  9 13  1  0  0  0  0
  9 18  2  0  0  0  0
 10 11  1  0  0  0  0
 11 13  2  0  0  0  0
 12 15  2  0  0  0  0
 12 17  1  0  0  0  0
 13 19  1  0  0  0  0
 14 15  1  0  0  0  0
 14 21  1  0  0  0  0
 15 22  1  0  0  0  0
 16 17  1  0  0  0  0
 16 19  1  0  0  0  0
 16 20  2  0  0  0  0
  1 23  1  0  0  0  0
  2 24  1  0  0  0  0
  3 25  1  0  0  0  0
  4 26  1  0  0  0  0
  5 27  1  0  0  0  0
  6 28  1  0  0  0  0
  7 29  1  0  0  0  0
  8 30  1  0  0  0  0
  9 31  1  0  0  0  0
 17 32  1  0  0  0  0
 17 33  1  0  0  0  0
 19 34  1  0  0  0  0
M  END
> <compound>
MAT-POS-afd4d4fd-3

> <compound_smiles>
c1ccc2c(c1)cncc2NC(=O)Cc3cccc(c3Cl)Cl

> <enantiomer_smiles>
c1ccc2c(c1)cncc2NC(=O)Cc3cccc(c3Cl)Cl

> <scaffold>
chlorobenzene-linker

> <clash_score>
0.6448568279069334

> <docking_score>
-5.04451847076416

> <overlap_score>
0.8482655882835388

> <MMFF_internal_energy>
104.18765446793162

> <docked_smiles>
c1ccc2c(c1)cncc2NC(=O)Cc3cccc(c3Cl)Cl

$$$$
MAT-POS-500ca5bf-2_1
  -OEChem-07262101023D

 30 31  0     1  0  0  0  0  0999 V2000
   11.9780    0.4600   23.9150 C   0  0  0  0  0  0  0  0  0  0  0  0
   10.6560    0.0720   23.7350 C   0  0  0  0  0  0  0  0  0  0  0  0
   12.9840   -0.1200   23.1530 C   0  0  0  0  0  0  0  0  0  0  0  0
   11.3360   -1.5050   22.0650 C   0  0  0  0  0  0  0  0  0  0  0  0
   10.3220   -0.8940   22.7910 C   0  0  0  0  0  0  0  0  0  0  0  0
   12.6400   -1.1000   22.2390 C   0  0  0  0  0  0  0  0  0  0  0  0
    5.3963   -0.8530   19.1921 C   0  0  0  0  0  0  0  0  0  0  0  0
    8.3880   -0.3240   21.3070 C   0  0  0  0  0  0  0  0  0  0  0  0
    7.4311    0.0805   18.3817 C   0  0  0  0  0  0  0  0  0  0  0  0
    6.3768    0.1410   17.2937 C   0  0  0  0  0  0  0  0  0  0  0  0
    6.6073   -0.0710   19.6579 C   0  0  1  0  0  0  0  0  0  0  0  0
    8.8810   -1.1900   22.4510 C   0  0  0  0  0  0  0  0  0  0  0  0
    5.3164   -0.6795   17.8118 N   0  0  0  0  0  0  0  0  0  0  0  0
    7.2820   -0.7860   20.6970 N   0  0  0  0  0  0  0  0  0  0  0  0
    4.6198   -1.4738   19.9014 O   0  0  0  0  0  0  0  0  0  0  0  0
    8.9170    0.7530   21.0260 O   0  0  0  0  0  0  0  0  0  0  0  0
   13.8840   -1.8490   21.2740 Cl  0  0  0  0  0  0  0  0  0  0  0  0
   12.2249    1.2198   24.6546 H   0  0  0  0  0  0  0  0  0  0  0  0
    9.8763    0.5350   24.3454 H   0  0  0  0  0  0  0  0  0  0  0  0
   14.0077    0.1988   23.2842 H   0  0  0  0  0  0  0  0  0  0  0  0
   11.0892   -2.3009   21.3624 H   0  0  0  0  0  0  0  0  0  0  0  0
    8.0743   -0.7942   18.2201 H   0  0  0  0  0  0  0  0  0  0  0  0
    8.0655    0.9716   18.4000 H   0  0  0  0  0  0  0  0  0  0  0  0
    5.9867    1.1542   17.1550 H   0  0  0  0  0  0  0  0  0  0  0  0
    6.7263   -0.2563   16.3377 H   0  0  0  0  0  0  0  0  0  0  0  0
    6.2788    0.8965   20.0455 H   0  0  0  0  0  0  0  0  0  0  0  0
    8.7773   -2.2383   22.1737 H   0  0  0  0  0  0  0  0  0  0  0  0
    8.2516   -1.0144   23.3225 H   0  0  0  0  0  0  0  0  0  0  0  0
    4.5881   -1.0883   17.2347 H   0  0  0  0  0  0  0  0  0  0  0  0
    6.9059   -1.6905   20.9896 H   0  0  0  0  0  0  0  0  0  0  0  0
  1  2  1  0  0  0  0
  1  3  2  0  0  0  0
  2  5  2  0  0  0  0
  3  6  1  0  0  0  0
  4  5  1  0  0  0  0
  4  6  2  0  0  0  0
  5 12  1  0  0  0  0
  6 17  1  0  0  0  0
  7 11  1  0  0  0  0
  7 13  1  0  0  0  0
  7 15  2  0  0  0  0
  8 12  1  0  0  0  0
  8 14  1  0  0  0  0
  8 16  2  0  0  0  0
  9 10  1  0  0  0  0
  9 11  1  0  0  0  0
 10 13  1  0  0  0  0
 11 14  1  0  0  0  0
  1 18  1  0  0  0  0
  2 19  1  0  0  0  0
  3 20  1  0  0  0  0
  4 21  1  0  0  0  0
  9 22  1  0  0  0  0
  9 23  1  0  0  0  0
 10 24  1  0  0  0  0
 10 25  1  0  0  0  0
 11 26  1  0  0  0  0
 12 27  1  0  0  0  0
 12 28  1  0  0  0  0
 13 29  1  0  0  0  0
 14 30  1  0  0  0  0
M  END
> <compound>
MAT-POS-500ca5bf-2

> <compound_smiles>
c1cc(cc(c1)Cl)CC(=O)N[C@H]2CCNC2=O

> <enantiomer_smiles>
c1cc(cc(c1)Cl)CC(=O)N[C@H]2CCNC2=O

> <scaffold>
chlorobenzene-linker

> <canonical_CID>
MAT-POS-500ca5bf-2

> <r_inhibition_at_20_uM>

> <r_inhibition_at_50_uM>

> <r_avg_IC50>
99.0

> <f_inhibition_at_20_uM>

> <f_inhibition_at_50_uM>

> <f_avg_IC50>

> <f_avg_pIC50>

> <relative_solubility_at_20_uM>

> <relative_solubility_at_100_uM>

> <trypsin_IC50>

> <NMR_std_ratio>

> <acrylamide>
False

> <chloroacetamide>
False

> <series>
Ugi

> <frag_id>

> <clash_score>
0

> <docking_score>
-5.5197978019714355

> <overlap_score>
0.709894597530365

> <MMFF_internal_energy>
25.29359246384863

> <docked_smiles>
c1cc(cc(c1)Cl)CC(=O)N[C@H]2CCNC2=O

$$$$
MIC-UNK-13557a72-1_1
  -OEChem-07262101023D

 39 41  0     1  0  0  0  0  0999 V2000
   11.9780    0.4600   23.9150 C   0  0  0  0  0  0  0  0  0  0  0  0
   10.6560    0.0720   23.7350 C   0  0  0  0  0  0  0  0  0  0  0  0
   12.9840   -0.1200   23.1530 C   0  0  0  0  0  0  0  0  0  0  0  0
   11.3360   -1.5050   22.0650 C   0  0  0  0  0  0  0  0  0  0  0  0
   10.3220   -0.8940   22.7910 C   0  0  0  0  0  0  0  0  0  0  0  0
   12.6400   -1.1000   22.2390 C   0  0  0  0  0  0  0  0  0  0  0  0
    8.3880   -0.3240   21.3070 C   0  0  0  0  0  0  0  0  0  0  0  0
    4.7427   -1.7219   19.2739 C   0  0  0  0  0  0  0  0  0  0  0  0
    5.3894   -0.1279   17.4826 C   0  0  0  0  0  0  0  0  0  0  0  0
    3.7353   -0.7086   19.8169 C   0  0  0  0  0  0  0  0  0  0  0  0
    4.3941    0.8985   18.0288 C   0  0  0  0  0  0  0  0  0  0  0  0
    5.5758    0.9173   20.2296 C   0  0  0  0  0  0  0  0  0  0  0  0
    5.9404   -1.0010   18.6257 C   0  0  0  0  0  0  0  0  0  0  0  0
    6.6089   -0.0564   19.6494 C   0  0  2  0  0  0  0  0  0  0  0  0
    8.8810   -1.1900   22.4510 C   0  0  0  0  0  0  0  0  0  0  0  0
    7.2820   -0.7860   20.6970 N   0  0  0  0  0  0  0  0  0  0  0  0
    4.2538    0.6829   19.5226 N   0  3  0  0  0  0  0  0  0  0  0  0
    8.9170    0.7530   21.0260 O   0  0  0  0  0  0  0  0  0  0  0  0
   13.8840   -1.8490   21.2740 Cl  0  0  0  0  0  0  0  0  0  0  0  0
   12.2249    1.2198   24.6546 H   0  0  0  0  0  0  0  0  0  0  0  0
    9.8763    0.5350   24.3454 H   0  0  0  0  0  0  0  0  0  0  0  0
   14.0077    0.1988   23.2842 H   0  0  0  0  0  0  0  0  0  0  0  0
   11.0892   -2.3008   21.3624 H   0  0  0  0  0  0  0  0  0  0  0  0
    5.0851   -2.3746   20.0854 H   0  0  0  0  0  0  0  0  0  0  0  0
    4.2530   -2.3702   18.5372 H   0  0  0  0  0  0  0  0  0  0  0  0
    4.8973   -0.7576   16.7317 H   0  0  0  0  0  0  0  0  0  0  0  0
    6.2110    0.3886   16.9720 H   0  0  0  0  0  0  0  0  0  0  0  0
    2.7555   -0.8027   19.3376 H   0  0  0  0  0  0  0  0  0  0  0  0
    3.6083   -0.7912   20.9013 H   0  0  0  0  0  0  0  0  0  0  0  0
    4.7362    1.9273   17.8769 H   0  0  0  0  0  0  0  0  0  0  0  0
    3.3995    0.7858   17.5853 H   0  0  0  0  0  0  0  0  0  0  0  0
    5.3925    0.7767   21.3008 H   0  0  0  0  0  0  0  0  0  0  0  0
    5.8564    1.9621   20.0589 H   0  0  0  0  0  0  0  0  0  0  0  0
    6.6596   -1.7262   18.2285 H   0  0  0  0  0  0  0  0  0  0  0  0
    7.3961    0.5180   19.1455 H   0  0  0  0  0  0  0  0  0  0  0  0
    8.7773   -2.2383   22.1737 H   0  0  0  0  0  0  0  0  0  0  0  0
    8.2516   -1.0144   23.3225 H   0  0  0  0  0  0  0  0  0  0  0  0
    6.9052   -1.6847   20.9852 H   0  0  0  0  0  0  0  0  0  0  0  0
    3.5717    1.3634   19.8836 H   0  0  0  0  0  0  0  0  0  0  0  0
  1  2  1  0  0  0  0
  1  3  2  0  0  0  0
  2  5  2  0  0  0  0
  3  6  1  0  0  0  0
  4  5  1  0  0  0  0
  4  6  2  0  0  0  0
  5 15  1  0  0  0  0
  6 19  1  0  0  0  0
  7 15  1  0  0  0  0
  7 16  1  0  0  0  0
  7 18  2  0  0  0  0
  8 10  1  0  0  0  0
  8 13  1  0  0  0  0
  9 11  1  0  0  0  0
  9 13  1  0  0  0  0
 10 17  1  0  0  0  0
 11 17  1  0  0  0  0
 12 14  1  0  0  0  0
 12 17  1  0  0  0  0
 13 14  1  0  0  0  0
 14 16  1  1  0  0  0
  1 20  1  0  0  0  0
  2 21  1  0  0  0  0
  3 22  1  0  0  0  0
  4 23  1  0  0  0  0
  8 24  1  0  0  0  0
  8 25  1  0  0  0  0
  9 26  1  0  0  0  0
  9 27  1  0  0  0  0
 10 28  1  0  0  0  0
 10 29  1  0  0  0  0
 11 30  1  0  0  0  0
 11 31  1  0  0  0  0
 12 32  1  0  0  0  0
 12 33  1  0  0  0  0
 13 34  1  0  0  0  0
 14 35  1  0  0  0  0
 15 36  1  0  0  0  0
 15 37  1  0  0  0  0
 16 38  1  0  0  0  0
 17 39  1  0  0  0  0
M  CHG  1  17   1
M  END
> <compound>
MIC-UNK-13557a72-1

> <compound_smiles>
c1cc(cc(c1)Cl)CC(=O)NC2CN3CCC2CC3

> <enantiomer_smiles>
c1cc(cc(c1)Cl)CC(=O)N[C@@H]2CN3CCC2CC3

> <scaffold>
chlorobenzene-linker

> <clash_score>
1.3599179146651812

> <docking_score>
-2.689478635787964

> <overlap_score>
0.7862191796302795

> <MMFF_internal_energy>
68.15358896019698

> <docked_smiles>
c1cc(cc(c1)Cl)CC(=O)N[C@@H]2C[NH+]3CCC2CC3

$$$$
VLA-UCB-05e51b3f-2_1
  -OEChem-07262101023D

 51 53  0     1  0  0  0  0  0999 V2000
   11.9780    0.4600   23.9150 C   0  0  0  0  0  0  0  0  0  0  0  0
   10.6560    0.0720   23.7350 C   0  0  0  0  0  0  0  0  0  0  0  0
   12.9840   -0.1200   23.1530 C   0  0  0  0  0  0  0  0  0  0  0  0
    5.3703    1.5988   18.5865 C   0  0  0  0  0  0  0  0  0  0  0  0
   11.3360   -1.5050   22.0650 C   0  0  0  0  0  0  0  0  0  0  0  0
    5.2777    0.8183   17.4454 C   0  0  0  0  0  0  0  0  0  0  0  0
    6.4434   -0.9043   18.4210 C   0  0  0  0  0  0  0  0  0  0  0  0
   10.3220   -0.8940   22.7910 C   0  0  0  0  0  0  0  0  0  0  0  0
    6.0409    1.0704   19.6838 C   0  0  0  0  0  0  0  0  0  0  0  0
    6.5908   -0.2044   19.6077 C   0  0  0  0  0  0  0  0  0  0  0  0
   12.6400   -1.1000   22.2390 C   0  0  0  0  0  0  0  0  0  0  0  0
    5.2494   -2.6527   26.3719 C   0  0  0  0  0  0  0  0  0  0  0  0
    8.3880   -0.3240   21.3070 C   0  0  0  0  0  0  0  0  0  0  0  0
    7.4776   -1.6520   25.9784 C   0  0  0  0  0  0  0  0  0  0  0  0
    5.6373   -1.0084   24.4709 C   0  0  0  0  0  0  0  0  0  0  0  0
    8.3853   -1.9237   24.7877 C   0  0  0  0  0  0  0  0  0  0  0  0
    6.5186   -1.2688   23.2567 C   0  0  0  0  0  0  0  0  0  0  0  0
    6.1562    1.8904   20.9268 C   0  0  0  0  0  0  0  0  0  0  0  0
    5.9163   -3.8258   27.0448 C   0  0  0  0  0  0  0  0  0  0  0  0
    8.8810   -1.1900   22.4510 C   0  0  1  0  0  0  0  0  0  0  0  0
    5.7989   -0.4241   17.3340 N   0  0  0  0  0  0  0  0  0  0  0  0
    6.0702   -1.8178   25.6151 N   0  0  0  0  0  0  0  0  0  0  0  0
    7.2820   -0.7860   20.6970 N   0  0  0  0  0  0  0  0  0  0  0  0
    7.9647   -1.0392   23.6353 N   0  3  0  0  0  0  0  0  0  0  0  0
    4.0360   -2.4839   26.5178 O   0  0  0  0  0  0  0  0  0  0  0  0
    8.9170    0.7530   21.0260 O   0  0  0  0  0  0  0  0  0  0  0  0
   13.8840   -1.8490   21.2740 Cl  0  0  0  0  0  0  0  0  0  0  0  0
   12.2249    1.2198   24.6546 H   0  0  0  0  0  0  0  0  0  0  0  0
    9.8763    0.5350   24.3454 H   0  0  0  0  0  0  0  0  0  0  0  0
   14.0077    0.1988   23.2842 H   0  0  0  0  0  0  0  0  0  0  0  0
    4.9304    2.5900   18.6133 H   0  0  0  0  0  0  0  0  0  0  0  0
   11.0892   -2.3009   21.3624 H   0  0  0  0  0  0  0  0  0  0  0  0
    4.7650    1.1846   16.5621 H   0  0  0  0  0  0  0  0  0  0  0  0
    6.8502   -1.9040   18.3003 H   0  0  0  0  0  0  0  0  0  0  0  0
    7.7469   -2.3193   26.8030 H   0  0  0  0  0  0  0  0  0  0  0  0
    7.6060   -0.6237   26.3377 H   0  0  0  0  0  0  0  0  0  0  0  0
    5.7002    0.0436   24.7745 H   0  0  0  0  0  0  0  0  0  0  0  0
    4.5967   -1.2023   24.2053 H   0  0  0  0  0  0  0  0  0  0  0  0
    9.4238   -1.6743   25.0284 H   0  0  0  0  0  0  0  0  0  0  0  0
    8.3235   -2.9653   24.4529 H   0  0  0  0  0  0  0  0  0  0  0  0
    6.4247   -2.2989   22.8949 H   0  0  0  0  0  0  0  0  0  0  0  0
    6.2782   -0.5704   22.4486 H   0  0  0  0  0  0  0  0  0  0  0  0
    5.3039    1.6984   21.5888 H   0  0  0  0  0  0  0  0  0  0  0  0
    7.0803    1.6584   21.4704 H   0  0  0  0  0  0  0  0  0  0  0  0
    6.1834    2.9620   20.6935 H   0  0  0  0  0  0  0  0  0  0  0  0
    6.2511   -3.5254   28.0321 H   0  0  0  0  0  0  0  0  0  0  0  0
    6.7642   -4.1439   26.4466 H   0  0  0  0  0  0  0  0  0  0  0  0
    5.2038   -4.6404   27.1266 H   0  0  0  0  0  0  0  0  0  0  0  0
    8.7698   -2.2472   22.1731 H   0  0  0  0  0  0  0  0  0  0  0  0
    6.8974   -1.6551   21.0612 H   0  0  0  0  0  0  0  0  0  0  0  0
    8.0483   -0.0627   23.9500 H   0  0  0  0  0  0  0  0  0  0  0  0
  1  2  2  0  0  0  0
  1  3  1  0  0  0  0
  2  8  1  0  0  0  0
  3 11  2  0  0  0  0
  4  6  2  0  0  0  0
  4  9  1  0  0  0  0
  5  8  2  0  0  0  0
  5 11  1  0  0  0  0
  6 21  1  0  0  0  0
  7 10  1  0  0  0  0
  7 21  2  0  0  0  0
  8 20  1  0  0  0  0
  9 10  2  0  0  0  0
  9 18  1  0  0  0  0
 10 23  1  0  0  0  0
 11 27  1  0  0  0  0
 12 19  1  0  0  0  0
 12 22  1  0  0  0  0
 12 25  2  0  0  0  0
 13 20  1  1  0  0  0
 13 23  1  0  0  0  0
 13 26  2  0  0  0  0
 14 16  1  0  0  0  0
 14 22  1  0  0  0  0
 15 17  1  0  0  0  0
 15 22  1  0  0  0  0
 16 24  1  0  0  0  0
 17 24  1  0  0  0  0
 20 24  1  0  0  0  0
  1 28  1  0  0  0  0
  2 29  1  0  0  0  0
  3 30  1  0  0  0  0
  4 31  1  0  0  0  0
  5 32  1  0  0  0  0
  6 33  1  0  0  0  0
  7 34  1  0  0  0  0
 14 35  1  0  0  0  0
 14 36  1  0  0  0  0
 15 37  1  0  0  0  0
 15 38  1  0  0  0  0
 16 39  1  0  0  0  0
 16 40  1  0  0  0  0
 17 41  1  0  0  0  0
 17 42  1  0  0  0  0
 18 43  1  0  0  0  0
 18 44  1  0  0  0  0
 18 45  1  0  0  0  0
 19 46  1  0  0  0  0
 19 47  1  0  0  0  0
 19 48  1  0  0  0  0
 20 49  1  0  0  0  0
 23 50  1  0  0  0  0
 24 51  1  0  0  0  0
M  CHG  1  24   1
M  END
> <compound>
VLA-UCB-05e51b3f-2

> <compound_smiles>
Cc1ccncc1NC(=O)C(c2cccc(c2)Cl)N3CCN(CC3)C(=O)C

> <enantiomer_smiles>
Cc1ccncc1NC(=O)[C@@H](c2cccc(c2)Cl)N3CCN(CC3)C(=O)C

> <scaffold>
chlorobenzene-linker

> <clash_score>
0

> <docking_score>
-6.103636741638184

> <overlap_score>
0.8053483963012695

> <MMFF_internal_energy>
204.04902195732924

> <docked_smiles>
Cc1ccncc1NC(=O)[C@@H](c2cccc(c2)Cl)[NH+]3CCN(CC3)C(=O)C

$$$$
MIC-UNK-13557a72-1_2
  -OEChem-07262101023D

 39 41  0     1  0  0  0  0  0999 V2000
   11.9780    0.4600   23.9150 C   0  0  0  0  0  0  0  0  0  0  0  0
   10.6560    0.0720   23.7350 C   0  0  0  0  0  0  0  0  0  0  0  0
   12.9840   -0.1200   23.1530 C   0  0  0  0  0  0  0  0  0  0  0  0
   11.3360   -1.5050   22.0650 C   0  0  0  0  0  0  0  0  0  0  0  0
   10.3220   -0.8940   22.7910 C   0  0  0  0  0  0  0  0  0  0  0  0
   12.6400   -1.1000   22.2390 C   0  0  0  0  0  0  0  0  0  0  0  0
    8.3880   -0.3240   21.3070 C   0  0  0  0  0  0  0  0  0  0  0  0
    5.0105    1.7466   19.0312 C   0  0  0  0  0  0  0  0  0  0  0  0
    4.3695    0.1364   20.8100 C   0  0  0  0  0  0  0  0  0  0  0  0
    4.4053    0.8235   17.9709 C   0  0  0  0  0  0  0  0  0  0  0  0
    3.7518   -0.7858   19.7590 C   0  0  0  0  0  0  0  0  0  0  0  0
    5.9639   -1.0113   18.6377 C   0  0  0  0  0  0  0  0  0  0  0  0
    5.5535    0.9214   20.2131 C   0  0  0  0  0  0  0  0  0  0  0  0
    6.6089   -0.0563   19.6494 C   0  0  1  0  0  0  0  0  0  0  0  0
    8.8810   -1.1900   22.4510 C   0  0  0  0  0  0  0  0  0  0  0  0
    7.2820   -0.7860   20.6970 N   0  0  0  0  0  0  0  0  0  0  0  0
    4.5119   -0.6065   18.4622 N   0  3  0  0  0  0  0  0  0  0  0  0
    8.9170    0.7530   21.0260 O   0  0  0  0  0  0  0  0  0  0  0  0
   13.8840   -1.8490   21.2740 Cl  0  0  0  0  0  0  0  0  0  0  0  0
   12.2249    1.2198   24.6546 H   0  0  0  0  0  0  0  0  0  0  0  0
    9.8763    0.5350   24.3454 H   0  0  0  0  0  0  0  0  0  0  0  0
   14.0077    0.1988   23.2842 H   0  0  0  0  0  0  0  0  0  0  0  0
   11.0892   -2.3009   21.3624 H   0  0  0  0  0  0  0  0  0  0  0  0
    5.8150    2.3435   18.5858 H   0  0  0  0  0  0  0  0  0  0  0  0
    4.2504    2.4541   19.3838 H   0  0  0  0  0  0  0  0  0  0  0  0
    3.6085    0.8333   21.1817 H   0  0  0  0  0  0  0  0  0  0  0  0
    4.7002   -0.4539   21.6724 H   0  0  0  0  0  0  0  0  0  0  0  0
    3.3447    1.0334   17.7976 H   0  0  0  0  0  0  0  0  0  0  0  0
    4.9396    0.8832   17.0171 H   0  0  0  0  0  0  0  0  0  0  0  0
    3.8243   -1.8416   20.0408 H   0  0  0  0  0  0  0  0  0  0  0  0
    2.7023   -0.5434   19.5616 H   0  0  0  0  0  0  0  0  0  0  0  0
    6.4410   -0.9478   17.6536 H   0  0  0  0  0  0  0  0  0  0  0  0
    5.9653   -2.0591   18.9583 H   0  0  0  0  0  0  0  0  0  0  0  0
    5.9933    1.5887   20.9628 H   0  0  0  0  0  0  0  0  0  0  0  0
    7.3962    0.5179   19.1457 H   0  0  0  0  0  0  0  0  0  0  0  0
    8.7773   -2.2383   22.1737 H   0  0  0  0  0  0  0  0  0  0  0  0
    8.2516   -1.0144   23.3225 H   0  0  0  0  0  0  0  0  0  0  0  0
    6.9052   -1.6847   20.9852 H   0  0  0  0  0  0  0  0  0  0  0  0
    4.0904   -1.2226   17.7542 H   0  0  0  0  0  0  0  0  0  0  0  0
  1  2  1  0  0  0  0
  1  3  2  0  0  0  0
  2  5  2  0  0  0  0
  3  6  1  0  0  0  0
  4  5  1  0  0  0  0
  4  6  2  0  0  0  0
  5 15  1  0  0  0  0
  6 19  1  0  0  0  0
  7 15  1  0  0  0  0
  7 16  1  0  0  0  0
  7 18  2  0  0  0  0
  8 10  1  0  0  0  0
  8 13  1  0  0  0  0
  9 11  1  0  0  0  0
  9 13  1  0  0  0  0
 10 17  1  0  0  0  0
 11 17  1  0  0  0  0
 12 14  1  0  0  0  0
 12 17  1  0  0  0  0
 13 14  1  0  0  0  0
 14 16  1  6  0  0  0
  1 20  1  0  0  0  0
  2 21  1  0  0  0  0
  3 22  1  0  0  0  0
  4 23  1  0  0  0  0
  8 24  1  0  0  0  0
  8 25  1  0  0  0  0
  9 26  1  0  0  0  0
  9 27  1  0  0  0  0
 10 28  1  0  0  0  0
 10 29  1  0  0  0  0
 11 30  1  0  0  0  0
 11 31  1  0  0  0  0
 12 32  1  0  0  0  0
 12 33  1  0  0  0  0
 13 34  1  0  0  0  0
 14 35  1  0  0  0  0
 15 36  1  0  0  0  0
 15 37  1  0  0  0  0
 16 38  1  0  0  0  0
 17 39  1  0  0  0  0
M  CHG  1  17   1
M  END
> <compound>
MIC-UNK-13557a72-1

> <compound_smiles>
c1cc(cc(c1)Cl)CC(=O)NC2CN3CCC2CC3

> <enantiomer_smiles>
c1cc(cc(c1)Cl)CC(=O)N[C@H]2CN3CCC2CC3

> <scaffold>
chlorobenzene-linker

> <clash_score>
1.9966071134982308

> <docking_score>
-4.81381893157959

> <overlap_score>
0.8042377829551697

> <MMFF_internal_energy>
71.40975581001724

> <docked_smiles>
c1cc(cc(c1)Cl)CC(=O)N[C@H]2C[NH+]3CCC2CC3

$$$$
MIC-UNK-b12b7f76-2_1
  -OEChem-07262101023D

 43 46  0     1  0  0  0  0  0999 V2000
   11.9780    0.4600   23.9150 C   0  0  0  0  0  0  0  0  0  0  0  0
   10.6560    0.0720   23.7350 C   0  0  0  0  0  0  0  0  0  0  0  0
   12.9840   -0.1200   23.1530 C   0  0  0  0  0  0  0  0  0  0  0  0
   11.3360   -1.5050   22.0650 C   0  0  0  0  0  0  0  0  0  0  0  0
   10.3220   -0.8940   22.7910 C   0  0  0  0  0  0  0  0  0  0  0  0
   12.6400   -1.1000   22.2390 C   0  0  0  0  0  0  0  0  0  0  0  0
    8.3880   -0.3240   21.3070 C   0  0  0  0  0  0  0  0  0  0  0  0
    6.3895    2.3058   17.8810 C   0  0  0  0  0  0  0  0  0  0  0  0
    6.1399    1.3217   20.1744 C   0  0  0  0  0  0  0  0  0  0  0  0
    7.5713    0.1705   18.4601 C   0  0  0  0  0  0  0  0  0  0  0  0
    4.2102    1.2876   18.5776 C   0  0  0  0  0  0  0  0  0  0  0  0
    5.6333    0.1416   16.8725 C   0  0  0  0  0  0  0  0  0  0  0  0
    5.3837   -0.8429   19.1572 C   0  0  0  0  0  0  0  0  0  0  0  0
    5.4192    2.0975   19.0564 C   0  0  3  0  0  0  0  0  0  0  0  0
    6.8535    0.9431   17.3380 C   0  0  3  0  0  0  0  0  0  0  0  0
    6.6093   -0.0528   19.6474 C   0  0  0  0  0  0  0  0  0  0  0  0
    8.8810   -1.1900   22.4510 C   0  0  0  0  0  0  0  0  0  0  0  0
    7.2820   -0.7860   20.6970 N   0  0  0  0  0  0  0  0  0  0  0  0
    4.7102   -0.0443   18.0585 N   0  3  0  0  0  0  0  0  0  0  0  0
    8.9170    0.7530   21.0260 O   0  0  0  0  0  0  0  0  0  0  0  0
   13.8840   -1.8490   21.2740 Cl  0  0  0  0  0  0  0  0  0  0  0  0
   12.2249    1.2198   24.6546 H   0  0  0  0  0  0  0  0  0  0  0  0
    9.8763    0.5350   24.3454 H   0  0  0  0  0  0  0  0  0  0  0  0
   14.0077    0.1988   23.2842 H   0  0  0  0  0  0  0  0  0  0  0  0
   11.0892   -2.3009   21.3624 H   0  0  0  0  0  0  0  0  0  0  0  0
    5.8963    2.8775   17.0853 H   0  0  0  0  0  0  0  0  0  0  0  0
    7.2552    2.8950   18.2076 H   0  0  0  0  0  0  0  0  0  0  0  0
    6.9962    1.9074   20.5334 H   0  0  0  0  0  0  0  0  0  0  0  0
    5.4606    1.1919   21.0270 H   0  0  0  0  0  0  0  0  0  0  0  0
    7.9278   -0.7923   18.0712 H   0  0  0  0  0  0  0  0  0  0  0  0
    8.4566    0.7323   18.7851 H   0  0  0  0  0  0  0  0  0  0  0  0
    3.5009    1.0785   19.3856 H   0  0  0  0  0  0  0  0  0  0  0  0
    3.6772    1.7792   17.7567 H   0  0  0  0  0  0  0  0  0  0  0  0
    5.0647    0.6618   16.0940 H   0  0  0  0  0  0  0  0  0  0  0  0
    5.9027   -0.8555   16.5080 H   0  0  0  0  0  0  0  0  0  0  0  0
    5.6514   -1.8151   18.7278 H   0  0  0  0  0  0  0  0  0  0  0  0
    4.6377   -0.9972   19.9453 H   0  0  0  0  0  0  0  0  0  0  0  0
    5.0860    3.0692   19.4372 H   0  0  0  0  0  0  0  0  0  0  0  0
    7.5392    1.0945   16.4971 H   0  0  0  0  0  0  0  0  0  0  0  0
    8.7773   -2.2383   22.1737 H   0  0  0  0  0  0  0  0  0  0  0  0
    8.2516   -1.0144   23.3225 H   0  0  0  0  0  0  0  0  0  0  0  0
    6.9051   -1.6834   20.9842 H   0  0  0  0  0  0  0  0  0  0  0  0
    3.8933   -0.5814   17.7378 H   0  0  0  0  0  0  0  0  0  0  0  0
  1  2  1  0  0  0  0
  1  3  2  0  0  0  0
  2  5  2  0  0  0  0
  3  6  1  0  0  0  0
  4  5  1  0  0  0  0
  4  6  2  0  0  0  0
  5 17  1  0  0  0  0
  6 21  1  0  0  0  0
  7 17  1  0  0  0  0
  7 18  1  0  0  0  0
  7 20  2  0  0  0  0
  8 14  1  0  0  0  0
  8 15  1  0  0  0  0
  9 14  1  0  0  0  0
  9 16  1  0  0  0  0
 10 15  1  0  0  0  0
 10 16  1  0  0  0  0
 11 14  1  0  0  0  0
 11 19  1  0  0  0  0
 12 15  1  0  0  0  0
 12 19  1  0  0  0  0
 13 16  1  0  0  0  0
 13 19  1  0  0  0  0
 16 18  1  0  0  0  0
  1 22  1  0  0  0  0
  2 23  1  0  0  0  0
  3 24  1  0  0  0  0
  4 25  1  0  0  0  0
  8 26  1  0  0  0  0
  8 27  1  0  0  0  0
  9 28  1  0  0  0  0
  9 29  1  0  0  0  0
 10 30  1  0  0  0  0
 10 31  1  0  0  0  0
 11 32  1  0  0  0  0
 11 33  1  0  0  0  0
 12 34  1  0  0  0  0
 12 35  1  0  0  0  0
 13 36  1  0  0  0  0
 13 37  1  0  0  0  0
 14 38  1  0  0  0  0
 15 39  1  0  0  0  0
 17 40  1  0  0  0  0
 17 41  1  0  0  0  0
 18 42  1  0  0  0  0
 19 43  1  0  0  0  0
M  CHG  1  19   1
M  END
> <compound>
MIC-UNK-b12b7f76-2

> <compound_smiles>
c1cc(cc(c1)Cl)CC(=O)NC23CC4CC(C2)CN(C4)C3

> <enantiomer_smiles>
c1cc(cc(c1)Cl)CC(=O)NC23CC4CC(C2)CN(C4)C3

> <scaffold>
chlorobenzene-linker

> <clash_score>
0

> <docking_score>
-3.4095656871795654

> <overlap_score>
0.8655237555503845

> <MMFF_internal_energy>
77.13634910921637

> <docked_smiles>
c1cc(cc(c1)Cl)CC(=O)NC23C[C@H]4C[C@@H](C2)C[NH+](C4)C3

$$$$
VLA-UCB-05e51b3f-2_2
  -OEChem-07262101023D

 51 53  0     1  0  0  0  0  0999 V2000
   11.9780    0.4600   23.9150 C   0  0  0  0  0  0  0  0  0  0  0  0
   10.6560    0.0720   23.7350 C   0  0  0  0  0  0  0  0  0  0  0  0
   12.9840   -0.1200   23.1530 C   0  0  0  0  0  0  0  0  0  0  0  0
    4.6233    0.7519   18.6082 C   0  0  0  0  0  0  0  0  0  0  0  0
   11.3360   -1.5050   22.0650 C   0  0  0  0  0  0  0  0  0  0  0  0
    5.3563    0.9065   17.4426 C   0  0  0  0  0  0  0  0  0  0  0  0
    7.2356   -0.0072   18.3973 C   0  0  0  0  0  0  0  0  0  0  0  0
   10.3220   -0.8940   22.7910 C   0  0  0  0  0  0  0  0  0  0  0  0
    5.2597    0.1850   19.7069 C   0  0  0  0  0  0  0  0  0  0  0  0
    6.5908   -0.2044   19.6077 C   0  0  0  0  0  0  0  0  0  0  0  0
   12.6400   -1.1000   22.2390 C   0  0  0  0  0  0  0  0  0  0  0  0
   10.0549   -6.3970   20.9567 C   0  0  0  0  0  0  0  0  0  0  0  0
    8.3880   -0.3240   21.3070 C   0  0  0  0  0  0  0  0  0  0  0  0
    9.0070   -5.0039   22.7124 C   0  0  0  0  0  0  0  0  0  0  0  0
    8.6216   -4.3830   20.3588 C   0  0  0  0  0  0  0  0  0  0  0  0
    9.3715   -3.5664   23.0534 C   0  0  0  0  0  0  0  0  0  0  0  0
    8.9788   -2.9348   20.6651 C   0  0  0  0  0  0  0  0  0  0  0  0
    4.4934    0.0071   20.9765 C   0  0  0  0  0  0  0  0  0  0  0  0
   10.2864   -6.6234   19.4840 C   0  0  0  0  0  0  0  0  0  0  0  0
    8.8810   -1.1900   22.4510 C   0  0  2  0  0  0  0  0  0  0  0  0
    6.6507    0.5402   17.3084 N   0  0  0  0  0  0  0  0  0  0  0  0
    9.2756   -5.2944   21.3040 N   0  0  0  0  0  0  0  0  0  0  0  0
    7.2820   -0.7860   20.6970 N   0  0  0  0  0  0  0  0  0  0  0  0
    8.6433   -2.6361   22.1092 N   0  3  0  0  0  0  0  0  0  0  0  0
   10.5547   -7.1761   21.7724 O   0  0  0  0  0  0  0  0  0  0  0  0
    8.9170    0.7530   21.0260 O   0  0  0  0  0  0  0  0  0  0  0  0
   13.8840   -1.8490   21.2740 Cl  0  0  0  0  0  0  0  0  0  0  0  0
   12.2249    1.2198   24.6546 H   0  0  0  0  0  0  0  0  0  0  0  0
    9.8763    0.5350   24.3454 H   0  0  0  0  0  0  0  0  0  0  0  0
   14.0077    0.1988   23.2842 H   0  0  0  0  0  0  0  0  0  0  0  0
    3.5862    1.0665   18.6528 H   0  0  0  0  0  0  0  0  0  0  0  0
   11.0892   -2.3009   21.3624 H   0  0  0  0  0  0  0  0  0  0  0  0
    4.9061    1.3436   16.5574 H   0  0  0  0  0  0  0  0  0  0  0  0
    8.2746   -0.2910   18.2577 H   0  0  0  0  0  0  0  0  0  0  0  0
    9.5635   -5.6862   23.3626 H   0  0  0  0  0  0  0  0  0  0  0  0
    7.9398   -5.1861   22.8884 H   0  0  0  0  0  0  0  0  0  0  0  0
    7.5401   -4.5410   20.4502 H   0  0  0  0  0  0  0  0  0  0  0  0
    8.8907   -4.6064   19.3251 H   0  0  0  0  0  0  0  0  0  0  0  0
    9.0502   -3.3169   24.0698 H   0  0  0  0  0  0  0  0  0  0  0  0
   10.4461   -3.3790   22.9490 H   0  0  0  0  0  0  0  0  0  0  0  0
   10.0464   -2.7357   20.5193 H   0  0  0  0  0  0  0  0  0  0  0  0
    8.3881   -2.2524   20.0453 H   0  0  0  0  0  0  0  0  0  0  0  0
    4.0017   -0.9724   20.9892 H   0  0  0  0  0  0  0  0  0  0  0  0
    5.1524    0.0790   21.8505 H   0  0  0  0  0  0  0  0  0  0  0  0
    3.7275    0.7845   21.0893 H   0  0  0  0  0  0  0  0  0  0  0  0
   11.1837   -6.0944   19.1803 H   0  0  0  0  0  0  0  0  0  0  0  0
    9.4311   -6.2520   18.9285 H   0  0  0  0  0  0  0  0  0  0  0  0
   10.4033   -7.6869   19.3023 H   0  0  0  0  0  0  0  0  0  0  0  0
    8.2445   -1.0188   23.3300 H   0  0  0  0  0  0  0  0  0  0  0  0
    6.8974   -1.6551   21.0612 H   0  0  0  0  0  0  0  0  0  0  0  0
    7.6346   -2.8016   22.2306 H   0  0  0  0  0  0  0  0  0  0  0  0
  1  2  2  0  0  0  0
  1  3  1  0  0  0  0
  2  8  1  0  0  0  0
  3 11  2  0  0  0  0
  4  6  2  0  0  0  0
  4  9  1  0  0  0  0
  5  8  2  0  0  0  0
  5 11  1  0  0  0  0
  6 21  1  0  0  0  0
  7 10  1  0  0  0  0
  7 21  2  0  0  0  0
  8 20  1  0  0  0  0
  9 10  2  0  0  0  0
  9 18  1  0  0  0  0
 10 23  1  0  0  0  0
 11 27  1  0  0  0  0
 12 19  1  0  0  0  0
 12 22  1  0  0  0  0
 12 25  2  0  0  0  0
 13 20  1  6  0  0  0
 13 23  1  0  0  0  0
 13 26  2  0  0  0  0
 14 16  1  0  0  0  0
 14 22  1  0  0  0  0
 15 17  1  0  0  0  0
 15 22  1  0  0  0  0
 16 24  1  0  0  0  0
 17 24  1  0  0  0  0
 20 24  1  0  0  0  0
  1 28  1  0  0  0  0
  2 29  1  0  0  0  0
  3 30  1  0  0  0  0
  4 31  1  0  0  0  0
  5 32  1  0  0  0  0
  6 33  1  0  0  0  0
  7 34  1  0  0  0  0
 14 35  1  0  0  0  0
 14 36  1  0  0  0  0
 15 37  1  0  0  0  0
 15 38  1  0  0  0  0
 16 39  1  0  0  0  0
 16 40  1  0  0  0  0
 17 41  1  0  0  0  0
 17 42  1  0  0  0  0
 18 43  1  0  0  0  0
 18 44  1  0  0  0  0
 18 45  1  0  0  0  0
 19 46  1  0  0  0  0
 19 47  1  0  0  0  0
 19 48  1  0  0  0  0
 20 49  1  0  0  0  0
 23 50  1  0  0  0  0
 24 51  1  0  0  0  0
M  CHG  1  24   1
M  END
> <compound>
VLA-UCB-05e51b3f-2

> <compound_smiles>
Cc1ccncc1NC(=O)C(c2cccc(c2)Cl)N3CCN(CC3)C(=O)C

> <enantiomer_smiles>
Cc1ccncc1NC(=O)[C@H](c2cccc(c2)Cl)N3CCN(CC3)C(=O)C

> <scaffold>
chlorobenzene-linker

> <clash_score>
4.239631428732112

> <docking_score>
-1.5197645425796509

> <overlap_score>
0.836379885673523

> <MMFF_internal_energy>
228.24706212669614

> <docked_smiles>
Cc1ccncc1NC(=O)[C@H](c2cccc(c2)Cl)[NH+]3CCN(CC3)C(=O)C

$$$$
ALP-POS-8b8a49e1-5_1
  -OEChem-07262101023D

 30 31  0     1  0  0  0  0  0999 V2000
   11.9780    0.4600   23.9150 C   0  0  0  0  0  0  0  0  0  0  0  0
   10.6560    0.0720   23.7350 C   0  0  0  0  0  0  0  0  0  0  0  0
   12.9840   -0.1200   23.1530 C   0  0  0  0  0  0  0  0  0  0  0  0
   11.3360   -1.5050   22.0650 C   0  0  0  0  0  0  0  0  0  0  0  0
   10.3220   -0.8940   22.7910 C   0  0  0  0  0  0  0  0  0  0  0  0
   12.6400   -1.1000   22.2390 C   0  0  0  0  0  0  0  0  0  0  0  0
    6.8560    1.4545   17.8539 C   0  0  0  0  0  0  0  0  0  0  0  0
    8.3880   -0.3240   21.3070 C   0  0  0  0  0  0  0  0  0  0  0  0
    7.4941    0.2194   18.4449 C   0  0  0  0  0  0  0  0  0  0  0  0
    6.1309    1.3060   20.0898 C   0  0  0  0  0  0  0  0  0  0  0  0
    6.6077   -0.0678   19.6561 C   0  0  2  0  0  0  0  0  0  0  0  0
    8.8810   -1.1900   22.4510 C   0  0  0  0  0  0  0  0  0  0  0  0
    6.0788    2.0350   18.8515 N   0  0  0  0  0  0  0  0  0  0  0  0
    7.2820   -0.7860   20.6970 N   0  0  0  0  0  0  0  0  0  0  0  0
    7.0383    1.8714   16.7206 O   0  0  0  0  0  0  0  0  0  0  0  0
    8.9170    0.7530   21.0260 O   0  0  0  0  0  0  0  0  0  0  0  0
   13.8840   -1.8490   21.2740 Cl  0  0  0  0  0  0  0  0  0  0  0  0
   12.2249    1.2198   24.6546 H   0  0  0  0  0  0  0  0  0  0  0  0
    9.8763    0.5350   24.3454 H   0  0  0  0  0  0  0  0  0  0  0  0
   14.0077    0.1988   23.2842 H   0  0  0  0  0  0  0  0  0  0  0  0
   11.0892   -2.3009   21.3624 H   0  0  0  0  0  0  0  0  0  0  0  0
    7.4854   -0.6056   17.7280 H   0  0  0  0  0  0  0  0  0  0  0  0
    8.5234    0.4649   18.7275 H   0  0  0  0  0  0  0  0  0  0  0  0
    5.1410    1.2897   20.5532 H   0  0  0  0  0  0  0  0  0  0  0  0
    6.8407    1.8196   20.7467 H   0  0  0  0  0  0  0  0  0  0  0  0
    5.7476   -0.6755   19.3479 H   0  0  0  0  0  0  0  0  0  0  0  0
    8.7773   -2.2383   22.1737 H   0  0  0  0  0  0  0  0  0  0  0  0
    8.2516   -1.0144   23.3225 H   0  0  0  0  0  0  0  0  0  0  0  0
    5.5718    2.9057   18.7286 H   0  0  0  0  0  0  0  0  0  0  0  0
    6.9057   -1.6892   20.9886 H   0  0  0  0  0  0  0  0  0  0  0  0
  1  2  1  0  0  0  0
  1  3  2  0  0  0  0
  2  5  2  0  0  0  0
  3  6  1  0  0  0  0
  4  5  1  0  0  0  0
  4  6  2  0  0  0  0
  5 12  1  0  0  0  0
  6 17  1  0  0  0  0
  7  9  1  0  0  0  0
  7 13  1  0  0  0  0
  7 15  2  0  0  0  0
  8 12  1  0  0  0  0
  8 14  1  0  0  0  0
  8 16  2  0  0  0  0
  9 11  1  0  0  0  0
 10 11  1  0  0  0  0
 10 13  1  0  0  0  0
 11 14  1  1  0  0  0
  1 18  1  0  0  0  0
  2 19  1  0  0  0  0
  3 20  1  0  0  0  0
  4 21  1  0  0  0  0
  9 22  1  0  0  0  0
  9 23  1  0  0  0  0
 10 24  1  0  0  0  0
 10 25  1  0  0  0  0
 11 26  1  0  0  0  0
 12 27  1  0  0  0  0
 12 28  1  0  0  0  0
 13 29  1  0  0  0  0
 14 30  1  0  0  0  0
M  END
> <compound>
ALP-POS-8b8a49e1-5

> <compound_smiles>
c1cc(cc(c1)Cl)CC(=O)NC2CC(=O)NC2

> <enantiomer_smiles>
c1cc(cc(c1)Cl)CC(=O)N[C@@H]2CC(=O)NC2

> <scaffold>
chlorobenzene-linker

> <clash_score>
0

> <docking_score>
-6.164961814880371

> <overlap_score>
0.7215521335601807

> <MMFF_internal_energy>
14.556257278631518

> <docked_smiles>
c1cc(cc(c1)Cl)CC(=O)N[C@@H]2CC(=O)NC2

$$$$
ALP-POS-8b8a49e1-8_1
  -OEChem-07262101023D

 33 34  0     1  0  0  0  0  0999 V2000
   11.9780    0.4600   23.9150 C   0  0  0  0  0  0  0  0  0  0  0  0
   10.6560    0.0720   23.7350 C   0  0  0  0  0  0  0  0  0  0  0  0
   12.9840   -0.1200   23.1530 C   0  0  0  0  0  0  0  0  0  0  0  0
   11.3360   -1.5050   22.0650 C   0  0  0  0  0  0  0  0  0  0  0  0
   10.3220   -0.8940   22.7910 C   0  0  0  0  0  0  0  0  0  0  0  0
   12.6400   -1.1000   22.2390 C   0  0  0  0  0  0  0  0  0  0  0  0
    5.0946   -0.3270   17.6176 C   0  0  0  0  0  0  0  0  0  0  0  0
    8.3880   -0.3240   21.3070 C   0  0  0  0  0  0  0  0  0  0  0  0
    5.9419   -1.0153   18.6691 C   0  0  0  0  0  0  0  0  0  0  0  0
    5.5626    0.8885   20.2284 C   0  0  0  0  0  0  0  0  0  0  0  0
    4.9368    1.6963   19.1047 C   0  0  0  0  0  0  0  0  0  0  0  0
    6.6083   -0.0575   19.6497 C   0  0  2  0  0  0  0  0  0  0  0  0
    8.8810   -1.1900   22.4510 C   0  0  0  0  0  0  0  0  0  0  0  0
    4.5618    0.8971   17.9535 N   0  0  0  0  0  0  0  0  0  0  0  0
    7.2820   -0.7860   20.6970 N   0  0  0  0  0  0  0  0  0  0  0  0
    4.8389   -0.8887   16.5510 O   0  0  0  0  0  0  0  0  0  0  0  0
    8.9170    0.7530   21.0260 O   0  0  0  0  0  0  0  0  0  0  0  0
   13.8840   -1.8490   21.2740 Cl  0  0  0  0  0  0  0  0  0  0  0  0
   12.2249    1.2198   24.6546 H   0  0  0  0  0  0  0  0  0  0  0  0
    9.8763    0.5350   24.3454 H   0  0  0  0  0  0  0  0  0  0  0  0
   14.0077    0.1988   23.2842 H   0  0  0  0  0  0  0  0  0  0  0  0
   11.0892   -2.3009   21.3624 H   0  0  0  0  0  0  0  0  0  0  0  0
    5.2816   -1.7128   19.2000 H   0  0  0  0  0  0  0  0  0  0  0  0
    6.7076   -1.6055   18.1511 H   0  0  0  0  0  0  0  0  0  0  0  0
    6.0181    1.5709   20.9557 H   0  0  0  0  0  0  0  0  0  0  0  0
    4.7828    0.3238   20.7553 H   0  0  0  0  0  0  0  0  0  0  0  0
    4.0421    2.2213   19.4539 H   0  0  0  0  0  0  0  0  0  0  0  0
    5.6441    2.4504   18.7415 H   0  0  0  0  0  0  0  0  0  0  0  0
    7.3800    0.5254   19.1315 H   0  0  0  0  0  0  0  0  0  0  0  0
    8.7773   -2.2383   22.1737 H   0  0  0  0  0  0  0  0  0  0  0  0
    8.2516   -1.0144   23.3225 H   0  0  0  0  0  0  0  0  0  0  0  0
    3.8437    1.2734   17.3422 H   0  0  0  0  0  0  0  0  0  0  0  0
    6.9053   -1.6853   20.9857 H   0  0  0  0  0  0  0  0  0  0  0  0
  1  2  1  0  0  0  0
  1  3  2  0  0  0  0
  2  5  2  0  0  0  0
  3  6  1  0  0  0  0
  4  5  1  0  0  0  0
  4  6  2  0  0  0  0
  5 13  1  0  0  0  0
  6 18  1  0  0  0  0
  7  9  1  0  0  0  0
  7 14  1  0  0  0  0
  7 16  2  0  0  0  0
  8 13  1  0  0  0  0
  8 15  1  0  0  0  0
  8 17  2  0  0  0  0
  9 12  1  0  0  0  0
 10 11  1  0  0  0  0
 10 12  1  0  0  0  0
 11 14  1  0  0  0  0
 12 15  1  1  0  0  0
  1 19  1  0  0  0  0
  2 20  1  0  0  0  0
  3 21  1  0  0  0  0
  4 22  1  0  0  0  0
  9 23  1  0  0  0  0
  9 24  1  0  0  0  0
 10 25  1  0  0  0  0
 10 26  1  0  0  0  0
 11 27  1  0  0  0  0
 11 28  1  0  0  0  0
 12 29  1  0  0  0  0
 13 30  1  0  0  0  0
 13 31  1  0  0  0  0
 14 32  1  0  0  0  0
 15 33  1  0  0  0  0
M  END
> <compound>
ALP-POS-8b8a49e1-8

> <compound_smiles>
c1cc(cc(c1)Cl)CC(=O)NC2CCNC(=O)C2

> <enantiomer_smiles>
c1cc(cc(c1)Cl)CC(=O)N[C@@H]2CCNC(=O)C2

> <scaffold>
chlorobenzene-linker

> <clash_score>
0.752989974700131

> <docking_score>
-5.734309196472168

> <overlap_score>
0.7823323607444763

> <MMFF_internal_energy>
-4.8147966179076205

> <docked_smiles>
c1cc(cc(c1)Cl)CC(=O)N[C@@H]2CCNC(=O)C2

$$$$
ALP-POS-8b8a49e1-6_1
  -OEChem-07262101023D

 35 37  0     1  0  0  0  0  0999 V2000
    5.4889    3.9687   20.5093 C   0  0  0  0  0  0  0  0  0  0  0  0
    5.0172    2.9683   21.3755 C   0  0  0  0  0  0  0  0  0  0  0  0
   11.9780    0.4600   23.9150 C   0  0  0  0  0  0  0  0  0  0  0  0
    6.2957    3.6409   19.4202 C   0  0  0  0  0  0  0  0  0  0  0  0
    5.3470    1.6250   21.1645 C   0  0  0  0  0  0  0  0  0  0  0  0
   10.6560    0.0720   23.7350 C   0  0  0  0  0  0  0  0  0  0  0  0
   12.9840   -0.1200   23.1530 C   0  0  0  0  0  0  0  0  0  0  0  0
   11.3360   -1.5050   22.0650 C   0  0  0  0  0  0  0  0  0  0  0  0
    6.6064    2.3057   19.2393 C   0  0  0  0  0  0  0  0  0  0  0  0
    6.1561    1.2992   20.0863 C   0  0  0  0  0  0  0  0  0  0  0  0
   10.3220   -0.8940   22.7910 C   0  0  0  0  0  0  0  0  0  0  0  0
   12.6400   -1.1000   22.2390 C   0  0  0  0  0  0  0  0  0  0  0  0
    7.4225    1.6982   18.1998 C   0  0  0  0  0  0  0  0  0  0  0  0
    8.3880   -0.3240   21.3070 C   0  0  0  0  0  0  0  0  0  0  0  0
    7.5329    0.2125   18.4490 C   0  0  0  0  0  0  0  0  0  0  0  0
    6.6082   -0.0625   19.6530 C   0  0  1  0  0  0  0  0  0  0  0  0
    8.8810   -1.1900   22.4510 C   0  0  0  0  0  0  0  0  0  0  0  0
    7.2820   -0.7860   20.6970 N   0  0  0  0  0  0  0  0  0  0  0  0
    7.9411    2.3156   17.2876 O   0  0  0  0  0  0  0  0  0  0  0  0
    8.9170    0.7530   21.0260 O   0  0  0  0  0  0  0  0  0  0  0  0
   13.8840   -1.8490   21.2740 Cl  0  0  0  0  0  0  0  0  0  0  0  0
    5.2192    5.0058   20.6896 H   0  0  0  0  0  0  0  0  0  0  0  0
    4.3863    3.2419   22.2170 H   0  0  0  0  0  0  0  0  0  0  0  0
   12.2249    1.2198   24.6546 H   0  0  0  0  0  0  0  0  0  0  0  0
    6.6600    4.4095   18.7482 H   0  0  0  0  0  0  0  0  0  0  0  0
    4.9705    0.8587   21.8344 H   0  0  0  0  0  0  0  0  0  0  0  0
    9.8763    0.5350   24.3454 H   0  0  0  0  0  0  0  0  0  0  0  0
   14.0077    0.1988   23.2842 H   0  0  0  0  0  0  0  0  0  0  0  0
   11.0892   -2.3008   21.3624 H   0  0  0  0  0  0  0  0  0  0  0  0
    7.1956   -0.3396   17.5663 H   0  0  0  0  0  0  0  0  0  0  0  0
    8.5794   -0.0337   18.6575 H   0  0  0  0  0  0  0  0  0  0  0  0
    5.7464   -0.6607   19.3370 H   0  0  0  0  0  0  0  0  0  0  0  0
    8.7773   -2.2383   22.1737 H   0  0  0  0  0  0  0  0  0  0  0  0
    8.2516   -1.0144   23.3225 H   0  0  0  0  0  0  0  0  0  0  0  0
    6.9055   -1.6871   20.9870 H   0  0  0  0  0  0  0  0  0  0  0  0
  1  2  1  0  0  0  0
  1  4  2  0  0  0  0
  2  5  2  0  0  0  0
  3  6  2  0  0  0  0
  3  7  1  0  0  0  0
  4  9  1  0  0  0  0
  5 10  1  0  0  0  0
  6 11  1  0  0  0  0
  7 12  2  0  0  0  0
  8 11  2  0  0  0  0
  8 12  1  0  0  0  0
  9 10  2  0  0  0  0
  9 13  1  0  0  0  0
 10 16  1  0  0  0  0
 11 17  1  0  0  0  0
 12 21  1  0  0  0  0
 13 15  1  0  0  0  0
 13 19  2  0  0  0  0
 14 17  1  0  0  0  0
 14 18  1  0  0  0  0
 14 20  2  0  0  0  0
 15 16  1  0  0  0  0
 16 18  1  1  0  0  0
  1 22  1  0  0  0  0
  2 23  1  0  0  0  0
  3 24  1  0  0  0  0
  4 25  1  0  0  0  0
  5 26  1  0  0  0  0
  6 27  1  0  0  0  0
  7 28  1  0  0  0  0
  8 29  1  0  0  0  0
 15 30  1  0  0  0  0
 15 31  1  0  0  0  0
 16 32  1  0  0  0  0
 17 33  1  0  0  0  0
 17 34  1  0  0  0  0
 18 35  1  0  0  0  0
M  END
> <compound>
ALP-POS-8b8a49e1-6

> <compound_smiles>
c1ccc2c(c1)C(CC2=O)NC(=O)Cc3cccc(c3)Cl

> <enantiomer_smiles>
c1ccc2c(c1)[C@@H](CC2=O)NC(=O)Cc3cccc(c3)Cl

> <scaffold>
chlorobenzene-linker

> <canonical_CID>
ALP-POS-8b8a49e1-6

> <r_inhibition_at_20_uM>

> <r_inhibition_at_50_uM>

> <r_avg_IC50>

> <f_inhibition_at_20_uM>

> <f_inhibition_at_50_uM>

> <f_avg_IC50>
53.7587644021632

> <f_avg_pIC50>

> <relative_solubility_at_20_uM>

> <relative_solubility_at_100_uM>

> <trypsin_IC50>

> <NMR_std_ratio>

> <acrylamide>
False

> <chloroacetamide>
False

> <series>
3-aminopyridine-like

> <frag_id>

> <clash_score>
1.9428286163591255

> <docking_score>
-2.8852522373199463

> <overlap_score>
0.7349602580070496

> <MMFF_internal_energy>
47.05925591434181

> <docked_smiles>
c1ccc2c(c1)[C@@H](CC2=O)NC(=O)Cc3cccc(c3)Cl

$$$$
VLA-UCB-05e51b3f-17_1
  -OEChem-07262101023D

 39 41  0     0  0  0  0  0  0999 V2000
    3.0728    1.5450   22.4353 C   0  0  0  0  0  0  0  0  0  0  0  0
    3.9716    0.6557   23.0197 C   0  0  0  0  0  0  0  0  0  0  0  0
   11.9780    0.4600   23.9150 C   0  0  0  0  0  0  0  0  0  0  0  0
    3.2548    1.9548   21.1147 C   0  0  0  0  0  0  0  0  0  0  0  0
    5.0564    0.1722   22.2862 C   0  0  0  0  0  0  0  0  0  0  0  0
   10.6560    0.0720   23.7350 C   0  0  0  0  0  0  0  0  0  0  0  0
   12.9840   -0.1200   23.1530 C   0  0  0  0  0  0  0  0  0  0  0  0
   11.3360   -1.5050   22.0650 C   0  0  0  0  0  0  0  0  0  0  0  0
    4.5727    1.8515   19.0424 C   0  0  0  0  0  0  0  0  0  0  0  0
    6.4595    0.5513   18.8862 C   0  0  0  0  0  0  0  0  0  0  0  0
    4.3428    1.4746   20.3671 C   0  0  0  0  0  0  0  0  0  0  0  0
    5.2549    0.5741   20.9552 C   0  0  0  0  0  0  0  0  0  0  0  0
   10.3220   -0.8940   22.7910 C   0  0  0  0  0  0  0  0  0  0  0  0
    6.3324    0.1073   20.1936 C   0  0  0  0  0  0  0  0  0  0  0  0
   12.6400   -1.1000   22.2390 C   0  0  0  0  0  0  0  0  0  0  0  0
    7.0819   -2.2016   20.5657 C   0  0  0  0  0  0  0  0  0  0  0  0
    8.3880   -0.3240   21.3070 C   0  0  0  0  0  0  0  0  0  0  0  0
    5.8042   -2.6512   19.8945 C   0  0  0  0  0  0  0  0  0  0  0  0
    8.8810   -1.1900   22.4510 C   0  0  0  0  0  0  0  0  0  0  0  0
    5.6070    1.4120   18.2904 N   0  0  0  0  0  0  0  0  0  0  0  0
    7.2820   -0.7860   20.6970 N   0  0  0  0  0  0  0  0  0  0  0  0
    7.8794   -3.0422   20.9871 O   0  0  0  0  0  0  0  0  0  0  0  0
    8.9170    0.7530   21.0260 O   0  0  0  0  0  0  0  0  0  0  0  0
   13.8840   -1.8490   21.2740 Cl  0  0  0  0  0  0  0  0  0  0  0  0
    2.2296    1.9195   23.0082 H   0  0  0  0  0  0  0  0  0  0  0  0
    3.8279    0.3376   24.0484 H   0  0  0  0  0  0  0  0  0  0  0  0
   12.2249    1.2198   24.6546 H   0  0  0  0  0  0  0  0  0  0  0  0
    2.5436    2.6495   20.6738 H   0  0  0  0  0  0  0  0  0  0  0  0
    5.7365   -0.5200   22.7774 H   0  0  0  0  0  0  0  0  0  0  0  0
    9.8763    0.5350   24.3454 H   0  0  0  0  0  0  0  0  0  0  0  0
   14.0077    0.1988   23.2842 H   0  0  0  0  0  0  0  0  0  0  0  0
   11.0892   -2.3009   21.3624 H   0  0  0  0  0  0  0  0  0  0  0  0
    3.9086    2.5416   18.5292 H   0  0  0  0  0  0  0  0  0  0  0  0
    7.2777    0.2180   18.2540 H   0  0  0  0  0  0  0  0  0  0  0  0
    5.9863   -2.7372   18.8188 H   0  0  0  0  0  0  0  0  0  0  0  0
    4.9930   -1.9327   20.0369 H   0  0  0  0  0  0  0  0  0  0  0  0
    5.5084   -3.6291   20.2820 H   0  0  0  0  0  0  0  0  0  0  0  0
    8.2417   -1.0065   23.3226 H   0  0  0  0  0  0  0  0  0  0  0  0
    8.7999   -2.2567   22.2114 H   0  0  0  0  0  0  0  0  0  0  0  0
  1  2  1  0  0  0  0
  1  4  2  0  0  0  0
  2  5  2  0  0  0  0
  3  6  2  0  0  0  0
  3  7  1  0  0  0  0
  4 11  1  0  0  0  0
  5 12  1  0  0  0  0
  6 13  1  0  0  0  0
  7 15  2  0  0  0  0
  8 13  2  0  0  0  0
  8 15  1  0  0  0  0
  9 11  2  0  0  0  0
  9 20  1  0  0  0  0
 10 14  1  0  0  0  0
 10 20  2  0  0  0  0
 11 12  1  0  0  0  0
 12 14  2  0  0  0  0
 13 19  1  0  0  0  0
 14 21  1  0  0  0  0
 15 24  1  0  0  0  0
 16 18  1  0  0  0  0
 16 21  1  0  0  0  0
 16 22  2  0  0  0  0
 17 19  1  0  0  0  0
 17 21  1  0  0  0  0
 17 23  2  0  0  0  0
  1 25  1  0  0  0  0
  2 26  1  0  0  0  0
  3 27  1  0  0  0  0
  4 28  1  0  0  0  0
  5 29  1  0  0  0  0
  6 30  1  0  0  0  0
  7 31  1  0  0  0  0
  8 32  1  0  0  0  0
  9 33  1  0  0  0  0
 10 34  1  0  0  0  0
 18 35  1  0  0  0  0
 18 36  1  0  0  0  0
 18 37  1  0  0  0  0
 19 38  1  0  0  0  0
 19 39  1  0  0  0  0
M  END
> <compound>
VLA-UCB-05e51b3f-17

> <compound_smiles>
CC(=O)N(c1cncc2c1cccc2)C(=O)Cc3cccc(c3)Cl

> <enantiomer_smiles>
CC(=O)N(c1cncc2c1cccc2)C(=O)Cc3cccc(c3)Cl

> <scaffold>
chlorobenzene-linker

> <clash_score>
0

> <docking_score>
-5.540304660797119

> <overlap_score>
0.9405484199523926

> <MMFF_internal_energy>
109.99193524223519

> <docked_smiles>
CC(=O)N(c1cncc2c1cccc2)C(=O)Cc3cccc(c3)Cl

$$$$
ALP-POS-8b8a49e1-5_2
  -OEChem-07262101023D

 30 31  0     1  0  0  0  0  0999 V2000
   11.9780    0.4600   23.9150 C   0  0  0  0  0  0  0  0  0  0  0  0
   10.6560    0.0720   23.7350 C   0  0  0  0  0  0  0  0  0  0  0  0
   12.9840   -0.1200   23.1530 C   0  0  0  0  0  0  0  0  0  0  0  0
   11.3360   -1.5050   22.0650 C   0  0  0  0  0  0  0  0  0  0  0  0
   10.3220   -0.8940   22.7910 C   0  0  0  0  0  0  0  0  0  0  0  0
   12.6400   -1.1000   22.2390 C   0  0  0  0  0  0  0  0  0  0  0  0
    4.7900   -0.0896   18.1324 C   0  0  0  0  0  0  0  0  0  0  0  0
    8.3880   -0.3240   21.3070 C   0  0  0  0  0  0  0  0  0  0  0  0
    5.8849   -0.9818   18.6683 C   0  0  0  0  0  0  0  0  0  0  0  0
    5.5128    0.8513   20.1668 C   0  0  0  0  0  0  0  0  0  0  0  0
    6.6077   -0.0678   19.6561 C   0  0  1  0  0  0  0  0  0  0  0  0
    8.8810   -1.1900   22.4510 C   0  0  0  0  0  0  0  0  0  0  0  0
    4.6257    0.9525   19.0397 N   0  0  0  0  0  0  0  0  0  0  0  0
    7.2820   -0.7860   20.6970 N   0  0  0  0  0  0  0  0  0  0  0  0
    4.1508   -0.2896   17.1112 O   0  0  0  0  0  0  0  0  0  0  0  0
    8.9170    0.7530   21.0260 O   0  0  0  0  0  0  0  0  0  0  0  0
   13.8840   -1.8490   21.2740 Cl  0  0  0  0  0  0  0  0  0  0  0  0
   12.2249    1.2198   24.6546 H   0  0  0  0  0  0  0  0  0  0  0  0
    9.8763    0.5350   24.3454 H   0  0  0  0  0  0  0  0  0  0  0  0
   14.0077    0.1988   23.2842 H   0  0  0  0  0  0  0  0  0  0  0  0
   11.0892   -2.3009   21.3624 H   0  0  0  0  0  0  0  0  0  0  0  0
    5.4193   -1.8437   19.1578 H   0  0  0  0  0  0  0  0  0  0  0  0
    6.5447   -1.3154   17.8633 H   0  0  0  0  0  0  0  0  0  0  0  0
    4.9443    0.4209   20.9979 H   0  0  0  0  0  0  0  0  0  0  0  0
    5.8798    1.8434   20.4423 H   0  0  0  0  0  0  0  0  0  0  0  0
    7.3660    0.5216   19.1254 H   0  0  0  0  0  0  0  0  0  0  0  0
    8.7773   -2.2383   22.1737 H   0  0  0  0  0  0  0  0  0  0  0  0
    8.2516   -1.0144   23.3225 H   0  0  0  0  0  0  0  0  0  0  0  0
    3.9526    1.7028   18.9190 H   0  0  0  0  0  0  0  0  0  0  0  0
    6.9057   -1.6892   20.9886 H   0  0  0  0  0  0  0  0  0  0  0  0
  1  2  1  0  0  0  0
  1  3  2  0  0  0  0
  2  5  2  0  0  0  0
  3  6  1  0  0  0  0
  4  5  1  0  0  0  0
  4  6  2  0  0  0  0
  5 12  1  0  0  0  0
  6 17  1  0  0  0  0
  7  9  1  0  0  0  0
  7 13  1  0  0  0  0
  7 15  2  0  0  0  0
  8 12  1  0  0  0  0
  8 14  1  0  0  0  0
  8 16  2  0  0  0  0
  9 11  1  0  0  0  0
 10 11  1  0  0  0  0
 10 13  1  0  0  0  0
 11 14  1  6  0  0  0
  1 18  1  0  0  0  0
  2 19  1  0  0  0  0
  3 20  1  0  0  0  0
  4 21  1  0  0  0  0
  9 22  1  0  0  0  0
  9 23  1  0  0  0  0
 10 24  1  0  0  0  0
 10 25  1  0  0  0  0
 11 26  1  0  0  0  0
 12 27  1  0  0  0  0
 12 28  1  0  0  0  0
 13 29  1  0  0  0  0
 14 30  1  0  0  0  0
M  END
> <compound>
ALP-POS-8b8a49e1-5

> <compound_smiles>
c1cc(cc(c1)Cl)CC(=O)NC2CC(=O)NC2

> <enantiomer_smiles>
c1cc(cc(c1)Cl)CC(=O)N[C@H]2CC(=O)NC2

> <scaffold>
chlorobenzene-linker

> <clash_score>
0.6588837165272358

> <docking_score>
-5.458438873291016

> <overlap_score>
0.7516830563545227

> <MMFF_internal_energy>
13.103137740184719

> <docked_smiles>
c1cc(cc(c1)Cl)CC(=O)N[C@H]2CC(=O)NC2

$$$$
ALP-POS-8b8a49e1-7_2
  -OEChem-07262101023D

 31 32  0     1  0  0  0  0  0999 V2000
   11.9780    0.4600   23.9150 C   0  0  0  0  0  0  0  0  0  0  0  0
   10.6560    0.0720   23.7350 C   0  0  0  0  0  0  0  0  0  0  0  0
   12.9840   -0.1200   23.1530 C   0  0  0  0  0  0  0  0  0  0  0  0
   11.3360   -1.5050   22.0650 C   0  0  0  0  0  0  0  0  0  0  0  0
   10.3220   -0.8940   22.7910 C   0  0  0  0  0  0  0  0  0  0  0  0
   12.6400   -1.1000   22.2390 C   0  0  0  0  0  0  0  0  0  0  0  0
    4.6136    0.9726   18.9804 C   0  0  0  0  0  0  0  0  0  0  0  0
    8.3880   -0.3240   21.3070 C   0  0  0  0  0  0  0  0  0  0  0  0
    4.9433   -0.0472   17.9202 C   0  0  0  0  0  0  0  0  0  0  0  0
    5.5098    0.8516   20.1870 C   0  0  0  0  0  0  0  0  0  0  0  0
    5.8877   -0.9816   18.6691 C   0  0  0  0  0  0  0  0  0  0  0  0
    6.6077   -0.0662   19.6550 C   0  0  1  0  0  0  0  0  0  0  0  0
    8.8810   -1.1900   22.4510 C   0  0  0  0  0  0  0  0  0  0  0  0
    7.2820   -0.7860   20.6970 N   0  0  0  0  0  0  0  0  0  0  0  0
    3.7194    1.8020   18.8747 O   0  0  0  0  0  0  0  0  0  0  0  0
    8.9170    0.7530   21.0260 O   0  0  0  0  0  0  0  0  0  0  0  0
   13.8840   -1.8490   21.2740 Cl  0  0  0  0  0  0  0  0  0  0  0  0
   12.2249    1.2198   24.6546 H   0  0  0  0  0  0  0  0  0  0  0  0
    9.8763    0.5350   24.3454 H   0  0  0  0  0  0  0  0  0  0  0  0
   14.0077    0.1988   23.2842 H   0  0  0  0  0  0  0  0  0  0  0  0
   11.0892   -2.3009   21.3624 H   0  0  0  0  0  0  0  0  0  0  0  0
    4.0469   -0.5663   17.5746 H   0  0  0  0  0  0  0  0  0  0  0  0
    5.4501    0.4529   17.0901 H   0  0  0  0  0  0  0  0  0  0  0  0
    5.9017    1.8263   20.4868 H   0  0  0  0  0  0  0  0  0  0  0  0
    4.9385    0.3919   20.9996 H   0  0  0  0  0  0  0  0  0  0  0  0
    5.3051   -1.7455   19.2000 H   0  0  0  0  0  0  0  0  0  0  0  0
    6.5775   -1.4921   17.9900 H   0  0  0  0  0  0  0  0  0  0  0  0
    7.3660    0.5228   19.1250 H   0  0  0  0  0  0  0  0  0  0  0  0
    8.7773   -2.2383   22.1737 H   0  0  0  0  0  0  0  0  0  0  0  0
    8.2516   -1.0144   23.3225 H   0  0  0  0  0  0  0  0  0  0  0  0
    6.9057   -1.6886   20.9882 H   0  0  0  0  0  0  0  0  0  0  0  0
  1  2  1  0  0  0  0
  1  3  2  0  0  0  0
  2  5  2  0  0  0  0
  3  6  1  0  0  0  0
  4  5  1  0  0  0  0
  4  6  2  0  0  0  0
  5 13  1  0  0  0  0
  6 17  1  0  0  0  0
  7  9  1  0  0  0  0
  7 10  1  0  0  0  0
  7 15  2  0  0  0  0
  8 13  1  0  0  0  0
  8 14  1  0  0  0  0
  8 16  2  0  0  0  0
  9 11  1  0  0  0  0
 10 12  1  0  0  0  0
 11 12  1  0  0  0  0
 12 14  1  6  0  0  0
  1 18  1  0  0  0  0
  2 19  1  0  0  0  0
  3 20  1  0  0  0  0
  4 21  1  0  0  0  0
  9 22  1  0  0  0  0
  9 23  1  0  0  0  0
 10 24  1  0  0  0  0
 10 25  1  0  0  0  0
 11 26  1  0  0  0  0
 11 27  1  0  0  0  0
 12 28  1  0  0  0  0
 13 29  1  0  0  0  0
 13 30  1  0  0  0  0
 14 31  1  0  0  0  0
M  END
> <compound>
ALP-POS-8b8a49e1-7

> <compound_smiles>
c1cc(cc(c1)Cl)CC(=O)NC2CCC(=O)C2

> <enantiomer_smiles>
c1cc(cc(c1)Cl)CC(=O)N[C@H]2CCC(=O)C2

> <scaffold>
chlorobenzene-linker

> <clash_score>
0

> <docking_score>
-5.877598762512207

> <overlap_score>
0.7881907820701599

> <MMFF_internal_energy>
21.886074441386196

> <docked_smiles>
c1cc(cc(c1)Cl)CC(=O)N[C@H]2CCC(=O)C2

$$$$
ALP-POS-8b8a49e1-6_2
  -OEChem-07262101023D

 35 37  0     1  0  0  0  0  0999 V2000
    3.3419    2.4292   20.8249 C   0  0  0  0  0  0  0  0  0  0  0  0
    4.5862    2.6650   21.4323 C   0  0  0  0  0  0  0  0  0  0  0  0
   11.9780    0.4600   23.9150 C   0  0  0  0  0  0  0  0  0  0  0  0
    3.1949    1.4123   19.8822 C   0  0  0  0  0  0  0  0  0  0  0  0
    5.7013    1.8855   21.1059 C   0  0  0  0  0  0  0  0  0  0  0  0
   10.6560    0.0720   23.7350 C   0  0  0  0  0  0  0  0  0  0  0  0
   12.9840   -0.1200   23.1530 C   0  0  0  0  0  0  0  0  0  0  0  0
   11.3360   -1.5050   22.0650 C   0  0  0  0  0  0  0  0  0  0  0  0
    4.3143    0.6576   19.5824 C   0  0  0  0  0  0  0  0  0  0  0  0
    5.5544    0.8673   20.1753 C   0  0  0  0  0  0  0  0  0  0  0  0
   10.3220   -0.8940   22.7910 C   0  0  0  0  0  0  0  0  0  0  0  0
   12.6400   -1.1000   22.2390 C   0  0  0  0  0  0  0  0  0  0  0  0
    4.4350   -0.4489   18.6469 C   0  0  0  0  0  0  0  0  0  0  0  0
    8.3880   -0.3240   21.3070 C   0  0  0  0  0  0  0  0  0  0  0  0
    5.8391   -1.0021   18.6991 C   0  0  0  0  0  0  0  0  0  0  0  0
    6.6082   -0.0629   19.6532 C   0  0  2  0  0  0  0  0  0  0  0  0
    8.8810   -1.1900   22.4510 C   0  0  0  0  0  0  0  0  0  0  0  0
    7.2820   -0.7860   20.6970 N   0  0  0  0  0  0  0  0  0  0  0  0
    3.5246   -0.8603   17.9509 O   0  0  0  0  0  0  0  0  0  0  0  0
    8.9170    0.7530   21.0260 O   0  0  0  0  0  0  0  0  0  0  0  0
   13.8840   -1.8490   21.2740 Cl  0  0  0  0  0  0  0  0  0  0  0  0
    2.4887    3.0470   21.0912 H   0  0  0  0  0  0  0  0  0  0  0  0
    4.6837    3.4649   22.1616 H   0  0  0  0  0  0  0  0  0  0  0  0
   12.2249    1.2198   24.6546 H   0  0  0  0  0  0  0  0  0  0  0  0
    2.2371    1.2285   19.4087 H   0  0  0  0  0  0  0  0  0  0  0  0
    6.6601    2.0822   21.5742 H   0  0  0  0  0  0  0  0  0  0  0  0
    9.8763    0.5350   24.3454 H   0  0  0  0  0  0  0  0  0  0  0  0
   14.0077    0.1988   23.2842 H   0  0  0  0  0  0  0  0  0  0  0  0
   11.0892   -2.3009   21.3624 H   0  0  0  0  0  0  0  0  0  0  0  0
    5.7994   -2.0327   19.0673 H   0  0  0  0  0  0  0  0  0  0  0  0
    6.2833   -0.9874   17.6990 H   0  0  0  0  0  0  0  0  0  0  0  0
    7.3651    0.5005   19.0964 H   0  0  0  0  0  0  0  0  0  0  0  0
    8.7773   -2.2383   22.1737 H   0  0  0  0  0  0  0  0  0  0  0  0
    8.2516   -1.0144   23.3225 H   0  0  0  0  0  0  0  0  0  0  0  0
    6.9055   -1.6873   20.9872 H   0  0  0  0  0  0  0  0  0  0  0  0
  1  2  1  0  0  0  0
  1  4  2  0  0  0  0
  2  5  2  0  0  0  0
  3  6  2  0  0  0  0
  3  7  1  0  0  0  0
  4  9  1  0  0  0  0
  5 10  1  0  0  0  0
  6 11  1  0  0  0  0
  7 12  2  0  0  0  0
  8 11  2  0  0  0  0
  8 12  1  0  0  0  0
  9 10  2  0  0  0  0
  9 13  1  0  0  0  0
 10 16  1  0  0  0  0
 11 17  1  0  0  0  0
 12 21  1  0  0  0  0
 13 15  1  0  0  0  0
 13 19  2  0  0  0  0
 14 17  1  0  0  0  0
 14 18  1  0  0  0  0
 14 20  2  0  0  0  0
 15 16  1  0  0  0  0
 16 18  1  6  0  0  0
  1 22  1  0  0  0  0
  2 23  1  0  0  0  0
  3 24  1  0  0  0  0
  4 25  1  0  0  0  0
  5 26  1  0  0  0  0
  6 27  1  0  0  0  0
  7 28  1  0  0  0  0
  8 29  1  0  0  0  0
 15 30  1  0  0  0  0
 15 31  1  0  0  0  0
 16 32  1  0  0  0  0
 17 33  1  0  0  0  0
 17 34  1  0  0  0  0
 18 35  1  0  0  0  0
M  END
> <compound>
ALP-POS-8b8a49e1-6

> <compound_smiles>
c1ccc2c(c1)C(CC2=O)NC(=O)Cc3cccc(c3)Cl

> <enantiomer_smiles>
c1ccc2c(c1)[C@H](CC2=O)NC(=O)Cc3cccc(c3)Cl

> <scaffold>
chlorobenzene-linker

> <canonical_CID>
ALP-POS-8b8a49e1-6

> <r_inhibition_at_20_uM>

> <r_inhibition_at_50_uM>

> <r_avg_IC50>

> <f_inhibition_at_20_uM>

> <f_inhibition_at_50_uM>

> <f_avg_IC50>
53.7587644021632

> <f_avg_pIC50>

> <relative_solubility_at_20_uM>

> <relative_solubility_at_100_uM>

> <trypsin_IC50>

> <NMR_std_ratio>

> <acrylamide>
False

> <chloroacetamide>
False

> <series>
3-aminopyridine-like

> <frag_id>

> <clash_score>
1.7081601588795325

> <docking_score>
-4.778533458709717

> <overlap_score>
0.8566766381263733

> <MMFF_internal_energy>
43.81988696962861

> <docked_smiles>
c1ccc2c(c1)[C@H](CC2=O)NC(=O)Cc3cccc(c3)Cl

$$$$
VLA-UCB-05e51b3f-16_1
  -OEChem-07262101023D

 40 42  0     0  0  0  0  0  0999 V2000
    3.6628    2.8182   20.4076 C   0  0  0  0  0  0  0  0  0  0  0  0
    4.2152    2.1158   21.4761 C   0  0  0  0  0  0  0  0  0  0  0  0
   11.9780    0.4600   23.9150 C   0  0  0  0  0  0  0  0  0  0  0  0
    4.1066    2.5750   19.1079 C   0  0  0  0  0  0  0  0  0  0  0  0
    5.2139    1.1670   21.2498 C   0  0  0  0  0  0  0  0  0  0  0  0
   10.6560    0.0720   23.7350 C   0  0  0  0  0  0  0  0  0  0  0  0
   12.9840   -0.1200   23.1530 C   0  0  0  0  0  0  0  0  0  0  0  0
   11.3360   -1.5050   22.0650 C   0  0  0  0  0  0  0  0  0  0  0  0
    5.5922    1.3394   17.5887 C   0  0  0  0  0  0  0  0  0  0  0  0
    7.0709   -0.2324   18.3748 C   0  0  0  0  0  0  0  0  0  0  0  0
    5.1109    1.6225   18.8685 C   0  0  0  0  0  0  0  0  0  0  0  0
    5.6726    0.9093   19.9476 C   0  0  0  0  0  0  0  0  0  0  0  0
   10.3220   -0.8940   22.7910 C   0  0  0  0  0  0  0  0  0  0  0  0
    6.6722   -0.0355   19.6881 C   0  0  0  0  0  0  0  0  0  0  0  0
   12.6400   -1.1000   22.2390 C   0  0  0  0  0  0  0  0  0  0  0  0
    5.9897   -4.1403   20.0170 C   0  0  0  0  0  0  0  0  0  0  0  0
    6.0179   -2.8043   20.0089 C   0  0  0  0  0  0  0  0  0  0  0  0
    6.7293   -2.0547   21.0866 C   0  0  0  0  0  0  0  0  0  0  0  0
    8.3880   -0.3240   21.3070 C   0  0  0  0  0  0  0  0  0  0  0  0
    8.8810   -1.1900   22.4510 C   0  0  0  0  0  0  0  0  0  0  0  0
    6.5564    0.4311   17.3175 N   0  0  0  0  0  0  0  0  0  0  0  0
    7.2820   -0.7860   20.6970 N   0  0  0  0  0  0  0  0  0  0  0  0
    6.8240   -2.5145   22.2237 O   0  0  0  0  0  0  0  0  0  0  0  0
    8.9170    0.7530   21.0260 O   0  0  0  0  0  0  0  0  0  0  0  0
   13.8840   -1.8490   21.2740 Cl  0  0  0  0  0  0  0  0  0  0  0  0
    2.8859    3.5556   20.5865 H   0  0  0  0  0  0  0  0  0  0  0  0
    3.8680    2.3066   22.4875 H   0  0  0  0  0  0  0  0  0  0  0  0
   12.2249    1.2198   24.6546 H   0  0  0  0  0  0  0  0  0  0  0  0
    3.6644    3.1322   18.2852 H   0  0  0  0  0  0  0  0  0  0  0  0
    5.6208    0.6398   22.1096 H   0  0  0  0  0  0  0  0  0  0  0  0
    9.8763    0.5350   24.3454 H   0  0  0  0  0  0  0  0  0  0  0  0
   14.0077    0.1988   23.2842 H   0  0  0  0  0  0  0  0  0  0  0  0
   11.0892   -2.3009   21.3624 H   0  0  0  0  0  0  0  0  0  0  0  0
    5.2027    1.8524   16.7137 H   0  0  0  0  0  0  0  0  0  0  0  0
    7.8420   -0.9544   18.1213 H   0  0  0  0  0  0  0  0  0  0  0  0
    5.4591   -4.6759   19.2367 H   0  0  0  0  0  0  0  0  0  0  0  0
    6.4841   -4.7307   20.7802 H   0  0  0  0  0  0  0  0  0  0  0  0
    5.5011   -2.2529   19.2316 H   0  0  0  0  0  0  0  0  0  0  0  0
    8.7694   -2.2423   22.1628 H   0  0  0  0  0  0  0  0  0  0  0  0
    8.2812   -1.0412   23.3569 H   0  0  0  0  0  0  0  0  0  0  0  0
  1  2  1  0  0  0  0
  1  4  2  0  0  0  0
  2  5  2  0  0  0  0
  3  6  2  0  0  0  0
  3  7  1  0  0  0  0
  4 11  1  0  0  0  0
  5 12  1  0  0  0  0
  6 13  1  0  0  0  0
  7 15  2  0  0  0  0
  8 13  2  0  0  0  0
  8 15  1  0  0  0  0
  9 11  2  0  0  0  0
  9 21  1  0  0  0  0
 10 14  1  0  0  0  0
 10 21  2  0  0  0  0
 11 12  1  0  0  0  0
 12 14  2  0  0  0  0
 13 20  1  0  0  0  0
 14 22  1  0  0  0  0
 15 25  1  0  0  0  0
 16 17  2  0  0  0  0
 17 18  1  0  0  0  0
 18 22  1  0  0  0  0
 18 23  2  0  0  0  0
 19 20  1  0  0  0  0
 19 22  1  0  0  0  0
 19 24  2  0  0  0  0
  1 26  1  0  0  0  0
  2 27  1  0  0  0  0
  3 28  1  0  0  0  0
  4 29  1  0  0  0  0
  5 30  1  0  0  0  0
  6 31  1  0  0  0  0
  7 32  1  0  0  0  0
  8 33  1  0  0  0  0
  9 34  1  0  0  0  0
 10 35  1  0  0  0  0
 16 36  1  0  0  0  0
 16 37  1  0  0  0  0
 17 38  1  0  0  0  0
 20 39  1  0  0  0  0
 20 40  1  0  0  0  0
M  END
> <compound>
VLA-UCB-05e51b3f-16

> <compound_smiles>
C=CC(=O)N(c1cncc2c1cccc2)C(=O)Cc3cccc(c3)Cl

> <enantiomer_smiles>
C=CC(=O)N(c1cncc2c1cccc2)C(=O)Cc3cccc(c3)Cl

> <scaffold>
chlorobenzene-linker

> <clash_score>
0

> <docking_score>
-9.416003227233887

> <overlap_score>
0.9840629696846008

> <MMFF_internal_energy>
113.21814846167258

> <docked_smiles>
C=CC(=O)N(c1cncc2c1cccc2)C(=O)Cc3cccc(c3)Cl

$$$$
ALP-POS-8b8a49e1-8_2
  -OEChem-07262101023D

 33 34  0     1  0  0  0  0  0999 V2000
   11.9780    0.4600   23.9150 C   0  0  0  0  0  0  0  0  0  0  0  0
   10.6560    0.0720   23.7350 C   0  0  0  0  0  0  0  0  0  0  0  0
   12.9840   -0.1200   23.1530 C   0  0  0  0  0  0  0  0  0  0  0  0
   11.3360   -1.5050   22.0650 C   0  0  0  0  0  0  0  0  0  0  0  0
   10.3220   -0.8940   22.7910 C   0  0  0  0  0  0  0  0  0  0  0  0
   12.6400   -1.1000   22.2390 C   0  0  0  0  0  0  0  0  0  0  0  0
    4.7104    1.5798   19.1912 C   0  0  0  0  0  0  0  0  0  0  0  0
    8.3880   -0.3240   21.3070 C   0  0  0  0  0  0  0  0  0  0  0  0
    5.5598    0.8816   20.2343 C   0  0  0  0  0  0  0  0  0  0  0  0
    5.9448   -1.0103   18.6620 C   0  0  0  0  0  0  0  0  0  0  0  0
    5.3205   -0.2102   17.5318 C   0  0  0  0  0  0  0  0  0  0  0  0
    6.6082   -0.0576   19.6497 C   0  0  1  0  0  0  0  0  0  0  0  0
    8.8810   -1.1900   22.4510 C   0  0  0  0  0  0  0  0  0  0  0  0
    4.5539    0.9350   17.9851 N   0  0  0  0  0  0  0  0  0  0  0  0
    7.2820   -0.7860   20.6970 N   0  0  0  0  0  0  0  0  0  0  0  0
    4.1293    2.6335   19.4575 O   0  0  0  0  0  0  0  0  0  0  0  0
    8.9170    0.7530   21.0260 O   0  0  0  0  0  0  0  0  0  0  0  0
   13.8840   -1.8490   21.2740 Cl  0  0  0  0  0  0  0  0  0  0  0  0
   12.2249    1.2198   24.6546 H   0  0  0  0  0  0  0  0  0  0  0  0
    9.8763    0.5350   24.3454 H   0  0  0  0  0  0  0  0  0  0  0  0
   14.0077    0.1988   23.2842 H   0  0  0  0  0  0  0  0  0  0  0  0
   11.0892   -2.3008   21.3624 H   0  0  0  0  0  0  0  0  0  0  0  0
    6.0514    1.6527   20.8395 H   0  0  0  0  0  0  0  0  0  0  0  0
    4.8701    0.3309   20.8867 H   0  0  0  0  0  0  0  0  0  0  0  0
    5.1713   -1.6063   19.1631 H   0  0  0  0  0  0  0  0  0  0  0  0
    6.6787   -1.7116   18.2478 H   0  0  0  0  0  0  0  0  0  0  0  0
    6.1008    0.1814   16.8696 H   0  0  0  0  0  0  0  0  0  0  0  0
    4.6582   -0.8394   16.9289 H   0  0  0  0  0  0  0  0  0  0  0  0
    7.3797    0.5253   19.1314 H   0  0  0  0  0  0  0  0  0  0  0  0
    8.7773   -2.2383   22.1737 H   0  0  0  0  0  0  0  0  0  0  0  0
    8.2516   -1.0144   23.3225 H   0  0  0  0  0  0  0  0  0  0  0  0
    3.8395    1.2920   17.3580 H   0  0  0  0  0  0  0  0  0  0  0  0
    6.9053   -1.6854   20.9858 H   0  0  0  0  0  0  0  0  0  0  0  0
  1  2  1  0  0  0  0
  1  3  2  0  0  0  0
  2  5  2  0  0  0  0
  3  6  1  0  0  0  0
  4  5  1  0  0  0  0
  4  6  2  0  0  0  0
  5 13  1  0  0  0  0
  6 18  1  0  0  0  0
  7  9  1  0  0  0  0
  7 14  1  0  0  0  0
  7 16  2  0  0  0  0
  8 13  1  0  0  0  0
  8 15  1  0  0  0  0
  8 17  2  0  0  0  0
  9 12  1  0  0  0  0
 10 11  1  0  0  0  0
 10 12  1  0  0  0  0
 11 14  1  0  0  0  0
 12 15  1  6  0  0  0
  1 19  1  0  0  0  0
  2 20  1  0  0  0  0
  3 21  1  0  0  0  0
  4 22  1  0  0  0  0
  9 23  1  0  0  0  0
  9 24  1  0  0  0  0
 10 25  1  0  0  0  0
 10 26  1  0  0  0  0
 11 27  1  0  0  0  0
 11 28  1  0  0  0  0
 12 29  1  0  0  0  0
 13 30  1  0  0  0  0
 13 31  1  0  0  0  0
 14 32  1  0  0  0  0
 15 33  1  0  0  0  0
M  END
> <compound>
ALP-POS-8b8a49e1-8

> <compound_smiles>
c1cc(cc(c1)Cl)CC(=O)NC2CCNC(=O)C2

> <enantiomer_smiles>
c1cc(cc(c1)Cl)CC(=O)N[C@H]2CCNC(=O)C2

> <scaffold>
chlorobenzene-linker

> <clash_score>
0

> <docking_score>
-7.567782402038574

> <overlap_score>
0.8254151344299316

> <MMFF_internal_energy>
-4.103760341440672

> <docked_smiles>
c1cc(cc(c1)Cl)CC(=O)N[C@H]2CCNC(=O)C2

$$$$
ALP-POS-8b8a49e1-7_1
  -OEChem-07262101023D

 31 32  0     1  0  0  0  0  0999 V2000
   11.9780    0.4600   23.9150 C   0  0  0  0  0  0  0  0  0  0  0  0
   10.6560    0.0720   23.7350 C   0  0  0  0  0  0  0  0  0  0  0  0
   12.9840   -0.1200   23.1530 C   0  0  0  0  0  0  0  0  0  0  0  0
   11.3360   -1.5050   22.0650 C   0  0  0  0  0  0  0  0  0  0  0  0
   10.3220   -0.8940   22.7910 C   0  0  0  0  0  0  0  0  0  0  0  0
   12.6400   -1.1000   22.2390 C   0  0  0  0  0  0  0  0  0  0  0  0
    4.8083   -0.0681   18.1462 C   0  0  0  0  0  0  0  0  0  0  0  0
    8.3880   -0.3240   21.3070 C   0  0  0  0  0  0  0  0  0  0  0  0
    4.6747    1.1917   18.9622 C   0  0  0  0  0  0  0  0  0  0  0  0
    5.8890   -0.9774   18.6723 C   0  0  0  0  0  0  0  0  0  0  0  0
    5.5170    0.8596   20.1875 C   0  0  0  0  0  0  0  0  0  0  0  0
    6.6130   -0.0599   19.6552 C   0  0  2  0  0  0  0  0  0  0  0  0
    8.8810   -1.1900   22.4510 C   0  0  0  0  0  0  0  0  0  0  0  0
    7.2820   -0.7860   20.6970 N   0  0  0  0  0  0  0  0  0  0  0  0
    4.1188   -0.3231   17.1671 O   0  0  0  0  0  0  0  0  0  0  0  0
    8.9170    0.7530   21.0260 O   0  0  0  0  0  0  0  0  0  0  0  0
   13.8840   -1.8490   21.2740 Cl  0  0  0  0  0  0  0  0  0  0  0  0
   12.2249    1.2198   24.6546 H   0  0  0  0  0  0  0  0  0  0  0  0
    9.8763    0.5350   24.3454 H   0  0  0  0  0  0  0  0  0  0  0  0
   14.0077    0.1988   23.2842 H   0  0  0  0  0  0  0  0  0  0  0  0
   11.0892   -2.3009   21.3624 H   0  0  0  0  0  0  0  0  0  0  0  0
    5.0659    2.0564   18.4222 H   0  0  0  0  0  0  0  0  0  0  0  0
    3.6230    1.3391   19.2226 H   0  0  0  0  0  0  0  0  0  0  0  0
    5.4694   -1.8670   19.1448 H   0  0  0  0  0  0  0  0  0  0  0  0
    6.5434   -1.2573   17.8427 H   0  0  0  0  0  0  0  0  0  0  0  0
    5.9701    1.7754   20.5822 H   0  0  0  0  0  0  0  0  0  0  0  0
    4.9261    0.4094   20.9880 H   0  0  0  0  0  0  0  0  0  0  0  0
    7.3976    0.5270   19.1356 H   0  0  0  0  0  0  0  0  0  0  0  0
    8.7773   -2.2383   22.1737 H   0  0  0  0  0  0  0  0  0  0  0  0
    8.2516   -1.0144   23.3225 H   0  0  0  0  0  0  0  0  0  0  0  0
    6.9052   -1.6844   20.9850 H   0  0  0  0  0  0  0  0  0  0  0  0
  1  2  1  0  0  0  0
  1  3  2  0  0  0  0
  2  5  2  0  0  0  0
  3  6  1  0  0  0  0
  4  5  1  0  0  0  0
  4  6  2  0  0  0  0
  5 13  1  0  0  0  0
  6 17  1  0  0  0  0
  7  9  1  0  0  0  0
  7 10  1  0  0  0  0
  7 15  2  0  0  0  0
  8 13  1  0  0  0  0
  8 14  1  0  0  0  0
  8 16  2  0  0  0  0
  9 11  1  0  0  0  0
 10 12  1  0  0  0  0
 11 12  1  0  0  0  0
 12 14  1  1  0  0  0
  1 18  1  0  0  0  0
  2 19  1  0  0  0  0
  3 20  1  0  0  0  0
  4 21  1  0  0  0  0
  9 22  1  0  0  0  0
  9 23  1  0  0  0  0
 10 24  1  0  0  0  0
 10 25  1  0  0  0  0
 11 26  1  0  0  0  0
 11 27  1  0  0  0  0
 12 28  1  0  0  0  0
 13 29  1  0  0  0  0
 13 30  1  0  0  0  0
 14 31  1  0  0  0  0
M  END
> <compound>
ALP-POS-8b8a49e1-7

> <compound_smiles>
c1cc(cc(c1)Cl)CC(=O)NC2CCC(=O)C2

> <enantiomer_smiles>
c1cc(cc(c1)Cl)CC(=O)N[C@@H]2CCC(=O)C2

> <scaffold>
chlorobenzene-linker

> <clash_score>
0.6773231772030903

> <docking_score>
-5.720044136047363

> <overlap_score>
0.7543922662734985

> <MMFF_internal_energy>
22.89891727140124

> <docked_smiles>
c1cc(cc(c1)Cl)CC(=O)N[C@@H]2CCC(=O)C2

$$$$
EDJ-MED-c8e7a002-1_1
  -OEChem-07262101023D

 35 37  0     0  0  0  0  0  0999 V2000
   11.9780    0.4600   23.9150 C   0  0  0  0  0  0  0  0  0  0  0  0
    5.7559    2.0651   20.7463 C   0  0  0  0  0  0  0  0  0  0  0  0
   10.6560    0.0720   23.7350 C   0  0  0  0  0  0  0  0  0  0  0  0
    5.0006    3.1961   20.4053 C   0  0  0  0  0  0  0  0  0  0  0  0
   12.9840   -0.1200   23.1530 C   0  0  0  0  0  0  0  0  0  0  0  0
   11.3360   -1.5050   22.0650 C   0  0  0  0  0  0  0  0  0  0  0  0
    4.5511    2.3178   18.1753 C   0  0  0  0  0  0  0  0  0  0  0  0
    5.9051    1.0542   19.7856 C   0  0  0  0  0  0  0  0  0  0  0  0
   10.3220   -0.8940   22.7910 C   0  0  0  0  0  0  0  0  0  0  0  0
    5.3066    1.2099   18.5475 C   0  0  0  0  0  0  0  0  0  0  0  0
    4.4104    3.3179   19.1430 C   0  0  0  0  0  0  0  0  0  0  0  0
   12.6400   -1.1000   22.2390 C   0  0  0  0  0  0  0  0  0  0  0  0
    6.5430   -0.1977   19.6893 C   0  0  0  0  0  0  0  0  0  0  0  0
    8.3880   -0.3240   21.3070 C   0  0  0  0  0  0  0  0  0  0  0  0
    3.5712    5.4208   19.8705 C   0  0  0  0  0  0  0  0  0  0  0  0
    8.8810   -1.1900   22.4510 C   0  0  0  0  0  0  0  0  0  0  0  0
    6.3588   -0.7726   18.4971 N   0  0  0  0  0  0  0  0  0  0  0  0
    7.2820   -0.7860   20.6970 N   0  0  0  0  0  0  0  0  0  0  0  0
    8.9170    0.7530   21.0260 O   0  0  0  0  0  0  0  0  0  0  0  0
    5.5755    0.1208   17.7766 O   0  0  0  0  0  0  0  0  0  0  0  0
    3.6827    4.4335   18.8485 O   0  0  0  0  0  0  0  0  0  0  0  0
   13.8840   -1.8490   21.2740 Cl  0  0  0  0  0  0  0  0  0  0  0  0
   12.2249    1.2198   24.6546 H   0  0  0  0  0  0  0  0  0  0  0  0
    6.2065    1.9835   21.7305 H   0  0  0  0  0  0  0  0  0  0  0  0
    9.8763    0.5350   24.3454 H   0  0  0  0  0  0  0  0  0  0  0  0
    4.8755    3.9881   21.1402 H   0  0  0  0  0  0  0  0  0  0  0  0
   14.0077    0.1988   23.2842 H   0  0  0  0  0  0  0  0  0  0  0  0
   11.0892   -2.3009   21.3624 H   0  0  0  0  0  0  0  0  0  0  0  0
    4.1005    2.3988   17.1931 H   0  0  0  0  0  0  0  0  0  0  0  0
    2.9672    6.2558   19.5072 H   0  0  0  0  0  0  0  0  0  0  0  0
    4.5679    5.7722   20.1492 H   0  0  0  0  0  0  0  0  0  0  0  0
    3.0867    4.9761   20.7430 H   0  0  0  0  0  0  0  0  0  0  0  0
    8.7774   -2.2383   22.1732 H   0  0  0  0  0  0  0  0  0  0  0  0
    8.2557   -1.0153   23.3257 H   0  0  0  0  0  0  0  0  0  0  0  0
    6.9395   -1.7032   21.0261 H   0  0  0  0  0  0  0  0  0  0  0  0
  1  3  2  0  0  0  0
  1  5  1  0  0  0  0
  2  4  2  0  0  0  0
  2  8  1  0  0  0  0
  3  9  1  0  0  0  0
  4 11  1  0  0  0  0
  5 12  2  0  0  0  0
  6  9  2  0  0  0  0
  6 12  1  0  0  0  0
  7 10  1  0  0  0  0
  7 11  2  0  0  0  0
  8 10  2  0  0  0  0
  8 13  1  0  0  0  0
  9 16  1  0  0  0  0
 10 20  1  0  0  0  0
 11 21  1  0  0  0  0
 12 22  1  0  0  0  0
 13 17  2  0  0  0  0
 13 18  1  0  0  0  0
 14 16  1  0  0  0  0
 14 18  1  0  0  0  0
 14 19  2  0  0  0  0
 15 21  1  0  0  0  0
 17 20  1  0  0  0  0
  1 23  1  0  0  0  0
  2 24  1  0  0  0  0
  3 25  1  0  0  0  0
  4 26  1  0  0  0  0
  5 27  1  0  0  0  0
  6 28  1  0  0  0  0
  7 29  1  0  0  0  0
 15 30  1  0  0  0  0
 15 31  1  0  0  0  0
 15 32  1  0  0  0  0
 16 33  1  0  0  0  0
 16 34  1  0  0  0  0
 18 35  1  0  0  0  0
M  END
> <compound>
EDJ-MED-c8e7a002-1

> <compound_smiles>
COc1ccc2c(c1)onc2NC(=O)Cc3cccc(c3)Cl

> <enantiomer_smiles>
COc1ccc2c(c1)onc2NC(=O)Cc3cccc(c3)Cl

> <scaffold>
chlorobenzene-linker

> <canonical_CID>
EDJ-MED-c8e7a002-1

> <r_inhibition_at_20_uM>

> <r_inhibition_at_50_uM>

> <r_avg_IC50>
99.0

> <f_inhibition_at_20_uM>

> <f_inhibition_at_50_uM>

> <f_avg_IC50>
99.5

> <f_avg_pIC50>

> <relative_solubility_at_20_uM>

> <relative_solubility_at_100_uM>

> <trypsin_IC50>

> <NMR_std_ratio>

> <acrylamide>
False

> <chloroacetamide>
False

> <series>
3-aminopyridine-like

> <frag_id>

> <clash_score>
1.454909169756185

> <docking_score>
-3.307006597518921

> <overlap_score>
0.8517985939979553

> <MMFF_internal_energy>
50.47052833547747

> <docked_smiles>
COc1ccc2c(c1)onc2NC(=O)Cc3cccc(c3)Cl

$$$$
EDJ-MED-c8e7a002-3_1
  -OEChem-07262101023D

 36 38  0     0  0  0  0  0  0999 V2000
   11.9780    0.4600   23.9150 C   0  0  0  0  0  0  0  0  0  0  0  0
    5.7767    2.0548   20.7738 C   0  0  0  0  0  0  0  0  0  0  0  0
   10.6560    0.0720   23.7350 C   0  0  0  0  0  0  0  0  0  0  0  0
    5.0302    3.2004   20.4706 C   0  0  0  0  0  0  0  0  0  0  0  0
   12.9840   -0.1200   23.1530 C   0  0  0  0  0  0  0  0  0  0  0  0
   11.3360   -1.5050   22.0650 C   0  0  0  0  0  0  0  0  0  0  0  0
    4.5460    2.3716   18.2331 C   0  0  0  0  0  0  0  0  0  0  0  0
    5.9063    1.0590   19.7914 C   0  0  0  0  0  0  0  0  0  0  0  0
   10.3220   -0.8940   22.7910 C   0  0  0  0  0  0  0  0  0  0  0  0
    5.2945    1.2375   18.5556 C   0  0  0  0  0  0  0  0  0  0  0  0
    4.4262    3.3542   19.2213 C   0  0  0  0  0  0  0  0  0  0  0  0
   12.6400   -1.1000   22.2390 C   0  0  0  0  0  0  0  0  0  0  0  0
    6.5430   -0.1966   19.6884 C   0  0  0  0  0  0  0  0  0  0  0  0
    8.3880   -0.3240   21.3070 C   0  0  0  0  0  0  0  0  0  0  0  0
    3.6168    5.4499   20.0013 C   0  0  0  0  0  0  0  0  0  0  0  0
    8.8810   -1.1900   22.4510 C   0  0  0  0  0  0  0  0  0  0  0  0
    6.3602   -0.7744   18.4990 N   0  0  0  0  0  0  0  0  0  0  0  0
    5.6024    0.1147   17.8357 N   0  0  0  0  0  0  0  0  0  0  0  0
    7.2820   -0.7860   20.6970 N   0  0  0  0  0  0  0  0  0  0  0  0
    8.9170    0.7530   21.0260 O   0  0  0  0  0  0  0  0  0  0  0  0
    3.7061    4.4820   18.9585 O   0  0  0  0  0  0  0  0  0  0  0  0
   13.8840   -1.8490   21.2740 Cl  0  0  0  0  0  0  0  0  0  0  0  0
   12.2249    1.2198   24.6546 H   0  0  0  0  0  0  0  0  0  0  0  0
    6.2411    1.9488   21.7496 H   0  0  0  0  0  0  0  0  0  0  0  0
    9.8763    0.5350   24.3454 H   0  0  0  0  0  0  0  0  0  0  0  0
    4.9235    3.9772   21.2244 H   0  0  0  0  0  0  0  0  0  0  0  0
   14.0077    0.1988   23.2842 H   0  0  0  0  0  0  0  0  0  0  0  0
   11.0892   -2.3009   21.3624 H   0  0  0  0  0  0  0  0  0  0  0  0
    4.0802    2.4846   17.2600 H   0  0  0  0  0  0  0  0  0  0  0  0
    3.0165    6.2977   19.6622 H   0  0  0  0  0  0  0  0  0  0  0  0
    4.6202    5.7863   20.2743 H   0  0  0  0  0  0  0  0  0  0  0  0
    3.1388    4.9926   20.8709 H   0  0  0  0  0  0  0  0  0  0  0  0
    8.7775   -2.2383   22.1732 H   0  0  0  0  0  0  0  0  0  0  0  0
    8.2557   -1.0153   23.3257 H   0  0  0  0  0  0  0  0  0  0  0  0
    5.3277   -0.1051   16.8864 H   0  0  0  0  0  0  0  0  0  0  0  0
    6.9394   -1.7027   21.0257 H   0  0  0  0  0  0  0  0  0  0  0  0
  1  3  2  0  0  0  0
  1  5  1  0  0  0  0
  2  4  2  0  0  0  0
  2  8  1  0  0  0  0
  3  9  1  0  0  0  0
  4 11  1  0  0  0  0
  5 12  2  0  0  0  0
  6  9  2  0  0  0  0
  6 12  1  0  0  0  0
  7 10  1  0  0  0  0
  7 11  2  0  0  0  0
  8 10  2  0  0  0  0
  8 13  1  0  0  0  0
  9 16  1  0  0  0  0
 10 18  1  0  0  0  0
 11 21  1  0  0  0  0
 12 22  1  0  0  0  0
 13 17  2  0  0  0  0
 13 19  1  0  0  0  0
 14 16  1  0  0  0  0
 14 19  1  0  0  0  0
 14 20  2  0  0  0  0
 15 21  1  0  0  0  0
 17 18  1  0  0  0  0
  1 23  1  0  0  0  0
  2 24  1  0  0  0  0
  3 25  1  0  0  0  0
  4 26  1  0  0  0  0
  5 27  1  0  0  0  0
  6 28  1  0  0  0  0
  7 29  1  0  0  0  0
 15 30  1  0  0  0  0
 15 31  1  0  0  0  0
 15 32  1  0  0  0  0
 16 33  1  0  0  0  0
 16 34  1  0  0  0  0
 18 35  1  0  0  0  0
 19 36  1  0  0  0  0
M  END
> <compound>
EDJ-MED-c8e7a002-3

> <compound_smiles>
COc1ccc2c(c1)n[nH]c2NC(=O)Cc3cccc(c3)Cl

> <enantiomer_smiles>
COc1ccc2c(c1)n[nH]c2NC(=O)Cc3cccc(c3)Cl

> <scaffold>
chlorobenzene-linker

> <canonical_CID>
EDJ-MED-c8e7a002-3

> <r_inhibition_at_20_uM>

> <r_inhibition_at_50_uM>

> <r_avg_IC50>
52.0493973733507

> <f_inhibition_at_20_uM>

> <f_inhibition_at_50_uM>

> <f_avg_IC50>
99.5

> <f_avg_pIC50>

> <relative_solubility_at_20_uM>

> <relative_solubility_at_100_uM>

> <trypsin_IC50>

> <NMR_std_ratio>

> <acrylamide>
False

> <chloroacetamide>
False

> <series>
3-aminopyridine-like

> <frag_id>

> <clash_score>
1.464313583144465

> <docking_score>
-3.071049213409424

> <overlap_score>
0.8503981232643127

> <MMFF_internal_energy>
48.12149641164366

> <docked_smiles>
COc1ccc2c(c1)[nH]nc2NC(=O)Cc3cccc(c3)Cl

$$$$
EDJ-MED-c8e7a002-2_1
  -OEChem-07262101023D

 36 38  0     0  0  0  0  0  0999 V2000
   11.9780    0.4600   23.9150 C   0  0  0  0  0  0  0  0  0  0  0  0
   10.6560    0.0720   23.7350 C   0  0  0  0  0  0  0  0  0  0  0  0
    4.5461    2.3704   18.2313 C   0  0  0  0  0  0  0  0  0  0  0  0
    4.4256    3.3533   19.2191 C   0  0  0  0  0  0  0  0  0  0  0  0
   12.9840   -0.1200   23.1530 C   0  0  0  0  0  0  0  0  0  0  0  0
    5.7757    2.0549   20.7728 C   0  0  0  0  0  0  0  0  0  0  0  0
   11.3360   -1.5050   22.0650 C   0  0  0  0  0  0  0  0  0  0  0  0
    5.9060    1.0587   19.7908 C   0  0  0  0  0  0  0  0  0  0  0  0
   10.3220   -0.8940   22.7910 C   0  0  0  0  0  0  0  0  0  0  0  0
    5.2948    1.2366   18.5546 C   0  0  0  0  0  0  0  0  0  0  0  0
    5.0291    3.2002   20.4688 C   0  0  0  0  0  0  0  0  0  0  0  0
   12.6400   -1.1000   22.2390 C   0  0  0  0  0  0  0  0  0  0  0  0
    6.5430   -0.1967   19.6886 C   0  0  0  0  0  0  0  0  0  0  0  0
    8.3880   -0.3240   21.3070 C   0  0  0  0  0  0  0  0  0  0  0  0
    5.5285    3.9642   22.6649 C   0  0  0  0  0  0  0  0  0  0  0  0
    8.8810   -1.1900   22.4510 C   0  0  0  0  0  0  0  0  0  0  0  0
    6.3609   -0.7750   18.4993 N   0  0  0  0  0  0  0  0  0  0  0  0
    5.6032    0.1137   17.8352 N   0  0  0  0  0  0  0  0  0  0  0  0
    7.2820   -0.7860   20.6970 N   0  0  0  0  0  0  0  0  0  0  0  0
    8.9170    0.7530   21.0260 O   0  0  0  0  0  0  0  0  0  0  0  0
    4.8893    4.1781   21.4086 O   0  0  0  0  0  0  0  0  0  0  0  0
   13.8840   -1.8490   21.2740 Cl  0  0  0  0  0  0  0  0  0  0  0  0
   12.2249    1.2198   24.6546 H   0  0  0  0  0  0  0  0  0  0  0  0
    9.8763    0.5350   24.3454 H   0  0  0  0  0  0  0  0  0  0  0  0
    4.0784    2.4878   17.2601 H   0  0  0  0  0  0  0  0  0  0  0  0
    3.8499    4.2506   19.0033 H   0  0  0  0  0  0  0  0  0  0  0  0
   14.0077    0.1988   23.2842 H   0  0  0  0  0  0  0  0  0  0  0  0
    6.2406    1.9429   21.7480 H   0  0  0  0  0  0  0  0  0  0  0  0
   11.0892   -2.3009   21.3624 H   0  0  0  0  0  0  0  0  0  0  0  0
    5.3385    4.8171   23.3211 H   0  0  0  0  0  0  0  0  0  0  0  0
    6.6036    3.8413   22.5114 H   0  0  0  0  0  0  0  0  0  0  0  0
    5.1216    3.0587   23.1211 H   0  0  0  0  0  0  0  0  0  0  0  0
    8.7774   -2.2383   22.1732 H   0  0  0  0  0  0  0  0  0  0  0  0
    8.2557   -1.0153   23.3257 H   0  0  0  0  0  0  0  0  0  0  0  0
    5.3291   -0.1068   16.8860 H   0  0  0  0  0  0  0  0  0  0  0  0
    6.9394   -1.7028   21.0257 H   0  0  0  0  0  0  0  0  0  0  0  0
  1  2  2  0  0  0  0
  1  5  1  0  0  0  0
  2  9  1  0  0  0  0
  3  4  2  0  0  0  0
  3 10  1  0  0  0  0
  4 11  1  0  0  0  0
  5 12  2  0  0  0  0
  6  8  1  0  0  0  0
  6 11  2  0  0  0  0
  7  9  2  0  0  0  0
  7 12  1  0  0  0  0
  8 10  2  0  0  0  0
  8 13  1  0  0  0  0
  9 16  1  0  0  0  0
 10 18  1  0  0  0  0
 11 21  1  0  0  0  0
 12 22  1  0  0  0  0
 13 17  2  0  0  0  0
 13 19  1  0  0  0  0
 14 16  1  0  0  0  0
 14 19  1  0  0  0  0
 14 20  2  0  0  0  0
 15 21  1  0  0  0  0
 17 18  1  0  0  0  0
  1 23  1  0  0  0  0
  2 24  1  0  0  0  0
  3 25  1  0  0  0  0
  4 26  1  0  0  0  0
  5 27  1  0  0  0  0
  6 28  1  0  0  0  0
  7 29  1  0  0  0  0
 15 30  1  0  0  0  0
 15 31  1  0  0  0  0
 15 32  1  0  0  0  0
 16 33  1  0  0  0  0
 16 34  1  0  0  0  0
 18 35  1  0  0  0  0
 19 36  1  0  0  0  0
M  END
> <compound>
EDJ-MED-c8e7a002-2

> <compound_smiles>
COc1ccc2c(c1)c([nH]n2)NC(=O)Cc3cccc(c3)Cl

> <enantiomer_smiles>
COc1ccc2c(c1)c([nH]n2)NC(=O)Cc3cccc(c3)Cl

> <scaffold>
chlorobenzene-linker

> <canonical_CID>
EDJ-MED-c8e7a002-2

> <r_inhibition_at_20_uM>

> <r_inhibition_at_50_uM>

> <r_avg_IC50>
99.0

> <f_inhibition_at_20_uM>

> <f_inhibition_at_50_uM>

> <f_avg_IC50>
99.5

> <f_avg_pIC50>

> <relative_solubility_at_20_uM>

> <relative_solubility_at_100_uM>

> <trypsin_IC50>

> <NMR_std_ratio>

> <acrylamide>
False

> <chloroacetamide>
False

> <series>
3-aminopyridine-like

> <frag_id>

> <clash_score>
0

> <docking_score>
-4.231054306030273

> <overlap_score>
0.8499391674995422

> <MMFF_internal_energy>
45.799148700308166

> <docked_smiles>
COc1ccc2c(c1)c(n[nH]2)NC(=O)Cc3cccc(c3)Cl

$$$$
VLA-UCB-05e51b3f-15_1
  -OEChem-07262101023D

 39 41  0     0  0  0  0  0  0999 V2000
    3.6593    2.8146   20.4070 C   0  0  0  0  0  0  0  0  0  0  0  0
    4.2130    2.1135   21.4757 C   0  0  0  0  0  0  0  0  0  0  0  0
   11.9780    0.4600   23.9150 C   0  0  0  0  0  0  0  0  0  0  0  0
    4.1024    2.5708   19.1073 C   0  0  0  0  0  0  0  0  0  0  0  0
    5.2124    1.1655   21.2495 C   0  0  0  0  0  0  0  0  0  0  0  0
   10.6560    0.0720   23.7350 C   0  0  0  0  0  0  0  0  0  0  0  0
   12.9840   -0.1200   23.1530 C   0  0  0  0  0  0  0  0  0  0  0  0
   11.3360   -1.5050   22.0650 C   0  0  0  0  0  0  0  0  0  0  0  0
    5.5882    1.3354   17.5881 C   0  0  0  0  0  0  0  0  0  0  0  0
    7.0689   -0.2344   18.3745 C   0  0  0  0  0  0  0  0  0  0  0  0
    5.1074    1.6190   18.8680 C   0  0  0  0  0  0  0  0  0  0  0  0
    5.6706    0.9072   19.9473 C   0  0  0  0  0  0  0  0  0  0  0  0
   10.3220   -0.8940   22.7910 C   0  0  0  0  0  0  0  0  0  0  0  0
    6.6708   -0.0369   19.6879 C   0  0  0  0  0  0  0  0  0  0  0  0
   12.6400   -1.1000   22.2390 C   0  0  0  0  0  0  0  0  0  0  0  0
    8.3880   -0.3240   21.3070 C   0  0  0  0  0  0  0  0  0  0  0  0
    6.7325   -2.0545   21.0891 C   0  0  0  0  0  0  0  0  0  0  0  0
    8.8810   -1.1900   22.4510 C   0  0  0  0  0  0  0  0  0  0  0  0
    5.9885   -2.8202   20.0138 C   0  0  0  0  0  0  0  0  0  0  0  0
    6.5532    0.4278   17.3170 N   0  0  0  0  0  0  0  0  0  0  0  0
    7.2820   -0.7860   20.6970 N   0  0  0  0  0  0  0  0  0  0  0  0
    8.9170    0.7530   21.0260 O   0  0  0  0  0  0  0  0  0  0  0  0
    6.8359   -2.5035   22.2329 O   0  0  0  0  0  0  0  0  0  0  0  0
   13.8840   -1.8490   21.2740 Cl  0  0  0  0  0  0  0  0  0  0  0  0
    7.1558   -3.8279   19.1348 Cl  0  0  0  0  0  0  0  0  0  0  0  0
    2.8817    3.5514   20.5859 H   0  0  0  0  0  0  0  0  0  0  0  0
    3.8662    2.3047   22.4873 H   0  0  0  0  0  0  0  0  0  0  0  0
   12.2249    1.2198   24.6546 H   0  0  0  0  0  0  0  0  0  0  0  0
    3.6592    3.1269   18.2844 H   0  0  0  0  0  0  0  0  0  0  0  0
    5.6204    0.6393   22.1095 H   0  0  0  0  0  0  0  0  0  0  0  0
    9.8763    0.5350   24.3454 H   0  0  0  0  0  0  0  0  0  0  0  0
   14.0077    0.1988   23.2842 H   0  0  0  0  0  0  0  0  0  0  0  0
   11.0892   -2.3009   21.3624 H   0  0  0  0  0  0  0  0  0  0  0  0
    5.1977    1.8473   16.7129 H   0  0  0  0  0  0  0  0  0  0  0  0
    7.8406   -0.9559   18.1211 H   0  0  0  0  0  0  0  0  0  0  0  0
    8.8004   -2.2568   22.2122 H   0  0  0  0  0  0  0  0  0  0  0  0
    8.2415   -1.0076   23.3228 H   0  0  0  0  0  0  0  0  0  0  0  0
    5.5158   -2.1612   19.2828 H   0  0  0  0  0  0  0  0  0  0  0  0
    5.2402   -3.4707   20.4730 H   0  0  0  0  0  0  0  0  0  0  0  0
  1  2  1  0  0  0  0
  1  4  2  0  0  0  0
  2  5  2  0  0  0  0
  3  6  2  0  0  0  0
  3  7  1  0  0  0  0
  4 11  1  0  0  0  0
  5 12  1  0  0  0  0
  6 13  1  0  0  0  0
  7 15  2  0  0  0  0
  8 13  2  0  0  0  0
  8 15  1  0  0  0  0
  9 11  2  0  0  0  0
  9 20  1  0  0  0  0
 10 14  1  0  0  0  0
 10 20  2  0  0  0  0
 11 12  1  0  0  0  0
 12 14  2  0  0  0  0
 13 18  1  0  0  0  0
 14 21  1  0  0  0  0
 15 24  1  0  0  0  0
 16 18  1  0  0  0  0
 16 21  1  0  0  0  0
 16 22  2  0  0  0  0
 17 19  1  0  0  0  0
 17 21  1  0  0  0  0
 17 23  2  0  0  0  0
 19 25  1  0  0  0  0
  1 26  1  0  0  0  0
  2 27  1  0  0  0  0
  3 28  1  0  0  0  0
  4 29  1  0  0  0  0
  5 30  1  0  0  0  0
  6 31  1  0  0  0  0
  7 32  1  0  0  0  0
  8 33  1  0  0  0  0
  9 34  1  0  0  0  0
 10 35  1  0  0  0  0
 18 36  1  0  0  0  0
 18 37  1  0  0  0  0
 19 38  1  0  0  0  0
 19 39  1  0  0  0  0
M  END
> <compound>
VLA-UCB-05e51b3f-15

> <compound_smiles>
c1ccc2c(c1)cncc2N(C(=O)Cc3cccc(c3)Cl)C(=O)CCl

> <enantiomer_smiles>
c1ccc2c(c1)cncc2N(C(=O)Cc3cccc(c3)Cl)C(=O)CCl

> <scaffold>
chlorobenzene-linker

> <clash_score>
0.8761788775586729

> <docking_score>
-9.50965690612793

> <overlap_score>
0.985256552696228

> <MMFF_internal_energy>
119.32385945632365

> <docked_smiles>
c1ccc2c(c1)cncc2N(C(=O)Cc3cccc(c3)Cl)C(=O)CCl

$$$$
EDJ-MED-c8e7a002-4_1
  -OEChem-07262101023D

 34 36  0     0  0  0  0  0  0999 V2000
   11.9780    0.4600   23.9150 C   0  0  0  0  0  0  0  0  0  0  0  0
   10.6560    0.0720   23.7350 C   0  0  0  0  0  0  0  0  0  0  0  0
   12.9840   -0.1200   23.1530 C   0  0  0  0  0  0  0  0  0  0  0  0
   11.3360   -1.5050   22.0650 C   0  0  0  0  0  0  0  0  0  0  0  0
    3.4328    1.1770   19.2460 C   0  0  0  0  0  0  0  0  0  0  0  0
   10.3220   -0.8940   22.7910 C   0  0  0  0  0  0  0  0  0  0  0  0
   12.6400   -1.1000   22.2390 C   0  0  0  0  0  0  0  0  0  0  0  0
    5.3261    0.2585   19.8417 C   0  0  0  0  0  0  0  0  0  0  0  0
    6.5634    0.7843   17.3842 C   0  0  0  0  0  0  0  0  0  0  0  0
    5.2913    1.1678   17.5744 C   0  0  0  0  0  0  0  0  0  0  0  0
    6.6807   -0.1529   19.6459 C   0  0  0  0  0  0  0  0  0  0  0  0
    7.2916    0.0959   18.4598 C   0  0  0  0  0  0  0  0  0  0  0  0
    8.3880   -0.3240   21.3070 C   0  0  0  0  0  0  0  0  0  0  0  0
    8.7052   -0.2737   18.1031 C   0  0  0  0  0  0  0  0  0  0  0  0
    8.8810   -1.1900   22.4510 C   0  0  0  0  0  0  0  0  0  0  0  0
    3.2946    0.7399   20.4771 N   0  0  0  0  0  0  0  0  0  0  0  0
    4.4884    0.1600   20.8546 N   0  0  0  0  0  0  0  0  0  0  0  0
    4.6912    0.9021   18.7935 N   0  0  0  0  0  0  0  0  0  0  0  0
    7.2820   -0.7860   20.6970 N   0  0  0  0  0  0  0  0  0  0  0  0
    8.9170    0.7530   21.0260 O   0  0  0  0  0  0  0  0  0  0  0  0
   13.8840   -1.8490   21.2740 Cl  0  0  0  0  0  0  0  0  0  0  0  0
   12.2249    1.2198   24.6546 H   0  0  0  0  0  0  0  0  0  0  0  0
    9.8763    0.5350   24.3454 H   0  0  0  0  0  0  0  0  0  0  0  0
   14.0077    0.1988   23.2842 H   0  0  0  0  0  0  0  0  0  0  0  0
   11.0892   -2.3009   21.3624 H   0  0  0  0  0  0  0  0  0  0  0  0
    2.6817    1.6814   18.6545 H   0  0  0  0  0  0  0  0  0  0  0  0
    7.0659    0.9773   16.4427 H   0  0  0  0  0  0  0  0  0  0  0  0
    4.7088    1.6777   16.8170 H   0  0  0  0  0  0  0  0  0  0  0  0
    9.3689    0.5420   18.3754 H   0  0  0  0  0  0  0  0  0  0  0  0
    8.7694   -0.4590   17.0343 H   0  0  0  0  0  0  0  0  0  0  0  0
    8.9879   -1.1738   18.6421 H   0  0  0  0  0  0  0  0  0  0  0  0
    8.2535   -1.0146   23.3240 H   0  0  0  0  0  0  0  0  0  0  0  0
    8.7756   -2.2377   22.1724 H   0  0  0  0  0  0  0  0  0  0  0  0
    6.8588   -1.6468   21.0213 H   0  0  0  0  0  0  0  0  0  0  0  0
  1  2  2  0  0  0  0
  1  3  1  0  0  0  0
  2  6  1  0  0  0  0
  3  7  2  0  0  0  0
  4  6  2  0  0  0  0
  4  7  1  0  0  0  0
  5 16  2  0  0  0  0
  5 18  1  0  0  0  0
  6 15  1  0  0  0  0
  7 21  1  0  0  0  0
  8 11  1  0  0  0  0
  8 17  2  0  0  0  0
  8 18  1  0  0  0  0
  9 10  2  0  0  0  0
  9 12  1  0  0  0  0
 10 18  1  0  0  0  0
 11 12  2  0  0  0  0
 11 19  1  0  0  0  0
 12 14  1  0  0  0  0
 13 15  1  0  0  0  0
 13 19  1  0  0  0  0
 13 20  2  0  0  0  0
 16 17  1  0  0  0  0
  1 22  1  0  0  0  0
  2 23  1  0  0  0  0
  3 24  1  0  0  0  0
  4 25  1  0  0  0  0
  5 26  1  0  0  0  0
  9 27  1  0  0  0  0
 10 28  1  0  0  0  0
 14 29  1  0  0  0  0
 14 30  1  0  0  0  0
 14 31  1  0  0  0  0
 15 32  1  0  0  0  0
 15 33  1  0  0  0  0
 19 34  1  0  0  0  0
M  END
> <compound>
EDJ-MED-c8e7a002-4

> <compound_smiles>
Cc1ccn2cnnc2c1NC(=O)Cc3cccc(c3)Cl

> <enantiomer_smiles>
Cc1ccn2cnnc2c1NC(=O)Cc3cccc(c3)Cl

> <scaffold>
chlorobenzene-linker

> <canonical_CID>
EDJ-MED-c8e7a002-4

> <r_inhibition_at_20_uM>

> <r_inhibition_at_50_uM>

> <r_avg_IC50>
83.3781317147818

> <f_inhibition_at_20_uM>

> <f_inhibition_at_50_uM>

> <f_avg_IC50>
75.2573815369256

> <f_avg_pIC50>

> <relative_solubility_at_20_uM>

> <relative_solubility_at_100_uM>

> <trypsin_IC50>

> <NMR_std_ratio>

> <acrylamide>
False

> <chloroacetamide>
False

> <series>
3-aminopyridine-like

> <frag_id>

> <clash_score>
0

> <docking_score>
-4.628418922424316

> <overlap_score>
0.9168944954872131

> <MMFF_internal_energy>
71.6898692537066

> <docked_smiles>
Cc1ccn2cnnc2c1NC(=O)Cc3cccc(c3)Cl

$$$$
EDJ-MED-c8e7a002-8_1
  -OEChem-07262101023D

 29 31  0     0  0  0  0  0  0999 V2000
   11.9780    0.4600   23.9150 C   0  0  0  0  0  0  0  0  0  0  0  0
   10.6560    0.0720   23.7350 C   0  0  0  0  0  0  0  0  0  0  0  0
   12.9840   -0.1200   23.1530 C   0  0  0  0  0  0  0  0  0  0  0  0
   11.3360   -1.5050   22.0650 C   0  0  0  0  0  0  0  0  0  0  0  0
   10.3220   -0.8940   22.7910 C   0  0  0  0  0  0  0  0  0  0  0  0
   12.6400   -1.1000   22.2390 C   0  0  0  0  0  0  0  0  0  0  0  0
    5.3414    0.2660   19.8017 C   0  0  0  0  0  0  0  0  0  0  0  0
    5.4490    1.1243   17.5290 C   0  0  0  0  0  0  0  0  0  0  0  0
    6.6804   -0.1554   19.6477 C   0  0  0  0  0  0  0  0  0  0  0  0
    7.2804    0.0964   18.4621 C   0  0  0  0  0  0  0  0  0  0  0  0
    8.3880   -0.3240   21.3070 C   0  0  0  0  0  0  0  0  0  0  0  0
    8.8810   -1.1900   22.4510 C   0  0  0  0  0  0  0  0  0  0  0  0
    4.4274    0.2219   20.7462 N   0  0  0  0  0  0  0  0  0  0  0  0
    3.3085    0.8356   20.2122 N   0  0  0  0  0  0  0  0  0  0  0  0
    3.5311    1.2471   18.9672 N   0  0  0  0  0  0  0  0  0  0  0  0
    6.6811    0.7370   17.3855 N   0  0  0  0  0  0  0  0  0  0  0  0
    4.7941    0.8908   18.7183 N   0  0  0  0  0  0  0  0  0  0  0  0
    7.2820   -0.7860   20.6970 N   0  0  0  0  0  0  0  0  0  0  0  0
    8.9170    0.7530   21.0260 O   0  0  0  0  0  0  0  0  0  0  0  0
   13.8840   -1.8490   21.2740 Cl  0  0  0  0  0  0  0  0  0  0  0  0
    8.9290   -0.3862   18.1813 Cl  0  0  0  0  0  0  0  0  0  0  0  0
   12.2249    1.2198   24.6546 H   0  0  0  0  0  0  0  0  0  0  0  0
    9.8763    0.5350   24.3454 H   0  0  0  0  0  0  0  0  0  0  0  0
   14.0077    0.1988   23.2842 H   0  0  0  0  0  0  0  0  0  0  0  0
   11.0892   -2.3009   21.3624 H   0  0  0  0  0  0  0  0  0  0  0  0
    4.9161    1.6378   16.7133 H   0  0  0  0  0  0  0  0  0  0  0  0
    8.2535   -1.0146   23.3240 H   0  0  0  0  0  0  0  0  0  0  0  0
    8.7756   -2.2377   22.1724 H   0  0  0  0  0  0  0  0  0  0  0  0
    6.8609   -1.6480   21.0242 H   0  0  0  0  0  0  0  0  0  0  0  0
  1  2  1  0  0  0  0
  1  3  2  0  0  0  0
  2  5  2  0  0  0  0
  3  6  1  0  0  0  0
  4  5  1  0  0  0  0
  4  6  2  0  0  0  0
  5 12  1  0  0  0  0
  6 20  1  0  0  0  0
  7  9  1  0  0  0  0
  7 13  2  0  0  0  0
  7 17  1  0  0  0  0
  8 16  2  0  0  0  0
  8 17  1  0  0  0  0
  9 10  2  0  0  0  0
  9 18  1  0  0  0  0
 10 16  1  0  0  0  0
 10 21  1  0  0  0  0
 11 12  1  0  0  0  0
 11 18  1  0  0  0  0
 11 19  2  0  0  0  0
 13 14  1  0  0  0  0
 14 15  2  0  0  0  0
 15 17  1  0  0  0  0
  1 22  1  0  0  0  0
  2 23  1  0  0  0  0
  3 24  1  0  0  0  0
  4 25  1  0  0  0  0
  8 26  1  0  0  0  0
 12 27  1  0  0  0  0
 12 28  1  0  0  0  0
 18 29  1  0  0  0  0
M  END
> <compound>
EDJ-MED-c8e7a002-8

> <compound_smiles>
c1cc(cc(c1)Cl)CC(=O)Nc2c3nnnn3cnc2Cl

> <enantiomer_smiles>
c1cc(cc(c1)Cl)CC(=O)Nc2c3nnnn3cnc2Cl

> <scaffold>
chlorobenzene-linker

> <clash_score>
0

> <docking_score>
-6.0527448654174805

> <overlap_score>
0.9178920388221741

> <MMFF_internal_energy>
84.14265011542521

> <docked_smiles>
c1cc(cc(c1)Cl)CC(=O)Nc2c3nnnn3cnc2Cl

$$$$
EDJ-MED-c8e7a002-12_1
  -OEChem-07262101023D

 32 34  0     0  0  0  0  0  0999 V2000
    6.5346    0.5362   17.3127 C   0  0  0  0  0  0  0  0  0  0  0  0
   11.9780    0.4600   23.9150 C   0  0  0  0  0  0  0  0  0  0  0  0
    5.1917    0.9159   17.4311 C   0  0  0  0  0  0  0  0  0  0  0  0
   10.6560    0.0720   23.7350 C   0  0  0  0  0  0  0  0  0  0  0  0
    7.2201   -0.0247   18.3920 C   0  0  0  0  0  0  0  0  0  0  0  0
   12.9840   -0.1200   23.1530 C   0  0  0  0  0  0  0  0  0  0  0  0
   11.3360   -1.5050   22.0650 C   0  0  0  0  0  0  0  0  0  0  0  0
    3.2554    0.9529   19.1870 C   0  0  0  0  0  0  0  0  0  0  0  0
    4.5452    0.7204   18.6629 C   0  0  0  0  0  0  0  0  0  0  0  0
   10.3220   -0.8940   22.7910 C   0  0  0  0  0  0  0  0  0  0  0  0
    5.2513    0.1598   19.7214 C   0  0  0  0  0  0  0  0  0  0  0  0
    6.5902   -0.2258   19.6245 C   0  0  0  0  0  0  0  0  0  0  0  0
   12.6400   -1.1000   22.2390 C   0  0  0  0  0  0  0  0  0  0  0  0
    8.3880   -0.3240   21.3070 C   0  0  0  0  0  0  0  0  0  0  0  0
    8.8810   -1.1900   22.4510 C   0  0  0  0  0  0  0  0  0  0  0  0
    3.1391    0.5783   20.4630 N   0  0  0  0  0  0  0  0  0  0  0  0
    4.3603    0.1031   20.7590 N   0  0  0  0  0  0  0  0  0  0  0  0
    7.2820   -0.7860   20.6970 N   0  0  0  0  0  0  0  0  0  0  0  0
    8.9170    0.7530   21.0260 O   0  0  0  0  0  0  0  0  0  0  0  0
   13.8840   -1.8490   21.2740 Cl  0  0  0  0  0  0  0  0  0  0  0  0
    7.0495    0.6810   16.3664 H   0  0  0  0  0  0  0  0  0  0  0  0
   12.2249    1.2198   24.6546 H   0  0  0  0  0  0  0  0  0  0  0  0
    4.6692    1.3512   16.5850 H   0  0  0  0  0  0  0  0  0  0  0  0
    9.8763    0.5350   24.3454 H   0  0  0  0  0  0  0  0  0  0  0  0
    8.2627   -0.3070   18.2615 H   0  0  0  0  0  0  0  0  0  0  0  0
   14.0077    0.1988   23.2842 H   0  0  0  0  0  0  0  0  0  0  0  0
   11.0892   -2.3009   21.3624 H   0  0  0  0  0  0  0  0  0  0  0  0
    2.3958    1.3803   18.6902 H   0  0  0  0  0  0  0  0  0  0  0  0
    8.7775   -2.2383   22.1732 H   0  0  0  0  0  0  0  0  0  0  0  0
    8.2557   -1.0153   23.3257 H   0  0  0  0  0  0  0  0  0  0  0  0
    4.5217   -0.2482   21.6946 H   0  0  0  0  0  0  0  0  0  0  0  0
    6.8983   -1.6634   21.0688 H   0  0  0  0  0  0  0  0  0  0  0  0
  1  3  1  0  0  0  0
  1  5  2  0  0  0  0
  2  4  1  0  0  0  0
  2  6  2  0  0  0  0
  3  9  2  0  0  0  0
  4 10  2  0  0  0  0
  5 12  1  0  0  0  0
  6 13  1  0  0  0  0
  7 10  1  0  0  0  0
  7 13  2  0  0  0  0
  8  9  1  0  0  0  0
  8 16  2  0  0  0  0
  9 11  1  0  0  0  0
 10 15  1  0  0  0  0
 11 12  2  0  0  0  0
 11 17  1  0  0  0  0
 12 18  1  0  0  0  0
 13 20  1  0  0  0  0
 14 15  1  0  0  0  0
 14 18  1  0  0  0  0
 14 19  2  0  0  0  0
 16 17  1  0  0  0  0
  1 21  1  0  0  0  0
  2 22  1  0  0  0  0
  3 23  1  0  0  0  0
  4 24  1  0  0  0  0
  5 25  1  0  0  0  0
  6 26  1  0  0  0  0
  7 27  1  0  0  0  0
  8 28  1  0  0  0  0
 15 29  1  0  0  0  0
 15 30  1  0  0  0  0
 17 31  1  0  0  0  0
 18 32  1  0  0  0  0
M  END
> <compound>
EDJ-MED-c8e7a002-12

> <compound_smiles>
c1cc(cc(c1)Cl)CC(=O)Nc2cccc3c2[nH]nc3

> <enantiomer_smiles>
c1cc(cc(c1)Cl)CC(=O)Nc2cccc3c2[nH]nc3

> <scaffold>
chlorobenzene-linker

> <canonical_CID>
EDJ-MED-c8e7a002-12

> <r_inhibition_at_20_uM>

> <r_inhibition_at_50_uM>

> <r_avg_IC50>
99.0

> <f_inhibition_at_20_uM>

> <f_inhibition_at_50_uM>

> <f_avg_IC50>
99.5

> <f_avg_pIC50>

> <relative_solubility_at_20_uM>

> <relative_solubility_at_100_uM>

> <trypsin_IC50>

> <NMR_std_ratio>

> <acrylamide>
False

> <chloroacetamide>
False

> <series>
3-aminopyridine-like

> <frag_id>

> <clash_score>
0

> <docking_score>
-3.4644112586975098

> <overlap_score>
0.8811392188072205

> <MMFF_internal_energy>
64.81523149710034

> <docked_smiles>
c1cc(cc(c1)Cl)CC(=O)Nc2cccc3c2[nH]nc3

$$$$
EDJ-MED-c8e7a002-6_1
  -OEChem-07262101023D

 35 37  0     0  0  0  0  0  0999 V2000
   11.9780    0.4600   23.9150 C   0  0  0  0  0  0  0  0  0  0  0  0
   10.6560    0.0720   23.7350 C   0  0  0  0  0  0  0  0  0  0  0  0
   12.9840   -0.1200   23.1530 C   0  0  0  0  0  0  0  0  0  0  0  0
   11.3360   -1.5050   22.0650 C   0  0  0  0  0  0  0  0  0  0  0  0
    5.4177    0.9283   20.4831 C   0  0  0  0  0  0  0  0  0  0  0  0
   10.3220   -0.8940   22.7910 C   0  0  0  0  0  0  0  0  0  0  0  0
   12.6400   -1.1000   22.2390 C   0  0  0  0  0  0  0  0  0  0  0  0
    4.8458    1.8055   21.4590 C   0  0  0  0  0  0  0  0  0  0  0  0
    4.6734    1.2670   19.3755 C   0  0  0  0  0  0  0  0  0  0  0  0
    6.2693   -0.0307   20.0591 C   0  0  0  0  0  0  0  0  0  0  0  0
    8.3880   -0.3240   21.3070 C   0  0  0  0  0  0  0  0  0  0  0  0
    5.2230    1.9236   22.8783 C   0  0  0  0  0  0  0  0  0  0  0  0
    2.8137    2.8316   18.7361 C   0  0  0  0  0  0  0  0  0  0  0  0
    8.8810   -1.1900   22.4510 C   0  0  0  0  0  0  0  0  0  0  0  0
    3.8411    2.6003   20.9629 N   0  0  0  0  0  0  0  0  0  0  0  0
    4.9327    0.6453   18.2715 N   0  0  0  0  0  0  0  0  0  0  0  0
    5.9485   -0.1825   18.7020 N   0  0  0  0  0  0  0  0  0  0  0  0
    3.7576    2.2338   19.6416 N   0  0  0  0  0  0  0  0  0  0  0  0
    7.2820   -0.7860   20.6970 N   0  0  0  0  0  0  0  0  0  0  0  0
    8.9170    0.7530   21.0260 O   0  0  0  0  0  0  0  0  0  0  0  0
   13.8840   -1.8490   21.2740 Cl  0  0  0  0  0  0  0  0  0  0  0  0
   12.2249    1.2198   24.6546 H   0  0  0  0  0  0  0  0  0  0  0  0
    9.8763    0.5350   24.3454 H   0  0  0  0  0  0  0  0  0  0  0  0
   14.0077    0.1988   23.2842 H   0  0  0  0  0  0  0  0  0  0  0  0
   11.0892   -2.3009   21.3624 H   0  0  0  0  0  0  0  0  0  0  0  0
    6.0164    2.6770   23.0200 H   0  0  0  0  0  0  0  0  0  0  0  0
    4.3683    2.2167   23.5134 H   0  0  0  0  0  0  0  0  0  0  0  0
    5.5932    0.9685   23.2916 H   0  0  0  0  0  0  0  0  0  0  0  0
    1.8937    2.2422   18.7704 H   0  0  0  0  0  0  0  0  0  0  0  0
    2.6185    3.8632   19.0423 H   0  0  0  0  0  0  0  0  0  0  0  0
    3.2320    2.8311   17.7257 H   0  0  0  0  0  0  0  0  0  0  0  0
    8.7709   -2.2387   22.1706 H   0  0  0  0  0  0  0  0  0  0  0  0
    8.2491   -1.0157   23.3232 H   0  0  0  0  0  0  0  0  0  0  0  0
    6.3734   -0.8147   18.0351 H   0  0  0  0  0  0  0  0  0  0  0  0
    7.1590   -1.7964   20.6938 H   0  0  0  0  0  0  0  0  0  0  0  0
  1  2  2  0  0  0  0
  1  3  1  0  0  0  0
  2  6  1  0  0  0  0
  3  7  2  0  0  0  0
  4  6  2  0  0  0  0
  4  7  1  0  0  0  0
  5  8  1  0  0  0  0
  5  9  1  0  0  0  0
  5 10  2  0  0  0  0
  6 14  1  0  0  0  0
  7 21  1  0  0  0  0
  8 12  1  0  0  0  0
  8 15  2  0  0  0  0
  9 16  2  0  0  0  0
  9 18  1  0  0  0  0
 10 17  1  0  0  0  0
 10 19  1  0  0  0  0
 11 14  1  0  0  0  0
 11 19  1  0  0  0  0
 11 20  2  0  0  0  0
 13 18  1  0  0  0  0
 15 18  1  0  0  0  0
 16 17  1  0  0  0  0
  1 22  1  0  0  0  0
  2 23  1  0  0  0  0
  3 24  1  0  0  0  0
  4 25  1  0  0  0  0
 12 26  1  0  0  0  0
 12 27  1  0  0  0  0
 12 28  1  0  0  0  0
 13 29  1  0  0  0  0
 13 30  1  0  0  0  0
 13 31  1  0  0  0  0
 14 32  1  0  0  0  0
 14 33  1  0  0  0  0
 17 34  1  0  0  0  0
 19 35  1  0  0  0  0
M  END
> <compound>
EDJ-MED-c8e7a002-6

> <compound_smiles>
Cc1c2c([nH]nc2NC(=O)Cc3cccc(c3)Cl)n(n1)C

> <enantiomer_smiles>
Cc1c2c([nH]nc2NC(=O)Cc3cccc(c3)Cl)n(n1)C

> <scaffold>
chlorobenzene-linker

> <canonical_CID>
EDJ-MED-c8e7a002-6

> <r_inhibition_at_20_uM>

> <r_inhibition_at_50_uM>

> <r_avg_IC50>
99.0

> <f_inhibition_at_20_uM>

> <f_inhibition_at_50_uM>

> <f_avg_IC50>
99.5

> <f_avg_pIC50>

> <relative_solubility_at_20_uM>

> <relative_solubility_at_100_uM>

> <trypsin_IC50>

> <NMR_std_ratio>

> <acrylamide>
False

> <chloroacetamide>
False

> <series>
3-aminopyridine-like

> <frag_id>

> <clash_score>
0

> <docking_score>
-6.746288776397705

> <overlap_score>
0.9331921935081482

> <MMFF_internal_energy>
155.18823730574724

> <docked_smiles>
Cc1c2c([nH]nc2n(n1)C)NC(=O)Cc3cccc(c3)Cl

$$$$
EDJ-MED-c8e7a002-7_1
  -OEChem-07262101023D

 30 32  0     0  0  0  0  0  0999 V2000
   11.9780    0.4600   23.9150 C   0  0  0  0  0  0  0  0  0  0  0  0
   10.6560    0.0720   23.7350 C   0  0  0  0  0  0  0  0  0  0  0  0
   12.9840   -0.1200   23.1530 C   0  0  0  0  0  0  0  0  0  0  0  0
   11.3360   -1.5050   22.0650 C   0  0  0  0  0  0  0  0  0  0  0  0
    3.5068    1.2111   19.0844 C   0  0  0  0  0  0  0  0  0  0  0  0
   10.3220   -0.8940   22.7910 C   0  0  0  0  0  0  0  0  0  0  0  0
   12.6400   -1.1000   22.2390 C   0  0  0  0  0  0  0  0  0  0  0  0
    5.3396    0.2661   19.8039 C   0  0  0  0  0  0  0  0  0  0  0  0
    5.4521    1.1210   17.5346 C   0  0  0  0  0  0  0  0  0  0  0  0
    6.6804   -0.1551   19.6475 C   0  0  0  0  0  0  0  0  0  0  0  0
    7.2818    0.0952   18.4642 C   0  0  0  0  0  0  0  0  0  0  0  0
    8.3880   -0.3240   21.3070 C   0  0  0  0  0  0  0  0  0  0  0  0
    8.8810   -1.1900   22.4510 C   0  0  0  0  0  0  0  0  0  0  0  0
    3.2900    0.8032   20.3159 N   0  0  0  0  0  0  0  0  0  0  0  0
    4.4507    0.2040   20.7730 N   0  0  0  0  0  0  0  0  0  0  0  0
    6.6836    0.7344   17.3903 N   0  0  0  0  0  0  0  0  0  0  0  0
    4.7792    0.8947   18.7225 N   0  0  0  0  0  0  0  0  0  0  0  0
    7.2820   -0.7860   20.6970 N   0  0  0  0  0  0  0  0  0  0  0  0
    8.9170    0.7530   21.0260 O   0  0  0  0  0  0  0  0  0  0  0  0
   13.8840   -1.8490   21.2740 Cl  0  0  0  0  0  0  0  0  0  0  0  0
    8.9299   -0.3882   18.1845 Cl  0  0  0  0  0  0  0  0  0  0  0  0
   12.2249    1.2198   24.6546 H   0  0  0  0  0  0  0  0  0  0  0  0
    9.8763    0.5350   24.3454 H   0  0  0  0  0  0  0  0  0  0  0  0
   14.0077    0.1988   23.2842 H   0  0  0  0  0  0  0  0  0  0  0  0
   11.0892   -2.3009   21.3624 H   0  0  0  0  0  0  0  0  0  0  0  0
    2.8046    1.7195   18.4394 H   0  0  0  0  0  0  0  0  0  0  0  0
    4.9227    1.6334   16.7156 H   0  0  0  0  0  0  0  0  0  0  0  0
    8.2535   -1.0146   23.3240 H   0  0  0  0  0  0  0  0  0  0  0  0
    8.7756   -2.2377   22.1724 H   0  0  0  0  0  0  0  0  0  0  0  0
    6.8607   -1.6479   21.0238 H   0  0  0  0  0  0  0  0  0  0  0  0
  1  2  1  0  0  0  0
  1  3  2  0  0  0  0
  2  6  2  0  0  0  0
  3  7  1  0  0  0  0
  4  6  1  0  0  0  0
  4  7  2  0  0  0  0
  5 14  2  0  0  0  0
  5 17  1  0  0  0  0
  6 13  1  0  0  0  0
  7 20  1  0  0  0  0
  8 10  1  0  0  0  0
  8 15  2  0  0  0  0
  8 17  1  0  0  0  0
  9 16  2  0  0  0  0
  9 17  1  0  0  0  0
 10 11  2  0  0  0  0
 10 18  1  0  0  0  0
 11 16  1  0  0  0  0
 11 21  1  0  0  0  0
 12 13  1  0  0  0  0
 12 18  1  0  0  0  0
 12 19  2  0  0  0  0
 14 15  1  0  0  0  0
  1 22  1  0  0  0  0
  2 23  1  0  0  0  0
  3 24  1  0  0  0  0
  4 25  1  0  0  0  0
  5 26  1  0  0  0  0
  9 27  1  0  0  0  0
 13 28  1  0  0  0  0
 13 29  1  0  0  0  0
 18 30  1  0  0  0  0
M  END
> <compound>
EDJ-MED-c8e7a002-7

> <compound_smiles>
c1cc(cc(c1)Cl)CC(=O)Nc2c3nncn3cnc2Cl

> <enantiomer_smiles>
c1cc(cc(c1)Cl)CC(=O)Nc2c3nncn3cnc2Cl

> <scaffold>
chlorobenzene-linker

> <clash_score>
0

> <docking_score>
-6.552676200866699

> <overlap_score>
0.9173586368560791

> <MMFF_internal_energy>
68.32340675244528

> <docked_smiles>
c1cc(cc(c1)Cl)CC(=O)Nc2c3nncn3cnc2Cl

$$$$
EDJ-MED-c8e7a002-11_1
  -OEChem-07262101023D

 32 34  0     0  0  0  0  0  0999 V2000
    2.9004    0.5438   20.4783 C   0  0  0  0  0  0  0  0  0  0  0  0
    2.6151    1.0944   19.2274 C   0  0  0  0  0  0  0  0  0  0  0  0
   11.9780    0.4600   23.9150 C   0  0  0  0  0  0  0  0  0  0  0  0
    4.1820    0.0659   20.7797 C   0  0  0  0  0  0  0  0  0  0  0  0
   10.6560    0.0720   23.7350 C   0  0  0  0  0  0  0  0  0  0  0  0
    3.5972    1.1870   18.2358 C   0  0  0  0  0  0  0  0  0  0  0  0
   12.9840   -0.1200   23.1530 C   0  0  0  0  0  0  0  0  0  0  0  0
   11.3360   -1.5050   22.0650 C   0  0  0  0  0  0  0  0  0  0  0  0
    5.1793    0.1521   19.7940 C   0  0  0  0  0  0  0  0  0  0  0  0
   10.3220   -0.8940   22.7910 C   0  0  0  0  0  0  0  0  0  0  0  0
    4.8681    0.7050   18.5567 C   0  0  0  0  0  0  0  0  0  0  0  0
   12.6400   -1.1000   22.2390 C   0  0  0  0  0  0  0  0  0  0  0  0
    6.5430   -0.1965   19.6884 C   0  0  0  0  0  0  0  0  0  0  0  0
    8.3880   -0.3240   21.3070 C   0  0  0  0  0  0  0  0  0  0  0  0
    8.8810   -1.1900   22.4510 C   0  0  0  0  0  0  0  0  0  0  0  0
    7.0637    0.1030   18.4963 N   0  0  0  0  0  0  0  0  0  0  0  0
    6.0289    0.6462   17.8337 N   0  0  0  0  0  0  0  0  0  0  0  0
    7.2820   -0.7860   20.6970 N   0  0  0  0  0  0  0  0  0  0  0  0
    8.9170    0.7530   21.0260 O   0  0  0  0  0  0  0  0  0  0  0  0
   13.8840   -1.8490   21.2740 Cl  0  0  0  0  0  0  0  0  0  0  0  0
    2.1178    0.4868   21.2304 H   0  0  0  0  0  0  0  0  0  0  0  0
    1.6122    1.4593   19.0196 H   0  0  0  0  0  0  0  0  0  0  0  0
   12.2249    1.2198   24.6546 H   0  0  0  0  0  0  0  0  0  0  0  0
    4.3902   -0.3595   21.7568 H   0  0  0  0  0  0  0  0  0  0  0  0
    9.8763    0.5350   24.3454 H   0  0  0  0  0  0  0  0  0  0  0  0
    3.3780    1.6149   17.2640 H   0  0  0  0  0  0  0  0  0  0  0  0
   14.0077    0.1988   23.2842 H   0  0  0  0  0  0  0  0  0  0  0  0
   11.0892   -2.3009   21.3624 H   0  0  0  0  0  0  0  0  0  0  0  0
    8.7774   -2.2383   22.1732 H   0  0  0  0  0  0  0  0  0  0  0  0
    8.2557   -1.0153   23.3257 H   0  0  0  0  0  0  0  0  0  0  0  0
    6.1820    0.9597   16.8833 H   0  0  0  0  0  0  0  0  0  0  0  0
    6.9394   -1.7027   21.0257 H   0  0  0  0  0  0  0  0  0  0  0  0
  1  2  1  0  0  0  0
  1  4  2  0  0  0  0
  2  6  2  0  0  0  0
  3  5  2  0  0  0  0
  3  7  1  0  0  0  0
  4  9  1  0  0  0  0
  5 10  1  0  0  0  0
  6 11  1  0  0  0  0
  7 12  2  0  0  0  0
  8 10  2  0  0  0  0
  8 12  1  0  0  0  0
  9 11  2  0  0  0  0
  9 13  1  0  0  0  0
 10 15  1  0  0  0  0
 11 17  1  0  0  0  0
 12 20  1  0  0  0  0
 13 16  2  0  0  0  0
 13 18  1  0  0  0  0
 14 15  1  0  0  0  0
 14 18  1  0  0  0  0
 14 19  2  0  0  0  0
 16 17  1  0  0  0  0
  1 21  1  0  0  0  0
  2 22  1  0  0  0  0
  3 23  1  0  0  0  0
  4 24  1  0  0  0  0
  5 25  1  0  0  0  0
  6 26  1  0  0  0  0
  7 27  1  0  0  0  0
  8 28  1  0  0  0  0
 15 29  1  0  0  0  0
 15 30  1  0  0  0  0
 17 31  1  0  0  0  0
 18 32  1  0  0  0  0
M  END
> <compound>
EDJ-MED-c8e7a002-11

> <compound_smiles>
c1ccc2c(c1)c(n[nH]2)NC(=O)Cc3cccc(c3)Cl

> <enantiomer_smiles>
c1ccc2c(c1)c(n[nH]2)NC(=O)Cc3cccc(c3)Cl

> <scaffold>
chlorobenzene-linker

> <canonical_CID>
EDJ-MED-c8e7a002-11

> <r_inhibition_at_20_uM>

> <r_inhibition_at_50_uM>

> <r_avg_IC50>
99.0

> <f_inhibition_at_20_uM>

> <f_inhibition_at_50_uM>

> <f_avg_IC50>
99.5

> <f_avg_pIC50>

> <relative_solubility_at_20_uM>

> <relative_solubility_at_100_uM>

> <trypsin_IC50>

> <NMR_std_ratio>

> <acrylamide>
False

> <chloroacetamide>
False

> <series>
3-aminopyridine-like

> <frag_id>

> <clash_score>
0.6198248131919792

> <docking_score>
-2.6423096656799316

> <overlap_score>
0.8656901717185974

> <MMFF_internal_energy>
46.24825646226108

> <docked_smiles>
c1ccc2c(c1)c(n[nH]2)NC(=O)Cc3cccc(c3)Cl

$$$$
EDJ-MED-c8e7a002-5_1
  -OEChem-07262101023D

 37 39  0     0  0  0  0  0  0999 V2000
   11.9780    0.4600   23.9150 C   0  0  0  0  0  0  0  0  0  0  0  0
   10.6560    0.0720   23.7350 C   0  0  0  0  0  0  0  0  0  0  0  0
   12.9840   -0.1200   23.1530 C   0  0  0  0  0  0  0  0  0  0  0  0
   11.3360   -1.5050   22.0650 C   0  0  0  0  0  0  0  0  0  0  0  0
    2.9073    0.5828   20.3688 C   0  0  0  0  0  0  0  0  0  0  0  0
    5.1817    0.1536   19.7875 C   0  0  0  0  0  0  0  0  0  0  0  0
   10.3220   -0.8940   22.7910 C   0  0  0  0  0  0  0  0  0  0  0  0
    4.1573    0.0874   20.7401 C   0  0  0  0  0  0  0  0  0  0  0  0
   12.6400   -1.1000   22.2390 C   0  0  0  0  0  0  0  0  0  0  0  0
    2.7444    1.1090   19.0916 C   0  0  0  0  0  0  0  0  0  0  0  0
    4.8837    0.7033   18.5504 C   0  0  0  0  0  0  0  0  0  0  0  0
    6.5430   -0.1967   19.6885 C   0  0  0  0  0  0  0  0  0  0  0  0
    8.3880   -0.3240   21.3070 C   0  0  0  0  0  0  0  0  0  0  0  0
    4.3384   -0.4779   22.1101 C   0  0  0  0  0  0  0  0  0  0  0  0
    8.8810   -1.1900   22.4510 C   0  0  0  0  0  0  0  0  0  0  0  0
    1.3983    1.6356   18.7084 C   0  0  0  0  0  0  0  0  0  0  0  0
    3.7025    1.1949   18.1372 N   0  0  0  0  0  0  0  0  0  0  0  0
    7.0694    0.1015   18.4961 N   0  0  0  0  0  0  0  0  0  0  0  0
    6.0378    0.6468   17.8263 N   0  0  0  0  0  0  0  0  0  0  0  0
    7.2820   -0.7860   20.6970 N   0  0  0  0  0  0  0  0  0  0  0  0
    8.9170    0.7530   21.0260 O   0  0  0  0  0  0  0  0  0  0  0  0
    0.4691    1.5265   19.7015 F   0  0  0  0  0  0  0  0  0  0  0  0
    1.4088    2.9571   18.3694 F   0  0  0  0  0  0  0  0  0  0  0  0
    0.8698    0.9827   17.6345 F   0  0  0  0  0  0  0  0  0  0  0  0
   13.8840   -1.8490   21.2740 Cl  0  0  0  0  0  0  0  0  0  0  0  0
   12.2249    1.2198   24.6546 H   0  0  0  0  0  0  0  0  0  0  0  0
    9.8763    0.5350   24.3454 H   0  0  0  0  0  0  0  0  0  0  0  0
   14.0077    0.1988   23.2842 H   0  0  0  0  0  0  0  0  0  0  0  0
   11.0892   -2.3009   21.3624 H   0  0  0  0  0  0  0  0  0  0  0  0
    2.0755    0.5583   21.0673 H   0  0  0  0  0  0  0  0  0  0  0  0
    4.1195   -1.5521   22.1103 H   0  0  0  0  0  0  0  0  0  0  0  0
    5.3651   -0.3306   22.4677 H   0  0  0  0  0  0  0  0  0  0  0  0
    3.6754    0.0139   22.8330 H   0  0  0  0  0  0  0  0  0  0  0  0
    8.7774   -2.2383   22.1732 H   0  0  0  0  0  0  0  0  0  0  0  0
    8.2557   -1.0153   23.3257 H   0  0  0  0  0  0  0  0  0  0  0  0
    6.1925    0.9591   16.8759 H   0  0  0  0  0  0  0  0  0  0  0  0
    6.9394   -1.7028   21.0257 H   0  0  0  0  0  0  0  0  0  0  0  0
  1  2  2  0  0  0  0
  1  3  1  0  0  0  0
  2  7  1  0  0  0  0
  3  9  2  0  0  0  0
  4  7  2  0  0  0  0
  4  9  1  0  0  0  0
  5  8  1  0  0  0  0
  5 10  2  0  0  0  0
  6  8  2  0  0  0  0
  6 11  1  0  0  0  0
  6 12  1  0  0  0  0
  7 15  1  0  0  0  0
  8 14  1  0  0  0  0
  9 25  1  0  0  0  0
 10 16  1  0  0  0  0
 10 17  1  0  0  0  0
 11 17  2  0  0  0  0
 11 19  1  0  0  0  0
 12 18  2  0  0  0  0
 12 20  1  0  0  0  0
 13 15  1  0  0  0  0
 13 20  1  0  0  0  0
 13 21  2  0  0  0  0
 16 22  1  0  0  0  0
 16 23  1  0  0  0  0
 16 24  1  0  0  0  0
 18 19  1  0  0  0  0
  1 26  1  0  0  0  0
  2 27  1  0  0  0  0
  3 28  1  0  0  0  0
  4 29  1  0  0  0  0
  5 30  1  0  0  0  0
 14 31  1  0  0  0  0
 14 32  1  0  0  0  0
 14 33  1  0  0  0  0
 15 34  1  0  0  0  0
 15 35  1  0  0  0  0
 19 36  1  0  0  0  0
 20 37  1  0  0  0  0
M  END
> <compound>
EDJ-MED-c8e7a002-5

> <compound_smiles>
Cc1cc(nc2c1c([nH]n2)NC(=O)Cc3cccc(c3)Cl)C(F)(F)F

> <enantiomer_smiles>
Cc1cc(nc2c1c([nH]n2)NC(=O)Cc3cccc(c3)Cl)C(F)(F)F

> <scaffold>
chlorobenzene-linker

> <canonical_CID>
EDJ-MED-c8e7a002-5

> <r_inhibition_at_20_uM>

> <r_inhibition_at_50_uM>

> <r_avg_IC50>
81.9779355790229

> <f_inhibition_at_20_uM>

> <f_inhibition_at_50_uM>

> <f_avg_IC50>
99.5

> <f_avg_pIC50>

> <relative_solubility_at_20_uM>

> <relative_solubility_at_100_uM>

> <trypsin_IC50>

> <NMR_std_ratio>

> <acrylamide>
False

> <chloroacetamide>
False

> <series>
3-aminopyridine-like

> <frag_id>

> <clash_score>
2.227706505293639

> <docking_score>
1.590554118156433

> <overlap_score>
0.8768002390861511

> <MMFF_internal_energy>
117.33505996631887

> <docked_smiles>
Cc1cc(nc2c1c(n[nH]2)NC(=O)Cc3cccc(c3)Cl)C(F)(F)F

$$$$
EDJ-MED-c8e7a002-9_1
  -OEChem-07262101023D

 32 34  0     0  0  0  0  0  0999 V2000
   11.9780    0.4600   23.9150 C   0  0  0  0  0  0  0  0  0  0  0  0
   10.6560    0.0720   23.7350 C   0  0  0  0  0  0  0  0  0  0  0  0
    3.5974    1.1868   18.2353 C   0  0  0  0  0  0  0  0  0  0  0  0
    2.6152    1.0944   19.2268 C   0  0  0  0  0  0  0  0  0  0  0  0
   12.9840   -0.1200   23.1530 C   0  0  0  0  0  0  0  0  0  0  0  0
    4.1819    0.0660   20.7794 C   0  0  0  0  0  0  0  0  0  0  0  0
   11.3360   -1.5050   22.0650 C   0  0  0  0  0  0  0  0  0  0  0  0
    5.1793    0.1521   19.7938 C   0  0  0  0  0  0  0  0  0  0  0  0
   10.3220   -0.8940   22.7910 C   0  0  0  0  0  0  0  0  0  0  0  0
    4.8683    0.7048   18.5565 C   0  0  0  0  0  0  0  0  0  0  0  0
    2.9004    0.5439   20.4778 C   0  0  0  0  0  0  0  0  0  0  0  0
   12.6400   -1.1000   22.2390 C   0  0  0  0  0  0  0  0  0  0  0  0
    6.5430   -0.1966   19.6884 C   0  0  0  0  0  0  0  0  0  0  0  0
    8.3880   -0.3240   21.3070 C   0  0  0  0  0  0  0  0  0  0  0  0
    8.8810   -1.1900   22.4510 C   0  0  0  0  0  0  0  0  0  0  0  0
    7.0638    0.1027   18.4963 N   0  0  0  0  0  0  0  0  0  0  0  0
    6.0292    0.6459   17.8336 N   0  0  0  0  0  0  0  0  0  0  0  0
    7.2820   -0.7860   20.6970 N   0  0  0  0  0  0  0  0  0  0  0  0
    8.9170    0.7530   21.0260 O   0  0  0  0  0  0  0  0  0  0  0  0
    1.9344    0.4698   21.4039 F   0  0  0  0  0  0  0  0  0  0  0  0
   13.8840   -1.8490   21.2740 Cl  0  0  0  0  0  0  0  0  0  0  0  0
   12.2249    1.2198   24.6546 H   0  0  0  0  0  0  0  0  0  0  0  0
    9.8763    0.5350   24.3454 H   0  0  0  0  0  0  0  0  0  0  0  0
    3.3773    1.6137   17.2632 H   0  0  0  0  0  0  0  0  0  0  0  0
    1.6122    1.4578   19.0197 H   0  0  0  0  0  0  0  0  0  0  0  0
   14.0077    0.1988   23.2842 H   0  0  0  0  0  0  0  0  0  0  0  0
    4.3893   -0.3596   21.7565 H   0  0  0  0  0  0  0  0  0  0  0  0
   11.0892   -2.3009   21.3624 H   0  0  0  0  0  0  0  0  0  0  0  0
    8.7774   -2.2383   22.1732 H   0  0  0  0  0  0  0  0  0  0  0  0
    8.2557   -1.0153   23.3257 H   0  0  0  0  0  0  0  0  0  0  0  0
    6.1826    0.9595   16.8833 H   0  0  0  0  0  0  0  0  0  0  0  0
    6.9394   -1.7028   21.0257 H   0  0  0  0  0  0  0  0  0  0  0  0
  1  2  1  0  0  0  0
  1  5  2  0  0  0  0
  2  9  2  0  0  0  0
  3  4  2  0  0  0  0
  3 10  1  0  0  0  0
  4 11  1  0  0  0  0
  5 12  1  0  0  0  0
  6  8  1  0  0  0  0
  6 11  2  0  0  0  0
  7  9  1  0  0  0  0
  7 12  2  0  0  0  0
  8 10  2  0  0  0  0
  8 13  1  0  0  0  0
  9 15  1  0  0  0  0
 10 17  1  0  0  0  0
 11 20  1  0  0  0  0
 12 21  1  0  0  0  0
 13 16  2  0  0  0  0
 13 18  1  0  0  0  0
 14 15  1  0  0  0  0
 14 18  1  0  0  0  0
 14 19  2  0  0  0  0
 16 17  1  0  0  0  0
  1 22  1  0  0  0  0
  2 23  1  0  0  0  0
  3 24  1  0  0  0  0
  4 25  1  0  0  0  0
  5 26  1  0  0  0  0
  6 27  1  0  0  0  0
  7 28  1  0  0  0  0
 15 29  1  0  0  0  0
 15 30  1  0  0  0  0
 17 31  1  0  0  0  0
 18 32  1  0  0  0  0
M  END
> <compound>
EDJ-MED-c8e7a002-9

> <compound_smiles>
c1cc(cc(c1)Cl)CC(=O)Nc2c3cc(ccc3[nH]n2)F

> <enantiomer_smiles>
c1cc(cc(c1)Cl)CC(=O)Nc2c3cc(ccc3[nH]n2)F

> <scaffold>
chlorobenzene-linker

> <canonical_CID>
EDJ-MED-c8e7a002-9

> <r_inhibition_at_20_uM>

> <r_inhibition_at_50_uM>

> <r_avg_IC50>
88.5840142651519

> <f_inhibition_at_20_uM>

> <f_inhibition_at_50_uM>

> <f_avg_IC50>
99.5

> <f_avg_pIC50>

> <relative_solubility_at_20_uM>

> <relative_solubility_at_100_uM>

> <trypsin_IC50>

> <NMR_std_ratio>

> <acrylamide>
False

> <chloroacetamide>
False

> <series>
3-aminopyridine-like

> <frag_id>

> <clash_score>
0.6198826489141621

> <docking_score>
-1.9050283432006836

> <overlap_score>
0.8694942593574524

> <MMFF_internal_energy>
38.41077922011659

> <docked_smiles>
c1cc(cc(c1)Cl)CC(=O)Nc2c3cc(ccc3[nH]n2)F

$$$$
EDJ-MED-c8e7a002-10_1
  -OEChem-07262101023D

 32 34  0     0  0  0  0  0  0999 V2000
   11.9780    0.4600   23.9150 C   0  0  0  0  0  0  0  0  0  0  0  0
    4.1815    0.0660   20.7788 C   0  0  0  0  0  0  0  0  0  0  0  0
   10.6560    0.0720   23.7350 C   0  0  0  0  0  0  0  0  0  0  0  0
    2.9002    0.5440   20.4767 C   0  0  0  0  0  0  0  0  0  0  0  0
   12.9840   -0.1200   23.1530 C   0  0  0  0  0  0  0  0  0  0  0  0
   11.3360   -1.5050   22.0650 C   0  0  0  0  0  0  0  0  0  0  0  0
    3.5980    1.1868   18.2344 C   0  0  0  0  0  0  0  0  0  0  0  0
    5.1793    0.1520   19.7935 C   0  0  0  0  0  0  0  0  0  0  0  0
   10.3220   -0.8940   22.7910 C   0  0  0  0  0  0  0  0  0  0  0  0
    4.8688    0.7047   18.5560 C   0  0  0  0  0  0  0  0  0  0  0  0
    2.6155    1.0944   19.2256 C   0  0  0  0  0  0  0  0  0  0  0  0
   12.6400   -1.1000   22.2390 C   0  0  0  0  0  0  0  0  0  0  0  0
    6.5430   -0.1968   19.6886 C   0  0  0  0  0  0  0  0  0  0  0  0
    8.3880   -0.3240   21.3070 C   0  0  0  0  0  0  0  0  0  0  0  0
    8.8810   -1.1900   22.4510 C   0  0  0  0  0  0  0  0  0  0  0  0
    7.0643    0.1025   18.4967 N   0  0  0  0  0  0  0  0  0  0  0  0
    6.0299    0.6457   17.8335 N   0  0  0  0  0  0  0  0  0  0  0  0
    7.2820   -0.7860   20.6970 N   0  0  0  0  0  0  0  0  0  0  0  0
    8.9170    0.7530   21.0260 O   0  0  0  0  0  0  0  0  0  0  0  0
    1.3788    1.5434   18.9692 F   0  0  0  0  0  0  0  0  0  0  0  0
   13.8840   -1.8490   21.2740 Cl  0  0  0  0  0  0  0  0  0  0  0  0
   12.2249    1.2198   24.6546 H   0  0  0  0  0  0  0  0  0  0  0  0
    4.3886   -0.3604   21.7556 H   0  0  0  0  0  0  0  0  0  0  0  0
    9.8763    0.5350   24.3454 H   0  0  0  0  0  0  0  0  0  0  0  0
    2.1173    0.4855   21.2283 H   0  0  0  0  0  0  0  0  0  0  0  0
   14.0077    0.1988   23.2842 H   0  0  0  0  0  0  0  0  0  0  0  0
   11.0892   -2.3008   21.3624 H   0  0  0  0  0  0  0  0  0  0  0  0
    3.3788    1.6149   17.2627 H   0  0  0  0  0  0  0  0  0  0  0  0
    8.7774   -2.2383   22.1732 H   0  0  0  0  0  0  0  0  0  0  0  0
    8.2557   -1.0153   23.3257 H   0  0  0  0  0  0  0  0  0  0  0  0
    6.1833    0.9591   16.8832 H   0  0  0  0  0  0  0  0  0  0  0  0
    6.9394   -1.7028   21.0258 H   0  0  0  0  0  0  0  0  0  0  0  0
  1  3  1  0  0  0  0
  1  5  2  0  0  0  0
  2  4  2  0  0  0  0
  2  8  1  0  0  0  0
  3  9  2  0  0  0  0
  4 11  1  0  0  0  0
  5 12  1  0  0  0  0
  6  9  1  0  0  0  0
  6 12  2  0  0  0  0
  7 10  1  0  0  0  0
  7 11  2  0  0  0  0
  8 10  2  0  0  0  0
  8 13  1  0  0  0  0
  9 15  1  0  0  0  0
 10 17  1  0  0  0  0
 11 20  1  0  0  0  0
 12 21  1  0  0  0  0
 13 16  2  0  0  0  0
 13 18  1  0  0  0  0
 14 15  1  0  0  0  0
 14 18  1  0  0  0  0
 14 19  2  0  0  0  0
 16 17  1  0  0  0  0
  1 22  1  0  0  0  0
  2 23  1  0  0  0  0
  3 24  1  0  0  0  0
  4 25  1  0  0  0  0
  5 26  1  0  0  0  0
  6 27  1  0  0  0  0
  7 28  1  0  0  0  0
 15 29  1  0  0  0  0
 15 30  1  0  0  0  0
 17 31  1  0  0  0  0
 18 32  1  0  0  0  0
M  END
> <compound>
EDJ-MED-c8e7a002-10

> <compound_smiles>
c1cc(cc(c1)Cl)CC(=O)Nc2c3ccc(cc3n[nH]2)F

> <enantiomer_smiles>
c1cc(cc(c1)Cl)CC(=O)Nc2c3ccc(cc3n[nH]2)F

> <scaffold>
chlorobenzene-linker

> <canonical_CID>
EDJ-MED-c8e7a002-10

> <r_inhibition_at_20_uM>

> <r_inhibition_at_50_uM>

> <r_avg_IC50>
91.4887190568217

> <f_inhibition_at_20_uM>

> <f_inhibition_at_50_uM>

> <f_avg_IC50>
99.5

> <f_avg_pIC50>

> <relative_solubility_at_20_uM>

> <relative_solubility_at_100_uM>

> <trypsin_IC50>

> <NMR_std_ratio>

> <acrylamide>
False

> <chloroacetamide>
False

> <series>
3-aminopyridine-like

> <frag_id>

> <clash_score>
0.6200590196939675

> <docking_score>
-1.8190608024597168

> <overlap_score>
0.8674317598342896

> <MMFF_internal_energy>
42.886184751247285

> <docked_smiles>
c1cc(cc(c1)Cl)CC(=O)Nc2c3ccc(cc3[nH]n2)F

$$$$
EDJ-MED-c8e7a002-14_1
  -OEChem-07262101023D

 31 33  0     0  0  0  0  0  0999 V2000
   11.9780    0.4600   23.9150 C   0  0  0  0  0  0  0  0  0  0  0  0
    4.4772    3.3204   19.3054 C   0  0  0  0  0  0  0  0  0  0  0  0
   10.6560    0.0720   23.7350 C   0  0  0  0  0  0  0  0  0  0  0  0
    4.5541    2.3843   18.2772 C   0  0  0  0  0  0  0  0  0  0  0  0
   12.9840   -0.1200   23.1530 C   0  0  0  0  0  0  0  0  0  0  0  0
   11.3360   -1.5050   22.0650 C   0  0  0  0  0  0  0  0  0  0  0  0
    5.1222    3.0595   20.5096 C   0  0  0  0  0  0  0  0  0  0  0  0
   10.3220   -0.8940   22.7910 C   0  0  0  0  0  0  0  0  0  0  0  0
    5.9072    1.0528   19.7883 C   0  0  0  0  0  0  0  0  0  0  0  0
    5.2922    1.2387   18.5585 C   0  0  0  0  0  0  0  0  0  0  0  0
   12.6400   -1.1000   22.2390 C   0  0  0  0  0  0  0  0  0  0  0  0
    6.5430   -0.1975   19.6891 C   0  0  0  0  0  0  0  0  0  0  0  0
    8.3880   -0.3240   21.3070 C   0  0  0  0  0  0  0  0  0  0  0  0
    8.8810   -1.1900   22.4510 C   0  0  0  0  0  0  0  0  0  0  0  0
    5.8439    1.9512   20.8002 N   0  0  0  0  0  0  0  0  0  0  0  0
    6.3554   -0.7715   18.4970 N   0  0  0  0  0  0  0  0  0  0  0  0
    5.5952    0.1205   17.8349 N   0  0  0  0  0  0  0  0  0  0  0  0
    7.2820   -0.7860   20.6970 N   0  0  0  0  0  0  0  0  0  0  0  0
    8.9170    0.7530   21.0260 O   0  0  0  0  0  0  0  0  0  0  0  0
   13.8840   -1.8490   21.2740 Cl  0  0  0  0  0  0  0  0  0  0  0  0
   12.2249    1.2198   24.6546 H   0  0  0  0  0  0  0  0  0  0  0  0
    3.9209    4.2419   19.1679 H   0  0  0  0  0  0  0  0  0  0  0  0
    9.8763    0.5350   24.3454 H   0  0  0  0  0  0  0  0  0  0  0  0
    4.0683    2.5403   17.3216 H   0  0  0  0  0  0  0  0  0  0  0  0
   14.0077    0.1988   23.2842 H   0  0  0  0  0  0  0  0  0  0  0  0
   11.0892   -2.3009   21.3624 H   0  0  0  0  0  0  0  0  0  0  0  0
    5.0691    3.7849   21.3173 H   0  0  0  0  0  0  0  0  0  0  0  0
    8.7774   -2.2383   22.1732 H   0  0  0  0  0  0  0  0  0  0  0  0
    8.2557   -1.0153   23.3257 H   0  0  0  0  0  0  0  0  0  0  0  0
    5.3178   -0.0990   16.8862 H   0  0  0  0  0  0  0  0  0  0  0  0
    6.9395   -1.7031   21.0260 H   0  0  0  0  0  0  0  0  0  0  0  0
  1  3  1  0  0  0  0
  1  5  2  0  0  0  0
  2  4  1  0  0  0  0
  2  7  2  0  0  0  0
  3  8  2  0  0  0  0
  4 10  2  0  0  0  0
  5 11  1  0  0  0  0
  6  8  1  0  0  0  0
  6 11  2  0  0  0  0
  7 15  1  0  0  0  0
  8 14  1  0  0  0  0
  9 10  1  0  0  0  0
  9 12  1  0  0  0  0
  9 15  2  0  0  0  0
 10 17  1  0  0  0  0
 11 20  1  0  0  0  0
 12 16  2  0  0  0  0
 12 18  1  0  0  0  0
 13 14  1  0  0  0  0
 13 18  1  0  0  0  0
 13 19  2  0  0  0  0
 16 17  1  0  0  0  0
  1 21  1  0  0  0  0
  2 22  1  0  0  0  0
  3 23  1  0  0  0  0
  4 24  1  0  0  0  0
  5 25  1  0  0  0  0
  6 26  1  0  0  0  0
  7 27  1  0  0  0  0
 14 28  1  0  0  0  0
 14 29  1  0  0  0  0
 17 30  1  0  0  0  0
 18 31  1  0  0  0  0
M  END
> <compound>
EDJ-MED-c8e7a002-14

> <compound_smiles>
c1cc(cc(c1)Cl)CC(=O)Nc2c3c(cccn3)n[nH]2

> <enantiomer_smiles>
c1cc(cc(c1)Cl)CC(=O)Nc2c3c(cccn3)n[nH]2

> <scaffold>
chlorobenzene-linker

> <canonical_CID>
EDJ-MED-c8e7a002-14

> <r_inhibition_at_20_uM>

> <r_inhibition_at_50_uM>

> <r_avg_IC50>
99.0

> <f_inhibition_at_20_uM>

> <f_inhibition_at_50_uM>

> <f_avg_IC50>
99.5

> <f_avg_pIC50>

> <relative_solubility_at_20_uM>

> <relative_solubility_at_100_uM>

> <trypsin_IC50>

> <NMR_std_ratio>

> <acrylamide>
False

> <chloroacetamide>
False

> <series>
3-aminopyridine-like

> <frag_id>

> <clash_score>
0

> <docking_score>
-4.941479206085205

> <overlap_score>
0.853622555732727

> <MMFF_internal_energy>
58.57426291907462

> <docked_smiles>
c1cc(cc(c1)Cl)CC(=O)Nc2c3c(cccn3)[nH]n2

$$$$
EDJ-MED-c8e7a002-13_1
  -OEChem-07262101023D

 32 34  0     0  0  0  0  0  0999 V2000
   11.9780    0.4600   23.9150 C   0  0  0  0  0  0  0  0  0  0  0  0
    4.4256    3.3536   19.2184 C   0  0  0  0  0  0  0  0  0  0  0  0
   10.6560    0.0720   23.7350 C   0  0  0  0  0  0  0  0  0  0  0  0
    4.5461    2.3705   18.2307 C   0  0  0  0  0  0  0  0  0  0  0  0
    5.0292    3.2007   20.4680 C   0  0  0  0  0  0  0  0  0  0  0  0
   12.9840   -0.1200   23.1530 C   0  0  0  0  0  0  0  0  0  0  0  0
   11.3360   -1.5050   22.0650 C   0  0  0  0  0  0  0  0  0  0  0  0
    5.9060    1.0590   19.7903 C   0  0  0  0  0  0  0  0  0  0  0  0
   10.3220   -0.8940   22.7910 C   0  0  0  0  0  0  0  0  0  0  0  0
    5.2947    1.2368   18.5542 C   0  0  0  0  0  0  0  0  0  0  0  0
    5.7758    2.0554   20.7722 C   0  0  0  0  0  0  0  0  0  0  0  0
   12.6400   -1.1000   22.2390 C   0  0  0  0  0  0  0  0  0  0  0  0
    6.5430   -0.1964   19.6884 C   0  0  0  0  0  0  0  0  0  0  0  0
    8.3880   -0.3240   21.3070 C   0  0  0  0  0  0  0  0  0  0  0  0
    8.8810   -1.1900   22.4510 C   0  0  0  0  0  0  0  0  0  0  0  0
    6.3608   -0.7750   18.4992 N   0  0  0  0  0  0  0  0  0  0  0  0
    5.6031    0.1137   17.8350 N   0  0  0  0  0  0  0  0  0  0  0  0
    7.2820   -0.7860   20.6970 N   0  0  0  0  0  0  0  0  0  0  0  0
    8.9170    0.7530   21.0260 O   0  0  0  0  0  0  0  0  0  0  0  0
    6.3473    1.9264   21.9763 F   0  0  0  0  0  0  0  0  0  0  0  0
   13.8840   -1.8490   21.2740 Cl  0  0  0  0  0  0  0  0  0  0  0  0
   12.2249    1.2198   24.6546 H   0  0  0  0  0  0  0  0  0  0  0  0
    3.8514    4.2525   19.0083 H   0  0  0  0  0  0  0  0  0  0  0  0
    9.8763    0.5350   24.3454 H   0  0  0  0  0  0  0  0  0  0  0  0
    4.0782    2.4875   17.2598 H   0  0  0  0  0  0  0  0  0  0  0  0
    4.9188    3.9808   21.2167 H   0  0  0  0  0  0  0  0  0  0  0  0
   14.0077    0.1988   23.2842 H   0  0  0  0  0  0  0  0  0  0  0  0
   11.0892   -2.3009   21.3624 H   0  0  0  0  0  0  0  0  0  0  0  0
    8.7774   -2.2383   22.1732 H   0  0  0  0  0  0  0  0  0  0  0  0
    8.2557   -1.0153   23.3257 H   0  0  0  0  0  0  0  0  0  0  0  0
    5.3280   -0.1078   16.8862 H   0  0  0  0  0  0  0  0  0  0  0  0
    6.9394   -1.7027   21.0256 H   0  0  0  0  0  0  0  0  0  0  0  0
  1  3  1  0  0  0  0
  1  6  2  0  0  0  0
  2  4  1  0  0  0  0
  2  5  2  0  0  0  0
  3  9  2  0  0  0  0
  4 10  2  0  0  0  0
  5 11  1  0  0  0  0
  6 12  1  0  0  0  0
  7  9  1  0  0  0  0
  7 12  2  0  0  0  0
  8 10  1  0  0  0  0
  8 11  2  0  0  0  0
  8 13  1  0  0  0  0
  9 15  1  0  0  0  0
 10 17  1  0  0  0  0
 11 20  1  0  0  0  0
 12 21  1  0  0  0  0
 13 16  2  0  0  0  0
 13 18  1  0  0  0  0
 14 15  1  0  0  0  0
 14 18  1  0  0  0  0
 14 19  2  0  0  0  0
 16 17  1  0  0  0  0
  1 22  1  0  0  0  0
  2 23  1  0  0  0  0
  3 24  1  0  0  0  0
  4 25  1  0  0  0  0
  5 26  1  0  0  0  0
  6 27  1  0  0  0  0
  7 28  1  0  0  0  0
 15 29  1  0  0  0  0
 15 30  1  0  0  0  0
 17 31  1  0  0  0  0
 18 32  1  0  0  0  0
M  END
> <compound>
EDJ-MED-c8e7a002-13

> <compound_smiles>
c1cc(cc(c1)Cl)CC(=O)Nc2c3c(cccc3F)n[nH]2

> <enantiomer_smiles>
c1cc(cc(c1)Cl)CC(=O)Nc2c3c(cccc3F)n[nH]2

> <scaffold>
chlorobenzene-linker

> <canonical_CID>
EDJ-MED-c8e7a002-13

> <r_inhibition_at_20_uM>

> <r_inhibition_at_50_uM>

> <r_avg_IC50>
81.756295431075

> <f_inhibition_at_20_uM>

> <f_inhibition_at_50_uM>

> <f_avg_IC50>
99.5

> <f_avg_pIC50>

> <relative_solubility_at_20_uM>

> <relative_solubility_at_100_uM>

> <trypsin_IC50>

> <NMR_std_ratio>

> <acrylamide>
False

> <chloroacetamide>
False

> <series>
3-aminopyridine-like

> <frag_id>

> <clash_score>
0

> <docking_score>
-4.565104961395264

> <overlap_score>
0.8584751486778259

> <MMFF_internal_energy>
41.778176415734194

> <docked_smiles>
c1cc(cc(c1)Cl)CC(=O)Nc2c3c(cccc3F)[nH]n2

$$$$
EDJ-MED-c8e7a002-17_1
  -OEChem-07262101023D

 31 33  0     0  0  0  0  0  0999 V2000
   11.9780    0.4600   23.9150 C   0  0  0  0  0  0  0  0  0  0  0  0
   10.6560    0.0720   23.7350 C   0  0  0  0  0  0  0  0  0  0  0  0
   12.9840   -0.1200   23.1530 C   0  0  0  0  0  0  0  0  0  0  0  0
   11.3360   -1.5050   22.0650 C   0  0  0  0  0  0  0  0  0  0  0  0
   10.3220   -0.8940   22.7910 C   0  0  0  0  0  0  0  0  0  0  0  0
   12.6400   -1.1000   22.2390 C   0  0  0  0  0  0  0  0  0  0  0  0
    5.4611    1.1468   17.5687 C   0  0  0  0  0  0  0  0  0  0  0  0
    6.6802   -0.1574   19.6491 C   0  0  0  0  0  0  0  0  0  0  0  0
    6.4955   -0.6885   18.4242 C   0  0  0  0  0  0  0  0  0  0  0  0
    6.1852    1.2166   19.8577 C   0  0  0  0  0  0  0  0  0  0  0  0
    5.2078    3.0681   19.1985 C   0  0  0  0  0  0  0  0  0  0  0  0
    8.3880   -0.3240   21.3070 C   0  0  0  0  0  0  0  0  0  0  0  0
    8.8810   -1.1900   22.4510 C   0  0  0  0  0  0  0  0  0  0  0  0
    5.8856   -0.0567   17.3567 N   0  0  0  0  0  0  0  0  0  0  0  0
    6.2301    1.9591   20.9188 N   0  0  0  0  0  0  0  0  0  0  0  0
    5.6250    3.1286   20.5402 N   0  0  0  0  0  0  0  0  0  0  0  0
    5.5928    1.7964   18.7811 N   0  0  0  0  0  0  0  0  0  0  0  0
    7.2820   -0.7860   20.6970 N   0  0  0  0  0  0  0  0  0  0  0  0
    4.6387    3.9399   18.5602 O   0  0  0  0  0  0  0  0  0  0  0  0
    8.9170    0.7530   21.0260 O   0  0  0  0  0  0  0  0  0  0  0  0
   13.8840   -1.8490   21.2740 Cl  0  0  0  0  0  0  0  0  0  0  0  0
    7.0434   -2.3048   18.0764 Cl  0  0  0  0  0  0  0  0  0  0  0  0
   12.2249    1.2198   24.6546 H   0  0  0  0  0  0  0  0  0  0  0  0
    9.8763    0.5350   24.3454 H   0  0  0  0  0  0  0  0  0  0  0  0
   14.0077    0.1988   23.2842 H   0  0  0  0  0  0  0  0  0  0  0  0
   11.0892   -2.3009   21.3624 H   0  0  0  0  0  0  0  0  0  0  0  0
    4.9614    1.7391   16.7875 H   0  0  0  0  0  0  0  0  0  0  0  0
    8.2535   -1.0146   23.3240 H   0  0  0  0  0  0  0  0  0  0  0  0
    8.7756   -2.2377   22.1724 H   0  0  0  0  0  0  0  0  0  0  0  0
    5.4956    3.9294   21.1454 H   0  0  0  0  0  0  0  0  0  0  0  0
    6.8626   -1.6490   21.0264 H   0  0  0  0  0  0  0  0  0  0  0  0
  1  2  1  0  0  0  0
  1  3  2  0  0  0  0
  2  5  2  0  0  0  0
  3  6  1  0  0  0  0
  4  5  1  0  0  0  0
  4  6  2  0  0  0  0
  5 13  1  0  0  0  0
  6 21  1  0  0  0  0
  7 14  2  0  0  0  0
  7 17  1  0  0  0  0
  8  9  2  0  0  0  0
  8 10  1  0  0  0  0
  8 18  1  0  0  0  0
  9 14  1  0  0  0  0
  9 22  1  0  0  0  0
 10 15  2  0  0  0  0
 10 17  1  0  0  0  0
 11 16  1  0  0  0  0
 11 17  1  0  0  0  0
 11 19  2  0  0  0  0
 12 13  1  0  0  0  0
 12 18  1  0  0  0  0
 12 20  2  0  0  0  0
 15 16  1  0  0  0  0
  1 23  1  0  0  0  0
  2 24  1  0  0  0  0
  3 25  1  0  0  0  0
  4 26  1  0  0  0  0
  7 27  1  0  0  0  0
 13 28  1  0  0  0  0
 13 29  1  0  0  0  0
 16 30  1  0  0  0  0
 18 31  1  0  0  0  0
M  END
> <compound>
EDJ-MED-c8e7a002-17

> <compound_smiles>
c1cc(cc(c1)Cl)CC(=O)Nc2c3nnc(n3cnc2Cl)O

> <enantiomer_smiles>
c1cc(cc(c1)Cl)CC(=O)Nc2c3nnc(n3cnc2Cl)O

> <scaffold>
chlorobenzene-linker

> <clash_score>
2.152566616533331

> <docking_score>
-4.905855178833008

> <overlap_score>
0.8337498903274536

> <MMFF_internal_energy>
37.42119215392285

> <docked_smiles>
c1cc(cc(c1)Cl)CC(=O)Nc2c3n[nH]c(=O)n3cnc2Cl

$$$$
MAT-POS-199e2e7c-1_1
  -OEChem-07262101023D

 35 37  0     0  0  0  0  0  0999 V2000
   11.9780    0.4600   23.9150 C   0  0  0  0  0  0  0  0  0  0  0  0
   10.6560    0.0720   23.7350 C   0  0  0  0  0  0  0  0  0  0  0  0
   12.9840   -0.1200   23.1530 C   0  0  0  0  0  0  0  0  0  0  0  0
   11.3360   -1.5050   22.0650 C   0  0  0  0  0  0  0  0  0  0  0  0
    5.3030    0.9024   17.4539 C   0  0  0  0  0  0  0  0  0  0  0  0
    7.2020   -0.0234   18.3979 C   0  0  0  0  0  0  0  0  0  0  0  0
    4.6123    0.7266   18.6297 C   0  0  0  0  0  0  0  0  0  0  0  0
    5.2681    0.1564   19.7199 C   0  0  0  0  0  0  0  0  0  0  0  0
   10.3220   -0.8940   22.7910 C   0  0  0  0  0  0  0  0  0  0  0  0
    6.5901   -0.2279   19.6263 C   0  0  0  0  0  0  0  0  0  0  0  0
   12.6400   -1.1000   22.2390 C   0  0  0  0  0  0  0  0  0  0  0  0
    8.3880   -0.3240   21.3070 C   0  0  0  0  0  0  0  0  0  0  0  0
    3.2127    1.1080   18.9750 C   0  0  0  0  0  0  0  0  0  0  0  0
    4.3654    0.0989   20.9106 C   0  0  0  0  0  0  0  0  0  0  0  0
    2.9892    0.2767   20.2485 C   0  0  0  0  0  0  0  0  0  0  0  0
    8.8810   -1.1900   22.4510 C   0  0  0  0  0  0  0  0  0  0  0  0
    6.5956    0.5292   17.3122 N   0  0  0  0  0  0  0  0  0  0  0  0
    7.2820   -0.7860   20.6970 N   0  0  0  0  0  0  0  0  0  0  0  0
    8.9170    0.7530   21.0260 O   0  0  0  0  0  0  0  0  0  0  0  0
   13.8840   -1.8490   21.2740 Cl  0  0  0  0  0  0  0  0  0  0  0  0
   12.2249    1.2198   24.6546 H   0  0  0  0  0  0  0  0  0  0  0  0
    9.8763    0.5350   24.3454 H   0  0  0  0  0  0  0  0  0  0  0  0
   14.0077    0.1988   23.2842 H   0  0  0  0  0  0  0  0  0  0  0  0
   11.0892   -2.3009   21.3624 H   0  0  0  0  0  0  0  0  0  0  0  0
    4.8451    1.3514   16.5804 H   0  0  0  0  0  0  0  0  0  0  0  0
    8.2400   -0.3007   18.2360 H   0  0  0  0  0  0  0  0  0  0  0  0
    3.1537    2.1802   19.1876 H   0  0  0  0  0  0  0  0  0  0  0  0
    2.4979    0.8398   18.1922 H   0  0  0  0  0  0  0  0  0  0  0  0
    4.4261   -0.8537   21.4444 H   0  0  0  0  0  0  0  0  0  0  0  0
    4.5844    0.9274   21.5921 H   0  0  0  0  0  0  0  0  0  0  0  0
    2.2572    0.7328   20.9223 H   0  0  0  0  0  0  0  0  0  0  0  0
    2.5972   -0.7112   19.9681 H   0  0  0  0  0  0  0  0  0  0  0  0
    8.7774   -2.2383   22.1732 H   0  0  0  0  0  0  0  0  0  0  0  0
    8.2557   -1.0153   23.3257 H   0  0  0  0  0  0  0  0  0  0  0  0
    6.8984   -1.6642   21.0696 H   0  0  0  0  0  0  0  0  0  0  0  0
  1  2  1  0  0  0  0
  1  3  2  0  0  0  0
  2  9  2  0  0  0  0
  3 11  1  0  0  0  0
  4  9  1  0  0  0  0
  4 11  2  0  0  0  0
  5  7  2  0  0  0  0
  5 17  1  0  0  0  0
  6 10  1  0  0  0  0
  6 17  2  0  0  0  0
  7  8  1  0  0  0  0
  7 13  1  0  0  0  0
  8 10  2  0  0  0  0
  8 14  1  0  0  0  0
  9 16  1  0  0  0  0
 10 18  1  0  0  0  0
 11 20  1  0  0  0  0
 12 16  1  0  0  0  0
 12 18  1  0  0  0  0
 12 19  2  0  0  0  0
 13 15  1  0  0  0  0
 14 15  1  0  0  0  0
  1 21  1  0  0  0  0
  2 22  1  0  0  0  0
  3 23  1  0  0  0  0
  4 24  1  0  0  0  0
  5 25  1  0  0  0  0
  6 26  1  0  0  0  0
 13 27  1  0  0  0  0
 13 28  1  0  0  0  0
 14 29  1  0  0  0  0
 14 30  1  0  0  0  0
 15 31  1  0  0  0  0
 15 32  1  0  0  0  0
 16 33  1  0  0  0  0
 16 34  1  0  0  0  0
 18 35  1  0  0  0  0
M  END
> <compound>
MAT-POS-199e2e7c-1

> <compound_smiles>
c1cc(cc(c1)Cl)CC(=O)Nc2cncc3c2CCC3

> <enantiomer_smiles>
c1cc(cc(c1)Cl)CC(=O)Nc2cncc3c2CCC3

> <scaffold>
chlorobenzene-linker

> <canonical_CID>
MAT-POS-199e2e7c-1

> <r_inhibition_at_20_uM>

> <r_inhibition_at_50_uM>

> <r_avg_IC50>
4.64891486609542

> <f_inhibition_at_20_uM>

> <f_inhibition_at_50_uM>

> <f_avg_IC50>
5.16341400207183

> <f_avg_pIC50>

> <relative_solubility_at_20_uM>

> <relative_solubility_at_100_uM>

> <trypsin_IC50>

> <NMR_std_ratio>

> <acrylamide>
False

> <chloroacetamide>
False

> <series>
3-aminopyridine-like

> <frag_id>
x12000

> <clash_score>
0.6945572432036232

> <docking_score>
-7.11557149887085

> <overlap_score>
0.8743317127227783

> <MMFF_internal_energy>
76.2397735303723

> <docked_smiles>
c1cc(cc(c1)Cl)CC(=O)Nc2cncc3c2CCC3

$$$$
RIT-UNK-fa3975ff-1_1
  -OEChem-07262101023D

 33 34  0     1  0  0  0  0  0999 V2000
    8.6645   -2.6299   22.1534 C   0  0  0  0  0  0  0  0  0  0  0  0
   11.9780    0.4600   23.9150 C   0  0  0  0  0  0  0  0  0  0  0  0
   10.6560    0.0720   23.7350 C   0  0  0  0  0  0  0  0  0  0  0  0
   12.9840   -0.1200   23.1530 C   0  0  0  0  0  0  0  0  0  0  0  0
    5.1445    1.0548   17.6619 C   0  0  0  0  0  0  0  0  0  0  0  0
   11.3360   -1.5050   22.0650 C   0  0  0  0  0  0  0  0  0  0  0  0
    7.2320    0.6596   18.7892 C   0  0  0  0  0  0  0  0  0  0  0  0
    4.5474    0.2144   18.5877 C   0  0  0  0  0  0  0  0  0  0  0  0
   10.3220   -0.8940   22.7910 C   0  0  0  0  0  0  0  0  0  0  0  0
    6.5127    1.2764   17.7715 C   0  0  0  0  0  0  0  0  0  0  0  0
   12.6400   -1.1000   22.2390 C   0  0  0  0  0  0  0  0  0  0  0  0
    6.5414   -0.1629   19.6646 C   0  0  0  0  0  0  0  0  0  0  0  0
    8.3880   -0.3240   21.3070 C   0  0  0  0  0  0  0  0  0  0  0  0
    6.3441    2.6924   15.8683 C   0  0  0  0  0  0  0  0  0  0  0  0
    8.8810   -1.1900   22.4510 C   0  0  1  0  0  0  0  0  0  0  0  0
    8.5034   -3.7554   21.9209 N   0  0  0  0  0  0  0  0  0  0  0  0
    5.2129   -0.4024   19.5898 N   0  0  0  0  0  0  0  0  0  0  0  0
    7.2820   -0.7860   20.6970 N   0  0  0  0  0  0  0  0  0  0  0  0
    8.9170    0.7530   21.0260 O   0  0  0  0  0  0  0  0  0  0  0  0
    7.1449    2.0935   16.8864 O   0  0  0  0  0  0  0  0  0  0  0  0
   13.8840   -1.8490   21.2740 Cl  0  0  0  0  0  0  0  0  0  0  0  0
   12.2249    1.2198   24.6546 H   0  0  0  0  0  0  0  0  0  0  0  0
    9.8763    0.5350   24.3454 H   0  0  0  0  0  0  0  0  0  0  0  0
   14.0077    0.1988   23.2842 H   0  0  0  0  0  0  0  0  0  0  0  0
    4.5583    1.5224   16.8784 H   0  0  0  0  0  0  0  0  0  0  0  0
   11.0892   -2.3009   21.3624 H   0  0  0  0  0  0  0  0  0  0  0  0
    8.3008    0.8234   18.8870 H   0  0  0  0  0  0  0  0  0  0  0  0
    3.4828    0.0089   18.5456 H   0  0  0  0  0  0  0  0  0  0  0  0
    6.9725    3.3193   15.2310 H   0  0  0  0  0  0  0  0  0  0  0  0
    5.5579    3.2955   16.3295 H   0  0  0  0  0  0  0  0  0  0  0  0
    5.8887    1.9039   15.2644 H   0  0  0  0  0  0  0  0  0  0  0  0
    8.2407   -0.9723   23.3278 H   0  0  0  0  0  0  0  0  0  0  0  0
    6.9176   -1.6837   21.0087 H   0  0  0  0  0  0  0  0  0  0  0  0
  1 15  1  0  0  0  0
  1 16  3  0  0  0  0
  2  3  2  0  0  0  0
  2  4  1  0  0  0  0
  3  9  1  0  0  0  0
  4 11  2  0  0  0  0
  5  8  2  0  0  0  0
  5 10  1  0  0  0  0
  6  9  2  0  0  0  0
  6 11  1  0  0  0  0
  7 10  2  0  0  0  0
  7 12  1  0  0  0  0
  8 17  1  0  0  0  0
  9 15  1  0  0  0  0
 10 20  1  0  0  0  0
 11 21  1  0  0  0  0
 12 17  2  0  0  0  0
 12 18  1  0  0  0  0
 13 15  1  1  0  0  0
 13 18  1  0  0  0  0
 13 19  2  0  0  0  0
 14 20  1  0  0  0  0
  2 22  1  0  0  0  0
  3 23  1  0  0  0  0
  4 24  1  0  0  0  0
  5 25  1  0  0  0  0
  6 26  1  0  0  0  0
  7 27  1  0  0  0  0
  8 28  1  0  0  0  0
 14 29  1  0  0  0  0
 14 30  1  0  0  0  0
 14 31  1  0  0  0  0
 15 32  1  0  0  0  0
 18 33  1  0  0  0  0
M  END
> <compound>
RIT-UNK-fa3975ff-1

> <compound_smiles>
COc1ccnc(c1)NC(=O)C(C#N)c2cccc(c2)Cl

> <enantiomer_smiles>
COc1ccnc(c1)NC(=O)[C@@H](C#N)c2cccc(c2)Cl

> <scaffold>
chlorobenzene-linker

> <clash_score>
1.3087823917999235

> <docking_score>
-2.1928114891052246

> <overlap_score>
0.790113627910614

> <MMFF_internal_energy>
30.386852032149342

> <docked_smiles>
COc1ccnc(c1)NC(=O)[C@@H](C#N)c2cccc(c2)Cl

$$$$
EDJ-MED-c8e7a002-16_1
  -OEChem-07262101023D

 31 33  0     0  0  0  0  0  0999 V2000
   11.9780    0.4600   23.9150 C   0  0  0  0  0  0  0  0  0  0  0  0
   10.6560    0.0720   23.7350 C   0  0  0  0  0  0  0  0  0  0  0  0
   12.9840   -0.1200   23.1530 C   0  0  0  0  0  0  0  0  0  0  0  0
    3.6025    1.1837   18.2444 C   0  0  0  0  0  0  0  0  0  0  0  0
   11.3360   -1.5050   22.0650 C   0  0  0  0  0  0  0  0  0  0  0  0
    2.6819    1.0592   19.2750 C   0  0  0  0  0  0  0  0  0  0  0  0
    4.1831    0.0702   20.7652 C   0  0  0  0  0  0  0  0  0  0  0  0
    5.1803    0.1518   19.7933 C   0  0  0  0  0  0  0  0  0  0  0  0
   10.3220   -0.8940   22.7910 C   0  0  0  0  0  0  0  0  0  0  0  0
    4.8685    0.7052   18.5576 C   0  0  0  0  0  0  0  0  0  0  0  0
   12.6400   -1.1000   22.2390 C   0  0  0  0  0  0  0  0  0  0  0  0
    6.5430   -0.1967   19.6885 C   0  0  0  0  0  0  0  0  0  0  0  0
    8.3880   -0.3240   21.3070 C   0  0  0  0  0  0  0  0  0  0  0  0
    8.8810   -1.1900   22.4510 C   0  0  0  0  0  0  0  0  0  0  0  0
    2.9353    0.5275   20.4958 N   0  0  0  0  0  0  0  0  0  0  0  0
    7.0634    0.1028   18.4960 N   0  0  0  0  0  0  0  0  0  0  0  0
    6.0286    0.6472   17.8339 N   0  0  0  0  0  0  0  0  0  0  0  0
    7.2820   -0.7860   20.6970 N   0  0  0  0  0  0  0  0  0  0  0  0
    8.9170    0.7530   21.0260 O   0  0  0  0  0  0  0  0  0  0  0  0
   13.8840   -1.8490   21.2740 Cl  0  0  0  0  0  0  0  0  0  0  0  0
   12.2249    1.2198   24.6546 H   0  0  0  0  0  0  0  0  0  0  0  0
    9.8763    0.5350   24.3454 H   0  0  0  0  0  0  0  0  0  0  0  0
   14.0077    0.1988   23.2842 H   0  0  0  0  0  0  0  0  0  0  0  0
    3.3548    1.6158   17.2842 H   0  0  0  0  0  0  0  0  0  0  0  0
   11.0892   -2.3009   21.3624 H   0  0  0  0  0  0  0  0  0  0  0  0
    1.6610    1.4031   19.1356 H   0  0  0  0  0  0  0  0  0  0  0  0
    4.3404   -0.3447   21.7535 H   0  0  0  0  0  0  0  0  0  0  0  0
    8.7774   -2.2383   22.1732 H   0  0  0  0  0  0  0  0  0  0  0  0
    8.2557   -1.0153   23.3257 H   0  0  0  0  0  0  0  0  0  0  0  0
    6.1807    0.9600   16.8831 H   0  0  0  0  0  0  0  0  0  0  0  0
    6.9394   -1.7028   21.0257 H   0  0  0  0  0  0  0  0  0  0  0  0
  1  2  1  0  0  0  0
  1  3  2  0  0  0  0
  2  9  2  0  0  0  0
  3 11  1  0  0  0  0
  4  6  2  0  0  0  0
  4 10  1  0  0  0  0
  5  9  1  0  0  0  0
  5 11  2  0  0  0  0
  6 15  1  0  0  0  0
  7  8  1  0  0  0  0
  7 15  2  0  0  0  0
  8 10  2  0  0  0  0
  8 12  1  0  0  0  0
  9 14  1  0  0  0  0
 10 17  1  0  0  0  0
 11 20  1  0  0  0  0
 12 16  2  0  0  0  0
 12 18  1  0  0  0  0
 13 14  1  0  0  0  0
 13 18  1  0  0  0  0
 13 19  2  0  0  0  0
 16 17  1  0  0  0  0
  1 21  1  0  0  0  0
  2 22  1  0  0  0  0
  3 23  1  0  0  0  0
  4 24  1  0  0  0  0
  5 25  1  0  0  0  0
  6 26  1  0  0  0  0
  7 27  1  0  0  0  0
 14 28  1  0  0  0  0
 14 29  1  0  0  0  0
 17 30  1  0  0  0  0
 18 31  1  0  0  0  0
M  END
> <compound>
EDJ-MED-c8e7a002-16

> <compound_smiles>
c1cc(cc(c1)Cl)CC(=O)Nc2c3cnccc3[nH]n2

> <enantiomer_smiles>
c1cc(cc(c1)Cl)CC(=O)Nc2c3cnccc3[nH]n2

> <scaffold>
chlorobenzene-linker

> <canonical_CID>
EDJ-MED-c8e7a002-16

> <r_inhibition_at_20_uM>

> <r_inhibition_at_50_uM>

> <r_avg_IC50>
99.0

> <f_inhibition_at_20_uM>

> <f_inhibition_at_50_uM>

> <f_avg_IC50>
99.5

> <f_avg_pIC50>

> <relative_solubility_at_20_uM>

> <relative_solubility_at_100_uM>

> <trypsin_IC50>

> <NMR_std_ratio>

> <acrylamide>
False

> <chloroacetamide>
False

> <series>
3-aminopyridine-like

> <frag_id>

> <clash_score>
0.6158354576244087

> <docking_score>
-1.7573148012161255

> <overlap_score>
0.8673661947250366

> <MMFF_internal_energy>
48.790692606215394

> <docked_smiles>
c1cc(cc(c1)Cl)CC(=O)Nc2c3cnccc3[nH]n2

$$$$
MAT-POS-199e2e7c-2_1
  -OEChem-07262101023D

 31 33  0     0  0  0  0  0  0999 V2000
   11.9780    0.4600   23.9150 C   0  0  0  0  0  0  0  0  0  0  0  0
   10.6560    0.0720   23.7350 C   0  0  0  0  0  0  0  0  0  0  0  0
   12.9840   -0.1200   23.1530 C   0  0  0  0  0  0  0  0  0  0  0  0
    5.0514    1.0304   17.6181 C   0  0  0  0  0  0  0  0  0  0  0  0
   11.3360   -1.5050   22.0650 C   0  0  0  0  0  0  0  0  0  0  0  0
    5.1674   -0.3406   17.7969 C   0  0  0  0  0  0  0  0  0  0  0  0
    7.0146    2.3086   20.2920 C   0  0  0  0  0  0  0  0  0  0  0  0
    6.4869    1.2095   19.5831 C   0  0  0  0  0  0  0  0  0  0  0  0
   10.3220   -0.8940   22.7910 C   0  0  0  0  0  0  0  0  0  0  0  0
    5.7446    1.7829   18.5580 C   0  0  0  0  0  0  0  0  0  0  0  0
   12.6400   -1.1000   22.2390 C   0  0  0  0  0  0  0  0  0  0  0  0
    6.5423   -0.1811   19.6775 C   0  0  0  0  0  0  0  0  0  0  0  0
    8.3880   -0.3240   21.3070 C   0  0  0  0  0  0  0  0  0  0  0  0
    8.8810   -1.1900   22.4510 C   0  0  0  0  0  0  0  0  0  0  0  0
    5.8779   -0.9483   18.7782 N   0  0  0  0  0  0  0  0  0  0  0  0
    6.6483    3.4830   19.7731 N   0  0  0  0  0  0  0  0  0  0  0  0
    5.8808    3.1341   18.7268 N   0  0  0  0  0  0  0  0  0  0  0  0
    7.2820   -0.7860   20.6970 N   0  0  0  0  0  0  0  0  0  0  0  0
    8.9170    0.7530   21.0260 O   0  0  0  0  0  0  0  0  0  0  0  0
   13.8840   -1.8490   21.2740 Cl  0  0  0  0  0  0  0  0  0  0  0  0
   12.2249    1.2198   24.6546 H   0  0  0  0  0  0  0  0  0  0  0  0
    9.8763    0.5350   24.3454 H   0  0  0  0  0  0  0  0  0  0  0  0
   14.0077    0.1988   23.2842 H   0  0  0  0  0  0  0  0  0  0  0  0
    4.4728    1.4722   16.8180 H   0  0  0  0  0  0  0  0  0  0  0  0
   11.0892   -2.3009   21.3624 H   0  0  0  0  0  0  0  0  0  0  0  0
    4.6633   -1.0219   17.1174 H   0  0  0  0  0  0  0  0  0  0  0  0
    7.6509    2.3040   21.1659 H   0  0  0  0  0  0  0  0  0  0  0  0
    8.7774   -2.2383   22.1732 H   0  0  0  0  0  0  0  0  0  0  0  0
    8.2557   -1.0153   23.3257 H   0  0  0  0  0  0  0  0  0  0  0  0
    5.4764    3.8717   18.1636 H   0  0  0  0  0  0  0  0  0  0  0  0
    6.9384   -1.6966   21.0207 H   0  0  0  0  0  0  0  0  0  0  0  0
  1  2  1  0  0  0  0
  1  3  2  0  0  0  0
  2  9  2  0  0  0  0
  3 11  1  0  0  0  0
  4  6  2  0  0  0  0
  4 10  1  0  0  0  0
  5  9  1  0  0  0  0
  5 11  2  0  0  0  0
  6 15  1  0  0  0  0
  7  8  1  0  0  0  0
  7 16  2  0  0  0  0
  8 10  2  0  0  0  0
  8 12  1  0  0  0  0
  9 14  1  0  0  0  0
 10 17  1  0  0  0  0
 11 20  1  0  0  0  0
 12 15  2  0  0  0  0
 12 18  1  0  0  0  0
 13 14  1  0  0  0  0
 13 18  1  0  0  0  0
 13 19  2  0  0  0  0
 16 17  1  0  0  0  0
  1 21  1  0  0  0  0
  2 22  1  0  0  0  0
  3 23  1  0  0  0  0
  4 24  1  0  0  0  0
  5 25  1  0  0  0  0
  6 26  1  0  0  0  0
  7 27  1  0  0  0  0
 14 28  1  0  0  0  0
 14 29  1  0  0  0  0
 17 30  1  0  0  0  0
 18 31  1  0  0  0  0
M  END
> <compound>
MAT-POS-199e2e7c-2

> <compound_smiles>
c1cc(cc(c1)Cl)CC(=O)Nc2c3cn[nH]c3ccn2

> <enantiomer_smiles>
c1cc(cc(c1)Cl)CC(=O)Nc2c3cn[nH]c3ccn2

> <scaffold>
chlorobenzene-linker

> <clash_score>
1.336884723857311

> <docking_score>
-2.63399600982666

> <overlap_score>
0.7718221545219421

> <MMFF_internal_energy>
39.16009336704421

> <docked_smiles>
c1cc(cc(c1)Cl)CC(=O)Nc2c3cn[nH]c3ccn2

$$$$
PET-UNK-e44ffd04-1_1
  -OEChem-07262101023D

 31 33  0     0  0  0  0  0  0999 V2000
   11.9780    0.4600   23.9150 C   0  0  0  0  0  0  0  0  0  0  0  0
   10.6560    0.0720   23.7350 C   0  0  0  0  0  0  0  0  0  0  0  0
   12.9840   -0.1200   23.1530 C   0  0  0  0  0  0  0  0  0  0  0  0
   11.3360   -1.5050   22.0650 C   0  0  0  0  0  0  0  0  0  0  0  0
   10.3220   -0.8940   22.7910 C   0  0  0  0  0  0  0  0  0  0  0  0
   12.6400   -1.1000   22.2390 C   0  0  0  0  0  0  0  0  0  0  0  0
    4.9793    0.0930   18.1993 C   0  0  0  0  0  0  0  0  0  0  0  0
    6.5436   -0.2072   19.6961 C   0  0  0  0  0  0  0  0  0  0  0  0
    3.8109   -0.2708   17.4736 C   0  0  0  0  0  0  0  0  0  0  0  0
    3.2009   -1.4411   17.7472 C   0  0  0  0  0  0  0  0  0  0  0  0
    3.7091   -2.3452   18.7698 C   0  0  0  0  0  0  0  0  0  0  0  0
    4.8124   -2.0026   19.4556 C   0  0  0  0  0  0  0  0  0  0  0  0
    8.3880   -0.3240   21.3070 C   0  0  0  0  0  0  0  0  0  0  0  0
    8.8810   -1.1900   22.4510 C   0  0  0  0  0  0  0  0  0  0  0  0
    5.7766    1.1395   18.1642 N   0  0  0  0  0  0  0  0  0  0  0  0
    6.7643    0.9486   19.1102 N   0  0  0  0  0  0  0  0  0  0  0  0
    5.4313   -0.7937   19.1641 N   0  0  0  0  0  0  0  0  0  0  0  0
    7.2820   -0.7860   20.6970 N   0  0  0  0  0  0  0  0  0  0  0  0
    8.9170    0.7530   21.0260 O   0  0  0  0  0  0  0  0  0  0  0  0
   13.8840   -1.8490   21.2740 Cl  0  0  0  0  0  0  0  0  0  0  0  0
   12.2249    1.2198   24.6546 H   0  0  0  0  0  0  0  0  0  0  0  0
    9.8763    0.5350   24.3454 H   0  0  0  0  0  0  0  0  0  0  0  0
   14.0077    0.1988   23.2842 H   0  0  0  0  0  0  0  0  0  0  0  0
   11.0892   -2.3009   21.3624 H   0  0  0  0  0  0  0  0  0  0  0  0
    3.4255    0.3962   16.7109 H   0  0  0  0  0  0  0  0  0  0  0  0
    2.3092   -1.7416   17.2079 H   0  0  0  0  0  0  0  0  0  0  0  0
    3.1857   -3.2755   18.9532 H   0  0  0  0  0  0  0  0  0  0  0  0
    5.2395   -2.6316   20.2269 H   0  0  0  0  0  0  0  0  0  0  0  0
    8.7775   -2.2383   22.1732 H   0  0  0  0  0  0  0  0  0  0  0  0
    8.2557   -1.0153   23.3257 H   0  0  0  0  0  0  0  0  0  0  0  0
    6.9401   -1.7071   21.0292 H   0  0  0  0  0  0  0  0  0  0  0  0
  1  2  2  0  0  0  0
  1  3  1  0  0  0  0
  2  5  1  0  0  0  0
  3  6  2  0  0  0  0
  4  5  2  0  0  0  0
  4  6  1  0  0  0  0
  5 14  1  0  0  0  0
  6 20  1  0  0  0  0
  7  9  1  0  0  0  0
  7 15  2  0  0  0  0
  7 17  1  0  0  0  0
  8 16  2  0  0  0  0
  8 17  1  0  0  0  0
  8 18  1  0  0  0  0
  9 10  2  0  0  0  0
 10 11  1  0  0  0  0
 11 12  2  0  0  0  0
 12 17  1  0  0  0  0
 13 14  1  0  0  0  0
 13 18  1  0  0  0  0
 13 19  2  0  0  0  0
 15 16  1  0  0  0  0
  1 21  1  0  0  0  0
  2 22  1  0  0  0  0
  3 23  1  0  0  0  0
  4 24  1  0  0  0  0
  9 25  1  0  0  0  0
 10 26  1  0  0  0  0
 11 27  1  0  0  0  0
 12 28  1  0  0  0  0
 14 29  1  0  0  0  0
 14 30  1  0  0  0  0
 18 31  1  0  0  0  0
M  END
> <compound>
PET-UNK-e44ffd04-1

> <compound_smiles>
c1ccn2c(c1)nnc2NC(=O)Cc3cccc(c3)Cl

> <enantiomer_smiles>
c1ccn2c(c1)nnc2NC(=O)Cc3cccc(c3)Cl

> <scaffold>
chlorobenzene-linker

> <canonical_CID>
PET-UNK-e44ffd04-1

> <r_inhibition_at_20_uM>

> <r_inhibition_at_50_uM>

> <r_avg_IC50>
93.8621436135832

> <f_inhibition_at_20_uM>

> <f_inhibition_at_50_uM>

> <f_avg_IC50>
99.5

> <f_avg_pIC50>

> <relative_solubility_at_20_uM>

> <relative_solubility_at_100_uM>

> <trypsin_IC50>

> <NMR_std_ratio>

> <acrylamide>
False

> <chloroacetamide>
False

> <series>
3-aminopyridine-like

> <frag_id>
x12026

> <clash_score>
4.0038431256247895

> <docking_score>
0.056696176528930664

> <overlap_score>
0.7417444586753845

> <MMFF_internal_energy>
61.745113280462355

> <docked_smiles>
c1ccn2c(c1)nnc2NC(=O)Cc3cccc(c3)Cl

$$$$
EDJ-MED-c8e7a002-15_1
  -OEChem-07262101023D

 31 33  0     0  0  0  0  0  0999 V2000
   11.9780    0.4600   23.9150 C   0  0  0  0  0  0  0  0  0  0  0  0
   10.6560    0.0720   23.7350 C   0  0  0  0  0  0  0  0  0  0  0  0
   12.9840   -0.1200   23.1530 C   0  0  0  0  0  0  0  0  0  0  0  0
    4.5481    2.3329   18.1851 C   0  0  0  0  0  0  0  0  0  0  0  0
   11.3360   -1.5050   22.0650 C   0  0  0  0  0  0  0  0  0  0  0  0
    4.4592    3.2779   19.1971 C   0  0  0  0  0  0  0  0  0  0  0  0
    5.8978    1.0552   19.7661 C   0  0  0  0  0  0  0  0  0  0  0  0
   10.3220   -0.8940   22.7910 C   0  0  0  0  0  0  0  0  0  0  0  0
    5.2956    1.2119   18.5238 C   0  0  0  0  0  0  0  0  0  0  0  0
   12.6400   -1.1000   22.2390 C   0  0  0  0  0  0  0  0  0  0  0  0
    6.5430   -0.1966   19.6885 C   0  0  0  0  0  0  0  0  0  0  0  0
    5.7487    2.0635   20.7184 C   0  0  0  0  0  0  0  0  0  0  0  0
    8.3880   -0.3240   21.3070 C   0  0  0  0  0  0  0  0  0  0  0  0
    8.8810   -1.1900   22.4510 C   0  0  0  0  0  0  0  0  0  0  0  0
    5.0264    3.1726   20.4235 N   0  0  0  0  0  0  0  0  0  0  0  0
    6.3731   -0.7938   18.5065 N   0  0  0  0  0  0  0  0  0  0  0  0
    5.6159    0.0809   17.8230 N   0  0  0  0  0  0  0  0  0  0  0  0
    7.2820   -0.7860   20.6970 N   0  0  0  0  0  0  0  0  0  0  0  0
    8.9170    0.7530   21.0260 O   0  0  0  0  0  0  0  0  0  0  0  0
   13.8840   -1.8490   21.2740 Cl  0  0  0  0  0  0  0  0  0  0  0  0
    6.5205    1.9643   22.4441 Br  0  0  0  0  0  0  0  0  0  0  0  0
   12.2249    1.2198   24.6546 H   0  0  0  0  0  0  0  0  0  0  0  0
    9.8763    0.5350   24.3454 H   0  0  0  0  0  0  0  0  0  0  0  0
   14.0077    0.1988   23.2842 H   0  0  0  0  0  0  0  0  0  0  0  0
    4.0788    2.4597   17.2190 H   0  0  0  0  0  0  0  0  0  0  0  0
   11.0892   -2.3009   21.3624 H   0  0  0  0  0  0  0  0  0  0  0  0
    3.8995    4.1950   19.0366 H   0  0  0  0  0  0  0  0  0  0  0  0
    8.7775   -2.2383   22.1732 H   0  0  0  0  0  0  0  0  0  0  0  0
    8.2557   -1.0153   23.3257 H   0  0  0  0  0  0  0  0  0  0  0  0
    5.3505   -0.1555   16.8752 H   0  0  0  0  0  0  0  0  0  0  0  0
    6.9394   -1.7028   21.0257 H   0  0  0  0  0  0  0  0  0  0  0  0
  1  2  1  0  0  0  0
  1  3  2  0  0  0  0
  2  8  2  0  0  0  0
  3 10  1  0  0  0  0
  4  6  1  0  0  0  0
  4  9  2  0  0  0  0
  5  8  1  0  0  0  0
  5 10  2  0  0  0  0
  6 15  2  0  0  0  0
  7  9  1  0  0  0  0
  7 11  1  0  0  0  0
  7 12  2  0  0  0  0
  8 14  1  0  0  0  0
  9 17  1  0  0  0  0
 10 20  1  0  0  0  0
 11 16  2  0  0  0  0
 11 18  1  0  0  0  0
 12 15  1  0  0  0  0
 12 21  1  0  0  0  0
 13 14  1  0  0  0  0
 13 18  1  0  0  0  0
 13 19  2  0  0  0  0
 16 17  1  0  0  0  0
  1 22  1  0  0  0  0
  2 23  1  0  0  0  0
  3 24  1  0  0  0  0
  4 25  1  0  0  0  0
  5 26  1  0  0  0  0
  6 27  1  0  0  0  0
 14 28  1  0  0  0  0
 14 29  1  0  0  0  0
 17 30  1  0  0  0  0
 18 31  1  0  0  0  0
M  END
> <compound>
EDJ-MED-c8e7a002-15

> <compound_smiles>
c1cc(cc(c1)Cl)CC(=O)Nc2c3c(ccnc3Br)[nH]n2

> <enantiomer_smiles>
c1cc(cc(c1)Cl)CC(=O)Nc2c3c(ccnc3Br)[nH]n2

> <scaffold>
chlorobenzene-linker

> <canonical_CID>
EDJ-MED-c8e7a002-15

> <r_inhibition_at_20_uM>

> <r_inhibition_at_50_uM>

> <r_avg_IC50>
99.0

> <f_inhibition_at_20_uM>

> <f_inhibition_at_50_uM>

> <f_avg_IC50>
99.5

> <f_avg_pIC50>

> <relative_solubility_at_20_uM>

> <relative_solubility_at_100_uM>

> <trypsin_IC50>

> <NMR_std_ratio>

> <acrylamide>
False

> <chloroacetamide>
False

> <series>
3-aminopyridine-like

> <frag_id>

> <clash_score>
0

> <docking_score>
-4.830472946166992

> <overlap_score>
0.8565669059753418

> <MMFF_internal_energy>
45.66932974528343

> <docked_smiles>
c1cc(cc(c1)Cl)CC(=O)Nc2c3c(ccnc3Br)[nH]n2

$$$$
ALP-UNI-44c99a80-4_1
  -OEChem-07262101023D

 43 46  0     0  0  0  0  0  0999 V2000
    3.4052    2.5518   20.7394 C   0  0  0  0  0  0  0  0  0  0  0  0
    4.0598    1.8492   21.7484 C   0  0  0  0  0  0  0  0  0  0  0  0
   11.9780    0.4600   23.9150 C   0  0  0  0  0  0  0  0  0  0  0  0
    3.7984    2.3944   19.4106 C   0  0  0  0  0  0  0  0  0  0  0  0
    5.1108    0.9862   21.4332 C   0  0  0  0  0  0  0  0  0  0  0  0
   10.6560    0.0720   23.7350 C   0  0  0  0  0  0  0  0  0  0  0  0
   12.9840   -0.1200   23.1530 C   0  0  0  0  0  0  0  0  0  0  0  0
   11.3360   -1.5050   22.0650 C   0  0  0  0  0  0  0  0  0  0  0  0
    5.2892    1.3334   17.7694 C   0  0  0  0  0  0  0  0  0  0  0  0
    6.9142   -0.1561   18.4141 C   0  0  0  0  0  0  0  0  0  0  0  0
    5.1233   -2.6208   19.0694 C   0  0  0  0  0  0  0  0  0  0  0  0
    3.3846   -2.9284   20.2121 C   0  0  0  0  0  0  0  0  0  0  0  0
    4.8546    1.5285   19.0819 C   0  0  0  0  0  0  0  0  0  0  0  0
    5.5199    0.8155   20.1005 C   0  0  0  0  0  0  0  0  0  0  0  0
   10.3220   -0.8940   22.7910 C   0  0  0  0  0  0  0  0  0  0  0  0
    6.5697   -0.0422   19.7523 C   0  0  0  0  0  0  0  0  0  0  0  0
   12.6400   -1.1000   22.2390 C   0  0  0  0  0  0  0  0  0  0  0  0
    5.4616   -2.4475   20.3885 C   0  0  0  0  0  0  0  0  0  0  0  0
    8.3880   -0.3240   21.3070 C   0  0  0  0  0  0  0  0  0  0  0  0
    8.8810   -1.1900   22.4510 C   0  0  0  0  0  0  0  0  0  0  0  0
    6.7276   -2.1082   21.1209 C   0  0  0  0  0  0  0  0  0  0  0  0
    6.3007    0.5100   17.4128 N   0  0  0  0  0  0  0  0  0  0  0  0
    3.7912   -2.9291   18.9627 N   0  0  0  0  0  0  0  0  0  0  0  0
    7.2820   -0.7860   20.6970 N   0  0  0  0  0  0  0  0  0  0  0  0
    8.9170    0.7530   21.0260 O   0  0  0  0  0  0  0  0  0  0  0  0
    4.3413   -2.6447   21.1379 O   0  0  0  0  0  0  0  0  0  0  0  0
   13.8840   -1.8490   21.2740 Cl  0  0  0  0  0  0  0  0  0  0  0  0
    2.5877    3.2224   20.9875 H   0  0  0  0  0  0  0  0  0  0  0  0
    3.7518    1.9730   22.7827 H   0  0  0  0  0  0  0  0  0  0  0  0
   12.2249    1.2198   24.6546 H   0  0  0  0  0  0  0  0  0  0  0  0
    3.2764    2.9504   18.6353 H   0  0  0  0  0  0  0  0  0  0  0  0
    5.5974    0.4559   22.2486 H   0  0  0  0  0  0  0  0  0  0  0  0
    9.8763    0.5350   24.3454 H   0  0  0  0  0  0  0  0  0  0  0  0
   14.0077    0.1988   23.2842 H   0  0  0  0  0  0  0  0  0  0  0  0
   11.0892   -2.3008   21.3624 H   0  0  0  0  0  0  0  0  0  0  0  0
    4.8201    1.8513   16.9373 H   0  0  0  0  0  0  0  0  0  0  0  0
    7.7209   -0.8088   18.0926 H   0  0  0  0  0  0  0  0  0  0  0  0
    5.7582   -2.5418   18.1995 H   0  0  0  0  0  0  0  0  0  0  0  0
    2.3922   -3.1241   20.5895 H   0  0  0  0  0  0  0  0  0  0  0  0
    8.8006   -2.2403   22.1717 H   0  0  0  0  0  0  0  0  0  0  0  0
    8.2668   -1.0117   23.3332 H   0  0  0  0  0  0  0  0  0  0  0  0
    6.5499   -2.0688   22.2012 H   0  0  0  0  0  0  0  0  0  0  0  0
    7.4982   -2.8662   20.9455 H   0  0  0  0  0  0  0  0  0  0  0  0
  1  2  1  0  0  0  0
  1  4  2  0  0  0  0
  2  5  2  0  0  0  0
  3  6  2  0  0  0  0
  3  7  1  0  0  0  0
  4 13  1  0  0  0  0
  5 14  1  0  0  0  0
  6 15  1  0  0  0  0
  7 17  2  0  0  0  0
  8 15  2  0  0  0  0
  8 17  1  0  0  0  0
  9 13  2  0  0  0  0
  9 22  1  0  0  0  0
 10 16  1  0  0  0  0
 10 22  2  0  0  0  0
 11 18  2  0  0  0  0
 11 23  1  0  0  0  0
 12 23  2  0  0  0  0
 12 26  1  0  0  0  0
 13 14  1  0  0  0  0
 14 16  2  0  0  0  0
 15 20  1  0  0  0  0
 16 24  1  0  0  0  0
 17 27  1  0  0  0  0
 18 21  1  0  0  0  0
 18 26  1  0  0  0  0
 19 20  1  0  0  0  0
 19 24  1  0  0  0  0
 19 25  2  0  0  0  0
 21 24  1  0  0  0  0
  1 28  1  0  0  0  0
  2 29  1  0  0  0  0
  3 30  1  0  0  0  0
  4 31  1  0  0  0  0
  5 32  1  0  0  0  0
  6 33  1  0  0  0  0
  7 34  1  0  0  0  0
  8 35  1  0  0  0  0
  9 36  1  0  0  0  0
 10 37  1  0  0  0  0
 11 38  1  0  0  0  0
 12 39  1  0  0  0  0
 20 40  1  0  0  0  0
 20 41  1  0  0  0  0
 21 42  1  0  0  0  0
 21 43  1  0  0  0  0
M  END
> <compound>
ALP-UNI-44c99a80-4

> <compound_smiles>
c1ccc2c(c1)cncc2N(Cc3cnco3)C(=O)Cc4cccc(c4)Cl

> <enantiomer_smiles>
c1ccc2c(c1)cncc2N(Cc3cnco3)C(=O)Cc4cccc(c4)Cl

> <scaffold>
chlorobenzene-linker

> <clash_score>
4.487667723788207

> <docking_score>
-6.708301067352295

> <overlap_score>
1.0

> <MMFF_internal_energy>
124.89020935826191

> <docked_smiles>
c1ccc2c(c1)cncc2N(Cc3cnco3)C(=O)Cc4cccc(c4)Cl

$$$$
NAU-LAT-a5c7d7cb-2_1
  -OEChem-07262101023D

 54 57  0     1  0  0  0  0  0999 V2000
    3.4588    2.5718   20.0554 C   0  0  0  0  0  0  0  0  0  0  0  0
    4.0835    2.0505   21.1859 C   0  0  0  0  0  0  0  0  0  0  0  0
   11.9780    0.4600   23.9150 C   0  0  0  0  0  0  0  0  0  0  0  0
    3.8711    2.1742   18.7837 C   0  0  0  0  0  0  0  0  0  0  0  0
    5.1234    1.1291   21.0499 C   0  0  0  0  0  0  0  0  0  0  0  0
   10.6560    0.0720   23.7350 C   0  0  0  0  0  0  0  0  0  0  0  0
   12.9840   -0.1200   23.1530 C   0  0  0  0  0  0  0  0  0  0  0  0
   11.3360   -1.5050   22.0650 C   0  0  0  0  0  0  0  0  0  0  0  0
    5.3689    0.8151   17.3870 C   0  0  0  0  0  0  0  0  0  0  0  0
    6.9552   -0.5603   18.3181 C   0  0  0  0  0  0  0  0  0  0  0  0
    4.9163    1.2476   18.6351 C   0  0  0  0  0  0  0  0  0  0  0  0
    5.5514    0.7175   19.7772 C   0  0  0  0  0  0  0  0  0  0  0  0
   10.3220   -0.8940   22.7910 C   0  0  0  0  0  0  0  0  0  0  0  0
    6.5908   -0.2044   19.6077 C   0  0  0  0  0  0  0  0  0  0  0  0
   12.6400   -1.1000   22.2390 C   0  0  0  0  0  0  0  0  0  0  0  0
   10.0549   -6.3970   20.9567 C   0  0  0  0  0  0  0  0  0  0  0  0
    8.3880   -0.3240   21.3070 C   0  0  0  0  0  0  0  0  0  0  0  0
    9.0070   -5.0039   22.7124 C   0  0  0  0  0  0  0  0  0  0  0  0
    8.6216   -4.3830   20.3588 C   0  0  0  0  0  0  0  0  0  0  0  0
    9.3715   -3.5664   23.0534 C   0  0  0  0  0  0  0  0  0  0  0  0
    8.9788   -2.9348   20.6651 C   0  0  0  0  0  0  0  0  0  0  0  0
   10.8601   -6.2818   19.6870 C   0  0  0  0  0  0  0  0  0  0  0  0
    8.8810   -1.1900   22.4510 C   0  0  1  0  0  0  0  0  0  0  0  0
    6.3708   -0.0740   17.2025 N   0  0  0  0  0  0  0  0  0  0  0  0
    9.2756   -5.2944   21.3040 N   0  0  0  0  0  0  0  0  0  0  0  0
    7.2820   -0.7860   20.6970 N   0  0  0  0  0  0  0  0  0  0  0  0
    8.6433   -2.6361   22.1092 N   0  3  0  0  0  0  0  0  0  0  0  0
   10.1200   -7.4353   21.6198 O   0  0  0  0  0  0  0  0  0  0  0  0
    8.9170    0.7530   21.0260 O   0  0  0  0  0  0  0  0  0  0  0  0
   13.8840   -1.8490   21.2740 Cl  0  0  0  0  0  0  0  0  0  0  0  0
    2.6499    3.2883   20.1641 H   0  0  0  0  0  0  0  0  0  0  0  0
    3.7607    2.3613   22.1754 H   0  0  0  0  0  0  0  0  0  0  0  0
   12.2249    1.2198   24.6546 H   0  0  0  0  0  0  0  0  0  0  0  0
    3.3723    2.5910   17.9118 H   0  0  0  0  0  0  0  0  0  0  0  0
    5.5866    0.7453   21.9560 H   0  0  0  0  0  0  0  0  0  0  0  0
    9.8763    0.5350   24.3454 H   0  0  0  0  0  0  0  0  0  0  0  0
   14.0077    0.1988   23.2842 H   0  0  0  0  0  0  0  0  0  0  0  0
   11.0892   -2.3009   21.3624 H   0  0  0  0  0  0  0  0  0  0  0  0
    4.9234    1.1835   16.4670 H   0  0  0  0  0  0  0  0  0  0  0  0
    7.7549   -1.2720   18.1337 H   0  0  0  0  0  0  0  0  0  0  0  0
    9.5635   -5.6862   23.3626 H   0  0  0  0  0  0  0  0  0  0  0  0
    7.9398   -5.1861   22.8884 H   0  0  0  0  0  0  0  0  0  0  0  0
    7.5401   -4.5410   20.4502 H   0  0  0  0  0  0  0  0  0  0  0  0
    8.8907   -4.6064   19.3251 H   0  0  0  0  0  0  0  0  0  0  0  0
    9.0502   -3.3169   24.0698 H   0  0  0  0  0  0  0  0  0  0  0  0
   10.4461   -3.3790   22.9490 H   0  0  0  0  0  0  0  0  0  0  0  0
   10.0464   -2.7357   20.5193 H   0  0  0  0  0  0  0  0  0  0  0  0
    8.3881   -2.2524   20.0453 H   0  0  0  0  0  0  0  0  0  0  0  0
   11.8351   -5.8674   19.9214 H   0  0  0  0  0  0  0  0  0  0  0  0
   10.3379   -5.6313   18.9927 H   0  0  0  0  0  0  0  0  0  0  0  0
   10.9720   -7.2674   19.2469 H   0  0  0  0  0  0  0  0  0  0  0  0
    8.2445   -1.0188   23.3300 H   0  0  0  0  0  0  0  0  0  0  0  0
    6.8974   -1.6551   21.0612 H   0  0  0  0  0  0  0  0  0  0  0  0
    7.6346   -2.8016   22.2306 H   0  0  0  0  0  0  0  0  0  0  0  0
  1  2  1  0  0  0  0
  1  4  2  0  0  0  0
  2  5  2  0  0  0  0
  3  6  2  0  0  0  0
  3  7  1  0  0  0  0
  4 11  1  0  0  0  0
  5 12  1  0  0  0  0
  6 13  1  0  0  0  0
  7 15  2  0  0  0  0
  8 13  2  0  0  0  0
  8 15  1  0  0  0  0
  9 11  2  0  0  0  0
  9 24  1  0  0  0  0
 10 14  1  0  0  0  0
 10 24  2  0  0  0  0
 11 12  1  0  0  0  0
 12 14  2  0  0  0  0
 13 23  1  0  0  0  0
 14 26  1  0  0  0  0
 15 30  1  0  0  0  0
 16 22  1  0  0  0  0
 16 25  1  0  0  0  0
 16 28  2  0  0  0  0
 17 23  1  1  0  0  0
 17 26  1  0  0  0  0
 17 29  2  0  0  0  0
 18 20  1  0  0  0  0
 18 25  1  0  0  0  0
 19 21  1  0  0  0  0
 19 25  1  0  0  0  0
 20 27  1  0  0  0  0
 21 27  1  0  0  0  0
 23 27  1  0  0  0  0
  1 31  1  0  0  0  0
  2 32  1  0  0  0  0
  3 33  1  0  0  0  0
  4 34  1  0  0  0  0
  5 35  1  0  0  0  0
  6 36  1  0  0  0  0
  7 37  1  0  0  0  0
  8 38  1  0  0  0  0
  9 39  1  0  0  0  0
 10 40  1  0  0  0  0
 18 41  1  0  0  0  0
 18 42  1  0  0  0  0
 19 43  1  0  0  0  0
 19 44  1  0  0  0  0
 20 45  1  0  0  0  0
 20 46  1  0  0  0  0
 21 47  1  0  0  0  0
 21 48  1  0  0  0  0
 22 49  1  0  0  0  0
 22 50  1  0  0  0  0
 22 51  1  0  0  0  0
 23 52  1  0  0  0  0
 26 53  1  0  0  0  0
 27 54  1  0  0  0  0
M  CHG  1  27   1
M  END
> <compound>
NAU-LAT-a5c7d7cb-2

> <compound_smiles>
CC(=O)N1CCN(CC1)C(c2cccc(c2)Cl)C(=O)Nc3cncc4c3cccc4

> <enantiomer_smiles>
CC(=O)N1CCN(CC1)[C@@H](c2cccc(c2)Cl)C(=O)Nc3cncc4c3cccc4

> <scaffold>
chlorobenzene-linker

> <clash_score>
4.8796285249287905

> <docking_score>
-3.913654327392578

> <overlap_score>
0.9816785454750061

> <MMFF_internal_energy>
263.5182084982723

> <docked_smiles>
CC(=O)N1CC[NH+](CC1)[C@@H](c2cccc(c2)Cl)C(=O)Nc3cncc4c3cccc4

$$$$
RIT-UNK-fa3975ff-1_2
  -OEChem-07262101023D

 33 34  0     1  0  0  0  0  0999 V2000
    7.9918   -1.0573   23.6354 C   0  0  0  0  0  0  0  0  0  0  0  0
   11.9780    0.4600   23.9150 C   0  0  0  0  0  0  0  0  0  0  0  0
   10.6560    0.0720   23.7350 C   0  0  0  0  0  0  0  0  0  0  0  0
   12.9840   -0.1200   23.1530 C   0  0  0  0  0  0  0  0  0  0  0  0
    5.1445    1.0548   17.6619 C   0  0  0  0  0  0  0  0  0  0  0  0
   11.3360   -1.5050   22.0650 C   0  0  0  0  0  0  0  0  0  0  0  0
    7.2320    0.6596   18.7892 C   0  0  0  0  0  0  0  0  0  0  0  0
    4.5474    0.2144   18.5877 C   0  0  0  0  0  0  0  0  0  0  0  0
   10.3220   -0.8940   22.7910 C   0  0  0  0  0  0  0  0  0  0  0  0
    6.5127    1.2764   17.7715 C   0  0  0  0  0  0  0  0  0  0  0  0
   12.6400   -1.1000   22.2390 C   0  0  0  0  0  0  0  0  0  0  0  0
    6.5414   -0.1629   19.6646 C   0  0  0  0  0  0  0  0  0  0  0  0
    8.3880   -0.3240   21.3070 C   0  0  0  0  0  0  0  0  0  0  0  0
    6.3441    2.6924   15.8683 C   0  0  0  0  0  0  0  0  0  0  0  0
    8.8810   -1.1900   22.4510 C   0  0  2  0  0  0  0  0  0  0  0  0
    7.2775   -0.9403   24.5426 N   0  0  0  0  0  0  0  0  0  0  0  0
    5.2129   -0.4024   19.5898 N   0  0  0  0  0  0  0  0  0  0  0  0
    7.2820   -0.7860   20.6970 N   0  0  0  0  0  0  0  0  0  0  0  0
    8.9170    0.7530   21.0260 O   0  0  0  0  0  0  0  0  0  0  0  0
    7.1449    2.0935   16.8864 O   0  0  0  0  0  0  0  0  0  0  0  0
   13.8840   -1.8490   21.2740 Cl  0  0  0  0  0  0  0  0  0  0  0  0
   12.2249    1.2198   24.6546 H   0  0  0  0  0  0  0  0  0  0  0  0
    9.8763    0.5350   24.3454 H   0  0  0  0  0  0  0  0  0  0  0  0
   14.0077    0.1988   23.2842 H   0  0  0  0  0  0  0  0  0  0  0  0
    4.5583    1.5224   16.8784 H   0  0  0  0  0  0  0  0  0  0  0  0
   11.0892   -2.3009   21.3624 H   0  0  0  0  0  0  0  0  0  0  0  0
    8.3008    0.8234   18.8870 H   0  0  0  0  0  0  0  0  0  0  0  0
    3.4828    0.0089   18.5456 H   0  0  0  0  0  0  0  0  0  0  0  0
    6.9725    3.3193   15.2310 H   0  0  0  0  0  0  0  0  0  0  0  0
    5.5579    3.2955   16.3295 H   0  0  0  0  0  0  0  0  0  0  0  0
    5.8887    1.9039   15.2644 H   0  0  0  0  0  0  0  0  0  0  0  0
    8.7845   -2.2463   22.1307 H   0  0  0  0  0  0  0  0  0  0  0  0
    6.9176   -1.6837   21.0087 H   0  0  0  0  0  0  0  0  0  0  0  0
  1 15  1  0  0  0  0
  1 16  3  0  0  0  0
  2  3  2  0  0  0  0
  2  4  1  0  0  0  0
  3  9  1  0  0  0  0
  4 11  2  0  0  0  0
  5  8  2  0  0  0  0
  5 10  1  0  0  0  0
  6  9  2  0  0  0  0
  6 11  1  0  0  0  0
  7 10  2  0  0  0  0
  7 12  1  0  0  0  0
  8 17  1  0  0  0  0
  9 15  1  0  0  0  0
 10 20  1  0  0  0  0
 11 21  1  0  0  0  0
 12 17  2  0  0  0  0
 12 18  1  0  0  0  0
 13 15  1  6  0  0  0
 13 18  1  0  0  0  0
 13 19  2  0  0  0  0
 14 20  1  0  0  0  0
  2 22  1  0  0  0  0
  3 23  1  0  0  0  0
  4 24  1  0  0  0  0
  5 25  1  0  0  0  0
  6 26  1  0  0  0  0
  7 27  1  0  0  0  0
  8 28  1  0  0  0  0
 14 29  1  0  0  0  0
 14 30  1  0  0  0  0
 14 31  1  0  0  0  0
 15 32  1  0  0  0  0
 18 33  1  0  0  0  0
M  END
> <compound>
RIT-UNK-fa3975ff-1

> <compound_smiles>
COc1ccnc(c1)NC(=O)C(C#N)c2cccc(c2)Cl

> <enantiomer_smiles>
COc1ccnc(c1)NC(=O)[C@H](C#N)c2cccc(c2)Cl

> <scaffold>
chlorobenzene-linker

> <clash_score>
1.3087822175167196

> <docking_score>
-3.1496658325195312

> <overlap_score>
0.789652943611145

> <MMFF_internal_energy>
29.12054439827335

> <docked_smiles>
COc1ccnc(c1)NC(=O)[C@H](C#N)c2cccc(c2)Cl

$$$$
VLA-UCB-05e51b3f-3_1
  -OEChem-07262101023D

 56 58  0     0  0  0  0  0  0999 V2000
   11.9780    0.4600   23.9150 C   0  0  0  0  0  0  0  0  0  0  0  0
   10.6560    0.0720   23.7350 C   0  0  0  0  0  0  0  0  0  0  0  0
   12.9840   -0.1200   23.1530 C   0  0  0  0  0  0  0  0  0  0  0  0
    5.1571    1.7383   18.9231 C   0  0  0  0  0  0  0  0  0  0  0  0
   11.3360   -1.5050   22.0650 C   0  0  0  0  0  0  0  0  0  0  0  0
    5.6158    1.5140   17.6350 C   0  0  0  0  0  0  0  0  0  0  0  0
    7.0712   -0.1172   18.3416 C   0  0  0  0  0  0  0  0  0  0  0  0
   10.3220   -0.8940   22.7910 C   0  0  0  0  0  0  0  0  0  0  0  0
    5.7048    0.9784   19.9506 C   0  0  0  0  0  0  0  0  0  0  0  0
    6.6808    0.0308   19.6628 C   0  0  0  0  0  0  0  0  0  0  0  0
   12.6400   -1.1000   22.2390 C   0  0  0  0  0  0  0  0  0  0  0  0
    2.0777   -6.6374   20.3415 C   0  0  0  0  0  0  0  0  0  0  0  0
    8.3880   -0.3240   21.3070 C   0  0  0  0  0  0  0  0  0  0  0  0
    6.6773   -2.0204   21.0204 C   0  0  0  0  0  0  0  0  0  0  0  0
    4.4437   -6.1990   19.7661 C   0  0  0  0  0  0  0  0  0  0  0  0
    3.4783   -4.9966   21.6884 C   0  0  0  0  0  0  0  0  0  0  0  0
    5.0053   -4.8991   19.2088 C   0  0  0  0  0  0  0  0  0  0  0  0
    4.0273   -3.6780   21.1607 C   0  0  0  0  0  0  0  0  0  0  0  0
    5.2291    1.1998   21.3489 C   0  0  0  0  0  0  0  0  0  0  0  0
    0.9084   -6.3194   21.2389 C   0  0  0  0  0  0  0  0  0  0  0  0
    8.8810   -1.1900   22.4510 C   0  0  0  0  0  0  0  0  0  0  0  0
    5.9243   -2.6771   19.8820 C   0  0  0  0  0  0  0  0  0  0  0  0
    6.5622    0.6026   17.3167 N   0  0  0  0  0  0  0  0  0  0  0  0
    3.2638   -5.9496   20.5942 N   0  0  0  0  0  0  0  0  0  0  0  0
    7.2820   -0.7860   20.6970 N   0  0  0  0  0  0  0  0  0  0  0  0
    5.2773   -3.9489   20.3535 N   0  3  0  0  0  0  0  0  0  0  0  0
    1.9384   -7.4703   19.4421 O   0  0  0  0  0  0  0  0  0  0  0  0
    8.9170    0.7530   21.0260 O   0  0  0  0  0  0  0  0  0  0  0  0
    6.7071   -2.5426   22.1370 O   0  0  0  0  0  0  0  0  0  0  0  0
   13.8840   -1.8490   21.2740 Cl  0  0  0  0  0  0  0  0  0  0  0  0
   12.2249    1.2198   24.6546 H   0  0  0  0  0  0  0  0  0  0  0  0
    9.8763    0.5350   24.3454 H   0  0  0  0  0  0  0  0  0  0  0  0
   14.0077    0.1988   23.2842 H   0  0  0  0  0  0  0  0  0  0  0  0
    4.3944    2.4856   19.1141 H   0  0  0  0  0  0  0  0  0  0  0  0
   11.0892   -2.3009   21.3624 H   0  0  0  0  0  0  0  0  0  0  0  0
    5.2208    2.0807   16.7983 H   0  0  0  0  0  0  0  0  0  0  0  0
    7.8283   -0.8406   18.0537 H   0  0  0  0  0  0  0  0  0  0  0  0
    4.2027   -6.8765   18.9409 H   0  0  0  0  0  0  0  0  0  0  0  0
    5.1864   -6.7047   20.3950 H   0  0  0  0  0  0  0  0  0  0  0  0
    4.1873   -5.4576   22.3868 H   0  0  0  0  0  0  0  0  0  0  0  0
    2.5604   -4.8037   22.2464 H   0  0  0  0  0  0  0  0  0  0  0  0
    5.9576   -5.0766   18.6987 H   0  0  0  0  0  0  0  0  0  0  0  0
    4.3046   -4.4090   18.5234 H   0  0  0  0  0  0  0  0  0  0  0  0
    3.3101   -3.1662   20.5092 H   0  0  0  0  0  0  0  0  0  0  0  0
    4.3099   -3.0190   21.9880 H   0  0  0  0  0  0  0  0  0  0  0  0
    4.3775    0.5455   21.5685 H   0  0  0  0  0  0  0  0  0  0  0  0
    6.0247    0.9939   22.0755 H   0  0  0  0  0  0  0  0  0  0  0  0
    4.9188    2.2409   21.5017 H   0  0  0  0  0  0  0  0  0  0  0  0
    0.3403   -5.5028   20.8057 H   0  0  0  0  0  0  0  0  0  0  0  0
    1.2791   -6.0346   22.2184 H   0  0  0  0  0  0  0  0  0  0  0  0
    0.2810   -7.2002   21.3303 H   0  0  0  0  0  0  0  0  0  0  0  0
    8.2415   -1.0070   23.3227 H   0  0  0  0  0  0  0  0  0  0  0  0
    8.7999   -2.2568   22.2115 H   0  0  0  0  0  0  0  0  0  0  0  0
    5.1206   -2.0242   19.5337 H   0  0  0  0  0  0  0  0  0  0  0  0
    6.5814   -2.9578   19.0556 H   0  0  0  0  0  0  0  0  0  0  0  0
    5.9538   -4.4068   20.9798 H   0  0  0  0  0  0  0  0  0  0  0  0
  1  2  2  0  0  0  0
  1  3  1  0  0  0  0
  2  8  1  0  0  0  0
  3 11  2  0  0  0  0
  4  6  2  0  0  0  0
  4  9  1  0  0  0  0
  5  8  2  0  0  0  0
  5 11  1  0  0  0  0
  6 23  1  0  0  0  0
  7 10  1  0  0  0  0
  7 23  2  0  0  0  0
  8 21  1  0  0  0  0
  9 10  2  0  0  0  0
  9 19  1  0  0  0  0
 10 25  1  0  0  0  0
 11 30  1  0  0  0  0
 12 20  1  0  0  0  0
 12 24  1  0  0  0  0
 12 27  2  0  0  0  0
 13 21  1  0  0  0  0
 13 25  1  0  0  0  0
 13 28  2  0  0  0  0
 14 22  1  0  0  0  0
 14 25  1  0  0  0  0
 14 29  2  0  0  0  0
 15 17  1  0  0  0  0
 15 24  1  0  0  0  0
 16 18  1  0  0  0  0
 16 24  1  0  0  0  0
 17 26  1  0  0  0  0
 18 26  1  0  0  0  0
 22 26  1  0  0  0  0
  1 31  1  0  0  0  0
  2 32  1  0  0  0  0
  3 33  1  0  0  0  0
  4 34  1  0  0  0  0
  5 35  1  0  0  0  0
  6 36  1  0  0  0  0
  7 37  1  0  0  0  0
 15 38  1  0  0  0  0
 15 39  1  0  0  0  0
 16 40  1  0  0  0  0
 16 41  1  0  0  0  0
 17 42  1  0  0  0  0
 17 43  1  0  0  0  0
 18 44  1  0  0  0  0
 18 45  1  0  0  0  0
 19 46  1  0  0  0  0
 19 47  1  0  0  0  0
 19 48  1  0  0  0  0
 20 49  1  0  0  0  0
 20 50  1  0  0  0  0
 20 51  1  0  0  0  0
 21 52  1  0  0  0  0
 21 53  1  0  0  0  0
 22 54  1  0  0  0  0
 22 55  1  0  0  0  0
 26 56  1  0  0  0  0
M  CHG  1  26   1
M  END
> <compound>
VLA-UCB-05e51b3f-3

> <compound_smiles>
Cc1ccncc1N(C(=O)Cc2cccc(c2)Cl)C(=O)CN3CCN(CC3)C(=O)C

> <enantiomer_smiles>
Cc1ccncc1N(C(=O)Cc2cccc(c2)Cl)C(=O)CN3CCN(CC3)C(=O)C

> <scaffold>
chlorobenzene-linker

> <clash_score>
5.44089412592823

> <docking_score>
-1.5743346214294434

> <overlap_score>
0.8513027429580688

> <MMFF_internal_energy>
175.07223842355538

> <docked_smiles>
Cc1ccncc1N(C(=O)Cc2cccc(c2)Cl)C(=O)C[NH+]3CCN(CC3)C(=O)C

$$$$
PET-UNK-5ecb6237-1_1
  -OEChem-07262101023D

 35 37  0     0  0  0  0  0  0999 V2000
    6.7391   -2.0151   21.0682 C   0  0  0  0  0  0  0  0  0  0  0  0
    3.5711    2.7278   20.4633 C   0  0  0  0  0  0  0  0  0  0  0  0
    4.1730    2.0567   21.5251 C   0  0  0  0  0  0  0  0  0  0  0  0
   11.9780    0.4600   23.9150 C   0  0  0  0  0  0  0  0  0  0  0  0
    3.9798    2.4730   19.1544 C   0  0  0  0  0  0  0  0  0  0  0  0
    5.1864    1.1276   21.2829 C   0  0  0  0  0  0  0  0  0  0  0  0
   10.6560    0.0720   23.7350 C   0  0  0  0  0  0  0  0  0  0  0  0
   12.9840   -0.1200   23.1530 C   0  0  0  0  0  0  0  0  0  0  0  0
   11.3360   -1.5050   22.0650 C   0  0  0  0  0  0  0  0  0  0  0  0
    5.4463    1.2466   17.6094 C   0  0  0  0  0  0  0  0  0  0  0  0
    6.9856   -0.2769   18.3739 C   0  0  0  0  0  0  0  0  0  0  0  0
    4.9985    1.5401   18.8989 C   0  0  0  0  0  0  0  0  0  0  0  0
    5.6103    0.8585   19.9713 C   0  0  0  0  0  0  0  0  0  0  0  0
   10.3220   -0.8940   22.7910 C   0  0  0  0  0  0  0  0  0  0  0  0
    6.6235   -0.0671   19.6957 C   0  0  0  0  0  0  0  0  0  0  0  0
   12.6400   -1.1000   22.2390 C   0  0  0  0  0  0  0  0  0  0  0  0
    8.3880   -0.3240   21.3070 C   0  0  0  0  0  0  0  0  0  0  0  0
    8.8810   -1.1900   22.4510 C   0  0  0  0  0  0  0  0  0  0  0  0
    6.2709   -3.0378   21.3561 N   0  0  0  0  0  0  0  0  0  0  0  0
    6.4230    0.3564   17.3228 N   0  0  0  0  0  0  0  0  0  0  0  0
    7.2820   -0.7860   20.6970 N   0  0  0  0  0  0  0  0  0  0  0  0
    8.9170    0.7530   21.0260 O   0  0  0  0  0  0  0  0  0  0  0  0
   13.8840   -1.8490   21.2740 Cl  0  0  0  0  0  0  0  0  0  0  0  0
    2.7828    3.4500   20.6546 H   0  0  0  0  0  0  0  0  0  0  0  0
    3.8530    2.2565   22.5438 H   0  0  0  0  0  0  0  0  0  0  0  0
   12.2249    1.2198   24.6546 H   0  0  0  0  0  0  0  0  0  0  0  0
    3.4992    3.0057   18.3371 H   0  0  0  0  0  0  0  0  0  0  0  0
    5.6323    0.6246   22.1379 H   0  0  0  0  0  0  0  0  0  0  0  0
    9.8763    0.5350   24.3454 H   0  0  0  0  0  0  0  0  0  0  0  0
   14.0077    0.1988   23.2842 H   0  0  0  0  0  0  0  0  0  0  0  0
   11.0892   -2.3009   21.3624 H   0  0  0  0  0  0  0  0  0  0  0  0
    5.0178    1.7355   16.7388 H   0  0  0  0  0  0  0  0  0  0  0  0
    7.7654   -0.9850   18.1080 H   0  0  0  0  0  0  0  0  0  0  0  0
    8.7971   -2.2443   22.1823 H   0  0  0  0  0  0  0  0  0  0  0  0
    8.2581   -1.0140   23.3294 H   0  0  0  0  0  0  0  0  0  0  0  0
  1 19  3  0  0  0  0
  1 21  1  0  0  0  0
  2  3  1  0  0  0  0
  2  5  2  0  0  0  0
  3  6  2  0  0  0  0
  4  7  2  0  0  0  0
  4  8  1  0  0  0  0
  5 12  1  0  0  0  0
  6 13  1  0  0  0  0
  7 14  1  0  0  0  0
  8 16  2  0  0  0  0
  9 14  2  0  0  0  0
  9 16  1  0  0  0  0
 10 12  2  0  0  0  0
 10 20  1  0  0  0  0
 11 15  1  0  0  0  0
 11 20  2  0  0  0  0
 12 13  1  0  0  0  0
 13 15  2  0  0  0  0
 14 18  1  0  0  0  0
 15 21  1  0  0  0  0
 16 23  1  0  0  0  0
 17 18  1  0  0  0  0
 17 21  1  0  0  0  0
 17 22  2  0  0  0  0
  2 24  1  0  0  0  0
  3 25  1  0  0  0  0
  4 26  1  0  0  0  0
  5 27  1  0  0  0  0
  6 28  1  0  0  0  0
  7 29  1  0  0  0  0
  8 30  1  0  0  0  0
  9 31  1  0  0  0  0
 10 32  1  0  0  0  0
 11 33  1  0  0  0  0
 18 34  1  0  0  0  0
 18 35  1  0  0  0  0
M  END
> <compound>
PET-UNK-5ecb6237-1

> <compound_smiles>
c1ccc2c(c1)cncc2N(C#N)C(=O)Cc3cccc(c3)Cl

> <enantiomer_smiles>
c1ccc2c(c1)cncc2N(C#N)C(=O)Cc3cccc(c3)Cl

> <scaffold>
chlorobenzene-linker

> <clash_score>
0

> <docking_score>
-12.463863372802734

> <overlap_score>
1.0

> <MMFF_internal_energy>
86.68963372210266

> <docked_smiles>
c1ccc2c(c1)cncc2N(C#N)C(=O)Cc3cccc(c3)Cl

$$$$
NAU-LAT-a5c7d7cb-13_1
  -OEChem-07262101023D

 34 36  0     1  0  0  0  0  0999 V2000
    5.2380    3.1903   21.1344 C   0  0  0  0  0  0  0  0  0  0  0  0
    5.9004    4.0737   20.2619 C   0  0  0  0  0  0  0  0  0  0  0  0
   11.9780    0.4600   23.9150 C   0  0  0  0  0  0  0  0  0  0  0  0
    5.4075    1.8067   21.0201 C   0  0  0  0  0  0  0  0  0  0  0  0
   10.6560    0.0720   23.7350 C   0  0  0  0  0  0  0  0  0  0  0  0
    6.7430    3.5895   19.2597 C   0  0  0  0  0  0  0  0  0  0  0  0
   12.9840   -0.1200   23.1530 C   0  0  0  0  0  0  0  0  0  0  0  0
   11.3360   -1.5050   22.0650 C   0  0  0  0  0  0  0  0  0  0  0  0
    6.2468    1.3343   20.0284 C   0  0  0  0  0  0  0  0  0  0  0  0
   10.3220   -0.8940   22.7910 C   0  0  0  0  0  0  0  0  0  0  0  0
    6.8930    2.2204   19.1686 C   0  0  0  0  0  0  0  0  0  0  0  0
   12.6400   -1.1000   22.2390 C   0  0  0  0  0  0  0  0  0  0  0  0
    7.5853    0.1315   18.4876 C   0  0  0  0  0  0  0  0  0  0  0  0
    8.3880   -0.3240   21.3070 C   0  0  0  0  0  0  0  0  0  0  0  0
    6.6075   -0.0696   19.6571 C   0  0  1  0  0  0  0  0  0  0  0  0
    8.8810   -1.1900   22.4510 C   0  0  0  0  0  0  0  0  0  0  0  0
    7.6754    1.5111   18.2634 N   0  0  0  0  0  0  0  0  0  0  0  0
    7.2820   -0.7860   20.6970 N   0  0  0  0  0  0  0  0  0  0  0  0
    8.1839   -0.7532   17.8947 O   0  0  0  0  0  0  0  0  0  0  0  0
    8.9170    0.7530   21.0260 O   0  0  0  0  0  0  0  0  0  0  0  0
   13.8840   -1.8490   21.2740 Cl  0  0  0  0  0  0  0  0  0  0  0  0
    4.5852    3.5901   21.9058 H   0  0  0  0  0  0  0  0  0  0  0  0
    5.7522    5.1447   20.3710 H   0  0  0  0  0  0  0  0  0  0  0  0
   12.2249    1.2198   24.6546 H   0  0  0  0  0  0  0  0  0  0  0  0
    4.8919    1.1299   21.6921 H   0  0  0  0  0  0  0  0  0  0  0  0
    9.8763    0.5350   24.3454 H   0  0  0  0  0  0  0  0  0  0  0  0
    7.2543    4.2675   18.5862 H   0  0  0  0  0  0  0  0  0  0  0  0
   14.0077    0.1988   23.2842 H   0  0  0  0  0  0  0  0  0  0  0  0
   11.0892   -2.3009   21.3624 H   0  0  0  0  0  0  0  0  0  0  0  0
    5.7372   -0.6354   19.3124 H   0  0  0  0  0  0  0  0  0  0  0  0
    8.7773   -2.2383   22.1737 H   0  0  0  0  0  0  0  0  0  0  0  0
    8.2516   -1.0144   23.3225 H   0  0  0  0  0  0  0  0  0  0  0  0
    8.2376    1.9372   17.5360 H   0  0  0  0  0  0  0  0  0  0  0  0
    6.9058   -1.6899   20.9892 H   0  0  0  0  0  0  0  0  0  0  0  0
  1  2  1  0  0  0  0
  1  4  2  0  0  0  0
  2  6  2  0  0  0  0
  3  5  2  0  0  0  0
  3  7  1  0  0  0  0
  4  9  1  0  0  0  0
  5 10  1  0  0  0  0
  6 11  1  0  0  0  0
  7 12  2  0  0  0  0
  8 10  2  0  0  0  0
  8 12  1  0  0  0  0
  9 11  2  0  0  0  0
  9 15  1  0  0  0  0
 10 16  1  0  0  0  0
 11 17  1  0  0  0  0
 12 21  1  0  0  0  0
 13 15  1  0  0  0  0
 13 17  1  0  0  0  0
 13 19  2  0  0  0  0
 14 16  1  0  0  0  0
 14 18  1  0  0  0  0
 14 20  2  0  0  0  0
 15 18  1  1  0  0  0
  1 22  1  0  0  0  0
  2 23  1  0  0  0  0
  3 24  1  0  0  0  0
  4 25  1  0  0  0  0
  5 26  1  0  0  0  0
  6 27  1  0  0  0  0
  7 28  1  0  0  0  0
  8 29  1  0  0  0  0
 15 30  1  0  0  0  0
 16 31  1  0  0  0  0
 16 32  1  0  0  0  0
 17 33  1  0  0  0  0
 18 34  1  0  0  0  0
M  END
> <compound>
NAU-LAT-a5c7d7cb-13

> <compound_smiles>
c1ccc2c(c1)C(C(=O)N2)NC(=O)Cc3cccc(c3)Cl

> <enantiomer_smiles>
c1ccc2c(c1)[C@@H](C(=O)N2)NC(=O)Cc3cccc(c3)Cl

> <scaffold>
chlorobenzene-linker

> <clash_score>
2.0784572346609744

> <docking_score>
-3.099950075149536

> <overlap_score>
0.7295798659324646

> <MMFF_internal_energy>
58.94367715001033

> <docked_smiles>
c1ccc2c(c1)[C@@H](C(=O)N2)NC(=O)Cc3cccc(c3)Cl

$$$$
NAU-LAT-a5c7d7cb-10_1
  -OEChem-07262101023D

 32 34  0     0  0  0  0  0  0999 V2000
    2.9004    0.5438   20.4783 C   0  0  0  0  0  0  0  0  0  0  0  0
    2.6151    1.0944   19.2274 C   0  0  0  0  0  0  0  0  0  0  0  0
   11.9780    0.4600   23.9150 C   0  0  0  0  0  0  0  0  0  0  0  0
    4.1820    0.0659   20.7797 C   0  0  0  0  0  0  0  0  0  0  0  0
   10.6560    0.0720   23.7350 C   0  0  0  0  0  0  0  0  0  0  0  0
    3.5972    1.1870   18.2358 C   0  0  0  0  0  0  0  0  0  0  0  0
   12.9840   -0.1200   23.1530 C   0  0  0  0  0  0  0  0  0  0  0  0
   11.3360   -1.5050   22.0650 C   0  0  0  0  0  0  0  0  0  0  0  0
    5.1793    0.1521   19.7940 C   0  0  0  0  0  0  0  0  0  0  0  0
   10.3220   -0.8940   22.7910 C   0  0  0  0  0  0  0  0  0  0  0  0
    4.8681    0.7050   18.5567 C   0  0  0  0  0  0  0  0  0  0  0  0
   12.6400   -1.1000   22.2390 C   0  0  0  0  0  0  0  0  0  0  0  0
    6.5430   -0.1965   19.6884 C   0  0  0  0  0  0  0  0  0  0  0  0
    8.3880   -0.3240   21.3070 C   0  0  0  0  0  0  0  0  0  0  0  0
    8.8810   -1.1900   22.4510 C   0  0  0  0  0  0  0  0  0  0  0  0
    7.0637    0.1030   18.4963 N   0  0  0  0  0  0  0  0  0  0  0  0
    6.0289    0.6462   17.8337 N   0  0  0  0  0  0  0  0  0  0  0  0
    7.2820   -0.7860   20.6970 N   0  0  0  0  0  0  0  0  0  0  0  0
    8.9170    0.7530   21.0260 O   0  0  0  0  0  0  0  0  0  0  0  0
   13.8840   -1.8490   21.2740 Cl  0  0  0  0  0  0  0  0  0  0  0  0
    2.1178    0.4868   21.2304 H   0  0  0  0  0  0  0  0  0  0  0  0
    1.6122    1.4593   19.0196 H   0  0  0  0  0  0  0  0  0  0  0  0
   12.2249    1.2198   24.6546 H   0  0  0  0  0  0  0  0  0  0  0  0
    4.3902   -0.3595   21.7568 H   0  0  0  0  0  0  0  0  0  0  0  0
    9.8763    0.5350   24.3454 H   0  0  0  0  0  0  0  0  0  0  0  0
    3.3780    1.6149   17.2640 H   0  0  0  0  0  0  0  0  0  0  0  0
   14.0077    0.1988   23.2842 H   0  0  0  0  0  0  0  0  0  0  0  0
   11.0892   -2.3009   21.3624 H   0  0  0  0  0  0  0  0  0  0  0  0
    8.7774   -2.2383   22.1732 H   0  0  0  0  0  0  0  0  0  0  0  0
    8.2557   -1.0153   23.3257 H   0  0  0  0  0  0  0  0  0  0  0  0
    6.1820    0.9597   16.8833 H   0  0  0  0  0  0  0  0  0  0  0  0
    6.9394   -1.7027   21.0257 H   0  0  0  0  0  0  0  0  0  0  0  0
  1  2  1  0  0  0  0
  1  4  2  0  0  0  0
  2  6  2  0  0  0  0
  3  5  2  0  0  0  0
  3  7  1  0  0  0  0
  4  9  1  0  0  0  0
  5 10  1  0  0  0  0
  6 11  1  0  0  0  0
  7 12  2  0  0  0  0
  8 10  2  0  0  0  0
  8 12  1  0  0  0  0
  9 11  2  0  0  0  0
  9 13  1  0  0  0  0
 10 15  1  0  0  0  0
 11 17  1  0  0  0  0
 12 20  1  0  0  0  0
 13 16  2  0  0  0  0
 13 18  1  0  0  0  0
 14 15  1  0  0  0  0
 14 18  1  0  0  0  0
 14 19  2  0  0  0  0
 16 17  1  0  0  0  0
  1 21  1  0  0  0  0
  2 22  1  0  0  0  0
  3 23  1  0  0  0  0
  4 24  1  0  0  0  0
  5 25  1  0  0  0  0
  6 26  1  0  0  0  0
  7 27  1  0  0  0  0
  8 28  1  0  0  0  0
 15 29  1  0  0  0  0
 15 30  1  0  0  0  0
 17 31  1  0  0  0  0
 18 32  1  0  0  0  0
M  END
> <compound>
NAU-LAT-a5c7d7cb-10

> <compound_smiles>
c1ccc2c(c1)c(n[nH]2)NC(=O)Cc3cccc(c3)Cl

> <enantiomer_smiles>
c1ccc2c(c1)c(n[nH]2)NC(=O)Cc3cccc(c3)Cl

> <scaffold>
chlorobenzene-linker

> <clash_score>
0.6198248131919792

> <docking_score>
-2.6423096656799316

> <overlap_score>
0.8656901717185974

> <MMFF_internal_energy>
46.24825646226108

> <docked_smiles>
c1ccc2c(c1)c(n[nH]2)NC(=O)Cc3cccc(c3)Cl

$$$$
NAU-LAT-a5c7d7cb-14_2
  -OEChem-07262101023D

 37 39  0     1  0  0  0  0  0999 V2000
    4.6932    2.4979   21.7813 C   0  0  0  0  0  0  0  0  0  0  0  0
    3.6647    2.8514   20.9119 C   0  0  0  0  0  0  0  0  0  0  0  0
   11.9780    0.4600   23.9150 C   0  0  0  0  0  0  0  0  0  0  0  0
    5.6400    1.5438   21.3999 C   0  0  0  0  0  0  0  0  0  0  0  0
   10.6560    0.0720   23.7350 C   0  0  0  0  0  0  0  0  0  0  0  0
    3.5787    2.2511   19.6582 C   0  0  0  0  0  0  0  0  0  0  0  0
   12.9840   -0.1200   23.1530 C   0  0  0  0  0  0  0  0  0  0  0  0
   11.3360   -1.5050   22.0650 C   0  0  0  0  0  0  0  0  0  0  0  0
    5.5570    0.9112   20.1507 C   0  0  0  0  0  0  0  0  0  0  0  0
   10.3220   -0.8940   22.7910 C   0  0  0  0  0  0  0  0  0  0  0  0
    4.5150    1.2816   19.2838 C   0  0  0  0  0  0  0  0  0  0  0  0
   12.6400   -1.1000   22.2390 C   0  0  0  0  0  0  0  0  0  0  0  0
    5.1782   -0.3592   17.5772 C   0  0  0  0  0  0  0  0  0  0  0  0
    8.3880   -0.3240   21.3070 C   0  0  0  0  0  0  0  0  0  0  0  0
    5.9979   -1.0400   18.6524 C   0  0  0  0  0  0  0  0  0  0  0  0
    6.6086   -0.0539   19.6475 C   0  0  2  0  0  0  0  0  0  0  0  0
    8.8810   -1.1900   22.4510 C   0  0  0  0  0  0  0  0  0  0  0  0
    4.4150    0.7076   18.0037 N   0  0  0  0  0  0  0  0  0  0  0  0
    7.2820   -0.7860   20.6970 N   0  0  0  0  0  0  0  0  0  0  0  0
    5.1329   -0.8011   16.4293 O   0  0  0  0  0  0  0  0  0  0  0  0
    8.9170    0.7530   21.0260 O   0  0  0  0  0  0  0  0  0  0  0  0
   13.8840   -1.8490   21.2740 Cl  0  0  0  0  0  0  0  0  0  0  0  0
    4.7551    2.9568   22.7647 H   0  0  0  0  0  0  0  0  0  0  0  0
    2.9298    3.5915   21.2117 H   0  0  0  0  0  0  0  0  0  0  0  0
   12.2249    1.2198   24.6546 H   0  0  0  0  0  0  0  0  0  0  0  0
    6.4417    1.2865   22.0914 H   0  0  0  0  0  0  0  0  0  0  0  0
    9.8763    0.5350   24.3454 H   0  0  0  0  0  0  0  0  0  0  0  0
    2.7858    2.5499   18.9760 H   0  0  0  0  0  0  0  0  0  0  0  0
   14.0077    0.1988   23.2842 H   0  0  0  0  0  0  0  0  0  0  0  0
   11.0892   -2.3009   21.3624 H   0  0  0  0  0  0  0  0  0  0  0  0
    5.3719   -1.7717   19.1733 H   0  0  0  0  0  0  0  0  0  0  0  0
    6.7947   -1.5941   18.1422 H   0  0  0  0  0  0  0  0  0  0  0  0
    7.4020    0.5025   19.1080 H   0  0  0  0  0  0  0  0  0  0  0  0
    8.7773   -2.2383   22.1737 H   0  0  0  0  0  0  0  0  0  0  0  0
    8.2516   -1.0144   23.3225 H   0  0  0  0  0  0  0  0  0  0  0  0
    3.7369    1.1064   17.3581 H   0  0  0  0  0  0  0  0  0  0  0  0
    6.9051   -1.6840   20.9847 H   0  0  0  0  0  0  0  0  0  0  0  0
  1  2  1  0  0  0  0
  1  4  2  0  0  0  0
  2  6  2  0  0  0  0
  3  5  2  0  0  0  0
  3  7  1  0  0  0  0
  4  9  1  0  0  0  0
  5 10  1  0  0  0  0
  6 11  1  0  0  0  0
  7 12  2  0  0  0  0
  8 10  2  0  0  0  0
  8 12  1  0  0  0  0
  9 11  2  0  0  0  0
  9 16  1  0  0  0  0
 10 17  1  0  0  0  0
 11 18  1  0  0  0  0
 12 22  1  0  0  0  0
 13 15  1  0  0  0  0
 13 18  1  0  0  0  0
 13 20  2  0  0  0  0
 14 17  1  0  0  0  0
 14 19  1  0  0  0  0
 14 21  2  0  0  0  0
 15 16  1  0  0  0  0
 16 19  1  6  0  0  0
  1 23  1  0  0  0  0
  2 24  1  0  0  0  0
  3 25  1  0  0  0  0
  4 26  1  0  0  0  0
  5 27  1  0  0  0  0
  6 28  1  0  0  0  0
  7 29  1  0  0  0  0
  8 30  1  0  0  0  0
 15 31  1  0  0  0  0
 15 32  1  0  0  0  0
 16 33  1  0  0  0  0
 17 34  1  0  0  0  0
 17 35  1  0  0  0  0
 18 36  1  0  0  0  0
 19 37  1  0  0  0  0
M  END
> <compound>
NAU-LAT-a5c7d7cb-14

> <compound_smiles>
c1ccc2c(c1)C(CC(=O)N2)NC(=O)Cc3cccc(c3)Cl

> <enantiomer_smiles>
c1ccc2c(c1)[C@H](CC(=O)N2)NC(=O)Cc3cccc(c3)Cl

> <scaffold>
chlorobenzene-linker

> <clash_score>
0.7374345868673973

> <docking_score>
-5.324054718017578

> <overlap_score>
0.9130384922027588

> <MMFF_internal_energy>
1.994301249483071

> <docked_smiles>
c1ccc2c(c1)[C@H](CC(=O)N2)NC(=O)Cc3cccc(c3)Cl

$$$$
NAU-LAT-a5c7d7cb-13_2
  -OEChem-07262101023D

 34 36  0     1  0  0  0  0  0999 V2000
    4.2595    2.4832   21.2843 C   0  0  0  0  0  0  0  0  0  0  0  0
    3.0659    2.0301   20.6919 C   0  0  0  0  0  0  0  0  0  0  0  0
   11.9780    0.4600   23.9150 C   0  0  0  0  0  0  0  0  0  0  0  0
    5.4797    1.8569   21.0107 C   0  0  0  0  0  0  0  0  0  0  0  0
   10.6560    0.0720   23.7350 C   0  0  0  0  0  0  0  0  0  0  0  0
    3.0712    0.9435   19.8155 C   0  0  0  0  0  0  0  0  0  0  0  0
   12.9840   -0.1200   23.1530 C   0  0  0  0  0  0  0  0  0  0  0  0
   11.3360   -1.5050   22.0650 C   0  0  0  0  0  0  0  0  0  0  0  0
    5.4768    0.7794   20.1451 C   0  0  0  0  0  0  0  0  0  0  0  0
   10.3220   -0.8940   22.7910 C   0  0  0  0  0  0  0  0  0  0  0  0
    4.2881    0.3433   19.5625 C   0  0  0  0  0  0  0  0  0  0  0  0
   12.6400   -1.1000   22.2390 C   0  0  0  0  0  0  0  0  0  0  0  0
    5.9012   -1.0837   18.7433 C   0  0  0  0  0  0  0  0  0  0  0  0
    8.3880   -0.3240   21.3070 C   0  0  0  0  0  0  0  0  0  0  0  0
    6.6075   -0.0692   19.6569 C   0  0  2  0  0  0  0  0  0  0  0  0
    8.8810   -1.1900   22.4510 C   0  0  0  0  0  0  0  0  0  0  0  0
    4.5411   -0.7481   18.7377 N   0  0  0  0  0  0  0  0  0  0  0  0
    7.2820   -0.7860   20.6970 N   0  0  0  0  0  0  0  0  0  0  0  0
    6.4341   -2.0164   18.1615 O   0  0  0  0  0  0  0  0  0  0  0  0
    8.9170    0.7530   21.0260 O   0  0  0  0  0  0  0  0  0  0  0  0
   13.8840   -1.8490   21.2740 Cl  0  0  0  0  0  0  0  0  0  0  0  0
    4.2310    3.3324   21.9621 H   0  0  0  0  0  0  0  0  0  0  0  0
    2.1304    2.5338   20.9205 H   0  0  0  0  0  0  0  0  0  0  0  0
   12.2249    1.2198   24.6546 H   0  0  0  0  0  0  0  0  0  0  0  0
    6.3973    2.2121   21.4665 H   0  0  0  0  0  0  0  0  0  0  0  0
    9.8763    0.5350   24.3454 H   0  0  0  0  0  0  0  0  0  0  0  0
    2.1536    0.5922   19.3580 H   0  0  0  0  0  0  0  0  0  0  0  0
   14.0077    0.1988   23.2842 H   0  0  0  0  0  0  0  0  0  0  0  0
   11.0892   -2.3009   21.3624 H   0  0  0  0  0  0  0  0  0  0  0  0
    7.3272    0.5103   19.0713 H   0  0  0  0  0  0  0  0  0  0  0  0
    8.7773   -2.2383   22.1737 H   0  0  0  0  0  0  0  0  0  0  0  0
    8.2516   -1.0144   23.3225 H   0  0  0  0  0  0  0  0  0  0  0  0
    3.8220   -1.2403   18.2210 H   0  0  0  0  0  0  0  0  0  0  0  0
    6.9058   -1.6898   20.9891 H   0  0  0  0  0  0  0  0  0  0  0  0
  1  2  1  0  0  0  0
  1  4  2  0  0  0  0
  2  6  2  0  0  0  0
  3  5  2  0  0  0  0
  3  7  1  0  0  0  0
  4  9  1  0  0  0  0
  5 10  1  0  0  0  0
  6 11  1  0  0  0  0
  7 12  2  0  0  0  0
  8 10  2  0  0  0  0
  8 12  1  0  0  0  0
  9 11  2  0  0  0  0
  9 15  1  0  0  0  0
 10 16  1  0  0  0  0
 11 17  1  0  0  0  0
 12 21  1  0  0  0  0
 13 15  1  0  0  0  0
 13 17  1  0  0  0  0
 13 19  2  0  0  0  0
 14 16  1  0  0  0  0
 14 18  1  0  0  0  0
 14 20  2  0  0  0  0
 15 18  1  6  0  0  0
  1 22  1  0  0  0  0
  2 23  1  0  0  0  0
  3 24  1  0  0  0  0
  4 25  1  0  0  0  0
  5 26  1  0  0  0  0
  6 27  1  0  0  0  0
  7 28  1  0  0  0  0
  8 29  1  0  0  0  0
 15 30  1  0  0  0  0
 16 31  1  0  0  0  0
 16 32  1  0  0  0  0
 17 33  1  0  0  0  0
 18 34  1  0  0  0  0
M  END
> <compound>
NAU-LAT-a5c7d7cb-13

> <compound_smiles>
c1ccc2c(c1)C(C(=O)N2)NC(=O)Cc3cccc(c3)Cl

> <enantiomer_smiles>
c1ccc2c(c1)[C@H](C(=O)N2)NC(=O)Cc3cccc(c3)Cl

> <scaffold>
chlorobenzene-linker

> <clash_score>
0.6088108629531825

> <docking_score>
-4.445033073425293

> <overlap_score>
0.8547785878181458

> <MMFF_internal_energy>
51.736088787783004

> <docked_smiles>
c1ccc2c(c1)[C@H](C(=O)N2)NC(=O)Cc3cccc(c3)Cl

$$$$
NAU-LAT-a5c7d7cb-14_1
  -OEChem-07262101023D

 37 39  0     1  0  0  0  0  0999 V2000
    5.2228    2.8761   21.7040 C   0  0  0  0  0  0  0  0  0  0  0  0
    5.0457    3.8362   20.7112 C   0  0  0  0  0  0  0  0  0  0  0  0
   11.9780    0.4600   23.9150 C   0  0  0  0  0  0  0  0  0  0  0  0
    5.7486    1.6218   21.3837 C   0  0  0  0  0  0  0  0  0  0  0  0
   10.6560    0.0720   23.7350 C   0  0  0  0  0  0  0  0  0  0  0  0
    5.3953    3.5460   19.3949 C   0  0  0  0  0  0  0  0  0  0  0  0
   12.9840   -0.1200   23.1530 C   0  0  0  0  0  0  0  0  0  0  0  0
   11.3360   -1.5050   22.0650 C   0  0  0  0  0  0  0  0  0  0  0  0
    6.1279    1.3184   20.0679 C   0  0  0  0  0  0  0  0  0  0  0  0
   10.3220   -0.8940   22.7910 C   0  0  0  0  0  0  0  0  0  0  0  0
    5.9400    2.2972   19.0775 C   0  0  0  0  0  0  0  0  0  0  0  0
   12.6400   -1.1000   22.2390 C   0  0  0  0  0  0  0  0  0  0  0  0
    6.9434    0.8983   17.3222 C   0  0  0  0  0  0  0  0  0  0  0  0
    8.3880   -0.3240   21.3070 C   0  0  0  0  0  0  0  0  0  0  0  0
    7.5287    0.0509   18.4316 C   0  0  0  0  0  0  0  0  0  0  0  0
    6.6087   -0.0537   19.6475 C   0  0  1  0  0  0  0  0  0  0  0  0
    8.8810   -1.1900   22.4510 C   0  0  0  0  0  0  0  0  0  0  0  0
    6.2645    2.0253   17.7362 N   0  0  0  0  0  0  0  0  0  0  0  0
    7.2820   -0.7860   20.6970 N   0  0  0  0  0  0  0  0  0  0  0  0
    7.1525    0.6373   16.1377 O   0  0  0  0  0  0  0  0  0  0  0  0
    8.9170    0.7530   21.0260 O   0  0  0  0  0  0  0  0  0  0  0  0
   13.8840   -1.8490   21.2740 Cl  0  0  0  0  0  0  0  0  0  0  0  0
    4.9617    3.1051   22.7340 H   0  0  0  0  0  0  0  0  0  0  0  0
    4.6386    4.8101   20.9635 H   0  0  0  0  0  0  0  0  0  0  0  0
   12.2249    1.2198   24.6546 H   0  0  0  0  0  0  0  0  0  0  0  0
    5.8721    0.8813   22.1735 H   0  0  0  0  0  0  0  0  0  0  0  0
    9.8763    0.5350   24.3454 H   0  0  0  0  0  0  0  0  0  0  0  0
    5.2328    4.2936   18.6218 H   0  0  0  0  0  0  0  0  0  0  0  0
   14.0077    0.1988   23.2842 H   0  0  0  0  0  0  0  0  0  0  0  0
   11.0892   -2.3009   21.3624 H   0  0  0  0  0  0  0  0  0  0  0  0
    7.7000   -0.9466   18.0114 H   0  0  0  0  0  0  0  0  0  0  0  0
    8.5026    0.4569   18.7207 H   0  0  0  0  0  0  0  0  0  0  0  0
    5.7439   -0.6779   19.3464 H   0  0  0  0  0  0  0  0  0  0  0  0
    8.7773   -2.2383   22.1737 H   0  0  0  0  0  0  0  0  0  0  0  0
    8.2516   -1.0144   23.3225 H   0  0  0  0  0  0  0  0  0  0  0  0
    5.9813    2.7005   17.0301 H   0  0  0  0  0  0  0  0  0  0  0  0
    6.9051   -1.6839   20.9846 H   0  0  0  0  0  0  0  0  0  0  0  0
  1  2  1  0  0  0  0
  1  4  2  0  0  0  0
  2  6  2  0  0  0  0
  3  5  2  0  0  0  0
  3  7  1  0  0  0  0
  4  9  1  0  0  0  0
  5 10  1  0  0  0  0
  6 11  1  0  0  0  0
  7 12  2  0  0  0  0
  8 10  2  0  0  0  0
  8 12  1  0  0  0  0
  9 11  2  0  0  0  0
  9 16  1  0  0  0  0
 10 17  1  0  0  0  0
 11 18  1  0  0  0  0
 12 22  1  0  0  0  0
 13 15  1  0  0  0  0
 13 18  1  0  0  0  0
 13 20  2  0  0  0  0
 14 17  1  0  0  0  0
 14 19  1  0  0  0  0
 14 21  2  0  0  0  0
 15 16  1  0  0  0  0
 16 19  1  1  0  0  0
  1 23  1  0  0  0  0
  2 24  1  0  0  0  0
  3 25  1  0  0  0  0
  4 26  1  0  0  0  0
  5 27  1  0  0  0  0
  6 28  1  0  0  0  0
  7 29  1  0  0  0  0
  8 30  1  0  0  0  0
 15 31  1  0  0  0  0
 15 32  1  0  0  0  0
 16 33  1  0  0  0  0
 17 34  1  0  0  0  0
 17 35  1  0  0  0  0
 18 36  1  0  0  0  0
 19 37  1  0  0  0  0
M  END
> <compound>
NAU-LAT-a5c7d7cb-14

> <compound_smiles>
c1ccc2c(c1)C(CC(=O)N2)NC(=O)Cc3cccc(c3)Cl

> <enantiomer_smiles>
c1ccc2c(c1)[C@@H](CC(=O)N2)NC(=O)Cc3cccc(c3)Cl

> <scaffold>
chlorobenzene-linker

> <clash_score>
1.3546073865610493

> <docking_score>
-2.8528780937194824

> <overlap_score>
0.7919995784759521

> <MMFF_internal_energy>
4.2659074558122745

> <docked_smiles>
c1ccc2c(c1)[C@@H](CC(=O)N2)NC(=O)Cc3cccc(c3)Cl

$$$$
NAU-LAT-a5c7d7cb-3_2
  -OEChem-07262101023D

 51 53  0     1  0  0  0  0  0999 V2000
   11.9780    0.4600   23.9150 C   0  0  0  0  0  0  0  0  0  0  0  0
   10.6560    0.0720   23.7350 C   0  0  0  0  0  0  0  0  0  0  0  0
   12.9840   -0.1200   23.1530 C   0  0  0  0  0  0  0  0  0  0  0  0
    4.6233    0.7519   18.6082 C   0  0  0  0  0  0  0  0  0  0  0  0
   11.3360   -1.5050   22.0650 C   0  0  0  0  0  0  0  0  0  0  0  0
    5.3563    0.9065   17.4426 C   0  0  0  0  0  0  0  0  0  0  0  0
    7.2356   -0.0072   18.3973 C   0  0  0  0  0  0  0  0  0  0  0  0
   10.3220   -0.8940   22.7910 C   0  0  0  0  0  0  0  0  0  0  0  0
    5.2597    0.1850   19.7069 C   0  0  0  0  0  0  0  0  0  0  0  0
    6.5908   -0.2044   19.6077 C   0  0  0  0  0  0  0  0  0  0  0  0
   12.6400   -1.1000   22.2390 C   0  0  0  0  0  0  0  0  0  0  0  0
   10.0549   -6.3970   20.9567 C   0  0  0  0  0  0  0  0  0  0  0  0
    8.3880   -0.3240   21.3070 C   0  0  0  0  0  0  0  0  0  0  0  0
    9.0070   -5.0039   22.7124 C   0  0  0  0  0  0  0  0  0  0  0  0
    8.6216   -4.3830   20.3588 C   0  0  0  0  0  0  0  0  0  0  0  0
    9.3715   -3.5664   23.0534 C   0  0  0  0  0  0  0  0  0  0  0  0
    8.9788   -2.9348   20.6651 C   0  0  0  0  0  0  0  0  0  0  0  0
    4.4934    0.0071   20.9765 C   0  0  0  0  0  0  0  0  0  0  0  0
   10.2864   -6.6234   19.4840 C   0  0  0  0  0  0  0  0  0  0  0  0
    8.8810   -1.1900   22.4510 C   0  0  2  0  0  0  0  0  0  0  0  0
    6.6507    0.5402   17.3084 N   0  0  0  0  0  0  0  0  0  0  0  0
    9.2756   -5.2944   21.3040 N   0  0  0  0  0  0  0  0  0  0  0  0
    7.2820   -0.7860   20.6970 N   0  0  0  0  0  0  0  0  0  0  0  0
    8.6433   -2.6361   22.1092 N   0  3  0  0  0  0  0  0  0  0  0  0
   10.5547   -7.1761   21.7724 O   0  0  0  0  0  0  0  0  0  0  0  0
    8.9170    0.7530   21.0260 O   0  0  0  0  0  0  0  0  0  0  0  0
   13.8840   -1.8490   21.2740 Cl  0  0  0  0  0  0  0  0  0  0  0  0
   12.2249    1.2198   24.6546 H   0  0  0  0  0  0  0  0  0  0  0  0
    9.8763    0.5350   24.3454 H   0  0  0  0  0  0  0  0  0  0  0  0
   14.0077    0.1988   23.2842 H   0  0  0  0  0  0  0  0  0  0  0  0
    3.5862    1.0665   18.6528 H   0  0  0  0  0  0  0  0  0  0  0  0
   11.0892   -2.3009   21.3624 H   0  0  0  0  0  0  0  0  0  0  0  0
    4.9061    1.3436   16.5574 H   0  0  0  0  0  0  0  0  0  0  0  0
    8.2746   -0.2910   18.2577 H   0  0  0  0  0  0  0  0  0  0  0  0
    9.5635   -5.6862   23.3626 H   0  0  0  0  0  0  0  0  0  0  0  0
    7.9398   -5.1861   22.8884 H   0  0  0  0  0  0  0  0  0  0  0  0
    7.5401   -4.5410   20.4502 H   0  0  0  0  0  0  0  0  0  0  0  0
    8.8907   -4.6064   19.3251 H   0  0  0  0  0  0  0  0  0  0  0  0
    9.0502   -3.3169   24.0698 H   0  0  0  0  0  0  0  0  0  0  0  0
   10.4461   -3.3790   22.9490 H   0  0  0  0  0  0  0  0  0  0  0  0
   10.0464   -2.7357   20.5193 H   0  0  0  0  0  0  0  0  0  0  0  0
    8.3881   -2.2524   20.0453 H   0  0  0  0  0  0  0  0  0  0  0  0
    4.0017   -0.9724   20.9892 H   0  0  0  0  0  0  0  0  0  0  0  0
    5.1524    0.0790   21.8505 H   0  0  0  0  0  0  0  0  0  0  0  0
    3.7275    0.7845   21.0893 H   0  0  0  0  0  0  0  0  0  0  0  0
   11.1837   -6.0944   19.1803 H   0  0  0  0  0  0  0  0  0  0  0  0
    9.4311   -6.2520   18.9285 H   0  0  0  0  0  0  0  0  0  0  0  0
   10.4033   -7.6869   19.3023 H   0  0  0  0  0  0  0  0  0  0  0  0
    8.2445   -1.0188   23.3300 H   0  0  0  0  0  0  0  0  0  0  0  0
    6.8974   -1.6551   21.0612 H   0  0  0  0  0  0  0  0  0  0  0  0
    7.6346   -2.8016   22.2306 H   0  0  0  0  0  0  0  0  0  0  0  0
  1  2  2  0  0  0  0
  1  3  1  0  0  0  0
  2  8  1  0  0  0  0
  3 11  2  0  0  0  0
  4  6  2  0  0  0  0
  4  9  1  0  0  0  0
  5  8  2  0  0  0  0
  5 11  1  0  0  0  0
  6 21  1  0  0  0  0
  7 10  1  0  0  0  0
  7 21  2  0  0  0  0
  8 20  1  0  0  0  0
  9 10  2  0  0  0  0
  9 18  1  0  0  0  0
 10 23  1  0  0  0  0
 11 27  1  0  0  0  0
 12 19  1  0  0  0  0
 12 22  1  0  0  0  0
 12 25  2  0  0  0  0
 13 20  1  6  0  0  0
 13 23  1  0  0  0  0
 13 26  2  0  0  0  0
 14 16  1  0  0  0  0
 14 22  1  0  0  0  0
 15 17  1  0  0  0  0
 15 22  1  0  0  0  0
 16 24  1  0  0  0  0
 17 24  1  0  0  0  0
 20 24  1  0  0  0  0
  1 28  1  0  0  0  0
  2 29  1  0  0  0  0
  3 30  1  0  0  0  0
  4 31  1  0  0  0  0
  5 32  1  0  0  0  0
  6 33  1  0  0  0  0
  7 34  1  0  0  0  0
 14 35  1  0  0  0  0
 14 36  1  0  0  0  0
 15 37  1  0  0  0  0
 15 38  1  0  0  0  0
 16 39  1  0  0  0  0
 16 40  1  0  0  0  0
 17 41  1  0  0  0  0
 17 42  1  0  0  0  0
 18 43  1  0  0  0  0
 18 44  1  0  0  0  0
 18 45  1  0  0  0  0
 19 46  1  0  0  0  0
 19 47  1  0  0  0  0
 19 48  1  0  0  0  0
 20 49  1  0  0  0  0
 23 50  1  0  0  0  0
 24 51  1  0  0  0  0
M  CHG  1  24   1
M  END
> <compound>
NAU-LAT-a5c7d7cb-3

> <compound_smiles>
Cc1ccncc1NC(=O)C(c2cccc(c2)Cl)N3CCN(CC3)C(=O)C

> <enantiomer_smiles>
Cc1ccncc1NC(=O)[C@H](c2cccc(c2)Cl)N3CCN(CC3)C(=O)C

> <scaffold>
chlorobenzene-linker

> <clash_score>
4.239631428732112

> <docking_score>
-1.5197645425796509

> <overlap_score>
0.836379885673523

> <MMFF_internal_energy>
228.24706212669614

> <docked_smiles>
Cc1ccncc1NC(=O)[C@H](c2cccc(c2)Cl)[NH+]3CCN(CC3)C(=O)C

$$$$
NAU-LAT-a5c7d7cb-12_1
  -OEChem-07262101023D

 31 33  0     0  0  0  0  0  0999 V2000
   11.9780    0.4600   23.9150 C   0  0  0  0  0  0  0  0  0  0  0  0
   10.6560    0.0720   23.7350 C   0  0  0  0  0  0  0  0  0  0  0  0
   12.9840   -0.1200   23.1530 C   0  0  0  0  0  0  0  0  0  0  0  0
   11.3360   -1.5050   22.0650 C   0  0  0  0  0  0  0  0  0  0  0  0
   10.3220   -0.8940   22.7910 C   0  0  0  0  0  0  0  0  0  0  0  0
   12.6400   -1.1000   22.2390 C   0  0  0  0  0  0  0  0  0  0  0  0
    4.9793    0.0930   18.1993 C   0  0  0  0  0  0  0  0  0  0  0  0
    6.5436   -0.2072   19.6961 C   0  0  0  0  0  0  0  0  0  0  0  0
    3.8109   -0.2708   17.4736 C   0  0  0  0  0  0  0  0  0  0  0  0
    3.2009   -1.4411   17.7472 C   0  0  0  0  0  0  0  0  0  0  0  0
    3.7091   -2.3452   18.7698 C   0  0  0  0  0  0  0  0  0  0  0  0
    4.8124   -2.0026   19.4556 C   0  0  0  0  0  0  0  0  0  0  0  0
    8.3880   -0.3240   21.3070 C   0  0  0  0  0  0  0  0  0  0  0  0
    8.8810   -1.1900   22.4510 C   0  0  0  0  0  0  0  0  0  0  0  0
    5.7766    1.1395   18.1642 N   0  0  0  0  0  0  0  0  0  0  0  0
    6.7643    0.9486   19.1102 N   0  0  0  0  0  0  0  0  0  0  0  0
    5.4313   -0.7937   19.1641 N   0  0  0  0  0  0  0  0  0  0  0  0
    7.2820   -0.7860   20.6970 N   0  0  0  0  0  0  0  0  0  0  0  0
    8.9170    0.7530   21.0260 O   0  0  0  0  0  0  0  0  0  0  0  0
   13.8840   -1.8490   21.2740 Cl  0  0  0  0  0  0  0  0  0  0  0  0
   12.2249    1.2198   24.6546 H   0  0  0  0  0  0  0  0  0  0  0  0
    9.8763    0.5350   24.3454 H   0  0  0  0  0  0  0  0  0  0  0  0
   14.0077    0.1988   23.2842 H   0  0  0  0  0  0  0  0  0  0  0  0
   11.0892   -2.3009   21.3624 H   0  0  0  0  0  0  0  0  0  0  0  0
    3.4255    0.3962   16.7109 H   0  0  0  0  0  0  0  0  0  0  0  0
    2.3092   -1.7416   17.2079 H   0  0  0  0  0  0  0  0  0  0  0  0
    3.1857   -3.2755   18.9532 H   0  0  0  0  0  0  0  0  0  0  0  0
    5.2395   -2.6316   20.2269 H   0  0  0  0  0  0  0  0  0  0  0  0
    8.7775   -2.2383   22.1732 H   0  0  0  0  0  0  0  0  0  0  0  0
    8.2557   -1.0153   23.3257 H   0  0  0  0  0  0  0  0  0  0  0  0
    6.9401   -1.7071   21.0292 H   0  0  0  0  0  0  0  0  0  0  0  0
  1  2  2  0  0  0  0
  1  3  1  0  0  0  0
  2  5  1  0  0  0  0
  3  6  2  0  0  0  0
  4  5  2  0  0  0  0
  4  6  1  0  0  0  0
  5 14  1  0  0  0  0
  6 20  1  0  0  0  0
  7  9  1  0  0  0  0
  7 15  2  0  0  0  0
  7 17  1  0  0  0  0
  8 16  2  0  0  0  0
  8 17  1  0  0  0  0
  8 18  1  0  0  0  0
  9 10  2  0  0  0  0
 10 11  1  0  0  0  0
 11 12  2  0  0  0  0
 12 17  1  0  0  0  0
 13 14  1  0  0  0  0
 13 18  1  0  0  0  0
 13 19  2  0  0  0  0
 15 16  1  0  0  0  0
  1 21  1  0  0  0  0
  2 22  1  0  0  0  0
  3 23  1  0  0  0  0
  4 24  1  0  0  0  0
  9 25  1  0  0  0  0
 10 26  1  0  0  0  0
 11 27  1  0  0  0  0
 12 28  1  0  0  0  0
 14 29  1  0  0  0  0
 14 30  1  0  0  0  0
 18 31  1  0  0  0  0
M  END
> <compound>
NAU-LAT-a5c7d7cb-12

> <compound_smiles>
c1ccn2c(c1)nnc2NC(=O)Cc3cccc(c3)Cl

> <enantiomer_smiles>
c1ccn2c(c1)nnc2NC(=O)Cc3cccc(c3)Cl

> <scaffold>
chlorobenzene-linker

> <clash_score>
4.0038431256247895

> <docking_score>
0.056696176528930664

> <overlap_score>
0.7417444586753845

> <MMFF_internal_energy>
61.745113280462355

> <docked_smiles>
c1ccn2c(c1)nnc2NC(=O)Cc3cccc(c3)Cl

$$$$
NAU-LAT-a5c7d7cb-2_2
  -OEChem-07262101023D

 54 57  0     1  0  0  0  0  0999 V2000
    4.8867    3.6427   19.7211 C   0  0  0  0  0  0  0  0  0  0  0  0
    5.5503    3.1504   20.8424 C   0  0  0  0  0  0  0  0  0  0  0  0
   11.9780    0.4600   23.9150 C   0  0  0  0  0  0  0  0  0  0  0  0
    4.7892    2.8630   18.5689 C   0  0  0  0  0  0  0  0  0  0  0  0
    6.1195    1.8760   20.8166 C   0  0  0  0  0  0  0  0  0  0  0  0
   10.6560    0.0720   23.7350 C   0  0  0  0  0  0  0  0  0  0  0  0
   12.9840   -0.1200   23.1530 C   0  0  0  0  0  0  0  0  0  0  0  0
   11.3360   -1.5050   22.0650 C   0  0  0  0  0  0  0  0  0  0  0  0
    5.2903    0.7565   17.4056 C   0  0  0  0  0  0  0  0  0  0  0  0
    6.4606   -0.9310   18.4340 C   0  0  0  0  0  0  0  0  0  0  0  0
    5.3581    1.5791   18.5317 C   0  0  0  0  0  0  0  0  0  0  0  0
    6.0308    1.0771   19.6649 C   0  0  0  0  0  0  0  0  0  0  0  0
   10.3220   -0.8940   22.7910 C   0  0  0  0  0  0  0  0  0  0  0  0
    6.5908   -0.2044   19.6077 C   0  0  0  0  0  0  0  0  0  0  0  0
   12.6400   -1.1000   22.2390 C   0  0  0  0  0  0  0  0  0  0  0  0
    5.7962   -4.3865   24.9643 C   0  0  0  0  0  0  0  0  0  0  0  0
    8.3880   -0.3240   21.3070 C   0  0  0  0  0  0  0  0  0  0  0  0
    8.0052   -3.3291   24.6209 C   0  0  0  0  0  0  0  0  0  0  0  0
    6.1613   -2.6840   23.1117 C   0  0  0  0  0  0  0  0  0  0  0  0
    8.3675   -1.8667   24.8344 C   0  0  0  0  0  0  0  0  0  0  0  0
    6.5005   -1.2117   23.3026 C   0  0  0  0  0  0  0  0  0  0  0  0
    6.4871   -5.6065   25.5195 C   0  0  0  0  0  0  0  0  0  0  0  0
    8.8810   -1.1900   22.4510 C   0  0  2  0  0  0  0  0  0  0  0  0
    5.8245   -0.4834   17.3305 N   0  0  0  0  0  0  0  0  0  0  0  0
    6.5936   -3.4798   24.2660 N   0  0  0  0  0  0  0  0  0  0  0  0
    7.2820   -0.7860   20.6970 N   0  0  0  0  0  0  0  0  0  0  0  0
    7.9638   -1.0391   23.6364 N   0  3  0  0  0  0  0  0  0  0  0  0
    4.5838   -4.2466   25.1446 O   0  0  0  0  0  0  0  0  0  0  0  0
    8.9170    0.7530   21.0260 O   0  0  0  0  0  0  0  0  0  0  0  0
   13.8840   -1.8490   21.2740 Cl  0  0  0  0  0  0  0  0  0  0  0  0
    4.4446    4.6344   19.7440 H   0  0  0  0  0  0  0  0  0  0  0  0
    5.6249    3.7592   21.7389 H   0  0  0  0  0  0  0  0  0  0  0  0
   12.2249    1.2198   24.6546 H   0  0  0  0  0  0  0  0  0  0  0  0
    4.2674    3.2627   17.7024 H   0  0  0  0  0  0  0  0  0  0  0  0
    6.6299    1.5271   21.7114 H   0  0  0  0  0  0  0  0  0  0  0  0
    9.8763    0.5350   24.3454 H   0  0  0  0  0  0  0  0  0  0  0  0
   14.0077    0.1988   23.2842 H   0  0  0  0  0  0  0  0  0  0  0  0
   11.0892   -2.3009   21.3624 H   0  0  0  0  0  0  0  0  0  0  0  0
    4.7868    1.0816   16.4993 H   0  0  0  0  0  0  0  0  0  0  0  0
    6.8769   -1.9300   18.3396 H   0  0  0  0  0  0  0  0  0  0  0  0
    8.6483   -3.7552   23.8433 H   0  0  0  0  0  0  0  0  0  0  0  0
    8.1780   -3.9096   25.5363 H   0  0  0  0  0  0  0  0  0  0  0  0
    5.0769   -2.8200   23.0112 H   0  0  0  0  0  0  0  0  0  0  0  0
    6.6130   -3.0369   22.1820 H   0  0  0  0  0  0  0  0  0  0  0  0
    7.8330   -1.4598   25.7071 H   0  0  0  0  0  0  0  0  0  0  0  0
    9.4509   -1.7304   24.9876 H   0  0  0  0  0  0  0  0  0  0  0  0
    6.2909   -0.6221   22.3947 H   0  0  0  0  0  0  0  0  0  0  0  0
    5.9231   -0.7887   24.1397 H   0  0  0  0  0  0  0  0  0  0  0  0
    6.8398   -5.3891   26.5223 H   0  0  0  0  0  0  0  0  0  0  0  0
    7.3250   -5.8628   24.8791 H   0  0  0  0  0  0  0  0  0  0  0  0
    5.7835   -6.4324   25.5445 H   0  0  0  0  0  0  0  0  0  0  0  0
    8.7698   -2.2472   22.1731 H   0  0  0  0  0  0  0  0  0  0  0  0
    6.8974   -1.6551   21.0612 H   0  0  0  0  0  0  0  0  0  0  0  0
    8.0693   -0.0280   23.9392 H   0  0  0  0  0  0  0  0  0  0  0  0
  1  2  1  0  0  0  0
  1  4  2  0  0  0  0
  2  5  2  0  0  0  0
  3  6  2  0  0  0  0
  3  7  1  0  0  0  0
  4 11  1  0  0  0  0
  5 12  1  0  0  0  0
  6 13  1  0  0  0  0
  7 15  2  0  0  0  0
  8 13  2  0  0  0  0
  8 15  1  0  0  0  0
  9 11  2  0  0  0  0
  9 24  1  0  0  0  0
 10 14  1  0  0  0  0
 10 24  2  0  0  0  0
 11 12  1  0  0  0  0
 12 14  2  0  0  0  0
 13 23  1  0  0  0  0
 14 26  1  0  0  0  0
 15 30  1  0  0  0  0
 16 22  1  0  0  0  0
 16 25  1  0  0  0  0
 16 28  2  0  0  0  0
 17 23  1  6  0  0  0
 17 26  1  0  0  0  0
 17 29  2  0  0  0  0
 18 20  1  0  0  0  0
 18 25  1  0  0  0  0
 19 21  1  0  0  0  0
 19 25  1  0  0  0  0
 20 27  1  0  0  0  0
 21 27  1  0  0  0  0
 23 27  1  0  0  0  0
  1 31  1  0  0  0  0
  2 32  1  0  0  0  0
  3 33  1  0  0  0  0
  4 34  1  0  0  0  0
  5 35  1  0  0  0  0
  6 36  1  0  0  0  0
  7 37  1  0  0  0  0
  8 38  1  0  0  0  0
  9 39  1  0  0  0  0
 10 40  1  0  0  0  0
 18 41  1  0  0  0  0
 18 42  1  0  0  0  0
 19 43  1  0  0  0  0
 19 44  1  0  0  0  0
 20 45  1  0  0  0  0
 20 46  1  0  0  0  0
 21 47  1  0  0  0  0
 21 48  1  0  0  0  0
 22 49  1  0  0  0  0
 22 50  1  0  0  0  0
 22 51  1  0  0  0  0
 23 52  1  0  0  0  0
 26 53  1  0  0  0  0
 27 54  1  0  0  0  0
M  CHG  1  27   1
M  END
> <compound>
NAU-LAT-a5c7d7cb-2

> <compound_smiles>
CC(=O)N1CCN(CC1)C(c2cccc(c2)Cl)C(=O)Nc3cncc4c3cccc4

> <enantiomer_smiles>
CC(=O)N1CCN(CC1)[C@H](c2cccc(c2)Cl)C(=O)Nc3cncc4c3cccc4

> <scaffold>
chlorobenzene-linker

> <clash_score>
0.6532360200676584

> <docking_score>
-5.196829319000244

> <overlap_score>
0.8409225344657898

> <MMFF_internal_energy>
230.78253658986426

> <docked_smiles>
CC(=O)N1CC[NH+](CC1)[C@H](c2cccc(c2)Cl)C(=O)Nc3cncc4c3cccc4

$$$$
NAU-LAT-a5c7d7cb-3_1
  -OEChem-07262101023D

 51 53  0     1  0  0  0  0  0999 V2000
   11.9780    0.4600   23.9150 C   0  0  0  0  0  0  0  0  0  0  0  0
   10.6560    0.0720   23.7350 C   0  0  0  0  0  0  0  0  0  0  0  0
   12.9840   -0.1200   23.1530 C   0  0  0  0  0  0  0  0  0  0  0  0
    5.3703    1.5988   18.5865 C   0  0  0  0  0  0  0  0  0  0  0  0
   11.3360   -1.5050   22.0650 C   0  0  0  0  0  0  0  0  0  0  0  0
    5.2777    0.8183   17.4454 C   0  0  0  0  0  0  0  0  0  0  0  0
    6.4434   -0.9043   18.4210 C   0  0  0  0  0  0  0  0  0  0  0  0
   10.3220   -0.8940   22.7910 C   0  0  0  0  0  0  0  0  0  0  0  0
    6.0409    1.0704   19.6838 C   0  0  0  0  0  0  0  0  0  0  0  0
    6.5908   -0.2044   19.6077 C   0  0  0  0  0  0  0  0  0  0  0  0
   12.6400   -1.1000   22.2390 C   0  0  0  0  0  0  0  0  0  0  0  0
    5.2494   -2.6527   26.3719 C   0  0  0  0  0  0  0  0  0  0  0  0
    8.3880   -0.3240   21.3070 C   0  0  0  0  0  0  0  0  0  0  0  0
    7.4776   -1.6520   25.9784 C   0  0  0  0  0  0  0  0  0  0  0  0
    5.6373   -1.0084   24.4709 C   0  0  0  0  0  0  0  0  0  0  0  0
    8.3853   -1.9237   24.7877 C   0  0  0  0  0  0  0  0  0  0  0  0
    6.5186   -1.2688   23.2567 C   0  0  0  0  0  0  0  0  0  0  0  0
    6.1562    1.8904   20.9268 C   0  0  0  0  0  0  0  0  0  0  0  0
    5.9163   -3.8258   27.0448 C   0  0  0  0  0  0  0  0  0  0  0  0
    8.8810   -1.1900   22.4510 C   0  0  1  0  0  0  0  0  0  0  0  0
    5.7989   -0.4241   17.3340 N   0  0  0  0  0  0  0  0  0  0  0  0
    6.0702   -1.8178   25.6151 N   0  0  0  0  0  0  0  0  0  0  0  0
    7.2820   -0.7860   20.6970 N   0  0  0  0  0  0  0  0  0  0  0  0
    7.9647   -1.0392   23.6353 N   0  3  0  0  0  0  0  0  0  0  0  0
    4.0360   -2.4839   26.5178 O   0  0  0  0  0  0  0  0  0  0  0  0
    8.9170    0.7530   21.0260 O   0  0  0  0  0  0  0  0  0  0  0  0
   13.8840   -1.8490   21.2740 Cl  0  0  0  0  0  0  0  0  0  0  0  0
   12.2249    1.2198   24.6546 H   0  0  0  0  0  0  0  0  0  0  0  0
    9.8763    0.5350   24.3454 H   0  0  0  0  0  0  0  0  0  0  0  0
   14.0077    0.1988   23.2842 H   0  0  0  0  0  0  0  0  0  0  0  0
    4.9304    2.5900   18.6133 H   0  0  0  0  0  0  0  0  0  0  0  0
   11.0892   -2.3009   21.3624 H   0  0  0  0  0  0  0  0  0  0  0  0
    4.7650    1.1846   16.5621 H   0  0  0  0  0  0  0  0  0  0  0  0
    6.8502   -1.9040   18.3003 H   0  0  0  0  0  0  0  0  0  0  0  0
    7.7469   -2.3193   26.8030 H   0  0  0  0  0  0  0  0  0  0  0  0
    7.6060   -0.6237   26.3377 H   0  0  0  0  0  0  0  0  0  0  0  0
    5.7002    0.0436   24.7745 H   0  0  0  0  0  0  0  0  0  0  0  0
    4.5967   -1.2023   24.2053 H   0  0  0  0  0  0  0  0  0  0  0  0
    9.4238   -1.6743   25.0284 H   0  0  0  0  0  0  0  0  0  0  0  0
    8.3235   -2.9653   24.4529 H   0  0  0  0  0  0  0  0  0  0  0  0
    6.4247   -2.2989   22.8949 H   0  0  0  0  0  0  0  0  0  0  0  0
    6.2782   -0.5704   22.4486 H   0  0  0  0  0  0  0  0  0  0  0  0
    5.3039    1.6984   21.5888 H   0  0  0  0  0  0  0  0  0  0  0  0
    7.0803    1.6584   21.4704 H   0  0  0  0  0  0  0  0  0  0  0  0
    6.1834    2.9620   20.6935 H   0  0  0  0  0  0  0  0  0  0  0  0
    6.2511   -3.5254   28.0321 H   0  0  0  0  0  0  0  0  0  0  0  0
    6.7642   -4.1439   26.4466 H   0  0  0  0  0  0  0  0  0  0  0  0
    5.2038   -4.6404   27.1266 H   0  0  0  0  0  0  0  0  0  0  0  0
    8.7698   -2.2472   22.1731 H   0  0  0  0  0  0  0  0  0  0  0  0
    6.8974   -1.6551   21.0612 H   0  0  0  0  0  0  0  0  0  0  0  0
    8.0483   -0.0627   23.9500 H   0  0  0  0  0  0  0  0  0  0  0  0
  1  2  2  0  0  0  0
  1  3  1  0  0  0  0
  2  8  1  0  0  0  0
  3 11  2  0  0  0  0
  4  6  2  0  0  0  0
  4  9  1  0  0  0  0
  5  8  2  0  0  0  0
  5 11  1  0  0  0  0
  6 21  1  0  0  0  0
  7 10  1  0  0  0  0
  7 21  2  0  0  0  0
  8 20  1  0  0  0  0
  9 10  2  0  0  0  0
  9 18  1  0  0  0  0
 10 23  1  0  0  0  0
 11 27  1  0  0  0  0
 12 19  1  0  0  0  0
 12 22  1  0  0  0  0
 12 25  2  0  0  0  0
 13 20  1  1  0  0  0
 13 23  1  0  0  0  0
 13 26  2  0  0  0  0
 14 16  1  0  0  0  0
 14 22  1  0  0  0  0
 15 17  1  0  0  0  0
 15 22  1  0  0  0  0
 16 24  1  0  0  0  0
 17 24  1  0  0  0  0
 20 24  1  0  0  0  0
  1 28  1  0  0  0  0
  2 29  1  0  0  0  0
  3 30  1  0  0  0  0
  4 31  1  0  0  0  0
  5 32  1  0  0  0  0
  6 33  1  0  0  0  0
  7 34  1  0  0  0  0
 14 35  1  0  0  0  0
 14 36  1  0  0  0  0
 15 37  1  0  0  0  0
 15 38  1  0  0  0  0
 16 39  1  0  0  0  0
 16 40  1  0  0  0  0
 17 41  1  0  0  0  0
 17 42  1  0  0  0  0
 18 43  1  0  0  0  0
 18 44  1  0  0  0  0
 18 45  1  0  0  0  0
 19 46  1  0  0  0  0
 19 47  1  0  0  0  0
 19 48  1  0  0  0  0
 20 49  1  0  0  0  0
 23 50  1  0  0  0  0
 24 51  1  0  0  0  0
M  CHG  1  24   1
M  END
> <compound>
NAU-LAT-a5c7d7cb-3

> <compound_smiles>
Cc1ccncc1NC(=O)C(c2cccc(c2)Cl)N3CCN(CC3)C(=O)C

> <enantiomer_smiles>
Cc1ccncc1NC(=O)[C@@H](c2cccc(c2)Cl)N3CCN(CC3)C(=O)C

> <scaffold>
chlorobenzene-linker

> <clash_score>
0

> <docking_score>
-6.103636741638184

> <overlap_score>
0.8053483963012695

> <MMFF_internal_energy>
204.04902195732924

> <docked_smiles>
Cc1ccncc1NC(=O)[C@@H](c2cccc(c2)Cl)[NH+]3CCN(CC3)C(=O)C

$$$$
ALP-UNI-44c99a80-1_1
  -OEChem-07262101023D

 44 47  0     0  0  0  0  0  0999 V2000
    3.4052    2.5518   20.7394 C   0  0  0  0  0  0  0  0  0  0  0  0
    4.0598    1.8492   21.7484 C   0  0  0  0  0  0  0  0  0  0  0  0
   11.9780    0.4600   23.9150 C   0  0  0  0  0  0  0  0  0  0  0  0
    3.7984    2.3944   19.4106 C   0  0  0  0  0  0  0  0  0  0  0  0
    5.1108    0.9862   21.4332 C   0  0  0  0  0  0  0  0  0  0  0  0
   10.6560    0.0720   23.7350 C   0  0  0  0  0  0  0  0  0  0  0  0
   12.9840   -0.1200   23.1530 C   0  0  0  0  0  0  0  0  0  0  0  0
   11.3360   -1.5050   22.0650 C   0  0  0  0  0  0  0  0  0  0  0  0
    5.2892    1.3334   17.7694 C   0  0  0  0  0  0  0  0  0  0  0  0
    6.9142   -0.1561   18.4141 C   0  0  0  0  0  0  0  0  0  0  0  0
    5.1778   -2.6098   19.0530 C   0  0  0  0  0  0  0  0  0  0  0  0
    3.3396   -2.9500   20.0707 C   0  0  0  0  0  0  0  0  0  0  0  0
    4.8546    1.5285   19.0819 C   0  0  0  0  0  0  0  0  0  0  0  0
    5.5199    0.8155   20.1005 C   0  0  0  0  0  0  0  0  0  0  0  0
   10.3220   -0.8940   22.7910 C   0  0  0  0  0  0  0  0  0  0  0  0
    6.5697   -0.0422   19.7523 C   0  0  0  0  0  0  0  0  0  0  0  0
   12.6400   -1.1000   22.2390 C   0  0  0  0  0  0  0  0  0  0  0  0
    5.4616   -2.4475   20.3885 C   0  0  0  0  0  0  0  0  0  0  0  0
    8.3880   -0.3240   21.3070 C   0  0  0  0  0  0  0  0  0  0  0  0
    8.8810   -1.1900   22.4510 C   0  0  0  0  0  0  0  0  0  0  0  0
    6.7276   -2.1082   21.1209 C   0  0  0  0  0  0  0  0  0  0  0  0
    6.3007    0.5100   17.4128 N   0  0  0  0  0  0  0  0  0  0  0  0
    3.8551   -2.9222   18.8618 N   0  0  0  0  0  0  0  0  0  0  0  0
    4.2743   -2.6681   21.0279 N   0  0  0  0  0  0  0  0  0  0  0  0
    7.2820   -0.7860   20.6970 N   0  0  0  0  0  0  0  0  0  0  0  0
    8.9170    0.7530   21.0260 O   0  0  0  0  0  0  0  0  0  0  0  0
   13.8840   -1.8490   21.2740 Cl  0  0  0  0  0  0  0  0  0  0  0  0
    2.5877    3.2224   20.9875 H   0  0  0  0  0  0  0  0  0  0  0  0
    3.7518    1.9730   22.7827 H   0  0  0  0  0  0  0  0  0  0  0  0
   12.2249    1.2198   24.6546 H   0  0  0  0  0  0  0  0  0  0  0  0
    3.2764    2.9504   18.6353 H   0  0  0  0  0  0  0  0  0  0  0  0
    5.5974    0.4559   22.2486 H   0  0  0  0  0  0  0  0  0  0  0  0
    9.8763    0.5350   24.3454 H   0  0  0  0  0  0  0  0  0  0  0  0
   14.0077    0.1988   23.2842 H   0  0  0  0  0  0  0  0  0  0  0  0
   11.0892   -2.3008   21.3624 H   0  0  0  0  0  0  0  0  0  0  0  0
    4.8201    1.8513   16.9373 H   0  0  0  0  0  0  0  0  0  0  0  0
    7.7209   -0.8088   18.0926 H   0  0  0  0  0  0  0  0  0  0  0  0
    5.8569   -2.5180   18.2174 H   0  0  0  0  0  0  0  0  0  0  0  0
    2.3099   -3.1647   20.3193 H   0  0  0  0  0  0  0  0  0  0  0  0
    8.8006   -2.2403   22.1717 H   0  0  0  0  0  0  0  0  0  0  0  0
    8.2668   -1.0117   23.3332 H   0  0  0  0  0  0  0  0  0  0  0  0
    6.5499   -2.0688   22.2012 H   0  0  0  0  0  0  0  0  0  0  0  0
    7.4982   -2.8662   20.9455 H   0  0  0  0  0  0  0  0  0  0  0  0
    4.1134   -2.6316   22.0260 H   0  0  0  0  0  0  0  0  0  0  0  0
  1  2  1  0  0  0  0
  1  4  2  0  0  0  0
  2  5  2  0  0  0  0
  3  6  2  0  0  0  0
  3  7  1  0  0  0  0
  4 13  1  0  0  0  0
  5 14  1  0  0  0  0
  6 15  1  0  0  0  0
  7 17  2  0  0  0  0
  8 15  2  0  0  0  0
  8 17  1  0  0  0  0
  9 13  2  0  0  0  0
  9 22  1  0  0  0  0
 10 16  1  0  0  0  0
 10 22  2  0  0  0  0
 11 18  2  0  0  0  0
 11 23  1  0  0  0  0
 12 23  2  0  0  0  0
 12 24  1  0  0  0  0
 13 14  1  0  0  0  0
 14 16  2  0  0  0  0
 15 20  1  0  0  0  0
 16 25  1  0  0  0  0
 17 27  1  0  0  0  0
 18 21  1  0  0  0  0
 18 24  1  0  0  0  0
 19 20  1  0  0  0  0
 19 25  1  0  0  0  0
 19 26  2  0  0  0  0
 21 25  1  0  0  0  0
  1 28  1  0  0  0  0
  2 29  1  0  0  0  0
  3 30  1  0  0  0  0
  4 31  1  0  0  0  0
  5 32  1  0  0  0  0
  6 33  1  0  0  0  0
  7 34  1  0  0  0  0
  8 35  1  0  0  0  0
  9 36  1  0  0  0  0
 10 37  1  0  0  0  0
 11 38  1  0  0  0  0
 12 39  1  0  0  0  0
 20 40  1  0  0  0  0
 20 41  1  0  0  0  0
 21 42  1  0  0  0  0
 21 43  1  0  0  0  0
 24 44  1  0  0  0  0
M  END
> <compound>
ALP-UNI-44c99a80-1

> <compound_smiles>
c1ccc2c(c1)cncc2N(Cc3cnc[nH]3)C(=O)Cc4cccc(c4)Cl

> <enantiomer_smiles>
c1ccc2c(c1)cncc2N(Cc3cnc[nH]3)C(=O)Cc4cccc(c4)Cl

> <scaffold>
chlorobenzene-linker

> <clash_score>
5.092331787763344

> <docking_score>
-5.662196159362793

> <overlap_score>
1.0

> <MMFF_internal_energy>
113.62834234804262

> <docked_smiles>
c1ccc2c(c1)cncc2N(Cc3cnc[nH]3)C(=O)Cc4cccc(c4)Cl

$$$$
NAU-LAT-a5c7d7cb-11_1
  -OEChem-07262101023D

 35 37  0     0  0  0  0  0  0999 V2000
    2.9001    0.5433   20.4770 C   0  0  0  0  0  0  0  0  0  0  0  0
    2.6155    1.0946   19.2262 C   0  0  0  0  0  0  0  0  0  0  0  0
   11.9780    0.4600   23.9150 C   0  0  0  0  0  0  0  0  0  0  0  0
    4.1814    0.0652   20.7788 C   0  0  0  0  0  0  0  0  0  0  0  0
   10.6560    0.0720   23.7350 C   0  0  0  0  0  0  0  0  0  0  0  0
    3.5981    1.1875   18.2351 C   0  0  0  0  0  0  0  0  0  0  0  0
   12.9840   -0.1200   23.1530 C   0  0  0  0  0  0  0  0  0  0  0  0
   11.3360   -1.5050   22.0650 C   0  0  0  0  0  0  0  0  0  0  0  0
    5.1793    0.1518   19.7937 C   0  0  0  0  0  0  0  0  0  0  0  0
   10.3220   -0.8940   22.7910 C   0  0  0  0  0  0  0  0  0  0  0  0
    4.8688    0.7053   18.5565 C   0  0  0  0  0  0  0  0  0  0  0  0
   12.6400   -1.1000   22.2390 C   0  0  0  0  0  0  0  0  0  0  0  0
    6.5430   -0.1969   19.6887 C   0  0  0  0  0  0  0  0  0  0  0  0
    8.3880   -0.3240   21.3070 C   0  0  0  0  0  0  0  0  0  0  0  0
    6.2265    1.1003   16.4765 C   0  0  0  0  0  0  0  0  0  0  0  0
    8.8810   -1.1900   22.4510 C   0  0  0  0  0  0  0  0  0  0  0  0
    7.0644    0.1031   18.4970 N   0  0  0  0  0  0  0  0  0  0  0  0
    6.0300    0.6467   17.8341 N   0  0  0  0  0  0  0  0  0  0  0  0
    7.2820   -0.7860   20.6970 N   0  0  0  0  0  0  0  0  0  0  0  0
    8.9170    0.7530   21.0260 O   0  0  0  0  0  0  0  0  0  0  0  0
   13.8840   -1.8490   21.2740 Cl  0  0  0  0  0  0  0  0  0  0  0  0
    2.1167    0.4836   21.2281 H   0  0  0  0  0  0  0  0  0  0  0  0
    1.6124    1.4583   19.0178 H   0  0  0  0  0  0  0  0  0  0  0  0
   12.2249    1.2198   24.6546 H   0  0  0  0  0  0  0  0  0  0  0  0
    4.3893   -0.3612   21.7555 H   0  0  0  0  0  0  0  0  0  0  0  0
    9.8763    0.5350   24.3454 H   0  0  0  0  0  0  0  0  0  0  0  0
    3.3757    1.6164   17.2644 H   0  0  0  0  0  0  0  0  0  0  0  0
   14.0077    0.1988   23.2842 H   0  0  0  0  0  0  0  0  0  0  0  0
   11.0892   -2.3009   21.3624 H   0  0  0  0  0  0  0  0  0  0  0  0
    6.5395    2.1471   16.5126 H   0  0  0  0  0  0  0  0  0  0  0  0
    6.9945    0.4880   15.9956 H   0  0  0  0  0  0  0  0  0  0  0  0
    5.2891    0.9992   15.9225 H   0  0  0  0  0  0  0  0  0  0  0  0
    8.7774   -2.2383   22.1732 H   0  0  0  0  0  0  0  0  0  0  0  0
    8.2557   -1.0153   23.3257 H   0  0  0  0  0  0  0  0  0  0  0  0
    6.9394   -1.7029   21.0258 H   0  0  0  0  0  0  0  0  0  0  0  0
  1  2  1  0  0  0  0
  1  4  2  0  0  0  0
  2  6  2  0  0  0  0
  3  5  2  0  0  0  0
  3  7  1  0  0  0  0
  4  9  1  0  0  0  0
  5 10  1  0  0  0  0
  6 11  1  0  0  0  0
  7 12  2  0  0  0  0
  8 10  2  0  0  0  0
  8 12  1  0  0  0  0
  9 11  2  0  0  0  0
  9 13  1  0  0  0  0
 10 16  1  0  0  0  0
 11 18  1  0  0  0  0
 12 21  1  0  0  0  0
 13 17  2  0  0  0  0
 13 19  1  0  0  0  0
 14 16  1  0  0  0  0
 14 19  1  0  0  0  0
 14 20  2  0  0  0  0
 15 18  1  0  0  0  0
 17 18  1  0  0  0  0
  1 22  1  0  0  0  0
  2 23  1  0  0  0  0
  3 24  1  0  0  0  0
  4 25  1  0  0  0  0
  5 26  1  0  0  0  0
  6 27  1  0  0  0  0
  7 28  1  0  0  0  0
  8 29  1  0  0  0  0
 15 30  1  0  0  0  0
 15 31  1  0  0  0  0
 15 32  1  0  0  0  0
 16 33  1  0  0  0  0
 16 34  1  0  0  0  0
 19 35  1  0  0  0  0
M  END
> <compound>
NAU-LAT-a5c7d7cb-11

> <compound_smiles>
Cn1c2ccccc2c(n1)NC(=O)Cc3cccc(c3)Cl

> <enantiomer_smiles>
Cn1c2ccccc2c(n1)NC(=O)Cc3cccc(c3)Cl

> <scaffold>
chlorobenzene-linker

> <clash_score>
0.6201712637612645

> <docking_score>
-2.7978060245513916

> <overlap_score>
0.8872723579406738

> <MMFF_internal_energy>
49.115095902414645

> <docked_smiles>
Cn1c2ccccc2c(n1)NC(=O)Cc3cccc(c3)Cl

$$$$
NAU-LAT-a5c7d7cb-6_2
  -OEChem-07262101023D

 49 51  0     1  0  0  0  0  0999 V2000
   11.9780    0.4600   23.9150 C   0  0  0  0  0  0  0  0  0  0  0  0
   10.6560    0.0720   23.7350 C   0  0  0  0  0  0  0  0  0  0  0  0
   12.9840   -0.1200   23.1530 C   0  0  0  0  0  0  0  0  0  0  0  0
   11.3360   -1.5050   22.0650 C   0  0  0  0  0  0  0  0  0  0  0  0
   10.3220   -0.8940   22.7910 C   0  0  0  0  0  0  0  0  0  0  0  0
   12.6400   -1.1000   22.2390 C   0  0  0  0  0  0  0  0  0  0  0  0
    7.0888   -0.4989   18.2951 C   0  0  0  0  0  0  0  0  0  0  0  0
    5.7178    0.7696   19.8213 C   0  0  0  0  0  0  0  0  0  0  0  0
    6.5198    0.0978   17.2415 C   0  0  0  0  0  0  0  0  0  0  0  0
    6.6790   -0.1571   19.6478 C   0  0  0  0  0  0  0  0  0  0  0  0
    5.0771    1.4408   18.6512 C   0  0  0  0  0  0  0  0  0  0  0  0
    5.2018   -2.5894   26.3515 C   0  0  0  0  0  0  0  0  0  0  0  0
    8.3880   -0.3240   21.3070 C   0  0  0  0  0  0  0  0  0  0  0  0
    7.4370   -1.6002   25.9684 C   0  0  0  0  0  0  0  0  0  0  0  0
    5.6154   -0.9739   24.4312 C   0  0  0  0  0  0  0  0  0  0  0  0
    8.3572   -1.8916   24.7920 C   0  0  0  0  0  0  0  0  0  0  0  0
    6.5094   -1.2543   23.2309 C   0  0  0  0  0  0  0  0  0  0  0  0
    5.8580   -3.7542   27.0488 C   0  0  0  0  0  0  0  0  0  0  0  0
    8.8810   -1.1900   22.4510 C   0  0  2  0  0  0  0  0  0  0  0  0
    5.5408    1.0418   17.4102 N   0  0  0  0  0  0  0  0  0  0  0  0
    6.0333   -1.7676   25.5918 N   0  0  0  0  0  0  0  0  0  0  0  0
    7.2820   -0.7860   20.6970 N   0  0  0  0  0  0  0  0  0  0  0  0
    7.9519   -1.0229   23.6222 N   0  3  0  0  0  0  0  0  0  0  0  0
    4.2015    2.2850   18.8224 O   0  0  0  0  0  0  0  0  0  0  0  0
    3.9874   -2.4152   26.4813 O   0  0  0  0  0  0  0  0  0  0  0  0
    8.9170    0.7530   21.0260 O   0  0  0  0  0  0  0  0  0  0  0  0
   13.8840   -1.8490   21.2740 Cl  0  0  0  0  0  0  0  0  0  0  0  0
   12.2249    1.2198   24.6546 H   0  0  0  0  0  0  0  0  0  0  0  0
    9.8763    0.5350   24.3454 H   0  0  0  0  0  0  0  0  0  0  0  0
   14.0077    0.1988   23.2842 H   0  0  0  0  0  0  0  0  0  0  0  0
   11.0892   -2.3009   21.3624 H   0  0  0  0  0  0  0  0  0  0  0  0
    7.8630   -1.2451   18.1514 H   0  0  0  0  0  0  0  0  0  0  0  0
    5.3731    1.0633   20.8075 H   0  0  0  0  0  0  0  0  0  0  0  0
    6.7953   -0.1282   16.2195 H   0  0  0  0  0  0  0  0  0  0  0  0
    7.6953   -2.2561   26.8056 H   0  0  0  0  0  0  0  0  0  0  0  0
    7.5642   -0.5671   26.3141 H   0  0  0  0  0  0  0  0  0  0  0  0
    5.6778    0.0823   24.7202 H   0  0  0  0  0  0  0  0  0  0  0  0
    4.5773   -1.1690   24.1568 H   0  0  0  0  0  0  0  0  0  0  0  0
    9.3936   -1.6413   25.0407 H   0  0  0  0  0  0  0  0  0  0  0  0
    8.2963   -2.9378   24.4717 H   0  0  0  0  0  0  0  0  0  0  0  0
    6.4168   -2.2892   22.8830 H   0  0  0  0  0  0  0  0  0  0  0  0
    6.2800   -0.5671   22.4101 H   0  0  0  0  0  0  0  0  0  0  0  0
    6.1826   -3.4403   28.0353 H   0  0  0  0  0  0  0  0  0  0  0  0
    6.7116   -4.0832   26.4648 H   0  0  0  0  0  0  0  0  0  0  0  0
    5.1424   -4.5657   27.1344 H   0  0  0  0  0  0  0  0  0  0  0  0
    8.7701   -2.2466   22.1731 H   0  0  0  0  0  0  0  0  0  0  0  0
    5.1354    1.4698   16.5829 H   0  0  0  0  0  0  0  0  0  0  0  0
    6.8518   -1.6478   21.0215 H   0  0  0  0  0  0  0  0  0  0  0  0
    8.0346   -0.0421   23.9237 H   0  0  0  0  0  0  0  0  0  0  0  0
  1  2  2  0  0  0  0
  1  3  1  0  0  0  0
  2  5  1  0  0  0  0
  3  6  2  0  0  0  0
  4  5  2  0  0  0  0
  4  6  1  0  0  0  0
  5 19  1  0  0  0  0
  6 27  1  0  0  0  0
  7  9  2  0  0  0  0
  7 10  1  0  0  0  0
  8 10  2  0  0  0  0
  8 11  1  0  0  0  0
  9 20  1  0  0  0  0
 10 22  1  0  0  0  0
 11 20  1  0  0  0  0
 11 24  2  0  0  0  0
 12 18  1  0  0  0  0
 12 21  1  0  0  0  0
 12 25  2  0  0  0  0
 13 19  1  6  0  0  0
 13 22  1  0  0  0  0
 13 26  2  0  0  0  0
 14 16  1  0  0  0  0
 14 21  1  0  0  0  0
 15 17  1  0  0  0  0
 15 21  1  0  0  0  0
 16 23  1  0  0  0  0
 17 23  1  0  0  0  0
 19 23  1  0  0  0  0
  1 28  1  0  0  0  0
  2 29  1  0  0  0  0
  3 30  1  0  0  0  0
  4 31  1  0  0  0  0
  7 32  1  0  0  0  0
  8 33  1  0  0  0  0
  9 34  1  0  0  0  0
 14 35  1  0  0  0  0
 14 36  1  0  0  0  0
 15 37  1  0  0  0  0
 15 38  1  0  0  0  0
 16 39  1  0  0  0  0
 16 40  1  0  0  0  0
 17 41  1  0  0  0  0
 17 42  1  0  0  0  0
 18 43  1  0  0  0  0
 18 44  1  0  0  0  0
 18 45  1  0  0  0  0
 19 46  1  0  0  0  0
 20 47  1  0  0  0  0
 22 48  1  0  0  0  0
 23 49  1  0  0  0  0
M  CHG  1  23   1
M  END
> <compound>
NAU-LAT-a5c7d7cb-6

> <compound_smiles>
CC(=O)N1CCN(CC1)C(c2cccc(c2)Cl)C(=O)Nc3cc[nH]c(=O)c3

> <enantiomer_smiles>
CC(=O)N1CCN(CC1)[C@H](c2cccc(c2)Cl)C(=O)Nc3cc[nH]c(=O)c3

> <scaffold>
chlorobenzene-linker

> <clash_score>
0

> <docking_score>
-6.061853408813477

> <overlap_score>
0.8511090874671936

> <MMFF_internal_energy>
158.8073340512196

> <docked_smiles>
CC(=O)N1CC[NH+](CC1)[C@H](c2cccc(c2)Cl)C(=O)Nc3cc[nH]c(=O)c3

$$$$
EDJ-MED-97c1bf5c-2_1
  -OEChem-07262101023D

 33 35  0     0  0  0  0  0  0999 V2000
   11.9780    0.4600   23.9150 C   0  0  0  0  0  0  0  0  0  0  0  0
   10.6560    0.0720   23.7350 C   0  0  0  0  0  0  0  0  0  0  0  0
   12.9840   -0.1200   23.1530 C   0  0  0  0  0  0  0  0  0  0  0  0
   11.3360   -1.5050   22.0650 C   0  0  0  0  0  0  0  0  0  0  0  0
   10.3220   -0.8940   22.7910 C   0  0  0  0  0  0  0  0  0  0  0  0
   12.6400   -1.1000   22.2390 C   0  0  0  0  0  0  0  0  0  0  0  0
    5.6771    0.8016   19.9179 C   0  0  0  0  0  0  0  0  0  0  0  0
    5.4598    1.1164   17.5218 C   0  0  0  0  0  0  0  0  0  0  0  0
    6.6803   -0.1558   19.6480 C   0  0  0  0  0  0  0  0  0  0  0  0
    6.9931   -0.4012   18.3505 C   0  0  0  0  0  0  0  0  0  0  0  0
    8.3880   -0.3240   21.3070 C   0  0  0  0  0  0  0  0  0  0  0  0
    7.4470   -2.6284   17.8913 C   0  0  0  0  0  0  0  0  0  0  0  0
    8.8810   -1.1900   22.4510 C   0  0  0  0  0  0  0  0  0  0  0  0
    5.1039    1.3084   20.9878 N   0  0  0  0  0  0  0  0  0  0  0  0
    4.1780    2.2225   20.5182 N   0  0  0  0  0  0  0  0  0  0  0  0
    4.1835    2.2752   19.1894 N   0  0  0  0  0  0  0  0  0  0  0  0
    6.3818    0.2364   17.2734 N   0  0  0  0  0  0  0  0  0  0  0  0
    5.1159    1.3915   18.8245 N   0  0  0  0  0  0  0  0  0  0  0  0
    7.2820   -0.7860   20.6970 N   0  0  0  0  0  0  0  0  0  0  0  0
    8.9170    0.7530   21.0260 O   0  0  0  0  0  0  0  0  0  0  0  0
    7.9706   -1.3339   18.0493 O   0  0  0  0  0  0  0  0  0  0  0  0
   13.8840   -1.8490   21.2740 Cl  0  0  0  0  0  0  0  0  0  0  0  0
   12.2249    1.2198   24.6546 H   0  0  0  0  0  0  0  0  0  0  0  0
    9.8763    0.5350   24.3454 H   0  0  0  0  0  0  0  0  0  0  0  0
   14.0077    0.1988   23.2842 H   0  0  0  0  0  0  0  0  0  0  0  0
   11.0892   -2.3009   21.3624 H   0  0  0  0  0  0  0  0  0  0  0  0
    4.9464    1.6486   16.7053 H   0  0  0  0  0  0  0  0  0  0  0  0
    8.2566   -3.3234   17.6556 H   0  0  0  0  0  0  0  0  0  0  0  0
    6.7074   -2.6275   17.0866 H   0  0  0  0  0  0  0  0  0  0  0  0
    6.9673   -2.9342   18.8240 H   0  0  0  0  0  0  0  0  0  0  0  0
    8.2535   -1.0146   23.3240 H   0  0  0  0  0  0  0  0  0  0  0  0
    8.7756   -2.2377   22.1724 H   0  0  0  0  0  0  0  0  0  0  0  0
    6.8613   -1.6482   21.0247 H   0  0  0  0  0  0  0  0  0  0  0  0
  1  2  2  0  0  0  0
  1  3  1  0  0  0  0
  2  5  1  0  0  0  0
  3  6  2  0  0  0  0
  4  5  2  0  0  0  0
  4  6  1  0  0  0  0
  5 13  1  0  0  0  0
  6 22  1  0  0  0  0
  7  9  1  0  0  0  0
  7 14  2  0  0  0  0
  7 18  1  0  0  0  0
  8 17  2  0  0  0  0
  8 18  1  0  0  0  0
  9 10  2  0  0  0  0
  9 19  1  0  0  0  0
 10 17  1  0  0  0  0
 10 21  1  0  0  0  0
 11 13  1  0  0  0  0
 11 19  1  0  0  0  0
 11 20  2  0  0  0  0
 12 21  1  0  0  0  0
 14 15  1  0  0  0  0
 15 16  2  0  0  0  0
 16 18  1  0  0  0  0
  1 23  1  0  0  0  0
  2 24  1  0  0  0  0
  3 25  1  0  0  0  0
  4 26  1  0  0  0  0
  8 27  1  0  0  0  0
 12 28  1  0  0  0  0
 12 29  1  0  0  0  0
 12 30  1  0  0  0  0
 13 31  1  0  0  0  0
 13 32  1  0  0  0  0
 19 33  1  0  0  0  0
M  END
> <compound>
EDJ-MED-97c1bf5c-2

> <compound_smiles>
COc1c(c2nnnn2cn1)NC(=O)Cc3cccc(c3)Cl

> <enantiomer_smiles>
COc1c(c2nnnn2cn1)NC(=O)Cc3cccc(c3)Cl

> <scaffold>
chlorobenzene-linker

> <clash_score>
0.6557360288169355

> <docking_score>
-10.978925704956055

> <overlap_score>
0.9651404619216919

> <MMFF_internal_energy>
88.04104378258734

> <docked_smiles>
COc1c(c2nnnn2cn1)NC(=O)Cc3cccc(c3)Cl

$$$$
NAU-LAT-a5c7d7cb-6_1
  -OEChem-07262101023D

 49 51  0     1  0  0  0  0  0999 V2000
   11.9780    0.4600   23.9150 C   0  0  0  0  0  0  0  0  0  0  0  0
   10.6560    0.0720   23.7350 C   0  0  0  0  0  0  0  0  0  0  0  0
   12.9840   -0.1200   23.1530 C   0  0  0  0  0  0  0  0  0  0  0  0
   11.3360   -1.5050   22.0650 C   0  0  0  0  0  0  0  0  0  0  0  0
   10.3220   -0.8940   22.7910 C   0  0  0  0  0  0  0  0  0  0  0  0
   12.6400   -1.1000   22.2390 C   0  0  0  0  0  0  0  0  0  0  0  0
    7.0888   -0.4989   18.2951 C   0  0  0  0  0  0  0  0  0  0  0  0
    5.7178    0.7696   19.8213 C   0  0  0  0  0  0  0  0  0  0  0  0
    6.5198    0.0978   17.2415 C   0  0  0  0  0  0  0  0  0  0  0  0
    6.6790   -0.1571   19.6478 C   0  0  0  0  0  0  0  0  0  0  0  0
    5.0771    1.4408   18.6512 C   0  0  0  0  0  0  0  0  0  0  0  0
   10.0717   -6.4103   21.0204 C   0  0  0  0  0  0  0  0  0  0  0  0
    8.3880   -0.3240   21.3070 C   0  0  0  0  0  0  0  0  0  0  0  0
    9.0147   -4.9993   22.7561 C   0  0  0  0  0  0  0  0  0  0  0  0
    8.6353   -4.4072   20.3942 C   0  0  0  0  0  0  0  0  0  0  0  0
    9.3745   -3.5569   23.0812 C   0  0  0  0  0  0  0  0  0  0  0  0
    8.9878   -2.9546   20.6843 C   0  0  0  0  0  0  0  0  0  0  0  0
   10.3084   -6.6536   19.5512 C   0  0  0  0  0  0  0  0  0  0  0  0
    8.8810   -1.1900   22.4510 C   0  0  1  0  0  0  0  0  0  0  0  0
    5.5408    1.0418   17.4102 N   0  0  0  0  0  0  0  0  0  0  0  0
    9.2885   -5.3057   21.3520 N   0  0  0  0  0  0  0  0  0  0  0  0
    7.2820   -0.7860   20.6970 N   0  0  0  0  0  0  0  0  0  0  0  0
    8.6470   -2.6397   22.1238 N   0  3  0  0  0  0  0  0  0  0  0  0
    4.2015    2.2850   18.8224 O   0  0  0  0  0  0  0  0  0  0  0  0
   10.5708   -7.1785   21.8468 O   0  0  0  0  0  0  0  0  0  0  0  0
    8.9170    0.7530   21.0260 O   0  0  0  0  0  0  0  0  0  0  0  0
   13.8840   -1.8490   21.2740 Cl  0  0  0  0  0  0  0  0  0  0  0  0
   12.2249    1.2198   24.6546 H   0  0  0  0  0  0  0  0  0  0  0  0
    9.8763    0.5350   24.3454 H   0  0  0  0  0  0  0  0  0  0  0  0
   14.0077    0.1988   23.2842 H   0  0  0  0  0  0  0  0  0  0  0  0
   11.0892   -2.3009   21.3624 H   0  0  0  0  0  0  0  0  0  0  0  0
    7.8630   -1.2451   18.1514 H   0  0  0  0  0  0  0  0  0  0  0  0
    5.3731    1.0633   20.8075 H   0  0  0  0  0  0  0  0  0  0  0  0
    6.7953   -0.1282   16.2195 H   0  0  0  0  0  0  0  0  0  0  0  0
    9.5709   -5.6724   23.4161 H   0  0  0  0  0  0  0  0  0  0  0  0
    7.9474   -5.1820   22.9309 H   0  0  0  0  0  0  0  0  0  0  0  0
    7.5539   -4.5669   20.4839 H   0  0  0  0  0  0  0  0  0  0  0  0
    8.9082   -4.6422   19.3640 H   0  0  0  0  0  0  0  0  0  0  0  0
    9.0493   -3.2962   24.0936 H   0  0  0  0  0  0  0  0  0  0  0  0
   10.4489   -3.3680   22.9780 H   0  0  0  0  0  0  0  0  0  0  0  0
   10.0554   -2.7546   20.5396 H   0  0  0  0  0  0  0  0  0  0  0  0
    8.3974   -2.2811   20.0547 H   0  0  0  0  0  0  0  0  0  0  0  0
   11.2054   -6.1260   19.2441 H   0  0  0  0  0  0  0  0  0  0  0  0
    9.4540   -6.2910   18.9886 H   0  0  0  0  0  0  0  0  0  0  0  0
   10.4285   -7.7189   19.3825 H   0  0  0  0  0  0  0  0  0  0  0  0
    8.2448   -1.0174   23.3294 H   0  0  0  0  0  0  0  0  0  0  0  0
    5.1354    1.4698   16.5829 H   0  0  0  0  0  0  0  0  0  0  0  0
    6.8518   -1.6478   21.0215 H   0  0  0  0  0  0  0  0  0  0  0  0
    7.6383   -2.8063   22.2439 H   0  0  0  0  0  0  0  0  0  0  0  0
  1  2  2  0  0  0  0
  1  3  1  0  0  0  0
  2  5  1  0  0  0  0
  3  6  2  0  0  0  0
  4  5  2  0  0  0  0
  4  6  1  0  0  0  0
  5 19  1  0  0  0  0
  6 27  1  0  0  0  0
  7  9  2  0  0  0  0
  7 10  1  0  0  0  0
  8 10  2  0  0  0  0
  8 11  1  0  0  0  0
  9 20  1  0  0  0  0
 10 22  1  0  0  0  0
 11 20  1  0  0  0  0
 11 24  2  0  0  0  0
 12 18  1  0  0  0  0
 12 21  1  0  0  0  0
 12 25  2  0  0  0  0
 13 19  1  1  0  0  0
 13 22  1  0  0  0  0
 13 26  2  0  0  0  0
 14 16  1  0  0  0  0
 14 21  1  0  0  0  0
 15 17  1  0  0  0  0
 15 21  1  0  0  0  0
 16 23  1  0  0  0  0
 17 23  1  0  0  0  0
 19 23  1  0  0  0  0
  1 28  1  0  0  0  0
  2 29  1  0  0  0  0
  3 30  1  0  0  0  0
  4 31  1  0  0  0  0
  7 32  1  0  0  0  0
  8 33  1  0  0  0  0
  9 34  1  0  0  0  0
 14 35  1  0  0  0  0
 14 36  1  0  0  0  0
 15 37  1  0  0  0  0
 15 38  1  0  0  0  0
 16 39  1  0  0  0  0
 16 40  1  0  0  0  0
 17 41  1  0  0  0  0
 17 42  1  0  0  0  0
 18 43  1  0  0  0  0
 18 44  1  0  0  0  0
 18 45  1  0  0  0  0
 19 46  1  0  0  0  0
 20 47  1  0  0  0  0
 22 48  1  0  0  0  0
 23 49  1  0  0  0  0
M  CHG  1  23   1
M  END
> <compound>
NAU-LAT-a5c7d7cb-6

> <compound_smiles>
CC(=O)N1CCN(CC1)C(c2cccc(c2)Cl)C(=O)Nc3cc[nH]c(=O)c3

> <enantiomer_smiles>
CC(=O)N1CCN(CC1)[C@@H](c2cccc(c2)Cl)C(=O)Nc3cc[nH]c(=O)c3

> <scaffold>
chlorobenzene-linker

> <clash_score>
3.6286700869515234

> <docking_score>
-0.2198963165283203

> <overlap_score>
0.8519864082336426

> <MMFF_internal_energy>
187.98954794922417

> <docked_smiles>
CC(=O)N1CC[NH+](CC1)[C@@H](c2cccc(c2)Cl)C(=O)Nc3cc[nH]c(=O)c3

$$$$
MIC-UNK-d935700b-1_1
  -OEChem-07262101023D

 31 32  0     0  0  0  0  0  0999 V2000
   11.9780    0.4600   23.9150 C   0  0  0  0  0  0  0  0  0  0  0  0
   10.6560    0.0720   23.7350 C   0  0  0  0  0  0  0  0  0  0  0  0
   12.9840   -0.1200   23.1530 C   0  0  0  0  0  0  0  0  0  0  0  0
   11.3360   -1.5050   22.0650 C   0  0  0  0  0  0  0  0  0  0  0  0
   10.3220   -0.8940   22.7910 C   0  0  0  0  0  0  0  0  0  0  0  0
   12.6400   -1.1000   22.2390 C   0  0  0  0  0  0  0  0  0  0  0  0
    5.2834    0.2727   19.8320 C   0  0  0  0  0  0  0  0  0  0  0  0
    7.2490    0.1040   18.4652 C   0  0  0  0  0  0  0  0  0  0  0  0
    6.6802   -0.1573   19.6491 C   0  0  0  0  0  0  0  0  0  0  0  0
    6.4293    0.8064   17.4283 C   0  0  0  0  0  0  0  0  0  0  0  0
    8.3880   -0.3240   21.3070 C   0  0  0  0  0  0  0  0  0  0  0  0
    8.6531   -0.2433   18.0642 C   0  0  0  0  0  0  0  0  0  0  0  0
    8.8810   -1.1900   22.4510 C   0  0  0  0  0  0  0  0  0  0  0  0
    4.5509    0.8787   18.9601 N   0  0  0  0  0  0  0  0  0  0  0  0
    5.1375    1.1359   17.7696 N   0  0  0  0  0  0  0  0  0  0  0  0
    7.2820   -0.7860   20.6970 N   0  0  0  0  0  0  0  0  0  0  0  0
    6.9056    1.0696   16.3244 O   0  0  0  0  0  0  0  0  0  0  0  0
    8.9170    0.7530   21.0260 O   0  0  0  0  0  0  0  0  0  0  0  0
   13.8840   -1.8490   21.2740 Cl  0  0  0  0  0  0  0  0  0  0  0  0
   12.2249    1.2198   24.6546 H   0  0  0  0  0  0  0  0  0  0  0  0
    9.8763    0.5350   24.3454 H   0  0  0  0  0  0  0  0  0  0  0  0
   14.0077    0.1988   23.2842 H   0  0  0  0  0  0  0  0  0  0  0  0
   11.0892   -2.3009   21.3624 H   0  0  0  0  0  0  0  0  0  0  0  0
    4.8358    0.0473   20.8145 H   0  0  0  0  0  0  0  0  0  0  0  0
    8.6662   -1.2317   17.6114 H   0  0  0  0  0  0  0  0  0  0  0  0
    9.2935   -0.2354   18.9432 H   0  0  0  0  0  0  0  0  0  0  0  0
    9.0176    0.4911   17.3495 H   0  0  0  0  0  0  0  0  0  0  0  0
    8.2535   -1.0146   23.3240 H   0  0  0  0  0  0  0  0  0  0  0  0
    8.7756   -2.2377   22.1724 H   0  0  0  0  0  0  0  0  0  0  0  0
    4.5397    1.6130   17.1021 H   0  0  0  0  0  0  0  0  0  0  0  0
    6.8625   -1.6490   21.0264 H   0  0  0  0  0  0  0  0  0  0  0  0
  1  2  2  0  0  0  0
  1  3  1  0  0  0  0
  2  5  1  0  0  0  0
  3  6  2  0  0  0  0
  4  5  2  0  0  0  0
  4  6  1  0  0  0  0
  5 13  1  0  0  0  0
  6 19  1  0  0  0  0
  7  9  1  0  0  0  0
  7 14  2  0  0  0  0
  8  9  2  0  0  0  0
  8 10  1  0  0  0  0
  8 12  1  0  0  0  0
  9 16  1  0  0  0  0
 10 15  1  0  0  0  0
 10 17  2  0  0  0  0
 11 13  1  0  0  0  0
 11 16  1  0  0  0  0
 11 18  2  0  0  0  0
 14 15  1  0  0  0  0
  1 20  1  0  0  0  0
  2 21  1  0  0  0  0
  3 22  1  0  0  0  0
  4 23  1  0  0  0  0
  7 24  1  0  0  0  0
 12 25  1  0  0  0  0
 12 26  1  0  0  0  0
 12 27  1  0  0  0  0
 13 28  1  0  0  0  0
 13 29  1  0  0  0  0
 15 30  1  0  0  0  0
 16 31  1  0  0  0  0
M  END
> <compound>
MIC-UNK-d935700b-1

> <compound_smiles>
Cc1c(cn[nH]c1=O)NC(=O)Cc2cccc(c2)Cl

> <enantiomer_smiles>
Cc1c(cn[nH]c1=O)NC(=O)Cc2cccc(c2)Cl

> <scaffold>
chlorobenzene-linker

> <clash_score>
0

> <docking_score>
-6.340980529785156

> <overlap_score>
0.8346877694129944

> <MMFF_internal_energy>
84.74446306373923

> <docked_smiles>
Cc1c(cn[nH]c1=O)NC(=O)Cc2cccc(c2)Cl

$$$$
MIC-UNK-50cce87d-2_1
  -OEChem-07262101023D

 34 36  0     0  0  0  0  0  0999 V2000
    3.4243    2.5423   19.8391 C   0  0  0  0  0  0  0  0  0  0  0  0
   11.9780    0.4600   23.9150 C   0  0  0  0  0  0  0  0  0  0  0  0
    3.8852    2.0950   18.6011 C   0  0  0  0  0  0  0  0  0  0  0  0
   10.6560    0.0720   23.7350 C   0  0  0  0  0  0  0  0  0  0  0  0
    4.0114    2.0745   21.0124 C   0  0  0  0  0  0  0  0  0  0  0  0
   12.9840   -0.1200   23.1530 C   0  0  0  0  0  0  0  0  0  0  0  0
   11.3360   -1.5050   22.0650 C   0  0  0  0  0  0  0  0  0  0  0  0
    5.4424    0.6912   17.3180 C   0  0  0  0  0  0  0  0  0  0  0  0
    7.0036   -0.6299   18.3630 C   0  0  0  0  0  0  0  0  0  0  0  0
    4.9418    1.1721   18.5295 C   0  0  0  0  0  0  0  0  0  0  0  0
    5.5388    0.6961   19.7151 C   0  0  0  0  0  0  0  0  0  0  0  0
   10.3220   -0.8940   22.7910 C   0  0  0  0  0  0  0  0  0  0  0  0
    6.5902   -0.2231   19.6224 C   0  0  0  0  0  0  0  0  0  0  0  0
   12.6400   -1.1000   22.2390 C   0  0  0  0  0  0  0  0  0  0  0  0
    5.0621    1.1573   20.9531 C   0  0  0  0  0  0  0  0  0  0  0  0
    8.3880   -0.3240   21.3070 C   0  0  0  0  0  0  0  0  0  0  0  0
    8.8810   -1.1900   22.4510 C   0  0  0  0  0  0  0  0  0  0  0  0
    6.4566   -0.1962   17.2075 N   0  0  0  0  0  0  0  0  0  0  0  0
    7.2820   -0.7860   20.6970 N   0  0  0  0  0  0  0  0  0  0  0  0
    8.9170    0.7530   21.0260 O   0  0  0  0  0  0  0  0  0  0  0  0
   13.8840   -1.8490   21.2740 Cl  0  0  0  0  0  0  0  0  0  0  0  0
    5.6622    0.6915   22.5168 Cl  0  0  0  0  0  0  0  0  0  0  0  0
    2.6062    3.2554   19.8885 H   0  0  0  0  0  0  0  0  0  0  0  0
   12.2249    1.2198   24.6546 H   0  0  0  0  0  0  0  0  0  0  0  0
    3.4148    2.4696   17.6947 H   0  0  0  0  0  0  0  0  0  0  0  0
    9.8763    0.5350   24.3454 H   0  0  0  0  0  0  0  0  0  0  0  0
    3.6318    2.4406   21.9638 H   0  0  0  0  0  0  0  0  0  0  0  0
   14.0077    0.1988   23.2842 H   0  0  0  0  0  0  0  0  0  0  0  0
   11.0892   -2.3009   21.3624 H   0  0  0  0  0  0  0  0  0  0  0  0
    5.0273    1.0166   16.3681 H   0  0  0  0  0  0  0  0  0  0  0  0
    7.8149   -1.3409   18.2339 H   0  0  0  0  0  0  0  0  0  0  0  0
    8.7774   -2.2383   22.1732 H   0  0  0  0  0  0  0  0  0  0  0  0
    8.2557   -1.0153   23.3257 H   0  0  0  0  0  0  0  0  0  0  0  0
    6.8982   -1.6623   21.0678 H   0  0  0  0  0  0  0  0  0  0  0  0
  1  3  2  0  0  0  0
  1  5  1  0  0  0  0
  2  4  1  0  0  0  0
  2  6  2  0  0  0  0
  3 10  1  0  0  0  0
  4 12  2  0  0  0  0
  5 15  2  0  0  0  0
  6 14  1  0  0  0  0
  7 12  1  0  0  0  0
  7 14  2  0  0  0  0
  8 10  2  0  0  0  0
  8 18  1  0  0  0  0
  9 13  1  0  0  0  0
  9 18  2  0  0  0  0
 10 11  1  0  0  0  0
 11 13  2  0  0  0  0
 11 15  1  0  0  0  0
 12 17  1  0  0  0  0
 13 19  1  0  0  0  0
 14 21  1  0  0  0  0
 15 22  1  0  0  0  0
 16 17  1  0  0  0  0
 16 19  1  0  0  0  0
 16 20  2  0  0  0  0
  1 23  1  0  0  0  0
  2 24  1  0  0  0  0
  3 25  1  0  0  0  0
  4 26  1  0  0  0  0
  5 27  1  0  0  0  0
  6 28  1  0  0  0  0
  7 29  1  0  0  0  0
  8 30  1  0  0  0  0
  9 31  1  0  0  0  0
 17 32  1  0  0  0  0
 17 33  1  0  0  0  0
 19 34  1  0  0  0  0
M  END
> <compound>
MIC-UNK-50cce87d-2

> <compound_smiles>
c1cc(cc(c1)Cl)CC(=O)Nc2cncc3c2c(ccc3)Cl

> <enantiomer_smiles>
c1cc(cc(c1)Cl)CC(=O)Nc2cncc3c2c(ccc3)Cl

> <scaffold>
chlorobenzene-linker

> <clash_score>
0

> <docking_score>
-11.350120544433594

> <overlap_score>
1.0

> <MMFF_internal_energy>
105.15170249506734

> <docked_smiles>
c1cc(cc(c1)Cl)CC(=O)Nc2cncc3c2c(ccc3)Cl

$$$$
MIC-UNK-50cce87d-4_1
  -OEChem-07262101023D

 38 40  0     0  0  0  0  0  0999 V2000
    3.4350    2.5423   19.9689 C   0  0  0  0  0  0  0  0  0  0  0  0
   11.9780    0.4600   23.9150 C   0  0  0  0  0  0  0  0  0  0  0  0
    3.8664    2.1205   18.7115 C   0  0  0  0  0  0  0  0  0  0  0  0
   10.6560    0.0720   23.7350 C   0  0  0  0  0  0  0  0  0  0  0  0
    4.0481    2.0494   21.1183 C   0  0  0  0  0  0  0  0  0  0  0  0
   12.9840   -0.1200   23.1530 C   0  0  0  0  0  0  0  0  0  0  0  0
   11.3360   -1.5050   22.0650 C   0  0  0  0  0  0  0  0  0  0  0  0
    5.3912    0.7419   17.3637 C   0  0  0  0  0  0  0  0  0  0  0  0
    6.9738   -0.6027   18.3446 C   0  0  0  0  0  0  0  0  0  0  0  0
    4.9194    1.1979   18.5963 C   0  0  0  0  0  0  0  0  0  0  0  0
    5.5428    0.6965   19.7576 C   0  0  0  0  0  0  0  0  0  0  0  0
   10.3220   -0.8940   22.7910 C   0  0  0  0  0  0  0  0  0  0  0  0
    6.5902   -0.2219   19.6214 C   0  0  0  0  0  0  0  0  0  0  0  0
    5.0956    1.1323   21.0156 C   0  0  0  0  0  0  0  0  0  0  0  0
   12.6400   -1.1000   22.2390 C   0  0  0  0  0  0  0  0  0  0  0  0
    8.3880   -0.3240   21.3070 C   0  0  0  0  0  0  0  0  0  0  0  0
    5.0847    1.2267   23.3919 C   0  0  0  0  0  0  0  0  0  0  0  0
    8.8810   -1.1900   22.4510 C   0  0  0  0  0  0  0  0  0  0  0  0
    6.4010   -0.1442   17.2113 N   0  0  0  0  0  0  0  0  0  0  0  0
    7.2820   -0.7860   20.6970 N   0  0  0  0  0  0  0  0  0  0  0  0
    8.9170    0.7530   21.0260 O   0  0  0  0  0  0  0  0  0  0  0  0
    5.6398    0.6987   22.1907 O   0  0  0  0  0  0  0  0  0  0  0  0
   13.8840   -1.8490   21.2740 Cl  0  0  0  0  0  0  0  0  0  0  0  0
    2.6196    3.2550   20.0511 H   0  0  0  0  0  0  0  0  0  0  0  0
   12.2249    1.2198   24.6546 H   0  0  0  0  0  0  0  0  0  0  0  0
    3.3767    2.5152   17.8243 H   0  0  0  0  0  0  0  0  0  0  0  0
    9.8763    0.5350   24.3454 H   0  0  0  0  0  0  0  0  0  0  0  0
    3.7045    2.3852   22.0931 H   0  0  0  0  0  0  0  0  0  0  0  0
   14.0077    0.1988   23.2842 H   0  0  0  0  0  0  0  0  0  0  0  0
   11.0892   -2.3009   21.3624 H   0  0  0  0  0  0  0  0  0  0  0  0
    4.9547    1.0878   16.4306 H   0  0  0  0  0  0  0  0  0  0  0  0
    7.7814   -1.3113   18.1841 H   0  0  0  0  0  0  0  0  0  0  0  0
    5.6063    0.8017   24.2529 H   0  0  0  0  0  0  0  0  0  0  0  0
    4.0204    0.9830   23.4404 H   0  0  0  0  0  0  0  0  0  0  0  0
    5.2082    2.3123   23.3934 H   0  0  0  0  0  0  0  0  0  0  0  0
    8.7775   -2.2383   22.1732 H   0  0  0  0  0  0  0  0  0  0  0  0
    8.2557   -1.0153   23.3257 H   0  0  0  0  0  0  0  0  0  0  0  0
    6.8981   -1.6619   21.0674 H   0  0  0  0  0  0  0  0  0  0  0  0
  1  3  1  0  0  0  0
  1  5  2  0  0  0  0
  2  4  2  0  0  0  0
  2  6  1  0  0  0  0
  3 10  2  0  0  0  0
  4 12  1  0  0  0  0
  5 14  1  0  0  0  0
  6 15  2  0  0  0  0
  7 12  2  0  0  0  0
  7 15  1  0  0  0  0
  8 10  1  0  0  0  0
  8 19  2  0  0  0  0
  9 13  2  0  0  0  0
  9 19  1  0  0  0  0
 10 11  1  0  0  0  0
 11 13  1  0  0  0  0
 11 14  2  0  0  0  0
 12 18  1  0  0  0  0
 13 20  1  0  0  0  0
 14 22  1  0  0  0  0
 15 23  1  0  0  0  0
 16 18  1  0  0  0  0
 16 20  1  0  0  0  0
 16 21  2  0  0  0  0
 17 22  1  0  0  0  0
  1 24  1  0  0  0  0
  2 25  1  0  0  0  0
  3 26  1  0  0  0  0
  4 27  1  0  0  0  0
  5 28  1  0  0  0  0
  6 29  1  0  0  0  0
  7 30  1  0  0  0  0
  8 31  1  0  0  0  0
  9 32  1  0  0  0  0
 17 33  1  0  0  0  0
 17 34  1  0  0  0  0
 17 35  1  0  0  0  0
 18 36  1  0  0  0  0
 18 37  1  0  0  0  0
 20 38  1  0  0  0  0
M  END
> <compound>
MIC-UNK-50cce87d-4

> <compound_smiles>
COc1cccc2c1c(cnc2)NC(=O)Cc3cccc(c3)Cl

> <enantiomer_smiles>
COc1cccc2c1c(cnc2)NC(=O)Cc3cccc(c3)Cl

> <scaffold>
chlorobenzene-linker

> <clash_score>
0

> <docking_score>
-11.368383407592773

> <overlap_score>
1.0

> <MMFF_internal_energy>
118.44438417795753

> <docked_smiles>
COc1cccc2c1c(cnc2)NC(=O)Cc3cccc(c3)Cl

$$$$
MIC-UNK-50cce87d-3_1
  -OEChem-07262101023D

 37 39  0     0  0  0  0  0  0999 V2000
    2.5654    1.0080   19.6910 C   0  0  0  0  0  0  0  0  0  0  0  0
   11.9780    0.4600   23.9150 C   0  0  0  0  0  0  0  0  0  0  0  0
    3.3245    1.1473   18.5293 C   0  0  0  0  0  0  0  0  0  0  0  0
    3.1376    0.4597   20.8365 C   0  0  0  0  0  0  0  0  0  0  0  0
   10.6560    0.0720   23.7350 C   0  0  0  0  0  0  0  0  0  0  0  0
   12.9840   -0.1200   23.1530 C   0  0  0  0  0  0  0  0  0  0  0  0
   11.3360   -1.5050   22.0650 C   0  0  0  0  0  0  0  0  0  0  0  0
    5.4730    0.8526   17.3722 C   0  0  0  0  0  0  0  0  0  0  0  0
    7.2925   -0.0581   18.4375 C   0  0  0  0  0  0  0  0  0  0  0  0
    4.6676    0.7364   18.5069 C   0  0  0  0  0  0  0  0  0  0  0  0
    5.2506    0.1809   19.6646 C   0  0  0  0  0  0  0  0  0  0  0  0
   10.3220   -0.8940   22.7910 C   0  0  0  0  0  0  0  0  0  0  0  0
    4.4715    0.0482   20.8256 C   0  0  0  0  0  0  0  0  0  0  0  0
    6.5902   -0.2223   19.6217 C   0  0  0  0  0  0  0  0  0  0  0  0
   12.6400   -1.1000   22.2390 C   0  0  0  0  0  0  0  0  0  0  0  0
    8.3880   -0.3240   21.3070 C   0  0  0  0  0  0  0  0  0  0  0  0
    4.9737   -0.5250   22.1151 C   0  0  0  0  0  0  0  0  0  0  0  0
    8.8810   -1.1900   22.4510 C   0  0  0  0  0  0  0  0  0  0  0  0
    6.7683    0.4694   17.3108 N   0  0  0  0  0  0  0  0  0  0  0  0
    7.2820   -0.7860   20.6970 N   0  0  0  0  0  0  0  0  0  0  0  0
    8.9170    0.7530   21.0260 O   0  0  0  0  0  0  0  0  0  0  0  0
   13.8840   -1.8490   21.2740 Cl  0  0  0  0  0  0  0  0  0  0  0  0
    1.5274    1.3275   19.7020 H   0  0  0  0  0  0  0  0  0  0  0  0
   12.2249    1.2198   24.6546 H   0  0  0  0  0  0  0  0  0  0  0  0
    2.8624    1.5778   17.6440 H   0  0  0  0  0  0  0  0  0  0  0  0
    2.5322    0.3570   21.7338 H   0  0  0  0  0  0  0  0  0  0  0  0
    9.8763    0.5350   24.3454 H   0  0  0  0  0  0  0  0  0  0  0  0
   14.0077    0.1988   23.2842 H   0  0  0  0  0  0  0  0  0  0  0  0
   11.0892   -2.3009   21.3624 H   0  0  0  0  0  0  0  0  0  0  0  0
    5.0860    1.2716   16.4473 H   0  0  0  0  0  0  0  0  0  0  0  0
    8.3340   -0.3550   18.3510 H   0  0  0  0  0  0  0  0  0  0  0  0
    4.8077   -1.6068   22.1351 H   0  0  0  0  0  0  0  0  0  0  0  0
    6.0442   -0.3296   22.2403 H   0  0  0  0  0  0  0  0  0  0  0  0
    4.4607   -0.0729   22.9711 H   0  0  0  0  0  0  0  0  0  0  0  0
    8.7774   -2.2383   22.1732 H   0  0  0  0  0  0  0  0  0  0  0  0
    8.2557   -1.0153   23.3257 H   0  0  0  0  0  0  0  0  0  0  0  0
    6.8982   -1.6620   21.0675 H   0  0  0  0  0  0  0  0  0  0  0  0
  1  3  1  0  0  0  0
  1  4  2  0  0  0  0
  2  5  2  0  0  0  0
  2  6  1  0  0  0  0
  3 10  2  0  0  0  0
  4 13  1  0  0  0  0
  5 12  1  0  0  0  0
  6 15  2  0  0  0  0
  7 12  2  0  0  0  0
  7 15  1  0  0  0  0
  8 10  1  0  0  0  0
  8 19  2  0  0  0  0
  9 14  2  0  0  0  0
  9 19  1  0  0  0  0
 10 11  1  0  0  0  0
 11 13  2  0  0  0  0
 11 14  1  0  0  0  0
 12 18  1  0  0  0  0
 13 17  1  0  0  0  0
 14 20  1  0  0  0  0
 15 22  1  0  0  0  0
 16 18  1  0  0  0  0
 16 20  1  0  0  0  0
 16 21  2  0  0  0  0
  1 23  1  0  0  0  0
  2 24  1  0  0  0  0
  3 25  1  0  0  0  0
  4 26  1  0  0  0  0
  5 27  1  0  0  0  0
  6 28  1  0  0  0  0
  7 29  1  0  0  0  0
  8 30  1  0  0  0  0
  9 31  1  0  0  0  0
 17 32  1  0  0  0  0
 17 33  1  0  0  0  0
 17 34  1  0  0  0  0
 18 35  1  0  0  0  0
 18 36  1  0  0  0  0
 20 37  1  0  0  0  0
M  END
> <compound>
MIC-UNK-50cce87d-3

> <compound_smiles>
Cc1cccc2c1c(cnc2)NC(=O)Cc3cccc(c3)Cl

> <enantiomer_smiles>
Cc1cccc2c1c(cnc2)NC(=O)Cc3cccc(c3)Cl

> <scaffold>
chlorobenzene-linker

> <canonical_CID>
MIC-UNK-50cce87d-3

> <r_inhibition_at_20_uM>

> <r_inhibition_at_50_uM>

> <r_avg_IC50>

> <f_inhibition_at_20_uM>

> <f_inhibition_at_50_uM>

> <f_avg_IC50>
0.331374883454707

> <f_avg_pIC50>

> <relative_solubility_at_20_uM>

> <relative_solubility_at_100_uM>

> <trypsin_IC50>

> <NMR_std_ratio>

> <acrylamide>
False

> <chloroacetamide>
False

> <series>
3-aminopyridine-like

> <frag_id>

> <clash_score>
0

> <docking_score>
-6.125471115112305

> <overlap_score>
0.9037189483642578

> <MMFF_internal_energy>
110.35725888527342

> <docked_smiles>
Cc1cccc2c1c(cnc2)NC(=O)Cc3cccc(c3)Cl

$$$$
MIC-UNK-d935700b-2_1
  -OEChem-07262101023D

 35 37  0     0  0  0  0  0  0999 V2000
   11.9780    0.4600   23.9150 C   0  0  0  0  0  0  0  0  0  0  0  0
   10.6560    0.0720   23.7350 C   0  0  0  0  0  0  0  0  0  0  0  0
   12.9840   -0.1200   23.1530 C   0  0  0  0  0  0  0  0  0  0  0  0
   11.3360   -1.5050   22.0650 C   0  0  0  0  0  0  0  0  0  0  0  0
   10.3220   -0.8940   22.7910 C   0  0  0  0  0  0  0  0  0  0  0  0
   12.6400   -1.1000   22.2390 C   0  0  0  0  0  0  0  0  0  0  0  0
    7.1267   -0.5245   18.2956 C   0  0  0  0  0  0  0  0  0  0  0  0
    5.7159    0.7714   19.7736 C   0  0  0  0  0  0  0  0  0  0  0  0
    6.6804   -0.1557   19.6479 C   0  0  0  0  0  0  0  0  0  0  0  0
    5.1793    1.3511   18.4930 C   0  0  0  0  0  0  0  0  0  0  0  0
    8.3880   -0.3240   21.3070 C   0  0  0  0  0  0  0  0  0  0  0  0
    4.7732    2.6606   21.2034 C   0  0  0  0  0  0  0  0  0  0  0  0
    3.7310    1.5829   21.1536 C   0  0  0  0  0  0  0  0  0  0  0  0
    5.1759    1.2329   21.0820 C   0  0  0  0  0  0  0  0  0  0  0  0
    8.8810   -1.1900   22.4510 C   0  0  0  0  0  0  0  0  0  0  0  0
    6.6779   -0.0386   17.1892 N   0  0  0  0  0  0  0  0  0  0  0  0
    5.7086    0.8935   17.3088 N   0  0  0  0  0  0  0  0  0  0  0  0
    7.2820   -0.7860   20.6970 N   0  0  0  0  0  0  0  0  0  0  0  0
    4.2946    2.2071   18.5224 O   0  0  0  0  0  0  0  0  0  0  0  0
    8.9170    0.7530   21.0260 O   0  0  0  0  0  0  0  0  0  0  0  0
   13.8840   -1.8490   21.2740 Cl  0  0  0  0  0  0  0  0  0  0  0  0
   12.2249    1.2198   24.6546 H   0  0  0  0  0  0  0  0  0  0  0  0
    9.8763    0.5350   24.3454 H   0  0  0  0  0  0  0  0  0  0  0  0
   14.0077    0.1988   23.2842 H   0  0  0  0  0  0  0  0  0  0  0  0
   11.0892   -2.3009   21.3624 H   0  0  0  0  0  0  0  0  0  0  0  0
    7.9198   -1.2890   18.2415 H   0  0  0  0  0  0  0  0  0  0  0  0
    4.8505    3.3245   20.3506 H   0  0  0  0  0  0  0  0  0  0  0  0
    4.9571    3.1398   22.1576 H   0  0  0  0  0  0  0  0  0  0  0  0
    3.2148    1.3387   22.0744 H   0  0  0  0  0  0  0  0  0  0  0  0
    3.1105    1.5250   20.2672 H   0  0  0  0  0  0  0  0  0  0  0  0
    5.6391    0.7462   21.9152 H   0  0  0  0  0  0  0  0  0  0  0  0
    8.2535   -1.0146   23.3240 H   0  0  0  0  0  0  0  0  0  0  0  0
    8.7756   -2.2377   22.1724 H   0  0  0  0  0  0  0  0  0  0  0  0
    5.3386    1.2908   16.4510 H   0  0  0  0  0  0  0  0  0  0  0  0
    6.8612   -1.6482   21.0245 H   0  0  0  0  0  0  0  0  0  0  0  0
  1  2  1  0  0  0  0
  1  3  2  0  0  0  0
  2  5  2  0  0  0  0
  3  6  1  0  0  0  0
  4  5  1  0  0  0  0
  4  6  2  0  0  0  0
  5 15  1  0  0  0  0
  6 21  1  0  0  0  0
  7  9  1  0  0  0  0
  7 16  2  0  0  0  0
  8  9  2  0  0  0  0
  8 10  1  0  0  0  0
  8 14  1  0  0  0  0
  9 18  1  0  0  0  0
 10 17  1  0  0  0  0
 10 19  2  0  0  0  0
 11 15  1  0  0  0  0
 11 18  1  0  0  0  0
 11 20  2  0  0  0  0
 12 13  1  0  0  0  0
 12 14  1  0  0  0  0
 13 14  1  0  0  0  0
 16 17  1  0  0  0  0
  1 22  1  0  0  0  0
  2 23  1  0  0  0  0
  3 24  1  0  0  0  0
  4 25  1  0  0  0  0
  7 26  1  0  0  0  0
 12 27  1  0  0  0  0
 12 28  1  0  0  0  0
 13 29  1  0  0  0  0
 13 30  1  0  0  0  0
 14 31  1  0  0  0  0
 15 32  1  0  0  0  0
 15 33  1  0  0  0  0
 17 34  1  0  0  0  0
 18 35  1  0  0  0  0
M  END
> <compound>
MIC-UNK-d935700b-2

> <compound_smiles>
c1cc(cc(c1)Cl)CC(=O)Nc2cn[nH]c(=O)c2C3CC3

> <enantiomer_smiles>
c1cc(cc(c1)Cl)CC(=O)Nc2cn[nH]c(=O)c2C3CC3

> <scaffold>
chlorobenzene-linker

> <clash_score>
0

> <docking_score>
-11.656787872314453

> <overlap_score>
0.9600051045417786

> <MMFF_internal_energy>
127.10011698364113

> <docked_smiles>
c1cc(cc(c1)Cl)CC(=O)Nc2cn[nH]c(=O)c2C3CC3

$$$$
EDJ-MED-97c1bf5c-1_1
  -OEChem-07262101023D

 35 37  0     0  0  0  0  0  0999 V2000
   11.9780    0.4600   23.9150 C   0  0  0  0  0  0  0  0  0  0  0  0
   10.6560    0.0720   23.7350 C   0  0  0  0  0  0  0  0  0  0  0  0
   12.9840   -0.1200   23.1530 C   0  0  0  0  0  0  0  0  0  0  0  0
   11.3360   -1.5050   22.0650 C   0  0  0  0  0  0  0  0  0  0  0  0
   10.3220   -0.8940   22.7910 C   0  0  0  0  0  0  0  0  0  0  0  0
   12.6400   -1.1000   22.2390 C   0  0  0  0  0  0  0  0  0  0  0  0
    5.5705    1.0137   17.4462 C   0  0  0  0  0  0  0  0  0  0  0  0
    6.6801   -0.1575   19.6492 C   0  0  0  0  0  0  0  0  0  0  0  0
    5.7194    0.7636   19.7899 C   0  0  0  0  0  0  0  0  0  0  0  0
    7.1149   -0.5151   18.2471 C   0  0  0  0  0  0  0  0  0  0  0  0
    4.2192    2.2359   19.2472 C   0  0  0  0  0  0  0  0  0  0  0  0
    8.3880   -0.3240   21.3070 C   0  0  0  0  0  0  0  0  0  0  0  0
    3.6242    4.3983   18.6577 C   0  0  0  0  0  0  0  0  0  0  0  0
    8.8810   -1.1900   22.4510 C   0  0  0  0  0  0  0  0  0  0  0  0
    6.4907    0.1366   17.1861 N   0  0  0  0  0  0  0  0  0  0  0  0
    4.1549    2.2388   20.5642 N   0  0  0  0  0  0  0  0  0  0  0  0
    5.1137    1.2982   20.9018 N   0  0  0  0  0  0  0  0  0  0  0  0
    5.1409    1.3718   18.6892 N   0  0  0  0  0  0  0  0  0  0  0  0
    7.2820   -0.7860   20.6970 N   0  0  0  0  0  0  0  0  0  0  0  0
    7.9937   -1.3584   18.0837 O   0  0  0  0  0  0  0  0  0  0  0  0
    8.9170    0.7530   21.0260 O   0  0  0  0  0  0  0  0  0  0  0  0
    3.4588    3.0047   18.4431 O   0  0  0  0  0  0  0  0  0  0  0  0
   13.8840   -1.8490   21.2740 Cl  0  0  0  0  0  0  0  0  0  0  0  0
   12.2249    1.2198   24.6546 H   0  0  0  0  0  0  0  0  0  0  0  0
    9.8763    0.5350   24.3454 H   0  0  0  0  0  0  0  0  0  0  0  0
   14.0077    0.1988   23.2842 H   0  0  0  0  0  0  0  0  0  0  0  0
   11.0892   -2.3009   21.3624 H   0  0  0  0  0  0  0  0  0  0  0  0
    5.0582    1.5454   16.6289 H   0  0  0  0  0  0  0  0  0  0  0  0
    2.9784    4.9525   17.9723 H   0  0  0  0  0  0  0  0  0  0  0  0
    4.6693    4.6719   18.4920 H   0  0  0  0  0  0  0  0  0  0  0  0
    3.3467    4.6348   19.6877 H   0  0  0  0  0  0  0  0  0  0  0  0
    8.2535   -1.0146   23.3240 H   0  0  0  0  0  0  0  0  0  0  0  0
    8.7756   -2.2377   22.1724 H   0  0  0  0  0  0  0  0  0  0  0  0
    5.3403    1.0370   21.8509 H   0  0  0  0  0  0  0  0  0  0  0  0
    6.8627   -1.6491   21.0266 H   0  0  0  0  0  0  0  0  0  0  0  0
  1  2  2  0  0  0  0
  1  3  1  0  0  0  0
  2  5  1  0  0  0  0
  3  6  2  0  0  0  0
  4  5  2  0  0  0  0
  4  6  1  0  0  0  0
  5 14  1  0  0  0  0
  6 23  1  0  0  0  0
  7 15  2  0  0  0  0
  7 18  1  0  0  0  0
  8  9  2  0  0  0  0
  8 10  1  0  0  0  0
  8 19  1  0  0  0  0
  9 17  1  0  0  0  0
  9 18  1  0  0  0  0
 10 15  1  0  0  0  0
 10 20  2  0  0  0  0
 11 16  2  0  0  0  0
 11 18  1  0  0  0  0
 11 22  1  0  0  0  0
 12 14  1  0  0  0  0
 12 19  1  0  0  0  0
 12 21  2  0  0  0  0
 13 22  1  0  0  0  0
 16 17  1  0  0  0  0
  1 24  1  0  0  0  0
  2 25  1  0  0  0  0
  3 26  1  0  0  0  0
  4 27  1  0  0  0  0
  7 28  1  0  0  0  0
 13 29  1  0  0  0  0
 13 30  1  0  0  0  0
 13 31  1  0  0  0  0
 14 32  1  0  0  0  0
 14 33  1  0  0  0  0
 17 34  1  0  0  0  0
 19 35  1  0  0  0  0
M  END
> <compound>
EDJ-MED-97c1bf5c-1

> <compound_smiles>
COc1nnc2n1cnc(c2NC(=O)Cc3cccc(c3)Cl)O

> <enantiomer_smiles>
COc1nnc2n1cnc(c2NC(=O)Cc3cccc(c3)Cl)O

> <scaffold>
chlorobenzene-linker

> <clash_score>
0.6907547514304401

> <docking_score>
-8.486466407775879

> <overlap_score>
0.9759273529052734

> <MMFF_internal_energy>
86.79027028775792

> <docked_smiles>
COc1n[nH]c2n1cnc(=O)c2NC(=O)Cc3cccc(c3)Cl

$$$$
EDJ-MED-7bb79bc5-1_1
  -OEChem-07262101023D

 35 37  0     0  0  0  0  0  0999 V2000
   11.9780    0.4600   23.9150 C   0  0  0  0  0  0  0  0  0  0  0  0
   10.6560    0.0720   23.7350 C   0  0  0  0  0  0  0  0  0  0  0  0
   12.9840   -0.1200   23.1530 C   0  0  0  0  0  0  0  0  0  0  0  0
   11.3360   -1.5050   22.0650 C   0  0  0  0  0  0  0  0  0  0  0  0
   10.3220   -0.8940   22.7910 C   0  0  0  0  0  0  0  0  0  0  0  0
   12.6400   -1.1000   22.2390 C   0  0  0  0  0  0  0  0  0  0  0  0
    5.4580    1.1171   17.5624 C   0  0  0  0  0  0  0  0  0  0  0  0
    6.6801   -0.1577   19.6494 C   0  0  0  0  0  0  0  0  0  0  0  0
    6.9776   -0.3866   18.3549 C   0  0  0  0  0  0  0  0  0  0  0  0
    5.6345    0.8394   19.9395 C   0  0  0  0  0  0  0  0  0  0  0  0
    4.1278    2.3222   19.3499 C   0  0  0  0  0  0  0  0  0  0  0  0
    8.3880   -0.3240   21.3070 C   0  0  0  0  0  0  0  0  0  0  0  0
    8.1552   -1.4466   16.6616 C   0  0  0  0  0  0  0  0  0  0  0  0
    8.8810   -1.1900   22.4510 C   0  0  0  0  0  0  0  0  0  0  0  0
    6.3727    0.2461   17.2827 N   0  0  0  0  0  0  0  0  0  0  0  0
    5.1659    1.2412   21.0788 N   0  0  0  0  0  0  0  0  0  0  0  0
    4.2176    2.1725   20.7455 N   0  0  0  0  0  0  0  0  0  0  0  0
    5.0742    1.4296   18.8521 N   0  0  0  0  0  0  0  0  0  0  0  0
    7.2820   -0.7860   20.6970 N   0  0  0  0  0  0  0  0  0  0  0  0
    3.3852    3.0689   18.7316 O   0  0  0  0  0  0  0  0  0  0  0  0
    8.9170    0.7530   21.0260 O   0  0  0  0  0  0  0  0  0  0  0  0
    7.9567   -1.3174   18.0462 O   0  0  0  0  0  0  0  0  0  0  0  0
   13.8840   -1.8490   21.2740 Cl  0  0  0  0  0  0  0  0  0  0  0  0
   12.2249    1.2198   24.6546 H   0  0  0  0  0  0  0  0  0  0  0  0
    9.8763    0.5350   24.3454 H   0  0  0  0  0  0  0  0  0  0  0  0
   14.0077    0.1988   23.2842 H   0  0  0  0  0  0  0  0  0  0  0  0
   11.0892   -2.3009   21.3624 H   0  0  0  0  0  0  0  0  0  0  0  0
    4.9189    1.6732   16.7807 H   0  0  0  0  0  0  0  0  0  0  0  0
    8.9340   -2.1894   16.4722 H   0  0  0  0  0  0  0  0  0  0  0  0
    8.4486   -0.4806   16.2430 H   0  0  0  0  0  0  0  0  0  0  0  0
    7.2218   -1.7742   16.1978 H   0  0  0  0  0  0  0  0  0  0  0  0
    8.2535   -1.0146   23.3240 H   0  0  0  0  0  0  0  0  0  0  0  0
    8.7756   -2.2377   22.1724 H   0  0  0  0  0  0  0  0  0  0  0  0
    3.6906    2.6499   21.4656 H   0  0  0  0  0  0  0  0  0  0  0  0
    6.8629   -1.6492   21.0268 H   0  0  0  0  0  0  0  0  0  0  0  0
  1  2  2  0  0  0  0
  1  3  1  0  0  0  0
  2  5  1  0  0  0  0
  3  6  2  0  0  0  0
  4  5  2  0  0  0  0
  4  6  1  0  0  0  0
  5 14  1  0  0  0  0
  6 23  1  0  0  0  0
  7 15  2  0  0  0  0
  7 18  1  0  0  0  0
  8  9  2  0  0  0  0
  8 10  1  0  0  0  0
  8 19  1  0  0  0  0
  9 15  1  0  0  0  0
  9 22  1  0  0  0  0
 10 16  2  0  0  0  0
 10 18  1  0  0  0  0
 11 17  1  0  0  0  0
 11 18  1  0  0  0  0
 11 20  2  0  0  0  0
 12 14  1  0  0  0  0
 12 19  1  0  0  0  0
 12 21  2  0  0  0  0
 13 22  1  0  0  0  0
 16 17  1  0  0  0  0
  1 24  1  0  0  0  0
  2 25  1  0  0  0  0
  3 26  1  0  0  0  0
  4 27  1  0  0  0  0
  7 28  1  0  0  0  0
 13 29  1  0  0  0  0
 13 30  1  0  0  0  0
 13 31  1  0  0  0  0
 14 32  1  0  0  0  0
 14 33  1  0  0  0  0
 17 34  1  0  0  0  0
 19 35  1  0  0  0  0
M  END
> <compound>
EDJ-MED-7bb79bc5-1

> <compound_smiles>
COc1c(c2nnc(n2cn1)O)NC(=O)Cc3cccc(c3)Cl

> <enantiomer_smiles>
COc1c(c2nnc(n2cn1)O)NC(=O)Cc3cccc(c3)Cl

> <scaffold>
chlorobenzene-linker

> <clash_score>
1.3308826691476883

> <docking_score>
-10.929977416992188

> <overlap_score>
0.9838524460792542

> <MMFF_internal_energy>
40.76011657050492

> <docked_smiles>
COc1c(c2n[nH]c(=O)n2cn1)NC(=O)Cc3cccc(c3)Cl

$$$$
MIC-UNK-50cce87d-1_1
  -OEChem-07262101023D

 34 36  0     0  0  0  0  0  0999 V2000
    4.8485    3.6094   19.6811 C   0  0  0  0  0  0  0  0  0  0  0  0
   11.9780    0.4600   23.9150 C   0  0  0  0  0  0  0  0  0  0  0  0
    4.7575    2.8120   18.5405 C   0  0  0  0  0  0  0  0  0  0  0  0
   10.6560    0.0720   23.7350 C   0  0  0  0  0  0  0  0  0  0  0  0
    5.5181    3.1399   20.8087 C   0  0  0  0  0  0  0  0  0  0  0  0
   12.9840   -0.1200   23.1530 C   0  0  0  0  0  0  0  0  0  0  0  0
   11.3360   -1.5050   22.0650 C   0  0  0  0  0  0  0  0  0  0  0  0
    5.2782    0.6939   17.4073 C   0  0  0  0  0  0  0  0  0  0  0  0
    6.4660   -0.9669   18.4587 C   0  0  0  0  0  0  0  0  0  0  0  0
    5.3389    1.5334   18.5213 C   0  0  0  0  0  0  0  0  0  0  0  0
    6.0177    1.0545   19.6609 C   0  0  0  0  0  0  0  0  0  0  0  0
   10.3220   -0.8940   22.7910 C   0  0  0  0  0  0  0  0  0  0  0  0
    6.5902   -0.2221   19.6216 C   0  0  0  0  0  0  0  0  0  0  0  0
    6.0998    1.8709   20.8008 C   0  0  0  0  0  0  0  0  0  0  0  0
   12.6400   -1.1000   22.2390 C   0  0  0  0  0  0  0  0  0  0  0  0
    8.3880   -0.3240   21.3070 C   0  0  0  0  0  0  0  0  0  0  0  0
    8.8810   -1.1900   22.4510 C   0  0  0  0  0  0  0  0  0  0  0  0
    5.8244   -0.5417   17.3496 N   0  0  0  0  0  0  0  0  0  0  0  0
    7.2820   -0.7860   20.6970 N   0  0  0  0  0  0  0  0  0  0  0  0
    8.9170    0.7530   21.0260 O   0  0  0  0  0  0  0  0  0  0  0  0
    6.7335    1.4652   21.9114 F   0  0  0  0  0  0  0  0  0  0  0  0
   13.8840   -1.8490   21.2740 Cl  0  0  0  0  0  0  0  0  0  0  0  0
    4.3974    4.5973   19.6903 H   0  0  0  0  0  0  0  0  0  0  0  0
   12.2249    1.2198   24.6546 H   0  0  0  0  0  0  0  0  0  0  0  0
    4.2311    3.1937   17.6687 H   0  0  0  0  0  0  0  0  0  0  0  0
    9.8763    0.5350   24.3454 H   0  0  0  0  0  0  0  0  0  0  0  0
    5.5867    3.7617   21.6965 H   0  0  0  0  0  0  0  0  0  0  0  0
   14.0077    0.1988   23.2842 H   0  0  0  0  0  0  0  0  0  0  0  0
   11.0892   -2.3008   21.3624 H   0  0  0  0  0  0  0  0  0  0  0  0
    4.7701    1.0009   16.4972 H   0  0  0  0  0  0  0  0  0  0  0  0
    6.8919   -1.9629   18.3773 H   0  0  0  0  0  0  0  0  0  0  0  0
    8.7774   -2.2383   22.1732 H   0  0  0  0  0  0  0  0  0  0  0  0
    8.2557   -1.0153   23.3257 H   0  0  0  0  0  0  0  0  0  0  0  0
    6.8982   -1.6620   21.0675 H   0  0  0  0  0  0  0  0  0  0  0  0
  1  3  2  0  0  0  0
  1  5  1  0  0  0  0
  2  4  1  0  0  0  0
  2  6  2  0  0  0  0
  3 10  1  0  0  0  0
  4 12  2  0  0  0  0
  5 14  2  0  0  0  0
  6 15  1  0  0  0  0
  7 12  1  0  0  0  0
  7 15  2  0  0  0  0
  8 10  2  0  0  0  0
  8 18  1  0  0  0  0
  9 13  1  0  0  0  0
  9 18  2  0  0  0  0
 10 11  1  0  0  0  0
 11 13  2  0  0  0  0
 11 14  1  0  0  0  0
 12 17  1  0  0  0  0
 13 19  1  0  0  0  0
 14 21  1  0  0  0  0
 15 22  1  0  0  0  0
 16 17  1  0  0  0  0
 16 19  1  0  0  0  0
 16 20  2  0  0  0  0
  1 23  1  0  0  0  0
  2 24  1  0  0  0  0
  3 25  1  0  0  0  0
  4 26  1  0  0  0  0
  5 27  1  0  0  0  0
  6 28  1  0  0  0  0
  7 29  1  0  0  0  0
  8 30  1  0  0  0  0
  9 31  1  0  0  0  0
 17 32  1  0  0  0  0
 17 33  1  0  0  0  0
 19 34  1  0  0  0  0
M  END
> <compound>
MIC-UNK-50cce87d-1

> <compound_smiles>
c1cc(cc(c1)Cl)CC(=O)Nc2cncc3c2c(ccc3)F

> <enantiomer_smiles>
c1cc(cc(c1)Cl)CC(=O)Nc2cncc3c2c(ccc3)F

> <scaffold>
chlorobenzene-linker

> <canonical_CID>
MIC-UNK-50cce87d-1

> <r_inhibition_at_20_uM>

> <r_inhibition_at_50_uM>

> <r_avg_IC50>

> <f_inhibition_at_20_uM>

> <f_inhibition_at_50_uM>

> <f_avg_IC50>
1.30603210828413

> <f_avg_pIC50>

> <relative_solubility_at_20_uM>

> <relative_solubility_at_100_uM>

> <trypsin_IC50>

> <NMR_std_ratio>

> <acrylamide>
False

> <chloroacetamide>
False

> <series>
3-aminopyridine-like

> <frag_id>

> <clash_score>
0.646938073448988

> <docking_score>
-5.2988972663879395

> <overlap_score>
0.8509731292724609

> <MMFF_internal_energy>
97.85958315970555

> <docked_smiles>
c1cc(cc(c1)Cl)CC(=O)Nc2cncc3c2c(ccc3)F

$$$$
PET-UNK-a692de38-1_1
  -OEChem-07262101023D

 37 39  0     0  0  0  0  0  0999 V2000
    6.6693   -3.1035   20.3941 C   0  0  0  0  0  0  0  0  0  0  0  0
    3.6961    2.8092   20.0738 C   0  0  0  0  0  0  0  0  0  0  0  0
    4.2355    2.1965   21.2025 C   0  0  0  0  0  0  0  0  0  0  0  0
   11.9780    0.4600   23.9150 C   0  0  0  0  0  0  0  0  0  0  0  0
    4.1461    2.4519   18.8030 C   0  0  0  0  0  0  0  0  0  0  0  0
    5.2273    1.2238   21.0655 C   0  0  0  0  0  0  0  0  0  0  0  0
   10.6560    0.0720   23.7350 C   0  0  0  0  0  0  0  0  0  0  0  0
   12.9840   -0.1200   23.1530 C   0  0  0  0  0  0  0  0  0  0  0  0
   11.3360   -1.5050   22.0650 C   0  0  0  0  0  0  0  0  0  0  0  0
    5.6307    1.0786   17.4060 C   0  0  0  0  0  0  0  0  0  0  0  0
    7.0907   -0.4319   18.3344 C   0  0  0  0  0  0  0  0  0  0  0  0
    5.1436    1.4742   18.6533 C   0  0  0  0  0  0  0  0  0  0  0  0
    5.6922    0.8517   19.7936 C   0  0  0  0  0  0  0  0  0  0  0  0
   10.3220   -0.8940   22.7910 C   0  0  0  0  0  0  0  0  0  0  0  0
    6.6852   -0.1199   19.6231 C   0  0  0  0  0  0  0  0  0  0  0  0
   12.6400   -1.1000   22.2390 C   0  0  0  0  0  0  0  0  0  0  0  0
    8.3880   -0.3240   21.3070 C   0  0  0  0  0  0  0  0  0  0  0  0
    8.8810   -1.1900   22.4510 C   0  0  0  0  0  0  0  0  0  0  0  0
    6.6148   -3.9949   19.6536 N   0  0  0  0  0  0  0  0  0  0  0  0
    6.5888    0.1427   17.2205 N   0  0  0  0  0  0  0  0  0  0  0  0
    6.7329   -2.0726   21.2543 N   0  0  0  0  0  0  0  0  0  0  0  0
    7.2820   -0.7860   20.6970 N   0  0  0  0  0  0  0  0  0  0  0  0
    8.9170    0.7530   21.0260 O   0  0  0  0  0  0  0  0  0  0  0  0
   13.8840   -1.8490   21.2740 Cl  0  0  0  0  0  0  0  0  0  0  0  0
    2.9244    3.5655   20.1833 H   0  0  0  0  0  0  0  0  0  0  0  0
    3.8834    2.4761   22.1914 H   0  0  0  0  0  0  0  0  0  0  0  0
   12.2249    1.2198   24.6546 H   0  0  0  0  0  0  0  0  0  0  0  0
    3.7141    2.9400   17.9324 H   0  0  0  0  0  0  0  0  0  0  0  0
    5.6241    0.7690   21.9703 H   0  0  0  0  0  0  0  0  0  0  0  0
    9.8763    0.5350   24.3454 H   0  0  0  0  0  0  0  0  0  0  0  0
   14.0077    0.1988   23.2842 H   0  0  0  0  0  0  0  0  0  0  0  0
   11.0892   -2.3009   21.3624 H   0  0  0  0  0  0  0  0  0  0  0  0
    5.2514    1.5178   16.4874 H   0  0  0  0  0  0  0  0  0  0  0  0
    7.8572   -1.1791   18.1493 H   0  0  0  0  0  0  0  0  0  0  0  0
    8.7938   -2.2424   22.1799 H   0  0  0  0  0  0  0  0  0  0  0  0
    8.2735   -1.0117   23.3379 H   0  0  0  0  0  0  0  0  0  0  0  0
    6.1285   -1.9734   22.0789 H   0  0  0  0  0  0  0  0  0  0  0  0
  1 19  3  0  0  0  0
  1 21  1  0  0  0  0
  2  3  1  0  0  0  0
  2  5  2  0  0  0  0
  3  6  2  0  0  0  0
  4  7  2  0  0  0  0
  4  8  1  0  0  0  0
  5 12  1  0  0  0  0
  6 13  1  0  0  0  0
  7 14  1  0  0  0  0
  8 16  2  0  0  0  0
  9 14  2  0  0  0  0
  9 16  1  0  0  0  0
 10 12  2  0  0  0  0
 10 20  1  0  0  0  0
 11 15  1  0  0  0  0
 11 20  2  0  0  0  0
 12 13  1  0  0  0  0
 13 15  2  0  0  0  0
 14 18  1  0  0  0  0
 15 22  1  0  0  0  0
 16 24  1  0  0  0  0
 17 18  1  0  0  0  0
 17 22  1  0  0  0  0
 17 23  2  0  0  0  0
 21 22  1  0  0  0  0
  2 25  1  0  0  0  0
  3 26  1  0  0  0  0
  4 27  1  0  0  0  0
  5 28  1  0  0  0  0
  6 29  1  0  0  0  0
  7 30  1  0  0  0  0
  8 31  1  0  0  0  0
  9 32  1  0  0  0  0
 10 33  1  0  0  0  0
 11 34  1  0  0  0  0
 18 35  1  0  0  0  0
 18 36  1  0  0  0  0
 21 37  1  0  0  0  0
M  END
> <compound>
PET-UNK-a692de38-1

> <compound_smiles>
c1ccc2c(c1)cncc2N(C(=O)Cc3cccc(c3)Cl)NC#N

> <enantiomer_smiles>
c1ccc2c(c1)cncc2N(C(=O)Cc3cccc(c3)Cl)NC#N

> <scaffold>
chlorobenzene-linker

> <clash_score>
0.7024624933219633

> <docking_score>
-10.48132610321045

> <overlap_score>
0.979218602180481

> <MMFF_internal_energy>
132.19667117053078

> <docked_smiles>
c1ccc2c(c1)cncc2N(C(=O)Cc3cccc(c3)Cl)NC#N

$$$$
MAK-UNK-ffc90da7-3_2
  -OEChem-07262101023D

 56 58  0     1  0  0  0  0  0999 V2000
   11.9780    0.4600   23.9150 C   0  0  0  0  0  0  0  0  0  0  0  0
    4.5046    0.0182   20.8880 C   0  0  0  0  0  0  0  0  0  0  0  0
   10.6560    0.0720   23.7350 C   0  0  0  0  0  0  0  0  0  0  0  0
    3.1680    0.4175   20.9409 C   0  0  0  0  0  0  0  0  0  0  0  0
   12.9840   -0.1200   23.1530 C   0  0  0  0  0  0  0  0  0  0  0  0
    3.2825    1.1275   18.6358 C   0  0  0  0  0  0  0  0  0  0  0  0
   11.3360   -1.5050   22.0650 C   0  0  0  0  0  0  0  0  0  0  0  0
    5.3995    0.8628   17.4150 C   0  0  0  0  0  0  0  0  0  0  0  0
    7.2568   -0.0408   18.4193 C   0  0  0  0  0  0  0  0  0  0  0  0
    5.2488    0.1684   19.7065 C   0  0  0  0  0  0  0  0  0  0  0  0
    4.6280    0.7291   18.5711 C   0  0  0  0  0  0  0  0  0  0  0  0
    2.5584    0.9708   19.8174 C   0  0  0  0  0  0  0  0  0  0  0  0
   10.3220   -0.8940   22.7910 C   0  0  0  0  0  0  0  0  0  0  0  0
    6.5902   -0.2221   19.6216 C   0  0  0  0  0  0  0  0  0  0  0  0
   12.6400   -1.1000   22.2390 C   0  0  0  0  0  0  0  0  0  0  0  0
    8.3880   -0.3240   21.3070 C   0  0  0  0  0  0  0  0  0  0  0  0
    0.0856    5.5509   20.6700 C   0  0  0  0  0  0  0  0  0  0  0  0
    2.5806    5.9048   20.7110 C   0  0  0  0  0  0  0  0  0  0  0  0
    0.2077   -0.8365   19.2425 C   0  0  0  0  0  0  0  0  0  0  0  0
    8.8810   -1.1900   22.4510 C   0  0  0  0  0  0  0  0  0  0  0  0
    0.9194    2.8804   19.5332 C   0  0  0  0  0  0  0  0  0  0  0  0
    1.1300    1.3958   19.8788 C   0  0  2  0  0  0  0  0  0  0  0  0
    1.4320    5.0953   20.1284 C   0  0  0  0  0  0  0  0  0  0  0  0
    6.6958    0.4920   17.3130 N   0  0  0  0  0  0  0  0  0  0  0  0
    7.2820   -0.7860   20.6970 N   0  0  0  0  0  0  0  0  0  0  0  0
    0.2327    0.6146   18.9559 N   0  3  0  0  0  0  0  0  0  0  0  0
    8.9170    0.7530   21.0260 O   0  0  0  0  0  0  0  0  0  0  0  0
    1.6215    3.7228   20.4409 O   0  0  0  0  0  0  0  0  0  0  0  0
   13.8840   -1.8490   21.2740 Cl  0  0  0  0  0  0  0  0  0  0  0  0
   12.2249    1.2198   24.6546 H   0  0  0  0  0  0  0  0  0  0  0  0
    4.9448   -0.4099   21.7858 H   0  0  0  0  0  0  0  0  0  0  0  0
    9.8763    0.5350   24.3454 H   0  0  0  0  0  0  0  0  0  0  0  0
    2.6094    0.2916   21.8649 H   0  0  0  0  0  0  0  0  0  0  0  0
   14.0077    0.1988   23.2842 H   0  0  0  0  0  0  0  0  0  0  0  0
    2.7988    1.5602   17.7624 H   0  0  0  0  0  0  0  0  0  0  0  0
   11.0892   -2.3009   21.3624 H   0  0  0  0  0  0  0  0  0  0  0  0
    4.9834    1.2887   16.5058 H   0  0  0  0  0  0  0  0  0  0  0  0
    8.2979   -0.3277   18.3020 H   0  0  0  0  0  0  0  0  0  0  0  0
    0.0488    5.4713   21.7607 H   0  0  0  0  0  0  0  0  0  0  0  0
   -0.1059    6.5919   20.3883 H   0  0  0  0  0  0  0  0  0  0  0  0
   -0.7314    4.9558   20.2473 H   0  0  0  0  0  0  0  0  0  0  0  0
    2.6032    5.8336   21.8027 H   0  0  0  0  0  0  0  0  0  0  0  0
    2.4842    6.9593   20.4309 H   0  0  0  0  0  0  0  0  0  0  0  0
    3.5438    5.5617   20.3175 H   0  0  0  0  0  0  0  0  0  0  0  0
   -0.1297   -0.9678   20.2722 H   0  0  0  0  0  0  0  0  0  0  0  0
   -0.4847   -1.3040   18.5398 H   0  0  0  0  0  0  0  0  0  0  0  0
    1.2208   -1.2209   19.1096 H   0  0  0  0  0  0  0  0  0  0  0  0
    8.7775   -2.2383   22.1732 H   0  0  0  0  0  0  0  0  0  0  0  0
    8.2557   -1.0153   23.3257 H   0  0  0  0  0  0  0  0  0  0  0  0
   -0.1427    3.1435   19.5921 H   0  0  0  0  0  0  0  0  0  0  0  0
    1.2626    3.1155   18.5198 H   0  0  0  0  0  0  0  0  0  0  0  0
    0.7029    1.2053   20.8783 H   0  0  0  0  0  0  0  0  0  0  0  0
    1.4369    5.1869   19.0373 H   0  0  0  0  0  0  0  0  0  0  0  0
    6.8981   -1.6619   21.0675 H   0  0  0  0  0  0  0  0  0  0  0  0
    0.5456    0.7769   17.9952 H   0  0  0  0  0  0  0  0  0  0  0  0
   -0.7117    1.0022   19.0264 H   0  0  0  0  0  0  0  0  0  0  0  0
  1  3  2  0  0  0  0
  1  5  1  0  0  0  0
  2  4  2  0  0  0  0
  2 10  1  0  0  0  0
  3 13  1  0  0  0  0
  4 12  1  0  0  0  0
  5 15  2  0  0  0  0
  6 11  1  0  0  0  0
  6 12  2  0  0  0  0
  7 13  2  0  0  0  0
  7 15  1  0  0  0  0
  8 11  2  0  0  0  0
  8 24  1  0  0  0  0
  9 14  1  0  0  0  0
  9 24  2  0  0  0  0
 10 11  1  0  0  0  0
 10 14  2  0  0  0  0
 12 22  1  0  0  0  0
 13 20  1  0  0  0  0
 14 25  1  0  0  0  0
 15 29  1  0  0  0  0
 16 20  1  0  0  0  0
 16 25  1  0  0  0  0
 16 27  2  0  0  0  0
 17 23  1  0  0  0  0
 18 23  1  0  0  0  0
 19 26  1  0  0  0  0
 21 22  1  6  0  0  0
 21 28  1  0  0  0  0
 22 26  1  0  0  0  0
 23 28  1  0  0  0  0
  1 30  1  0  0  0  0
  2 31  1  0  0  0  0
  3 32  1  0  0  0  0
  4 33  1  0  0  0  0
  5 34  1  0  0  0  0
  6 35  1  0  0  0  0
  7 36  1  0  0  0  0
  8 37  1  0  0  0  0
  9 38  1  0  0  0  0
 17 39  1  0  0  0  0
 17 40  1  0  0  0  0
 17 41  1  0  0  0  0
 18 42  1  0  0  0  0
 18 43  1  0  0  0  0
 18 44  1  0  0  0  0
 19 45  1  0  0  0  0
 19 46  1  0  0  0  0
 19 47  1  0  0  0  0
 20 48  1  0  0  0  0
 20 49  1  0  0  0  0
 21 50  1  0  0  0  0
 21 51  1  0  0  0  0
 22 52  1  0  0  0  0
 23 53  1  0  0  0  0
 25 54  1  0  0  0  0
 26 55  1  0  0  0  0
 26 56  1  0  0  0  0
M  CHG  1  26   1
M  END
> <compound>
MAK-UNK-ffc90da7-3

> <compound_smiles>
CC(C)OCC(c1ccc2c(c1)cncc2NC(=O)Cc3cccc(c3)Cl)NC

> <enantiomer_smiles>
CC(C)OC[C@H](c1ccc2c(c1)cncc2NC(=O)Cc3cccc(c3)Cl)NC

> <scaffold>
chlorobenzene-linker

> <clash_score>
2.5622613270309875

> <docking_score>
-3.1274468898773193

> <overlap_score>
0.8885138630867004

> <MMFF_internal_energy>
142.11618916304957

> <docked_smiles>
CC(C)OC[C@H](c1ccc2c(c1)cncc2NC(=O)Cc3cccc(c3)Cl)[NH2+]C

$$$$
MAK-UNK-ffc90da7-8_1
  -OEChem-07262101023D

 53 55  0     0  0  0  0  0  0999 V2000
   11.9780    0.4600   23.9150 C   0  0  0  0  0  0  0  0  0  0  0  0
    4.4258   -1.1215   20.3410 C   0  0  0  0  0  0  0  0  0  0  0  0
   10.6560    0.0720   23.7350 C   0  0  0  0  0  0  0  0  0  0  0  0
    3.0521   -1.2609   20.1354 C   0  0  0  0  0  0  0  0  0  0  0  0
   12.9840   -0.1200   23.1530 C   0  0  0  0  0  0  0  0  0  0  0  0
    3.2103    0.0769   18.1314 C   0  0  0  0  0  0  0  0  0  0  0  0
   11.3360   -1.5050   22.0650 C   0  0  0  0  0  0  0  0  0  0  0  0
    5.4060    0.9528   17.4579 C   0  0  0  0  0  0  0  0  0  0  0  0
    7.2960    0.5250   18.6908 C   0  0  0  0  0  0  0  0  0  0  0  0
    5.2110   -0.3801   19.4431 C   0  0  0  0  0  0  0  0  0  0  0  0
    4.5934    0.2236   18.3283 C   0  0  0  0  0  0  0  0  0  0  0  0
    2.4457   -0.6630   19.0331 C   0  0  0  0  0  0  0  0  0  0  0  0
   10.3220   -0.8940   22.7910 C   0  0  0  0  0  0  0  0  0  0  0  0
    6.5902   -0.2221   19.6216 C   0  0  0  0  0  0  0  0  0  0  0  0
   12.6400   -1.1000   22.2390 C   0  0  0  0  0  0  0  0  0  0  0  0
    8.3880   -0.3240   21.3070 C   0  0  0  0  0  0  0  0  0  0  0  0
   -0.7414    4.9966   19.8075 C   0  0  0  0  0  0  0  0  0  0  0  0
    1.5112    4.0653   20.4477 C   0  0  0  0  0  0  0  0  0  0  0  0
    8.8810   -1.1900   22.4510 C   0  0  0  0  0  0  0  0  0  0  0  0
    0.9777   -0.8148   18.8176 C   0  0  0  0  0  0  0  0  0  0  0  0
    0.1754    0.3016   19.5000 C   0  0  0  0  0  0  0  0  0  0  0  0
    0.5173    1.6770   18.9442 C   0  0  0  0  0  0  0  0  0  0  0  0
    0.3209    3.9500   19.5077 C   0  0  0  0  0  0  0  0  0  0  0  0
    6.7392    1.1171   17.6128 N   0  0  0  0  0  0  0  0  0  0  0  0
    7.2820   -0.7860   20.6970 N   0  0  0  0  0  0  0  0  0  0  0  0
    8.9170    0.7530   21.0260 O   0  0  0  0  0  0  0  0  0  0  0  0
   -0.2503    2.6545   19.6326 O   0  0  0  0  0  0  0  0  0  0  0  0
   13.8840   -1.8490   21.2740 Cl  0  0  0  0  0  0  0  0  0  0  0  0
   12.2249    1.2198   24.6546 H   0  0  0  0  0  0  0  0  0  0  0  0
    4.8623   -1.6035   21.2129 H   0  0  0  0  0  0  0  0  0  0  0  0
    9.8763    0.5350   24.3454 H   0  0  0  0  0  0  0  0  0  0  0  0
    2.4626   -1.8396   20.8418 H   0  0  0  0  0  0  0  0  0  0  0  0
   14.0077    0.1988   23.2842 H   0  0  0  0  0  0  0  0  0  0  0  0
    2.7291    0.5405   17.2725 H   0  0  0  0  0  0  0  0  0  0  0  0
   11.0892   -2.3009   21.3624 H   0  0  0  0  0  0  0  0  0  0  0  0
    4.9938    1.4447   16.5809 H   0  0  0  0  0  0  0  0  0  0  0  0
    8.3675    0.6770   18.7841 H   0  0  0  0  0  0  0  0  0  0  0  0
   -1.1023    4.9126   20.8371 H   0  0  0  0  0  0  0  0  0  0  0  0
   -0.3368    6.0035   19.6594 H   0  0  0  0  0  0  0  0  0  0  0  0
   -1.5951    4.8981   19.1278 H   0  0  0  0  0  0  0  0  0  0  0  0
    1.2041    3.9591   21.4926 H   0  0  0  0  0  0  0  0  0  0  0  0
    2.0018    5.0367   20.3240 H   0  0  0  0  0  0  0  0  0  0  0  0
    2.2648    3.3018   20.2248 H   0  0  0  0  0  0  0  0  0  0  0  0
    8.7775   -2.2383   22.1732 H   0  0  0  0  0  0  0  0  0  0  0  0
    8.2557   -1.0153   23.3257 H   0  0  0  0  0  0  0  0  0  0  0  0
    0.6298   -1.7911   19.1959 H   0  0  0  0  0  0  0  0  0  0  0  0
    0.7434   -0.8191   17.7394 H   0  0  0  0  0  0  0  0  0  0  0  0
    0.3570    0.2925   20.5828 H   0  0  0  0  0  0  0  0  0  0  0  0
   -0.9014    0.1207   19.3837 H   0  0  0  0  0  0  0  0  0  0  0  0
    1.5787    1.9036   19.0879 H   0  0  0  0  0  0  0  0  0  0  0  0
    0.2809    1.7367   17.8770 H   0  0  0  0  0  0  0  0  0  0  0  0
    0.6606    4.0603   18.4727 H   0  0  0  0  0  0  0  0  0  0  0  0
    6.8981   -1.6619   21.0675 H   0  0  0  0  0  0  0  0  0  0  0  0
  1  3  2  0  0  0  0
  1  5  1  0  0  0  0
  2  4  2  0  0  0  0
  2 10  1  0  0  0  0
  3 13  1  0  0  0  0
  4 12  1  0  0  0  0
  5 15  2  0  0  0  0
  6 11  1  0  0  0  0
  6 12  2  0  0  0  0
  7 13  2  0  0  0  0
  7 15  1  0  0  0  0
  8 11  2  0  0  0  0
  8 24  1  0  0  0  0
  9 14  1  0  0  0  0
  9 24  2  0  0  0  0
 10 11  1  0  0  0  0
 10 14  2  0  0  0  0
 12 20  1  0  0  0  0
 13 19  1  0  0  0  0
 14 25  1  0  0  0  0
 15 28  1  0  0  0  0
 16 19  1  0  0  0  0
 16 25  1  0  0  0  0
 16 26  2  0  0  0  0
 17 23  1  0  0  0  0
 18 23  1  0  0  0  0
 20 21  1  0  0  0  0
 21 22  1  0  0  0  0
 22 27  1  0  0  0  0
 23 27  1  0  0  0  0
  1 29  1  0  0  0  0
  2 30  1  0  0  0  0
  3 31  1  0  0  0  0
  4 32  1  0  0  0  0
  5 33  1  0  0  0  0
  6 34  1  0  0  0  0
  7 35  1  0  0  0  0
  8 36  1  0  0  0  0
  9 37  1  0  0  0  0
 17 38  1  0  0  0  0
 17 39  1  0  0  0  0
 17 40  1  0  0  0  0
 18 41  1  0  0  0  0
 18 42  1  0  0  0  0
 18 43  1  0  0  0  0
 19 44  1  0  0  0  0
 19 45  1  0  0  0  0
 20 46  1  0  0  0  0
 20 47  1  0  0  0  0
 21 48  1  0  0  0  0
 21 49  1  0  0  0  0
 22 50  1  0  0  0  0
 22 51  1  0  0  0  0
 23 52  1  0  0  0  0
 25 53  1  0  0  0  0
M  END
> <compound>
MAK-UNK-ffc90da7-8

> <compound_smiles>
CC(C)OCCCc1ccc2c(c1)cncc2NC(=O)Cc3cccc(c3)Cl

> <enantiomer_smiles>
CC(C)OCCCc1ccc2c(c1)cncc2NC(=O)Cc3cccc(c3)Cl

> <scaffold>
chlorobenzene-linker

> <clash_score>
10.563139909839858

> <docking_score>
2.807725191116333

> <overlap_score>
0.7712650299072266

> <MMFF_internal_energy>
98.67812691956769

> <docked_smiles>
CC(C)OCCCc1ccc2c(c1)cncc2NC(=O)Cc3cccc(c3)Cl

$$$$
MAK-UNK-ffc90da7-3_1
  -OEChem-07262101023D

 56 58  0     1  0  0  0  0  0999 V2000
   11.9780    0.4600   23.9150 C   0  0  0  0  0  0  0  0  0  0  0  0
    4.5046    0.0182   20.8880 C   0  0  0  0  0  0  0  0  0  0  0  0
   10.6560    0.0720   23.7350 C   0  0  0  0  0  0  0  0  0  0  0  0
    3.1680    0.4175   20.9409 C   0  0  0  0  0  0  0  0  0  0  0  0
   12.9840   -0.1200   23.1530 C   0  0  0  0  0  0  0  0  0  0  0  0
    3.2825    1.1275   18.6358 C   0  0  0  0  0  0  0  0  0  0  0  0
   11.3360   -1.5050   22.0650 C   0  0  0  0  0  0  0  0  0  0  0  0
    5.3995    0.8628   17.4150 C   0  0  0  0  0  0  0  0  0  0  0  0
    7.2568   -0.0408   18.4193 C   0  0  0  0  0  0  0  0  0  0  0  0
    5.2488    0.1684   19.7065 C   0  0  0  0  0  0  0  0  0  0  0  0
    4.6280    0.7291   18.5711 C   0  0  0  0  0  0  0  0  0  0  0  0
    2.5584    0.9708   19.8174 C   0  0  0  0  0  0  0  0  0  0  0  0
   10.3220   -0.8940   22.7910 C   0  0  0  0  0  0  0  0  0  0  0  0
    6.5902   -0.2221   19.6216 C   0  0  0  0  0  0  0  0  0  0  0  0
   12.6400   -1.1000   22.2390 C   0  0  0  0  0  0  0  0  0  0  0  0
    8.3880   -0.3240   21.3070 C   0  0  0  0  0  0  0  0  0  0  0  0
    2.1632    4.2130   23.0376 C   0  0  0  0  0  0  0  0  0  0  0  0
    1.7547    5.9580   21.2657 C   0  0  0  0  0  0  0  0  0  0  0  0
    0.2418   -0.7824   19.0389 C   0  0  0  0  0  0  0  0  0  0  0  0
    8.8810   -1.1900   22.4510 C   0  0  0  0  0  0  0  0  0  0  0  0
    0.8518    2.4375   20.9768 C   0  0  0  0  0  0  0  0  0  0  0  0
    1.1300    1.3958   19.8788 C   0  0  1  0  0  0  0  0  0  0  0  0
    1.3784    4.5796   21.7872 C   0  0  0  0  0  0  0  0  0  0  0  0
    6.6958    0.4920   17.3130 N   0  0  0  0  0  0  0  0  0  0  0  0
    7.2820   -0.7860   20.6970 N   0  0  0  0  0  0  0  0  0  0  0  0
    0.1832    0.2461   20.1005 N   0  3  0  0  0  0  0  0  0  0  0  0
    8.9170    0.7530   21.0260 O   0  0  0  0  0  0  0  0  0  0  0  0
    1.6296    3.6129   20.7774 O   0  0  0  0  0  0  0  0  0  0  0  0
   13.8840   -1.8490   21.2740 Cl  0  0  0  0  0  0  0  0  0  0  0  0
   12.2249    1.2198   24.6546 H   0  0  0  0  0  0  0  0  0  0  0  0
    4.9448   -0.4099   21.7858 H   0  0  0  0  0  0  0  0  0  0  0  0
    9.8763    0.5350   24.3454 H   0  0  0  0  0  0  0  0  0  0  0  0
    2.6094    0.2916   21.8649 H   0  0  0  0  0  0  0  0  0  0  0  0
   14.0077    0.1988   23.2842 H   0  0  0  0  0  0  0  0  0  0  0  0
    2.7988    1.5602   17.7624 H   0  0  0  0  0  0  0  0  0  0  0  0
   11.0892   -2.3009   21.3624 H   0  0  0  0  0  0  0  0  0  0  0  0
    4.9834    1.2887   16.5058 H   0  0  0  0  0  0  0  0  0  0  0  0
    8.2979   -0.3277   18.3020 H   0  0  0  0  0  0  0  0  0  0  0  0
    3.2410    4.2310   22.8495 H   0  0  0  0  0  0  0  0  0  0  0  0
    1.9375    4.9140   23.8483 H   0  0  0  0  0  0  0  0  0  0  0  0
    1.8871    3.2160   23.3985 H   0  0  0  0  0  0  0  0  0  0  0  0
    2.8228    6.0178   21.0354 H   0  0  0  0  0  0  0  0  0  0  0  0
    1.5134    6.7256   22.0088 H   0  0  0  0  0  0  0  0  0  0  0  0
    1.1872    6.2059   20.3620 H   0  0  0  0  0  0  0  0  0  0  0  0
    1.2653   -1.1594   18.9953 H   0  0  0  0  0  0  0  0  0  0  0  0
   -0.4583   -1.5768   19.3042 H   0  0  0  0  0  0  0  0  0  0  0  0
   -0.0417   -0.3075   18.0977 H   0  0  0  0  0  0  0  0  0  0  0  0
    8.7775   -2.2383   22.1732 H   0  0  0  0  0  0  0  0  0  0  0  0
    8.2557   -1.0153   23.3257 H   0  0  0  0  0  0  0  0  0  0  0  0
    1.1072    2.0354   21.9637 H   0  0  0  0  0  0  0  0  0  0  0  0
   -0.2033    2.7308   21.0022 H   0  0  0  0  0  0  0  0  0  0  0  0
    0.7987    1.8117   18.9120 H   0  0  0  0  0  0  0  0  0  0  0  0
    0.3063    4.5525   22.0077 H   0  0  0  0  0  0  0  0  0  0  0  0
    6.8981   -1.6619   21.0675 H   0  0  0  0  0  0  0  0  0  0  0  0
   -0.7651    0.6239   20.1708 H   0  0  0  0  0  0  0  0  0  0  0  0
    0.3997   -0.1741   21.0081 H   0  0  0  0  0  0  0  0  0  0  0  0
  1  3  2  0  0  0  0
  1  5  1  0  0  0  0
  2  4  2  0  0  0  0
  2 10  1  0  0  0  0
  3 13  1  0  0  0  0
  4 12  1  0  0  0  0
  5 15  2  0  0  0  0
  6 11  1  0  0  0  0
  6 12  2  0  0  0  0
  7 13  2  0  0  0  0
  7 15  1  0  0  0  0
  8 11  2  0  0  0  0
  8 24  1  0  0  0  0
  9 14  1  0  0  0  0
  9 24  2  0  0  0  0
 10 11  1  0  0  0  0
 10 14  2  0  0  0  0
 12 22  1  0  0  0  0
 13 20  1  0  0  0  0
 14 25  1  0  0  0  0
 15 29  1  0  0  0  0
 16 20  1  0  0  0  0
 16 25  1  0  0  0  0
 16 27  2  0  0  0  0
 17 23  1  0  0  0  0
 18 23  1  0  0  0  0
 19 26  1  0  0  0  0
 21 22  1  1  0  0  0
 21 28  1  0  0  0  0
 22 26  1  0  0  0  0
 23 28  1  0  0  0  0
  1 30  1  0  0  0  0
  2 31  1  0  0  0  0
  3 32  1  0  0  0  0
  4 33  1  0  0  0  0
  5 34  1  0  0  0  0
  6 35  1  0  0  0  0
  7 36  1  0  0  0  0
  8 37  1  0  0  0  0
  9 38  1  0  0  0  0
 17 39  1  0  0  0  0
 17 40  1  0  0  0  0
 17 41  1  0  0  0  0
 18 42  1  0  0  0  0
 18 43  1  0  0  0  0
 18 44  1  0  0  0  0
 19 45  1  0  0  0  0
 19 46  1  0  0  0  0
 19 47  1  0  0  0  0
 20 48  1  0  0  0  0
 20 49  1  0  0  0  0
 21 50  1  0  0  0  0
 21 51  1  0  0  0  0
 22 52  1  0  0  0  0
 23 53  1  0  0  0  0
 25 54  1  0  0  0  0
 26 55  1  0  0  0  0
 26 56  1  0  0  0  0
M  CHG  1  26   1
M  END
> <compound>
MAK-UNK-ffc90da7-3

> <compound_smiles>
CC(C)OCC(c1ccc2c(c1)cncc2NC(=O)Cc3cccc(c3)Cl)NC

> <enantiomer_smiles>
CC(C)OC[C@@H](c1ccc2c(c1)cncc2NC(=O)Cc3cccc(c3)Cl)NC

> <scaffold>
chlorobenzene-linker

> <clash_score>
1.9578082953633698

> <docking_score>
-2.796692371368408

> <overlap_score>
0.8899111151695251

> <MMFF_internal_energy>
142.40347242761516

> <docked_smiles>
CC(C)OC[C@@H](c1ccc2c(c1)cncc2NC(=O)Cc3cccc(c3)Cl)[NH2+]C

$$$$
MIC-UNK-5a93dd5f-2_5
  -OEChem-07262101023D

 57 61  0     1  0  0  0  0  0999 V2000
    3.4588    2.5718   20.0554 C   0  0  0  0  0  0  0  0  0  0  0  0
    4.0835    2.0505   21.1859 C   0  0  0  0  0  0  0  0  0  0  0  0
   11.9780    0.4600   23.9150 C   0  0  0  0  0  0  0  0  0  0  0  0
    3.8710    2.1742   18.7837 C   0  0  0  0  0  0  0  0  0  0  0  0
    5.1234    1.1291   21.0499 C   0  0  0  0  0  0  0  0  0  0  0  0
   10.6560    0.0720   23.7350 C   0  0  0  0  0  0  0  0  0  0  0  0
   12.9840   -0.1200   23.1530 C   0  0  0  0  0  0  0  0  0  0  0  0
   11.3360   -1.5050   22.0650 C   0  0  0  0  0  0  0  0  0  0  0  0
    5.3689    0.8151   17.3870 C   0  0  0  0  0  0  0  0  0  0  0  0
    6.9552   -0.5603   18.3181 C   0  0  0  0  0  0  0  0  0  0  0  0
    4.9163    1.2476   18.6350 C   0  0  0  0  0  0  0  0  0  0  0  0
    5.5514    0.7175   19.7772 C   0  0  0  0  0  0  0  0  0  0  0  0
   10.3220   -0.8940   22.7910 C   0  0  0  0  0  0  0  0  0  0  0  0
    6.5908   -0.2044   19.6077 C   0  0  0  0  0  0  0  0  0  0  0  0
   12.6400   -1.1000   22.2390 C   0  0  0  0  0  0  0  0  0  0  0  0
    8.3880   -0.3240   21.3070 C   0  0  0  0  0  0  0  0  0  0  0  0
    5.4760   -4.2274   26.2435 C   0  0  0  0  0  0  0  0  0  0  0  0
    6.3485   -3.6209   27.3513 C   0  0  0  0  0  0  0  0  0  0  0  0
    5.2743   -3.2763   25.0566 C   0  0  0  0  0  0  0  0  0  0  0  0
    7.6704   -3.0499   26.8220 C   0  0  0  0  0  0  0  0  0  0  0  0
    6.6144   -1.7341   23.4679 C   0  0  0  0  0  0  0  0  0  0  0  0
    8.5867   -1.5324   24.9384 C   0  0  0  0  0  0  0  0  0  0  0  0
    6.6259   -2.7850   24.5620 C   0  0  2  0  0  0  0  0  0  0  0  0
    7.3875   -2.0856   25.6808 C   0  0  1  0  0  0  0  0  0  0  0  0
    8.8810   -1.1900   22.4510 C   0  0  1  0  0  0  0  0  0  0  0  0
    6.3708   -0.0740   17.2025 N   0  0  0  0  0  0  0  0  0  0  0  0
    7.2820   -0.7860   20.6970 N   0  0  0  0  0  0  0  0  0  0  0  0
    7.9692   -1.0400   23.6295 N   0  3  0  0  0  0  0  0  0  0  0  0
    8.9170    0.7530   21.0260 O   0  0  0  0  0  0  0  0  0  0  0  0
   13.8840   -1.8490   21.2740 Cl  0  0  0  0  0  0  0  0  0  0  0  0
    2.6499    3.2883   20.1641 H   0  0  0  0  0  0  0  0  0  0  0  0
    3.7607    2.3613   22.1754 H   0  0  0  0  0  0  0  0  0  0  0  0
   12.2249    1.2198   24.6546 H   0  0  0  0  0  0  0  0  0  0  0  0
    3.3723    2.5910   17.9118 H   0  0  0  0  0  0  0  0  0  0  0  0
    5.5866    0.7453   21.9560 H   0  0  0  0  0  0  0  0  0  0  0  0
    9.8763    0.5350   24.3454 H   0  0  0  0  0  0  0  0  0  0  0  0
   14.0077    0.1988   23.2842 H   0  0  0  0  0  0  0  0  0  0  0  0
   11.0892   -2.3008   21.3624 H   0  0  0  0  0  0  0  0  0  0  0  0
    4.9234    1.1835   16.4670 H   0  0  0  0  0  0  0  0  0  0  0  0
    7.7549   -1.2720   18.1337 H   0  0  0  0  0  0  0  0  0  0  0  0
    5.9487   -5.1506   25.8855 H   0  0  0  0  0  0  0  0  0  0  0  0
    4.5014   -4.5103   26.6572 H   0  0  0  0  0  0  0  0  0  0  0  0
    5.7859   -2.8198   27.8472 H   0  0  0  0  0  0  0  0  0  0  0  0
    6.5555   -4.3810   28.1130 H   0  0  0  0  0  0  0  0  0  0  0  0
    4.7394   -3.7933   24.2520 H   0  0  0  0  0  0  0  0  0  0  0  0
    4.6496   -2.4303   25.3682 H   0  0  0  0  0  0  0  0  0  0  0  0
    8.2048   -2.5373   27.6296 H   0  0  0  0  0  0  0  0  0  0  0  0
    8.3125   -3.8710   26.4803 H   0  0  0  0  0  0  0  0  0  0  0  0
    6.5350   -2.1553   22.4615 H   0  0  0  0  0  0  0  0  0  0  0  0
    5.8506   -0.9647   23.6207 H   0  0  0  0  0  0  0  0  0  0  0  0
    9.0607   -0.6798   25.4319 H   0  0  0  0  0  0  0  0  0  0  0  0
    9.3256   -2.3046   24.6979 H   0  0  0  0  0  0  0  0  0  0  0  0
    7.2015   -3.6519   24.2038 H   0  0  0  0  0  0  0  0  0  0  0  0
    6.7955   -1.2444   26.0715 H   0  0  0  0  0  0  0  0  0  0  0  0
    8.7698   -2.2472   22.1731 H   0  0  0  0  0  0  0  0  0  0  0  0
    6.8974   -1.6551   21.0612 H   0  0  0  0  0  0  0  0  0  0  0  0
    7.7788   -0.0347   23.7412 H   0  0  0  0  0  0  0  0  0  0  0  0
  1  2  1  0  0  0  0
  1  4  2  0  0  0  0
  2  5  2  0  0  0  0
  3  6  2  0  0  0  0
  3  7  1  0  0  0  0
  4 11  1  0  0  0  0
  5 12  1  0  0  0  0
  6 13  1  0  0  0  0
  7 15  2  0  0  0  0
  8 13  2  0  0  0  0
  8 15  1  0  0  0  0
  9 11  2  0  0  0  0
  9 26  1  0  0  0  0
 10 14  1  0  0  0  0
 10 26  2  0  0  0  0
 11 12  1  0  0  0  0
 12 14  2  0  0  0  0
 13 25  1  0  0  0  0
 14 27  1  0  0  0  0
 15 30  1  0  0  0  0
 16 25  1  1  0  0  0
 16 27  1  0  0  0  0
 16 29  2  0  0  0  0
 17 18  1  0  0  0  0
 17 19  1  0  0  0  0
 18 20  1  0  0  0  0
 19 23  1  0  0  0  0
 20 24  1  6  0  0  0
 21 23  1  1  0  0  0
 21 28  1  0  0  0  0
 22 24  1  0  0  0  0
 22 28  1  0  0  0  0
 23 24  1  0  0  0  0
 25 28  1  0  0  0  0
  1 31  1  0  0  0  0
  2 32  1  0  0  0  0
  3 33  1  0  0  0  0
  4 34  1  0  0  0  0
  5 35  1  0  0  0  0
  6 36  1  0  0  0  0
  7 37  1  0  0  0  0
  8 38  1  0  0  0  0
  9 39  1  0  0  0  0
 10 40  1  0  0  0  0
 17 41  1  0  0  0  0
 17 42  1  0  0  0  0
 18 43  1  0  0  0  0
 18 44  1  0  0  0  0
 19 45  1  0  0  0  0
 19 46  1  0  0  0  0
 20 47  1  0  0  0  0
 20 48  1  0  0  0  0
 21 49  1  0  0  0  0
 21 50  1  0  0  0  0
 22 51  1  0  0  0  0
 22 52  1  0  0  0  0
 23 53  1  0  0  0  0
 24 54  1  0  0  0  0
 25 55  1  0  0  0  0
 27 56  1  0  0  0  0
 28 57  1  0  0  0  0
M  CHG  1  28   1
M  END
> <compound>
MIC-UNK-5a93dd5f-2

> <compound_smiles>
c1ccc2c(c1)cncc2NC(=O)C(c3cccc(c3)Cl)N4CC5CCCCC5C4

> <enantiomer_smiles>
c1ccc2c(c1)cncc2NC(=O)[C@@H](c3cccc(c3)Cl)N4C[C@@H]5CCCC[C@H]5C4

> <scaffold>
chlorobenzene-linker

> <clash_score>
0

> <docking_score>
-11.003600120544434

> <overlap_score>
0.9796227812767029

> <MMFF_internal_energy>
182.46417860845958

> <docked_smiles>
c1ccc2c(c1)cncc2NC(=O)[C@@H](c3cccc(c3)Cl)[NH+]4C[C@@H]5CCCC[C@H]5C4

$$$$
MIC-UNK-5a93dd5f-1_1
  -OEChem-07262101023D

 54 58  0     1  0  0  0  0  0999 V2000
    3.4588    2.5719   20.0554 C   0  0  0  0  0  0  0  0  0  0  0  0
    4.0835    2.0505   21.1859 C   0  0  0  0  0  0  0  0  0  0  0  0
   11.9780    0.4600   23.9150 C   0  0  0  0  0  0  0  0  0  0  0  0
    3.8711    2.1742   18.7837 C   0  0  0  0  0  0  0  0  0  0  0  0
    5.1234    1.1291   21.0499 C   0  0  0  0  0  0  0  0  0  0  0  0
   10.6560    0.0720   23.7350 C   0  0  0  0  0  0  0  0  0  0  0  0
   12.9840   -0.1200   23.1530 C   0  0  0  0  0  0  0  0  0  0  0  0
   11.3360   -1.5050   22.0650 C   0  0  0  0  0  0  0  0  0  0  0  0
    5.3689    0.8151   17.3870 C   0  0  0  0  0  0  0  0  0  0  0  0
    6.9552   -0.5603   18.3181 C   0  0  0  0  0  0  0  0  0  0  0  0
    4.9163    1.2476   18.6351 C   0  0  0  0  0  0  0  0  0  0  0  0
    5.5514    0.7175   19.7772 C   0  0  0  0  0  0  0  0  0  0  0  0
   10.3220   -0.8940   22.7910 C   0  0  0  0  0  0  0  0  0  0  0  0
    6.5908   -0.2044   19.6077 C   0  0  0  0  0  0  0  0  0  0  0  0
   12.6400   -1.1000   22.2390 C   0  0  0  0  0  0  0  0  0  0  0  0
    8.3880   -0.3240   21.3070 C   0  0  0  0  0  0  0  0  0  0  0  0
    6.2055   -4.3856   25.0724 C   0  0  0  0  0  0  0  0  0  0  0  0
    7.6199   -3.8678   25.3405 C   0  0  0  0  0  0  0  0  0  0  0  0
    5.2833   -3.1691   25.0848 C   0  0  0  0  0  0  0  0  0  0  0  0
    8.5682   -1.5156   24.9428 C   0  0  0  0  0  0  0  0  0  0  0  0
    6.6297   -1.7187   23.4588 C   0  0  0  0  0  0  0  0  0  0  0  0
    7.4857   -2.3628   25.5945 C   0  0  2  0  0  0  0  0  0  0  0  0
    6.1940   -1.9694   24.8925 C   0  0  2  0  0  0  0  0  0  0  0  0
    8.8810   -1.1900   22.4510 C   0  0  1  0  0  0  0  0  0  0  0  0
    6.3708   -0.0740   17.2025 N   0  0  0  0  0  0  0  0  0  0  0  0
    7.2820   -0.7860   20.6970 N   0  0  0  0  0  0  0  0  0  0  0  0
    7.9698   -1.0401   23.6287 N   0  3  0  0  0  0  0  0  0  0  0  0
    8.9170    0.7530   21.0260 O   0  0  0  0  0  0  0  0  0  0  0  0
   13.8840   -1.8490   21.2740 Cl  0  0  0  0  0  0  0  0  0  0  0  0
    2.6499    3.2883   20.1641 H   0  0  0  0  0  0  0  0  0  0  0  0
    3.7607    2.3613   22.1754 H   0  0  0  0  0  0  0  0  0  0  0  0
   12.2249    1.2198   24.6546 H   0  0  0  0  0  0  0  0  0  0  0  0
    3.3723    2.5911   17.9118 H   0  0  0  0  0  0  0  0  0  0  0  0
    5.5866    0.7453   21.9560 H   0  0  0  0  0  0  0  0  0  0  0  0
    9.8763    0.5350   24.3454 H   0  0  0  0  0  0  0  0  0  0  0  0
   14.0077    0.1988   23.2842 H   0  0  0  0  0  0  0  0  0  0  0  0
   11.0892   -2.3009   21.3624 H   0  0  0  0  0  0  0  0  0  0  0  0
    4.9234    1.1835   16.4670 H   0  0  0  0  0  0  0  0  0  0  0  0
    7.7549   -1.2720   18.1337 H   0  0  0  0  0  0  0  0  0  0  0  0
    6.1649   -4.8859   24.0839 H   0  0  0  0  0  0  0  0  0  0  0  0
    5.8981   -5.1433   25.8189 H   0  0  0  0  0  0  0  0  0  0  0  0
    8.0175   -4.3570   26.2455 H   0  0  0  0  0  0  0  0  0  0  0  0
    8.3115   -4.1072   24.5179 H   0  0  0  0  0  0  0  0  0  0  0  0
    4.4904   -3.2437   24.3269 H   0  0  0  0  0  0  0  0  0  0  0  0
    4.7872   -3.1046   26.0661 H   0  0  0  0  0  0  0  0  0  0  0  0
    8.8373   -0.6245   25.5308 H   0  0  0  0  0  0  0  0  0  0  0  0
    9.4811   -2.0851   24.7016 H   0  0  0  0  0  0  0  0  0  0  0  0
    6.7915   -2.6378   22.8879 H   0  0  0  0  0  0  0  0  0  0  0  0
    5.9697   -1.0379   22.9170 H   0  0  0  0  0  0  0  0  0  0  0  0
    7.4343   -2.1547   26.6616 H   0  0  0  0  0  0  0  0  0  0  0  0
    5.7717   -1.0717   25.3236 H   0  0  0  0  0  0  0  0  0  0  0  0
    8.7698   -2.2472   22.1731 H   0  0  0  0  0  0  0  0  0  0  0  0
    6.8974   -1.6551   21.0612 H   0  0  0  0  0  0  0  0  0  0  0  0
    7.7867   -0.0140   23.7281 H   0  0  0  0  0  0  0  0  0  0  0  0
  1  2  1  0  0  0  0
  1  4  2  0  0  0  0
  2  5  2  0  0  0  0
  3  6  2  0  0  0  0
  3  7  1  0  0  0  0
  4 11  1  0  0  0  0
  5 12  1  0  0  0  0
  6 13  1  0  0  0  0
  7 15  2  0  0  0  0
  8 13  2  0  0  0  0
  8 15  1  0  0  0  0
  9 11  2  0  0  0  0
  9 25  1  0  0  0  0
 10 14  1  0  0  0  0
 10 25  2  0  0  0  0
 11 12  1  0  0  0  0
 12 14  2  0  0  0  0
 13 24  1  0  0  0  0
 14 26  1  0  0  0  0
 15 29  1  0  0  0  0
 16 24  1  1  0  0  0
 16 26  1  0  0  0  0
 16 28  2  0  0  0  0
 17 18  1  0  0  0  0
 17 19  1  0  0  0  0
 18 22  1  0  0  0  0
 19 23  1  1  0  0  0
 20 22  1  1  0  0  0
 20 27  1  0  0  0  0
 21 23  1  0  0  0  0
 21 27  1  0  0  0  0
 22 23  1  0  0  0  0
 24 27  1  0  0  0  0
  1 30  1  0  0  0  0
  2 31  1  0  0  0  0
  3 32  1  0  0  0  0
  4 33  1  0  0  0  0
  5 34  1  0  0  0  0
  6 35  1  0  0  0  0
  7 36  1  0  0  0  0
  8 37  1  0  0  0  0
  9 38  1  0  0  0  0
 10 39  1  0  0  0  0
 17 40  1  0  0  0  0
 17 41  1  0  0  0  0
 18 42  1  0  0  0  0
 18 43  1  0  0  0  0
 19 44  1  0  0  0  0
 19 45  1  0  0  0  0
 20 46  1  0  0  0  0
 20 47  1  0  0  0  0
 21 48  1  0  0  0  0
 21 49  1  0  0  0  0
 22 50  1  0  0  0  0
 23 51  1  0  0  0  0
 24 52  1  0  0  0  0
 26 53  1  0  0  0  0
 27 54  1  0  0  0  0
M  CHG  1  27   1
M  END
> <compound>
MIC-UNK-5a93dd5f-1

> <compound_smiles>
c1ccc2c(c1)cncc2NC(=O)C(c3cccc(c3)Cl)N4CC5CCCC5C4

> <enantiomer_smiles>
c1ccc2c(c1)cncc2NC(=O)[C@@H](c3cccc(c3)Cl)N4C[C@H]5CCC[C@H]5C4

> <scaffold>
chlorobenzene-linker

> <clash_score>
0

> <docking_score>
-11.172680854797363

> <overlap_score>
0.9814894199371338

> <MMFF_internal_energy>
181.55360948003312

> <docked_smiles>
c1ccc2c(c1)cncc2NC(=O)[C@@H](c3cccc(c3)Cl)[NH+]4C[C@H]5CCC[C@H]5C4

$$$$
MIC-UNK-5a93dd5f-2_2
  -OEChem-07262101023D

 57 61  0     1  0  0  0  0  0999 V2000
    4.8867    3.6427   19.7210 C   0  0  0  0  0  0  0  0  0  0  0  0
    5.5503    3.1504   20.8424 C   0  0  0  0  0  0  0  0  0  0  0  0
   11.9780    0.4600   23.9150 C   0  0  0  0  0  0  0  0  0  0  0  0
    4.7892    2.8630   18.5689 C   0  0  0  0  0  0  0  0  0  0  0  0
    6.1195    1.8760   20.8166 C   0  0  0  0  0  0  0  0  0  0  0  0
   10.6560    0.0720   23.7350 C   0  0  0  0  0  0  0  0  0  0  0  0
   12.9840   -0.1200   23.1530 C   0  0  0  0  0  0  0  0  0  0  0  0
   11.3360   -1.5050   22.0650 C   0  0  0  0  0  0  0  0  0  0  0  0
    5.2903    0.7565   17.4056 C   0  0  0  0  0  0  0  0  0  0  0  0
    6.4607   -0.9310   18.4340 C   0  0  0  0  0  0  0  0  0  0  0  0
    5.3581    1.5791   18.5317 C   0  0  0  0  0  0  0  0  0  0  0  0
    6.0308    1.0771   19.6649 C   0  0  0  0  0  0  0  0  0  0  0  0
   10.3220   -0.8940   22.7910 C   0  0  0  0  0  0  0  0  0  0  0  0
    6.5908   -0.2044   19.6077 C   0  0  0  0  0  0  0  0  0  0  0  0
   12.6400   -1.1000   22.2390 C   0  0  0  0  0  0  0  0  0  0  0  0
    8.3880   -0.3240   21.3070 C   0  0  0  0  0  0  0  0  0  0  0  0
    7.5944   -6.7799   21.7663 C   0  0  0  0  0  0  0  0  0  0  0  0
    6.2226   -6.1138   21.7634 C   0  0  0  0  0  0  0  0  0  0  0  0
    8.7101   -5.7424   21.8226 C   0  0  0  0  0  0  0  0  0  0  0  0
    6.0346   -5.2077   22.9775 C   0  0  0  0  0  0  0  0  0  0  0  0
    9.4527   -3.5945   22.9569 C   0  0  0  0  0  0  0  0  0  0  0  0
    7.1870   -3.0557   22.1868 C   0  0  0  0  0  0  0  0  0  0  0  0
    8.5686   -4.8303   23.0488 C   0  0  2  0  0  0  0  0  0  0  0  0
    7.1758   -4.2136   23.1824 C   0  0  2  0  0  0  0  0  0  0  0  0
    8.8810   -1.1900   22.4510 C   0  0  2  0  0  0  0  0  0  0  0  0
    5.8245   -0.4834   17.3305 N   0  0  0  0  0  0  0  0  0  0  0  0
    7.2820   -0.7860   20.6970 N   0  0  0  0  0  0  0  0  0  0  0  0
    8.6445   -2.6289   22.1109 N   0  3  0  0  0  0  0  0  0  0  0  0
    8.9170    0.7530   21.0260 O   0  0  0  0  0  0  0  0  0  0  0  0
   13.8840   -1.8490   21.2740 Cl  0  0  0  0  0  0  0  0  0  0  0  0
    4.4446    4.6345   19.7440 H   0  0  0  0  0  0  0  0  0  0  0  0
    5.6249    3.7592   21.7389 H   0  0  0  0  0  0  0  0  0  0  0  0
   12.2249    1.2198   24.6546 H   0  0  0  0  0  0  0  0  0  0  0  0
    4.2675    3.2627   17.7024 H   0  0  0  0  0  0  0  0  0  0  0  0
    6.6299    1.5271   21.7114 H   0  0  0  0  0  0  0  0  0  0  0  0
    9.8763    0.5350   24.3454 H   0  0  0  0  0  0  0  0  0  0  0  0
   14.0077    0.1988   23.2842 H   0  0  0  0  0  0  0  0  0  0  0  0
   11.0892   -2.3009   21.3624 H   0  0  0  0  0  0  0  0  0  0  0  0
    4.7868    1.0816   16.4993 H   0  0  0  0  0  0  0  0  0  0  0  0
    6.8769   -1.9300   18.3396 H   0  0  0  0  0  0  0  0  0  0  0  0
    7.6753   -7.4566   22.6257 H   0  0  0  0  0  0  0  0  0  0  0  0
    7.7073   -7.3923   20.8646 H   0  0  0  0  0  0  0  0  0  0  0  0
    6.0974   -5.5338   20.8415 H   0  0  0  0  0  0  0  0  0  0  0  0
    5.4417   -6.8828   21.7582 H   0  0  0  0  0  0  0  0  0  0  0  0
    9.6816   -6.2501   21.8567 H   0  0  0  0  0  0  0  0  0  0  0  0
    8.7005   -5.1591   20.8938 H   0  0  0  0  0  0  0  0  0  0  0  0
    5.0797   -4.6755   22.8970 H   0  0  0  0  0  0  0  0  0  0  0  0
    5.9646   -5.8417   23.8709 H   0  0  0  0  0  0  0  0  0  0  0  0
    9.5961   -3.1356   23.9417 H   0  0  0  0  0  0  0  0  0  0  0  0
   10.4170   -3.7580   22.4674 H   0  0  0  0  0  0  0  0  0  0  0  0
    6.8948   -3.3420   21.1723 H   0  0  0  0  0  0  0  0  0  0  0  0
    6.5763   -2.2116   22.5230 H   0  0  0  0  0  0  0  0  0  0  0  0
    8.8137   -5.4092   23.9474 H   0  0  0  0  0  0  0  0  0  0  0  0
    7.0751   -3.7849   24.1899 H   0  0  0  0  0  0  0  0  0  0  0  0
    8.2445   -1.0188   23.3300 H   0  0  0  0  0  0  0  0  0  0  0  0
    6.8974   -1.6551   21.0612 H   0  0  0  0  0  0  0  0  0  0  0  0
    8.9436   -2.7606   21.1350 H   0  0  0  0  0  0  0  0  0  0  0  0
  1  2  1  0  0  0  0
  1  4  2  0  0  0  0
  2  5  2  0  0  0  0
  3  6  2  0  0  0  0
  3  7  1  0  0  0  0
  4 11  1  0  0  0  0
  5 12  1  0  0  0  0
  6 13  1  0  0  0  0
  7 15  2  0  0  0  0
  8 13  2  0  0  0  0
  8 15  1  0  0  0  0
  9 11  2  0  0  0  0
  9 26  1  0  0  0  0
 10 14  1  0  0  0  0
 10 26  2  0  0  0  0
 11 12  1  0  0  0  0
 12 14  2  0  0  0  0
 13 25  1  0  0  0  0
 14 27  1  0  0  0  0
 15 30  1  0  0  0  0
 16 25  1  6  0  0  0
 16 27  1  0  0  0  0
 16 29  2  0  0  0  0
 17 18  1  0  0  0  0
 17 19  1  0  0  0  0
 18 20  1  0  0  0  0
 19 23  1  0  0  0  0
 20 24  1  1  0  0  0
 21 23  1  1  0  0  0
 21 28  1  0  0  0  0
 22 24  1  0  0  0  0
 22 28  1  0  0  0  0
 23 24  1  0  0  0  0
 25 28  1  0  0  0  0
  1 31  1  0  0  0  0
  2 32  1  0  0  0  0
  3 33  1  0  0  0  0
  4 34  1  0  0  0  0
  5 35  1  0  0  0  0
  6 36  1  0  0  0  0
  7 37  1  0  0  0  0
  8 38  1  0  0  0  0
  9 39  1  0  0  0  0
 10 40  1  0  0  0  0
 17 41  1  0  0  0  0
 17 42  1  0  0  0  0
 18 43  1  0  0  0  0
 18 44  1  0  0  0  0
 19 45  1  0  0  0  0
 19 46  1  0  0  0  0
 20 47  1  0  0  0  0
 20 48  1  0  0  0  0
 21 49  1  0  0  0  0
 21 50  1  0  0  0  0
 22 51  1  0  0  0  0
 22 52  1  0  0  0  0
 23 53  1  0  0  0  0
 24 54  1  0  0  0  0
 25 55  1  0  0  0  0
 27 56  1  0  0  0  0
 28 57  1  0  0  0  0
M  CHG  1  28   1
M  END
> <compound>
MIC-UNK-5a93dd5f-2

> <compound_smiles>
c1ccc2c(c1)cncc2NC(=O)C(c3cccc(c3)Cl)N4CC5CCCCC5C4

> <enantiomer_smiles>
c1ccc2c(c1)cncc2NC(=O)[C@H](c3cccc(c3)Cl)N4C[C@H]5CCCC[C@H]5C4

> <scaffold>
chlorobenzene-linker

> <clash_score>
1.2832398747038236

> <docking_score>
-3.1375043392181396

> <overlap_score>
0.8401969075202942

> <MMFF_internal_energy>
192.95181864575954

> <docked_smiles>
c1ccc2c(c1)cncc2NC(=O)[C@H](c3cccc(c3)Cl)[NH+]4C[C@H]5CCCC[C@H]5C4

$$$$
MIC-UNK-5a93dd5f-2_1
  -OEChem-07262101023D

 57 61  0     1  0  0  0  0  0999 V2000
    3.4588    2.5718   20.0554 C   0  0  0  0  0  0  0  0  0  0  0  0
    4.0835    2.0505   21.1859 C   0  0  0  0  0  0  0  0  0  0  0  0
   11.9780    0.4600   23.9150 C   0  0  0  0  0  0  0  0  0  0  0  0
    3.8711    2.1742   18.7837 C   0  0  0  0  0  0  0  0  0  0  0  0
    5.1234    1.1291   21.0499 C   0  0  0  0  0  0  0  0  0  0  0  0
   10.6560    0.0720   23.7350 C   0  0  0  0  0  0  0  0  0  0  0  0
   12.9840   -0.1200   23.1530 C   0  0  0  0  0  0  0  0  0  0  0  0
   11.3360   -1.5050   22.0650 C   0  0  0  0  0  0  0  0  0  0  0  0
    5.3689    0.8151   17.3870 C   0  0  0  0  0  0  0  0  0  0  0  0
    6.9552   -0.5603   18.3181 C   0  0  0  0  0  0  0  0  0  0  0  0
    4.9163    1.2476   18.6350 C   0  0  0  0  0  0  0  0  0  0  0  0
    5.5514    0.7175   19.7772 C   0  0  0  0  0  0  0  0  0  0  0  0
   10.3220   -0.8940   22.7910 C   0  0  0  0  0  0  0  0  0  0  0  0
    6.5908   -0.2044   19.6077 C   0  0  0  0  0  0  0  0  0  0  0  0
   12.6400   -1.1000   22.2390 C   0  0  0  0  0  0  0  0  0  0  0  0
    8.3880   -0.3240   21.3070 C   0  0  0  0  0  0  0  0  0  0  0  0
    5.5089   -1.2986   27.1411 C   0  0  0  0  0  0  0  0  0  0  0  0
    6.8918   -1.5949   27.7114 C   0  0  0  0  0  0  0  0  0  0  0  0
    5.5832   -0.9869   25.6505 C   0  0  0  0  0  0  0  0  0  0  0  0
    7.5721   -2.7426   26.9695 C   0  0  0  0  0  0  0  0  0  0  0  0
    6.6262   -1.7234   23.4549 C   0  0  0  0  0  0  0  0  0  0  0  0
    8.5645   -1.5190   24.9441 C   0  0  0  0  0  0  0  0  0  0  0  0
    6.2370   -2.1340   24.8681 C   0  0  2  0  0  0  0  0  0  0  0  0
    7.5810   -2.5711   25.4519 C   0  0  2  0  0  0  0  0  0  0  0  0
    8.8810   -1.1900   22.4510 C   0  0  1  0  0  0  0  0  0  0  0  0
    6.3708   -0.0740   17.2025 N   0  0  0  0  0  0  0  0  0  0  0  0
    7.2820   -0.7860   20.6970 N   0  0  0  0  0  0  0  0  0  0  0  0
    7.9692   -1.0400   23.6294 N   0  3  0  0  0  0  0  0  0  0  0  0
    8.9170    0.7530   21.0260 O   0  0  0  0  0  0  0  0  0  0  0  0
   13.8840   -1.8490   21.2740 Cl  0  0  0  0  0  0  0  0  0  0  0  0
    2.6499    3.2883   20.1641 H   0  0  0  0  0  0  0  0  0  0  0  0
    3.7607    2.3613   22.1754 H   0  0  0  0  0  0  0  0  0  0  0  0
   12.2249    1.2198   24.6546 H   0  0  0  0  0  0  0  0  0  0  0  0
    3.3723    2.5910   17.9118 H   0  0  0  0  0  0  0  0  0  0  0  0
    5.5866    0.7453   21.9560 H   0  0  0  0  0  0  0  0  0  0  0  0
    9.8763    0.5350   24.3454 H   0  0  0  0  0  0  0  0  0  0  0  0
   14.0077    0.1988   23.2842 H   0  0  0  0  0  0  0  0  0  0  0  0
   11.0892   -2.3009   21.3624 H   0  0  0  0  0  0  0  0  0  0  0  0
    4.9234    1.1835   16.4670 H   0  0  0  0  0  0  0  0  0  0  0  0
    7.7549   -1.2720   18.1337 H   0  0  0  0  0  0  0  0  0  0  0  0
    4.8484   -2.1585   27.3065 H   0  0  0  0  0  0  0  0  0  0  0  0
    5.0669   -0.4483   27.6727 H   0  0  0  0  0  0  0  0  0  0  0  0
    7.5135   -0.6936   27.6556 H   0  0  0  0  0  0  0  0  0  0  0  0
    6.8035   -1.8493   28.7737 H   0  0  0  0  0  0  0  0  0  0  0  0
    4.5728   -0.8107   25.2621 H   0  0  0  0  0  0  0  0  0  0  0  0
    6.1344   -0.0491   25.5104 H   0  0  0  0  0  0  0  0  0  0  0  0
    8.5955   -2.8680   27.3416 H   0  0  0  0  0  0  0  0  0  0  0  0
    7.0368   -3.6707   27.2088 H   0  0  0  0  0  0  0  0  0  0  0  0
    6.7788   -2.6001   22.8152 H   0  0  0  0  0  0  0  0  0  0  0  0
    5.9395   -1.0178   22.9786 H   0  0  0  0  0  0  0  0  0  0  0  0
    8.6417   -0.6384   25.5884 H   0  0  0  0  0  0  0  0  0  0  0  0
    9.5615   -1.9337   24.7639 H   0  0  0  0  0  0  0  0  0  0  0  0
    5.5423   -2.9820   24.8418 H   0  0  0  0  0  0  0  0  0  0  0  0
    7.8637   -3.5344   25.0035 H   0  0  0  0  0  0  0  0  0  0  0  0
    8.7698   -2.2472   22.1731 H   0  0  0  0  0  0  0  0  0  0  0  0
    6.8974   -1.6551   21.0612 H   0  0  0  0  0  0  0  0  0  0  0  0
    7.7832   -0.0332   23.7352 H   0  0  0  0  0  0  0  0  0  0  0  0
  1  2  1  0  0  0  0
  1  4  2  0  0  0  0
  2  5  2  0  0  0  0
  3  6  2  0  0  0  0
  3  7  1  0  0  0  0
  4 11  1  0  0  0  0
  5 12  1  0  0  0  0
  6 13  1  0  0  0  0
  7 15  2  0  0  0  0
  8 13  2  0  0  0  0
  8 15  1  0  0  0  0
  9 11  2  0  0  0  0
  9 26  1  0  0  0  0
 10 14  1  0  0  0  0
 10 26  2  0  0  0  0
 11 12  1  0  0  0  0
 12 14  2  0  0  0  0
 13 25  1  0  0  0  0
 14 27  1  0  0  0  0
 15 30  1  0  0  0  0
 16 25  1  1  0  0  0
 16 27  1  0  0  0  0
 16 29  2  0  0  0  0
 17 18  1  0  0  0  0
 17 19  1  0  0  0  0
 18 20  1  0  0  0  0
 19 23  1  0  0  0  0
 20 24  1  1  0  0  0
 21 23  1  1  0  0  0
 21 28  1  0  0  0  0
 22 24  1  0  0  0  0
 22 28  1  0  0  0  0
 23 24  1  0  0  0  0
 25 28  1  0  0  0  0
  1 31  1  0  0  0  0
  2 32  1  0  0  0  0
  3 33  1  0  0  0  0
  4 34  1  0  0  0  0
  5 35  1  0  0  0  0
  6 36  1  0  0  0  0
  7 37  1  0  0  0  0
  8 38  1  0  0  0  0
  9 39  1  0  0  0  0
 10 40  1  0  0  0  0
 17 41  1  0  0  0  0
 17 42  1  0  0  0  0
 18 43  1  0  0  0  0
 18 44  1  0  0  0  0
 19 45  1  0  0  0  0
 19 46  1  0  0  0  0
 20 47  1  0  0  0  0
 20 48  1  0  0  0  0
 21 49  1  0  0  0  0
 21 50  1  0  0  0  0
 22 51  1  0  0  0  0
 22 52  1  0  0  0  0
 23 53  1  0  0  0  0
 24 54  1  0  0  0  0
 25 55  1  0  0  0  0
 27 56  1  0  0  0  0
 28 57  1  0  0  0  0
M  CHG  1  28   1
M  END
> <compound>
MIC-UNK-5a93dd5f-2

> <compound_smiles>
c1ccc2c(c1)cncc2NC(=O)C(c3cccc(c3)Cl)N4CC5CCCCC5C4

> <enantiomer_smiles>
c1ccc2c(c1)cncc2NC(=O)[C@@H](c3cccc(c3)Cl)N4C[C@H]5CCCC[C@H]5C4

> <scaffold>
chlorobenzene-linker

> <clash_score>
0

> <docking_score>
-10.46675968170166

> <overlap_score>
0.9795893430709839

> <MMFF_internal_energy>
174.7930428080768

> <docked_smiles>
c1ccc2c(c1)cncc2NC(=O)[C@@H](c3cccc(c3)Cl)[NH+]4C[C@H]5CCCC[C@H]5C4

$$$$
MIC-UNK-5a93dd5f-1_2
  -OEChem-07262101023D

 54 58  0     1  0  0  0  0  0999 V2000
    4.8867    3.6427   19.7210 C   0  0  0  0  0  0  0  0  0  0  0  0
    5.5503    3.1504   20.8424 C   0  0  0  0  0  0  0  0  0  0  0  0
   11.9780    0.4600   23.9150 C   0  0  0  0  0  0  0  0  0  0  0  0
    4.7892    2.8630   18.5689 C   0  0  0  0  0  0  0  0  0  0  0  0
    6.1195    1.8760   20.8166 C   0  0  0  0  0  0  0  0  0  0  0  0
   10.6560    0.0720   23.7350 C   0  0  0  0  0  0  0  0  0  0  0  0
   12.9840   -0.1200   23.1530 C   0  0  0  0  0  0  0  0  0  0  0  0
   11.3360   -1.5050   22.0650 C   0  0  0  0  0  0  0  0  0  0  0  0
    5.2903    0.7565   17.4056 C   0  0  0  0  0  0  0  0  0  0  0  0
    6.4606   -0.9310   18.4340 C   0  0  0  0  0  0  0  0  0  0  0  0
    5.3581    1.5791   18.5317 C   0  0  0  0  0  0  0  0  0  0  0  0
    6.0308    1.0771   19.6649 C   0  0  0  0  0  0  0  0  0  0  0  0
   10.3220   -0.8940   22.7910 C   0  0  0  0  0  0  0  0  0  0  0  0
    6.5908   -0.2044   19.6077 C   0  0  0  0  0  0  0  0  0  0  0  0
   12.6400   -1.1000   22.2390 C   0  0  0  0  0  0  0  0  0  0  0  0
    8.3880   -0.3240   21.3070 C   0  0  0  0  0  0  0  0  0  0  0  0
    7.8723   -5.1693   25.1665 C   0  0  0  0  0  0  0  0  0  0  0  0
    6.9051   -4.2241   24.4511 C   0  0  0  0  0  0  0  0  0  0  0  0
    8.7649   -5.7809   24.0897 C   0  0  0  0  0  0  0  0  0  0  0  0
    7.1880   -3.0573   22.1820 C   0  0  0  0  0  0  0  0  0  0  0  0
    9.4520   -3.5928   22.9494 C   0  0  0  0  0  0  0  0  0  0  0  0
    7.1921   -4.3687   22.9530 C   0  0  2  0  0  0  0  0  0  0  0  0
    8.6282   -4.8677   22.8843 C   0  0  2  0  0  0  0  0  0  0  0  0
    8.8810   -1.1900   22.4510 C   0  0  2  0  0  0  0  0  0  0  0  0
    5.8245   -0.4834   17.3305 N   0  0  0  0  0  0  0  0  0  0  0  0
    7.2820   -0.7860   20.6970 N   0  0  0  0  0  0  0  0  0  0  0  0
    8.6446   -2.6280   22.1111 N   0  3  0  0  0  0  0  0  0  0  0  0
    8.9170    0.7530   21.0260 O   0  0  0  0  0  0  0  0  0  0  0  0
   13.8840   -1.8490   21.2740 Cl  0  0  0  0  0  0  0  0  0  0  0  0
    4.4446    4.6344   19.7440 H   0  0  0  0  0  0  0  0  0  0  0  0
    5.6249    3.7592   21.7389 H   0  0  0  0  0  0  0  0  0  0  0  0
   12.2249    1.2198   24.6546 H   0  0  0  0  0  0  0  0  0  0  0  0
    4.2674    3.2627   17.7024 H   0  0  0  0  0  0  0  0  0  0  0  0
    6.6299    1.5271   21.7114 H   0  0  0  0  0  0  0  0  0  0  0  0
    9.8763    0.5350   24.3454 H   0  0  0  0  0  0  0  0  0  0  0  0
   14.0077    0.1988   23.2842 H   0  0  0  0  0  0  0  0  0  0  0  0
   11.0892   -2.3009   21.3624 H   0  0  0  0  0  0  0  0  0  0  0  0
    4.7868    1.0816   16.4993 H   0  0  0  0  0  0  0  0  0  0  0  0
    6.8769   -1.9300   18.3396 H   0  0  0  0  0  0  0  0  0  0  0  0
    8.4863   -4.6039   25.8961 H   0  0  0  0  0  0  0  0  0  0  0  0
    7.3345   -5.9448   25.7454 H   0  0  0  0  0  0  0  0  0  0  0  0
    5.8699   -4.5437   24.6572 H   0  0  0  0  0  0  0  0  0  0  0  0
    6.9970   -3.1875   24.8105 H   0  0  0  0  0  0  0  0  0  0  0  0
    9.8024   -5.9022   24.4326 H   0  0  0  0  0  0  0  0  0  0  0  0
    8.3882   -6.7851   23.8388 H   0  0  0  0  0  0  0  0  0  0  0  0
    6.8178   -3.1594   21.1502 H   0  0  0  0  0  0  0  0  0  0  0  0
    6.6326   -2.2532   22.6929 H   0  0  0  0  0  0  0  0  0  0  0  0
    9.5268   -3.1761   23.9581 H   0  0  0  0  0  0  0  0  0  0  0  0
   10.4411   -3.6913   22.4972 H   0  0  0  0  0  0  0  0  0  0  0  0
    6.5052   -5.0781   22.4952 H   0  0  0  0  0  0  0  0  0  0  0  0
    8.8159   -5.3944   21.9583 H   0  0  0  0  0  0  0  0  0  0  0  0
    8.2445   -1.0188   23.3300 H   0  0  0  0  0  0  0  0  0  0  0  0
    6.8974   -1.6551   21.0612 H   0  0  0  0  0  0  0  0  0  0  0  0
    8.9524   -2.7488   21.1177 H   0  0  0  0  0  0  0  0  0  0  0  0
  1  2  1  0  0  0  0
  1  4  2  0  0  0  0
  2  5  2  0  0  0  0
  3  6  2  0  0  0  0
  3  7  1  0  0  0  0
  4 11  1  0  0  0  0
  5 12  1  0  0  0  0
  6 13  1  0  0  0  0
  7 15  2  0  0  0  0
  8 13  2  0  0  0  0
  8 15  1  0  0  0  0
  9 11  2  0  0  0  0
  9 25  1  0  0  0  0
 10 14  1  0  0  0  0
 10 25  2  0  0  0  0
 11 12  1  0  0  0  0
 12 14  2  0  0  0  0
 13 24  1  0  0  0  0
 14 26  1  0  0  0  0
 15 29  1  0  0  0  0
 16 24  1  6  0  0  0
 16 26  1  0  0  0  0
 16 28  2  0  0  0  0
 17 18  1  0  0  0  0
 17 19  1  0  0  0  0
 18 22  1  0  0  0  0
 19 23  1  1  0  0  0
 20 22  1  1  0  0  0
 20 27  1  0  0  0  0
 21 23  1  0  0  0  0
 21 27  1  0  0  0  0
 22 23  1  0  0  0  0
 24 27  1  0  0  0  0
  1 30  1  0  0  0  0
  2 31  1  0  0  0  0
  3 32  1  0  0  0  0
  4 33  1  0  0  0  0
  5 34  1  0  0  0  0
  6 35  1  0  0  0  0
  7 36  1  0  0  0  0
  8 37  1  0  0  0  0
  9 38  1  0  0  0  0
 10 39  1  0  0  0  0
 17 40  1  0  0  0  0
 17 41  1  0  0  0  0
 18 42  1  0  0  0  0
 18 43  1  0  0  0  0
 19 44  1  0  0  0  0
 19 45  1  0  0  0  0
 20 46  1  0  0  0  0
 20 47  1  0  0  0  0
 21 48  1  0  0  0  0
 21 49  1  0  0  0  0
 22 50  1  0  0  0  0
 23 51  1  0  0  0  0
 24 52  1  0  0  0  0
 26 53  1  0  0  0  0
 27 54  1  0  0  0  0
M  CHG  1  27   1
M  END
> <compound>
MIC-UNK-5a93dd5f-1

> <compound_smiles>
c1ccc2c(c1)cncc2NC(=O)C(c3cccc(c3)Cl)N4CC5CCCC5C4

> <enantiomer_smiles>
c1ccc2c(c1)cncc2NC(=O)[C@H](c3cccc(c3)Cl)N4C[C@H]5CCC[C@H]5C4

> <scaffold>
chlorobenzene-linker

> <clash_score>
0.6532367129491695

> <docking_score>
-3.8649091720581055

> <overlap_score>
0.8418238162994385

> <MMFF_internal_energy>
202.0335930421608

> <docked_smiles>
c1ccc2c(c1)cncc2NC(=O)[C@H](c3cccc(c3)Cl)[NH+]4C[C@H]5CCC[C@H]5C4

$$$$
MIC-UNK-5a93dd5f-1_4
  -OEChem-07262101023D

 54 58  0     1  0  0  0  0  0999 V2000
    3.4588    2.5718   20.0554 C   0  0  0  0  0  0  0  0  0  0  0  0
    4.0835    2.0505   21.1859 C   0  0  0  0  0  0  0  0  0  0  0  0
   11.9780    0.4600   23.9150 C   0  0  0  0  0  0  0  0  0  0  0  0
    3.8710    2.1742   18.7837 C   0  0  0  0  0  0  0  0  0  0  0  0
    5.1234    1.1291   21.0499 C   0  0  0  0  0  0  0  0  0  0  0  0
   10.6560    0.0720   23.7350 C   0  0  0  0  0  0  0  0  0  0  0  0
   12.9840   -0.1200   23.1530 C   0  0  0  0  0  0  0  0  0  0  0  0
   11.3360   -1.5050   22.0650 C   0  0  0  0  0  0  0  0  0  0  0  0
    5.3689    0.8151   17.3870 C   0  0  0  0  0  0  0  0  0  0  0  0
    6.9552   -0.5603   18.3181 C   0  0  0  0  0  0  0  0  0  0  0  0
    4.9163    1.2476   18.6351 C   0  0  0  0  0  0  0  0  0  0  0  0
    5.5514    0.7175   19.7772 C   0  0  0  0  0  0  0  0  0  0  0  0
   10.3220   -0.8940   22.7910 C   0  0  0  0  0  0  0  0  0  0  0  0
    6.5908   -0.2044   19.6077 C   0  0  0  0  0  0  0  0  0  0  0  0
   12.6400   -1.1000   22.2390 C   0  0  0  0  0  0  0  0  0  0  0  0
    8.3880   -0.3240   21.3070 C   0  0  0  0  0  0  0  0  0  0  0  0
    7.0454   -6.2022   24.3218 C   0  0  0  0  0  0  0  0  0  0  0  0
    8.5201   -5.7368   24.2638 C   0  0  0  0  0  0  0  0  0  0  0  0
    6.2262   -5.1881   23.4880 C   0  0  0  0  0  0  0  0  0  0  0  0
    9.4626   -3.6026   22.9878 C   0  0  0  0  0  0  0  0  0  0  0  0
    7.1621   -3.0590   22.1980 C   0  0  0  0  0  0  0  0  0  0  0  0
    8.5046   -4.7561   23.1152 C   0  0  1  0  0  0  0  0  0  0  0  0
    7.1901   -4.0342   23.3448 C   0  0  2  0  0  0  0  0  0  0  0  0
    8.8810   -1.1900   22.4510 C   0  0  2  0  0  0  0  0  0  0  0  0
    6.3708   -0.0740   17.2025 N   0  0  0  0  0  0  0  0  0  0  0  0
    7.2820   -0.7860   20.6970 N   0  0  0  0  0  0  0  0  0  0  0  0
    8.6446   -2.6286   22.1110 N   0  3  0  0  0  0  0  0  0  0  0  0
    8.9170    0.7530   21.0260 O   0  0  0  0  0  0  0  0  0  0  0  0
   13.8840   -1.8490   21.2740 Cl  0  0  0  0  0  0  0  0  0  0  0  0
    2.6499    3.2883   20.1641 H   0  0  0  0  0  0  0  0  0  0  0  0
    3.7607    2.3613   22.1754 H   0  0  0  0  0  0  0  0  0  0  0  0
   12.2249    1.2198   24.6546 H   0  0  0  0  0  0  0  0  0  0  0  0
    3.3723    2.5910   17.9118 H   0  0  0  0  0  0  0  0  0  0  0  0
    5.5866    0.7453   21.9560 H   0  0  0  0  0  0  0  0  0  0  0  0
    9.8763    0.5350   24.3454 H   0  0  0  0  0  0  0  0  0  0  0  0
   14.0077    0.1988   23.2842 H   0  0  0  0  0  0  0  0  0  0  0  0
   11.0892   -2.3009   21.3624 H   0  0  0  0  0  0  0  0  0  0  0  0
    4.9234    1.1835   16.4670 H   0  0  0  0  0  0  0  0  0  0  0  0
    7.7549   -1.2720   18.1337 H   0  0  0  0  0  0  0  0  0  0  0  0
    6.9320   -7.2103   23.9087 H   0  0  0  0  0  0  0  0  0  0  0  0
    6.6999   -6.2278   25.3611 H   0  0  0  0  0  0  0  0  0  0  0  0
    8.8001   -5.2482   25.2042 H   0  0  0  0  0  0  0  0  0  0  0  0
    9.2069   -6.5715   24.0967 H   0  0  0  0  0  0  0  0  0  0  0  0
    5.9710   -5.6197   22.5131 H   0  0  0  0  0  0  0  0  0  0  0  0
    5.2961   -4.9025   23.9876 H   0  0  0  0  0  0  0  0  0  0  0  0
    9.6700   -3.1091   23.9428 H   0  0  0  0  0  0  0  0  0  0  0  0
   10.3870   -3.8398   22.4555 H   0  0  0  0  0  0  0  0  0  0  0  0
    6.9155   -3.5217   21.2373 H   0  0  0  0  0  0  0  0  0  0  0  0
    6.5372   -2.1797   22.3770 H   0  0  0  0  0  0  0  0  0  0  0  0
    8.4884   -5.3179   22.1682 H   0  0  0  0  0  0  0  0  0  0  0  0
    7.2097   -3.4707   24.2911 H   0  0  0  0  0  0  0  0  0  0  0  0
    8.2445   -1.0188   23.3300 H   0  0  0  0  0  0  0  0  0  0  0  0
    6.8974   -1.6551   21.0612 H   0  0  0  0  0  0  0  0  0  0  0  0
    8.9408   -2.7710   21.1357 H   0  0  0  0  0  0  0  0  0  0  0  0
  1  2  1  0  0  0  0
  1  4  2  0  0  0  0
  2  5  2  0  0  0  0
  3  6  2  0  0  0  0
  3  7  1  0  0  0  0
  4 11  1  0  0  0  0
  5 12  1  0  0  0  0
  6 13  1  0  0  0  0
  7 15  2  0  0  0  0
  8 13  2  0  0  0  0
  8 15  1  0  0  0  0
  9 11  2  0  0  0  0
  9 25  1  0  0  0  0
 10 14  1  0  0  0  0
 10 25  2  0  0  0  0
 11 12  1  0  0  0  0
 12 14  2  0  0  0  0
 13 24  1  0  0  0  0
 14 26  1  0  0  0  0
 15 29  1  0  0  0  0
 16 24  1  6  0  0  0
 16 26  1  0  0  0  0
 16 28  2  0  0  0  0
 17 18  1  0  0  0  0
 17 19  1  0  0  0  0
 18 22  1  0  0  0  0
 19 23  1  1  0  0  0
 20 22  1  6  0  0  0
 20 27  1  0  0  0  0
 21 23  1  0  0  0  0
 21 27  1  0  0  0  0
 22 23  1  0  0  0  0
 24 27  1  0  0  0  0
  1 30  1  0  0  0  0
  2 31  1  0  0  0  0
  3 32  1  0  0  0  0
  4 33  1  0  0  0  0
  5 34  1  0  0  0  0
  6 35  1  0  0  0  0
  7 36  1  0  0  0  0
  8 37  1  0  0  0  0
  9 38  1  0  0  0  0
 10 39  1  0  0  0  0
 17 40  1  0  0  0  0
 17 41  1  0  0  0  0
 18 42  1  0  0  0  0
 18 43  1  0  0  0  0
 19 44  1  0  0  0  0
 19 45  1  0  0  0  0
 20 46  1  0  0  0  0
 20 47  1  0  0  0  0
 21 48  1  0  0  0  0
 21 49  1  0  0  0  0
 22 50  1  0  0  0  0
 23 51  1  0  0  0  0
 24 52  1  0  0  0  0
 26 53  1  0  0  0  0
 27 54  1  0  0  0  0
M  CHG  1  27   1
M  END
> <compound>
MIC-UNK-5a93dd5f-1

> <compound_smiles>
c1ccc2c(c1)cncc2NC(=O)C(c3cccc(c3)Cl)N4CC5CCCC5C4

> <enantiomer_smiles>
c1ccc2c(c1)cncc2NC(=O)[C@H](c3cccc(c3)Cl)N4C[C@H]5CCC[C@@H]5C4

> <scaffold>
chlorobenzene-linker

> <clash_score>
0

> <docking_score>
-9.611210823059082

> <overlap_score>
0.9821276664733887

> <MMFF_internal_energy>
211.04139180536762

> <docked_smiles>
c1ccc2c(c1)cncc2NC(=O)[C@H](c3cccc(c3)Cl)[NH+]4C[C@H]5CCC[C@@H]5C4

$$$$
MIC-UNK-5a93dd5f-2_4
  -OEChem-07262101023D

 57 61  0     1  0  0  0  0  0999 V2000
    3.4588    2.5719   20.0554 C   0  0  0  0  0  0  0  0  0  0  0  0
    4.0835    2.0505   21.1859 C   0  0  0  0  0  0  0  0  0  0  0  0
   11.9780    0.4600   23.9150 C   0  0  0  0  0  0  0  0  0  0  0  0
    3.8711    2.1742   18.7838 C   0  0  0  0  0  0  0  0  0  0  0  0
    5.1234    1.1291   21.0499 C   0  0  0  0  0  0  0  0  0  0  0  0
   10.6560    0.0720   23.7350 C   0  0  0  0  0  0  0  0  0  0  0  0
   12.9840   -0.1200   23.1530 C   0  0  0  0  0  0  0  0  0  0  0  0
   11.3360   -1.5050   22.0650 C   0  0  0  0  0  0  0  0  0  0  0  0
    5.3689    0.8151   17.3870 C   0  0  0  0  0  0  0  0  0  0  0  0
    6.9552   -0.5603   18.3181 C   0  0  0  0  0  0  0  0  0  0  0  0
    4.9163    1.2476   18.6351 C   0  0  0  0  0  0  0  0  0  0  0  0
    5.5514    0.7175   19.7772 C   0  0  0  0  0  0  0  0  0  0  0  0
   10.3220   -0.8940   22.7910 C   0  0  0  0  0  0  0  0  0  0  0  0
    6.5908   -0.2044   19.6077 C   0  0  0  0  0  0  0  0  0  0  0  0
   12.6400   -1.1000   22.2390 C   0  0  0  0  0  0  0  0  0  0  0  0
    8.3880   -0.3240   21.3070 C   0  0  0  0  0  0  0  0  0  0  0  0
    7.6852   -6.8045   24.2975 C   0  0  0  0  0  0  0  0  0  0  0  0
    6.2872   -6.1743   24.3650 C   0  0  0  0  0  0  0  0  0  0  0  0
    8.8064   -5.7594   24.2310 C   0  0  0  0  0  0  0  0  0  0  0  0
    6.0526   -5.1265   23.2691 C   0  0  0  0  0  0  0  0  0  0  0  0
    9.4578   -3.5965   22.9705 C   0  0  0  0  0  0  0  0  0  0  0  0
    7.1781   -3.0605   22.1910 C   0  0  0  0  0  0  0  0  0  0  0  0
    8.5278   -4.7859   23.0966 C   0  0  1  0  0  0  0  0  0  0  0  0
    7.1790   -4.1050   23.2911 C   0  0  2  0  0  0  0  0  0  0  0  0
    8.8810   -1.1900   22.4510 C   0  0  2  0  0  0  0  0  0  0  0  0
    6.3708   -0.0740   17.2025 N   0  0  0  0  0  0  0  0  0  0  0  0
    7.2820   -0.7860   20.6970 N   0  0  0  0  0  0  0  0  0  0  0  0
    8.6445   -2.6289   22.1109 N   0  3  0  0  0  0  0  0  0  0  0  0
    8.9170    0.7530   21.0260 O   0  0  0  0  0  0  0  0  0  0  0  0
   13.8840   -1.8490   21.2740 Cl  0  0  0  0  0  0  0  0  0  0  0  0
    2.6499    3.2883   20.1641 H   0  0  0  0  0  0  0  0  0  0  0  0
    3.7607    2.3613   22.1755 H   0  0  0  0  0  0  0  0  0  0  0  0
   12.2249    1.2198   24.6546 H   0  0  0  0  0  0  0  0  0  0  0  0
    3.3723    2.5911   17.9118 H   0  0  0  0  0  0  0  0  0  0  0  0
    5.5866    0.7453   21.9560 H   0  0  0  0  0  0  0  0  0  0  0  0
    9.8763    0.5350   24.3454 H   0  0  0  0  0  0  0  0  0  0  0  0
   14.0077    0.1988   23.2842 H   0  0  0  0  0  0  0  0  0  0  0  0
   11.0892   -2.3009   21.3624 H   0  0  0  0  0  0  0  0  0  0  0  0
    4.9234    1.1835   16.4670 H   0  0  0  0  0  0  0  0  0  0  0  0
    7.7549   -1.2720   18.1337 H   0  0  0  0  0  0  0  0  0  0  0  0
    7.8382   -7.4527   25.1678 H   0  0  0  0  0  0  0  0  0  0  0  0
    7.7421   -7.4470   23.4098 H   0  0  0  0  0  0  0  0  0  0  0  0
    5.5265   -6.9597   24.2914 H   0  0  0  0  0  0  0  0  0  0  0  0
    6.1591   -5.7000   25.3462 H   0  0  0  0  0  0  0  0  0  0  0  0
    8.8667   -5.2264   25.1878 H   0  0  0  0  0  0  0  0  0  0  0  0
    9.7705   -6.2567   24.0773 H   0  0  0  0  0  0  0  0  0  0  0  0
    6.0053   -5.6230   22.2922 H   0  0  0  0  0  0  0  0  0  0  0  0
    5.0875   -4.6323   23.4270 H   0  0  0  0  0  0  0  0  0  0  0  0
    9.6559   -3.1134   23.9335 H   0  0  0  0  0  0  0  0  0  0  0  0
   10.3912   -3.8153   22.4450 H   0  0  0  0  0  0  0  0  0  0  0  0
    6.9208   -3.4717   21.2095 H   0  0  0  0  0  0  0  0  0  0  0  0
    6.5514   -2.1927   22.4165 H   0  0  0  0  0  0  0  0  0  0  0  0
    8.5357   -5.3423   22.1473 H   0  0  0  0  0  0  0  0  0  0  0  0
    7.1595   -3.5862   24.2613 H   0  0  0  0  0  0  0  0  0  0  0  0
    8.2445   -1.0188   23.3300 H   0  0  0  0  0  0  0  0  0  0  0  0
    6.8974   -1.6551   21.0612 H   0  0  0  0  0  0  0  0  0  0  0  0
    8.9429   -2.7635   21.1351 H   0  0  0  0  0  0  0  0  0  0  0  0
  1  2  1  0  0  0  0
  1  4  2  0  0  0  0
  2  5  2  0  0  0  0
  3  6  2  0  0  0  0
  3  7  1  0  0  0  0
  4 11  1  0  0  0  0
  5 12  1  0  0  0  0
  6 13  1  0  0  0  0
  7 15  2  0  0  0  0
  8 13  2  0  0  0  0
  8 15  1  0  0  0  0
  9 11  2  0  0  0  0
  9 26  1  0  0  0  0
 10 14  1  0  0  0  0
 10 26  2  0  0  0  0
 11 12  1  0  0  0  0
 12 14  2  0  0  0  0
 13 25  1  0  0  0  0
 14 27  1  0  0  0  0
 15 30  1  0  0  0  0
 16 25  1  6  0  0  0
 16 27  1  0  0  0  0
 16 29  2  0  0  0  0
 17 18  1  0  0  0  0
 17 19  1  0  0  0  0
 18 20  1  0  0  0  0
 19 23  1  0  0  0  0
 20 24  1  1  0  0  0
 21 23  1  6  0  0  0
 21 28  1  0  0  0  0
 22 24  1  0  0  0  0
 22 28  1  0  0  0  0
 23 24  1  0  0  0  0
 25 28  1  0  0  0  0
  1 31  1  0  0  0  0
  2 32  1  0  0  0  0
  3 33  1  0  0  0  0
  4 34  1  0  0  0  0
  5 35  1  0  0  0  0
  6 36  1  0  0  0  0
  7 37  1  0  0  0  0
  8 38  1  0  0  0  0
  9 39  1  0  0  0  0
 10 40  1  0  0  0  0
 17 41  1  0  0  0  0
 17 42  1  0  0  0  0
 18 43  1  0  0  0  0
 18 44  1  0  0  0  0
 19 45  1  0  0  0  0
 19 46  1  0  0  0  0
 20 47  1  0  0  0  0
 20 48  1  0  0  0  0
 21 49  1  0  0  0  0
 21 50  1  0  0  0  0
 22 51  1  0  0  0  0
 22 52  1  0  0  0  0
 23 53  1  0  0  0  0
 24 54  1  0  0  0  0
 25 55  1  0  0  0  0
 27 56  1  0  0  0  0
 28 57  1  0  0  0  0
M  CHG  1  28   1
M  END
> <compound>
MIC-UNK-5a93dd5f-2

> <compound_smiles>
c1ccc2c(c1)cncc2NC(=O)C(c3cccc(c3)Cl)N4CC5CCCCC5C4

> <enantiomer_smiles>
c1ccc2c(c1)cncc2NC(=O)[C@H](c3cccc(c3)Cl)N4C[C@H]5CCCC[C@@H]5C4

> <scaffold>
chlorobenzene-linker

> <clash_score>
0

> <docking_score>
-8.773944854736328

> <overlap_score>
0.9803072214126587

> <MMFF_internal_energy>
197.62478338108554

> <docked_smiles>
c1ccc2c(c1)cncc2NC(=O)[C@H](c3cccc(c3)Cl)[NH+]4C[C@H]5CCCC[C@@H]5C4

$$$$
MIC-UNK-5a93dd5f-2_3
  -OEChem-07262101023D

 57 61  0     1  0  0  0  0  0999 V2000
    3.4588    2.5719   20.0554 C   0  0  0  0  0  0  0  0  0  0  0  0
    4.0835    2.0505   21.1859 C   0  0  0  0  0  0  0  0  0  0  0  0
   11.9780    0.4600   23.9150 C   0  0  0  0  0  0  0  0  0  0  0  0
    3.8711    2.1742   18.7837 C   0  0  0  0  0  0  0  0  0  0  0  0
    5.1234    1.1291   21.0499 C   0  0  0  0  0  0  0  0  0  0  0  0
   10.6560    0.0720   23.7350 C   0  0  0  0  0  0  0  0  0  0  0  0
   12.9840   -0.1200   23.1530 C   0  0  0  0  0  0  0  0  0  0  0  0
   11.3360   -1.5050   22.0650 C   0  0  0  0  0  0  0  0  0  0  0  0
    5.3689    0.8151   17.3870 C   0  0  0  0  0  0  0  0  0  0  0  0
    6.9552   -0.5603   18.3181 C   0  0  0  0  0  0  0  0  0  0  0  0
    4.9163    1.2476   18.6350 C   0  0  0  0  0  0  0  0  0  0  0  0
    5.5514    0.7175   19.7772 C   0  0  0  0  0  0  0  0  0  0  0  0
   10.3220   -0.8940   22.7910 C   0  0  0  0  0  0  0  0  0  0  0  0
    6.5908   -0.2044   19.6077 C   0  0  0  0  0  0  0  0  0  0  0  0
   12.6400   -1.1000   22.2390 C   0  0  0  0  0  0  0  0  0  0  0  0
    8.3880   -0.3240   21.3070 C   0  0  0  0  0  0  0  0  0  0  0  0
    5.1771   -3.7424   26.4646 C   0  0  0  0  0  0  0  0  0  0  0  0
    6.5446   -4.1133   27.0548 C   0  0  0  0  0  0  0  0  0  0  0  0
    5.2618   -3.3027   24.9972 C   0  0  0  0  0  0  0  0  0  0  0  0
    7.6066   -3.0303   26.8239 C   0  0  0  0  0  0  0  0  0  0  0  0
    6.6224   -1.7401   23.4486 C   0  0  0  0  0  0  0  0  0  0  0  0
    8.5711   -1.5298   24.9489 C   0  0  0  0  0  0  0  0  0  0  0  0
    6.2994   -2.2002   24.8555 C   0  0  1  0  0  0  0  0  0  0  0  0
    7.6607   -2.6765   25.3458 C   0  0  2  0  0  0  0  0  0  0  0  0
    8.8810   -1.1900   22.4510 C   0  0  1  0  0  0  0  0  0  0  0  0
    6.3708   -0.0740   17.2025 N   0  0  0  0  0  0  0  0  0  0  0  0
    7.2820   -0.7860   20.6970 N   0  0  0  0  0  0  0  0  0  0  0  0
    7.9692   -1.0400   23.6294 N   0  3  0  0  0  0  0  0  0  0  0  0
    8.9170    0.7530   21.0260 O   0  0  0  0  0  0  0  0  0  0  0  0
   13.8840   -1.8490   21.2740 Cl  0  0  0  0  0  0  0  0  0  0  0  0
    2.6499    3.2883   20.1641 H   0  0  0  0  0  0  0  0  0  0  0  0
    3.7607    2.3613   22.1754 H   0  0  0  0  0  0  0  0  0  0  0  0
   12.2249    1.2198   24.6546 H   0  0  0  0  0  0  0  0  0  0  0  0
    3.3723    2.5911   17.9118 H   0  0  0  0  0  0  0  0  0  0  0  0
    5.5866    0.7453   21.9560 H   0  0  0  0  0  0  0  0  0  0  0  0
    9.8763    0.5350   24.3454 H   0  0  0  0  0  0  0  0  0  0  0  0
   14.0077    0.1988   23.2842 H   0  0  0  0  0  0  0  0  0  0  0  0
   11.0892   -2.3009   21.3624 H   0  0  0  0  0  0  0  0  0  0  0  0
    4.9234    1.1835   16.4670 H   0  0  0  0  0  0  0  0  0  0  0  0
    7.7549   -1.2720   18.1337 H   0  0  0  0  0  0  0  0  0  0  0  0
    4.4951   -4.5955   26.5538 H   0  0  0  0  0  0  0  0  0  0  0  0
    4.7442   -2.9270   27.0578 H   0  0  0  0  0  0  0  0  0  0  0  0
    6.4415   -4.3036   28.1291 H   0  0  0  0  0  0  0  0  0  0  0  0
    6.8854   -5.0510   26.5980 H   0  0  0  0  0  0  0  0  0  0  0  0
    5.5291   -4.1636   24.3724 H   0  0  0  0  0  0  0  0  0  0  0  0
    4.2821   -2.9490   24.6572 H   0  0  0  0  0  0  0  0  0  0  0  0
    7.3608   -2.1435   27.4208 H   0  0  0  0  0  0  0  0  0  0  0  0
    8.5841   -3.3886   27.1655 H   0  0  0  0  0  0  0  0  0  0  0  0
    6.7630   -2.5759   22.7546 H   0  0  0  0  0  0  0  0  0  0  0  0
    5.9132   -1.0129   23.0444 H   0  0  0  0  0  0  0  0  0  0  0  0
    8.5252   -0.6853   25.6441 H   0  0  0  0  0  0  0  0  0  0  0  0
    9.6093   -1.8349   24.7884 H   0  0  0  0  0  0  0  0  0  0  0  0
    5.9697   -1.3309   25.4441 H   0  0  0  0  0  0  0  0  0  0  0  0
    7.9670   -3.5721   24.7846 H   0  0  0  0  0  0  0  0  0  0  0  0
    8.7698   -2.2472   22.1731 H   0  0  0  0  0  0  0  0  0  0  0  0
    6.8974   -1.6551   21.0612 H   0  0  0  0  0  0  0  0  0  0  0  0
    7.7775   -0.0352   23.7430 H   0  0  0  0  0  0  0  0  0  0  0  0
  1  2  1  0  0  0  0
  1  4  2  0  0  0  0
  2  5  2  0  0  0  0
  3  6  2  0  0  0  0
  3  7  1  0  0  0  0
  4 11  1  0  0  0  0
  5 12  1  0  0  0  0
  6 13  1  0  0  0  0
  7 15  2  0  0  0  0
  8 13  2  0  0  0  0
  8 15  1  0  0  0  0
  9 11  2  0  0  0  0
  9 26  1  0  0  0  0
 10 14  1  0  0  0  0
 10 26  2  0  0  0  0
 11 12  1  0  0  0  0
 12 14  2  0  0  0  0
 13 25  1  0  0  0  0
 14 27  1  0  0  0  0
 15 30  1  0  0  0  0
 16 25  1  1  0  0  0
 16 27  1  0  0  0  0
 16 29  2  0  0  0  0
 17 18  1  0  0  0  0
 17 19  1  0  0  0  0
 18 20  1  0  0  0  0
 19 23  1  0  0  0  0
 20 24  1  1  0  0  0
 21 23  1  6  0  0  0
 21 28  1  0  0  0  0
 22 24  1  0  0  0  0
 22 28  1  0  0  0  0
 23 24  1  0  0  0  0
 25 28  1  0  0  0  0
  1 31  1  0  0  0  0
  2 32  1  0  0  0  0
  3 33  1  0  0  0  0
  4 34  1  0  0  0  0
  5 35  1  0  0  0  0
  6 36  1  0  0  0  0
  7 37  1  0  0  0  0
  8 38  1  0  0  0  0
  9 39  1  0  0  0  0
 10 40  1  0  0  0  0
 17 41  1  0  0  0  0
 17 42  1  0  0  0  0
 18 43  1  0  0  0  0
 18 44  1  0  0  0  0
 19 45  1  0  0  0  0
 19 46  1  0  0  0  0
 20 47  1  0  0  0  0
 20 48  1  0  0  0  0
 21 49  1  0  0  0  0
 21 50  1  0  0  0  0
 22 51  1  0  0  0  0
 22 52  1  0  0  0  0
 23 53  1  0  0  0  0
 24 54  1  0  0  0  0
 25 55  1  0  0  0  0
 27 56  1  0  0  0  0
 28 57  1  0  0  0  0
M  CHG  1  28   1
M  END
> <compound>
MIC-UNK-5a93dd5f-2

> <compound_smiles>
c1ccc2c(c1)cncc2NC(=O)C(c3cccc(c3)Cl)N4CC5CCCCC5C4

> <enantiomer_smiles>
c1ccc2c(c1)cncc2NC(=O)[C@@H](c3cccc(c3)Cl)N4C[C@H]5CCCC[C@@H]5C4

> <scaffold>
chlorobenzene-linker

> <clash_score>
0

> <docking_score>
-11.014678001403809

> <overlap_score>
0.9796206951141357

> <MMFF_internal_energy>
176.52903159949145

> <docked_smiles>
c1ccc2c(c1)cncc2NC(=O)[C@@H](c3cccc(c3)Cl)[NH+]4C[C@H]5CCCC[C@@H]5C4

$$$$
MIC-UNK-5a93dd5f-1_6
  -OEChem-07262101023D

 54 58  0     1  0  0  0  0  0999 V2000
    3.4588    2.5719   20.0554 C   0  0  0  0  0  0  0  0  0  0  0  0
    4.0835    2.0505   21.1859 C   0  0  0  0  0  0  0  0  0  0  0  0
   11.9780    0.4600   23.9150 C   0  0  0  0  0  0  0  0  0  0  0  0
    3.8711    2.1742   18.7837 C   0  0  0  0  0  0  0  0  0  0  0  0
    5.1234    1.1291   21.0499 C   0  0  0  0  0  0  0  0  0  0  0  0
   10.6560    0.0720   23.7350 C   0  0  0  0  0  0  0  0  0  0  0  0
   12.9840   -0.1200   23.1530 C   0  0  0  0  0  0  0  0  0  0  0  0
   11.3360   -1.5050   22.0650 C   0  0  0  0  0  0  0  0  0  0  0  0
    5.3689    0.8151   17.3870 C   0  0  0  0  0  0  0  0  0  0  0  0
    6.9552   -0.5603   18.3181 C   0  0  0  0  0  0  0  0  0  0  0  0
    4.9163    1.2476   18.6351 C   0  0  0  0  0  0  0  0  0  0  0  0
    5.5514    0.7175   19.7772 C   0  0  0  0  0  0  0  0  0  0  0  0
   10.3220   -0.8940   22.7910 C   0  0  0  0  0  0  0  0  0  0  0  0
    6.5908   -0.2044   19.6077 C   0  0  0  0  0  0  0  0  0  0  0  0
   12.6400   -1.1000   22.2390 C   0  0  0  0  0  0  0  0  0  0  0  0
    8.3880   -0.3240   21.3070 C   0  0  0  0  0  0  0  0  0  0  0  0
    7.0034   -6.1888   24.3130 C   0  0  0  0  0  0  0  0  0  0  0  0
    8.4824   -5.7364   24.2584 C   0  0  0  0  0  0  0  0  0  0  0  0
    6.1951   -5.1676   23.4771 C   0  0  0  0  0  0  0  0  0  0  0  0
    9.4564   -3.6185   22.9777 C   0  0  0  0  0  0  0  0  0  0  0  0
    7.1584   -3.0400   22.2052 C   0  0  0  0  0  0  0  0  0  0  0  0
    8.3682   -4.3199   23.7469 C   0  0  2  0  0  0  0  0  0  0  0  0
    7.2779   -4.4561   22.7006 C   0  0  1  0  0  0  0  0  0  0  0  0
    8.8810   -1.1900   22.4510 C   0  0  2  0  0  0  0  0  0  0  0  0
    6.3708   -0.0740   17.2025 N   0  0  0  0  0  0  0  0  0  0  0  0
    7.2820   -0.7860   20.6970 N   0  0  0  0  0  0  0  0  0  0  0  0
    8.6446   -2.6285   22.1110 N   0  3  0  0  0  0  0  0  0  0  0  0
    8.9170    0.7530   21.0260 O   0  0  0  0  0  0  0  0  0  0  0  0
   13.8840   -1.8490   21.2740 Cl  0  0  0  0  0  0  0  0  0  0  0  0
    2.6499    3.2883   20.1641 H   0  0  0  0  0  0  0  0  0  0  0  0
    3.7607    2.3613   22.1754 H   0  0  0  0  0  0  0  0  0  0  0  0
   12.2249    1.2198   24.6546 H   0  0  0  0  0  0  0  0  0  0  0  0
    3.3723    2.5911   17.9118 H   0  0  0  0  0  0  0  0  0  0  0  0
    5.5866    0.7453   21.9560 H   0  0  0  0  0  0  0  0  0  0  0  0
    9.8763    0.5350   24.3454 H   0  0  0  0  0  0  0  0  0  0  0  0
   14.0077    0.1988   23.2842 H   0  0  0  0  0  0  0  0  0  0  0  0
   11.0892   -2.3009   21.3624 H   0  0  0  0  0  0  0  0  0  0  0  0
    4.9234    1.1835   16.4670 H   0  0  0  0  0  0  0  0  0  0  0  0
    7.7549   -1.2720   18.1337 H   0  0  0  0  0  0  0  0  0  0  0  0
    6.9033   -7.2003   23.9043 H   0  0  0  0  0  0  0  0  0  0  0  0
    6.6345   -6.2081   25.3440 H   0  0  0  0  0  0  0  0  0  0  0  0
    8.9656   -5.7933   25.2380 H   0  0  0  0  0  0  0  0  0  0  0  0
    9.0458   -6.3691   23.5631 H   0  0  0  0  0  0  0  0  0  0  0  0
    5.4622   -5.6559   22.8284 H   0  0  0  0  0  0  0  0  0  0  0  0
    5.6579   -4.4779   24.1385 H   0  0  0  0  0  0  0  0  0  0  0  0
   10.1575   -3.0628   23.6062 H   0  0  0  0  0  0  0  0  0  0  0  0
    9.9914   -4.2735   22.2832 H   0  0  0  0  0  0  0  0  0  0  0  0
    6.7193   -2.9453   21.2091 H   0  0  0  0  0  0  0  0  0  0  0  0
    6.6652   -2.3743   22.9211 H   0  0  0  0  0  0  0  0  0  0  0  0
    8.0419   -3.6706   24.5745 H   0  0  0  0  0  0  0  0  0  0  0  0
    7.6029   -5.1025   21.8703 H   0  0  0  0  0  0  0  0  0  0  0  0
    8.2445   -1.0188   23.3300 H   0  0  0  0  0  0  0  0  0  0  0  0
    6.8974   -1.6551   21.0612 H   0  0  0  0  0  0  0  0  0  0  0  0
    8.9408   -2.7711   21.1357 H   0  0  0  0  0  0  0  0  0  0  0  0
  1  2  1  0  0  0  0
  1  4  2  0  0  0  0
  2  5  2  0  0  0  0
  3  6  2  0  0  0  0
  3  7  1  0  0  0  0
  4 11  1  0  0  0  0
  5 12  1  0  0  0  0
  6 13  1  0  0  0  0
  7 15  2  0  0  0  0
  8 13  2  0  0  0  0
  8 15  1  0  0  0  0
  9 11  2  0  0  0  0
  9 25  1  0  0  0  0
 10 14  1  0  0  0  0
 10 25  2  0  0  0  0
 11 12  1  0  0  0  0
 12 14  2  0  0  0  0
 13 24  1  0  0  0  0
 14 26  1  0  0  0  0
 15 29  1  0  0  0  0
 16 24  1  6  0  0  0
 16 26  1  0  0  0  0
 16 28  2  0  0  0  0
 17 18  1  0  0  0  0
 17 19  1  0  0  0  0
 18 22  1  0  0  0  0
 19 23  1  6  0  0  0
 20 22  1  1  0  0  0
 20 27  1  0  0  0  0
 21 23  1  0  0  0  0
 21 27  1  0  0  0  0
 22 23  1  0  0  0  0
 24 27  1  0  0  0  0
  1 30  1  0  0  0  0
  2 31  1  0  0  0  0
  3 32  1  0  0  0  0
  4 33  1  0  0  0  0
  5 34  1  0  0  0  0
  6 35  1  0  0  0  0
  7 36  1  0  0  0  0
  8 37  1  0  0  0  0
  9 38  1  0  0  0  0
 10 39  1  0  0  0  0
 17 40  1  0  0  0  0
 17 41  1  0  0  0  0
 18 42  1  0  0  0  0
 18 43  1  0  0  0  0
 19 44  1  0  0  0  0
 19 45  1  0  0  0  0
 20 46  1  0  0  0  0
 20 47  1  0  0  0  0
 21 48  1  0  0  0  0
 21 49  1  0  0  0  0
 22 50  1  0  0  0  0
 23 51  1  0  0  0  0
 24 52  1  0  0  0  0
 26 53  1  0  0  0  0
 27 54  1  0  0  0  0
M  CHG  1  27   1
M  END
> <compound>
MIC-UNK-5a93dd5f-1

> <compound_smiles>
c1ccc2c(c1)cncc2NC(=O)C(c3cccc(c3)Cl)N4CC5CCCC5C4

> <enantiomer_smiles>
c1ccc2c(c1)cncc2NC(=O)[C@H](c3cccc(c3)Cl)N4C[C@@H]5CCC[C@H]5C4

> <scaffold>
chlorobenzene-linker

> <clash_score>
0

> <docking_score>
-10.240106582641602

> <overlap_score>
0.9821345806121826

> <MMFF_internal_energy>
221.54536231100528

> <docked_smiles>
c1ccc2c(c1)cncc2NC(=O)[C@H](c3cccc(c3)Cl)[NH+]4C[C@@H]5CCC[C@H]5C4

$$$$
MIC-UNK-5a93dd5f-1_3
  -OEChem-07262101023D

 54 58  0     1  0  0  0  0  0999 V2000
    3.4588    2.5719   20.0554 C   0  0  0  0  0  0  0  0  0  0  0  0
    4.0835    2.0505   21.1859 C   0  0  0  0  0  0  0  0  0  0  0  0
   11.9780    0.4600   23.9150 C   0  0  0  0  0  0  0  0  0  0  0  0
    3.8711    2.1742   18.7837 C   0  0  0  0  0  0  0  0  0  0  0  0
    5.1234    1.1291   21.0499 C   0  0  0  0  0  0  0  0  0  0  0  0
   10.6560    0.0720   23.7350 C   0  0  0  0  0  0  0  0  0  0  0  0
   12.9840   -0.1200   23.1530 C   0  0  0  0  0  0  0  0  0  0  0  0
   11.3360   -1.5050   22.0650 C   0  0  0  0  0  0  0  0  0  0  0  0
    5.3689    0.8151   17.3870 C   0  0  0  0  0  0  0  0  0  0  0  0
    6.9552   -0.5603   18.3181 C   0  0  0  0  0  0  0  0  0  0  0  0
    4.9163    1.2476   18.6350 C   0  0  0  0  0  0  0  0  0  0  0  0
    5.5514    0.7175   19.7772 C   0  0  0  0  0  0  0  0  0  0  0  0
   10.3220   -0.8940   22.7910 C   0  0  0  0  0  0  0  0  0  0  0  0
    6.5908   -0.2044   19.6077 C   0  0  0  0  0  0  0  0  0  0  0  0
   12.6400   -1.1000   22.2390 C   0  0  0  0  0  0  0  0  0  0  0  0
    8.3880   -0.3240   21.3070 C   0  0  0  0  0  0  0  0  0  0  0  0
    6.0298   -3.8578   26.5469 C   0  0  0  0  0  0  0  0  0  0  0  0
    5.4489   -3.3887   25.1915 C   0  0  0  0  0  0  0  0  0  0  0  0
    7.4154   -3.1846   26.6935 C   0  0  0  0  0  0  0  0  0  0  0  0
    6.6104   -1.7519   23.4473 C   0  0  0  0  0  0  0  0  0  0  0  0
    8.5789   -1.5362   24.9606 C   0  0  0  0  0  0  0  0  0  0  0  0
    6.3297   -2.2094   24.8530 C   0  0  1  0  0  0  0  0  0  0  0  0
    7.6945   -2.7103   25.2869 C   0  0  2  0  0  0  0  0  0  0  0  0
    8.8810   -1.1900   22.4510 C   0  0  1  0  0  0  0  0  0  0  0  0
    6.3708   -0.0740   17.2025 N   0  0  0  0  0  0  0  0  0  0  0  0
    7.2820   -0.7860   20.6970 N   0  0  0  0  0  0  0  0  0  0  0  0
    7.9694   -1.0400   23.6291 N   0  3  0  0  0  0  0  0  0  0  0  0
    8.9170    0.7530   21.0260 O   0  0  0  0  0  0  0  0  0  0  0  0
   13.8840   -1.8490   21.2740 Cl  0  0  0  0  0  0  0  0  0  0  0  0
    2.6499    3.2883   20.1641 H   0  0  0  0  0  0  0  0  0  0  0  0
    3.7607    2.3613   22.1754 H   0  0  0  0  0  0  0  0  0  0  0  0
   12.2249    1.2198   24.6546 H   0  0  0  0  0  0  0  0  0  0  0  0
    3.3723    2.5911   17.9118 H   0  0  0  0  0  0  0  0  0  0  0  0
    5.5866    0.7453   21.9560 H   0  0  0  0  0  0  0  0  0  0  0  0
    9.8763    0.5350   24.3454 H   0  0  0  0  0  0  0  0  0  0  0  0
   14.0077    0.1988   23.2842 H   0  0  0  0  0  0  0  0  0  0  0  0
   11.0892   -2.3009   21.3624 H   0  0  0  0  0  0  0  0  0  0  0  0
    4.9234    1.1835   16.4670 H   0  0  0  0  0  0  0  0  0  0  0  0
    7.7549   -1.2720   18.1337 H   0  0  0  0  0  0  0  0  0  0  0  0
    5.3786   -3.5674   27.3784 H   0  0  0  0  0  0  0  0  0  0  0  0
    6.1190   -4.9497   26.5601 H   0  0  0  0  0  0  0  0  0  0  0  0
    5.5410   -4.1853   24.4442 H   0  0  0  0  0  0  0  0  0  0  0  0
    4.3922   -3.1173   25.2706 H   0  0  0  0  0  0  0  0  0  0  0  0
    7.3546   -2.3440   27.3945 H   0  0  0  0  0  0  0  0  0  0  0  0
    8.1733   -3.8814   27.0627 H   0  0  0  0  0  0  0  0  0  0  0  0
    6.7511   -2.5807   22.7459 H   0  0  0  0  0  0  0  0  0  0  0  0
    5.8967   -1.0212   23.0590 H   0  0  0  0  0  0  0  0  0  0  0  0
    8.4873   -0.7096   25.6720 H   0  0  0  0  0  0  0  0  0  0  0  0
    9.6286   -1.7999   24.8050 H   0  0  0  0  0  0  0  0  0  0  0  0
    6.0139   -1.3448   25.4576 H   0  0  0  0  0  0  0  0  0  0  0  0
    8.0094   -3.5732   24.6789 H   0  0  0  0  0  0  0  0  0  0  0  0
    8.7698   -2.2472   22.1731 H   0  0  0  0  0  0  0  0  0  0  0  0
    6.8974   -1.6551   21.0612 H   0  0  0  0  0  0  0  0  0  0  0  0
    7.7767   -0.0356   23.7442 H   0  0  0  0  0  0  0  0  0  0  0  0
  1  2  1  0  0  0  0
  1  4  2  0  0  0  0
  2  5  2  0  0  0  0
  3  6  2  0  0  0  0
  3  7  1  0  0  0  0
  4 11  1  0  0  0  0
  5 12  1  0  0  0  0
  6 13  1  0  0  0  0
  7 15  2  0  0  0  0
  8 13  2  0  0  0  0
  8 15  1  0  0  0  0
  9 11  2  0  0  0  0
  9 25  1  0  0  0  0
 10 14  1  0  0  0  0
 10 25  2  0  0  0  0
 11 12  1  0  0  0  0
 12 14  2  0  0  0  0
 13 24  1  0  0  0  0
 14 26  1  0  0  0  0
 15 29  1  0  0  0  0
 16 24  1  1  0  0  0
 16 26  1  0  0  0  0
 16 28  2  0  0  0  0
 17 18  1  0  0  0  0
 17 19  1  0  0  0  0
 18 22  1  0  0  0  0
 19 23  1  1  0  0  0
 20 22  1  6  0  0  0
 20 27  1  0  0  0  0
 21 23  1  0  0  0  0
 21 27  1  0  0  0  0
 22 23  1  0  0  0  0
 24 27  1  0  0  0  0
  1 30  1  0  0  0  0
  2 31  1  0  0  0  0
  3 32  1  0  0  0  0
  4 33  1  0  0  0  0
  5 34  1  0  0  0  0
  6 35  1  0  0  0  0
  7 36  1  0  0  0  0
  8 37  1  0  0  0  0
  9 38  1  0  0  0  0
 10 39  1  0  0  0  0
 17 40  1  0  0  0  0
 17 41  1  0  0  0  0
 18 42  1  0  0  0  0
 18 43  1  0  0  0  0
 19 44  1  0  0  0  0
 19 45  1  0  0  0  0
 20 46  1  0  0  0  0
 20 47  1  0  0  0  0
 21 48  1  0  0  0  0
 21 49  1  0  0  0  0
 22 50  1  0  0  0  0
 23 51  1  0  0  0  0
 24 52  1  0  0  0  0
 26 53  1  0  0  0  0
 27 54  1  0  0  0  0
M  CHG  1  27   1
M  END
> <compound>
MIC-UNK-5a93dd5f-1

> <compound_smiles>
c1ccc2c(c1)cncc2NC(=O)C(c3cccc(c3)Cl)N4CC5CCCC5C4

> <enantiomer_smiles>
c1ccc2c(c1)cncc2NC(=O)[C@@H](c3cccc(c3)Cl)N4C[C@H]5CCC[C@@H]5C4

> <scaffold>
chlorobenzene-linker

> <clash_score>
0

> <docking_score>
-11.227282524108887

> <overlap_score>
0.9814237356185913

> <MMFF_internal_energy>
189.19924307014128

> <docked_smiles>
c1ccc2c(c1)cncc2NC(=O)[C@@H](c3cccc(c3)Cl)[NH+]4C[C@H]5CCC[C@@H]5C4

$$$$
MAK-UNK-ffc90da7-4_4
  -OEChem-07262101023D

 60 63  0     1  0  0  0  0  0999 V2000
    3.4829    2.5990   20.0546 C   0  0  0  0  0  0  0  0  0  0  0  0
    4.1078    2.0778   21.1851 C   0  0  0  0  0  0  0  0  0  0  0  0
   11.9780    0.4600   23.9150 C   0  0  0  0  0  0  0  0  0  0  0  0
    3.8872    2.1924   18.7832 C   0  0  0  0  0  0  0  0  0  0  0  0
    5.1399    1.1477   21.0494 C   0  0  0  0  0  0  0  0  0  0  0  0
   10.6560    0.0720   23.7350 C   0  0  0  0  0  0  0  0  0  0  0  0
   12.9840   -0.1200   23.1530 C   0  0  0  0  0  0  0  0  0  0  0  0
   11.3360   -1.5050   22.0650 C   0  0  0  0  0  0  0  0  0  0  0  0
    5.3690    0.8152   17.3870 C   0  0  0  0  0  0  0  0  0  0  0  0
    6.9479   -0.5684   18.3184 C   0  0  0  0  0  0  0  0  0  0  0  0
    4.9246    1.2569   18.6348 C   0  0  0  0  0  0  0  0  0  0  0  0
    5.5598    0.7270   19.7769 C   0  0  0  0  0  0  0  0  0  0  0  0
   10.3220   -0.8940   22.7910 C   0  0  0  0  0  0  0  0  0  0  0  0
    6.5912   -0.2039   19.6077 C   0  0  0  0  0  0  0  0  0  0  0  0
   12.6400   -1.1000   22.2390 C   0  0  0  0  0  0  0  0  0  0  0  0
    8.3880   -0.3240   21.3070 C   0  0  0  0  0  0  0  0  0  0  0  0
    5.1276   -7.4236   20.1669 C   0  0  0  0  0  0  0  0  0  0  0  0
    6.3348   -6.5774   20.4844 C   0  0  0  0  0  0  0  0  0  0  0  0
    4.0274   -6.3859   20.0981 C   0  0  0  0  0  0  0  0  0  0  0  0
    6.0600   -5.3350   19.6550 C   0  0  1  0  0  0  0  0  0  0  0  0
    9.3569   -3.6322   23.1659 C   0  0  0  0  0  0  0  0  0  0  0  0
    6.7279   -4.0861   20.1966 C   0  0  0  0  0  0  0  0  0  0  0  0
    8.9748   -3.1287   20.7198 C   0  0  0  0  0  0  0  0  0  0  0  0
    8.8810   -1.1900   22.4510 C   0  0  1  0  0  0  0  0  0  0  0  0
    8.6228   -2.7224   22.1659 C   0  0  2  0  0  0  0  0  0  0  0  0
    6.3631   -0.0826   17.2027 N   0  0  0  0  0  0  0  0  0  0  0  0
    7.2820   -0.7860   20.6970 N   0  0  0  0  0  0  0  0  0  0  0  0
    8.1990   -4.3061   20.2624 N   0  3  0  0  0  0  0  0  0  0  0  0
    8.9170    0.7530   21.0260 O   0  0  0  0  0  0  0  0  0  0  0  0
    4.6327   -5.1630   19.6523 O   0  0  0  0  0  0  0  0  0  0  0  0
   13.8840   -1.8490   21.2740 Cl  0  0  0  0  0  0  0  0  0  0  0  0
    2.6801    3.3223   20.1631 H   0  0  0  0  0  0  0  0  0  0  0  0
    3.7912    2.3956   22.1744 H   0  0  0  0  0  0  0  0  0  0  0  0
   12.2249    1.2198   24.6546 H   0  0  0  0  0  0  0  0  0  0  0  0
    3.3884    2.6092   17.9112 H   0  0  0  0  0  0  0  0  0  0  0  0
    5.6035    0.7643   21.9554 H   0  0  0  0  0  0  0  0  0  0  0  0
    9.8763    0.5350   24.3454 H   0  0  0  0  0  0  0  0  0  0  0  0
   14.0077    0.1988   23.2842 H   0  0  0  0  0  0  0  0  0  0  0  0
   11.0892   -2.3009   21.3624 H   0  0  0  0  0  0  0  0  0  0  0  0
    4.9229    1.1830   16.4670 H   0  0  0  0  0  0  0  0  0  0  0  0
    7.7413   -1.2873   18.1342 H   0  0  0  0  0  0  0  0  0  0  0  0
    5.2544   -7.9003   19.1877 H   0  0  0  0  0  0  0  0  0  0  0  0
    4.9313   -8.2058   20.9048 H   0  0  0  0  0  0  0  0  0  0  0  0
    6.3471   -6.3418   21.5555 H   0  0  0  0  0  0  0  0  0  0  0  0
    7.2825   -7.0589   20.2279 H   0  0  0  0  0  0  0  0  0  0  0  0
    3.2238   -6.6707   19.4132 H   0  0  0  0  0  0  0  0  0  0  0  0
    3.5947   -6.2013   21.0871 H   0  0  0  0  0  0  0  0  0  0  0  0
    6.3688   -5.4963   18.6155 H   0  0  0  0  0  0  0  0  0  0  0  0
   10.4405   -3.4843   23.1042 H   0  0  0  0  0  0  0  0  0  0  0  0
    9.0622   -3.4090   24.1962 H   0  0  0  0  0  0  0  0  0  0  0  0
    9.1465   -4.6905   22.9805 H   0  0  0  0  0  0  0  0  0  0  0  0
    6.3919   -3.8552   21.2112 H   0  0  0  0  0  0  0  0  0  0  0  0
    6.5609   -3.2235   19.5456 H   0  0  0  0  0  0  0  0  0  0  0  0
    8.7736   -2.3270   20.0041 H   0  0  0  0  0  0  0  0  0  0  0  0
   10.0316   -3.4026   20.6348 H   0  0  0  0  0  0  0  0  0  0  0  0
    8.2678   -0.9572   23.3517 H   0  0  0  0  0  0  0  0  0  0  0  0
    7.5494   -2.9234   22.2832 H   0  0  0  0  0  0  0  0  0  0  0  0
    6.8771   -1.6492   21.0526 H   0  0  0  0  0  0  0  0  0  0  0  0
    8.3895   -5.1041   20.8863 H   0  0  0  0  0  0  0  0  0  0  0  0
    8.5349   -4.5963   19.3320 H   0  0  0  0  0  0  0  0  0  0  0  0
  1  2  1  0  0  0  0
  1  4  2  0  0  0  0
  2  5  2  0  0  0  0
  3  6  2  0  0  0  0
  3  7  1  0  0  0  0
  4 11  1  0  0  0  0
  5 12  1  0  0  0  0
  6 13  1  0  0  0  0
  7 15  2  0  0  0  0
  8 13  2  0  0  0  0
  8 15  1  0  0  0  0
  9 11  2  0  0  0  0
  9 26  1  0  0  0  0
 10 14  1  0  0  0  0
 10 26  2  0  0  0  0
 11 12  1  0  0  0  0
 12 14  2  0  0  0  0
 13 24  1  0  0  0  0
 14 27  1  0  0  0  0
 15 31  1  0  0  0  0
 16 24  1  1  0  0  0
 16 27  1  0  0  0  0
 16 29  2  0  0  0  0
 17 18  1  0  0  0  0
 17 19  1  0  0  0  0
 18 20  1  0  0  0  0
 19 30  1  0  0  0  0
 20 22  1  6  0  0  0
 20 30  1  0  0  0  0
 21 25  1  6  0  0  0
 22 28  1  0  0  0  0
 23 25  1  0  0  0  0
 23 28  1  0  0  0  0
 24 25  1  0  0  0  0
  1 32  1  0  0  0  0
  2 33  1  0  0  0  0
  3 34  1  0  0  0  0
  4 35  1  0  0  0  0
  5 36  1  0  0  0  0
  6 37  1  0  0  0  0
  7 38  1  0  0  0  0
  8 39  1  0  0  0  0
  9 40  1  0  0  0  0
 10 41  1  0  0  0  0
 17 42  1  0  0  0  0
 17 43  1  0  0  0  0
 18 44  1  0  0  0  0
 18 45  1  0  0  0  0
 19 46  1  0  0  0  0
 19 47  1  0  0  0  0
 20 48  1  0  0  0  0
 21 49  1  0  0  0  0
 21 50  1  0  0  0  0
 21 51  1  0  0  0  0
 22 52  1  0  0  0  0
 22 53  1  0  0  0  0
 23 54  1  0  0  0  0
 23 55  1  0  0  0  0
 24 56  1  0  0  0  0
 25 57  1  0  0  0  0
 27 58  1  0  0  0  0
 28 59  1  0  0  0  0
 28 60  1  0  0  0  0
M  CHG  1  28   1
M  END
> <compound>
MAK-UNK-ffc90da7-4

> <compound_smiles>
CC(CNCC1CCCO1)C(c2cccc(c2)Cl)C(=O)Nc3cncc4c3cccc4

> <enantiomer_smiles>
C[C@H](CNC[C@H]1CCCO1)[C@@H](c2cccc(c2)Cl)C(=O)Nc3cncc4c3cccc4

> <scaffold>
chlorobenzene-linker

> <clash_score>
4.293917122214712

> <docking_score>
-2.272825002670288

> <overlap_score>
0.9761951565742493

> <MMFF_internal_energy>
176.26819194200704

> <docked_smiles>
C[C@H](C[NH2+]C[C@H]1CCCO1)[C@@H](c2cccc(c2)Cl)C(=O)Nc3cncc4c3cccc4

$$$$
MIC-UNK-5a93dd5f-1_5
  -OEChem-07262101023D

 54 58  0     1  0  0  0  0  0999 V2000
    3.4588    2.5718   20.0554 C   0  0  0  0  0  0  0  0  0  0  0  0
    4.0835    2.0505   21.1859 C   0  0  0  0  0  0  0  0  0  0  0  0
   11.9780    0.4600   23.9150 C   0  0  0  0  0  0  0  0  0  0  0  0
    3.8711    2.1742   18.7837 C   0  0  0  0  0  0  0  0  0  0  0  0
    5.1234    1.1291   21.0499 C   0  0  0  0  0  0  0  0  0  0  0  0
   10.6560    0.0720   23.7350 C   0  0  0  0  0  0  0  0  0  0  0  0
   12.9840   -0.1200   23.1530 C   0  0  0  0  0  0  0  0  0  0  0  0
   11.3360   -1.5050   22.0650 C   0  0  0  0  0  0  0  0  0  0  0  0
    5.3689    0.8151   17.3870 C   0  0  0  0  0  0  0  0  0  0  0  0
    6.9552   -0.5603   18.3181 C   0  0  0  0  0  0  0  0  0  0  0  0
    4.9163    1.2476   18.6350 C   0  0  0  0  0  0  0  0  0  0  0  0
    5.5514    0.7175   19.7772 C   0  0  0  0  0  0  0  0  0  0  0  0
   10.3220   -0.8940   22.7910 C   0  0  0  0  0  0  0  0  0  0  0  0
    6.5908   -0.2044   19.6077 C   0  0  0  0  0  0  0  0  0  0  0  0
   12.6400   -1.1000   22.2390 C   0  0  0  0  0  0  0  0  0  0  0  0
    8.3880   -0.3240   21.3070 C   0  0  0  0  0  0  0  0  0  0  0  0
    6.0663   -3.8584   26.5706 C   0  0  0  0  0  0  0  0  0  0  0  0
    5.4729   -3.3926   25.2194 C   0  0  0  0  0  0  0  0  0  0  0  0
    7.4507   -3.1799   26.7055 C   0  0  0  0  0  0  0  0  0  0  0  0
    6.6033   -1.7448   23.4641 C   0  0  0  0  0  0  0  0  0  0  0  0
    8.5944   -1.5426   24.9496 C   0  0  0  0  0  0  0  0  0  0  0  0
    6.6805   -2.8186   24.5169 C   0  0  2  0  0  0  0  0  0  0  0  0
    7.3855   -2.0996   25.6518 C   0  0  1  0  0  0  0  0  0  0  0  0
    8.8810   -1.1900   22.4510 C   0  0  1  0  0  0  0  0  0  0  0  0
    6.3708   -0.0740   17.2025 N   0  0  0  0  0  0  0  0  0  0  0  0
    7.2820   -0.7860   20.6970 N   0  0  0  0  0  0  0  0  0  0  0  0
    7.9695   -1.0400   23.6291 N   0  3  0  0  0  0  0  0  0  0  0  0
    8.9170    0.7530   21.0260 O   0  0  0  0  0  0  0  0  0  0  0  0
   13.8840   -1.8490   21.2740 Cl  0  0  0  0  0  0  0  0  0  0  0  0
    2.6499    3.2883   20.1641 H   0  0  0  0  0  0  0  0  0  0  0  0
    3.7607    2.3613   22.1754 H   0  0  0  0  0  0  0  0  0  0  0  0
   12.2249    1.2198   24.6546 H   0  0  0  0  0  0  0  0  0  0  0  0
    3.3723    2.5910   17.9117 H   0  0  0  0  0  0  0  0  0  0  0  0
    5.5866    0.7453   21.9560 H   0  0  0  0  0  0  0  0  0  0  0  0
    9.8763    0.5350   24.3454 H   0  0  0  0  0  0  0  0  0  0  0  0
   14.0077    0.1988   23.2842 H   0  0  0  0  0  0  0  0  0  0  0  0
   11.0892   -2.3009   21.3624 H   0  0  0  0  0  0  0  0  0  0  0  0
    4.9234    1.1835   16.4670 H   0  0  0  0  0  0  0  0  0  0  0  0
    7.7549   -1.2720   18.1337 H   0  0  0  0  0  0  0  0  0  0  0  0
    5.4034   -3.5687   27.3933 H   0  0  0  0  0  0  0  0  0  0  0  0
    6.1760   -4.9477   26.5989 H   0  0  0  0  0  0  0  0  0  0  0  0
    5.0154   -4.2175   24.6657 H   0  0  0  0  0  0  0  0  0  0  0  0
    4.7059   -2.6277   25.3869 H   0  0  0  0  0  0  0  0  0  0  0  0
    7.6163   -2.7802   27.7101 H   0  0  0  0  0  0  0  0  0  0  0  0
    8.2480   -3.9010   26.4907 H   0  0  0  0  0  0  0  0  0  0  0  0
    6.5115   -2.1280   22.4442 H   0  0  0  0  0  0  0  0  0  0  0  0
    5.8374   -0.9897   23.6663 H   0  0  0  0  0  0  0  0  0  0  0  0
    9.0543   -0.6876   25.4511 H   0  0  0  0  0  0  0  0  0  0  0  0
    9.3395   -2.3068   24.7049 H   0  0  0  0  0  0  0  0  0  0  0  0
    7.2945   -3.6490   24.1342 H   0  0  0  0  0  0  0  0  0  0  0  0
    6.7748   -1.2667   26.0342 H   0  0  0  0  0  0  0  0  0  0  0  0
    8.7698   -2.2472   22.1731 H   0  0  0  0  0  0  0  0  0  0  0  0
    6.8974   -1.6551   21.0612 H   0  0  0  0  0  0  0  0  0  0  0  0
    7.7768   -0.0356   23.7441 H   0  0  0  0  0  0  0  0  0  0  0  0
  1  2  1  0  0  0  0
  1  4  2  0  0  0  0
  2  5  2  0  0  0  0
  3  6  2  0  0  0  0
  3  7  1  0  0  0  0
  4 11  1  0  0  0  0
  5 12  1  0  0  0  0
  6 13  1  0  0  0  0
  7 15  2  0  0  0  0
  8 13  2  0  0  0  0
  8 15  1  0  0  0  0
  9 11  2  0  0  0  0
  9 25  1  0  0  0  0
 10 14  1  0  0  0  0
 10 25  2  0  0  0  0
 11 12  1  0  0  0  0
 12 14  2  0  0  0  0
 13 24  1  0  0  0  0
 14 26  1  0  0  0  0
 15 29  1  0  0  0  0
 16 24  1  1  0  0  0
 16 26  1  0  0  0  0
 16 28  2  0  0  0  0
 17 18  1  0  0  0  0
 17 19  1  0  0  0  0
 18 22  1  0  0  0  0
 19 23  1  6  0  0  0
 20 22  1  1  0  0  0
 20 27  1  0  0  0  0
 21 23  1  0  0  0  0
 21 27  1  0  0  0  0
 22 23  1  0  0  0  0
 24 27  1  0  0  0  0
  1 30  1  0  0  0  0
  2 31  1  0  0  0  0
  3 32  1  0  0  0  0
  4 33  1  0  0  0  0
  5 34  1  0  0  0  0
  6 35  1  0  0  0  0
  7 36  1  0  0  0  0
  8 37  1  0  0  0  0
  9 38  1  0  0  0  0
 10 39  1  0  0  0  0
 17 40  1  0  0  0  0
 17 41  1  0  0  0  0
 18 42  1  0  0  0  0
 18 43  1  0  0  0  0
 19 44  1  0  0  0  0
 19 45  1  0  0  0  0
 20 46  1  0  0  0  0
 20 47  1  0  0  0  0
 21 48  1  0  0  0  0
 21 49  1  0  0  0  0
 22 50  1  0  0  0  0
 23 51  1  0  0  0  0
 24 52  1  0  0  0  0
 26 53  1  0  0  0  0
 27 54  1  0  0  0  0
M  CHG  1  27   1
M  END
> <compound>
MIC-UNK-5a93dd5f-1

> <compound_smiles>
c1ccc2c(c1)cncc2NC(=O)C(c3cccc(c3)Cl)N4CC5CCCC5C4

> <enantiomer_smiles>
c1ccc2c(c1)cncc2NC(=O)[C@@H](c3cccc(c3)Cl)N4C[C@@H]5CCC[C@H]5C4

> <scaffold>
chlorobenzene-linker

> <clash_score>
0

> <docking_score>
-11.346929550170898

> <overlap_score>
0.9814364910125732

> <MMFF_internal_energy>
195.35534044312664

> <docked_smiles>
c1ccc2c(c1)cncc2NC(=O)[C@@H](c3cccc(c3)Cl)[NH+]4C[C@@H]5CCC[C@H]5C4

$$$$
MAK-UNK-ffc90da7-5_2
  -OEChem-07262101023D

 54 57  0     1  0  0  0  0  0999 V2000
   11.9780    0.4600   23.9150 C   0  0  0  0  0  0  0  0  0  0  0  0
    5.1217    1.1103   21.0637 C   0  0  0  0  0  0  0  0  0  0  0  0
   10.6560    0.0720   23.7350 C   0  0  0  0  0  0  0  0  0  0  0  0
    4.0766    2.0257   21.1998 C   0  0  0  0  0  0  0  0  0  0  0  0
   12.9840   -0.1200   23.1530 C   0  0  0  0  0  0  0  0  0  0  0  0
    3.8510    2.1343   18.7981 C   0  0  0  0  0  0  0  0  0  0  0  0
   11.3360   -1.5050   22.0650 C   0  0  0  0  0  0  0  0  0  0  0  0
    5.3505    0.7768   17.4014 C   0  0  0  0  0  0  0  0  0  0  0  0
    6.9503   -0.5830   18.3322 C   0  0  0  0  0  0  0  0  0  0  0  0
    5.5458    0.6941   19.7911 C   0  0  0  0  0  0  0  0  0  0  0  0
    4.9015    1.2136   18.6493 C   0  0  0  0  0  0  0  0  0  0  0  0
    3.4427    2.5366   20.0695 C   0  0  0  0  0  0  0  0  0  0  0  0
   10.3220   -0.8940   22.7910 C   0  0  0  0  0  0  0  0  0  0  0  0
    6.5902   -0.2221   19.6216 C   0  0  0  0  0  0  0  0  0  0  0  0
   12.6400   -1.1000   22.2390 C   0  0  0  0  0  0  0  0  0  0  0  0
    8.3880   -0.3240   21.3070 C   0  0  0  0  0  0  0  0  0  0  0  0
   -0.0036    1.7599   22.7930 C   0  0  0  0  0  0  0  0  0  0  0  0
   -0.6276    1.9269   21.4364 C   0  0  0  0  0  0  0  0  0  0  0  0
    0.8624    2.0303   21.5959 C   0  0  0  0  0  0  0  0  0  0  0  0
    1.3065    3.4014   19.0529 C   0  0  0  0  0  0  0  0  0  0  0  0
    8.8810   -1.1900   22.4510 C   0  0  0  0  0  0  0  0  0  0  0  0
    2.8172    4.9916   20.3038 C   0  0  0  0  0  0  0  0  0  0  0  0
    2.3265    3.5142   20.2200 C   0  0  2  0  0  0  0  0  0  0  0  0
    6.3571   -0.1069   17.2168 N   0  0  0  0  0  0  0  0  0  0  0  0
    7.2820   -0.7860   20.6970 N   0  0  0  0  0  0  0  0  0  0  0  0
    1.4711    3.3630   21.4798 N   0  3  0  0  0  0  0  0  0  0  0  0
    8.9170    0.7530   21.0260 O   0  0  0  0  0  0  0  0  0  0  0  0
    3.6768    5.1501   21.4282 O   0  0  0  0  0  0  0  0  0  0  0  0
   13.8840   -1.8490   21.2740 Cl  0  0  0  0  0  0  0  0  0  0  0  0
   12.2249    1.2198   24.6546 H   0  0  0  0  0  0  0  0  0  0  0  0
    5.5910    0.7339   21.9698 H   0  0  0  0  0  0  0  0  0  0  0  0
    9.8763    0.5350   24.3454 H   0  0  0  0  0  0  0  0  0  0  0  0
    3.7631    2.3341   22.1938 H   0  0  0  0  0  0  0  0  0  0  0  0
   14.0077    0.1988   23.2842 H   0  0  0  0  0  0  0  0  0  0  0  0
    3.3504    2.5377   17.9202 H   0  0  0  0  0  0  0  0  0  0  0  0
   11.0892   -2.3009   21.3624 H   0  0  0  0  0  0  0  0  0  0  0  0
    4.8991    1.1389   16.4815 H   0  0  0  0  0  0  0  0  0  0  0  0
    7.7538   -1.2903   18.1473 H   0  0  0  0  0  0  0  0  0  0  0  0
   -0.1542    2.5509   23.5175 H   0  0  0  0  0  0  0  0  0  0  0  0
    0.0198    0.7636   23.2173 H   0  0  0  0  0  0  0  0  0  0  0  0
   -1.0225    1.0424   20.9516 H   0  0  0  0  0  0  0  0  0  0  0  0
   -1.1966    2.8298   21.2516 H   0  0  0  0  0  0  0  0  0  0  0  0
    1.4635    1.2116   21.2187 H   0  0  0  0  0  0  0  0  0  0  0  0
    0.4765    4.1121   19.1436 H   0  0  0  0  0  0  0  0  0  0  0  0
    0.8662    2.3991   19.0058 H   0  0  0  0  0  0  0  0  0  0  0  0
    1.8010    3.5875   18.0917 H   0  0  0  0  0  0  0  0  0  0  0  0
    8.7775   -2.2383   22.1732 H   0  0  0  0  0  0  0  0  0  0  0  0
    8.2557   -1.0153   23.3257 H   0  0  0  0  0  0  0  0  0  0  0  0
    3.3711    5.2990   19.4087 H   0  0  0  0  0  0  0  0  0  0  0  0
    1.9737    5.6802   20.4231 H   0  0  0  0  0  0  0  0  0  0  0  0
    6.8981   -1.6619   21.0675 H   0  0  0  0  0  0  0  0  0  0  0  0
    0.7618    4.0892   21.4421 H   0  0  0  0  0  0  0  0  0  0  0  0
    2.0763    3.5609   22.2715 H   0  0  0  0  0  0  0  0  0  0  0  0
    3.9536    6.0797   21.4367 H   0  0  0  0  0  0  0  0  0  0  0  0
  1  3  2  0  0  0  0
  1  5  1  0  0  0  0
  2  4  2  0  0  0  0
  2 10  1  0  0  0  0
  3 13  1  0  0  0  0
  4 12  1  0  0  0  0
  5 15  2  0  0  0  0
  6 11  1  0  0  0  0
  6 12  2  0  0  0  0
  7 13  2  0  0  0  0
  7 15  1  0  0  0  0
  8 11  2  0  0  0  0
  8 24  1  0  0  0  0
  9 14  1  0  0  0  0
  9 24  2  0  0  0  0
 10 11  1  0  0  0  0
 10 14  2  0  0  0  0
 12 23  1  0  0  0  0
 13 21  1  0  0  0  0
 14 25  1  0  0  0  0
 15 29  1  0  0  0  0
 16 21  1  0  0  0  0
 16 25  1  0  0  0  0
 16 27  2  0  0  0  0
 17 18  1  0  0  0  0
 17 19  1  0  0  0  0
 18 19  1  0  0  0  0
 19 26  1  0  0  0  0
 20 23  1  6  0  0  0
 22 23  1  0  0  0  0
 22 28  1  0  0  0  0
 23 26  1  0  0  0  0
  1 30  1  0  0  0  0
  2 31  1  0  0  0  0
  3 32  1  0  0  0  0
  4 33  1  0  0  0  0
  5 34  1  0  0  0  0
  6 35  1  0  0  0  0
  7 36  1  0  0  0  0
  8 37  1  0  0  0  0
  9 38  1  0  0  0  0
 17 39  1  0  0  0  0
 17 40  1  0  0  0  0
 18 41  1  0  0  0  0
 18 42  1  0  0  0  0
 19 43  1  0  0  0  0
 20 44  1  0  0  0  0
 20 45  1  0  0  0  0
 20 46  1  0  0  0  0
 21 47  1  0  0  0  0
 21 48  1  0  0  0  0
 22 49  1  0  0  0  0
 22 50  1  0  0  0  0
 25 51  1  0  0  0  0
 26 52  1  0  0  0  0
 26 53  1  0  0  0  0
 28 54  1  0  0  0  0
M  CHG  1  26   1
M  END
> <compound>
MAK-UNK-ffc90da7-5

> <compound_smiles>
CC(CO)(c1ccc2c(c1)cncc2NC(=O)Cc3cccc(c3)Cl)NC4CC4

> <enantiomer_smiles>
C[C@](CO)(c1ccc2c(c1)cncc2NC(=O)Cc3cccc(c3)Cl)NC4CC4

> <scaffold>
chlorobenzene-linker

> <clash_score>
0

> <docking_score>
-10.061894416809082

> <overlap_score>
0.9869738221168518

> <MMFF_internal_energy>
158.9575775479329

> <docked_smiles>
C[C@](CO)(c1ccc2c(c1)cncc2NC(=O)Cc3cccc(c3)Cl)[NH2+]C4CC4

$$$$
MAK-UNK-ffc90da7-5_1
  -OEChem-07262101023D

 54 57  0     1  0  0  0  0  0999 V2000
   11.9780    0.4600   23.9150 C   0  0  0  0  0  0  0  0  0  0  0  0
    5.1217    1.1103   21.0637 C   0  0  0  0  0  0  0  0  0  0  0  0
   10.6560    0.0720   23.7350 C   0  0  0  0  0  0  0  0  0  0  0  0
    4.0766    2.0257   21.1998 C   0  0  0  0  0  0  0  0  0  0  0  0
   12.9840   -0.1200   23.1530 C   0  0  0  0  0  0  0  0  0  0  0  0
    3.8510    2.1343   18.7981 C   0  0  0  0  0  0  0  0  0  0  0  0
   11.3360   -1.5050   22.0650 C   0  0  0  0  0  0  0  0  0  0  0  0
    5.3505    0.7768   17.4014 C   0  0  0  0  0  0  0  0  0  0  0  0
    6.9503   -0.5830   18.3322 C   0  0  0  0  0  0  0  0  0  0  0  0
    5.5458    0.6941   19.7911 C   0  0  0  0  0  0  0  0  0  0  0  0
    4.9015    1.2136   18.6493 C   0  0  0  0  0  0  0  0  0  0  0  0
    3.4427    2.5366   20.0695 C   0  0  0  0  0  0  0  0  0  0  0  0
   10.3220   -0.8940   22.7910 C   0  0  0  0  0  0  0  0  0  0  0  0
    6.5902   -0.2221   19.6216 C   0  0  0  0  0  0  0  0  0  0  0  0
   12.6400   -1.1000   22.2390 C   0  0  0  0  0  0  0  0  0  0  0  0
    8.3880   -0.3240   21.3070 C   0  0  0  0  0  0  0  0  0  0  0  0
   -0.6432    1.2195   21.2407 C   0  0  0  0  0  0  0  0  0  0  0  0
   -0.8349    1.8908   19.9103 C   0  0  0  0  0  0  0  0  0  0  0  0
    0.5376    1.7959   20.5131 C   0  0  0  0  0  0  0  0  0  0  0  0
    2.7884    4.7994   20.9620 C   0  0  0  0  0  0  0  0  0  0  0  0
    8.8810   -1.1900   22.4510 C   0  0  0  0  0  0  0  0  0  0  0  0
    1.6981    3.9341   18.8565 C   0  0  0  0  0  0  0  0  0  0  0  0
    2.3265    3.5142   20.2200 C   0  0  1  0  0  0  0  0  0  0  0  0
    6.3571   -0.1069   17.2168 N   0  0  0  0  0  0  0  0  0  0  0  0
    7.2820   -0.7860   20.6970 N   0  0  0  0  0  0  0  0  0  0  0  0
    1.1355    3.0272   21.0482 N   0  3  0  0  0  0  0  0  0  0  0  0
    8.9170    0.7530   21.0260 O   0  0  0  0  0  0  0  0  0  0  0  0
    0.6413    4.8625   19.0792 O   0  0  0  0  0  0  0  0  0  0  0  0
   13.8840   -1.8490   21.2740 Cl  0  0  0  0  0  0  0  0  0  0  0  0
   12.2249    1.2198   24.6546 H   0  0  0  0  0  0  0  0  0  0  0  0
    5.5910    0.7339   21.9698 H   0  0  0  0  0  0  0  0  0  0  0  0
    9.8763    0.5350   24.3454 H   0  0  0  0  0  0  0  0  0  0  0  0
    3.7631    2.3341   22.1938 H   0  0  0  0  0  0  0  0  0  0  0  0
   14.0077    0.1988   23.2842 H   0  0  0  0  0  0  0  0  0  0  0  0
    3.3504    2.5377   17.9202 H   0  0  0  0  0  0  0  0  0  0  0  0
   11.0892   -2.3009   21.3624 H   0  0  0  0  0  0  0  0  0  0  0  0
    4.8991    1.1389   16.4815 H   0  0  0  0  0  0  0  0  0  0  0  0
    7.7538   -1.2903   18.1473 H   0  0  0  0  0  0  0  0  0  0  0  0
   -1.0142    1.7304   22.1208 H   0  0  0  0  0  0  0  0  0  0  0  0
   -0.7347    0.1408   21.2782 H   0  0  0  0  0  0  0  0  0  0  0  0
   -1.0549    1.2621   19.0561 H   0  0  0  0  0  0  0  0  0  0  0  0
   -1.3345    2.8518   19.8985 H   0  0  0  0  0  0  0  0  0  0  0  0
    1.2349    1.1003   20.0616 H   0  0  0  0  0  0  0  0  0  0  0  0
    1.9824    5.5327   21.0837 H   0  0  0  0  0  0  0  0  0  0  0  0
    3.5985    5.3008   20.4208 H   0  0  0  0  0  0  0  0  0  0  0  0
    3.1665    4.5508   21.9611 H   0  0  0  0  0  0  0  0  0  0  0  0
    8.7775   -2.2383   22.1732 H   0  0  0  0  0  0  0  0  0  0  0  0
    8.2557   -1.0153   23.3257 H   0  0  0  0  0  0  0  0  0  0  0  0
    2.4280    4.4065   18.1882 H   0  0  0  0  0  0  0  0  0  0  0  0
    1.2821    3.0674   18.3314 H   0  0  0  0  0  0  0  0  0  0  0  0
    6.8981   -1.6619   21.0675 H   0  0  0  0  0  0  0  0  0  0  0  0
    0.4603    3.7861   21.0662 H   0  0  0  0  0  0  0  0  0  0  0  0
    1.4734    2.8899   21.9964 H   0  0  0  0  0  0  0  0  0  0  0  0
    0.2852    5.0917   18.2065 H   0  0  0  0  0  0  0  0  0  0  0  0
  1  3  2  0  0  0  0
  1  5  1  0  0  0  0
  2  4  2  0  0  0  0
  2 10  1  0  0  0  0
  3 13  1  0  0  0  0
  4 12  1  0  0  0  0
  5 15  2  0  0  0  0
  6 11  1  0  0  0  0
  6 12  2  0  0  0  0
  7 13  2  0  0  0  0
  7 15  1  0  0  0  0
  8 11  2  0  0  0  0
  8 24  1  0  0  0  0
  9 14  1  0  0  0  0
  9 24  2  0  0  0  0
 10 11  1  0  0  0  0
 10 14  2  0  0  0  0
 12 23  1  0  0  0  0
 13 21  1  0  0  0  0
 14 25  1  0  0  0  0
 15 29  1  0  0  0  0
 16 21  1  0  0  0  0
 16 25  1  0  0  0  0
 16 27  2  0  0  0  0
 17 18  1  0  0  0  0
 17 19  1  0  0  0  0
 18 19  1  0  0  0  0
 19 26  1  0  0  0  0
 20 23  1  1  0  0  0
 22 23  1  0  0  0  0
 22 28  1  0  0  0  0
 23 26  1  0  0  0  0
  1 30  1  0  0  0  0
  2 31  1  0  0  0  0
  3 32  1  0  0  0  0
  4 33  1  0  0  0  0
  5 34  1  0  0  0  0
  6 35  1  0  0  0  0
  7 36  1  0  0  0  0
  8 37  1  0  0  0  0
  9 38  1  0  0  0  0
 17 39  1  0  0  0  0
 17 40  1  0  0  0  0
 18 41  1  0  0  0  0
 18 42  1  0  0  0  0
 19 43  1  0  0  0  0
 20 44  1  0  0  0  0
 20 45  1  0  0  0  0
 20 46  1  0  0  0  0
 21 47  1  0  0  0  0
 21 48  1  0  0  0  0
 22 49  1  0  0  0  0
 22 50  1  0  0  0  0
 25 51  1  0  0  0  0
 26 52  1  0  0  0  0
 26 53  1  0  0  0  0
 28 54  1  0  0  0  0
M  CHG  1  26   1
M  END
> <compound>
MAK-UNK-ffc90da7-5

> <compound_smiles>
CC(CO)(c1ccc2c(c1)cncc2NC(=O)Cc3cccc(c3)Cl)NC4CC4

> <enantiomer_smiles>
C[C@@](CO)(c1ccc2c(c1)cncc2NC(=O)Cc3cccc(c3)Cl)NC4CC4

> <scaffold>
chlorobenzene-linker

> <clash_score>
0

> <docking_score>
-10.083794593811035

> <overlap_score>
0.9855029582977295

> <MMFF_internal_energy>
155.4774929867543

> <docked_smiles>
C[C@@](CO)(c1ccc2c(c1)cncc2NC(=O)Cc3cccc(c3)Cl)[NH2+]C4CC4

$$$$
MAK-UNK-ffc90da7-9_3
  -OEChem-07262101023D

 58 61  0     1  0  0  0  0  0999 V2000
   11.9780    0.4600   23.9150 C   0  0  0  0  0  0  0  0  0  0  0  0
    4.4258   -1.1215   20.3410 C   0  0  0  0  0  0  0  0  0  0  0  0
   10.6560    0.0720   23.7350 C   0  0  0  0  0  0  0  0  0  0  0  0
    3.0521   -1.2609   20.1354 C   0  0  0  0  0  0  0  0  0  0  0  0
   12.9840   -0.1200   23.1530 C   0  0  0  0  0  0  0  0  0  0  0  0
    3.2103    0.0769   18.1314 C   0  0  0  0  0  0  0  0  0  0  0  0
   11.3360   -1.5050   22.0650 C   0  0  0  0  0  0  0  0  0  0  0  0
    5.4061    0.9528   17.4579 C   0  0  0  0  0  0  0  0  0  0  0  0
    7.2960    0.5250   18.6908 C   0  0  0  0  0  0  0  0  0  0  0  0
    5.2110   -0.3801   19.4431 C   0  0  0  0  0  0  0  0  0  0  0  0
    4.5934    0.2236   18.3283 C   0  0  0  0  0  0  0  0  0  0  0  0
    2.4458   -0.6630   19.0331 C   0  0  0  0  0  0  0  0  0  0  0  0
   10.3220   -0.8940   22.7910 C   0  0  0  0  0  0  0  0  0  0  0  0
    6.5902   -0.2221   19.6216 C   0  0  0  0  0  0  0  0  0  0  0  0
   12.6400   -1.1000   22.2390 C   0  0  0  0  0  0  0  0  0  0  0  0
    8.3880   -0.3240   21.3070 C   0  0  0  0  0  0  0  0  0  0  0  0
   -0.8261    3.7592   21.2107 C   0  0  0  0  0  0  0  0  0  0  0  0
    0.4004    4.5914   21.5241 C   0  0  0  0  0  0  0  0  0  0  0  0
   -0.4176    2.9929   19.9705 C   0  0  2  0  0  0  0  0  0  0  0  0
    0.5114    3.9788   19.2650 C   0  0  2  0  0  0  0  0  0  0  0  0
   -0.2378    4.8768   18.2845 C   0  0  0  0  0  0  0  0  0  0  0  0
    0.6747   -1.5781   17.5080 C   0  0  0  0  0  0  0  0  0  0  0  0
    8.8810   -1.1900   22.4510 C   0  0  0  0  0  0  0  0  0  0  0  0
    0.2549    0.5573   18.8626 C   0  0  0  0  0  0  0  0  0  0  0  0
    0.9777   -0.8148   18.8176 C   0  0  1  0  0  0  0  0  0  0  0  0
    6.7392    1.1171   17.6128 N   0  0  0  0  0  0  0  0  0  0  0  0
    7.2820   -0.7860   20.6970 N   0  0  0  0  0  0  0  0  0  0  0  0
    8.9170    0.7530   21.0260 O   0  0  0  0  0  0  0  0  0  0  0  0
    1.0802    4.8235   20.2835 O   0  0  0  0  0  0  0  0  0  0  0  0
    0.4860    1.4672   20.4219 S   0  0  0  0  0  0  0  0  0  0  0  0
   13.8840   -1.8490   21.2740 Cl  0  0  0  0  0  0  0  0  0  0  0  0
   12.2249    1.2198   24.6546 H   0  0  0  0  0  0  0  0  0  0  0  0
    4.8623   -1.6035   21.2129 H   0  0  0  0  0  0  0  0  0  0  0  0
    9.8763    0.5350   24.3454 H   0  0  0  0  0  0  0  0  0  0  0  0
    2.4626   -1.8396   20.8418 H   0  0  0  0  0  0  0  0  0  0  0  0
   14.0077    0.1988   23.2842 H   0  0  0  0  0  0  0  0  0  0  0  0
    2.7291    0.5405   17.2725 H   0  0  0  0  0  0  0  0  0  0  0  0
   11.0892   -2.3009   21.3624 H   0  0  0  0  0  0  0  0  0  0  0  0
    4.9938    1.4448   16.5809 H   0  0  0  0  0  0  0  0  0  0  0  0
    8.3675    0.6770   18.7841 H   0  0  0  0  0  0  0  0  0  0  0  0
   -1.1556    3.1467   22.0556 H   0  0  0  0  0  0  0  0  0  0  0  0
   -1.6563    4.4316   20.9595 H   0  0  0  0  0  0  0  0  0  0  0  0
    0.1462    5.5496   21.9864 H   0  0  0  0  0  0  0  0  0  0  0  0
    1.0878    4.0594   22.1900 H   0  0  0  0  0  0  0  0  0  0  0  0
   -1.2688    2.6854   19.3594 H   0  0  0  0  0  0  0  0  0  0  0  0
    1.3288    3.4903   18.7232 H   0  0  0  0  0  0  0  0  0  0  0  0
   -1.0592    5.3782   18.7947 H   0  0  0  0  0  0  0  0  0  0  0  0
   -0.6388    4.2791   17.4671 H   0  0  0  0  0  0  0  0  0  0  0  0
    0.4392    5.6271   17.8779 H   0  0  0  0  0  0  0  0  0  0  0  0
    1.0702   -1.0252   16.6481 H   0  0  0  0  0  0  0  0  0  0  0  0
    1.1283   -2.5741   17.4901 H   0  0  0  0  0  0  0  0  0  0  0  0
   -0.4033   -1.7004   17.3567 H   0  0  0  0  0  0  0  0  0  0  0  0
    8.7775   -2.2383   22.1732 H   0  0  0  0  0  0  0  0  0  0  0  0
    8.2557   -1.0153   23.3257 H   0  0  0  0  0  0  0  0  0  0  0  0
   -0.8218    0.4342   18.7033 H   0  0  0  0  0  0  0  0  0  0  0  0
    0.6314    1.1975   18.0566 H   0  0  0  0  0  0  0  0  0  0  0  0
    0.5504   -1.4319   19.6336 H   0  0  0  0  0  0  0  0  0  0  0  0
    6.8981   -1.6619   21.0675 H   0  0  0  0  0  0  0  0  0  0  0  0
  1  3  2  0  0  0  0
  1  5  1  0  0  0  0
  2  4  2  0  0  0  0
  2 10  1  0  0  0  0
  3 13  1  0  0  0  0
  4 12  1  0  0  0  0
  5 15  2  0  0  0  0
  6 11  1  0  0  0  0
  6 12  2  0  0  0  0
  7 13  2  0  0  0  0
  7 15  1  0  0  0  0
  8 11  2  0  0  0  0
  8 26  1  0  0  0  0
  9 14  1  0  0  0  0
  9 26  2  0  0  0  0
 10 11  1  0  0  0  0
 10 14  2  0  0  0  0
 12 25  1  0  0  0  0
 13 23  1  0  0  0  0
 14 27  1  0  0  0  0
 15 31  1  0  0  0  0
 16 23  1  0  0  0  0
 16 27  1  0  0  0  0
 16 28  2  0  0  0  0
 17 18  1  0  0  0  0
 17 19  1  0  0  0  0
 18 29  1  0  0  0  0
 19 20  1  0  0  0  0
 19 30  1  6  0  0  0
 20 21  1  1  0  0  0
 20 29  1  0  0  0  0
 22 25  1  1  0  0  0
 24 25  1  0  0  0  0
 24 30  1  0  0  0  0
  1 32  1  0  0  0  0
  2 33  1  0  0  0  0
  3 34  1  0  0  0  0
  4 35  1  0  0  0  0
  5 36  1  0  0  0  0
  6 37  1  0  0  0  0
  7 38  1  0  0  0  0
  8 39  1  0  0  0  0
  9 40  1  0  0  0  0
 17 41  1  0  0  0  0
 17 42  1  0  0  0  0
 18 43  1  0  0  0  0
 18 44  1  0  0  0  0
 19 45  1  0  0  0  0
 20 46  1  0  0  0  0
 21 47  1  0  0  0  0
 21 48  1  0  0  0  0
 21 49  1  0  0  0  0
 22 50  1  0  0  0  0
 22 51  1  0  0  0  0
 22 52  1  0  0  0  0
 23 53  1  0  0  0  0
 23 54  1  0  0  0  0
 24 55  1  0  0  0  0
 24 56  1  0  0  0  0
 25 57  1  0  0  0  0
 27 58  1  0  0  0  0
M  END
> <compound>
MAK-UNK-ffc90da7-9

> <compound_smiles>
CC1C(CCO1)SCC(C)c2ccc3c(c2)cncc3NC(=O)Cc4cccc(c4)Cl

> <enantiomer_smiles>
C[C@@H]1[C@H](CCO1)SC[C@@H](C)c2ccc3c(c2)cncc3NC(=O)Cc4cccc(c4)Cl

> <scaffold>
chlorobenzene-linker

> <clash_score>
13.915188686364424

> <docking_score>
3.969818592071533

> <overlap_score>
0.7647261023521423

> <MMFF_internal_energy>
129.3725274686301

> <docked_smiles>
C[C@@H]1[C@H](CCO1)SC[C@@H](C)c2ccc3c(c2)cncc3NC(=O)Cc4cccc(c4)Cl

$$$$
MAK-UNK-ffc90da7-1_2
  -OEChem-07262101023D

 56 58  0     1  0  0  0  0  0999 V2000
    3.4829    2.5990   20.0545 C   0  0  0  0  0  0  0  0  0  0  0  0
    4.1078    2.0778   21.1851 C   0  0  0  0  0  0  0  0  0  0  0  0
   11.9780    0.4600   23.9150 C   0  0  0  0  0  0  0  0  0  0  0  0
    3.8872    2.1924   18.7832 C   0  0  0  0  0  0  0  0  0  0  0  0
    5.1399    1.1477   21.0494 C   0  0  0  0  0  0  0  0  0  0  0  0
   10.6560    0.0720   23.7350 C   0  0  0  0  0  0  0  0  0  0  0  0
   12.9840   -0.1200   23.1530 C   0  0  0  0  0  0  0  0  0  0  0  0
   11.3360   -1.5050   22.0650 C   0  0  0  0  0  0  0  0  0  0  0  0
    5.3690    0.8152   17.3870 C   0  0  0  0  0  0  0  0  0  0  0  0
    6.9479   -0.5684   18.3184 C   0  0  0  0  0  0  0  0  0  0  0  0
    4.9246    1.2569   18.6348 C   0  0  0  0  0  0  0  0  0  0  0  0
    5.5598    0.7270   19.7769 C   0  0  0  0  0  0  0  0  0  0  0  0
   10.3220   -0.8940   22.7910 C   0  0  0  0  0  0  0  0  0  0  0  0
    6.5912   -0.2039   19.6077 C   0  0  0  0  0  0  0  0  0  0  0  0
   12.6400   -1.1000   22.2390 C   0  0  0  0  0  0  0  0  0  0  0  0
    8.3880   -0.3240   21.3070 C   0  0  0  0  0  0  0  0  0  0  0  0
    9.3569   -3.6322   23.1659 C   0  0  0  0  0  0  0  0  0  0  0  0
   10.0372   -5.1178   18.8593 C   0  0  0  0  0  0  0  0  0  0  0  0
    8.5553   -4.7860   18.8988 C   0  0  0  0  0  0  0  0  0  0  0  0
    8.9748   -3.1287   20.7198 C   0  0  0  0  0  0  0  0  0  0  0  0
   10.4486   -5.6583   17.4974 C   0  0  0  0  0  0  0  0  0  0  0  0
    8.8810   -1.1900   22.4510 C   0  0  1  0  0  0  0  0  0  0  0  0
    8.6228   -2.7224   22.1659 C   0  0  2  0  0  0  0  0  0  0  0  0
    6.3631   -0.0826   17.2027 N   0  0  0  0  0  0  0  0  0  0  0  0
    7.2820   -0.7860   20.6970 N   0  0  0  0  0  0  0  0  0  0  0  0
    8.1990   -4.3061   20.2624 N   0  3  0  0  0  0  0  0  0  0  0  0
    8.9170    0.7530   21.0260 O   0  0  0  0  0  0  0  0  0  0  0  0
   10.1593   -4.6804   16.5079 O   0  0  0  0  0  0  0  0  0  0  0  0
   13.8840   -1.8490   21.2740 Cl  0  0  0  0  0  0  0  0  0  0  0  0
    2.6801    3.3223   20.1631 H   0  0  0  0  0  0  0  0  0  0  0  0
    3.7912    2.3956   22.1744 H   0  0  0  0  0  0  0  0  0  0  0  0
   12.2249    1.2198   24.6546 H   0  0  0  0  0  0  0  0  0  0  0  0
    3.3884    2.6092   17.9112 H   0  0  0  0  0  0  0  0  0  0  0  0
    5.6035    0.7643   21.9554 H   0  0  0  0  0  0  0  0  0  0  0  0
    9.8763    0.5350   24.3454 H   0  0  0  0  0  0  0  0  0  0  0  0
   14.0077    0.1988   23.2842 H   0  0  0  0  0  0  0  0  0  0  0  0
   11.0892   -2.3009   21.3624 H   0  0  0  0  0  0  0  0  0  0  0  0
    4.9229    1.1830   16.4670 H   0  0  0  0  0  0  0  0  0  0  0  0
    7.7413   -1.2873   18.1342 H   0  0  0  0  0  0  0  0  0  0  0  0
   10.4405   -3.4843   23.1042 H   0  0  0  0  0  0  0  0  0  0  0  0
    9.0622   -3.4090   24.1962 H   0  0  0  0  0  0  0  0  0  0  0  0
    9.1465   -4.6905   22.9805 H   0  0  0  0  0  0  0  0  0  0  0  0
   10.2867   -5.8552   19.6330 H   0  0  0  0  0  0  0  0  0  0  0  0
   10.6366   -4.2286   19.0929 H   0  0  0  0  0  0  0  0  0  0  0  0
    7.9333   -5.6633   18.6984 H   0  0  0  0  0  0  0  0  0  0  0  0
    8.2963   -3.9834   18.2020 H   0  0  0  0  0  0  0  0  0  0  0  0
    8.7736   -2.3270   20.0041 H   0  0  0  0  0  0  0  0  0  0  0  0
   10.0316   -3.4026   20.6348 H   0  0  0  0  0  0  0  0  0  0  0  0
    9.8955   -6.5717   17.2565 H   0  0  0  0  0  0  0  0  0  0  0  0
   11.5215   -5.8737   17.4707 H   0  0  0  0  0  0  0  0  0  0  0  0
    8.2678   -0.9572   23.3517 H   0  0  0  0  0  0  0  0  0  0  0  0
    7.5494   -2.9234   22.2832 H   0  0  0  0  0  0  0  0  0  0  0  0
    6.8771   -1.6492   21.0526 H   0  0  0  0  0  0  0  0  0  0  0  0
    7.1931   -4.0821   20.2851 H   0  0  0  0  0  0  0  0  0  0  0  0
    8.3251   -5.0797   20.9319 H   0  0  0  0  0  0  0  0  0  0  0  0
   10.4325   -5.0552   15.6549 H   0  0  0  0  0  0  0  0  0  0  0  0
  1  2  1  0  0  0  0
  1  4  2  0  0  0  0
  2  5  2  0  0  0  0
  3  6  2  0  0  0  0
  3  7  1  0  0  0  0
  4 11  1  0  0  0  0
  5 12  1  0  0  0  0
  6 13  1  0  0  0  0
  7 15  2  0  0  0  0
  8 13  2  0  0  0  0
  8 15  1  0  0  0  0
  9 11  2  0  0  0  0
  9 24  1  0  0  0  0
 10 14  1  0  0  0  0
 10 24  2  0  0  0  0
 11 12  1  0  0  0  0
 12 14  2  0  0  0  0
 13 22  1  0  0  0  0
 14 25  1  0  0  0  0
 15 29  1  0  0  0  0
 16 22  1  1  0  0  0
 16 25  1  0  0  0  0
 16 27  2  0  0  0  0
 17 23  1  6  0  0  0
 18 19  1  0  0  0  0
 18 21  1  0  0  0  0
 19 26  1  0  0  0  0
 20 23  1  0  0  0  0
 20 26  1  0  0  0  0
 21 28  1  0  0  0  0
 22 23  1  0  0  0  0
  1 30  1  0  0  0  0
  2 31  1  0  0  0  0
  3 32  1  0  0  0  0
  4 33  1  0  0  0  0
  5 34  1  0  0  0  0
  6 35  1  0  0  0  0
  7 36  1  0  0  0  0
  8 37  1  0  0  0  0
  9 38  1  0  0  0  0
 10 39  1  0  0  0  0
 17 40  1  0  0  0  0
 17 41  1  0  0  0  0
 17 42  1  0  0  0  0
 18 43  1  0  0  0  0
 18 44  1  0  0  0  0
 19 45  1  0  0  0  0
 19 46  1  0  0  0  0
 20 47  1  0  0  0  0
 20 48  1  0  0  0  0
 21 49  1  0  0  0  0
 21 50  1  0  0  0  0
 22 51  1  0  0  0  0
 23 52  1  0  0  0  0
 25 53  1  0  0  0  0
 26 54  1  0  0  0  0
 26 55  1  0  0  0  0
 28 56  1  0  0  0  0
M  CHG  1  26   1
M  END
> <compound>
MAK-UNK-ffc90da7-1

> <compound_smiles>
CC(CNCCCO)C(c1cccc(c1)Cl)C(=O)Nc2cncc3c2cccc3

> <enantiomer_smiles>
C[C@H](CNCCCO)[C@@H](c1cccc(c1)Cl)C(=O)Nc2cncc3c2cccc3

> <scaffold>
chlorobenzene-linker

> <clash_score>
4.680083938840849

> <docking_score>
-4.627861022949219

> <overlap_score>
0.9813868999481201

> <MMFF_internal_energy>
137.07680154516424

> <docked_smiles>
C[C@H](C[NH2+]CCCO)[C@@H](c1cccc(c1)Cl)C(=O)Nc2cncc3c2cccc3

$$$$
MAK-UNK-ffc90da7-9_1
  -OEChem-07262101023D

 58 61  0     1  0  0  0  0  0999 V2000
   11.9780    0.4600   23.9150 C   0  0  0  0  0  0  0  0  0  0  0  0
    4.4258   -1.1215   20.3410 C   0  0  0  0  0  0  0  0  0  0  0  0
   10.6560    0.0720   23.7350 C   0  0  0  0  0  0  0  0  0  0  0  0
    3.0521   -1.2608   20.1354 C   0  0  0  0  0  0  0  0  0  0  0  0
   12.9840   -0.1200   23.1530 C   0  0  0  0  0  0  0  0  0  0  0  0
    3.2103    0.0769   18.1314 C   0  0  0  0  0  0  0  0  0  0  0  0
   11.3360   -1.5050   22.0650 C   0  0  0  0  0  0  0  0  0  0  0  0
    5.4061    0.9528   17.4579 C   0  0  0  0  0  0  0  0  0  0  0  0
    7.2960    0.5250   18.6908 C   0  0  0  0  0  0  0  0  0  0  0  0
    5.2110   -0.3801   19.4431 C   0  0  0  0  0  0  0  0  0  0  0  0
    4.5934    0.2236   18.3283 C   0  0  0  0  0  0  0  0  0  0  0  0
    2.4458   -0.6629   19.0331 C   0  0  0  0  0  0  0  0  0  0  0  0
   10.3220   -0.8940   22.7910 C   0  0  0  0  0  0  0  0  0  0  0  0
    6.5902   -0.2221   19.6216 C   0  0  0  0  0  0  0  0  0  0  0  0
   12.6400   -1.1000   22.2390 C   0  0  0  0  0  0  0  0  0  0  0  0
    8.3880   -0.3240   21.3070 C   0  0  0  0  0  0  0  0  0  0  0  0
   -0.4288    4.3307   20.0208 C   0  0  0  0  0  0  0  0  0  0  0  0
    0.8963    5.0237   20.2794 C   0  0  0  0  0  0  0  0  0  0  0  0
   -0.1510    2.8927   20.4124 C   0  0  1  0  0  0  0  0  0  0  0  0
    0.7973    3.0978   21.5943 C   0  0  2  0  0  0  0  0  0  0  0  0
    1.7153    1.9510   21.9789 C   0  0  0  0  0  0  0  0  0  0  0  0
    0.6293   -0.8610   17.3123 C   0  0  0  0  0  0  0  0  0  0  0  0
    8.8810   -1.1900   22.4510 C   0  0  0  0  0  0  0  0  0  0  0  0
    0.1804    0.2914   19.5577 C   0  0  0  0  0  0  0  0  0  0  0  0
    0.9777   -0.8148   18.8176 C   0  0  1  0  0  0  0  0  0  0  0  0
    6.7392    1.1171   17.6128 N   0  0  0  0  0  0  0  0  0  0  0  0
    7.2820   -0.7860   20.6970 N   0  0  0  0  0  0  0  0  0  0  0  0
    8.9170    0.7530   21.0260 O   0  0  0  0  0  0  0  0  0  0  0  0
    1.5823    4.2649   21.2862 O   0  0  0  0  0  0  0  0  0  0  0  0
    0.5564    1.9806   18.9940 S   0  0  0  0  0  0  0  0  0  0  0  0
   13.8840   -1.8490   21.2740 Cl  0  0  0  0  0  0  0  0  0  0  0  0
   12.2249    1.2198   24.6546 H   0  0  0  0  0  0  0  0  0  0  0  0
    4.8623   -1.6035   21.2129 H   0  0  0  0  0  0  0  0  0  0  0  0
    9.8763    0.5350   24.3454 H   0  0  0  0  0  0  0  0  0  0  0  0
    2.4625   -1.8396   20.8418 H   0  0  0  0  0  0  0  0  0  0  0  0
   14.0077    0.1988   23.2842 H   0  0  0  0  0  0  0  0  0  0  0  0
    2.7291    0.5405   17.2725 H   0  0  0  0  0  0  0  0  0  0  0  0
   11.0892   -2.3009   21.3624 H   0  0  0  0  0  0  0  0  0  0  0  0
    4.9939    1.4448   16.5809 H   0  0  0  0  0  0  0  0  0  0  0  0
    8.3675    0.6770   18.7841 H   0  0  0  0  0  0  0  0  0  0  0  0
   -1.1826    4.7461   20.7023 H   0  0  0  0  0  0  0  0  0  0  0  0
   -0.8006    4.4820   19.0027 H   0  0  0  0  0  0  0  0  0  0  0  0
    1.5252    5.0372   19.3833 H   0  0  0  0  0  0  0  0  0  0  0  0
    0.7650    6.0535   20.6242 H   0  0  0  0  0  0  0  0  0  0  0  0
   -1.0580    2.3602   20.7086 H   0  0  0  0  0  0  0  0  0  0  0  0
    0.1976    3.3614   22.4760 H   0  0  0  0  0  0  0  0  0  0  0  0
    2.3311    1.6577   21.1264 H   0  0  0  0  0  0  0  0  0  0  0  0
    1.1282    1.0882   22.2993 H   0  0  0  0  0  0  0  0  0  0  0  0
    2.3720    2.2510   22.7979 H   0  0  0  0  0  0  0  0  0  0  0  0
    0.9304    0.0740   16.8258 H   0  0  0  0  0  0  0  0  0  0  0  0
    1.1382   -1.6772   16.7901 H   0  0  0  0  0  0  0  0  0  0  0  0
   -0.4477   -0.9852   17.1547 H   0  0  0  0  0  0  0  0  0  0  0  0
    8.7774   -2.2383   22.1732 H   0  0  0  0  0  0  0  0  0  0  0  0
    8.2557   -1.0153   23.3257 H   0  0  0  0  0  0  0  0  0  0  0  0
    0.3674    0.2490   20.6362 H   0  0  0  0  0  0  0  0  0  0  0  0
   -0.8937    0.1327   19.4077 H   0  0  0  0  0  0  0  0  0  0  0  0
    0.6455   -1.7867   19.2352 H   0  0  0  0  0  0  0  0  0  0  0  0
    6.8981   -1.6619   21.0675 H   0  0  0  0  0  0  0  0  0  0  0  0
  1  3  2  0  0  0  0
  1  5  1  0  0  0  0
  2  4  2  0  0  0  0
  2 10  1  0  0  0  0
  3 13  1  0  0  0  0
  4 12  1  0  0  0  0
  5 15  2  0  0  0  0
  6 11  1  0  0  0  0
  6 12  2  0  0  0  0
  7 13  2  0  0  0  0
  7 15  1  0  0  0  0
  8 11  2  0  0  0  0
  8 26  1  0  0  0  0
  9 14  1  0  0  0  0
  9 26  2  0  0  0  0
 10 11  1  0  0  0  0
 10 14  2  0  0  0  0
 12 25  1  0  0  0  0
 13 23  1  0  0  0  0
 14 27  1  0  0  0  0
 15 31  1  0  0  0  0
 16 23  1  0  0  0  0
 16 27  1  0  0  0  0
 16 28  2  0  0  0  0
 17 18  1  0  0  0  0
 17 19  1  0  0  0  0
 18 29  1  0  0  0  0
 19 20  1  0  0  0  0
 19 30  1  1  0  0  0
 20 21  1  1  0  0  0
 20 29  1  0  0  0  0
 22 25  1  1  0  0  0
 24 25  1  0  0  0  0
 24 30  1  0  0  0  0
  1 32  1  0  0  0  0
  2 33  1  0  0  0  0
  3 34  1  0  0  0  0
  4 35  1  0  0  0  0
  5 36  1  0  0  0  0
  6 37  1  0  0  0  0
  7 38  1  0  0  0  0
  8 39  1  0  0  0  0
  9 40  1  0  0  0  0
 17 41  1  0  0  0  0
 17 42  1  0  0  0  0
 18 43  1  0  0  0  0
 18 44  1  0  0  0  0
 19 45  1  0  0  0  0
 20 46  1  0  0  0  0
 21 47  1  0  0  0  0
 21 48  1  0  0  0  0
 21 49  1  0  0  0  0
 22 50  1  0  0  0  0
 22 51  1  0  0  0  0
 22 52  1  0  0  0  0
 23 53  1  0  0  0  0
 23 54  1  0  0  0  0
 24 55  1  0  0  0  0
 24 56  1  0  0  0  0
 25 57  1  0  0  0  0
 27 58  1  0  0  0  0
M  END
> <compound>
MAK-UNK-ffc90da7-9

> <compound_smiles>
CC1C(CCO1)SCC(C)c2ccc3c(c2)cncc3NC(=O)Cc4cccc(c4)Cl

> <enantiomer_smiles>
C[C@@H]1[C@@H](CCO1)SC[C@@H](C)c2ccc3c(c2)cncc3NC(=O)Cc4cccc(c4)Cl

> <scaffold>
chlorobenzene-linker

> <clash_score>
12.930085183357154

> <docking_score>
3.9078783988952637

> <overlap_score>
0.7738242149353027

> <MMFF_internal_energy>
134.35445641548986

> <docked_smiles>
C[C@@H]1[C@@H](CCO1)SC[C@@H](C)c2ccc3c(c2)cncc3NC(=O)Cc4cccc(c4)Cl

$$$$
MAK-UNK-ffc90da7-1_1
  -OEChem-07262101023D

 56 58  0     1  0  0  0  0  0999 V2000
    3.4829    2.5990   20.0546 C   0  0  0  0  0  0  0  0  0  0  0  0
    4.1078    2.0778   21.1851 C   0  0  0  0  0  0  0  0  0  0  0  0
   11.9780    0.4600   23.9150 C   0  0  0  0  0  0  0  0  0  0  0  0
    3.8872    2.1924   18.7832 C   0  0  0  0  0  0  0  0  0  0  0  0
    5.1399    1.1477   21.0494 C   0  0  0  0  0  0  0  0  0  0  0  0
   10.6560    0.0720   23.7350 C   0  0  0  0  0  0  0  0  0  0  0  0
   12.9840   -0.1200   23.1530 C   0  0  0  0  0  0  0  0  0  0  0  0
   11.3360   -1.5050   22.0650 C   0  0  0  0  0  0  0  0  0  0  0  0
    5.3690    0.8152   17.3870 C   0  0  0  0  0  0  0  0  0  0  0  0
    6.9479   -0.5684   18.3183 C   0  0  0  0  0  0  0  0  0  0  0  0
    4.9246    1.2569   18.6348 C   0  0  0  0  0  0  0  0  0  0  0  0
    5.5597    0.7270   19.7769 C   0  0  0  0  0  0  0  0  0  0  0  0
   10.3220   -0.8940   22.7910 C   0  0  0  0  0  0  0  0  0  0  0  0
    6.5912   -0.2039   19.6077 C   0  0  0  0  0  0  0  0  0  0  0  0
   12.6400   -1.1000   22.2390 C   0  0  0  0  0  0  0  0  0  0  0  0
    8.3880   -0.3240   21.3070 C   0  0  0  0  0  0  0  0  0  0  0  0
    8.9867   -3.1058   20.7212 C   0  0  0  0  0  0  0  0  0  0  0  0
    6.7620   -4.2010   25.9166 C   0  0  0  0  0  0  0  0  0  0  0  0
    7.2859   -4.1839   24.4908 C   0  0  0  0  0  0  0  0  0  0  0  0
    9.3341   -3.6650   23.1588 C   0  0  0  0  0  0  0  0  0  0  0  0
    7.5817   -5.1326   26.7977 C   0  0  0  0  0  0  0  0  0  0  0  0
    8.8810   -1.1900   22.4510 C   0  0  1  0  0  0  0  0  0  0  0  0
    8.6228   -2.7224   22.1659 C   0  0  1  0  0  0  0  0  0  0  0  0
    6.3631   -0.0826   17.2027 N   0  0  0  0  0  0  0  0  0  0  0  0
    7.2820   -0.7860   20.6970 N   0  0  0  0  0  0  0  0  0  0  0  0
    8.6840   -3.6720   24.4909 N   0  3  0  0  0  0  0  0  0  0  0  0
    8.9170    0.7530   21.0260 O   0  0  0  0  0  0  0  0  0  0  0  0
    7.0569   -5.0973   28.1176 O   0  0  0  0  0  0  0  0  0  0  0  0
   13.8840   -1.8490   21.2740 Cl  0  0  0  0  0  0  0  0  0  0  0  0
    2.6801    3.3223   20.1631 H   0  0  0  0  0  0  0  0  0  0  0  0
    3.7912    2.3956   22.1744 H   0  0  0  0  0  0  0  0  0  0  0  0
   12.2249    1.2198   24.6546 H   0  0  0  0  0  0  0  0  0  0  0  0
    3.3884    2.6092   17.9112 H   0  0  0  0  0  0  0  0  0  0  0  0
    5.6035    0.7643   21.9554 H   0  0  0  0  0  0  0  0  0  0  0  0
    9.8763    0.5350   24.3454 H   0  0  0  0  0  0  0  0  0  0  0  0
   14.0077    0.1988   23.2842 H   0  0  0  0  0  0  0  0  0  0  0  0
   11.0892   -2.3009   21.3624 H   0  0  0  0  0  0  0  0  0  0  0  0
    4.9229    1.1830   16.4670 H   0  0  0  0  0  0  0  0  0  0  0  0
    7.7413   -1.2873   18.1342 H   0  0  0  0  0  0  0  0  0  0  0  0
   10.0518   -2.9366   20.5298 H   0  0  0  0  0  0  0  0  0  0  0  0
    8.7924   -4.1661   20.5309 H   0  0  0  0  0  0  0  0  0  0  0  0
    8.4130   -2.5252   19.9915 H   0  0  0  0  0  0  0  0  0  0  0  0
    5.7104   -4.5150   25.9358 H   0  0  0  0  0  0  0  0  0  0  0  0
    6.7775   -3.1903   26.3440 H   0  0  0  0  0  0  0  0  0  0  0  0
    6.7038   -3.5170   23.8480 H   0  0  0  0  0  0  0  0  0  0  0  0
    7.3147   -5.1858   24.0527 H   0  0  0  0  0  0  0  0  0  0  0  0
    9.3422   -4.7018   22.8116 H   0  0  0  0  0  0  0  0  0  0  0  0
   10.3711   -3.3535   23.3222 H   0  0  0  0  0  0  0  0  0  0  0  0
    8.6293   -4.8173   26.8308 H   0  0  0  0  0  0  0  0  0  0  0  0
    7.5307   -6.1626   26.4303 H   0  0  0  0  0  0  0  0  0  0  0  0
    8.2678   -0.9572   23.3517 H   0  0  0  0  0  0  0  0  0  0  0  0
    7.5483   -2.9169   22.2847 H   0  0  0  0  0  0  0  0  0  0  0  0
    6.8771   -1.6492   21.0526 H   0  0  0  0  0  0  0  0  0  0  0  0
    8.6898   -2.7170   24.8788 H   0  0  0  0  0  0  0  0  0  0  0  0
    9.2467   -4.2385   25.1429 H   0  0  0  0  0  0  0  0  0  0  0  0
    7.5999   -5.6997   28.6516 H   0  0  0  0  0  0  0  0  0  0  0  0
  1  2  1  0  0  0  0
  1  4  2  0  0  0  0
  2  5  2  0  0  0  0
  3  6  2  0  0  0  0
  3  7  1  0  0  0  0
  4 11  1  0  0  0  0
  5 12  1  0  0  0  0
  6 13  1  0  0  0  0
  7 15  2  0  0  0  0
  8 13  2  0  0  0  0
  8 15  1  0  0  0  0
  9 11  2  0  0  0  0
  9 24  1  0  0  0  0
 10 14  1  0  0  0  0
 10 24  2  0  0  0  0
 11 12  1  0  0  0  0
 12 14  2  0  0  0  0
 13 22  1  0  0  0  0
 14 25  1  0  0  0  0
 15 29  1  0  0  0  0
 16 22  1  1  0  0  0
 16 25  1  0  0  0  0
 16 27  2  0  0  0  0
 17 23  1  1  0  0  0
 18 19  1  0  0  0  0
 18 21  1  0  0  0  0
 19 26  1  0  0  0  0
 20 23  1  0  0  0  0
 20 26  1  0  0  0  0
 21 28  1  0  0  0  0
 22 23  1  0  0  0  0
  1 30  1  0  0  0  0
  2 31  1  0  0  0  0
  3 32  1  0  0  0  0
  4 33  1  0  0  0  0
  5 34  1  0  0  0  0
  6 35  1  0  0  0  0
  7 36  1  0  0  0  0
  8 37  1  0  0  0  0
  9 38  1  0  0  0  0
 10 39  1  0  0  0  0
 17 40  1  0  0  0  0
 17 41  1  0  0  0  0
 17 42  1  0  0  0  0
 18 43  1  0  0  0  0
 18 44  1  0  0  0  0
 19 45  1  0  0  0  0
 19 46  1  0  0  0  0
 20 47  1  0  0  0  0
 20 48  1  0  0  0  0
 21 49  1  0  0  0  0
 21 50  1  0  0  0  0
 22 51  1  0  0  0  0
 23 52  1  0  0  0  0
 25 53  1  0  0  0  0
 26 54  1  0  0  0  0
 26 55  1  0  0  0  0
 28 56  1  0  0  0  0
M  CHG  1  26   1
M  END
> <compound>
MAK-UNK-ffc90da7-1

> <compound_smiles>
CC(CNCCCO)C(c1cccc(c1)Cl)C(=O)Nc2cncc3c2cccc3

> <enantiomer_smiles>
C[C@@H](CNCCCO)[C@@H](c1cccc(c1)Cl)C(=O)Nc2cncc3c2cccc3

> <scaffold>
chlorobenzene-linker

> <clash_score>
0.6134321558014565

> <docking_score>
-11.232338905334473

> <overlap_score>
0.9816722273826599

> <MMFF_internal_energy>
152.23130234940547

> <docked_smiles>
C[C@@H](C[NH2+]CCCO)[C@@H](c1cccc(c1)Cl)C(=O)Nc2cncc3c2cccc3

$$$$
MAK-UNK-ffc90da7-7_2
  -OEChem-07262101023D

 56 58  0     1  0  0  0  0  0999 V2000
    3.4585    2.5715   20.0555 C   0  0  0  0  0  0  0  0  0  0  0  0
    4.0834    2.0502   21.1860 C   0  0  0  0  0  0  0  0  0  0  0  0
   11.9780    0.4600   23.9150 C   0  0  0  0  0  0  0  0  0  0  0  0
    3.8708    2.1738   18.7838 C   0  0  0  0  0  0  0  0  0  0  0  0
    5.1233    1.1289   21.0500 C   0  0  0  0  0  0  0  0  0  0  0  0
   10.6560    0.0720   23.7350 C   0  0  0  0  0  0  0  0  0  0  0  0
   12.9840   -0.1200   23.1530 C   0  0  0  0  0  0  0  0  0  0  0  0
   11.3360   -1.5050   22.0650 C   0  0  0  0  0  0  0  0  0  0  0  0
    5.3686    0.8147   17.3871 C   0  0  0  0  0  0  0  0  0  0  0  0
    6.9551   -0.5605   18.3182 C   0  0  0  0  0  0  0  0  0  0  0  0
    4.9161    1.2473   18.6351 C   0  0  0  0  0  0  0  0  0  0  0  0
    5.5512    0.7173   19.7773 C   0  0  0  0  0  0  0  0  0  0  0  0
   10.3220   -0.8940   22.7910 C   0  0  0  0  0  0  0  0  0  0  0  0
    6.5907   -0.2046   19.6078 C   0  0  0  0  0  0  0  0  0  0  0  0
   12.6400   -1.1000   22.2390 C   0  0  0  0  0  0  0  0  0  0  0  0
    8.3880   -0.3240   21.3070 C   0  0  0  0  0  0  0  0  0  0  0  0
    8.9308   -6.5626   19.4669 C   0  0  0  0  0  0  0  0  0  0  0  0
    9.1704   -4.4514   18.1116 C   0  0  0  0  0  0  0  0  0  0  0  0
    8.8845   -3.2005   24.6003 C   0  0  0  0  0  0  0  0  0  0  0  0
    9.2129   -3.1786   20.8182 C   0  0  0  0  0  0  0  0  0  0  0  0
    8.8810   -1.1900   22.4510 C   0  0  1  0  0  0  0  0  0  0  0  0
    8.6473   -2.7120   22.1623 C   0  0  2  0  0  0  0  0  0  0  0  0
    9.3536   -5.1015   19.4745 C   0  0  0  0  0  0  0  0  0  0  0  0
    6.3706   -0.0744   17.2026 N   0  0  0  0  0  0  0  0  0  0  0  0
    7.2820   -0.7860   20.6970 N   0  0  0  0  0  0  0  0  0  0  0  0
    9.3650   -3.4886   23.2298 N   0  3  0  0  0  0  0  0  0  0  0  0
    8.9170    0.7530   21.0260 O   0  0  0  0  0  0  0  0  0  0  0  0
    8.5822   -4.3966   20.4364 O   0  0  0  0  0  0  0  0  0  0  0  0
   13.8840   -1.8490   21.2740 Cl  0  0  0  0  0  0  0  0  0  0  0  0
    2.6496    3.2879   20.1642 H   0  0  0  0  0  0  0  0  0  0  0  0
    3.7606    2.3611   22.1755 H   0  0  0  0  0  0  0  0  0  0  0  0
   12.2249    1.2198   24.6546 H   0  0  0  0  0  0  0  0  0  0  0  0
    3.3719    2.5905   17.9119 H   0  0  0  0  0  0  0  0  0  0  0  0
    5.5866    0.7452   21.9561 H   0  0  0  0  0  0  0  0  0  0  0  0
    9.8763    0.5350   24.3454 H   0  0  0  0  0  0  0  0  0  0  0  0
   14.0077    0.1988   23.2842 H   0  0  0  0  0  0  0  0  0  0  0  0
   11.0892   -2.3009   21.3624 H   0  0  0  0  0  0  0  0  0  0  0  0
    4.9230    1.1830   16.4671 H   0  0  0  0  0  0  0  0  0  0  0  0
    7.7549   -1.2722   18.1338 H   0  0  0  0  0  0  0  0  0  0  0  0
    7.8839   -6.6716   19.1678 H   0  0  0  0  0  0  0  0  0  0  0  0
    9.5546   -7.1362   18.7729 H   0  0  0  0  0  0  0  0  0  0  0  0
    9.0619   -7.0164   20.4555 H   0  0  0  0  0  0  0  0  0  0  0  0
    8.1292   -4.5100   17.7802 H   0  0  0  0  0  0  0  0  0  0  0  0
    9.8034   -4.9444   17.3660 H   0  0  0  0  0  0  0  0  0  0  0  0
    9.4723   -3.3984   18.1335 H   0  0  0  0  0  0  0  0  0  0  0  0
    7.8186   -3.4328   24.6362 H   0  0  0  0  0  0  0  0  0  0  0  0
    9.4473   -3.8310   25.2912 H   0  0  0  0  0  0  0  0  0  0  0  0
    9.0623   -2.1422   24.8010 H   0  0  0  0  0  0  0  0  0  0  0  0
    9.0455   -2.4350   20.0313 H   0  0  0  0  0  0  0  0  0  0  0  0
   10.2862   -3.3779   20.8863 H   0  0  0  0  0  0  0  0  0  0  0  0
    8.2532   -0.9602   23.3436 H   0  0  0  0  0  0  0  0  0  0  0  0
    7.5964   -3.0081   22.2582 H   0  0  0  0  0  0  0  0  0  0  0  0
   10.4032   -5.0264   19.7771 H   0  0  0  0  0  0  0  0  0  0  0  0
    6.8975   -1.6550   21.0612 H   0  0  0  0  0  0  0  0  0  0  0  0
   10.3655   -3.2809   23.1605 H   0  0  0  0  0  0  0  0  0  0  0  0
    9.2600   -4.4870   23.0266 H   0  0  0  0  0  0  0  0  0  0  0  0
  1  2  1  0  0  0  0
  1  4  2  0  0  0  0
  2  5  2  0  0  0  0
  3  6  2  0  0  0  0
  3  7  1  0  0  0  0
  4 11  1  0  0  0  0
  5 12  1  0  0  0  0
  6 13  1  0  0  0  0
  7 15  2  0  0  0  0
  8 13  2  0  0  0  0
  8 15  1  0  0  0  0
  9 11  2  0  0  0  0
  9 24  1  0  0  0  0
 10 14  1  0  0  0  0
 10 24  2  0  0  0  0
 11 12  1  0  0  0  0
 12 14  2  0  0  0  0
 13 21  1  0  0  0  0
 14 25  1  0  0  0  0
 15 29  1  0  0  0  0
 16 21  1  1  0  0  0
 16 25  1  0  0  0  0
 16 27  2  0  0  0  0
 17 23  1  0  0  0  0
 18 23  1  0  0  0  0
 19 26  1  0  0  0  0
 20 22  1  6  0  0  0
 20 28  1  0  0  0  0
 21 22  1  0  0  0  0
 22 26  1  0  0  0  0
 23 28  1  0  0  0  0
  1 30  1  0  0  0  0
  2 31  1  0  0  0  0
  3 32  1  0  0  0  0
  4 33  1  0  0  0  0
  5 34  1  0  0  0  0
  6 35  1  0  0  0  0
  7 36  1  0  0  0  0
  8 37  1  0  0  0  0
  9 38  1  0  0  0  0
 10 39  1  0  0  0  0
 17 40  1  0  0  0  0
 17 41  1  0  0  0  0
 17 42  1  0  0  0  0
 18 43  1  0  0  0  0
 18 44  1  0  0  0  0
 18 45  1  0  0  0  0
 19 46  1  0  0  0  0
 19 47  1  0  0  0  0
 19 48  1  0  0  0  0
 20 49  1  0  0  0  0
 20 50  1  0  0  0  0
 21 51  1  0  0  0  0
 22 52  1  0  0  0  0
 23 53  1  0  0  0  0
 25 54  1  0  0  0  0
 26 55  1  0  0  0  0
 26 56  1  0  0  0  0
M  CHG  1  26   1
M  END
> <compound>
MAK-UNK-ffc90da7-7

> <compound_smiles>
CC(C)OCC(C(c1cccc(c1)Cl)C(=O)Nc2cncc3c2cccc3)NC

> <enantiomer_smiles>
CC(C)OC[C@H]([C@@H](c1cccc(c1)Cl)C(=O)Nc2cncc3c2cccc3)NC

> <scaffold>
chlorobenzene-linker

> <clash_score>
4.432919255145256

> <docking_score>
-5.967648506164551

> <overlap_score>
0.9841684103012085

> <MMFF_internal_energy>
184.29706386249674

> <docked_smiles>
CC(C)OC[C@H]([C@@H](c1cccc(c1)Cl)C(=O)Nc2cncc3c2cccc3)[NH2+]C

$$$$
MAK-UNK-ffc90da7-9_4
  -OEChem-07262101023D

 58 61  0     1  0  0  0  0  0999 V2000
   11.9780    0.4600   23.9150 C   0  0  0  0  0  0  0  0  0  0  0  0
    4.4258   -1.1215   20.3410 C   0  0  0  0  0  0  0  0  0  0  0  0
   10.6560    0.0720   23.7350 C   0  0  0  0  0  0  0  0  0  0  0  0
    3.0521   -1.2608   20.1354 C   0  0  0  0  0  0  0  0  0  0  0  0
   12.9840   -0.1200   23.1530 C   0  0  0  0  0  0  0  0  0  0  0  0
    3.2103    0.0770   18.1314 C   0  0  0  0  0  0  0  0  0  0  0  0
   11.3360   -1.5050   22.0650 C   0  0  0  0  0  0  0  0  0  0  0  0
    5.4061    0.9528   17.4579 C   0  0  0  0  0  0  0  0  0  0  0  0
    7.2960    0.5250   18.6908 C   0  0  0  0  0  0  0  0  0  0  0  0
    5.2110   -0.3801   19.4431 C   0  0  0  0  0  0  0  0  0  0  0  0
    4.5934    0.2236   18.3283 C   0  0  0  0  0  0  0  0  0  0  0  0
    2.4458   -0.6629   19.0331 C   0  0  0  0  0  0  0  0  0  0  0  0
   10.3220   -0.8940   22.7910 C   0  0  0  0  0  0  0  0  0  0  0  0
    6.5902   -0.2221   19.6216 C   0  0  0  0  0  0  0  0  0  0  0  0
   12.6400   -1.1000   22.2390 C   0  0  0  0  0  0  0  0  0  0  0  0
    8.3880   -0.3240   21.3070 C   0  0  0  0  0  0  0  0  0  0  0  0
   -0.8561    3.7250   21.2392 C   0  0  0  0  0  0  0  0  0  0  0  0
    0.2734    4.0704   22.1921 C   0  0  0  0  0  0  0  0  0  0  0  0
   -0.1526    2.9755   20.1248 C   0  0  2  0  0  0  0  0  0  0  0  0
    1.1742    3.7334   20.0656 C   0  0  1  0  0  0  0  0  0  0  0  0
    2.3692    3.0265   19.4505 C   0  0  0  0  0  0  0  0  0  0  0  0
    0.6748   -1.5781   17.5080 C   0  0  0  0  0  0  0  0  0  0  0  0
    8.8810   -1.1900   22.4510 C   0  0  0  0  0  0  0  0  0  0  0  0
    0.2549    0.5573   18.8626 C   0  0  0  0  0  0  0  0  0  0  0  0
    0.9777   -0.8148   18.8175 C   0  0  1  0  0  0  0  0  0  0  0  0
    6.7392    1.1171   17.6128 N   0  0  0  0  0  0  0  0  0  0  0  0
    7.2820   -0.7860   20.6970 N   0  0  0  0  0  0  0  0  0  0  0  0
    8.9170    0.7530   21.0260 O   0  0  0  0  0  0  0  0  0  0  0  0
    1.4812    4.1196   21.4182 O   0  0  0  0  0  0  0  0  0  0  0  0
   -0.0114    1.2012   20.5440 S   0  0  0  0  0  0  0  0  0  0  0  0
   13.8840   -1.8490   21.2740 Cl  0  0  0  0  0  0  0  0  0  0  0  0
   12.2249    1.2198   24.6546 H   0  0  0  0  0  0  0  0  0  0  0  0
    4.8623   -1.6035   21.2129 H   0  0  0  0  0  0  0  0  0  0  0  0
    9.8763    0.5350   24.3454 H   0  0  0  0  0  0  0  0  0  0  0  0
    2.4625   -1.8396   20.8418 H   0  0  0  0  0  0  0  0  0  0  0  0
   14.0077    0.1988   23.2842 H   0  0  0  0  0  0  0  0  0  0  0  0
    2.7291    0.5405   17.2725 H   0  0  0  0  0  0  0  0  0  0  0  0
   11.0892   -2.3009   21.3624 H   0  0  0  0  0  0  0  0  0  0  0  0
    4.9939    1.4448   16.5809 H   0  0  0  0  0  0  0  0  0  0  0  0
    8.3675    0.6770   18.7841 H   0  0  0  0  0  0  0  0  0  0  0  0
   -1.6785    3.1908   21.7248 H   0  0  0  0  0  0  0  0  0  0  0  0
   -1.2731    4.6563   20.8344 H   0  0  0  0  0  0  0  0  0  0  0  0
    0.1178    5.0330   22.6879 H   0  0  0  0  0  0  0  0  0  0  0  0
    0.3999    3.3021   22.9618 H   0  0  0  0  0  0  0  0  0  0  0  0
   -0.6937    3.0337   19.1776 H   0  0  0  0  0  0  0  0  0  0  0  0
    1.0123    4.6684   19.5129 H   0  0  0  0  0  0  0  0  0  0  0  0
    2.5639    2.0884   19.9740 H   0  0  0  0  0  0  0  0  0  0  0  0
    3.2580    3.6567   19.5202 H   0  0  0  0  0  0  0  0  0  0  0  0
    2.1778    2.8067   18.3983 H   0  0  0  0  0  0  0  0  0  0  0  0
    1.0702   -1.0252   16.6481 H   0  0  0  0  0  0  0  0  0  0  0  0
    1.1283   -2.5741   17.4900 H   0  0  0  0  0  0  0  0  0  0  0  0
   -0.4033   -1.7003   17.3566 H   0  0  0  0  0  0  0  0  0  0  0  0
    8.7775   -2.2383   22.1732 H   0  0  0  0  0  0  0  0  0  0  0  0
    8.2557   -1.0153   23.3257 H   0  0  0  0  0  0  0  0  0  0  0  0
   -0.7208    0.4984   18.3683 H   0  0  0  0  0  0  0  0  0  0  0  0
    0.8486    1.3031   18.3217 H   0  0  0  0  0  0  0  0  0  0  0  0
    0.5503   -1.4319   19.6336 H   0  0  0  0  0  0  0  0  0  0  0  0
    6.8981   -1.6619   21.0675 H   0  0  0  0  0  0  0  0  0  0  0  0
  1  3  2  0  0  0  0
  1  5  1  0  0  0  0
  2  4  2  0  0  0  0
  2 10  1  0  0  0  0
  3 13  1  0  0  0  0
  4 12  1  0  0  0  0
  5 15  2  0  0  0  0
  6 11  1  0  0  0  0
  6 12  2  0  0  0  0
  7 13  2  0  0  0  0
  7 15  1  0  0  0  0
  8 11  2  0  0  0  0
  8 26  1  0  0  0  0
  9 14  1  0  0  0  0
  9 26  2  0  0  0  0
 10 11  1  0  0  0  0
 10 14  2  0  0  0  0
 12 25  1  0  0  0  0
 13 23  1  0  0  0  0
 14 27  1  0  0  0  0
 15 31  1  0  0  0  0
 16 23  1  0  0  0  0
 16 27  1  0  0  0  0
 16 28  2  0  0  0  0
 17 18  1  0  0  0  0
 17 19  1  0  0  0  0
 18 29  1  0  0  0  0
 19 20  1  0  0  0  0
 19 30  1  6  0  0  0
 20 21  1  6  0  0  0
 20 29  1  0  0  0  0
 22 25  1  1  0  0  0
 24 25  1  0  0  0  0
 24 30  1  0  0  0  0
  1 32  1  0  0  0  0
  2 33  1  0  0  0  0
  3 34  1  0  0  0  0
  4 35  1  0  0  0  0
  5 36  1  0  0  0  0
  6 37  1  0  0  0  0
  7 38  1  0  0  0  0
  8 39  1  0  0  0  0
  9 40  1  0  0  0  0
 17 41  1  0  0  0  0
 17 42  1  0  0  0  0
 18 43  1  0  0  0  0
 18 44  1  0  0  0  0
 19 45  1  0  0  0  0
 20 46  1  0  0  0  0
 21 47  1  0  0  0  0
 21 48  1  0  0  0  0
 21 49  1  0  0  0  0
 22 50  1  0  0  0  0
 22 51  1  0  0  0  0
 22 52  1  0  0  0  0
 23 53  1  0  0  0  0
 23 54  1  0  0  0  0
 24 55  1  0  0  0  0
 24 56  1  0  0  0  0
 25 57  1  0  0  0  0
 27 58  1  0  0  0  0
M  END
> <compound>
MAK-UNK-ffc90da7-9

> <compound_smiles>
CC1C(CCO1)SCC(C)c2ccc3c(c2)cncc3NC(=O)Cc4cccc(c4)Cl

> <enantiomer_smiles>
C[C@H]1[C@H](CCO1)SC[C@@H](C)c2ccc3c(c2)cncc3NC(=O)Cc4cccc(c4)Cl

> <scaffold>
chlorobenzene-linker

> <clash_score>
13.915207087932778

> <docking_score>
3.1475837230682373

> <overlap_score>
0.7830095887184143

> <MMFF_internal_energy>
132.82675011168982

> <docked_smiles>
C[C@H]1[C@H](CCO1)SC[C@@H](C)c2ccc3c(c2)cncc3NC(=O)Cc4cccc(c4)Cl

$$$$
MAK-UNK-ffc90da7-4_2
  -OEChem-07262101023D

 60 63  0     1  0  0  0  0  0999 V2000
    3.4829    2.5990   20.0546 C   0  0  0  0  0  0  0  0  0  0  0  0
    4.1078    2.0778   21.1851 C   0  0  0  0  0  0  0  0  0  0  0  0
   11.9780    0.4600   23.9150 C   0  0  0  0  0  0  0  0  0  0  0  0
    3.8872    2.1924   18.7832 C   0  0  0  0  0  0  0  0  0  0  0  0
    5.1399    1.1477   21.0494 C   0  0  0  0  0  0  0  0  0  0  0  0
   10.6560    0.0720   23.7350 C   0  0  0  0  0  0  0  0  0  0  0  0
   12.9840   -0.1200   23.1530 C   0  0  0  0  0  0  0  0  0  0  0  0
   11.3360   -1.5050   22.0650 C   0  0  0  0  0  0  0  0  0  0  0  0
    5.3690    0.8152   17.3870 C   0  0  0  0  0  0  0  0  0  0  0  0
    6.9479   -0.5684   18.3183 C   0  0  0  0  0  0  0  0  0  0  0  0
    4.9246    1.2569   18.6348 C   0  0  0  0  0  0  0  0  0  0  0  0
    5.5597    0.7270   19.7769 C   0  0  0  0  0  0  0  0  0  0  0  0
   10.3220   -0.8940   22.7910 C   0  0  0  0  0  0  0  0  0  0  0  0
    6.5912   -0.2039   19.6077 C   0  0  0  0  0  0  0  0  0  0  0  0
   12.6400   -1.1000   22.2390 C   0  0  0  0  0  0  0  0  0  0  0  0
    8.3880   -0.3240   21.3070 C   0  0  0  0  0  0  0  0  0  0  0  0
    7.8944   -8.1367   17.4277 C   0  0  0  0  0  0  0  0  0  0  0  0
    8.9022   -7.0193   17.5294 C   0  0  0  0  0  0  0  0  0  0  0  0
    6.6822   -7.5268   18.0993 C   0  0  0  0  0  0  0  0  0  0  0  0
    8.5879   -6.4526   18.9032 C   0  0  2  0  0  0  0  0  0  0  0  0
    9.3569   -3.6322   23.1659 C   0  0  0  0  0  0  0  0  0  0  0  0
    8.9760   -4.9952   19.0599 C   0  0  0  0  0  0  0  0  0  0  0  0
    8.9748   -3.1287   20.7198 C   0  0  0  0  0  0  0  0  0  0  0  0
    8.8810   -1.1900   22.4510 C   0  0  1  0  0  0  0  0  0  0  0  0
    8.6228   -2.7224   22.1659 C   0  0  2  0  0  0  0  0  0  0  0  0
    6.3631   -0.0826   17.2027 N   0  0  0  0  0  0  0  0  0  0  0  0
    7.2820   -0.7860   20.6970 N   0  0  0  0  0  0  0  0  0  0  0  0
    8.5897   -4.5284   20.4199 N   0  3  0  0  0  0  0  0  0  0  0  0
    8.9170    0.7530   21.0260 O   0  0  0  0  0  0  0  0  0  0  0  0
    7.1694   -6.6022   19.0833 O   0  0  0  0  0  0  0  0  0  0  0  0
   13.8840   -1.8490   21.2740 Cl  0  0  0  0  0  0  0  0  0  0  0  0
    2.6801    3.3223   20.1631 H   0  0  0  0  0  0  0  0  0  0  0  0
    3.7912    2.3956   22.1744 H   0  0  0  0  0  0  0  0  0  0  0  0
   12.2249    1.2198   24.6546 H   0  0  0  0  0  0  0  0  0  0  0  0
    3.3884    2.6092   17.9112 H   0  0  0  0  0  0  0  0  0  0  0  0
    5.6035    0.7643   21.9554 H   0  0  0  0  0  0  0  0  0  0  0  0
    9.8763    0.5350   24.3454 H   0  0  0  0  0  0  0  0  0  0  0  0
   14.0077    0.1988   23.2842 H   0  0  0  0  0  0  0  0  0  0  0  0
   11.0892   -2.3009   21.3624 H   0  0  0  0  0  0  0  0  0  0  0  0
    4.9229    1.1830   16.4670 H   0  0  0  0  0  0  0  0  0  0  0  0
    7.7413   -1.2873   18.1342 H   0  0  0  0  0  0  0  0  0  0  0  0
    7.6971   -8.4602   16.4025 H   0  0  0  0  0  0  0  0  0  0  0  0
    8.2423   -9.0048   18.0001 H   0  0  0  0  0  0  0  0  0  0  0  0
    9.9376   -7.3582   17.4358 H   0  0  0  0  0  0  0  0  0  0  0  0
    8.7100   -6.2784   16.7439 H   0  0  0  0  0  0  0  0  0  0  0  0
    6.0756   -6.9616   17.3836 H   0  0  0  0  0  0  0  0  0  0  0  0
    6.0471   -8.2762   18.5798 H   0  0  0  0  0  0  0  0  0  0  0  0
    9.0778   -7.0496   19.6814 H   0  0  0  0  0  0  0  0  0  0  0  0
   10.4405   -3.4843   23.1042 H   0  0  0  0  0  0  0  0  0  0  0  0
    9.0622   -3.4090   24.1962 H   0  0  0  0  0  0  0  0  0  0  0  0
    9.1465   -4.6905   22.9805 H   0  0  0  0  0  0  0  0  0  0  0  0
    8.4537   -4.3579   18.3411 H   0  0  0  0  0  0  0  0  0  0  0  0
   10.0560   -4.8520   18.9659 H   0  0  0  0  0  0  0  0  0  0  0  0
    8.4699   -2.5022   19.9794 H   0  0  0  0  0  0  0  0  0  0  0  0
   10.0534   -3.0602   20.5439 H   0  0  0  0  0  0  0  0  0  0  0  0
    8.2678   -0.9572   23.3517 H   0  0  0  0  0  0  0  0  0  0  0  0
    7.5494   -2.9234   22.2832 H   0  0  0  0  0  0  0  0  0  0  0  0
    6.8771   -1.6492   21.0526 H   0  0  0  0  0  0  0  0  0  0  0  0
    7.5705   -4.6337   20.5319 H   0  0  0  0  0  0  0  0  0  0  0  0
    9.0111   -5.1564   21.1204 H   0  0  0  0  0  0  0  0  0  0  0  0
  1  2  1  0  0  0  0
  1  4  2  0  0  0  0
  2  5  2  0  0  0  0
  3  6  2  0  0  0  0
  3  7  1  0  0  0  0
  4 11  1  0  0  0  0
  5 12  1  0  0  0  0
  6 13  1  0  0  0  0
  7 15  2  0  0  0  0
  8 13  2  0  0  0  0
  8 15  1  0  0  0  0
  9 11  2  0  0  0  0
  9 26  1  0  0  0  0
 10 14  1  0  0  0  0
 10 26  2  0  0  0  0
 11 12  1  0  0  0  0
 12 14  2  0  0  0  0
 13 24  1  0  0  0  0
 14 27  1  0  0  0  0
 15 31  1  0  0  0  0
 16 24  1  1  0  0  0
 16 27  1  0  0  0  0
 16 29  2  0  0  0  0
 17 18  1  0  0  0  0
 17 19  1  0  0  0  0
 18 20  1  0  0  0  0
 19 30  1  0  0  0  0
 20 22  1  1  0  0  0
 20 30  1  0  0  0  0
 21 25  1  6  0  0  0
 22 28  1  0  0  0  0
 23 25  1  0  0  0  0
 23 28  1  0  0  0  0
 24 25  1  0  0  0  0
  1 32  1  0  0  0  0
  2 33  1  0  0  0  0
  3 34  1  0  0  0  0
  4 35  1  0  0  0  0
  5 36  1  0  0  0  0
  6 37  1  0  0  0  0
  7 38  1  0  0  0  0
  8 39  1  0  0  0  0
  9 40  1  0  0  0  0
 10 41  1  0  0  0  0
 17 42  1  0  0  0  0
 17 43  1  0  0  0  0
 18 44  1  0  0  0  0
 18 45  1  0  0  0  0
 19 46  1  0  0  0  0
 19 47  1  0  0  0  0
 20 48  1  0  0  0  0
 21 49  1  0  0  0  0
 21 50  1  0  0  0  0
 21 51  1  0  0  0  0
 22 52  1  0  0  0  0
 22 53  1  0  0  0  0
 23 54  1  0  0  0  0
 23 55  1  0  0  0  0
 24 56  1  0  0  0  0
 25 57  1  0  0  0  0
 27 58  1  0  0  0  0
 28 59  1  0  0  0  0
 28 60  1  0  0  0  0
M  CHG  1  28   1
M  END
> <compound>
MAK-UNK-ffc90da7-4

> <compound_smiles>
CC(CNCC1CCCO1)C(c2cccc(c2)Cl)C(=O)Nc3cncc4c3cccc4

> <enantiomer_smiles>
C[C@H](CNC[C@@H]1CCCO1)[C@@H](c2cccc(c2)Cl)C(=O)Nc3cncc4c3cccc4

> <scaffold>
chlorobenzene-linker

> <clash_score>
7.301607101113208

> <docking_score>
-2.6528568267822266

> <overlap_score>
0.9759035706520081

> <MMFF_internal_energy>
164.2808273284728

> <docked_smiles>
C[C@H](C[NH2+]C[C@@H]1CCCO1)[C@@H](c2cccc(c2)Cl)C(=O)Nc3cncc4c3cccc4

$$$$
MIC-UNK-5a93dd5f-3_6
  -OEChem-07262101023D

 60 64  0     1  0  0  0  0  0999 V2000
    4.8867    3.6427   19.7210 C   0  0  0  0  0  0  0  0  0  0  0  0
    5.5503    3.1504   20.8424 C   0  0  0  0  0  0  0  0  0  0  0  0
   11.9780    0.4600   23.9150 C   0  0  0  0  0  0  0  0  0  0  0  0
    4.7892    2.8630   18.5689 C   0  0  0  0  0  0  0  0  0  0  0  0
    6.1195    1.8760   20.8166 C   0  0  0  0  0  0  0  0  0  0  0  0
   10.6560    0.0720   23.7350 C   0  0  0  0  0  0  0  0  0  0  0  0
   12.9840   -0.1200   23.1530 C   0  0  0  0  0  0  0  0  0  0  0  0
   11.3360   -1.5050   22.0650 C   0  0  0  0  0  0  0  0  0  0  0  0
    5.2903    0.7565   17.4056 C   0  0  0  0  0  0  0  0  0  0  0  0
    6.4607   -0.9310   18.4340 C   0  0  0  0  0  0  0  0  0  0  0  0
    5.3581    1.5791   18.5317 C   0  0  0  0  0  0  0  0  0  0  0  0
    6.0308    1.0771   19.6649 C   0  0  0  0  0  0  0  0  0  0  0  0
   10.3220   -0.8940   22.7910 C   0  0  0  0  0  0  0  0  0  0  0  0
    6.5908   -0.2044   19.6077 C   0  0  0  0  0  0  0  0  0  0  0  0
   12.6400   -1.1000   22.2390 C   0  0  0  0  0  0  0  0  0  0  0  0
    8.3880   -0.3240   21.3070 C   0  0  0  0  0  0  0  0  0  0  0  0
    9.2130   -7.1365   19.4951 C   0  0  0  0  0  0  0  0  0  0  0  0
    8.5428   -6.1511   18.5418 C   0  0  0  0  0  0  0  0  0  0  0  0
    8.9231   -6.8002   20.9567 C   0  0  0  0  0  0  0  0  0  0  0  0
    8.9041   -4.7042   18.8728 C   0  0  0  0  0  0  0  0  0  0  0  0
    9.0022   -5.0068   22.7424 C   0  0  0  0  0  0  0  0  0  0  0  0
    9.3620   -3.5618   23.0615 C   0  0  0  0  0  0  0  0  0  0  0  0
    8.9696   -2.9259   20.6611 C   0  0  0  0  0  0  0  0  0  0  0  0
    9.3081   -5.3516   21.2815 C   0  0  1  0  0  0  0  0  0  0  0  0
    8.5895   -4.3709   20.3368 C   0  0  2  0  0  0  0  0  0  0  0  0
    8.8810   -1.1900   22.4510 C   0  0  2  0  0  0  0  0  0  0  0  0
    5.8245   -0.4834   17.3305 N   0  0  0  0  0  0  0  0  0  0  0  0
    7.2820   -0.7860   20.6970 N   0  0  0  0  0  0  0  0  0  0  0  0
    8.6431   -2.6374   22.1089 N   0  3  2  0  0  0  0  0  0  0  0  0
    8.9170    0.7530   21.0260 O   0  0  0  0  0  0  0  0  0  0  0  0
   13.8840   -1.8490   21.2740 Cl  0  0  0  0  0  0  0  0  0  0  0  0
    4.4446    4.6345   19.7440 H   0  0  0  0  0  0  0  0  0  0  0  0
    5.6249    3.7592   21.7389 H   0  0  0  0  0  0  0  0  0  0  0  0
   12.2249    1.2198   24.6546 H   0  0  0  0  0  0  0  0  0  0  0  0
    4.2674    3.2627   17.7024 H   0  0  0  0  0  0  0  0  0  0  0  0
    6.6299    1.5271   21.7114 H   0  0  0  0  0  0  0  0  0  0  0  0
    9.8763    0.5350   24.3454 H   0  0  0  0  0  0  0  0  0  0  0  0
   14.0077    0.1988   23.2842 H   0  0  0  0  0  0  0  0  0  0  0  0
   11.0892   -2.3009   21.3624 H   0  0  0  0  0  0  0  0  0  0  0  0
    4.7868    1.0816   16.4993 H   0  0  0  0  0  0  0  0  0  0  0  0
    6.8769   -1.9300   18.3396 H   0  0  0  0  0  0  0  0  0  0  0  0
    8.8686   -8.1534   19.2758 H   0  0  0  0  0  0  0  0  0  0  0  0
   10.2971   -7.1238   19.3275 H   0  0  0  0  0  0  0  0  0  0  0  0
    8.8375   -6.3776   17.5109 H   0  0  0  0  0  0  0  0  0  0  0  0
    7.4543   -6.2755   18.5969 H   0  0  0  0  0  0  0  0  0  0  0  0
    7.8568   -6.9598   21.1611 H   0  0  0  0  0  0  0  0  0  0  0  0
    9.4781   -7.4898   21.6036 H   0  0  0  0  0  0  0  0  0  0  0  0
    9.9707   -4.5414   18.6721 H   0  0  0  0  0  0  0  0  0  0  0  0
    8.3490   -4.0320   18.2078 H   0  0  0  0  0  0  0  0  0  0  0  0
    9.5665   -5.6716   23.4072 H   0  0  0  0  0  0  0  0  0  0  0  0
    7.9389   -5.1755   22.9561 H   0  0  0  0  0  0  0  0  0  0  0  0
    9.0444   -3.3009   24.0763 H   0  0  0  0  0  0  0  0  0  0  0  0
   10.4370   -3.3777   22.9554 H   0  0  0  0  0  0  0  0  0  0  0  0
   10.0397   -2.7355   20.5188 H   0  0  0  0  0  0  0  0  0  0  0  0
    8.3899   -2.2237   20.0520 H   0  0  0  0  0  0  0  0  0  0  0  0
   10.3930   -5.2501   21.1320 H   0  0  0  0  0  0  0  0  0  0  0  0
    7.5038   -4.4772   20.4772 H   0  0  0  0  0  0  0  0  0  0  0  0
    8.2445   -1.0188   23.3300 H   0  0  0  0  0  0  0  0  0  0  0  0
    6.8974   -1.6551   21.0612 H   0  0  0  0  0  0  0  0  0  0  0  0
    7.6341   -2.8003   22.2311 H   0  0  0  0  0  0  0  0  0  0  0  0
  1  2  1  0  0  0  0
  1  4  2  0  0  0  0
  2  5  2  0  0  0  0
  3  6  2  0  0  0  0
  3  7  1  0  0  0  0
  4 11  1  0  0  0  0
  5 12  1  0  0  0  0
  6 13  1  0  0  0  0
  7 15  2  0  0  0  0
  8 13  2  0  0  0  0
  8 15  1  0  0  0  0
  9 11  2  0  0  0  0
  9 27  1  0  0  0  0
 10 14  1  0  0  0  0
 10 27  2  0  0  0  0
 11 12  1  0  0  0  0
 12 14  2  0  0  0  0
 13 26  1  0  0  0  0
 14 28  1  0  0  0  0
 15 31  1  0  0  0  0
 16 26  1  6  0  0  0
 16 28  1  0  0  0  0
 16 30  2  0  0  0  0
 17 18  1  0  0  0  0
 17 19  1  0  0  0  0
 18 20  1  0  0  0  0
 19 24  1  0  0  0  0
 20 25  1  1  0  0  0
 21 22  1  0  0  0  0
 21 24  1  6  0  0  0
 22 29  1  0  0  0  0
 23 25  1  0  0  0  0
 23 29  1  1  0  0  0
 24 25  1  0  0  0  0
 26 29  1  0  0  0  0
  1 32  1  0  0  0  0
  2 33  1  0  0  0  0
  3 34  1  0  0  0  0
  4 35  1  0  0  0  0
  5 36  1  0  0  0  0
  6 37  1  0  0  0  0
  7 38  1  0  0  0  0
  8 39  1  0  0  0  0
  9 40  1  0  0  0  0
 10 41  1  0  0  0  0
 17 42  1  0  0  0  0
 17 43  1  0  0  0  0
 18 44  1  0  0  0  0
 18 45  1  0  0  0  0
 19 46  1  0  0  0  0
 19 47  1  0  0  0  0
 20 48  1  0  0  0  0
 20 49  1  0  0  0  0
 21 50  1  0  0  0  0
 21 51  1  0  0  0  0
 22 52  1  0  0  0  0
 22 53  1  0  0  0  0
 23 54  1  0  0  0  0
 23 55  1  0  0  0  0
 24 56  1  0  0  0  0
 25 57  1  0  0  0  0
 26 58  1  0  0  0  0
 28 59  1  0  0  0  0
 29 60  1  0  0  0  0
M  CHG  1  29   1
M  END
> <compound>
MIC-UNK-5a93dd5f-3

> <compound_smiles>
c1ccc2c(c1)cncc2NC(=O)C(c3cccc(c3)Cl)N4CCC5CCCCC5C4

> <enantiomer_smiles>
c1ccc2c(c1)cncc2NC(=O)[C@H](c3cccc(c3)Cl)[N@@]4CC[C@H]5CCCC[C@@H]5C4

> <scaffold>
chlorobenzene-linker

> <clash_score>
7.464300325325925

> <docking_score>
2.8780808448791504

> <overlap_score>
0.8397337794303894

> <MMFF_internal_energy>
206.00653563170997

> <docked_smiles>
c1ccc2c(c1)cncc2NC(=O)[C@H](c3cccc(c3)Cl)[N@@H+]4CC[C@H]5CCCC[C@@H]5C4

$$$$
MIC-UNK-5a93dd5f-3_4
  -OEChem-07262101023D

 60 64  0     1  0  0  0  0  0999 V2000
    2.5657    1.0132   19.7900 C   0  0  0  0  0  0  0  0  0  0  0  0
    3.1660    0.4495   20.9134 C   0  0  0  0  0  0  0  0  0  0  0  0
   11.9780    0.4600   23.9150 C   0  0  0  0  0  0  0  0  0  0  0  0
    3.2968    1.1719   18.6130 C   0  0  0  0  0  0  0  0  0  0  0  0
    4.5003    0.0420   20.8649 C   0  0  0  0  0  0  0  0  0  0  0  0
   10.6560    0.0720   23.7350 C   0  0  0  0  0  0  0  0  0  0  0  0
   12.9840   -0.1200   23.1530 C   0  0  0  0  0  0  0  0  0  0  0  0
   11.3360   -1.5050   22.0650 C   0  0  0  0  0  0  0  0  0  0  0  0
    5.4182    0.9006   17.4014 C   0  0  0  0  0  0  0  0  0  0  0  0
    7.2646   -0.0206   18.4099 C   0  0  0  0  0  0  0  0  0  0  0  0
    4.6401    0.7653   18.5528 C   0  0  0  0  0  0  0  0  0  0  0  0
    5.2515    0.1942   19.6881 C   0  0  0  0  0  0  0  0  0  0  0  0
   10.3220   -0.8940   22.7910 C   0  0  0  0  0  0  0  0  0  0  0  0
    6.5908   -0.2044   19.6077 C   0  0  0  0  0  0  0  0  0  0  0  0
   12.6400   -1.1000   22.2390 C   0  0  0  0  0  0  0  0  0  0  0  0
    8.3880   -0.3240   21.3070 C   0  0  0  0  0  0  0  0  0  0  0  0
    8.3203   -7.6317   22.2086 C   0  0  0  0  0  0  0  0  0  0  0  0
    7.4041   -6.9258   23.2092 C   0  0  0  0  0  0  0  0  0  0  0  0
    8.5468   -6.7854   20.9625 C   0  0  0  0  0  0  0  0  0  0  0  0
    7.6426   -5.4143   23.3069 C   0  0  0  0  0  0  0  0  0  0  0  0
    8.5362   -4.3473   20.3413 C   0  0  0  0  0  0  0  0  0  0  0  0
    8.9758   -2.9316   20.6698 C   0  0  0  0  0  0  0  0  0  0  0  0
    9.3777   -3.5574   23.0451 C   0  0  0  0  0  0  0  0  0  0  0  0
    9.1534   -5.4000   21.2777 C   0  0  2  0  0  0  0  0  0  0  0  0
    9.0254   -5.0218   22.7714 C   0  0  2  0  0  0  0  0  0  0  0  0
    8.8810   -1.1900   22.4510 C   0  0  2  0  0  0  0  0  0  0  0  0
    6.7126    0.5221   17.3038 N   0  0  0  0  0  0  0  0  0  0  0  0
    7.2820   -0.7860   20.6970 N   0  0  0  0  0  0  0  0  0  0  0  0
    8.6431   -2.6376   22.1088 N   0  3  1  0  0  0  0  0  0  0  0  0
    8.9170    0.7530   21.0260 O   0  0  0  0  0  0  0  0  0  0  0  0
   13.8840   -1.8490   21.2740 Cl  0  0  0  0  0  0  0  0  0  0  0  0
    1.5274    1.3292   19.8304 H   0  0  0  0  0  0  0  0  0  0  0  0
    2.5946    0.3266   21.8291 H   0  0  0  0  0  0  0  0  0  0  0  0
   12.2249    1.2198   24.6546 H   0  0  0  0  0  0  0  0  0  0  0  0
    2.8126    1.6137   17.7451 H   0  0  0  0  0  0  0  0  0  0  0  0
    4.9337   -0.3930   21.7626 H   0  0  0  0  0  0  0  0  0  0  0  0
    9.8763    0.5350   24.3454 H   0  0  0  0  0  0  0  0  0  0  0  0
   14.0077    0.1988   23.2842 H   0  0  0  0  0  0  0  0  0  0  0  0
   11.0892   -2.3009   21.3624 H   0  0  0  0  0  0  0  0  0  0  0  0
    5.0092    1.3323   16.4920 H   0  0  0  0  0  0  0  0  0  0  0  0
    8.3044   -0.3139   18.2966 H   0  0  0  0  0  0  0  0  0  0  0  0
    9.2824   -7.8462   22.6872 H   0  0  0  0  0  0  0  0  0  0  0  0
    7.8844   -8.5988   21.9340 H   0  0  0  0  0  0  0  0  0  0  0  0
    6.3508   -7.1120   22.9358 H   0  0  0  0  0  0  0  0  0  0  0  0
    7.5391   -7.3785   24.2081 H   0  0  0  0  0  0  0  0  0  0  0  0
    9.2333   -7.3184   20.2954 H   0  0  0  0  0  0  0  0  0  0  0  0
    7.6061   -6.6672   20.4168 H   0  0  0  0  0  0  0  0  0  0  0  0
    6.8428   -4.8989   22.7620 H   0  0  0  0  0  0  0  0  0  0  0  0
    7.5496   -5.1096   24.3570 H   0  0  0  0  0  0  0  0  0  0  0  0
    7.4358   -4.3980   20.3662 H   0  0  0  0  0  0  0  0  0  0  0  0
    8.8195   -4.5753   19.3008 H   0  0  0  0  0  0  0  0  0  0  0  0
   10.0540   -2.7988   20.5420 H   0  0  0  0  0  0  0  0  0  0  0  0
    8.4384   -2.2073   20.0519 H   0  0  0  0  0  0  0  0  0  0  0  0
    9.1079   -3.2715   24.0697 H   0  0  0  0  0  0  0  0  0  0  0  0
   10.4518   -3.3781   22.9008 H   0  0  0  0  0  0  0  0  0  0  0  0
   10.2205   -5.4590   21.0239 H   0  0  0  0  0  0  0  0  0  0  0  0
    9.7582   -5.6406   23.3234 H   0  0  0  0  0  0  0  0  0  0  0  0
    8.2445   -1.0188   23.3300 H   0  0  0  0  0  0  0  0  0  0  0  0
    6.8974   -1.6551   21.0612 H   0  0  0  0  0  0  0  0  0  0  0  0
    7.6380   -2.7987   22.2308 H   0  0  0  0  0  0  0  0  0  0  0  0
  1  2  1  0  0  0  0
  1  4  2  0  0  0  0
  2  5  2  0  0  0  0
  3  6  2  0  0  0  0
  3  7  1  0  0  0  0
  4 11  1  0  0  0  0
  5 12  1  0  0  0  0
  6 13  1  0  0  0  0
  7 15  2  0  0  0  0
  8 13  2  0  0  0  0
  8 15  1  0  0  0  0
  9 11  2  0  0  0  0
  9 27  1  0  0  0  0
 10 14  1  0  0  0  0
 10 27  2  0  0  0  0
 11 12  1  0  0  0  0
 12 14  2  0  0  0  0
 13 26  1  0  0  0  0
 14 28  1  0  0  0  0
 15 31  1  0  0  0  0
 16 26  1  6  0  0  0
 16 28  1  0  0  0  0
 16 30  2  0  0  0  0
 17 18  1  0  0  0  0
 17 19  1  0  0  0  0
 18 20  1  0  0  0  0
 19 24  1  0  0  0  0
 20 25  1  1  0  0  0
 21 22  1  0  0  0  0
 21 24  1  1  0  0  0
 22 29  1  0  0  0  0
 23 25  1  0  0  0  0
 23 29  1  6  0  0  0
 24 25  1  0  0  0  0
 26 29  1  0  0  0  0
  1 32  1  0  0  0  0
  2 33  1  0  0  0  0
  3 34  1  0  0  0  0
  4 35  1  0  0  0  0
  5 36  1  0  0  0  0
  6 37  1  0  0  0  0
  7 38  1  0  0  0  0
  8 39  1  0  0  0  0
  9 40  1  0  0  0  0
 10 41  1  0  0  0  0
 17 42  1  0  0  0  0
 17 43  1  0  0  0  0
 18 44  1  0  0  0  0
 18 45  1  0  0  0  0
 19 46  1  0  0  0  0
 19 47  1  0  0  0  0
 20 48  1  0  0  0  0
 20 49  1  0  0  0  0
 21 50  1  0  0  0  0
 21 51  1  0  0  0  0
 22 52  1  0  0  0  0
 22 53  1  0  0  0  0
 23 54  1  0  0  0  0
 23 55  1  0  0  0  0
 24 56  1  0  0  0  0
 25 57  1  0  0  0  0
 26 58  1  0  0  0  0
 28 59  1  0  0  0  0
 29 60  1  0  0  0  0
M  CHG  1  29   1
M  END
> <compound>
MIC-UNK-5a93dd5f-3

> <compound_smiles>
c1ccc2c(c1)cncc2NC(=O)C(c3cccc(c3)Cl)N4CCC5CCCCC5C4

> <enantiomer_smiles>
c1ccc2c(c1)cncc2NC(=O)[C@H](c3cccc(c3)Cl)[N@]4CC[C@@H]5CCCC[C@@H]5C4

> <scaffold>
chlorobenzene-linker

> <clash_score>
2.179997354321168

> <docking_score>
-0.42121052742004395

> <overlap_score>
0.8960913419723511

> <MMFF_internal_energy>
211.00008058445397

> <docked_smiles>
c1ccc2c(c1)cncc2NC(=O)[C@H](c3cccc(c3)Cl)[N@H+]4CC[C@@H]5CCCC[C@@H]5C4

$$$$
MAK-UNK-ffc90da7-9_2
  -OEChem-07262101023D

 58 61  0     1  0  0  0  0  0999 V2000
   11.9780    0.4600   23.9150 C   0  0  0  0  0  0  0  0  0  0  0  0
    4.4258   -1.1215   20.3410 C   0  0  0  0  0  0  0  0  0  0  0  0
   10.6560    0.0720   23.7350 C   0  0  0  0  0  0  0  0  0  0  0  0
    3.0521   -1.2609   20.1354 C   0  0  0  0  0  0  0  0  0  0  0  0
   12.9840   -0.1200   23.1530 C   0  0  0  0  0  0  0  0  0  0  0  0
    3.2103    0.0769   18.1314 C   0  0  0  0  0  0  0  0  0  0  0  0
   11.3360   -1.5050   22.0650 C   0  0  0  0  0  0  0  0  0  0  0  0
    5.4060    0.9528   17.4579 C   0  0  0  0  0  0  0  0  0  0  0  0
    7.2960    0.5250   18.6908 C   0  0  0  0  0  0  0  0  0  0  0  0
    5.2110   -0.3801   19.4431 C   0  0  0  0  0  0  0  0  0  0  0  0
    4.5934    0.2236   18.3283 C   0  0  0  0  0  0  0  0  0  0  0  0
    2.4457   -0.6630   19.0331 C   0  0  0  0  0  0  0  0  0  0  0  0
   10.3220   -0.8940   22.7910 C   0  0  0  0  0  0  0  0  0  0  0  0
    6.5902   -0.2221   19.6216 C   0  0  0  0  0  0  0  0  0  0  0  0
   12.6400   -1.1000   22.2390 C   0  0  0  0  0  0  0  0  0  0  0  0
    8.3880   -0.3240   21.3070 C   0  0  0  0  0  0  0  0  0  0  0  0
   -0.6459    2.9312   22.4649 C   0  0  0  0  0  0  0  0  0  0  0  0
    0.6539    3.5259   22.9660 C   0  0  0  0  0  0  0  0  0  0  0  0
   -0.2532    1.5227   22.0721 C   0  0  1  0  0  0  0  0  0  0  0  0
    0.8459    1.1935   23.0803 C   0  0  1  0  0  0  0  0  0  0  0  0
    0.2943    0.5257   24.3369 C   0  0  0  0  0  0  0  0  0  0  0  0
    0.5282   -0.1469   17.4981 C   0  0  0  0  0  0  0  0  0  0  0  0
    8.8810   -1.1900   22.4510 C   0  0  0  0  0  0  0  0  0  0  0  0
    0.1704   -0.2864   20.0326 C   0  0  0  0  0  0  0  0  0  0  0  0
    0.9777   -0.8148   18.8176 C   0  0  1  0  0  0  0  0  0  0  0  0
    6.7392    1.1171   17.6128 N   0  0  0  0  0  0  0  0  0  0  0  0
    7.2820   -0.7860   20.6970 N   0  0  0  0  0  0  0  0  0  0  0  0
    8.9170    0.7530   21.0260 O   0  0  0  0  0  0  0  0  0  0  0  0
    1.4424    2.4431   23.4764 O   0  0  0  0  0  0  0  0  0  0  0  0
    0.4060    1.4874   20.3655 S   0  0  0  0  0  0  0  0  0  0  0  0
   13.8840   -1.8490   21.2740 Cl  0  0  0  0  0  0  0  0  0  0  0  0
   12.2249    1.2198   24.6546 H   0  0  0  0  0  0  0  0  0  0  0  0
    4.8623   -1.6035   21.2129 H   0  0  0  0  0  0  0  0  0  0  0  0
    9.8763    0.5350   24.3454 H   0  0  0  0  0  0  0  0  0  0  0  0
    2.4626   -1.8396   20.8418 H   0  0  0  0  0  0  0  0  0  0  0  0
   14.0077    0.1988   23.2842 H   0  0  0  0  0  0  0  0  0  0  0  0
    2.7291    0.5405   17.2725 H   0  0  0  0  0  0  0  0  0  0  0  0
   11.0892   -2.3009   21.3624 H   0  0  0  0  0  0  0  0  0  0  0  0
    4.9938    1.4447   16.5809 H   0  0  0  0  0  0  0  0  0  0  0  0
    8.3675    0.6770   18.7841 H   0  0  0  0  0  0  0  0  0  0  0  0
   -1.3584    2.8850   23.2981 H   0  0  0  0  0  0  0  0  0  0  0  0
   -1.1142    3.5275   21.6758 H   0  0  0  0  0  0  0  0  0  0  0  0
    1.2181    4.0003   22.1563 H   0  0  0  0  0  0  0  0  0  0  0  0
    0.4959    4.2669   23.7550 H   0  0  0  0  0  0  0  0  0  0  0  0
   -1.0916    0.8230   22.1002 H   0  0  0  0  0  0  0  0  0  0  0  0
    1.6311    0.5491   22.6691 H   0  0  0  0  0  0  0  0  0  0  0  0
   -0.4907    1.1439   24.7705 H   0  0  0  0  0  0  0  0  0  0  0  0
    1.0911    0.3978   25.0683 H   0  0  0  0  0  0  0  0  0  0  0  0
   -0.1190   -0.4504   24.0864 H   0  0  0  0  0  0  0  0  0  0  0  0
    0.7390    0.9283   17.5277 H   0  0  0  0  0  0  0  0  0  0  0  0
    1.0464   -0.5554   16.6249 H   0  0  0  0  0  0  0  0  0  0  0  0
   -0.5480   -0.2697   17.3341 H   0  0  0  0  0  0  0  0  0  0  0  0
    8.7774   -2.2383   22.1732 H   0  0  0  0  0  0  0  0  0  0  0  0
    8.2557   -1.0153   23.3257 H   0  0  0  0  0  0  0  0  0  0  0  0
    0.4346   -0.8358   20.9426 H   0  0  0  0  0  0  0  0  0  0  0  0
   -0.9003   -0.4426   19.8581 H   0  0  0  0  0  0  0  0  0  0  0  0
    0.7333   -1.8910   18.7108 H   0  0  0  0  0  0  0  0  0  0  0  0
    6.8981   -1.6619   21.0675 H   0  0  0  0  0  0  0  0  0  0  0  0
  1  3  2  0  0  0  0
  1  5  1  0  0  0  0
  2  4  2  0  0  0  0
  2 10  1  0  0  0  0
  3 13  1  0  0  0  0
  4 12  1  0  0  0  0
  5 15  2  0  0  0  0
  6 11  1  0  0  0  0
  6 12  2  0  0  0  0
  7 13  2  0  0  0  0
  7 15  1  0  0  0  0
  8 11  2  0  0  0  0
  8 26  1  0  0  0  0
  9 14  1  0  0  0  0
  9 26  2  0  0  0  0
 10 11  1  0  0  0  0
 10 14  2  0  0  0  0
 12 25  1  0  0  0  0
 13 23  1  0  0  0  0
 14 27  1  0  0  0  0
 15 31  1  0  0  0  0
 16 23  1  0  0  0  0
 16 27  1  0  0  0  0
 16 28  2  0  0  0  0
 17 18  1  0  0  0  0
 17 19  1  0  0  0  0
 18 29  1  0  0  0  0
 19 20  1  0  0  0  0
 19 30  1  1  0  0  0
 20 21  1  6  0  0  0
 20 29  1  0  0  0  0
 22 25  1  1  0  0  0
 24 25  1  0  0  0  0
 24 30  1  0  0  0  0
  1 32  1  0  0  0  0
  2 33  1  0  0  0  0
  3 34  1  0  0  0  0
  4 35  1  0  0  0  0
  5 36  1  0  0  0  0
  6 37  1  0  0  0  0
  7 38  1  0  0  0  0
  8 39  1  0  0  0  0
  9 40  1  0  0  0  0
 17 41  1  0  0  0  0
 17 42  1  0  0  0  0
 18 43  1  0  0  0  0
 18 44  1  0  0  0  0
 19 45  1  0  0  0  0
 20 46  1  0  0  0  0
 21 47  1  0  0  0  0
 21 48  1  0  0  0  0
 21 49  1  0  0  0  0
 22 50  1  0  0  0  0
 22 51  1  0  0  0  0
 22 52  1  0  0  0  0
 23 53  1  0  0  0  0
 23 54  1  0  0  0  0
 24 55  1  0  0  0  0
 24 56  1  0  0  0  0
 25 57  1  0  0  0  0
 27 58  1  0  0  0  0
M  END
> <compound>
MAK-UNK-ffc90da7-9

> <compound_smiles>
CC1C(CCO1)SCC(C)c2ccc3c(c2)cncc3NC(=O)Cc4cccc(c4)Cl

> <enantiomer_smiles>
C[C@H]1[C@@H](CCO1)SC[C@@H](C)c2ccc3c(c2)cncc3NC(=O)Cc4cccc(c4)Cl

> <scaffold>
chlorobenzene-linker

> <clash_score>
13.663212858741323

> <docking_score>
3.636453866958618

> <overlap_score>
0.7648270726203918

> <MMFF_internal_energy>
133.98625900368975

> <docked_smiles>
C[C@H]1[C@@H](CCO1)SC[C@@H](C)c2ccc3c(c2)cncc3NC(=O)Cc4cccc(c4)Cl

$$$$
MIC-UNK-5a93dd5f-2_6
  -OEChem-07262101023D

 57 61  0     1  0  0  0  0  0999 V2000
    3.4588    2.5719   20.0554 C   0  0  0  0  0  0  0  0  0  0  0  0
    4.0835    2.0505   21.1859 C   0  0  0  0  0  0  0  0  0  0  0  0
   11.9780    0.4600   23.9150 C   0  0  0  0  0  0  0  0  0  0  0  0
    3.8711    2.1742   18.7837 C   0  0  0  0  0  0  0  0  0  0  0  0
    5.1234    1.1291   21.0499 C   0  0  0  0  0  0  0  0  0  0  0  0
   10.6560    0.0720   23.7350 C   0  0  0  0  0  0  0  0  0  0  0  0
   12.9840   -0.1200   23.1530 C   0  0  0  0  0  0  0  0  0  0  0  0
   11.3360   -1.5050   22.0650 C   0  0  0  0  0  0  0  0  0  0  0  0
    5.3689    0.8151   17.3870 C   0  0  0  0  0  0  0  0  0  0  0  0
    6.9552   -0.5603   18.3181 C   0  0  0  0  0  0  0  0  0  0  0  0
    4.9163    1.2476   18.6351 C   0  0  0  0  0  0  0  0  0  0  0  0
    5.5514    0.7175   19.7772 C   0  0  0  0  0  0  0  0  0  0  0  0
   10.3220   -0.8940   22.7910 C   0  0  0  0  0  0  0  0  0  0  0  0
    6.5908   -0.2044   19.6077 C   0  0  0  0  0  0  0  0  0  0  0  0
   12.6400   -1.1000   22.2390 C   0  0  0  0  0  0  0  0  0  0  0  0
    8.3880   -0.3240   21.3070 C   0  0  0  0  0  0  0  0  0  0  0  0
    7.5303   -6.4621   24.8080 C   0  0  0  0  0  0  0  0  0  0  0  0
    6.3242   -6.4632   23.8585 C   0  0  0  0  0  0  0  0  0  0  0  0
    8.7628   -5.7760   24.2043 C   0  0  0  0  0  0  0  0  0  0  0  0
    6.0080   -5.0712   23.2966 C   0  0  0  0  0  0  0  0  0  0  0  0
    9.4509   -3.6110   22.9644 C   0  0  0  0  0  0  0  0  0  0  0  0
    7.1748   -3.0408   22.1983 C   0  0  0  0  0  0  0  0  0  0  0  0
    8.3820   -4.3900   23.7074 C   0  0  2  0  0  0  0  0  0  0  0  0
    7.2626   -4.4753   22.6777 C   0  0  1  0  0  0  0  0  0  0  0  0
    8.8810   -1.1900   22.4510 C   0  0  2  0  0  0  0  0  0  0  0  0
    6.3708   -0.0740   17.2025 N   0  0  0  0  0  0  0  0  0  0  0  0
    7.2820   -0.7860   20.6970 N   0  0  0  0  0  0  0  0  0  0  0  0
    8.6445   -2.6290   22.1109 N   0  3  0  0  0  0  0  0  0  0  0  0
    8.9170    0.7530   21.0260 O   0  0  0  0  0  0  0  0  0  0  0  0
   13.8840   -1.8490   21.2740 Cl  0  0  0  0  0  0  0  0  0  0  0  0
    2.6499    3.2883   20.1641 H   0  0  0  0  0  0  0  0  0  0  0  0
    3.7607    2.3613   22.1754 H   0  0  0  0  0  0  0  0  0  0  0  0
   12.2249    1.2198   24.6546 H   0  0  0  0  0  0  0  0  0  0  0  0
    3.3723    2.5911   17.9118 H   0  0  0  0  0  0  0  0  0  0  0  0
    5.5866    0.7453   21.9560 H   0  0  0  0  0  0  0  0  0  0  0  0
    9.8763    0.5350   24.3454 H   0  0  0  0  0  0  0  0  0  0  0  0
   14.0077    0.1988   23.2842 H   0  0  0  0  0  0  0  0  0  0  0  0
   11.0892   -2.3008   21.3624 H   0  0  0  0  0  0  0  0  0  0  0  0
    4.9234    1.1835   16.4670 H   0  0  0  0  0  0  0  0  0  0  0  0
    7.7549   -1.2720   18.1337 H   0  0  0  0  0  0  0  0  0  0  0  0
    7.2514   -5.9450   25.7347 H   0  0  0  0  0  0  0  0  0  0  0  0
    7.7817   -7.4926   25.0836 H   0  0  0  0  0  0  0  0  0  0  0  0
    6.5295   -7.1471   23.0253 H   0  0  0  0  0  0  0  0  0  0  0  0
    5.4454   -6.8564   24.3820 H   0  0  0  0  0  0  0  0  0  0  0  0
    9.5559   -5.7061   24.9570 H   0  0  0  0  0  0  0  0  0  0  0  0
    9.1528   -6.3850   23.3796 H   0  0  0  0  0  0  0  0  0  0  0  0
    5.2118   -5.1438   22.5475 H   0  0  0  0  0  0  0  0  0  0  0  0
    5.6350   -4.4276   24.1027 H   0  0  0  0  0  0  0  0  0  0  0  0
   10.1236   -3.0569   23.6256 H   0  0  0  0  0  0  0  0  0  0  0  0
   10.0255   -4.2297   22.2674 H   0  0  0  0  0  0  0  0  0  0  0  0
    6.7318   -2.9302   21.2050 H   0  0  0  0  0  0  0  0  0  0  0  0
    6.6790   -2.3849   22.9221 H   0  0  0  0  0  0  0  0  0  0  0  0
    8.0518   -3.7901   24.5689 H   0  0  0  0  0  0  0  0  0  0  0  0
    7.5731   -5.1106   21.8347 H   0  0  0  0  0  0  0  0  0  0  0  0
    8.2445   -1.0188   23.3300 H   0  0  0  0  0  0  0  0  0  0  0  0
    6.8974   -1.6551   21.0612 H   0  0  0  0  0  0  0  0  0  0  0  0
    8.9422   -2.7661   21.1353 H   0  0  0  0  0  0  0  0  0  0  0  0
  1  2  1  0  0  0  0
  1  4  2  0  0  0  0
  2  5  2  0  0  0  0
  3  6  2  0  0  0  0
  3  7  1  0  0  0  0
  4 11  1  0  0  0  0
  5 12  1  0  0  0  0
  6 13  1  0  0  0  0
  7 15  2  0  0  0  0
  8 13  2  0  0  0  0
  8 15  1  0  0  0  0
  9 11  2  0  0  0  0
  9 26  1  0  0  0  0
 10 14  1  0  0  0  0
 10 26  2  0  0  0  0
 11 12  1  0  0  0  0
 12 14  2  0  0  0  0
 13 25  1  0  0  0  0
 14 27  1  0  0  0  0
 15 30  1  0  0  0  0
 16 25  1  6  0  0  0
 16 27  1  0  0  0  0
 16 29  2  0  0  0  0
 17 18  1  0  0  0  0
 17 19  1  0  0  0  0
 18 20  1  0  0  0  0
 19 23  1  0  0  0  0
 20 24  1  6  0  0  0
 21 23  1  1  0  0  0
 21 28  1  0  0  0  0
 22 24  1  0  0  0  0
 22 28  1  0  0  0  0
 23 24  1  0  0  0  0
 25 28  1  0  0  0  0
  1 31  1  0  0  0  0
  2 32  1  0  0  0  0
  3 33  1  0  0  0  0
  4 34  1  0  0  0  0
  5 35  1  0  0  0  0
  6 36  1  0  0  0  0
  7 37  1  0  0  0  0
  8 38  1  0  0  0  0
  9 39  1  0  0  0  0
 10 40  1  0  0  0  0
 17 41  1  0  0  0  0
 17 42  1  0  0  0  0
 18 43  1  0  0  0  0
 18 44  1  0  0  0  0
 19 45  1  0  0  0  0
 19 46  1  0  0  0  0
 20 47  1  0  0  0  0
 20 48  1  0  0  0  0
 21 49  1  0  0  0  0
 21 50  1  0  0  0  0
 22 51  1  0  0  0  0
 22 52  1  0  0  0  0
 23 53  1  0  0  0  0
 24 54  1  0  0  0  0
 25 55  1  0  0  0  0
 27 56  1  0  0  0  0
 28 57  1  0  0  0  0
M  CHG  1  28   1
M  END
> <compound>
MIC-UNK-5a93dd5f-2

> <compound_smiles>
c1ccc2c(c1)cncc2NC(=O)C(c3cccc(c3)Cl)N4CC5CCCCC5C4

> <enantiomer_smiles>
c1ccc2c(c1)cncc2NC(=O)[C@H](c3cccc(c3)Cl)N4C[C@@H]5CCCC[C@H]5C4

> <scaffold>
chlorobenzene-linker

> <clash_score>
0

> <docking_score>
-9.356024742126465

> <overlap_score>
0.9803181886672974

> <MMFF_internal_energy>
210.7035968081617

> <docked_smiles>
c1ccc2c(c1)cncc2NC(=O)[C@H](c3cccc(c3)Cl)[NH+]4C[C@@H]5CCCC[C@H]5C4

$$$$
MAK-UNK-ffc90da7-7_1
  -OEChem-07262101023D

 56 58  0     1  0  0  0  0  0999 V2000
    3.4585    2.5715   20.0555 C   0  0  0  0  0  0  0  0  0  0  0  0
    4.0834    2.0502   21.1860 C   0  0  0  0  0  0  0  0  0  0  0  0
   11.9780    0.4600   23.9150 C   0  0  0  0  0  0  0  0  0  0  0  0
    3.8708    2.1738   18.7838 C   0  0  0  0  0  0  0  0  0  0  0  0
    5.1233    1.1289   21.0500 C   0  0  0  0  0  0  0  0  0  0  0  0
   10.6560    0.0720   23.7350 C   0  0  0  0  0  0  0  0  0  0  0  0
   12.9840   -0.1200   23.1530 C   0  0  0  0  0  0  0  0  0  0  0  0
   11.3360   -1.5050   22.0650 C   0  0  0  0  0  0  0  0  0  0  0  0
    5.3686    0.8147   17.3871 C   0  0  0  0  0  0  0  0  0  0  0  0
    6.9551   -0.5605   18.3182 C   0  0  0  0  0  0  0  0  0  0  0  0
    4.9161    1.2473   18.6351 C   0  0  0  0  0  0  0  0  0  0  0  0
    5.5512    0.7173   19.7773 C   0  0  0  0  0  0  0  0  0  0  0  0
   10.3220   -0.8940   22.7910 C   0  0  0  0  0  0  0  0  0  0  0  0
    6.5907   -0.2046   19.6078 C   0  0  0  0  0  0  0  0  0  0  0  0
   12.6400   -1.1000   22.2390 C   0  0  0  0  0  0  0  0  0  0  0  0
    8.3880   -0.3240   21.3070 C   0  0  0  0  0  0  0  0  0  0  0  0
    5.0939   -5.1177   21.5267 C   0  0  0  0  0  0  0  0  0  0  0  0
    5.9175   -6.3802   23.5464 C   0  0  0  0  0  0  0  0  0  0  0  0
    9.2763   -3.2926   24.5088 C   0  0  0  0  0  0  0  0  0  0  0  0
    7.2071   -3.1582   22.4286 C   0  0  0  0  0  0  0  0  0  0  0  0
    8.8810   -1.1900   22.4510 C   0  0  1  0  0  0  0  0  0  0  0  0
    8.6473   -2.7120   22.1623 C   0  0  1  0  0  0  0  0  0  0  0  0
    5.8524   -5.0334   22.8425 C   0  0  0  0  0  0  0  0  0  0  0  0
    6.3706   -0.0744   17.2026 N   0  0  0  0  0  0  0  0  0  0  0  0
    7.2820   -0.7860   20.6970 N   0  0  0  0  0  0  0  0  0  0  0  0
    9.5288   -3.5244   23.0684 N   0  3  0  0  0  0  0  0  0  0  0  0
    8.9170    0.7530   21.0260 O   0  0  0  0  0  0  0  0  0  0  0  0
    7.1722   -4.5721   22.5925 O   0  0  0  0  0  0  0  0  0  0  0  0
   13.8840   -1.8490   21.2740 Cl  0  0  0  0  0  0  0  0  0  0  0  0
    2.6496    3.2879   20.1642 H   0  0  0  0  0  0  0  0  0  0  0  0
    3.7606    2.3611   22.1755 H   0  0  0  0  0  0  0  0  0  0  0  0
   12.2249    1.2198   24.6546 H   0  0  0  0  0  0  0  0  0  0  0  0
    3.3719    2.5905   17.9119 H   0  0  0  0  0  0  0  0  0  0  0  0
    5.5866    0.7452   21.9561 H   0  0  0  0  0  0  0  0  0  0  0  0
    9.8763    0.5350   24.3454 H   0  0  0  0  0  0  0  0  0  0  0  0
   14.0077    0.1988   23.2842 H   0  0  0  0  0  0  0  0  0  0  0  0
   11.0892   -2.3009   21.3624 H   0  0  0  0  0  0  0  0  0  0  0  0
    4.9230    1.1830   16.4671 H   0  0  0  0  0  0  0  0  0  0  0  0
    7.7549   -1.2722   18.1338 H   0  0  0  0  0  0  0  0  0  0  0  0
    5.5545   -5.8424   20.8485 H   0  0  0  0  0  0  0  0  0  0  0  0
    4.0550   -5.4156   21.7042 H   0  0  0  0  0  0  0  0  0  0  0  0
    5.0602   -4.1429   21.0276 H   0  0  0  0  0  0  0  0  0  0  0  0
    6.3977   -7.1351   22.9164 H   0  0  0  0  0  0  0  0  0  0  0  0
    4.9099   -6.7263   23.8010 H   0  0  0  0  0  0  0  0  0  0  0  0
    6.4718   -6.3061   24.4885 H   0  0  0  0  0  0  0  0  0  0  0  0
    8.2304   -3.5335   24.7074 H   0  0  0  0  0  0  0  0  0  0  0  0
    9.9438   -3.9455   25.0743 H   0  0  0  0  0  0  0  0  0  0  0  0
    9.4837   -2.2417   24.7195 H   0  0  0  0  0  0  0  0  0  0  0  0
    6.8014   -2.6900   23.3322 H   0  0  0  0  0  0  0  0  0  0  0  0
    6.5533   -2.9143   21.5864 H   0  0  0  0  0  0  0  0  0  0  0  0
    8.2532   -0.9602   23.3436 H   0  0  0  0  0  0  0  0  0  0  0  0
    8.9530   -2.9930   21.1480 H   0  0  0  0  0  0  0  0  0  0  0  0
    5.3678   -4.3018   23.4973 H   0  0  0  0  0  0  0  0  0  0  0  0
    6.8975   -1.6550   21.0612 H   0  0  0  0  0  0  0  0  0  0  0  0
   10.5048   -3.3072   22.8464 H   0  0  0  0  0  0  0  0  0  0  0  0
    9.3928   -4.5148   22.8458 H   0  0  0  0  0  0  0  0  0  0  0  0
  1  2  1  0  0  0  0
  1  4  2  0  0  0  0
  2  5  2  0  0  0  0
  3  6  2  0  0  0  0
  3  7  1  0  0  0  0
  4 11  1  0  0  0  0
  5 12  1  0  0  0  0
  6 13  1  0  0  0  0
  7 15  2  0  0  0  0
  8 13  2  0  0  0  0
  8 15  1  0  0  0  0
  9 11  2  0  0  0  0
  9 24  1  0  0  0  0
 10 14  1  0  0  0  0
 10 24  2  0  0  0  0
 11 12  1  0  0  0  0
 12 14  2  0  0  0  0
 13 21  1  0  0  0  0
 14 25  1  0  0  0  0
 15 29  1  0  0  0  0
 16 21  1  1  0  0  0
 16 25  1  0  0  0  0
 16 27  2  0  0  0  0
 17 23  1  0  0  0  0
 18 23  1  0  0  0  0
 19 26  1  0  0  0  0
 20 22  1  1  0  0  0
 20 28  1  0  0  0  0
 21 22  1  0  0  0  0
 22 26  1  0  0  0  0
 23 28  1  0  0  0  0
  1 30  1  0  0  0  0
  2 31  1  0  0  0  0
  3 32  1  0  0  0  0
  4 33  1  0  0  0  0
  5 34  1  0  0  0  0
  6 35  1  0  0  0  0
  7 36  1  0  0  0  0
  8 37  1  0  0  0  0
  9 38  1  0  0  0  0
 10 39  1  0  0  0  0
 17 40  1  0  0  0  0
 17 41  1  0  0  0  0
 17 42  1  0  0  0  0
 18 43  1  0  0  0  0
 18 44  1  0  0  0  0
 18 45  1  0  0  0  0
 19 46  1  0  0  0  0
 19 47  1  0  0  0  0
 19 48  1  0  0  0  0
 20 49  1  0  0  0  0
 20 50  1  0  0  0  0
 21 51  1  0  0  0  0
 22 52  1  0  0  0  0
 23 53  1  0  0  0  0
 25 54  1  0  0  0  0
 26 55  1  0  0  0  0
 26 56  1  0  0  0  0
M  CHG  1  26   1
M  END
> <compound>
MAK-UNK-ffc90da7-7

> <compound_smiles>
CC(C)OCC(C(c1cccc(c1)Cl)C(=O)Nc2cncc3c2cccc3)NC

> <enantiomer_smiles>
CC(C)OC[C@@H]([C@@H](c1cccc(c1)Cl)C(=O)Nc2cncc3c2cccc3)NC

> <scaffold>
chlorobenzene-linker

> <clash_score>
0

> <docking_score>
-9.657750129699707

> <overlap_score>
0.9834456443786621

> <MMFF_internal_energy>
181.63483155710256

> <docked_smiles>
CC(C)OC[C@@H]([C@@H](c1cccc(c1)Cl)C(=O)Nc2cncc3c2cccc3)[NH2+]C

$$$$
MIC-UNK-5a93dd5f-3_5
  -OEChem-07262101023D

 60 64  0     1  0  0  0  0  0999 V2000
    4.8867    3.6427   19.7210 C   0  0  0  0  0  0  0  0  0  0  0  0
    5.5503    3.1504   20.8424 C   0  0  0  0  0  0  0  0  0  0  0  0
   11.9780    0.4600   23.9150 C   0  0  0  0  0  0  0  0  0  0  0  0
    4.7892    2.8630   18.5689 C   0  0  0  0  0  0  0  0  0  0  0  0
    6.1195    1.8760   20.8166 C   0  0  0  0  0  0  0  0  0  0  0  0
   10.6560    0.0720   23.7350 C   0  0  0  0  0  0  0  0  0  0  0  0
   12.9840   -0.1200   23.1530 C   0  0  0  0  0  0  0  0  0  0  0  0
   11.3360   -1.5050   22.0650 C   0  0  0  0  0  0  0  0  0  0  0  0
    5.2903    0.7565   17.4056 C   0  0  0  0  0  0  0  0  0  0  0  0
    6.4606   -0.9310   18.4340 C   0  0  0  0  0  0  0  0  0  0  0  0
    5.3581    1.5791   18.5317 C   0  0  0  0  0  0  0  0  0  0  0  0
    6.0308    1.0771   19.6649 C   0  0  0  0  0  0  0  0  0  0  0  0
   10.3220   -0.8940   22.7910 C   0  0  0  0  0  0  0  0  0  0  0  0
    6.5908   -0.2044   19.6077 C   0  0  0  0  0  0  0  0  0  0  0  0
   12.6400   -1.1000   22.2390 C   0  0  0  0  0  0  0  0  0  0  0  0
    8.3880   -0.3240   21.3070 C   0  0  0  0  0  0  0  0  0  0  0  0
    3.6573   -1.7497   26.5257 C   0  0  0  0  0  0  0  0  0  0  0  0
    3.2468   -0.9176   25.3140 C   0  0  0  0  0  0  0  0  0  0  0  0
    5.1340   -1.5631   26.8693 C   0  0  0  0  0  0  0  0  0  0  0  0
    4.1470   -1.1846   24.1091 C   0  0  0  0  0  0  0  0  0  0  0  0
    7.5088   -1.6497   25.9953 C   0  0  0  0  0  0  0  0  0  0  0  0
    8.3977   -1.9143   24.7873 C   0  0  0  0  0  0  0  0  0  0  0  0
    6.5184   -1.2592   23.2512 C   0  0  0  0  0  0  0  0  0  0  0  0
    6.0284   -1.8529   25.6576 C   0  0  1  0  0  0  0  0  0  0  0  0
    5.6258   -0.9741   24.4594 C   0  0  2  0  0  0  0  0  0  0  0  0
    8.8810   -1.1900   22.4510 C   0  0  1  0  0  0  0  0  0  0  0  0
    5.8245   -0.4834   17.3305 N   0  0  0  0  0  0  0  0  0  0  0  0
    7.2820   -0.7860   20.6970 N   0  0  0  0  0  0  0  0  0  0  0  0
    7.9638   -1.0391   23.6364 N   0  3  2  0  0  0  0  0  0  0  0  0
    8.9170    0.7530   21.0260 O   0  0  0  0  0  0  0  0  0  0  0  0
   13.8840   -1.8490   21.2740 Cl  0  0  0  0  0  0  0  0  0  0  0  0
    4.4446    4.6345   19.7440 H   0  0  0  0  0  0  0  0  0  0  0  0
    5.6249    3.7592   21.7389 H   0  0  0  0  0  0  0  0  0  0  0  0
   12.2249    1.2198   24.6546 H   0  0  0  0  0  0  0  0  0  0  0  0
    4.2674    3.2627   17.7024 H   0  0  0  0  0  0  0  0  0  0  0  0
    6.6299    1.5271   21.7114 H   0  0  0  0  0  0  0  0  0  0  0  0
    9.8763    0.5350   24.3454 H   0  0  0  0  0  0  0  0  0  0  0  0
   14.0077    0.1988   23.2842 H   0  0  0  0  0  0  0  0  0  0  0  0
   11.0892   -2.3009   21.3624 H   0  0  0  0  0  0  0  0  0  0  0  0
    4.7868    1.0816   16.4993 H   0  0  0  0  0  0  0  0  0  0  0  0
    6.8769   -1.9300   18.3396 H   0  0  0  0  0  0  0  0  0  0  0  0
    3.0406   -1.4734   27.3883 H   0  0  0  0  0  0  0  0  0  0  0  0
    3.4630   -2.8098   26.3210 H   0  0  0  0  0  0  0  0  0  0  0  0
    2.2058   -1.1378   25.0517 H   0  0  0  0  0  0  0  0  0  0  0  0
    3.2919    0.1475   25.5724 H   0  0  0  0  0  0  0  0  0  0  0  0
    5.2981   -0.5362   27.2197 H   0  0  0  0  0  0  0  0  0  0  0  0
    5.3993   -2.2289   27.6991 H   0  0  0  0  0  0  0  0  0  0  0  0
    3.9877   -2.2119   23.7574 H   0  0  0  0  0  0  0  0  0  0  0  0
    3.8581   -0.5185   23.2875 H   0  0  0  0  0  0  0  0  0  0  0  0
    7.8004   -2.3242   26.8091 H   0  0  0  0  0  0  0  0  0  0  0  0
    7.6772   -0.6273   26.3574 H   0  0  0  0  0  0  0  0  0  0  0  0
    9.4399   -1.6670   25.0144 H   0  0  0  0  0  0  0  0  0  0  0  0
    8.3325   -2.9565   24.4552 H   0  0  0  0  0  0  0  0  0  0  0  0
    6.4234   -2.2928   22.8988 H   0  0  0  0  0  0  0  0  0  0  0  0
    6.2938   -0.5711   22.4289 H   0  0  0  0  0  0  0  0  0  0  0  0
    5.8884   -2.9079   25.3807 H   0  0  0  0  0  0  0  0  0  0  0  0
    5.7556    0.0823   24.7370 H   0  0  0  0  0  0  0  0  0  0  0  0
    8.7698   -2.2472   22.1731 H   0  0  0  0  0  0  0  0  0  0  0  0
    6.8974   -1.6551   21.0612 H   0  0  0  0  0  0  0  0  0  0  0  0
    8.0496   -0.0620   23.9486 H   0  0  0  0  0  0  0  0  0  0  0  0
  1  2  1  0  0  0  0
  1  4  2  0  0  0  0
  2  5  2  0  0  0  0
  3  6  2  0  0  0  0
  3  7  1  0  0  0  0
  4 11  1  0  0  0  0
  5 12  1  0  0  0  0
  6 13  1  0  0  0  0
  7 15  2  0  0  0  0
  8 13  2  0  0  0  0
  8 15  1  0  0  0  0
  9 11  2  0  0  0  0
  9 27  1  0  0  0  0
 10 14  1  0  0  0  0
 10 27  2  0  0  0  0
 11 12  1  0  0  0  0
 12 14  2  0  0  0  0
 13 26  1  0  0  0  0
 14 28  1  0  0  0  0
 15 31  1  0  0  0  0
 16 26  1  1  0  0  0
 16 28  1  0  0  0  0
 16 30  2  0  0  0  0
 17 18  1  0  0  0  0
 17 19  1  0  0  0  0
 18 20  1  0  0  0  0
 19 24  1  0  0  0  0
 20 25  1  1  0  0  0
 21 22  1  0  0  0  0
 21 24  1  6  0  0  0
 22 29  1  0  0  0  0
 23 25  1  0  0  0  0
 23 29  1  1  0  0  0
 24 25  1  0  0  0  0
 26 29  1  0  0  0  0
  1 32  1  0  0  0  0
  2 33  1  0  0  0  0
  3 34  1  0  0  0  0
  4 35  1  0  0  0  0
  5 36  1  0  0  0  0
  6 37  1  0  0  0  0
  7 38  1  0  0  0  0
  8 39  1  0  0  0  0
  9 40  1  0  0  0  0
 10 41  1  0  0  0  0
 17 42  1  0  0  0  0
 17 43  1  0  0  0  0
 18 44  1  0  0  0  0
 18 45  1  0  0  0  0
 19 46  1  0  0  0  0
 19 47  1  0  0  0  0
 20 48  1  0  0  0  0
 20 49  1  0  0  0  0
 21 50  1  0  0  0  0
 21 51  1  0  0  0  0
 22 52  1  0  0  0  0
 22 53  1  0  0  0  0
 23 54  1  0  0  0  0
 23 55  1  0  0  0  0
 24 56  1  0  0  0  0
 25 57  1  0  0  0  0
 26 58  1  0  0  0  0
 28 59  1  0  0  0  0
 29 60  1  0  0  0  0
M  CHG  1  29   1
M  END
> <compound>
MIC-UNK-5a93dd5f-3

> <compound_smiles>
c1ccc2c(c1)cncc2NC(=O)C(c3cccc(c3)Cl)N4CCC5CCCCC5C4

> <enantiomer_smiles>
c1ccc2c(c1)cncc2NC(=O)[C@@H](c3cccc(c3)Cl)[N@@]4CC[C@H]5CCCC[C@@H]5C4

> <scaffold>
chlorobenzene-linker

> <clash_score>
1.3513303684437181

> <docking_score>
-3.356126308441162

> <overlap_score>
0.8388420939445496

> <MMFF_internal_energy>
172.8863801615722

> <docked_smiles>
c1ccc2c(c1)cncc2NC(=O)[C@@H](c3cccc(c3)Cl)[N@@H+]4CC[C@H]5CCCC[C@@H]5C4

$$$$
MIC-UNK-5a93dd5f-3_2
  -OEChem-07262101023D

 60 64  0     1  0  0  0  0  0999 V2000
    2.5657    1.0132   19.7900 C   0  0  0  0  0  0  0  0  0  0  0  0
    3.1660    0.4495   20.9134 C   0  0  0  0  0  0  0  0  0  0  0  0
   11.9780    0.4600   23.9150 C   0  0  0  0  0  0  0  0  0  0  0  0
    3.2968    1.1719   18.6130 C   0  0  0  0  0  0  0  0  0  0  0  0
    4.5003    0.0420   20.8649 C   0  0  0  0  0  0  0  0  0  0  0  0
   10.6560    0.0720   23.7350 C   0  0  0  0  0  0  0  0  0  0  0  0
   12.9840   -0.1200   23.1530 C   0  0  0  0  0  0  0  0  0  0  0  0
   11.3360   -1.5050   22.0650 C   0  0  0  0  0  0  0  0  0  0  0  0
    5.4182    0.9006   17.4014 C   0  0  0  0  0  0  0  0  0  0  0  0
    7.2646   -0.0206   18.4099 C   0  0  0  0  0  0  0  0  0  0  0  0
    4.6401    0.7653   18.5528 C   0  0  0  0  0  0  0  0  0  0  0  0
    5.2515    0.1942   19.6881 C   0  0  0  0  0  0  0  0  0  0  0  0
   10.3220   -0.8940   22.7910 C   0  0  0  0  0  0  0  0  0  0  0  0
    6.5908   -0.2044   19.6077 C   0  0  0  0  0  0  0  0  0  0  0  0
   12.6400   -1.1000   22.2390 C   0  0  0  0  0  0  0  0  0  0  0  0
    8.3880   -0.3240   21.3070 C   0  0  0  0  0  0  0  0  0  0  0  0
   10.7307   -6.3919   19.6093 C   0  0  0  0  0  0  0  0  0  0  0  0
    9.5541   -6.0924   18.6798 C   0  0  0  0  0  0  0  0  0  0  0  0
   10.5867   -5.7754   21.0056 C   0  0  0  0  0  0  0  0  0  0  0  0
    9.0409   -4.6706   18.8678 C   0  0  0  0  0  0  0  0  0  0  0  0
    8.9311   -4.9854   22.7796 C   0  0  0  0  0  0  0  0  0  0  0  0
    9.3677   -3.5579   23.0553 C   0  0  0  0  0  0  0  0  0  0  0  0
    8.9806   -2.9347   20.6729 C   0  0  0  0  0  0  0  0  0  0  0  0
    9.1288   -5.4216   21.3230 C   0  0  2  0  0  0  0  0  0  0  0  0
    8.5929   -4.3769   20.3173 C   0  0  2  0  0  0  0  0  0  0  0  0
    8.8810   -1.1900   22.4510 C   0  0  2  0  0  0  0  0  0  0  0  0
    6.7126    0.5221   17.3038 N   0  0  0  0  0  0  0  0  0  0  0  0
    7.2820   -0.7860   20.6970 N   0  0  0  0  0  0  0  0  0  0  0  0
    8.6431   -2.6376   22.1089 N   0  3  2  0  0  0  0  0  0  0  0  0
    8.9170    0.7530   21.0260 O   0  0  0  0  0  0  0  0  0  0  0  0
   13.8840   -1.8490   21.2740 Cl  0  0  0  0  0  0  0  0  0  0  0  0
    1.5274    1.3292   19.8304 H   0  0  0  0  0  0  0  0  0  0  0  0
    2.5946    0.3266   21.8291 H   0  0  0  0  0  0  0  0  0  0  0  0
   12.2249    1.2198   24.6546 H   0  0  0  0  0  0  0  0  0  0  0  0
    2.8126    1.6137   17.7451 H   0  0  0  0  0  0  0  0  0  0  0  0
    4.9337   -0.3930   21.7626 H   0  0  0  0  0  0  0  0  0  0  0  0
    9.8763    0.5350   24.3454 H   0  0  0  0  0  0  0  0  0  0  0  0
   14.0077    0.1988   23.2842 H   0  0  0  0  0  0  0  0  0  0  0  0
   11.0892   -2.3009   21.3624 H   0  0  0  0  0  0  0  0  0  0  0  0
    5.0092    1.3323   16.4920 H   0  0  0  0  0  0  0  0  0  0  0  0
    8.3044   -0.3139   18.2966 H   0  0  0  0  0  0  0  0  0  0  0  0
   10.8475   -7.4862   19.7076 H   0  0  0  0  0  0  0  0  0  0  0  0
   11.6653   -6.0308   19.1461 H   0  0  0  0  0  0  0  0  0  0  0  0
    9.8611   -6.2483   17.6393 H   0  0  0  0  0  0  0  0  0  0  0  0
    8.7452   -6.8045   18.8785 H   0  0  0  0  0  0  0  0  0  0  0  0
   10.9666   -6.4891   21.7472 H   0  0  0  0  0  0  0  0  0  0  0  0
   11.2314   -4.8910   21.0668 H   0  0  0  0  0  0  0  0  0  0  0  0
    9.8104   -3.9546   18.5616 H   0  0  0  0  0  0  0  0  0  0  0  0
    8.1839   -4.5134   18.2025 H   0  0  0  0  0  0  0  0  0  0  0  0
    9.4670   -5.6684   23.4533 H   0  0  0  0  0  0  0  0  0  0  0  0
    7.8655   -5.0852   23.0347 H   0  0  0  0  0  0  0  0  0  0  0  0
    9.0942   -3.2635   24.0717 H   0  0  0  0  0  0  0  0  0  0  0  0
   10.4409   -3.4122   22.9100 H   0  0  0  0  0  0  0  0  0  0  0  0
   10.0536   -2.7338   20.5390 H   0  0  0  0  0  0  0  0  0  0  0  0
    8.4143   -2.2229   20.0531 H   0  0  0  0  0  0  0  0  0  0  0  0
    8.5435   -6.3493   21.1724 H   0  0  0  0  0  0  0  0  0  0  0  0
    7.4946   -4.4208   20.3176 H   0  0  0  0  0  0  0  0  0  0  0  0
    8.2445   -1.0188   23.3300 H   0  0  0  0  0  0  0  0  0  0  0  0
    6.8974   -1.6551   21.0612 H   0  0  0  0  0  0  0  0  0  0  0  0
    7.6381   -2.8037   22.2295 H   0  0  0  0  0  0  0  0  0  0  0  0
  1  2  1  0  0  0  0
  1  4  2  0  0  0  0
  2  5  2  0  0  0  0
  3  6  2  0  0  0  0
  3  7  1  0  0  0  0
  4 11  1  0  0  0  0
  5 12  1  0  0  0  0
  6 13  1  0  0  0  0
  7 15  2  0  0  0  0
  8 13  2  0  0  0  0
  8 15  1  0  0  0  0
  9 11  2  0  0  0  0
  9 27  1  0  0  0  0
 10 14  1  0  0  0  0
 10 27  2  0  0  0  0
 11 12  1  0  0  0  0
 12 14  2  0  0  0  0
 13 26  1  0  0  0  0
 14 28  1  0  0  0  0
 15 31  1  0  0  0  0
 16 26  1  6  0  0  0
 16 28  1  0  0  0  0
 16 30  2  0  0  0  0
 17 18  1  0  0  0  0
 17 19  1  0  0  0  0
 18 20  1  0  0  0  0
 19 24  1  0  0  0  0
 20 25  1  1  0  0  0
 21 22  1  0  0  0  0
 21 24  1  1  0  0  0
 22 29  1  0  0  0  0
 23 25  1  0  0  0  0
 23 29  1  1  0  0  0
 24 25  1  0  0  0  0
 26 29  1  0  0  0  0
  1 32  1  0  0  0  0
  2 33  1  0  0  0  0
  3 34  1  0  0  0  0
  4 35  1  0  0  0  0
  5 36  1  0  0  0  0
  6 37  1  0  0  0  0
  7 38  1  0  0  0  0
  8 39  1  0  0  0  0
  9 40  1  0  0  0  0
 10 41  1  0  0  0  0
 17 42  1  0  0  0  0
 17 43  1  0  0  0  0
 18 44  1  0  0  0  0
 18 45  1  0  0  0  0
 19 46  1  0  0  0  0
 19 47  1  0  0  0  0
 20 48  1  0  0  0  0
 20 49  1  0  0  0  0
 21 50  1  0  0  0  0
 21 51  1  0  0  0  0
 22 52  1  0  0  0  0
 22 53  1  0  0  0  0
 23 54  1  0  0  0  0
 23 55  1  0  0  0  0
 24 56  1  0  0  0  0
 25 57  1  0  0  0  0
 26 58  1  0  0  0  0
 28 59  1  0  0  0  0
 29 60  1  0  0  0  0
M  CHG  1  29   1
M  END
> <compound>
MIC-UNK-5a93dd5f-3

> <compound_smiles>
c1ccc2c(c1)cncc2NC(=O)C(c3cccc(c3)Cl)N4CCC5CCCCC5C4

> <enantiomer_smiles>
c1ccc2c(c1)cncc2NC(=O)[C@H](c3cccc(c3)Cl)[N@@]4CC[C@@H]5CCCC[C@@H]5C4

> <scaffold>
chlorobenzene-linker

> <clash_score>
6.4737390969392985

> <docking_score>
1.4658398628234863

> <overlap_score>
0.8960526585578918

> <MMFF_internal_energy>
211.9472786054481

> <docked_smiles>
c1ccc2c(c1)cncc2NC(=O)[C@H](c3cccc(c3)Cl)[N@@H+]4CC[C@@H]5CCCC[C@@H]5C4

$$$$
MAK-UNK-ffc90da7-4_1
  -OEChem-07262101023D

 60 63  0     1  0  0  0  0  0999 V2000
    3.4829    2.5989   20.0545 C   0  0  0  0  0  0  0  0  0  0  0  0
    4.1078    2.0778   21.1851 C   0  0  0  0  0  0  0  0  0  0  0  0
   11.9780    0.4600   23.9150 C   0  0  0  0  0  0  0  0  0  0  0  0
    3.8872    2.1924   18.7832 C   0  0  0  0  0  0  0  0  0  0  0  0
    5.1399    1.1477   21.0494 C   0  0  0  0  0  0  0  0  0  0  0  0
   10.6560    0.0720   23.7350 C   0  0  0  0  0  0  0  0  0  0  0  0
   12.9840   -0.1200   23.1530 C   0  0  0  0  0  0  0  0  0  0  0  0
   11.3360   -1.5050   22.0650 C   0  0  0  0  0  0  0  0  0  0  0  0
    5.3690    0.8152   17.3870 C   0  0  0  0  0  0  0  0  0  0  0  0
    6.9479   -0.5684   18.3184 C   0  0  0  0  0  0  0  0  0  0  0  0
    4.9246    1.2569   18.6348 C   0  0  0  0  0  0  0  0  0  0  0  0
    5.5597    0.7270   19.7769 C   0  0  0  0  0  0  0  0  0  0  0  0
   10.3220   -0.8940   22.7910 C   0  0  0  0  0  0  0  0  0  0  0  0
    6.5912   -0.2039   19.6077 C   0  0  0  0  0  0  0  0  0  0  0  0
   12.6400   -1.1000   22.2390 C   0  0  0  0  0  0  0  0  0  0  0  0
    8.3880   -0.3240   21.3070 C   0  0  0  0  0  0  0  0  0  0  0  0
    8.4245   -5.2044   29.0183 C   0  0  0  0  0  0  0  0  0  0  0  0
    9.4920   -4.8144   28.0270 C   0  0  0  0  0  0  0  0  0  0  0  0
    7.3888   -5.8526   28.1240 C   0  0  0  0  0  0  0  0  0  0  0  0
    8.6549   -4.3789   26.8367 C   0  0  2  0  0  0  0  0  0  0  0  0
    8.9867   -3.1058   20.7212 C   0  0  0  0  0  0  0  0  0  0  0  0
    9.3765   -4.5086   25.5094 C   0  0  0  0  0  0  0  0  0  0  0  0
    9.3341   -3.6650   23.1588 C   0  0  0  0  0  0  0  0  0  0  0  0
    8.8810   -1.1900   22.4510 C   0  0  1  0  0  0  0  0  0  0  0  0
    8.6228   -2.7224   22.1659 C   0  0  1  0  0  0  0  0  0  0  0  0
    6.3631   -0.0826   17.2027 N   0  0  0  0  0  0  0  0  0  0  0  0
    7.2820   -0.7860   20.6970 N   0  0  0  0  0  0  0  0  0  0  0  0
    8.6840   -3.6720   24.4909 N   0  3  0  0  0  0  0  0  0  0  0  0
    8.9170    0.7530   21.0260 O   0  0  0  0  0  0  0  0  0  0  0  0
    7.4863   -5.2163   26.8409 O   0  0  0  0  0  0  0  0  0  0  0  0
   13.8840   -1.8490   21.2740 Cl  0  0  0  0  0  0  0  0  0  0  0  0
    2.6801    3.3223   20.1631 H   0  0  0  0  0  0  0  0  0  0  0  0
    3.7912    2.3956   22.1744 H   0  0  0  0  0  0  0  0  0  0  0  0
   12.2249    1.2198   24.6546 H   0  0  0  0  0  0  0  0  0  0  0  0
    3.3884    2.6092   17.9112 H   0  0  0  0  0  0  0  0  0  0  0  0
    5.6035    0.7643   21.9554 H   0  0  0  0  0  0  0  0  0  0  0  0
    9.8763    0.5350   24.3454 H   0  0  0  0  0  0  0  0  0  0  0  0
   14.0077    0.1988   23.2842 H   0  0  0  0  0  0  0  0  0  0  0  0
   11.0892   -2.3009   21.3624 H   0  0  0  0  0  0  0  0  0  0  0  0
    4.9229    1.1830   16.4670 H   0  0  0  0  0  0  0  0  0  0  0  0
    7.7413   -1.2873   18.1342 H   0  0  0  0  0  0  0  0  0  0  0  0
    8.7801   -5.8683   29.8105 H   0  0  0  0  0  0  0  0  0  0  0  0
    8.0052   -4.3060   29.4864 H   0  0  0  0  0  0  0  0  0  0  0  0
   10.1560   -4.0257   28.3913 H   0  0  0  0  0  0  0  0  0  0  0  0
   10.1023   -5.6915   27.7799 H   0  0  0  0  0  0  0  0  0  0  0  0
    7.5983   -6.9183   27.9834 H   0  0  0  0  0  0  0  0  0  0  0  0
    6.3722   -5.7451   28.5126 H   0  0  0  0  0  0  0  0  0  0  0  0
    8.3133   -3.3457   26.9704 H   0  0  0  0  0  0  0  0  0  0  0  0
   10.0518   -2.9366   20.5298 H   0  0  0  0  0  0  0  0  0  0  0  0
    8.7924   -4.1661   20.5309 H   0  0  0  0  0  0  0  0  0  0  0  0
    8.4130   -2.5252   19.9915 H   0  0  0  0  0  0  0  0  0  0  0  0
    9.3646   -5.5382   25.1414 H   0  0  0  0  0  0  0  0  0  0  0  0
   10.4075   -4.1496   25.5729 H   0  0  0  0  0  0  0  0  0  0  0  0
    9.3422   -4.7018   22.8116 H   0  0  0  0  0  0  0  0  0  0  0  0
   10.3711   -3.3535   23.3222 H   0  0  0  0  0  0  0  0  0  0  0  0
    8.2678   -0.9572   23.3517 H   0  0  0  0  0  0  0  0  0  0  0  0
    7.5483   -2.9169   22.2847 H   0  0  0  0  0  0  0  0  0  0  0  0
    6.8771   -1.6492   21.0526 H   0  0  0  0  0  0  0  0  0  0  0  0
    7.7116   -4.0001   24.3947 H   0  0  0  0  0  0  0  0  0  0  0  0
    8.6161   -2.7056   24.8432 H   0  0  0  0  0  0  0  0  0  0  0  0
  1  2  1  0  0  0  0
  1  4  2  0  0  0  0
  2  5  2  0  0  0  0
  3  6  2  0  0  0  0
  3  7  1  0  0  0  0
  4 11  1  0  0  0  0
  5 12  1  0  0  0  0
  6 13  1  0  0  0  0
  7 15  2  0  0  0  0
  8 13  2  0  0  0  0
  8 15  1  0  0  0  0
  9 11  2  0  0  0  0
  9 26  1  0  0  0  0
 10 14  1  0  0  0  0
 10 26  2  0  0  0  0
 11 12  1  0  0  0  0
 12 14  2  0  0  0  0
 13 24  1  0  0  0  0
 14 27  1  0  0  0  0
 15 31  1  0  0  0  0
 16 24  1  1  0  0  0
 16 27  1  0  0  0  0
 16 29  2  0  0  0  0
 17 18  1  0  0  0  0
 17 19  1  0  0  0  0
 18 20  1  0  0  0  0
 19 30  1  0  0  0  0
 20 22  1  1  0  0  0
 20 30  1  0  0  0  0
 21 25  1  1  0  0  0
 22 28  1  0  0  0  0
 23 25  1  0  0  0  0
 23 28  1  0  0  0  0
 24 25  1  0  0  0  0
  1 32  1  0  0  0  0
  2 33  1  0  0  0  0
  3 34  1  0  0  0  0
  4 35  1  0  0  0  0
  5 36  1  0  0  0  0
  6 37  1  0  0  0  0
  7 38  1  0  0  0  0
  8 39  1  0  0  0  0
  9 40  1  0  0  0  0
 10 41  1  0  0  0  0
 17 42  1  0  0  0  0
 17 43  1  0  0  0  0
 18 44  1  0  0  0  0
 18 45  1  0  0  0  0
 19 46  1  0  0  0  0
 19 47  1  0  0  0  0
 20 48  1  0  0  0  0
 21 49  1  0  0  0  0
 21 50  1  0  0  0  0
 21 51  1  0  0  0  0
 22 52  1  0  0  0  0
 22 53  1  0  0  0  0
 23 54  1  0  0  0  0
 23 55  1  0  0  0  0
 24 56  1  0  0  0  0
 25 57  1  0  0  0  0
 27 58  1  0  0  0  0
 28 59  1  0  0  0  0
 28 60  1  0  0  0  0
M  CHG  1  28   1
M  END
> <compound>
MAK-UNK-ffc90da7-4

> <compound_smiles>
CC(CNCC1CCCO1)C(c2cccc(c2)Cl)C(=O)Nc3cncc4c3cccc4

> <enantiomer_smiles>
C[C@@H](CNC[C@@H]1CCCO1)[C@@H](c2cccc(c2)Cl)C(=O)Nc3cncc4c3cccc4

> <scaffold>
chlorobenzene-linker

> <clash_score>
0.613432497538474

> <docking_score>
-10.22105598449707

> <overlap_score>
0.9762580990791321

> <MMFF_internal_energy>
169.3075696136829

> <docked_smiles>
C[C@@H](C[NH2+]C[C@@H]1CCCO1)[C@@H](c2cccc(c2)Cl)C(=O)Nc3cncc4c3cccc4

$$$$
MIC-UNK-5a93dd5f-3_8
  -OEChem-07262101023D

 60 64  0     1  0  0  0  0  0999 V2000
    2.5657    1.0132   19.7900 C   0  0  0  0  0  0  0  0  0  0  0  0
    3.1660    0.4495   20.9134 C   0  0  0  0  0  0  0  0  0  0  0  0
   11.9780    0.4600   23.9150 C   0  0  0  0  0  0  0  0  0  0  0  0
    3.2968    1.1719   18.6130 C   0  0  0  0  0  0  0  0  0  0  0  0
    4.5003    0.0420   20.8649 C   0  0  0  0  0  0  0  0  0  0  0  0
   10.6560    0.0720   23.7350 C   0  0  0  0  0  0  0  0  0  0  0  0
   12.9840   -0.1200   23.1530 C   0  0  0  0  0  0  0  0  0  0  0  0
   11.3360   -1.5050   22.0650 C   0  0  0  0  0  0  0  0  0  0  0  0
    5.4182    0.9006   17.4014 C   0  0  0  0  0  0  0  0  0  0  0  0
    7.2646   -0.0206   18.4099 C   0  0  0  0  0  0  0  0  0  0  0  0
    4.6401    0.7653   18.5528 C   0  0  0  0  0  0  0  0  0  0  0  0
    5.2515    0.1942   19.6881 C   0  0  0  0  0  0  0  0  0  0  0  0
   10.3220   -0.8940   22.7910 C   0  0  0  0  0  0  0  0  0  0  0  0
    6.5908   -0.2044   19.6077 C   0  0  0  0  0  0  0  0  0  0  0  0
   12.6400   -1.1000   22.2390 C   0  0  0  0  0  0  0  0  0  0  0  0
    8.3880   -0.3240   21.3070 C   0  0  0  0  0  0  0  0  0  0  0  0
    7.9598   -7.5965   22.3617 C   0  0  0  0  0  0  0  0  0  0  0  0
    7.2776   -6.8369   23.4965 C   0  0  0  0  0  0  0  0  0  0  0  0
    8.1684   -6.7278   21.1138 C   0  0  0  0  0  0  0  0  0  0  0  0
    8.0535   -5.5806   23.9176 C   0  0  0  0  0  0  0  0  0  0  0  0
    8.9417   -4.4181   20.3519 C   0  0  0  0  0  0  0  0  0  0  0  0
    8.9483   -2.9188   20.6537 C   0  0  0  0  0  0  0  0  0  0  0  0
    9.3692   -3.5666   23.0470 C   0  0  0  0  0  0  0  0  0  0  0  0
    8.2433   -5.2285   21.4407 C   0  0  1  0  0  0  0  0  0  0  0  0
    8.9414   -5.0181   22.7941 C   0  0  2  0  0  0  0  0  0  0  0  0
    8.8810   -1.1900   22.4510 C   0  0  2  0  0  0  0  0  0  0  0  0
    6.7126    0.5221   17.3038 N   0  0  0  0  0  0  0  0  0  0  0  0
    7.2820   -0.7860   20.6970 N   0  0  0  0  0  0  0  0  0  0  0  0
    8.6431   -2.6374   22.1089 N   0  3  1  0  0  0  0  0  0  0  0  0
    8.9170    0.7530   21.0260 O   0  0  0  0  0  0  0  0  0  0  0  0
   13.8840   -1.8490   21.2740 Cl  0  0  0  0  0  0  0  0  0  0  0  0
    1.5274    1.3292   19.8304 H   0  0  0  0  0  0  0  0  0  0  0  0
    2.5946    0.3266   21.8291 H   0  0  0  0  0  0  0  0  0  0  0  0
   12.2249    1.2198   24.6546 H   0  0  0  0  0  0  0  0  0  0  0  0
    2.8126    1.6137   17.7451 H   0  0  0  0  0  0  0  0  0  0  0  0
    4.9337   -0.3930   21.7626 H   0  0  0  0  0  0  0  0  0  0  0  0
    9.8763    0.5350   24.3454 H   0  0  0  0  0  0  0  0  0  0  0  0
   14.0077    0.1988   23.2842 H   0  0  0  0  0  0  0  0  0  0  0  0
   11.0892   -2.3009   21.3624 H   0  0  0  0  0  0  0  0  0  0  0  0
    5.0091    1.3322   16.4920 H   0  0  0  0  0  0  0  0  0  0  0  0
    8.3044   -0.3140   18.2966 H   0  0  0  0  0  0  0  0  0  0  0  0
    8.9325   -7.9775   22.7058 H   0  0  0  0  0  0  0  0  0  0  0  0
    7.3575   -8.4779   22.0936 H   0  0  0  0  0  0  0  0  0  0  0  0
    6.2607   -6.5503   23.1904 H   0  0  0  0  0  0  0  0  0  0  0  0
    7.1642   -7.5005   24.3677 H   0  0  0  0  0  0  0  0  0  0  0  0
    9.0946   -7.0490   20.6138 H   0  0  0  0  0  0  0  0  0  0  0  0
    7.3502   -6.9150   20.4042 H   0  0  0  0  0  0  0  0  0  0  0  0
    7.3321   -4.8149   24.2411 H   0  0  0  0  0  0  0  0  0  0  0  0
    8.6699   -5.8172   24.7970 H   0  0  0  0  0  0  0  0  0  0  0  0
    8.4345   -4.5940   19.4002 H   0  0  0  0  0  0  0  0  0  0  0  0
    9.9776   -4.7377   20.2193 H   0  0  0  0  0  0  0  0  0  0  0  0
    9.9298   -2.4612   20.4365 H   0  0  0  0  0  0  0  0  0  0  0  0
    8.1906   -2.3998   20.0420 H   0  0  0  0  0  0  0  0  0  0  0  0
    9.1227   -3.2312   24.0551 H   0  0  0  0  0  0  0  0  0  0  0  0
   10.4416   -3.4557   22.8772 H   0  0  0  0  0  0  0  0  0  0  0  0
    7.2110   -4.8619   21.5463 H   0  0  0  0  0  0  0  0  0  0  0  0
    9.8589   -5.6482   22.7774 H   0  0  0  0  0  0  0  0  0  0  0  0
    8.2445   -1.0188   23.3300 H   0  0  0  0  0  0  0  0  0  0  0  0
    6.8974   -1.6551   21.0612 H   0  0  0  0  0  0  0  0  0  0  0  0
    7.6388   -2.7993   22.2305 H   0  0  0  0  0  0  0  0  0  0  0  0
  1  2  1  0  0  0  0
  1  4  2  0  0  0  0
  2  5  2  0  0  0  0
  3  6  2  0  0  0  0
  3  7  1  0  0  0  0
  4 11  1  0  0  0  0
  5 12  1  0  0  0  0
  6 13  1  0  0  0  0
  7 15  2  0  0  0  0
  8 13  2  0  0  0  0
  8 15  1  0  0  0  0
  9 11  2  0  0  0  0
  9 27  1  0  0  0  0
 10 14  1  0  0  0  0
 10 27  2  0  0  0  0
 11 12  1  0  0  0  0
 12 14  2  0  0  0  0
 13 26  1  0  0  0  0
 14 28  1  0  0  0  0
 15 31  1  0  0  0  0
 16 26  1  6  0  0  0
 16 28  1  0  0  0  0
 16 30  2  0  0  0  0
 17 18  1  0  0  0  0
 17 19  1  0  0  0  0
 18 20  1  0  0  0  0
 19 24  1  0  0  0  0
 20 25  1  1  0  0  0
 21 22  1  0  0  0  0
 21 24  1  6  0  0  0
 22 29  1  0  0  0  0
 23 25  1  0  0  0  0
 23 29  1  6  0  0  0
 24 25  1  0  0  0  0
 26 29  1  0  0  0  0
  1 32  1  0  0  0  0
  2 33  1  0  0  0  0
  3 34  1  0  0  0  0
  4 35  1  0  0  0  0
  5 36  1  0  0  0  0
  6 37  1  0  0  0  0
  7 38  1  0  0  0  0
  8 39  1  0  0  0  0
  9 40  1  0  0  0  0
 10 41  1  0  0  0  0
 17 42  1  0  0  0  0
 17 43  1  0  0  0  0
 18 44  1  0  0  0  0
 18 45  1  0  0  0  0
 19 46  1  0  0  0  0
 19 47  1  0  0  0  0
 20 48  1  0  0  0  0
 20 49  1  0  0  0  0
 21 50  1  0  0  0  0
 21 51  1  0  0  0  0
 22 52  1  0  0  0  0
 22 53  1  0  0  0  0
 23 54  1  0  0  0  0
 23 55  1  0  0  0  0
 24 56  1  0  0  0  0
 25 57  1  0  0  0  0
 26 58  1  0  0  0  0
 28 59  1  0  0  0  0
 29 60  1  0  0  0  0
M  CHG  1  29   1
M  END
> <compound>
MIC-UNK-5a93dd5f-3

> <compound_smiles>
c1ccc2c(c1)cncc2NC(=O)C(c3cccc(c3)Cl)N4CCC5CCCCC5C4

> <enantiomer_smiles>
c1ccc2c(c1)cncc2NC(=O)[C@H](c3cccc(c3)Cl)[N@]4CC[C@H]5CCCC[C@@H]5C4

> <scaffold>
chlorobenzene-linker

> <clash_score>
1.9541357338651153

> <docking_score>
-0.38816022872924805

> <overlap_score>
0.8960689902305603

> <MMFF_internal_energy>
210.59055260620065

> <docked_smiles>
c1ccc2c(c1)cncc2NC(=O)[C@H](c3cccc(c3)Cl)[N@H+]4CC[C@H]5CCCC[C@@H]5C4

$$$$
MAK-UNK-ffc90da7-9_5
  -OEChem-07262101023D

 58 61  0     1  0  0  0  0  0999 V2000
   11.9780    0.4600   23.9150 C   0  0  0  0  0  0  0  0  0  0  0  0
    4.4258   -1.1215   20.3410 C   0  0  0  0  0  0  0  0  0  0  0  0
   10.6560    0.0720   23.7350 C   0  0  0  0  0  0  0  0  0  0  0  0
    3.0521   -1.2608   20.1354 C   0  0  0  0  0  0  0  0  0  0  0  0
   12.9840   -0.1200   23.1530 C   0  0  0  0  0  0  0  0  0  0  0  0
    3.2103    0.0769   18.1314 C   0  0  0  0  0  0  0  0  0  0  0  0
   11.3360   -1.5050   22.0650 C   0  0  0  0  0  0  0  0  0  0  0  0
    5.4061    0.9528   17.4579 C   0  0  0  0  0  0  0  0  0  0  0  0
    7.2960    0.5250   18.6908 C   0  0  0  0  0  0  0  0  0  0  0  0
    5.2110   -0.3801   19.4431 C   0  0  0  0  0  0  0  0  0  0  0  0
    4.5934    0.2236   18.3283 C   0  0  0  0  0  0  0  0  0  0  0  0
    2.4457   -0.6629   19.0331 C   0  0  0  0  0  0  0  0  0  0  0  0
   10.3220   -0.8940   22.7910 C   0  0  0  0  0  0  0  0  0  0  0  0
    6.5902   -0.2221   19.6216 C   0  0  0  0  0  0  0  0  0  0  0  0
   12.6400   -1.1000   22.2390 C   0  0  0  0  0  0  0  0  0  0  0  0
    8.3880   -0.3240   21.3070 C   0  0  0  0  0  0  0  0  0  0  0  0
   -0.6447    3.1776   22.2036 C   0  0  0  0  0  0  0  0  0  0  0  0
   -0.7673    3.1156   23.7104 C   0  0  0  0  0  0  0  0  0  0  0  0
   -0.2502    1.7529   21.8744 C   0  0  1  0  0  0  0  0  0  0  0  0
    0.6741    1.3926   23.0408 C   0  0  2  0  0  0  0  0  0  0  0  0
    2.1584    1.6977   22.8687 C   0  0  0  0  0  0  0  0  0  0  0  0
    0.5870   -2.2920   18.5839 C   0  0  0  0  0  0  0  0  0  0  0  0
    8.8810   -1.1900   22.4510 C   0  0  0  0  0  0  0  0  0  0  0  0
    0.1658   -0.1958   19.9858 C   0  0  0  0  0  0  0  0  0  0  0  0
    0.9777   -0.8148   18.8176 C   0  0  2  0  0  0  0  0  0  0  0  0
    6.7392    1.1171   17.6128 N   0  0  0  0  0  0  0  0  0  0  0  0
    7.2820   -0.7860   20.6970 N   0  0  0  0  0  0  0  0  0  0  0  0
    8.9170    0.7530   21.0260 O   0  0  0  0  0  0  0  0  0  0  0  0
    0.2113    2.1725   24.1655 O   0  0  0  0  0  0  0  0  0  0  0  0
    0.4160    1.5946   20.1969 S   0  0  0  0  0  0  0  0  0  0  0  0
   13.8840   -1.8490   21.2740 Cl  0  0  0  0  0  0  0  0  0  0  0  0
   12.2249    1.2198   24.6546 H   0  0  0  0  0  0  0  0  0  0  0  0
    4.8623   -1.6035   21.2129 H   0  0  0  0  0  0  0  0  0  0  0  0
    9.8763    0.5350   24.3454 H   0  0  0  0  0  0  0  0  0  0  0  0
    2.4625   -1.8396   20.8418 H   0  0  0  0  0  0  0  0  0  0  0  0
   14.0077    0.1988   23.2842 H   0  0  0  0  0  0  0  0  0  0  0  0
    2.7291    0.5405   17.2725 H   0  0  0  0  0  0  0  0  0  0  0  0
   11.0892   -2.3009   21.3624 H   0  0  0  0  0  0  0  0  0  0  0  0
    4.9939    1.4448   16.5809 H   0  0  0  0  0  0  0  0  0  0  0  0
    8.3675    0.6770   18.7841 H   0  0  0  0  0  0  0  0  0  0  0  0
   -1.6295    3.3809   21.7771 H   0  0  0  0  0  0  0  0  0  0  0  0
    0.0357    3.9513   21.8567 H   0  0  0  0  0  0  0  0  0  0  0  0
   -0.5440    4.0808   24.1741 H   0  0  0  0  0  0  0  0  0  0  0  0
   -1.7610    2.7963   24.0342 H   0  0  0  0  0  0  0  0  0  0  0  0
   -1.1649    1.0823   21.9022 H   0  0  0  0  0  0  0  0  0  0  0  0
    0.5566    0.3609   23.3003 H   0  0  0  0  0  0  0  0  0  0  0  0
    2.3002    2.7472   22.6033 H   0  0  0  0  0  0  0  0  0  0  0  0
    2.5826    1.0766   22.0774 H   0  0  0  0  0  0  0  0  0  0  0  0
    2.6957    1.4962   23.7976 H   0  0  0  0  0  0  0  0  0  0  0  0
    0.8481   -2.8953   19.4610 H   0  0  0  0  0  0  0  0  0  0  0  0
   -0.4864   -2.4182   18.4109 H   0  0  0  0  0  0  0  0  0  0  0  0
    1.1151   -2.7138   17.7218 H   0  0  0  0  0  0  0  0  0  0  0  0
    8.7774   -2.2383   22.1732 H   0  0  0  0  0  0  0  0  0  0  0  0
    8.2557   -1.0153   23.3257 H   0  0  0  0  0  0  0  0  0  0  0  0
    0.4171   -0.6830   20.9341 H   0  0  0  0  0  0  0  0  0  0  0  0
   -0.9050   -0.3538   19.8131 H   0  0  0  0  0  0  0  0  0  0  0  0
    0.6855   -0.2721   17.8959 H   0  0  0  0  0  0  0  0  0  0  0  0
    6.8981   -1.6619   21.0675 H   0  0  0  0  0  0  0  0  0  0  0  0
  1  3  2  0  0  0  0
  1  5  1  0  0  0  0
  2  4  2  0  0  0  0
  2 10  1  0  0  0  0
  3 13  1  0  0  0  0
  4 12  1  0  0  0  0
  5 15  2  0  0  0  0
  6 11  1  0  0  0  0
  6 12  2  0  0  0  0
  7 13  2  0  0  0  0
  7 15  1  0  0  0  0
  8 11  2  0  0  0  0
  8 26  1  0  0  0  0
  9 14  1  0  0  0  0
  9 26  2  0  0  0  0
 10 11  1  0  0  0  0
 10 14  2  0  0  0  0
 12 25  1  0  0  0  0
 13 23  1  0  0  0  0
 14 27  1  0  0  0  0
 15 31  1  0  0  0  0
 16 23  1  0  0  0  0
 16 27  1  0  0  0  0
 16 28  2  0  0  0  0
 17 18  1  0  0  0  0
 17 19  1  0  0  0  0
 18 29  1  0  0  0  0
 19 20  1  0  0  0  0
 19 30  1  1  0  0  0
 20 21  1  1  0  0  0
 20 29  1  0  0  0  0
 22 25  1  6  0  0  0
 24 25  1  0  0  0  0
 24 30  1  0  0  0  0
  1 32  1  0  0  0  0
  2 33  1  0  0  0  0
  3 34  1  0  0  0  0
  4 35  1  0  0  0  0
  5 36  1  0  0  0  0
  6 37  1  0  0  0  0
  7 38  1  0  0  0  0
  8 39  1  0  0  0  0
  9 40  1  0  0  0  0
 17 41  1  0  0  0  0
 17 42  1  0  0  0  0
 18 43  1  0  0  0  0
 18 44  1  0  0  0  0
 19 45  1  0  0  0  0
 20 46  1  0  0  0  0
 21 47  1  0  0  0  0
 21 48  1  0  0  0  0
 21 49  1  0  0  0  0
 22 50  1  0  0  0  0
 22 51  1  0  0  0  0
 22 52  1  0  0  0  0
 23 53  1  0  0  0  0
 23 54  1  0  0  0  0
 24 55  1  0  0  0  0
 24 56  1  0  0  0  0
 25 57  1  0  0  0  0
 27 58  1  0  0  0  0
M  END
> <compound>
MAK-UNK-ffc90da7-9

> <compound_smiles>
CC1C(CCO1)SCC(C)c2ccc3c(c2)cncc3NC(=O)Cc4cccc(c4)Cl

> <enantiomer_smiles>
C[C@@H]1[C@@H](CCO1)SC[C@H](C)c2ccc3c(c2)cncc3NC(=O)Cc4cccc(c4)Cl

> <scaffold>
chlorobenzene-linker

> <clash_score>
11.89260447095411

> <docking_score>
3.670623302459717

> <overlap_score>
0.7693503499031067

> <MMFF_internal_energy>
131.00687073914887

> <docked_smiles>
C[C@@H]1[C@@H](CCO1)SC[C@H](C)c2ccc3c(c2)cncc3NC(=O)Cc4cccc(c4)Cl

$$$$
MIC-UNK-5a93dd5f-5_1
  -OEChem-07262101023D

 54 57  0     1  0  0  0  0  0999 V2000
    3.4588    2.5718   20.0554 C   0  0  0  0  0  0  0  0  0  0  0  0
    4.0835    2.0505   21.1859 C   0  0  0  0  0  0  0  0  0  0  0  0
   11.9780    0.4600   23.9150 C   0  0  0  0  0  0  0  0  0  0  0  0
    3.8711    2.1742   18.7837 C   0  0  0  0  0  0  0  0  0  0  0  0
    5.1234    1.1291   21.0499 C   0  0  0  0  0  0  0  0  0  0  0  0
   10.6560    0.0720   23.7350 C   0  0  0  0  0  0  0  0  0  0  0  0
   12.9840   -0.1200   23.1530 C   0  0  0  0  0  0  0  0  0  0  0  0
   11.3360   -1.5050   22.0650 C   0  0  0  0  0  0  0  0  0  0  0  0
    5.3689    0.8151   17.3870 C   0  0  0  0  0  0  0  0  0  0  0  0
    6.9552   -0.5603   18.3181 C   0  0  0  0  0  0  0  0  0  0  0  0
    4.9163    1.2476   18.6350 C   0  0  0  0  0  0  0  0  0  0  0  0
    5.5514    0.7175   19.7772 C   0  0  0  0  0  0  0  0  0  0  0  0
   10.3220   -0.8940   22.7910 C   0  0  0  0  0  0  0  0  0  0  0  0
    6.5908   -0.2044   19.6077 C   0  0  0  0  0  0  0  0  0  0  0  0
   12.6400   -1.1000   22.2390 C   0  0  0  0  0  0  0  0  0  0  0  0
    5.7986   -4.2571   25.2389 C   0  0  0  0  0  0  0  0  0  0  0  0
    8.3880   -0.3240   21.3070 C   0  0  0  0  0  0  0  0  0  0  0  0
    8.5553   -4.8156   23.0513 C   0  0  0  0  0  0  0  0  0  0  0  0
    9.4500   -3.5954   22.9518 C   0  0  0  0  0  0  0  0  0  0  0  0
    7.1853   -3.0545   22.1817 C   0  0  0  0  0  0  0  0  0  0  0  0
    7.1599   -4.2222   23.1586 C   0  0  2  0  0  0  0  0  0  0  0  0
    5.6926   -3.6696   26.6071 C   0  0  0  0  0  0  0  0  0  0  0  0
    8.8810   -1.1900   22.4510 C   0  0  1  0  0  0  0  0  0  0  0  0
    6.3708   -0.0740   17.2025 N   0  0  0  0  0  0  0  0  0  0  0  0
    7.2820   -0.7860   20.6970 N   0  0  0  0  0  0  0  0  0  0  0  0
    6.8707   -3.7857   24.5034 N   0  0  0  0  0  0  0  0  0  0  0  0
    8.6445   -2.6292   22.1109 N   0  3  1  0  0  0  0  0  0  0  0  0
    4.9708   -5.0818   24.8697 O   0  0  0  0  0  0  0  0  0  0  0  0
    8.9170    0.7530   21.0260 O   0  0  0  0  0  0  0  0  0  0  0  0
   13.8840   -1.8490   21.2740 Cl  0  0  0  0  0  0  0  0  0  0  0  0
    2.6499    3.2883   20.1641 H   0  0  0  0  0  0  0  0  0  0  0  0
    3.7607    2.3613   22.1754 H   0  0  0  0  0  0  0  0  0  0  0  0
   12.2249    1.2198   24.6546 H   0  0  0  0  0  0  0  0  0  0  0  0
    3.3723    2.5910   17.9118 H   0  0  0  0  0  0  0  0  0  0  0  0
    5.5866    0.7453   21.9560 H   0  0  0  0  0  0  0  0  0  0  0  0
    9.8763    0.5350   24.3454 H   0  0  0  0  0  0  0  0  0  0  0  0
   14.0077    0.1988   23.2842 H   0  0  0  0  0  0  0  0  0  0  0  0
   11.0892   -2.3009   21.3624 H   0  0  0  0  0  0  0  0  0  0  0  0
    4.9234    1.1835   16.4670 H   0  0  0  0  0  0  0  0  0  0  0  0
    7.7549   -1.2720   18.1337 H   0  0  0  0  0  0  0  0  0  0  0  0
    8.6380   -5.4178   22.1381 H   0  0  0  0  0  0  0  0  0  0  0  0
    8.8173   -5.4566   23.8989 H   0  0  0  0  0  0  0  0  0  0  0  0
    9.6226   -3.1372   23.9315 H   0  0  0  0  0  0  0  0  0  0  0  0
   10.3999   -3.7868   22.4453 H   0  0  0  0  0  0  0  0  0  0  0  0
    6.9111   -3.3720   21.1700 H   0  0  0  0  0  0  0  0  0  0  0  0
    6.5627   -2.2045   22.4796 H   0  0  0  0  0  0  0  0  0  0  0  0
    6.3898   -4.9520   22.8912 H   0  0  0  0  0  0  0  0  0  0  0  0
    5.0806   -2.7535   26.6251 H   0  0  0  0  0  0  0  0  0  0  0  0
    5.2114   -4.3553   27.3230 H   0  0  0  0  0  0  0  0  0  0  0  0
    6.6497   -3.3880   27.0745 H   0  0  0  0  0  0  0  0  0  0  0  0
    8.2445   -1.0188   23.3300 H   0  0  0  0  0  0  0  0  0  0  0  0
    6.8974   -1.6551   21.0612 H   0  0  0  0  0  0  0  0  0  0  0  0
    7.4852   -3.0980   24.9311 H   0  0  0  0  0  0  0  0  0  0  0  0
    8.9443   -2.7585   21.1346 H   0  0  0  0  0  0  0  0  0  0  0  0
  1  2  1  0  0  0  0
  1  4  2  0  0  0  0
  2  5  2  0  0  0  0
  3  6  2  0  0  0  0
  3  7  1  0  0  0  0
  4 11  1  0  0  0  0
  5 12  1  0  0  0  0
  6 13  1  0  0  0  0
  7 15  2  0  0  0  0
  8 13  2  0  0  0  0
  8 15  1  0  0  0  0
  9 11  2  0  0  0  0
  9 24  1  0  0  0  0
 10 14  1  0  0  0  0
 10 24  2  0  0  0  0
 11 12  1  0  0  0  0
 12 14  2  0  0  0  0
 13 23  1  0  0  0  0
 14 25  1  0  0  0  0
 15 30  1  0  0  0  0
 16 22  1  0  0  0  0
 16 26  1  0  0  0  0
 16 28  2  0  0  0  0
 17 23  1  1  0  0  0
 17 25  1  0  0  0  0
 17 29  2  0  0  0  0
 18 19  1  0  0  0  0
 18 21  1  0  0  0  0
 19 27  1  1  0  0  0
 20 21  1  0  0  0  0
 20 27  1  0  0  0  0
 21 26  1  1  0  0  0
 23 27  1  0  0  0  0
  1 31  1  0  0  0  0
  2 32  1  0  0  0  0
  3 33  1  0  0  0  0
  4 34  1  0  0  0  0
  5 35  1  0  0  0  0
  6 36  1  0  0  0  0
  7 37  1  0  0  0  0
  8 38  1  0  0  0  0
  9 39  1  0  0  0  0
 10 40  1  0  0  0  0
 18 41  1  0  0  0  0
 18 42  1  0  0  0  0
 19 43  1  0  0  0  0
 19 44  1  0  0  0  0
 20 45  1  0  0  0  0
 20 46  1  0  0  0  0
 21 47  1  0  0  0  0
 22 48  1  0  0  0  0
 22 49  1  0  0  0  0
 22 50  1  0  0  0  0
 23 51  1  0  0  0  0
 25 52  1  0  0  0  0
 26 53  1  0  0  0  0
 27 54  1  0  0  0  0
M  CHG  1  27   1
M  END
> <compound>
MIC-UNK-5a93dd5f-5

> <compound_smiles>
CC(=O)NC1CCN(C1)C(c2cccc(c2)Cl)C(=O)Nc3cncc4c3cccc4

> <enantiomer_smiles>
CC(=O)N[C@@H]1CC[N@@](C1)[C@@H](c2cccc(c2)Cl)C(=O)Nc3cncc4c3cccc4

> <scaffold>
chlorobenzene-linker

> <clash_score>
0

> <docking_score>
-9.885519027709961

> <overlap_score>
0.9806677103042603

> <MMFF_internal_energy>
190.67155843476195

> <docked_smiles>
CC(=O)N[C@@H]1CC[N@@H+](C1)[C@@H](c2cccc(c2)Cl)C(=O)Nc3cncc4c3cccc4

$$$$
MAK-UNK-ffc90da7-7_3
  -OEChem-07262101023D

 56 58  0     1  0  0  0  0  0999 V2000
    3.4585    2.5715   20.0555 C   0  0  0  0  0  0  0  0  0  0  0  0
    4.0834    2.0502   21.1860 C   0  0  0  0  0  0  0  0  0  0  0  0
   11.9780    0.4600   23.9150 C   0  0  0  0  0  0  0  0  0  0  0  0
    3.8708    2.1738   18.7838 C   0  0  0  0  0  0  0  0  0  0  0  0
    5.1233    1.1289   21.0500 C   0  0  0  0  0  0  0  0  0  0  0  0
   10.6560    0.0720   23.7350 C   0  0  0  0  0  0  0  0  0  0  0  0
   12.9840   -0.1200   23.1530 C   0  0  0  0  0  0  0  0  0  0  0  0
   11.3360   -1.5050   22.0650 C   0  0  0  0  0  0  0  0  0  0  0  0
    5.3686    0.8147   17.3871 C   0  0  0  0  0  0  0  0  0  0  0  0
    6.9550   -0.5605   18.3182 C   0  0  0  0  0  0  0  0  0  0  0  0
    4.9161    1.2473   18.6351 C   0  0  0  0  0  0  0  0  0  0  0  0
    5.5512    0.7173   19.7773 C   0  0  0  0  0  0  0  0  0  0  0  0
   10.3220   -0.8940   22.7910 C   0  0  0  0  0  0  0  0  0  0  0  0
    6.5907   -0.2046   19.6078 C   0  0  0  0  0  0  0  0  0  0  0  0
   12.6400   -1.1000   22.2390 C   0  0  0  0  0  0  0  0  0  0  0  0
    8.3880   -0.3240   21.3070 C   0  0  0  0  0  0  0  0  0  0  0  0
    7.5953   -4.5366   26.5008 C   0  0  0  0  0  0  0  0  0  0  0  0
    7.9086   -5.7361   24.3066 C   0  0  0  0  0  0  0  0  0  0  0  0
    5.5437   -1.1673   24.3678 C   0  0  0  0  0  0  0  0  0  0  0  0
    8.2233   -2.1348   24.7815 C   0  0  0  0  0  0  0  0  0  0  0  0
    8.8810   -1.1900   22.4510 C   0  0  2  0  0  0  0  0  0  0  0  0
    7.9507   -1.0790   23.7068 C   0  0  1  0  0  0  0  0  0  0  0  0
    8.1739   -4.4632   25.0960 C   0  0  0  0  0  0  0  0  0  0  0  0
    6.3706   -0.0744   17.2026 N   0  0  0  0  0  0  0  0  0  0  0  0
    7.2820   -0.7860   20.6970 N   0  0  0  0  0  0  0  0  0  0  0  0
    6.5266   -1.2658   23.2650 N   0  3  0  0  0  0  0  0  0  0  0  0
    8.9170    0.7530   21.0260 O   0  0  0  0  0  0  0  0  0  0  0  0
    7.5994   -3.3598   24.4108 O   0  0  0  0  0  0  0  0  0  0  0  0
   13.8840   -1.8490   21.2740 Cl  0  0  0  0  0  0  0  0  0  0  0  0
    2.6496    3.2879   20.1642 H   0  0  0  0  0  0  0  0  0  0  0  0
    3.7606    2.3611   22.1755 H   0  0  0  0  0  0  0  0  0  0  0  0
   12.2249    1.2198   24.6546 H   0  0  0  0  0  0  0  0  0  0  0  0
    3.3719    2.5905   17.9119 H   0  0  0  0  0  0  0  0  0  0  0  0
    5.5866    0.7452   21.9561 H   0  0  0  0  0  0  0  0  0  0  0  0
    9.8763    0.5350   24.3454 H   0  0  0  0  0  0  0  0  0  0  0  0
   14.0077    0.1988   23.2842 H   0  0  0  0  0  0  0  0  0  0  0  0
   11.0892   -2.3009   21.3624 H   0  0  0  0  0  0  0  0  0  0  0  0
    4.9230    1.1830   16.4671 H   0  0  0  0  0  0  0  0  0  0  0  0
    7.7549   -1.2722   18.1338 H   0  0  0  0  0  0  0  0  0  0  0  0
    6.5155   -4.7120   26.4769 H   0  0  0  0  0  0  0  0  0  0  0  0
    8.0690   -5.3462   27.0662 H   0  0  0  0  0  0  0  0  0  0  0  0
    7.7879   -3.6116   27.0555 H   0  0  0  0  0  0  0  0  0  0  0  0
    6.8362   -5.9402   24.2304 H   0  0  0  0  0  0  0  0  0  0  0  0
    8.3943   -6.5915   24.7883 H   0  0  0  0  0  0  0  0  0  0  0  0
    8.3247   -5.6667   23.2955 H   0  0  0  0  0  0  0  0  0  0  0  0
    5.6555   -0.1839   24.8280 H   0  0  0  0  0  0  0  0  0  0  0  0
    4.5471   -1.2892   23.9391 H   0  0  0  0  0  0  0  0  0  0  0  0
    5.7632   -1.9624   25.0830 H   0  0  0  0  0  0  0  0  0  0  0  0
    9.2970   -2.3120   24.9083 H   0  0  0  0  0  0  0  0  0  0  0  0
    7.8032   -1.8373   25.7465 H   0  0  0  0  0  0  0  0  0  0  0  0
    8.8064   -2.2541   22.1256 H   0  0  0  0  0  0  0  0  0  0  0  0
    7.9795   -0.0738   24.1426 H   0  0  0  0  0  0  0  0  0  0  0  0
    9.2530   -4.2874   25.1540 H   0  0  0  0  0  0  0  0  0  0  0  0
    6.8975   -1.6550   21.0612 H   0  0  0  0  0  0  0  0  0  0  0  0
    6.4489   -2.1798   22.8095 H   0  0  0  0  0  0  0  0  0  0  0  0
    6.3177   -0.5644   22.5485 H   0  0  0  0  0  0  0  0  0  0  0  0
  1  2  1  0  0  0  0
  1  4  2  0  0  0  0
  2  5  2  0  0  0  0
  3  6  2  0  0  0  0
  3  7  1  0  0  0  0
  4 11  1  0  0  0  0
  5 12  1  0  0  0  0
  6 13  1  0  0  0  0
  7 15  2  0  0  0  0
  8 13  2  0  0  0  0
  8 15  1  0  0  0  0
  9 11  2  0  0  0  0
  9 24  1  0  0  0  0
 10 14  1  0  0  0  0
 10 24  2  0  0  0  0
 11 12  1  0  0  0  0
 12 14  2  0  0  0  0
 13 21  1  0  0  0  0
 14 25  1  0  0  0  0
 15 29  1  0  0  0  0
 16 21  1  6  0  0  0
 16 25  1  0  0  0  0
 16 27  2  0  0  0  0
 17 23  1  0  0  0  0
 18 23  1  0  0  0  0
 19 26  1  0  0  0  0
 20 22  1  1  0  0  0
 20 28  1  0  0  0  0
 21 22  1  0  0  0  0
 22 26  1  0  0  0  0
 23 28  1  0  0  0  0
  1 30  1  0  0  0  0
  2 31  1  0  0  0  0
  3 32  1  0  0  0  0
  4 33  1  0  0  0  0
  5 34  1  0  0  0  0
  6 35  1  0  0  0  0
  7 36  1  0  0  0  0
  8 37  1  0  0  0  0
  9 38  1  0  0  0  0
 10 39  1  0  0  0  0
 17 40  1  0  0  0  0
 17 41  1  0  0  0  0
 17 42  1  0  0  0  0
 18 43  1  0  0  0  0
 18 44  1  0  0  0  0
 18 45  1  0  0  0  0
 19 46  1  0  0  0  0
 19 47  1  0  0  0  0
 19 48  1  0  0  0  0
 20 49  1  0  0  0  0
 20 50  1  0  0  0  0
 21 51  1  0  0  0  0
 22 52  1  0  0  0  0
 23 53  1  0  0  0  0
 25 54  1  0  0  0  0
 26 55  1  0  0  0  0
 26 56  1  0  0  0  0
M  CHG  1  26   1
M  END
> <compound>
MAK-UNK-ffc90da7-7

> <compound_smiles>
CC(C)OCC(C(c1cccc(c1)Cl)C(=O)Nc2cncc3c2cccc3)NC

> <enantiomer_smiles>
CC(C)OC[C@@H]([C@H](c1cccc(c1)Cl)C(=O)Nc2cncc3c2cccc3)NC

> <scaffold>
chlorobenzene-linker

> <clash_score>
0

> <docking_score>
-11.904472351074219

> <overlap_score>
0.9826750159263611

> <MMFF_internal_energy>
171.30291634018613

> <docked_smiles>
CC(C)OC[C@@H]([C@H](c1cccc(c1)Cl)C(=O)Nc2cncc3c2cccc3)[NH2+]C

$$$$
MAK-UNK-ffc90da7-7_4
  -OEChem-07262101023D

 56 58  0     1  0  0  0  0  0999 V2000
    3.4586    2.5715   20.0555 C   0  0  0  0  0  0  0  0  0  0  0  0
    4.0834    2.0502   21.1860 C   0  0  0  0  0  0  0  0  0  0  0  0
   11.9780    0.4600   23.9150 C   0  0  0  0  0  0  0  0  0  0  0  0
    3.8708    2.1738   18.7838 C   0  0  0  0  0  0  0  0  0  0  0  0
    5.1233    1.1290   21.0500 C   0  0  0  0  0  0  0  0  0  0  0  0
   10.6560    0.0720   23.7350 C   0  0  0  0  0  0  0  0  0  0  0  0
   12.9840   -0.1200   23.1530 C   0  0  0  0  0  0  0  0  0  0  0  0
   11.3360   -1.5050   22.0650 C   0  0  0  0  0  0  0  0  0  0  0  0
    5.3686    0.8147   17.3871 C   0  0  0  0  0  0  0  0  0  0  0  0
    6.9550   -0.5605   18.3182 C   0  0  0  0  0  0  0  0  0  0  0  0
    4.9161    1.2473   18.6351 C   0  0  0  0  0  0  0  0  0  0  0  0
    5.5512    0.7173   19.7773 C   0  0  0  0  0  0  0  0  0  0  0  0
   10.3220   -0.8940   22.7910 C   0  0  0  0  0  0  0  0  0  0  0  0
    6.5907   -0.2046   19.6078 C   0  0  0  0  0  0  0  0  0  0  0  0
   12.6400   -1.1000   22.2390 C   0  0  0  0  0  0  0  0  0  0  0  0
    8.3880   -0.3240   21.3070 C   0  0  0  0  0  0  0  0  0  0  0  0
    4.1429   -0.1834   24.7887 C   0  0  0  0  0  0  0  0  0  0  0  0
    5.3415   -0.9466   26.8702 C   0  0  0  0  0  0  0  0  0  0  0  0
    8.5596   -3.4063   24.3785 C   0  0  0  0  0  0  0  0  0  0  0  0
    6.5045   -1.5183   23.4622 C   0  0  0  0  0  0  0  0  0  0  0  0
    8.8810   -1.1900   22.4510 C   0  0  2  0  0  0  0  0  0  0  0  0
    7.9507   -1.0790   23.7068 C   0  0  2  0  0  0  0  0  0  0  0  0
    5.4622   -0.6531   25.3826 C   0  0  0  0  0  0  0  0  0  0  0  0
    6.3706   -0.0744   17.2026 N   0  0  0  0  0  0  0  0  0  0  0  0
    7.2820   -0.7860   20.6970 N   0  0  0  0  0  0  0  0  0  0  0  0
    8.5050   -1.9805   24.7735 N   0  3  0  0  0  0  0  0  0  0  0  0
    8.9170    0.7530   21.0260 O   0  0  0  0  0  0  0  0  0  0  0  0
    5.8869   -1.8280   24.7071 O   0  0  0  0  0  0  0  0  0  0  0  0
   13.8840   -1.8490   21.2740 Cl  0  0  0  0  0  0  0  0  0  0  0  0
    2.6496    3.2879   20.1642 H   0  0  0  0  0  0  0  0  0  0  0  0
    3.7606    2.3611   22.1755 H   0  0  0  0  0  0  0  0  0  0  0  0
   12.2249    1.2198   24.6546 H   0  0  0  0  0  0  0  0  0  0  0  0
    3.3719    2.5905   17.9119 H   0  0  0  0  0  0  0  0  0  0  0  0
    5.5866    0.7452   21.9561 H   0  0  0  0  0  0  0  0  0  0  0  0
    9.8763    0.5350   24.3454 H   0  0  0  0  0  0  0  0  0  0  0  0
   14.0077    0.1988   23.2842 H   0  0  0  0  0  0  0  0  0  0  0  0
   11.0892   -2.3009   21.3624 H   0  0  0  0  0  0  0  0  0  0  0  0
    4.9230    1.1830   16.4671 H   0  0  0  0  0  0  0  0  0  0  0  0
    7.7549   -1.2722   18.1338 H   0  0  0  0  0  0  0  0  0  0  0  0
    3.3547   -0.9286   24.9331 H   0  0  0  0  0  0  0  0  0  0  0  0
    3.8272    0.7553   25.2566 H   0  0  0  0  0  0  0  0  0  0  0  0
    4.2425    0.0181   23.7164 H   0  0  0  0  0  0  0  0  0  0  0  0
    4.5819   -1.7099   27.0643 H   0  0  0  0  0  0  0  0  0  0  0  0
    5.0716   -0.0371   27.4175 H   0  0  0  0  0  0  0  0  0  0  0  0
    6.2966   -1.2900   27.2829 H   0  0  0  0  0  0  0  0  0  0  0  0
    9.1778   -3.4810   23.4820 H   0  0  0  0  0  0  0  0  0  0  0  0
    8.9993   -3.9658   25.2064 H   0  0  0  0  0  0  0  0  0  0  0  0
    7.5385   -3.7372   24.1796 H   0  0  0  0  0  0  0  0  0  0  0  0
    5.9233   -0.7320   22.9680 H   0  0  0  0  0  0  0  0  0  0  0  0
    6.4622   -2.4215   22.8468 H   0  0  0  0  0  0  0  0  0  0  0  0
    8.8064   -2.2541   22.1256 H   0  0  0  0  0  0  0  0  0  0  0  0
    7.9760   -0.0753   24.1463 H   0  0  0  0  0  0  0  0  0  0  0  0
    6.2283    0.1125   25.2221 H   0  0  0  0  0  0  0  0  0  0  0  0
    6.8975   -1.6550   21.0612 H   0  0  0  0  0  0  0  0  0  0  0  0
    7.9307   -1.8737   25.6148 H   0  0  0  0  0  0  0  0  0  0  0  0
    9.4434   -1.6504   25.0176 H   0  0  0  0  0  0  0  0  0  0  0  0
  1  2  1  0  0  0  0
  1  4  2  0  0  0  0
  2  5  2  0  0  0  0
  3  6  2  0  0  0  0
  3  7  1  0  0  0  0
  4 11  1  0  0  0  0
  5 12  1  0  0  0  0
  6 13  1  0  0  0  0
  7 15  2  0  0  0  0
  8 13  2  0  0  0  0
  8 15  1  0  0  0  0
  9 11  2  0  0  0  0
  9 24  1  0  0  0  0
 10 14  1  0  0  0  0
 10 24  2  0  0  0  0
 11 12  1  0  0  0  0
 12 14  2  0  0  0  0
 13 21  1  0  0  0  0
 14 25  1  0  0  0  0
 15 29  1  0  0  0  0
 16 21  1  6  0  0  0
 16 25  1  0  0  0  0
 16 27  2  0  0  0  0
 17 23  1  0  0  0  0
 18 23  1  0  0  0  0
 19 26  1  0  0  0  0
 20 22  1  6  0  0  0
 20 28  1  0  0  0  0
 21 22  1  0  0  0  0
 22 26  1  0  0  0  0
 23 28  1  0  0  0  0
  1 30  1  0  0  0  0
  2 31  1  0  0  0  0
  3 32  1  0  0  0  0
  4 33  1  0  0  0  0
  5 34  1  0  0  0  0
  6 35  1  0  0  0  0
  7 36  1  0  0  0  0
  8 37  1  0  0  0  0
  9 38  1  0  0  0  0
 10 39  1  0  0  0  0
 17 40  1  0  0  0  0
 17 41  1  0  0  0  0
 17 42  1  0  0  0  0
 18 43  1  0  0  0  0
 18 44  1  0  0  0  0
 18 45  1  0  0  0  0
 19 46  1  0  0  0  0
 19 47  1  0  0  0  0
 19 48  1  0  0  0  0
 20 49  1  0  0  0  0
 20 50  1  0  0  0  0
 21 51  1  0  0  0  0
 22 52  1  0  0  0  0
 23 53  1  0  0  0  0
 25 54  1  0  0  0  0
 26 55  1  0  0  0  0
 26 56  1  0  0  0  0
M  CHG  1  26   1
M  END
> <compound>
MAK-UNK-ffc90da7-7

> <compound_smiles>
CC(C)OCC(C(c1cccc(c1)Cl)C(=O)Nc2cncc3c2cccc3)NC

> <enantiomer_smiles>
CC(C)OC[C@H]([C@H](c1cccc(c1)Cl)C(=O)Nc2cncc3c2cccc3)NC

> <scaffold>
chlorobenzene-linker

> <clash_score>
0

> <docking_score>
-10.912593841552734

> <overlap_score>
0.9826803803443909

> <MMFF_internal_energy>
165.43831284048446

> <docked_smiles>
CC(C)OC[C@H]([C@H](c1cccc(c1)Cl)C(=O)Nc2cncc3c2cccc3)[NH2+]C

$$$$
MIC-UNK-5a93dd5f-5_3
  -OEChem-07262101023D

 54 57  0     1  0  0  0  0  0999 V2000
    3.4588    2.5718   20.0554 C   0  0  0  0  0  0  0  0  0  0  0  0
    4.0835    2.0505   21.1859 C   0  0  0  0  0  0  0  0  0  0  0  0
   11.9780    0.4600   23.9150 C   0  0  0  0  0  0  0  0  0  0  0  0
    3.8710    2.1742   18.7837 C   0  0  0  0  0  0  0  0  0  0  0  0
    5.1234    1.1291   21.0499 C   0  0  0  0  0  0  0  0  0  0  0  0
   10.6560    0.0720   23.7350 C   0  0  0  0  0  0  0  0  0  0  0  0
   12.9840   -0.1200   23.1530 C   0  0  0  0  0  0  0  0  0  0  0  0
   11.3360   -1.5050   22.0650 C   0  0  0  0  0  0  0  0  0  0  0  0
    5.3689    0.8151   17.3870 C   0  0  0  0  0  0  0  0  0  0  0  0
    6.9552   -0.5603   18.3181 C   0  0  0  0  0  0  0  0  0  0  0  0
    4.9163    1.2476   18.6351 C   0  0  0  0  0  0  0  0  0  0  0  0
    5.5514    0.7175   19.7772 C   0  0  0  0  0  0  0  0  0  0  0  0
   10.3220   -0.8940   22.7910 C   0  0  0  0  0  0  0  0  0  0  0  0
    6.5908   -0.2044   19.6077 C   0  0  0  0  0  0  0  0  0  0  0  0
   12.6400   -1.1000   22.2390 C   0  0  0  0  0  0  0  0  0  0  0  0
    8.5684   -7.0176   21.7589 C   0  0  0  0  0  0  0  0  0  0  0  0
    8.3880   -0.3240   21.3070 C   0  0  0  0  0  0  0  0  0  0  0  0
    7.1884   -4.2853   23.0852 C   0  0  0  0  0  0  0  0  0  0  0  0
    7.1919   -3.0595   22.1840 C   0  0  0  0  0  0  0  0  0  0  0  0
    9.4541   -3.5982   22.9490 C   0  0  0  0  0  0  0  0  0  0  0  0
    8.5954   -4.8500   22.9769 C   0  0  2  0  0  0  0  0  0  0  0  0
    8.7941   -7.6384   20.4203 C   0  0  0  0  0  0  0  0  0  0  0  0
    8.8810   -1.1900   22.4510 C   0  0  1  0  0  0  0  0  0  0  0  0
    6.3708   -0.0740   17.2025 N   0  0  0  0  0  0  0  0  0  0  0  0
    7.2820   -0.7860   20.6970 N   0  0  0  0  0  0  0  0  0  0  0  0
    8.7620   -5.6479   21.7872 N   0  0  0  0  0  0  0  0  0  0  0  0
    8.6446   -2.6284   22.1111 N   0  3  2  0  0  0  0  0  0  0  0  0
    8.2399   -7.7239   22.7049 O   0  0  0  0  0  0  0  0  0  0  0  0
    8.9170    0.7530   21.0260 O   0  0  0  0  0  0  0  0  0  0  0  0
   13.8840   -1.8490   21.2740 Cl  0  0  0  0  0  0  0  0  0  0  0  0
    2.6499    3.2883   20.1641 H   0  0  0  0  0  0  0  0  0  0  0  0
    3.7607    2.3613   22.1754 H   0  0  0  0  0  0  0  0  0  0  0  0
   12.2249    1.2198   24.6546 H   0  0  0  0  0  0  0  0  0  0  0  0
    3.3723    2.5910   17.9118 H   0  0  0  0  0  0  0  0  0  0  0  0
    5.5866    0.7453   21.9560 H   0  0  0  0  0  0  0  0  0  0  0  0
    9.8763    0.5350   24.3454 H   0  0  0  0  0  0  0  0  0  0  0  0
   14.0077    0.1988   23.2842 H   0  0  0  0  0  0  0  0  0  0  0  0
   11.0892   -2.3009   21.3624 H   0  0  0  0  0  0  0  0  0  0  0  0
    4.9234    1.1835   16.4670 H   0  0  0  0  0  0  0  0  0  0  0  0
    7.7549   -1.2720   18.1337 H   0  0  0  0  0  0  0  0  0  0  0  0
    6.9943   -3.9784   24.1206 H   0  0  0  0  0  0  0  0  0  0  0  0
    6.4128   -5.0048   22.8042 H   0  0  0  0  0  0  0  0  0  0  0  0
    6.8832   -3.2968   21.1610 H   0  0  0  0  0  0  0  0  0  0  0  0
    6.5816   -2.2432   22.5821 H   0  0  0  0  0  0  0  0  0  0  0  0
    9.5583   -3.1677   23.9514 H   0  0  0  0  0  0  0  0  0  0  0  0
   10.4374   -3.7240   22.4862 H   0  0  0  0  0  0  0  0  0  0  0  0
    8.8421   -5.4906   23.8291 H   0  0  0  0  0  0  0  0  0  0  0  0
    9.8390   -7.9568   20.2753 H   0  0  0  0  0  0  0  0  0  0  0  0
    8.1895   -8.5474   20.2710 H   0  0  0  0  0  0  0  0  0  0  0  0
    8.5653   -6.9934   19.5570 H   0  0  0  0  0  0  0  0  0  0  0  0
    8.2445   -1.0188   23.3300 H   0  0  0  0  0  0  0  0  0  0  0  0
    6.8974   -1.6551   21.0612 H   0  0  0  0  0  0  0  0  0  0  0  0
    9.0353   -5.1806   20.9262 H   0  0  0  0  0  0  0  0  0  0  0  0
    8.9444   -2.7577   21.1349 H   0  0  0  0  0  0  0  0  0  0  0  0
  1  2  1  0  0  0  0
  1  4  2  0  0  0  0
  2  5  2  0  0  0  0
  3  6  2  0  0  0  0
  3  7  1  0  0  0  0
  4 11  1  0  0  0  0
  5 12  1  0  0  0  0
  6 13  1  0  0  0  0
  7 15  2  0  0  0  0
  8 13  2  0  0  0  0
  8 15  1  0  0  0  0
  9 11  2  0  0  0  0
  9 24  1  0  0  0  0
 10 14  1  0  0  0  0
 10 24  2  0  0  0  0
 11 12  1  0  0  0  0
 12 14  2  0  0  0  0
 13 23  1  0  0  0  0
 14 25  1  0  0  0  0
 15 30  1  0  0  0  0
 16 22  1  0  0  0  0
 16 26  1  0  0  0  0
 16 28  2  0  0  0  0
 17 23  1  1  0  0  0
 17 25  1  0  0  0  0
 17 29  2  0  0  0  0
 18 19  1  0  0  0  0
 18 21  1  0  0  0  0
 19 27  1  6  0  0  0
 20 21  1  0  0  0  0
 20 27  1  0  0  0  0
 21 26  1  1  0  0  0
 23 27  1  0  0  0  0
  1 31  1  0  0  0  0
  2 32  1  0  0  0  0
  3 33  1  0  0  0  0
  4 34  1  0  0  0  0
  5 35  1  0  0  0  0
  6 36  1  0  0  0  0
  7 37  1  0  0  0  0
  8 38  1  0  0  0  0
  9 39  1  0  0  0  0
 10 40  1  0  0  0  0
 18 41  1  0  0  0  0
 18 42  1  0  0  0  0
 19 43  1  0  0  0  0
 19 44  1  0  0  0  0
 20 45  1  0  0  0  0
 20 46  1  0  0  0  0
 21 47  1  0  0  0  0
 22 48  1  0  0  0  0
 22 49  1  0  0  0  0
 22 50  1  0  0  0  0
 23 51  1  0  0  0  0
 25 52  1  0  0  0  0
 26 53  1  0  0  0  0
 27 54  1  0  0  0  0
M  CHG  1  27   1
M  END
> <compound>
MIC-UNK-5a93dd5f-5

> <compound_smiles>
CC(=O)NC1CCN(C1)C(c2cccc(c2)Cl)C(=O)Nc3cncc4c3cccc4

> <enantiomer_smiles>
CC(=O)N[C@@H]1CC[N@](C1)[C@@H](c2cccc(c2)Cl)C(=O)Nc3cncc4c3cccc4

> <scaffold>
chlorobenzene-linker

> <clash_score>
1.5074415828604586

> <docking_score>
-5.360121726989746

> <overlap_score>
0.9805843830108643

> <MMFF_internal_energy>
189.2189152941653

> <docked_smiles>
CC(=O)N[C@@H]1CC[N@H+](C1)[C@@H](c2cccc(c2)Cl)C(=O)Nc3cncc4c3cccc4

$$$$
MAK-UNK-ffc90da7-4_3
  -OEChem-07262101023D

 60 63  0     1  0  0  0  0  0999 V2000
    3.4829    2.5990   20.0546 C   0  0  0  0  0  0  0  0  0  0  0  0
    4.1078    2.0778   21.1851 C   0  0  0  0  0  0  0  0  0  0  0  0
   11.9780    0.4600   23.9150 C   0  0  0  0  0  0  0  0  0  0  0  0
    3.8872    2.1924   18.7832 C   0  0  0  0  0  0  0  0  0  0  0  0
    5.1399    1.1477   21.0494 C   0  0  0  0  0  0  0  0  0  0  0  0
   10.6560    0.0720   23.7350 C   0  0  0  0  0  0  0  0  0  0  0  0
   12.9840   -0.1200   23.1530 C   0  0  0  0  0  0  0  0  0  0  0  0
   11.3360   -1.5050   22.0650 C   0  0  0  0  0  0  0  0  0  0  0  0
    5.3690    0.8152   17.3870 C   0  0  0  0  0  0  0  0  0  0  0  0
    6.9479   -0.5684   18.3183 C   0  0  0  0  0  0  0  0  0  0  0  0
    4.9246    1.2569   18.6348 C   0  0  0  0  0  0  0  0  0  0  0  0
    5.5597    0.7270   19.7769 C   0  0  0  0  0  0  0  0  0  0  0  0
   10.3220   -0.8940   22.7910 C   0  0  0  0  0  0  0  0  0  0  0  0
    6.5912   -0.2039   19.6077 C   0  0  0  0  0  0  0  0  0  0  0  0
   12.6400   -1.1000   22.2390 C   0  0  0  0  0  0  0  0  0  0  0  0
    8.3880   -0.3240   21.3070 C   0  0  0  0  0  0  0  0  0  0  0  0
    7.2632   -5.4223   28.4076 C   0  0  0  0  0  0  0  0  0  0  0  0
    7.3853   -5.2085   26.9198 C   0  0  0  0  0  0  0  0  0  0  0  0
    8.7090   -5.6065   28.8170 C   0  0  0  0  0  0  0  0  0  0  0  0
    8.6549   -4.3789   26.8366 C   0  0  1  0  0  0  0  0  0  0  0  0
    8.9867   -3.1058   20.7212 C   0  0  0  0  0  0  0  0  0  0  0  0
    9.3765   -4.5086   25.5094 C   0  0  0  0  0  0  0  0  0  0  0  0
    9.3341   -3.6650   23.1588 C   0  0  0  0  0  0  0  0  0  0  0  0
    8.8810   -1.1900   22.4510 C   0  0  1  0  0  0  0  0  0  0  0  0
    8.6228   -2.7224   22.1659 C   0  0  1  0  0  0  0  0  0  0  0  0
    6.3631   -0.0826   17.2027 N   0  0  0  0  0  0  0  0  0  0  0  0
    7.2820   -0.7860   20.6970 N   0  0  0  0  0  0  0  0  0  0  0  0
    8.6840   -3.6720   24.4909 N   0  3  0  0  0  0  0  0  0  0  0  0
    8.9170    0.7530   21.0260 O   0  0  0  0  0  0  0  0  0  0  0  0
    9.5044   -4.8391   27.9011 O   0  0  0  0  0  0  0  0  0  0  0  0
   13.8840   -1.8490   21.2740 Cl  0  0  0  0  0  0  0  0  0  0  0  0
    2.6801    3.3223   20.1631 H   0  0  0  0  0  0  0  0  0  0  0  0
    3.7912    2.3956   22.1744 H   0  0  0  0  0  0  0  0  0  0  0  0
   12.2249    1.2198   24.6546 H   0  0  0  0  0  0  0  0  0  0  0  0
    3.3884    2.6092   17.9112 H   0  0  0  0  0  0  0  0  0  0  0  0
    5.6035    0.7643   21.9554 H   0  0  0  0  0  0  0  0  0  0  0  0
    9.8763    0.5350   24.3454 H   0  0  0  0  0  0  0  0  0  0  0  0
   14.0077    0.1988   23.2842 H   0  0  0  0  0  0  0  0  0  0  0  0
   11.0892   -2.3009   21.3624 H   0  0  0  0  0  0  0  0  0  0  0  0
    4.9229    1.1830   16.4670 H   0  0  0  0  0  0  0  0  0  0  0  0
    7.7413   -1.2873   18.1342 H   0  0  0  0  0  0  0  0  0  0  0  0
    6.8519   -4.5226   28.8804 H   0  0  0  0  0  0  0  0  0  0  0  0
    6.6307   -6.2711   28.6804 H   0  0  0  0  0  0  0  0  0  0  0  0
    7.5128   -6.1757   26.4187 H   0  0  0  0  0  0  0  0  0  0  0  0
    6.5192   -4.7058   26.4805 H   0  0  0  0  0  0  0  0  0  0  0  0
    8.9012   -5.2736   29.8408 H   0  0  0  0  0  0  0  0  0  0  0  0
    9.0158   -6.6540   28.7267 H   0  0  0  0  0  0  0  0  0  0  0  0
    8.4325   -3.3234   27.0331 H   0  0  0  0  0  0  0  0  0  0  0  0
   10.0518   -2.9366   20.5298 H   0  0  0  0  0  0  0  0  0  0  0  0
    8.7924   -4.1661   20.5309 H   0  0  0  0  0  0  0  0  0  0  0  0
    8.4130   -2.5252   19.9915 H   0  0  0  0  0  0  0  0  0  0  0  0
    9.3646   -5.5382   25.1414 H   0  0  0  0  0  0  0  0  0  0  0  0
   10.4075   -4.1496   25.5729 H   0  0  0  0  0  0  0  0  0  0  0  0
    9.3422   -4.7018   22.8116 H   0  0  0  0  0  0  0  0  0  0  0  0
   10.3711   -3.3535   23.3222 H   0  0  0  0  0  0  0  0  0  0  0  0
    8.2678   -0.9572   23.3517 H   0  0  0  0  0  0  0  0  0  0  0  0
    7.5483   -2.9169   22.2847 H   0  0  0  0  0  0  0  0  0  0  0  0
    6.8771   -1.6492   21.0526 H   0  0  0  0  0  0  0  0  0  0  0  0
    7.7116   -4.0001   24.3947 H   0  0  0  0  0  0  0  0  0  0  0  0
    8.6161   -2.7056   24.8432 H   0  0  0  0  0  0  0  0  0  0  0  0
  1  2  1  0  0  0  0
  1  4  2  0  0  0  0
  2  5  2  0  0  0  0
  3  6  2  0  0  0  0
  3  7  1  0  0  0  0
  4 11  1  0  0  0  0
  5 12  1  0  0  0  0
  6 13  1  0  0  0  0
  7 15  2  0  0  0  0
  8 13  2  0  0  0  0
  8 15  1  0  0  0  0
  9 11  2  0  0  0  0
  9 26  1  0  0  0  0
 10 14  1  0  0  0  0
 10 26  2  0  0  0  0
 11 12  1  0  0  0  0
 12 14  2  0  0  0  0
 13 24  1  0  0  0  0
 14 27  1  0  0  0  0
 15 31  1  0  0  0  0
 16 24  1  1  0  0  0
 16 27  1  0  0  0  0
 16 29  2  0  0  0  0
 17 18  1  0  0  0  0
 17 19  1  0  0  0  0
 18 20  1  0  0  0  0
 19 30  1  0  0  0  0
 20 22  1  6  0  0  0
 20 30  1  0  0  0  0
 21 25  1  1  0  0  0
 22 28  1  0  0  0  0
 23 25  1  0  0  0  0
 23 28  1  0  0  0  0
 24 25  1  0  0  0  0
  1 32  1  0  0  0  0
  2 33  1  0  0  0  0
  3 34  1  0  0  0  0
  4 35  1  0  0  0  0
  5 36  1  0  0  0  0
  6 37  1  0  0  0  0
  7 38  1  0  0  0  0
  8 39  1  0  0  0  0
  9 40  1  0  0  0  0
 10 41  1  0  0  0  0
 17 42  1  0  0  0  0
 17 43  1  0  0  0  0
 18 44  1  0  0  0  0
 18 45  1  0  0  0  0
 19 46  1  0  0  0  0
 19 47  1  0  0  0  0
 20 48  1  0  0  0  0
 21 49  1  0  0  0  0
 21 50  1  0  0  0  0
 21 51  1  0  0  0  0
 22 52  1  0  0  0  0
 22 53  1  0  0  0  0
 23 54  1  0  0  0  0
 23 55  1  0  0  0  0
 24 56  1  0  0  0  0
 25 57  1  0  0  0  0
 27 58  1  0  0  0  0
 28 59  1  0  0  0  0
 28 60  1  0  0  0  0
M  CHG  1  28   1
M  END
> <compound>
MAK-UNK-ffc90da7-4

> <compound_smiles>
CC(CNCC1CCCO1)C(c2cccc(c2)Cl)C(=O)Nc3cncc4c3cccc4

> <enantiomer_smiles>
C[C@@H](CNC[C@H]1CCCO1)[C@@H](c2cccc(c2)Cl)C(=O)Nc3cncc4c3cccc4

> <scaffold>
chlorobenzene-linker

> <clash_score>
0.6134321558014565

> <docking_score>
-10.34090518951416

> <overlap_score>
0.9762653112411499

> <MMFF_internal_energy>
177.81371148524863

> <docked_smiles>
C[C@@H](C[NH2+]C[C@H]1CCCO1)[C@@H](c2cccc(c2)Cl)C(=O)Nc3cncc4c3cccc4

$$$$
MIC-UNK-5a93dd5f-3_7
  -OEChem-07262101023D

 60 64  0     1  0  0  0  0  0999 V2000
    3.4588    2.5718   20.0554 C   0  0  0  0  0  0  0  0  0  0  0  0
    4.0835    2.0505   21.1859 C   0  0  0  0  0  0  0  0  0  0  0  0
   11.9780    0.4600   23.9150 C   0  0  0  0  0  0  0  0  0  0  0  0
    3.8711    2.1742   18.7837 C   0  0  0  0  0  0  0  0  0  0  0  0
    5.1234    1.1291   21.0499 C   0  0  0  0  0  0  0  0  0  0  0  0
   10.6560    0.0720   23.7350 C   0  0  0  0  0  0  0  0  0  0  0  0
   12.9840   -0.1200   23.1530 C   0  0  0  0  0  0  0  0  0  0  0  0
   11.3360   -1.5050   22.0650 C   0  0  0  0  0  0  0  0  0  0  0  0
    5.3689    0.8151   17.3870 C   0  0  0  0  0  0  0  0  0  0  0  0
    6.9552   -0.5603   18.3181 C   0  0  0  0  0  0  0  0  0  0  0  0
    4.9163    1.2476   18.6351 C   0  0  0  0  0  0  0  0  0  0  0  0
    5.5514    0.7175   19.7772 C   0  0  0  0  0  0  0  0  0  0  0  0
   10.3220   -0.8940   22.7910 C   0  0  0  0  0  0  0  0  0  0  0  0
    6.5908   -0.2044   19.6077 C   0  0  0  0  0  0  0  0  0  0  0  0
   12.6400   -1.1000   22.2390 C   0  0  0  0  0  0  0  0  0  0  0  0
    8.3880   -0.3240   21.3070 C   0  0  0  0  0  0  0  0  0  0  0  0
    4.7760    0.7824   27.2058 C   0  0  0  0  0  0  0  0  0  0  0  0
    5.4160    2.0483   26.6469 C   0  0  0  0  0  0  0  0  0  0  0  0
    5.7701   -0.3742   27.2411 C   0  0  0  0  0  0  0  0  0  0  0  0
    6.0096    1.8085   25.2620 C   0  0  0  0  0  0  0  0  0  0  0  0
    7.4419   -1.7584   25.9425 C   0  0  0  0  0  0  0  0  0  0  0  0
    8.5333   -1.6579   24.8804 C   0  0  0  0  0  0  0  0  0  0  0  0
    7.5359    0.3985   23.8360 C   0  0  0  0  0  0  0  0  0  0  0  0
    6.3919   -0.6350   25.8622 C   0  0  1  0  0  0  0  0  0  0  0  0
    7.0044    0.6389   25.2580 C   0  0  2  0  0  0  0  0  0  0  0  0
    8.8810   -1.1900   22.4510 C   0  0  1  0  0  0  0  0  0  0  0  0
    6.3708   -0.0740   17.2025 N   0  0  0  0  0  0  0  0  0  0  0  0
    7.2820   -0.7860   20.6970 N   0  0  0  0  0  0  0  0  0  0  0  0
    7.9644   -1.0392   23.6357 N   0  3  1  0  0  0  0  0  0  0  0  0
    8.9170    0.7530   21.0260 O   0  0  0  0  0  0  0  0  0  0  0  0
   13.8840   -1.8490   21.2740 Cl  0  0  0  0  0  0  0  0  0  0  0  0
    2.6499    3.2883   20.1641 H   0  0  0  0  0  0  0  0  0  0  0  0
    3.7607    2.3613   22.1754 H   0  0  0  0  0  0  0  0  0  0  0  0
   12.2249    1.2198   24.6546 H   0  0  0  0  0  0  0  0  0  0  0  0
    3.3723    2.5910   17.9118 H   0  0  0  0  0  0  0  0  0  0  0  0
    5.5866    0.7453   21.9560 H   0  0  0  0  0  0  0  0  0  0  0  0
    9.8763    0.5350   24.3454 H   0  0  0  0  0  0  0  0  0  0  0  0
   14.0077    0.1988   23.2842 H   0  0  0  0  0  0  0  0  0  0  0  0
   11.0892   -2.3009   21.3624 H   0  0  0  0  0  0  0  0  0  0  0  0
    4.9234    1.1835   16.4670 H   0  0  0  0  0  0  0  0  0  0  0  0
    7.7549   -1.2720   18.1337 H   0  0  0  0  0  0  0  0  0  0  0  0
    4.4007    0.9757   28.2171 H   0  0  0  0  0  0  0  0  0  0  0  0
    3.9113    0.5048   26.5908 H   0  0  0  0  0  0  0  0  0  0  0  0
    4.6677    2.8471   26.5934 H   0  0  0  0  0  0  0  0  0  0  0  0
    6.2037    2.3930   27.3280 H   0  0  0  0  0  0  0  0  0  0  0  0
    6.5588   -0.1424   27.9687 H   0  0  0  0  0  0  0  0  0  0  0  0
    5.2641   -1.2789   27.5985 H   0  0  0  0  0  0  0  0  0  0  0  0
    5.1938    1.6055   24.5563 H   0  0  0  0  0  0  0  0  0  0  0  0
    6.5077    2.7223   24.9167 H   0  0  0  0  0  0  0  0  0  0  0  0
    6.9250   -2.7219   25.8469 H   0  0  0  0  0  0  0  0  0  0  0  0
    7.9269   -1.7711   26.9263 H   0  0  0  0  0  0  0  0  0  0  0  0
    9.3671   -1.0270   25.2090 H   0  0  0  0  0  0  0  0  0  0  0  0
    8.9158   -2.6525   24.6274 H   0  0  0  0  0  0  0  0  0  0  0  0
    6.7766    0.5930   23.0706 H   0  0  0  0  0  0  0  0  0  0  0  0
    8.4034    1.0410   23.6451 H   0  0  0  0  0  0  0  0  0  0  0  0
    5.5860   -0.9726   25.1942 H   0  0  0  0  0  0  0  0  0  0  0  0
    7.8570    0.9315   25.8886 H   0  0  0  0  0  0  0  0  0  0  0  0
    8.7698   -2.2472   22.1731 H   0  0  0  0  0  0  0  0  0  0  0  0
    6.8974   -1.6551   21.0612 H   0  0  0  0  0  0  0  0  0  0  0  0
    7.1159   -1.5736   23.4029 H   0  0  0  0  0  0  0  0  0  0  0  0
  1  2  1  0  0  0  0
  1  4  2  0  0  0  0
  2  5  2  0  0  0  0
  3  6  2  0  0  0  0
  3  7  1  0  0  0  0
  4 11  1  0  0  0  0
  5 12  1  0  0  0  0
  6 13  1  0  0  0  0
  7 15  2  0  0  0  0
  8 13  2  0  0  0  0
  8 15  1  0  0  0  0
  9 11  2  0  0  0  0
  9 27  1  0  0  0  0
 10 14  1  0  0  0  0
 10 27  2  0  0  0  0
 11 12  1  0  0  0  0
 12 14  2  0  0  0  0
 13 26  1  0  0  0  0
 14 28  1  0  0  0  0
 15 31  1  0  0  0  0
 16 26  1  1  0  0  0
 16 28  1  0  0  0  0
 16 30  2  0  0  0  0
 17 18  1  0  0  0  0
 17 19  1  0  0  0  0
 18 20  1  0  0  0  0
 19 24  1  0  0  0  0
 20 25  1  1  0  0  0
 21 22  1  0  0  0  0
 21 24  1  6  0  0  0
 22 29  1  0  0  0  0
 23 25  1  0  0  0  0
 23 29  1  6  0  0  0
 24 25  1  0  0  0  0
 26 29  1  0  0  0  0
  1 32  1  0  0  0  0
  2 33  1  0  0  0  0
  3 34  1  0  0  0  0
  4 35  1  0  0  0  0
  5 36  1  0  0  0  0
  6 37  1  0  0  0  0
  7 38  1  0  0  0  0
  8 39  1  0  0  0  0
  9 40  1  0  0  0  0
 10 41  1  0  0  0  0
 17 42  1  0  0  0  0
 17 43  1  0  0  0  0
 18 44  1  0  0  0  0
 18 45  1  0  0  0  0
 19 46  1  0  0  0  0
 19 47  1  0  0  0  0
 20 48  1  0  0  0  0
 20 49  1  0  0  0  0
 21 50  1  0  0  0  0
 21 51  1  0  0  0  0
 22 52  1  0  0  0  0
 22 53  1  0  0  0  0
 23 54  1  0  0  0  0
 23 55  1  0  0  0  0
 24 56  1  0  0  0  0
 25 57  1  0  0  0  0
 26 58  1  0  0  0  0
 28 59  1  0  0  0  0
 29 60  1  0  0  0  0
M  CHG  1  29   1
M  END
> <compound>
MIC-UNK-5a93dd5f-3

> <compound_smiles>
c1ccc2c(c1)cncc2NC(=O)C(c3cccc(c3)Cl)N4CCC5CCCCC5C4

> <enantiomer_smiles>
c1ccc2c(c1)cncc2NC(=O)[C@@H](c3cccc(c3)Cl)[N@]4CC[C@H]5CCCC[C@@H]5C4

> <scaffold>
chlorobenzene-linker

> <clash_score>
0

> <docking_score>
-9.819364547729492

> <overlap_score>
0.9787078499794006

> <MMFF_internal_energy>
189.29149975285185

> <docked_smiles>
c1ccc2c(c1)cncc2NC(=O)[C@@H](c3cccc(c3)Cl)[N@H+]4CC[C@H]5CCCC[C@@H]5C4

$$$$
MIC-UNK-5a93dd5f-4_2
  -OEChem-07262101023D

 57 60  0     1  0  0  0  0  0999 V2000
    4.8867    3.6427   19.7210 C   0  0  0  0  0  0  0  0  0  0  0  0
    5.5503    3.1504   20.8424 C   0  0  0  0  0  0  0  0  0  0  0  0
   11.9780    0.4600   23.9150 C   0  0  0  0  0  0  0  0  0  0  0  0
    4.7892    2.8630   18.5689 C   0  0  0  0  0  0  0  0  0  0  0  0
    6.1195    1.8760   20.8166 C   0  0  0  0  0  0  0  0  0  0  0  0
   10.6560    0.0720   23.7350 C   0  0  0  0  0  0  0  0  0  0  0  0
   12.9840   -0.1200   23.1530 C   0  0  0  0  0  0  0  0  0  0  0  0
   11.3360   -1.5050   22.0650 C   0  0  0  0  0  0  0  0  0  0  0  0
    5.2903    0.7565   17.4056 C   0  0  0  0  0  0  0  0  0  0  0  0
    6.4606   -0.9310   18.4340 C   0  0  0  0  0  0  0  0  0  0  0  0
    5.3581    1.5791   18.5317 C   0  0  0  0  0  0  0  0  0  0  0  0
    6.0308    1.0771   19.6649 C   0  0  0  0  0  0  0  0  0  0  0  0
   10.3220   -0.8940   22.7910 C   0  0  0  0  0  0  0  0  0  0  0  0
    6.5908   -0.2044   19.6077 C   0  0  0  0  0  0  0  0  0  0  0  0
   12.6400   -1.1000   22.2390 C   0  0  0  0  0  0  0  0  0  0  0  0
    6.8827   -5.6384   22.9977 C   0  0  0  0  0  0  0  0  0  0  0  0
    8.3880   -0.3240   21.3070 C   0  0  0  0  0  0  0  0  0  0  0  0
    6.1568   -2.6727   23.0868 C   0  0  0  0  0  0  0  0  0  0  0  0
    8.0458   -3.3305   24.6263 C   0  0  0  0  0  0  0  0  0  0  0  0
    6.5017   -1.2059   23.3028 C   0  0  0  0  0  0  0  0  0  0  0  0
    8.3794   -1.8596   24.8326 C   0  0  0  0  0  0  0  0  0  0  0  0
    6.5693   -3.5358   24.2810 C   0  0  0  0  0  0  0  0  0  0  0  0
    6.4515   -7.0654   22.9204 C   0  0  0  0  0  0  0  0  0  0  0  0
    8.8810   -1.1900   22.4510 C   0  0  2  0  0  0  0  0  0  0  0  0
    5.8245   -0.4834   17.3305 N   0  0  0  0  0  0  0  0  0  0  0  0
    7.2820   -0.7860   20.6970 N   0  0  0  0  0  0  0  0  0  0  0  0
    6.2927   -4.9292   24.0250 N   0  0  0  0  0  0  0  0  0  0  0  0
    7.9634   -1.0390   23.6369 N   0  3  0  0  0  0  0  0  0  0  0  0
    7.6938   -5.2076   22.1864 O   0  0  0  0  0  0  0  0  0  0  0  0
    8.9170    0.7530   21.0260 O   0  0  0  0  0  0  0  0  0  0  0  0
   13.8840   -1.8490   21.2740 Cl  0  0  0  0  0  0  0  0  0  0  0  0
    4.4446    4.6345   19.7440 H   0  0  0  0  0  0  0  0  0  0  0  0
    5.6249    3.7592   21.7389 H   0  0  0  0  0  0  0  0  0  0  0  0
   12.2249    1.2198   24.6546 H   0  0  0  0  0  0  0  0  0  0  0  0
    4.2675    3.2627   17.7024 H   0  0  0  0  0  0  0  0  0  0  0  0
    6.6299    1.5271   21.7114 H   0  0  0  0  0  0  0  0  0  0  0  0
    9.8763    0.5350   24.3454 H   0  0  0  0  0  0  0  0  0  0  0  0
   14.0077    0.1988   23.2842 H   0  0  0  0  0  0  0  0  0  0  0  0
   11.0892   -2.3009   21.3624 H   0  0  0  0  0  0  0  0  0  0  0  0
    4.7868    1.0816   16.4993 H   0  0  0  0  0  0  0  0  0  0  0  0
    6.8769   -1.9300   18.3396 H   0  0  0  0  0  0  0  0  0  0  0  0
    5.0772   -2.7664   22.9400 H   0  0  0  0  0  0  0  0  0  0  0  0
    6.6300   -3.0339   22.1712 H   0  0  0  0  0  0  0  0  0  0  0  0
    8.6838   -3.7493   23.8435 H   0  0  0  0  0  0  0  0  0  0  0  0
    8.2754   -3.8817   25.5436 H   0  0  0  0  0  0  0  0  0  0  0  0
    6.2935   -0.5973   22.4080 H   0  0  0  0  0  0  0  0  0  0  0  0
    5.9240   -0.7958   24.1461 H   0  0  0  0  0  0  0  0  0  0  0  0
    7.8377   -1.4630   25.7058 H   0  0  0  0  0  0  0  0  0  0  0  0
    9.4588   -1.6972   24.9892 H   0  0  0  0  0  0  0  0  0  0  0  0
    5.9556   -3.2665   25.1493 H   0  0  0  0  0  0  0  0  0  0  0  0
    5.5670   -7.2033   22.2780 H   0  0  0  0  0  0  0  0  0  0  0  0
    7.2287   -7.7168   22.4894 H   0  0  0  0  0  0  0  0  0  0  0  0
    6.1856   -7.5302   23.8833 H   0  0  0  0  0  0  0  0  0  0  0  0
    8.7698   -2.2472   22.1731 H   0  0  0  0  0  0  0  0  0  0  0  0
    6.8974   -1.6551   21.0612 H   0  0  0  0  0  0  0  0  0  0  0  0
    5.6336   -5.4101   24.6284 H   0  0  0  0  0  0  0  0  0  0  0  0
    8.0700   -0.0268   23.9388 H   0  0  0  0  0  0  0  0  0  0  0  0
  1  2  1  0  0  0  0
  1  4  2  0  0  0  0
  2  5  2  0  0  0  0
  3  6  2  0  0  0  0
  3  7  1  0  0  0  0
  4 11  1  0  0  0  0
  5 12  1  0  0  0  0
  6 13  1  0  0  0  0
  7 15  2  0  0  0  0
  8 13  2  0  0  0  0
  8 15  1  0  0  0  0
  9 11  2  0  0  0  0
  9 25  1  0  0  0  0
 10 14  1  0  0  0  0
 10 25  2  0  0  0  0
 11 12  1  0  0  0  0
 12 14  2  0  0  0  0
 13 24  1  0  0  0  0
 14 26  1  0  0  0  0
 15 31  1  0  0  0  0
 16 23  1  0  0  0  0
 16 27  1  0  0  0  0
 16 29  2  0  0  0  0
 17 24  1  6  0  0  0
 17 26  1  0  0  0  0
 17 30  2  0  0  0  0
 18 20  1  0  0  0  0
 18 22  1  0  0  0  0
 19 21  1  0  0  0  0
 19 22  1  0  0  0  0
 20 28  1  0  0  0  0
 21 28  1  0  0  0  0
 22 27  1  0  0  0  0
 24 28  1  0  0  0  0
  1 32  1  0  0  0  0
  2 33  1  0  0  0  0
  3 34  1  0  0  0  0
  4 35  1  0  0  0  0
  5 36  1  0  0  0  0
  6 37  1  0  0  0  0
  7 38  1  0  0  0  0
  8 39  1  0  0  0  0
  9 40  1  0  0  0  0
 10 41  1  0  0  0  0
 18 42  1  0  0  0  0
 18 43  1  0  0  0  0
 19 44  1  0  0  0  0
 19 45  1  0  0  0  0
 20 46  1  0  0  0  0
 20 47  1  0  0  0  0
 21 48  1  0  0  0  0
 21 49  1  0  0  0  0
 22 50  1  0  0  0  0
 23 51  1  0  0  0  0
 23 52  1  0  0  0  0
 23 53  1  0  0  0  0
 24 54  1  0  0  0  0
 26 55  1  0  0  0  0
 27 56  1  0  0  0  0
 28 57  1  0  0  0  0
M  CHG  1  28   1
M  END
> <compound>
MIC-UNK-5a93dd5f-4

> <compound_smiles>
CC(=O)NC1CCN(CC1)C(c2cccc(c2)Cl)C(=O)Nc3cncc4c3cccc4

> <enantiomer_smiles>
CC(=O)NC1CCN(CC1)[C@H](c2cccc(c2)Cl)C(=O)Nc3cncc4c3cccc4

> <scaffold>
chlorobenzene-linker

> <clash_score>
0.6532380263030996

> <docking_score>
-5.54278564453125

> <overlap_score>
0.8392957448959351

> <MMFF_internal_energy>
136.93239342169122

> <docked_smiles>
CC(=O)NC1CC[NH+](CC1)[C@H](c2cccc(c2)Cl)C(=O)Nc3cncc4c3cccc4

$$$$
MIC-UNK-5a93dd5f-3_9
  -OEChem-07262101023D

 60 64  0     1  0  0  0  0  0999 V2000
    4.8867    3.6427   19.7211 C   0  0  0  0  0  0  0  0  0  0  0  0
    5.5503    3.1504   20.8424 C   0  0  0  0  0  0  0  0  0  0  0  0
   11.9780    0.4600   23.9150 C   0  0  0  0  0  0  0  0  0  0  0  0
    4.7892    2.8630   18.5689 C   0  0  0  0  0  0  0  0  0  0  0  0
    6.1195    1.8760   20.8166 C   0  0  0  0  0  0  0  0  0  0  0  0
   10.6560    0.0720   23.7350 C   0  0  0  0  0  0  0  0  0  0  0  0
   12.9840   -0.1200   23.1530 C   0  0  0  0  0  0  0  0  0  0  0  0
   11.3360   -1.5050   22.0650 C   0  0  0  0  0  0  0  0  0  0  0  0
    5.2903    0.7565   17.4056 C   0  0  0  0  0  0  0  0  0  0  0  0
    6.4606   -0.9310   18.4340 C   0  0  0  0  0  0  0  0  0  0  0  0
    5.3581    1.5791   18.5317 C   0  0  0  0  0  0  0  0  0  0  0  0
    6.0308    1.0771   19.6649 C   0  0  0  0  0  0  0  0  0  0  0  0
   10.3220   -0.8940   22.7910 C   0  0  0  0  0  0  0  0  0  0  0  0
    6.5908   -0.2044   19.6077 C   0  0  0  0  0  0  0  0  0  0  0  0
   12.6400   -1.1000   22.2390 C   0  0  0  0  0  0  0  0  0  0  0  0
    8.3880   -0.3240   21.3070 C   0  0  0  0  0  0  0  0  0  0  0  0
    3.8586   -0.6757   26.6764 C   0  0  0  0  0  0  0  0  0  0  0  0
    3.2939   -1.3338   25.4225 C   0  0  0  0  0  0  0  0  0  0  0  0
    5.2816   -1.1468   26.9595 C   0  0  0  0  0  0  0  0  0  0  0  0
    4.1909   -1.0903   24.2126 C   0  0  0  0  0  0  0  0  0  0  0  0
    7.6167   -1.4744   26.0440 C   0  0  0  0  0  0  0  0  0  0  0  0
    8.3779   -1.9029   24.7927 C   0  0  0  0  0  0  0  0  0  0  0  0
    6.5144   -1.2317   23.2469 C   0  0  0  0  0  0  0  0  0  0  0  0
    6.2076   -0.9242   25.7558 C   0  0  2  0  0  0  0  0  0  0  0  0
    5.6358   -1.5418   24.4694 C   0  0  1  0  0  0  0  0  0  0  0  0
    8.8810   -1.1900   22.4510 C   0  0  1  0  0  0  0  0  0  0  0  0
    5.8245   -0.4834   17.3305 N   0  0  0  0  0  0  0  0  0  0  0  0
    7.2820   -0.7860   20.6970 N   0  0  0  0  0  0  0  0  0  0  0  0
    7.9644   -1.0392   23.6357 N   0  3  2  0  0  0  0  0  0  0  0  0
    8.9170    0.7530   21.0260 O   0  0  0  0  0  0  0  0  0  0  0  0
   13.8840   -1.8490   21.2740 Cl  0  0  0  0  0  0  0  0  0  0  0  0
    4.4446    4.6345   19.7440 H   0  0  0  0  0  0  0  0  0  0  0  0
    5.6249    3.7592   21.7389 H   0  0  0  0  0  0  0  0  0  0  0  0
   12.2249    1.2198   24.6546 H   0  0  0  0  0  0  0  0  0  0  0  0
    4.2675    3.2627   17.7024 H   0  0  0  0  0  0  0  0  0  0  0  0
    6.6299    1.5271   21.7114 H   0  0  0  0  0  0  0  0  0  0  0  0
    9.8763    0.5350   24.3454 H   0  0  0  0  0  0  0  0  0  0  0  0
   14.0077    0.1988   23.2842 H   0  0  0  0  0  0  0  0  0  0  0  0
   11.0892   -2.3009   21.3624 H   0  0  0  0  0  0  0  0  0  0  0  0
    4.7868    1.0816   16.4993 H   0  0  0  0  0  0  0  0  0  0  0  0
    6.8769   -1.9300   18.3396 H   0  0  0  0  0  0  0  0  0  0  0  0
    3.8544    0.4122   26.5494 H   0  0  0  0  0  0  0  0  0  0  0  0
    3.2171   -0.9027   27.5332 H   0  0  0  0  0  0  0  0  0  0  0  0
    3.1942   -2.4116   25.5909 H   0  0  0  0  0  0  0  0  0  0  0  0
    2.2907   -0.9452   25.2220 H   0  0  0  0  0  0  0  0  0  0  0  0
    5.6728   -0.6118   27.8361 H   0  0  0  0  0  0  0  0  0  0  0  0
    5.2649   -2.2140   27.2263 H   0  0  0  0  0  0  0  0  0  0  0  0
    3.7811   -1.6262   23.3444 H   0  0  0  0  0  0  0  0  0  0  0  0
    4.1729   -0.0203   23.9556 H   0  0  0  0  0  0  0  0  0  0  0  0
    7.5525   -2.3210   26.7528 H   0  0  0  0  0  0  0  0  0  0  0  0
    8.2076   -0.7020   26.5701 H   0  0  0  0  0  0  0  0  0  0  0  0
    9.4505   -1.7640   24.9226 H   0  0  0  0  0  0  0  0  0  0  0  0
    8.1781   -2.9403   24.5327 H   0  0  0  0  0  0  0  0  0  0  0  0
    6.4766   -2.0358   22.5002 H   0  0  0  0  0  0  0  0  0  0  0  0
    6.1996   -0.3004   22.7563 H   0  0  0  0  0  0  0  0  0  0  0  0
    6.3091    0.1645   25.6099 H   0  0  0  0  0  0  0  0  0  0  0  0
    5.6052   -2.6455   24.5886 H   0  0  0  0  0  0  0  0  0  0  0  0
    8.7698   -2.2472   22.1731 H   0  0  0  0  0  0  0  0  0  0  0  0
    6.8974   -1.6551   21.0612 H   0  0  0  0  0  0  0  0  0  0  0  0
    8.0570   -0.0825   23.9309 H   0  0  0  0  0  0  0  0  0  0  0  0
  1  2  1  0  0  0  0
  1  4  2  0  0  0  0
  2  5  2  0  0  0  0
  3  6  2  0  0  0  0
  3  7  1  0  0  0  0
  4 11  1  0  0  0  0
  5 12  1  0  0  0  0
  6 13  1  0  0  0  0
  7 15  2  0  0  0  0
  8 13  2  0  0  0  0
  8 15  1  0  0  0  0
  9 11  2  0  0  0  0
  9 27  1  0  0  0  0
 10 14  1  0  0  0  0
 10 27  2  0  0  0  0
 11 12  1  0  0  0  0
 12 14  2  0  0  0  0
 13 26  1  0  0  0  0
 14 28  1  0  0  0  0
 15 31  1  0  0  0  0
 16 26  1  1  0  0  0
 16 28  1  0  0  0  0
 16 30  2  0  0  0  0
 17 18  1  0  0  0  0
 17 19  1  0  0  0  0
 18 20  1  0  0  0  0
 19 24  1  0  0  0  0
 20 25  1  6  0  0  0
 21 22  1  0  0  0  0
 21 24  1  1  0  0  0
 22 29  1  0  0  0  0
 23 25  1  0  0  0  0
 23 29  1  1  0  0  0
 24 25  1  0  0  0  0
 26 29  1  0  0  0  0
  1 32  1  0  0  0  0
  2 33  1  0  0  0  0
  3 34  1  0  0  0  0
  4 35  1  0  0  0  0
  5 36  1  0  0  0  0
  6 37  1  0  0  0  0
  7 38  1  0  0  0  0
  8 39  1  0  0  0  0
  9 40  1  0  0  0  0
 10 41  1  0  0  0  0
 17 42  1  0  0  0  0
 17 43  1  0  0  0  0
 18 44  1  0  0  0  0
 18 45  1  0  0  0  0
 19 46  1  0  0  0  0
 19 47  1  0  0  0  0
 20 48  1  0  0  0  0
 20 49  1  0  0  0  0
 21 50  1  0  0  0  0
 21 51  1  0  0  0  0
 22 52  1  0  0  0  0
 22 53  1  0  0  0  0
 23 54  1  0  0  0  0
 23 55  1  0  0  0  0
 24 56  1  0  0  0  0
 25 57  1  0  0  0  0
 26 58  1  0  0  0  0
 28 59  1  0  0  0  0
 29 60  1  0  0  0  0
M  CHG  1  29   1
M  END
> <compound>
MIC-UNK-5a93dd5f-3

> <compound_smiles>
c1ccc2c(c1)cncc2NC(=O)C(c3cccc(c3)Cl)N4CCC5CCCCC5C4

> <enantiomer_smiles>
c1ccc2c(c1)cncc2NC(=O)[C@@H](c3cccc(c3)Cl)[N@@]4CC[C@@H]5CCCC[C@H]5C4

> <scaffold>
chlorobenzene-linker

> <clash_score>
1.308842207713211

> <docking_score>
-3.0588245391845703

> <overlap_score>
0.8387871980667114

> <MMFF_internal_energy>
180.0512029683789

> <docked_smiles>
c1ccc2c(c1)cncc2NC(=O)[C@@H](c3cccc(c3)Cl)[N@@H+]4CC[C@@H]5CCCC[C@H]5C4

$$$$
MIC-UNK-5a93dd5f-3_10
  -OEChem-07262101023D

 60 64  0     1  0  0  0  0  0999 V2000
    4.8867    3.6427   19.7210 C   0  0  0  0  0  0  0  0  0  0  0  0
    5.5503    3.1504   20.8424 C   0  0  0  0  0  0  0  0  0  0  0  0
   11.9780    0.4600   23.9150 C   0  0  0  0  0  0  0  0  0  0  0  0
    4.7892    2.8630   18.5689 C   0  0  0  0  0  0  0  0  0  0  0  0
    6.1195    1.8760   20.8166 C   0  0  0  0  0  0  0  0  0  0  0  0
   10.6560    0.0720   23.7350 C   0  0  0  0  0  0  0  0  0  0  0  0
   12.9840   -0.1200   23.1530 C   0  0  0  0  0  0  0  0  0  0  0  0
   11.3360   -1.5050   22.0650 C   0  0  0  0  0  0  0  0  0  0  0  0
    5.2903    0.7565   17.4056 C   0  0  0  0  0  0  0  0  0  0  0  0
    6.4607   -0.9310   18.4340 C   0  0  0  0  0  0  0  0  0  0  0  0
    5.3581    1.5791   18.5317 C   0  0  0  0  0  0  0  0  0  0  0  0
    6.0308    1.0771   19.6649 C   0  0  0  0  0  0  0  0  0  0  0  0
   10.3220   -0.8940   22.7910 C   0  0  0  0  0  0  0  0  0  0  0  0
    6.5908   -0.2044   19.6077 C   0  0  0  0  0  0  0  0  0  0  0  0
   12.6400   -1.1000   22.2390 C   0  0  0  0  0  0  0  0  0  0  0  0
    8.3880   -0.3240   21.3070 C   0  0  0  0  0  0  0  0  0  0  0  0
    8.1245   -7.1067   19.6628 C   0  0  0  0  0  0  0  0  0  0  0  0
    8.9452   -6.2772   18.6817 C   0  0  0  0  0  0  0  0  0  0  0  0
    8.4956   -6.7877   21.1077 C   0  0  0  0  0  0  0  0  0  0  0  0
    8.7998   -4.7835   18.9562 C   0  0  0  0  0  0  0  0  0  0  0  0
    8.8184   -4.9869   22.8544 C   0  0  0  0  0  0  0  0  0  0  0  0
    9.3509   -3.5701   23.0491 C   0  0  0  0  0  0  0  0  0  0  0  0
    8.9440   -2.9271   20.6545 C   0  0  0  0  0  0  0  0  0  0  0  0
    8.3689   -5.2888   21.4128 C   0  0  2  0  0  0  0  0  0  0  0  0
    9.1533   -4.4297   20.4079 C   0  0  1  0  0  0  0  0  0  0  0  0
    8.8810   -1.1900   22.4510 C   0  0  2  0  0  0  0  0  0  0  0  0
    5.8245   -0.4834   17.3305 N   0  0  0  0  0  0  0  0  0  0  0  0
    7.2820   -0.7860   20.6970 N   0  0  0  0  0  0  0  0  0  0  0  0
    8.6432   -2.6365   22.1091 N   0  3  2  0  0  0  0  0  0  0  0  0
    8.9170    0.7530   21.0260 O   0  0  0  0  0  0  0  0  0  0  0  0
   13.8840   -1.8490   21.2740 Cl  0  0  0  0  0  0  0  0  0  0  0  0
    4.4446    4.6344   19.7440 H   0  0  0  0  0  0  0  0  0  0  0  0
    5.6249    3.7592   21.7389 H   0  0  0  0  0  0  0  0  0  0  0  0
   12.2249    1.2198   24.6546 H   0  0  0  0  0  0  0  0  0  0  0  0
    4.2674    3.2627   17.7024 H   0  0  0  0  0  0  0  0  0  0  0  0
    6.6299    1.5271   21.7114 H   0  0  0  0  0  0  0  0  0  0  0  0
    9.8763    0.5350   24.3454 H   0  0  0  0  0  0  0  0  0  0  0  0
   14.0077    0.1988   23.2842 H   0  0  0  0  0  0  0  0  0  0  0  0
   11.0892   -2.3009   21.3624 H   0  0  0  0  0  0  0  0  0  0  0  0
    4.7868    1.0816   16.4993 H   0  0  0  0  0  0  0  0  0  0  0  0
    6.8769   -1.9300   18.3396 H   0  0  0  0  0  0  0  0  0  0  0  0
    7.0594   -6.9043   19.5079 H   0  0  0  0  0  0  0  0  0  0  0  0
    8.2820   -8.1717   19.4677 H   0  0  0  0  0  0  0  0  0  0  0  0
   10.0005   -6.5607   18.7595 H   0  0  0  0  0  0  0  0  0  0  0  0
    8.6277   -6.4966   17.6576 H   0  0  0  0  0  0  0  0  0  0  0  0
    7.8477   -7.3630   21.7837 H   0  0  0  0  0  0  0  0  0  0  0  0
    9.5254   -7.1231   21.3011 H   0  0  0  0  0  0  0  0  0  0  0  0
    9.4485   -4.2239   18.2671 H   0  0  0  0  0  0  0  0  0  0  0  0
    7.7677   -4.4716   18.7354 H   0  0  0  0  0  0  0  0  0  0  0  0
    9.5815   -5.7217   23.1724 H   0  0  0  0  0  0  0  0  0  0  0  0
    7.9656   -5.1415   23.5407 H   0  0  0  0  0  0  0  0  0  0  0  0
    9.1497   -3.2137   24.0587 H   0  0  0  0  0  0  0  0  0  0  0  0
   10.4190   -3.5082   22.8517 H   0  0  0  0  0  0  0  0  0  0  0  0
    9.8283   -2.3388   20.3762 H   0  0  0  0  0  0  0  0  0  0  0  0
    8.0894   -2.5445   20.0798 H   0  0  0  0  0  0  0  0  0  0  0  0
    7.3002   -5.0238   21.3451 H   0  0  0  0  0  0  0  0  0  0  0  0
   10.2367   -4.6415   20.5295 H   0  0  0  0  0  0  0  0  0  0  0  0
    8.2445   -1.0188   23.3300 H   0  0  0  0  0  0  0  0  0  0  0  0
    6.8974   -1.6551   21.0612 H   0  0  0  0  0  0  0  0  0  0  0  0
    7.6561   -2.7829   22.2320 H   0  0  0  0  0  0  0  0  0  0  0  0
  1  2  1  0  0  0  0
  1  4  2  0  0  0  0
  2  5  2  0  0  0  0
  3  6  2  0  0  0  0
  3  7  1  0  0  0  0
  4 11  1  0  0  0  0
  5 12  1  0  0  0  0
  6 13  1  0  0  0  0
  7 15  2  0  0  0  0
  8 13  2  0  0  0  0
  8 15  1  0  0  0  0
  9 11  2  0  0  0  0
  9 27  1  0  0  0  0
 10 14  1  0  0  0  0
 10 27  2  0  0  0  0
 11 12  1  0  0  0  0
 12 14  2  0  0  0  0
 13 26  1  0  0  0  0
 14 28  1  0  0  0  0
 15 31  1  0  0  0  0
 16 26  1  6  0  0  0
 16 28  1  0  0  0  0
 16 30  2  0  0  0  0
 17 18  1  0  0  0  0
 17 19  1  0  0  0  0
 18 20  1  0  0  0  0
 19 24  1  0  0  0  0
 20 25  1  6  0  0  0
 21 22  1  0  0  0  0
 21 24  1  1  0  0  0
 22 29  1  0  0  0  0
 23 25  1  0  0  0  0
 23 29  1  1  0  0  0
 24 25  1  0  0  0  0
 26 29  1  0  0  0  0
  1 32  1  0  0  0  0
  2 33  1  0  0  0  0
  3 34  1  0  0  0  0
  4 35  1  0  0  0  0
  5 36  1  0  0  0  0
  6 37  1  0  0  0  0
  7 38  1  0  0  0  0
  8 39  1  0  0  0  0
  9 40  1  0  0  0  0
 10 41  1  0  0  0  0
 17 42  1  0  0  0  0
 17 43  1  0  0  0  0
 18 44  1  0  0  0  0
 18 45  1  0  0  0  0
 19 46  1  0  0  0  0
 19 47  1  0  0  0  0
 20 48  1  0  0  0  0
 20 49  1  0  0  0  0
 21 50  1  0  0  0  0
 21 51  1  0  0  0  0
 22 52  1  0  0  0  0
 22 53  1  0  0  0  0
 23 54  1  0  0  0  0
 23 55  1  0  0  0  0
 24 56  1  0  0  0  0
 25 57  1  0  0  0  0
 26 58  1  0  0  0  0
 28 59  1  0  0  0  0
 29 60  1  0  0  0  0
M  CHG  1  29   1
M  END
> <compound>
MIC-UNK-5a93dd5f-3

> <compound_smiles>
c1ccc2c(c1)cncc2NC(=O)C(c3cccc(c3)Cl)N4CCC5CCCCC5C4

> <enantiomer_smiles>
c1ccc2c(c1)cncc2NC(=O)[C@H](c3cccc(c3)Cl)[N@@]4CC[C@@H]5CCCC[C@H]5C4

> <scaffold>
chlorobenzene-linker

> <clash_score>
5.207432439793071

> <docking_score>
2.8256149291992188

> <overlap_score>
0.8396872282028198

> <MMFF_internal_energy>
199.14718908560508

> <docked_smiles>
c1ccc2c(c1)cncc2NC(=O)[C@H](c3cccc(c3)Cl)[N@@H+]4CC[C@@H]5CCCC[C@H]5C4

$$$$
MIC-UNK-5a93dd5f-3_3
  -OEChem-07262101023D

 60 64  0     1  0  0  0  0  0999 V2000
    2.5657    1.0132   19.7900 C   0  0  0  0  0  0  0  0  0  0  0  0
    3.1660    0.4495   20.9134 C   0  0  0  0  0  0  0  0  0  0  0  0
   11.9780    0.4600   23.9150 C   0  0  0  0  0  0  0  0  0  0  0  0
    3.2968    1.1719   18.6130 C   0  0  0  0  0  0  0  0  0  0  0  0
    4.5003    0.0420   20.8649 C   0  0  0  0  0  0  0  0  0  0  0  0
   10.6560    0.0720   23.7350 C   0  0  0  0  0  0  0  0  0  0  0  0
   12.9840   -0.1200   23.1530 C   0  0  0  0  0  0  0  0  0  0  0  0
   11.3360   -1.5050   22.0650 C   0  0  0  0  0  0  0  0  0  0  0  0
    5.4182    0.9006   17.4014 C   0  0  0  0  0  0  0  0  0  0  0  0
    7.2646   -0.0206   18.4099 C   0  0  0  0  0  0  0  0  0  0  0  0
    4.6401    0.7653   18.5528 C   0  0  0  0  0  0  0  0  0  0  0  0
    5.2515    0.1942   19.6881 C   0  0  0  0  0  0  0  0  0  0  0  0
   10.3220   -0.8940   22.7910 C   0  0  0  0  0  0  0  0  0  0  0  0
    6.5908   -0.2044   19.6077 C   0  0  0  0  0  0  0  0  0  0  0  0
   12.6400   -1.1000   22.2390 C   0  0  0  0  0  0  0  0  0  0  0  0
    8.3880   -0.3240   21.3070 C   0  0  0  0  0  0  0  0  0  0  0  0
    5.5065   -0.3930   27.6345 C   0  0  0  0  0  0  0  0  0  0  0  0
    6.9380   -0.7622   28.0064 C   0  0  0  0  0  0  0  0  0  0  0  0
    4.8916   -1.4156   26.6824 C   0  0  0  0  0  0  0  0  0  0  0  0
    7.8082   -0.9625   26.7685 C   0  0  0  0  0  0  0  0  0  0  0  0
    5.6788   -0.5158   24.4348 C   0  0  0  0  0  0  0  0  0  0  0  0
    6.5420   -0.7741   23.2080 C   0  0  0  0  0  0  0  0  0  0  0  0
    8.0705   -2.2210   24.5697 C   0  0  0  0  0  0  0  0  0  0  0  0
    5.7495   -1.6797   25.4355 C   0  0  2  0  0  0  0  0  0  0  0  0
    7.2060   -2.0123   25.8175 C   0  0  2  0  0  0  0  0  0  0  0  0
    8.8810   -1.1900   22.4510 C   0  0  1  0  0  0  0  0  0  0  0  0
    6.7126    0.5221   17.3038 N   0  0  0  0  0  0  0  0  0  0  0  0
    7.2820   -0.7860   20.6970 N   0  0  0  0  0  0  0  0  0  0  0  0
    7.9634   -1.0390   23.6369 N   0  3  1  0  0  0  0  0  0  0  0  0
    8.9170    0.7530   21.0260 O   0  0  0  0  0  0  0  0  0  0  0  0
   13.8840   -1.8490   21.2740 Cl  0  0  0  0  0  0  0  0  0  0  0  0
    1.5274    1.3292   19.8304 H   0  0  0  0  0  0  0  0  0  0  0  0
    2.5946    0.3266   21.8291 H   0  0  0  0  0  0  0  0  0  0  0  0
   12.2249    1.2198   24.6546 H   0  0  0  0  0  0  0  0  0  0  0  0
    2.8126    1.6137   17.7451 H   0  0  0  0  0  0  0  0  0  0  0  0
    4.9337   -0.3930   21.7626 H   0  0  0  0  0  0  0  0  0  0  0  0
    9.8763    0.5350   24.3454 H   0  0  0  0  0  0  0  0  0  0  0  0
   14.0077    0.1988   23.2842 H   0  0  0  0  0  0  0  0  0  0  0  0
   11.0892   -2.3009   21.3624 H   0  0  0  0  0  0  0  0  0  0  0  0
    5.0091    1.3322   16.4920 H   0  0  0  0  0  0  0  0  0  0  0  0
    8.3044   -0.3139   18.2966 H   0  0  0  0  0  0  0  0  0  0  0  0
    4.8978   -0.3289   28.5438 H   0  0  0  0  0  0  0  0  0  0  0  0
    5.4903    0.6026   27.1764 H   0  0  0  0  0  0  0  0  0  0  0  0
    7.3692    0.0239   28.6364 H   0  0  0  0  0  0  0  0  0  0  0  0
    6.9349   -1.6827   28.6031 H   0  0  0  0  0  0  0  0  0  0  0  0
    4.7628   -2.3618   27.2243 H   0  0  0  0  0  0  0  0  0  0  0  0
    3.8872   -1.0881   26.3892 H   0  0  0  0  0  0  0  0  0  0  0  0
    7.9326    0.0022   26.2638 H   0  0  0  0  0  0  0  0  0  0  0  0
    8.8092   -1.2816   27.0831 H   0  0  0  0  0  0  0  0  0  0  0  0
    5.9906    0.4252   24.9020 H   0  0  0  0  0  0  0  0  0  0  0  0
    4.6403   -0.3720   24.1133 H   0  0  0  0  0  0  0  0  0  0  0  0
    6.1956   -1.6467   22.6429 H   0  0  0  0  0  0  0  0  0  0  0  0
    6.5531    0.1038   22.5535 H   0  0  0  0  0  0  0  0  0  0  0  0
    9.1270   -2.3360   24.8355 H   0  0  0  0  0  0  0  0  0  0  0  0
    7.7454   -3.1056   24.0091 H   0  0  0  0  0  0  0  0  0  0  0  0
    5.3254   -2.5602   24.9321 H   0  0  0  0  0  0  0  0  0  0  0  0
    7.1959   -2.9672   26.3624 H   0  0  0  0  0  0  0  0  0  0  0  0
    8.7698   -2.2472   22.1731 H   0  0  0  0  0  0  0  0  0  0  0  0
    6.8974   -1.6551   21.0612 H   0  0  0  0  0  0  0  0  0  0  0  0
    8.2901   -0.2072   24.1457 H   0  0  0  0  0  0  0  0  0  0  0  0
  1  2  1  0  0  0  0
  1  4  2  0  0  0  0
  2  5  2  0  0  0  0
  3  6  2  0  0  0  0
  3  7  1  0  0  0  0
  4 11  1  0  0  0  0
  5 12  1  0  0  0  0
  6 13  1  0  0  0  0
  7 15  2  0  0  0  0
  8 13  2  0  0  0  0
  8 15  1  0  0  0  0
  9 11  2  0  0  0  0
  9 27  1  0  0  0  0
 10 14  1  0  0  0  0
 10 27  2  0  0  0  0
 11 12  1  0  0  0  0
 12 14  2  0  0  0  0
 13 26  1  0  0  0  0
 14 28  1  0  0  0  0
 15 31  1  0  0  0  0
 16 26  1  1  0  0  0
 16 28  1  0  0  0  0
 16 30  2  0  0  0  0
 17 18  1  0  0  0  0
 17 19  1  0  0  0  0
 18 20  1  0  0  0  0
 19 24  1  0  0  0  0
 20 25  1  1  0  0  0
 21 22  1  0  0  0  0
 21 24  1  1  0  0  0
 22 29  1  0  0  0  0
 23 25  1  0  0  0  0
 23 29  1  6  0  0  0
 24 25  1  0  0  0  0
 26 29  1  0  0  0  0
  1 32  1  0  0  0  0
  2 33  1  0  0  0  0
  3 34  1  0  0  0  0
  4 35  1  0  0  0  0
  5 36  1  0  0  0  0
  6 37  1  0  0  0  0
  7 38  1  0  0  0  0
  8 39  1  0  0  0  0
  9 40  1  0  0  0  0
 10 41  1  0  0  0  0
 17 42  1  0  0  0  0
 17 43  1  0  0  0  0
 18 44  1  0  0  0  0
 18 45  1  0  0  0  0
 19 46  1  0  0  0  0
 19 47  1  0  0  0  0
 20 48  1  0  0  0  0
 20 49  1  0  0  0  0
 21 50  1  0  0  0  0
 21 51  1  0  0  0  0
 22 52  1  0  0  0  0
 22 53  1  0  0  0  0
 23 54  1  0  0  0  0
 23 55  1  0  0  0  0
 24 56  1  0  0  0  0
 25 57  1  0  0  0  0
 26 58  1  0  0  0  0
 28 59  1  0  0  0  0
 29 60  1  0  0  0  0
M  CHG  1  29   1
M  END
> <compound>
MIC-UNK-5a93dd5f-3

> <compound_smiles>
c1ccc2c(c1)cncc2NC(=O)C(c3cccc(c3)Cl)N4CCC5CCCCC5C4

> <enantiomer_smiles>
c1ccc2c(c1)cncc2NC(=O)[C@@H](c3cccc(c3)Cl)[N@]4CC[C@@H]5CCCC[C@@H]5C4

> <scaffold>
chlorobenzene-linker

> <clash_score>
0

> <docking_score>
-4.75006103515625

> <overlap_score>
0.8956246376037598

> <MMFF_internal_energy>
180.87510371066688

> <docked_smiles>
c1ccc2c(c1)cncc2NC(=O)[C@@H](c3cccc(c3)Cl)[N@H+]4CC[C@@H]5CCCC[C@@H]5C4

$$$$
MIC-UNK-5a93dd5f-3_1
  -OEChem-07262101023D

 60 64  0     1  0  0  0  0  0999 V2000
    4.8867    3.6427   19.7211 C   0  0  0  0  0  0  0  0  0  0  0  0
    5.5503    3.1504   20.8424 C   0  0  0  0  0  0  0  0  0  0  0  0
   11.9780    0.4600   23.9150 C   0  0  0  0  0  0  0  0  0  0  0  0
    4.7892    2.8630   18.5689 C   0  0  0  0  0  0  0  0  0  0  0  0
    6.1195    1.8760   20.8166 C   0  0  0  0  0  0  0  0  0  0  0  0
   10.6560    0.0720   23.7350 C   0  0  0  0  0  0  0  0  0  0  0  0
   12.9840   -0.1200   23.1530 C   0  0  0  0  0  0  0  0  0  0  0  0
   11.3360   -1.5050   22.0650 C   0  0  0  0  0  0  0  0  0  0  0  0
    5.2903    0.7565   17.4056 C   0  0  0  0  0  0  0  0  0  0  0  0
    6.4606   -0.9310   18.4340 C   0  0  0  0  0  0  0  0  0  0  0  0
    5.3581    1.5791   18.5317 C   0  0  0  0  0  0  0  0  0  0  0  0
    6.0308    1.0771   19.6649 C   0  0  0  0  0  0  0  0  0  0  0  0
   10.3220   -0.8940   22.7910 C   0  0  0  0  0  0  0  0  0  0  0  0
    6.5908   -0.2044   19.6077 C   0  0  0  0  0  0  0  0  0  0  0  0
   12.6400   -1.1000   22.2390 C   0  0  0  0  0  0  0  0  0  0  0  0
    8.3880   -0.3240   21.3070 C   0  0  0  0  0  0  0  0  0  0  0  0
    4.6116   -2.0839   27.1451 C   0  0  0  0  0  0  0  0  0  0  0  0
    3.9141   -2.5156   25.8607 C   0  0  0  0  0  0  0  0  0  0  0  0
    5.3499   -0.7589   26.9693 C   0  0  0  0  0  0  0  0  0  0  0  0
    4.8763   -2.5561   24.6767 C   0  0  0  0  0  0  0  0  0  0  0  0
    7.5832   -1.5543   26.0366 C   0  0  0  0  0  0  0  0  0  0  0  0
    8.3739   -1.9175   24.7837 C   0  0  0  0  0  0  0  0  0  0  0  0
    6.5206   -1.2594   23.2521 C   0  0  0  0  0  0  0  0  0  0  0  0
    6.3013   -0.7480   25.7624 C   0  0  2  0  0  0  0  0  0  0  0  0
    5.5902   -1.2079   24.4762 C   0  0  2  0  0  0  0  0  0  0  0  0
    8.8810   -1.1900   22.4510 C   0  0  1  0  0  0  0  0  0  0  0  0
    5.8245   -0.4834   17.3305 N   0  0  0  0  0  0  0  0  0  0  0  0
    7.2820   -0.7860   20.6970 N   0  0  0  0  0  0  0  0  0  0  0  0
    7.9637   -1.0391   23.6365 N   0  3  2  0  0  0  0  0  0  0  0  0
    8.9170    0.7530   21.0260 O   0  0  0  0  0  0  0  0  0  0  0  0
   13.8840   -1.8490   21.2740 Cl  0  0  0  0  0  0  0  0  0  0  0  0
    4.4446    4.6345   19.7440 H   0  0  0  0  0  0  0  0  0  0  0  0
    5.6249    3.7592   21.7389 H   0  0  0  0  0  0  0  0  0  0  0  0
   12.2249    1.2198   24.6546 H   0  0  0  0  0  0  0  0  0  0  0  0
    4.2675    3.2627   17.7024 H   0  0  0  0  0  0  0  0  0  0  0  0
    6.6299    1.5271   21.7114 H   0  0  0  0  0  0  0  0  0  0  0  0
    9.8763    0.5350   24.3454 H   0  0  0  0  0  0  0  0  0  0  0  0
   14.0077    0.1988   23.2842 H   0  0  0  0  0  0  0  0  0  0  0  0
   11.0892   -2.3009   21.3624 H   0  0  0  0  0  0  0  0  0  0  0  0
    4.7868    1.0816   16.4993 H   0  0  0  0  0  0  0  0  0  0  0  0
    6.8769   -1.9300   18.3396 H   0  0  0  0  0  0  0  0  0  0  0  0
    3.8707   -1.9844   27.9483 H   0  0  0  0  0  0  0  0  0  0  0  0
    5.3190   -2.8598   27.4597 H   0  0  0  0  0  0  0  0  0  0  0  0
    3.4552   -3.5025   26.0042 H   0  0  0  0  0  0  0  0  0  0  0  0
    3.0931   -1.8213   25.6400 H   0  0  0  0  0  0  0  0  0  0  0  0
    4.6066    0.0502   26.8597 H   0  0  0  0  0  0  0  0  0  0  0  0
    5.8959   -0.5327   27.9012 H   0  0  0  0  0  0  0  0  0  0  0  0
    5.6050   -3.3531   24.8202 H   0  0  0  0  0  0  0  0  0  0  0  0
    4.3111   -2.7907   23.7732 H   0  0  0  0  0  0  0  0  0  0  0  0
    7.3384   -2.4718   26.5906 H   0  0  0  0  0  0  0  0  0  0  0  0
    8.2316   -0.9654   26.7034 H   0  0  0  0  0  0  0  0  0  0  0  0
    9.4472   -1.7582   24.9542 H   0  0  0  0  0  0  0  0  0  0  0  0
    8.2171   -2.9624   24.4829 H   0  0  0  0  0  0  0  0  0  0  0  0
    6.4697   -2.2238   22.7160 H   0  0  0  0  0  0  0  0  0  0  0  0
    6.2533   -0.4617   22.5356 H   0  0  0  0  0  0  0  0  0  0  0  0
    6.6067    0.3059   25.6164 H   0  0  0  0  0  0  0  0  0  0  0  0
    4.7993   -0.4697   24.2426 H   0  0  0  0  0  0  0  0  0  0  0  0
    8.7698   -2.2472   22.1731 H   0  0  0  0  0  0  0  0  0  0  0  0
    6.8974   -1.6551   21.0612 H   0  0  0  0  0  0  0  0  0  0  0  0
    8.0487   -0.0643   23.9488 H   0  0  0  0  0  0  0  0  0  0  0  0
  1  2  1  0  0  0  0
  1  4  2  0  0  0  0
  2  5  2  0  0  0  0
  3  6  2  0  0  0  0
  3  7  1  0  0  0  0
  4 11  1  0  0  0  0
  5 12  1  0  0  0  0
  6 13  1  0  0  0  0
  7 15  2  0  0  0  0
  8 13  2  0  0  0  0
  8 15  1  0  0  0  0
  9 11  2  0  0  0  0
  9 27  1  0  0  0  0
 10 14  1  0  0  0  0
 10 27  2  0  0  0  0
 11 12  1  0  0  0  0
 12 14  2  0  0  0  0
 13 26  1  0  0  0  0
 14 28  1  0  0  0  0
 15 31  1  0  0  0  0
 16 26  1  1  0  0  0
 16 28  1  0  0  0  0
 16 30  2  0  0  0  0
 17 18  1  0  0  0  0
 17 19  1  0  0  0  0
 18 20  1  0  0  0  0
 19 24  1  0  0  0  0
 20 25  1  1  0  0  0
 21 22  1  0  0  0  0
 21 24  1  1  0  0  0
 22 29  1  0  0  0  0
 23 25  1  0  0  0  0
 23 29  1  1  0  0  0
 24 25  1  0  0  0  0
 26 29  1  0  0  0  0
  1 32  1  0  0  0  0
  2 33  1  0  0  0  0
  3 34  1  0  0  0  0
  4 35  1  0  0  0  0
  5 36  1  0  0  0  0
  6 37  1  0  0  0  0
  7 38  1  0  0  0  0
  8 39  1  0  0  0  0
  9 40  1  0  0  0  0
 10 41  1  0  0  0  0
 17 42  1  0  0  0  0
 17 43  1  0  0  0  0
 18 44  1  0  0  0  0
 18 45  1  0  0  0  0
 19 46  1  0  0  0  0
 19 47  1  0  0  0  0
 20 48  1  0  0  0  0
 20 49  1  0  0  0  0
 21 50  1  0  0  0  0
 21 51  1  0  0  0  0
 22 52  1  0  0  0  0
 22 53  1  0  0  0  0
 23 54  1  0  0  0  0
 23 55  1  0  0  0  0
 24 56  1  0  0  0  0
 25 57  1  0  0  0  0
 26 58  1  0  0  0  0
 28 59  1  0  0  0  0
 29 60  1  0  0  0  0
M  CHG  1  29   1
M  END
> <compound>
MIC-UNK-5a93dd5f-3

> <compound_smiles>
c1ccc2c(c1)cncc2NC(=O)C(c3cccc(c3)Cl)N4CCC5CCCCC5C4

> <enantiomer_smiles>
c1ccc2c(c1)cncc2NC(=O)[C@@H](c3cccc(c3)Cl)[N@@]4CC[C@@H]5CCCC[C@@H]5C4

> <scaffold>
chlorobenzene-linker

> <clash_score>
1.312814612112213

> <docking_score>
-3.018150568008423

> <overlap_score>
0.8385244011878967

> <MMFF_internal_energy>
180.0686209556123

> <docked_smiles>
c1ccc2c(c1)cncc2NC(=O)[C@@H](c3cccc(c3)Cl)[N@@H+]4CC[C@@H]5CCCC[C@@H]5C4

$$$$
MIC-UNK-5a93dd5f-3_14
  -OEChem-07262101023D

 60 64  0     1  0  0  0  0  0999 V2000
    4.8867    3.6427   19.7210 C   0  0  0  0  0  0  0  0  0  0  0  0
    5.5503    3.1504   20.8424 C   0  0  0  0  0  0  0  0  0  0  0  0
   11.9780    0.4600   23.9150 C   0  0  0  0  0  0  0  0  0  0  0  0
    4.7892    2.8630   18.5689 C   0  0  0  0  0  0  0  0  0  0  0  0
    6.1195    1.8760   20.8166 C   0  0  0  0  0  0  0  0  0  0  0  0
   10.6560    0.0720   23.7350 C   0  0  0  0  0  0  0  0  0  0  0  0
   12.9840   -0.1200   23.1530 C   0  0  0  0  0  0  0  0  0  0  0  0
   11.3360   -1.5050   22.0650 C   0  0  0  0  0  0  0  0  0  0  0  0
    5.2903    0.7565   17.4056 C   0  0  0  0  0  0  0  0  0  0  0  0
    6.4607   -0.9310   18.4340 C   0  0  0  0  0  0  0  0  0  0  0  0
    5.3581    1.5791   18.5317 C   0  0  0  0  0  0  0  0  0  0  0  0
    6.0308    1.0771   19.6649 C   0  0  0  0  0  0  0  0  0  0  0  0
   10.3220   -0.8940   22.7910 C   0  0  0  0  0  0  0  0  0  0  0  0
    6.5908   -0.2044   19.6077 C   0  0  0  0  0  0  0  0  0  0  0  0
   12.6400   -1.1000   22.2390 C   0  0  0  0  0  0  0  0  0  0  0  0
    8.3880   -0.3240   21.3070 C   0  0  0  0  0  0  0  0  0  0  0  0
    6.9523   -5.9538   19.5469 C   0  0  0  0  0  0  0  0  0  0  0  0
    7.6620   -5.0060   18.5862 C   0  0  0  0  0  0  0  0  0  0  0  0
    7.1200   -5.5257   21.0031 C   0  0  0  0  0  0  0  0  0  0  0  0
    9.1299   -4.8087   18.9615 C   0  0  0  0  0  0  0  0  0  0  0  0
    8.7809   -4.9759   22.8552 C   0  0  0  0  0  0  0  0  0  0  0  0
    9.3344   -3.5710   23.0594 C   0  0  0  0  0  0  0  0  0  0  0  0
    8.9437   -2.9282   20.6560 C   0  0  0  0  0  0  0  0  0  0  0  0
    8.6038   -5.3733   21.3779 C   0  0  1  0  0  0  0  0  0  0  0  0
    9.3273   -4.4003   20.4303 C   0  0  1  0  0  0  0  0  0  0  0  0
    8.8810   -1.1900   22.4510 C   0  0  2  0  0  0  0  0  0  0  0  0
    5.8245   -0.4834   17.3305 N   0  0  0  0  0  0  0  0  0  0  0  0
    7.2820   -0.7860   20.6970 N   0  0  0  0  0  0  0  0  0  0  0  0
    8.6432   -2.6366   22.1091 N   0  3  2  0  0  0  0  0  0  0  0  0
    8.9170    0.7530   21.0260 O   0  0  0  0  0  0  0  0  0  0  0  0
   13.8840   -1.8490   21.2740 Cl  0  0  0  0  0  0  0  0  0  0  0  0
    4.4446    4.6345   19.7440 H   0  0  0  0  0  0  0  0  0  0  0  0
    5.6249    3.7592   21.7389 H   0  0  0  0  0  0  0  0  0  0  0  0
   12.2249    1.2198   24.6546 H   0  0  0  0  0  0  0  0  0  0  0  0
    4.2675    3.2627   17.7024 H   0  0  0  0  0  0  0  0  0  0  0  0
    6.6299    1.5271   21.7114 H   0  0  0  0  0  0  0  0  0  0  0  0
    9.8763    0.5350   24.3454 H   0  0  0  0  0  0  0  0  0  0  0  0
   14.0077    0.1988   23.2842 H   0  0  0  0  0  0  0  0  0  0  0  0
   11.0892   -2.3009   21.3624 H   0  0  0  0  0  0  0  0  0  0  0  0
    4.7868    1.0816   16.4993 H   0  0  0  0  0  0  0  0  0  0  0  0
    6.8769   -1.9300   18.3396 H   0  0  0  0  0  0  0  0  0  0  0  0
    5.8855   -6.0049   19.2921 H   0  0  0  0  0  0  0  0  0  0  0  0
    7.3492   -6.9694   19.4174 H   0  0  0  0  0  0  0  0  0  0  0  0
    7.5978   -5.4045   17.5655 H   0  0  0  0  0  0  0  0  0  0  0  0
    7.1505   -4.0361   18.5801 H   0  0  0  0  0  0  0  0  0  0  0  0
    6.5862   -4.5944   21.1784 H   0  0  0  0  0  0  0  0  0  0  0  0
    6.6744   -6.2861   21.6440 H   0  0  0  0  0  0  0  0  0  0  0  0
    9.6769   -5.7461   18.7624 H   0  0  0  0  0  0  0  0  0  0  0  0
    9.5681   -4.0597   18.2812 H   0  0  0  0  0  0  0  0  0  0  0  0
    9.4608   -5.6974   23.3465 H   0  0  0  0  0  0  0  0  0  0  0  0
    7.8237   -5.0661   23.4024 H   0  0  0  0  0  0  0  0  0  0  0  0
    9.1321   -3.2240   24.0751 H   0  0  0  0  0  0  0  0  0  0  0  0
   10.4075   -3.5255   22.8576 H   0  0  0  0  0  0  0  0  0  0  0  0
    9.7643   -2.2596   20.3558 H   0  0  0  0  0  0  0  0  0  0  0  0
    8.0487   -2.6618   20.0757 H   0  0  0  0  0  0  0  0  0  0  0  0
    9.0669   -6.3660   21.2597 H   0  0  0  0  0  0  0  0  0  0  0  0
   10.4097   -4.4821   20.6283 H   0  0  0  0  0  0  0  0  0  0  0  0
    8.2445   -1.0188   23.3300 H   0  0  0  0  0  0  0  0  0  0  0  0
    6.8974   -1.6551   21.0612 H   0  0  0  0  0  0  0  0  0  0  0  0
    7.6168   -2.7798   22.2393 H   0  0  0  0  0  0  0  0  0  0  0  0
  1  2  1  0  0  0  0
  1  4  2  0  0  0  0
  2  5  2  0  0  0  0
  3  6  2  0  0  0  0
  3  7  1  0  0  0  0
  4 11  1  0  0  0  0
  5 12  1  0  0  0  0
  6 13  1  0  0  0  0
  7 15  2  0  0  0  0
  8 13  2  0  0  0  0
  8 15  1  0  0  0  0
  9 11  2  0  0  0  0
  9 27  1  0  0  0  0
 10 14  1  0  0  0  0
 10 27  2  0  0  0  0
 11 12  1  0  0  0  0
 12 14  2  0  0  0  0
 13 26  1  0  0  0  0
 14 28  1  0  0  0  0
 15 31  1  0  0  0  0
 16 26  1  6  0  0  0
 16 28  1  0  0  0  0
 16 30  2  0  0  0  0
 17 18  1  0  0  0  0
 17 19  1  0  0  0  0
 18 20  1  0  0  0  0
 19 24  1  0  0  0  0
 20 25  1  6  0  0  0
 21 22  1  0  0  0  0
 21 24  1  6  0  0  0
 22 29  1  0  0  0  0
 23 25  1  0  0  0  0
 23 29  1  1  0  0  0
 24 25  1  0  0  0  0
 26 29  1  0  0  0  0
  1 32  1  0  0  0  0
  2 33  1  0  0  0  0
  3 34  1  0  0  0  0
  4 35  1  0  0  0  0
  5 36  1  0  0  0  0
  6 37  1  0  0  0  0
  7 38  1  0  0  0  0
  8 39  1  0  0  0  0
  9 40  1  0  0  0  0
 10 41  1  0  0  0  0
 17 42  1  0  0  0  0
 17 43  1  0  0  0  0
 18 44  1  0  0  0  0
 18 45  1  0  0  0  0
 19 46  1  0  0  0  0
 19 47  1  0  0  0  0
 20 48  1  0  0  0  0
 20 49  1  0  0  0  0
 21 50  1  0  0  0  0
 21 51  1  0  0  0  0
 22 52  1  0  0  0  0
 22 53  1  0  0  0  0
 23 54  1  0  0  0  0
 23 55  1  0  0  0  0
 24 56  1  0  0  0  0
 25 57  1  0  0  0  0
 26 58  1  0  0  0  0
 28 59  1  0  0  0  0
 29 60  1  0  0  0  0
M  CHG  1  29   1
M  END
> <compound>
MIC-UNK-5a93dd5f-3

> <compound_smiles>
c1ccc2c(c1)cncc2NC(=O)C(c3cccc(c3)Cl)N4CCC5CCCCC5C4

> <enantiomer_smiles>
c1ccc2c(c1)cncc2NC(=O)[C@H](c3cccc(c3)Cl)[N@@]4CC[C@H]5CCCC[C@H]5C4

> <scaffold>
chlorobenzene-linker

> <clash_score>
7.227003935208295

> <docking_score>
3.2508511543273926

> <overlap_score>
0.8396446108818054

> <MMFF_internal_energy>
196.96755276114507

> <docked_smiles>
c1ccc2c(c1)cncc2NC(=O)[C@H](c3cccc(c3)Cl)[N@@H+]4CC[C@H]5CCCC[C@H]5C4

$$$$
MAK-UNK-ffc90da7-4_5
  -OEChem-07262101023D

 60 63  0     1  0  0  0  0  0999 V2000
    2.5765    1.0462   19.7996 C   0  0  0  0  0  0  0  0  0  0  0  0
    3.1767    0.4829   20.9233 C   0  0  0  0  0  0  0  0  0  0  0  0
   11.9780    0.4600   23.9150 C   0  0  0  0  0  0  0  0  0  0  0  0
    3.3045    1.1939   18.6191 C   0  0  0  0  0  0  0  0  0  0  0  0
    4.5075    0.0647   20.8716 C   0  0  0  0  0  0  0  0  0  0  0  0
   10.6560    0.0720   23.7350 C   0  0  0  0  0  0  0  0  0  0  0  0
   12.9840   -0.1200   23.1530 C   0  0  0  0  0  0  0  0  0  0  0  0
   11.3360   -1.5050   22.0650 C   0  0  0  0  0  0  0  0  0  0  0  0
    5.4190    0.9004   17.4008 C   0  0  0  0  0  0  0  0  0  0  0  0
    7.2619   -0.0308   18.4065 C   0  0  0  0  0  0  0  0  0  0  0  0
    4.6442    0.7764   18.5558 C   0  0  0  0  0  0  0  0  0  0  0  0
    5.2554    0.2056   19.6913 C   0  0  0  0  0  0  0  0  0  0  0  0
   10.3220   -0.8940   22.7910 C   0  0  0  0  0  0  0  0  0  0  0  0
    6.5912   -0.2039   19.6077 C   0  0  0  0  0  0  0  0  0  0  0  0
   12.6400   -1.1000   22.2390 C   0  0  0  0  0  0  0  0  0  0  0  0
    8.3880   -0.3240   21.3070 C   0  0  0  0  0  0  0  0  0  0  0  0
    2.8179    2.6352   27.2285 C   0  0  0  0  0  0  0  0  0  0  0  0
    3.7179    3.0085   26.0775 C   0  0  0  0  0  0  0  0  0  0  0  0
    3.6405    1.5818   27.9401 C   0  0  0  0  0  0  0  0  0  0  0  0
    4.3144    1.6607   25.7104 C   0  0  2  0  0  0  0  0  0  0  0  0
    8.5537   -1.7378   24.9385 C   0  0  0  0  0  0  0  0  0  0  0  0
    5.6671    1.7619   25.0325 C   0  0  0  0  0  0  0  0  0  0  0  0
    7.4740    0.3571   24.0324 C   0  0  0  0  0  0  0  0  0  0  0  0
    8.8810   -1.1900   22.4510 C   0  0  2  0  0  0  0  0  0  0  0  0
    7.9194   -1.0821   23.6998 C   0  0  1  0  0  0  0  0  0  0  0  0
    6.7100    0.5112   17.3001 N   0  0  0  0  0  0  0  0  0  0  0  0
    7.2820   -0.7860   20.6970 N   0  0  0  0  0  0  0  0  0  0  0  0
    6.1796    0.3921   24.7540 N   0  3  0  0  0  0  0  0  0  0  0  0
    8.9170    0.7530   21.0260 O   0  0  0  0  0  0  0  0  0  0  0  0
    4.4390    0.9291   26.9417 O   0  0  0  0  0  0  0  0  0  0  0  0
   13.8840   -1.8490   21.2740 Cl  0  0  0  0  0  0  0  0  0  0  0  0
    1.5410    1.3706   19.8425 H   0  0  0  0  0  0  0  0  0  0  0  0
    2.6079    0.3686   21.8416 H   0  0  0  0  0  0  0  0  0  0  0  0
   12.2249    1.2198   24.6546 H   0  0  0  0  0  0  0  0  0  0  0  0
    2.8204    1.6355   17.7511 H   0  0  0  0  0  0  0  0  0  0  0  0
    4.9409   -0.3697   21.7696 H   0  0  0  0  0  0  0  0  0  0  0  0
    9.8763    0.5350   24.3454 H   0  0  0  0  0  0  0  0  0  0  0  0
   14.0077    0.1988   23.2842 H   0  0  0  0  0  0  0  0  0  0  0  0
   11.0892   -2.3009   21.3624 H   0  0  0  0  0  0  0  0  0  0  0  0
    5.0099    1.3311   16.4910 H   0  0  0  0  0  0  0  0  0  0  0  0
    8.2990   -0.3328   18.2906 H   0  0  0  0  0  0  0  0  0  0  0  0
    2.5537    3.4778   27.8727 H   0  0  0  0  0  0  0  0  0  0  0  0
    1.8906    2.1914   26.8471 H   0  0  0  0  0  0  0  0  0  0  0  0
    3.1869    3.4794   25.2457 H   0  0  0  0  0  0  0  0  0  0  0  0
    4.4935    3.7009   26.4269 H   0  0  0  0  0  0  0  0  0  0  0  0
    4.3226    2.0362   28.6665 H   0  0  0  0  0  0  0  0  0  0  0  0
    3.0208    0.8439   28.4573 H   0  0  0  0  0  0  0  0  0  0  0  0
    3.6227    1.1011   25.0698 H   0  0  0  0  0  0  0  0  0  0  0  0
    9.4843   -1.2301   25.2145 H   0  0  0  0  0  0  0  0  0  0  0  0
    7.8875   -1.6771   25.8049 H   0  0  0  0  0  0  0  0  0  0  0  0
    8.7807   -2.7948   24.7656 H   0  0  0  0  0  0  0  0  0  0  0  0
    6.4037    2.2568   25.6713 H   0  0  0  0  0  0  0  0  0  0  0  0
    5.6004    2.2813   24.0725 H   0  0  0  0  0  0  0  0  0  0  0  0
    8.1970    0.8780   24.6661 H   0  0  0  0  0  0  0  0  0  0  0  0
    7.3356    0.9463   23.1199 H   0  0  0  0  0  0  0  0  0  0  0  0
    8.8227   -2.2553   22.1299 H   0  0  0  0  0  0  0  0  0  0  0  0
    6.9977   -1.6390   23.4831 H   0  0  0  0  0  0  0  0  0  0  0  0
    6.8771   -1.6492   21.0526 H   0  0  0  0  0  0  0  0  0  0  0  0
    6.2715   -0.1175   25.6452 H   0  0  0  0  0  0  0  0  0  0  0  0
    5.4719   -0.1251   24.2115 H   0  0  0  0  0  0  0  0  0  0  0  0
  1  2  1  0  0  0  0
  1  4  2  0  0  0  0
  2  5  2  0  0  0  0
  3  6  2  0  0  0  0
  3  7  1  0  0  0  0
  4 11  1  0  0  0  0
  5 12  1  0  0  0  0
  6 13  1  0  0  0  0
  7 15  2  0  0  0  0
  8 13  2  0  0  0  0
  8 15  1  0  0  0  0
  9 11  2  0  0  0  0
  9 26  1  0  0  0  0
 10 14  1  0  0  0  0
 10 26  2  0  0  0  0
 11 12  1  0  0  0  0
 12 14  2  0  0  0  0
 13 24  1  0  0  0  0
 14 27  1  0  0  0  0
 15 31  1  0  0  0  0
 16 24  1  6  0  0  0
 16 27  1  0  0  0  0
 16 29  2  0  0  0  0
 17 18  1  0  0  0  0
 17 19  1  0  0  0  0
 18 20  1  0  0  0  0
 19 30  1  0  0  0  0
 20 22  1  1  0  0  0
 20 30  1  0  0  0  0
 21 25  1  1  0  0  0
 22 28  1  0  0  0  0
 23 25  1  0  0  0  0
 23 28  1  0  0  0  0
 24 25  1  0  0  0  0
  1 32  1  0  0  0  0
  2 33  1  0  0  0  0
  3 34  1  0  0  0  0
  4 35  1  0  0  0  0
  5 36  1  0  0  0  0
  6 37  1  0  0  0  0
  7 38  1  0  0  0  0
  8 39  1  0  0  0  0
  9 40  1  0  0  0  0
 10 41  1  0  0  0  0
 17 42  1  0  0  0  0
 17 43  1  0  0  0  0
 18 44  1  0  0  0  0
 18 45  1  0  0  0  0
 19 46  1  0  0  0  0
 19 47  1  0  0  0  0
 20 48  1  0  0  0  0
 21 49  1  0  0  0  0
 21 50  1  0  0  0  0
 21 51  1  0  0  0  0
 22 52  1  0  0  0  0
 22 53  1  0  0  0  0
 23 54  1  0  0  0  0
 23 55  1  0  0  0  0
 24 56  1  0  0  0  0
 25 57  1  0  0  0  0
 27 58  1  0  0  0  0
 28 59  1  0  0  0  0
 28 60  1  0  0  0  0
M  CHG  1  28   1
M  END
> <compound>
MAK-UNK-ffc90da7-4

> <compound_smiles>
CC(CNCC1CCCO1)C(c2cccc(c2)Cl)C(=O)Nc3cncc4c3cccc4

> <enantiomer_smiles>
C[C@@H](CNC[C@@H]1CCCO1)[C@H](c2cccc(c2)Cl)C(=O)Nc3cncc4c3cccc4

> <scaffold>
chlorobenzene-linker

> <clash_score>
0

> <docking_score>
-4.809898376464844

> <overlap_score>
0.8967058658599854

> <MMFF_internal_energy>
141.57786682493725

> <docked_smiles>
C[C@@H](C[NH2+]C[C@@H]1CCCO1)[C@H](c2cccc(c2)Cl)C(=O)Nc3cncc4c3cccc4

$$$$
MAK-UNK-ffc90da7-4_6
  -OEChem-07262101023D

 60 63  0     1  0  0  0  0  0999 V2000
    4.9179    3.6570   19.7100 C   0  0  0  0  0  0  0  0  0  0  0  0
    5.5819    3.1645   20.8311 C   0  0  0  0  0  0  0  0  0  0  0  0
   11.9780    0.4600   23.9150 C   0  0  0  0  0  0  0  0  0  0  0  0
    4.8099    2.8729   18.5617 C   0  0  0  0  0  0  0  0  0  0  0  0
    6.1409    1.8856   20.8089 C   0  0  0  0  0  0  0  0  0  0  0  0
   10.6560    0.0720   23.7350 C   0  0  0  0  0  0  0  0  0  0  0  0
   12.9840   -0.1200   23.1530 C   0  0  0  0  0  0  0  0  0  0  0  0
   11.3360   -1.5050   22.0650 C   0  0  0  0  0  0  0  0  0  0  0  0
    5.2900    0.7573   17.4061 C   0  0  0  0  0  0  0  0  0  0  0  0
    6.4509   -0.9347   18.4378 C   0  0  0  0  0  0  0  0  0  0  0  0
    5.3685    1.5844   18.5283 C   0  0  0  0  0  0  0  0  0  0  0  0
    6.0416    1.0822   19.6612 C   0  0  0  0  0  0  0  0  0  0  0  0
   10.3220   -0.8940   22.7910 C   0  0  0  0  0  0  0  0  0  0  0  0
    6.5912   -0.2039   19.6077 C   0  0  0  0  0  0  0  0  0  0  0  0
   12.6400   -1.1000   22.2390 C   0  0  0  0  0  0  0  0  0  0  0  0
    8.3880   -0.3240   21.3070 C   0  0  0  0  0  0  0  0  0  0  0  0
    2.8000    0.2353   27.2431 C   0  0  0  0  0  0  0  0  0  0  0  0
    2.9910    0.2709   25.7476 C   0  0  0  0  0  0  0  0  0  0  0  0
    3.8454   -0.7741   27.6681 C   0  0  0  0  0  0  0  0  0  0  0  0
    3.2821   -1.1888   25.4449 C   0  0  2  0  0  0  0  0  0  0  0  0
    8.3439   -2.0353   24.8302 C   0  0  0  0  0  0  0  0  0  0  0  0
    4.0976   -1.3942   24.1831 C   0  0  0  0  0  0  0  0  0  0  0  0
    6.4425   -1.3254   23.3257 C   0  0  0  0  0  0  0  0  0  0  0  0
    8.8810   -1.1900   22.4510 C   0  0  2  0  0  0  0  0  0  0  0  0
    7.9194   -1.0821   23.6998 C   0  0  2  0  0  0  0  0  0  0  0  0
    5.8141   -0.4871   17.3347 N   0  0  0  0  0  0  0  0  0  0  0  0
    7.2820   -0.7860   20.6970 N   0  0  0  0  0  0  0  0  0  0  0  0
    5.5284   -1.0997   24.4706 N   0  3  0  0  0  0  0  0  0  0  0  0
    8.9170    0.7530   21.0260 O   0  0  0  0  0  0  0  0  0  0  0  0
    4.0029   -1.6972   26.5802 O   0  0  0  0  0  0  0  0  0  0  0  0
   13.8840   -1.8490   21.2740 Cl  0  0  0  0  0  0  0  0  0  0  0  0
    4.4837    4.6523   19.7301 H   0  0  0  0  0  0  0  0  0  0  0  0
    5.6647    3.7768   21.7245 H   0  0  0  0  0  0  0  0  0  0  0  0
   12.2249    1.2198   24.6546 H   0  0  0  0  0  0  0  0  0  0  0  0
    4.2880    3.2728   17.6954 H   0  0  0  0  0  0  0  0  0  0  0  0
    6.6519    1.5367   21.7033 H   0  0  0  0  0  0  0  0  0  0  0  0
    9.8763    0.5350   24.3454 H   0  0  0  0  0  0  0  0  0  0  0  0
   14.0077    0.1988   23.2842 H   0  0  0  0  0  0  0  0  0  0  0  0
   11.0892   -2.3009   21.3624 H   0  0  0  0  0  0  0  0  0  0  0  0
    4.7856    1.0823   16.5003 H   0  0  0  0  0  0  0  0  0  0  0  0
    6.8589   -1.9374   18.3464 H   0  0  0  0  0  0  0  0  0  0  0  0
    2.9239    1.2077   27.7266 H   0  0  0  0  0  0  0  0  0  0  0  0
    1.7979   -0.1408   27.4814 H   0  0  0  0  0  0  0  0  0  0  0  0
    2.1200    0.6518   25.2073 H   0  0  0  0  0  0  0  0  0  0  0  0
    3.8523    0.9039   25.5021 H   0  0  0  0  0  0  0  0  0  0  0  0
    4.8143   -0.2927   27.8385 H   0  0  0  0  0  0  0  0  0  0  0  0
    3.5612   -1.3167   28.5741 H   0  0  0  0  0  0  0  0  0  0  0  0
    2.3465   -1.7560   25.3748 H   0  0  0  0  0  0  0  0  0  0  0  0
    8.3236   -3.0763   24.4901 H   0  0  0  0  0  0  0  0  0  0  0  0
    9.3662   -1.8274   25.1619 H   0  0  0  0  0  0  0  0  0  0  0  0
    7.6864   -1.9486   25.7014 H   0  0  0  0  0  0  0  0  0  0  0  0
    3.7843   -0.7165   23.3841 H   0  0  0  0  0  0  0  0  0  0  0  0
    4.0467   -2.4288   23.8327 H   0  0  0  0  0  0  0  0  0  0  0  0
    6.1046   -0.6640   22.5233 H   0  0  0  0  0  0  0  0  0  0  0  0
    6.2842   -2.3596   23.0027 H   0  0  0  0  0  0  0  0  0  0  0  0
    8.8227   -2.2553   22.1299 H   0  0  0  0  0  0  0  0  0  0  0  0
    7.9631   -0.0642   24.1101 H   0  0  0  0  0  0  0  0  0  0  0  0
    6.8771   -1.6492   21.0526 H   0  0  0  0  0  0  0  0  0  0  0  0
    5.6110   -0.1218   24.7860 H   0  0  0  0  0  0  0  0  0  0  0  0
    5.8333   -1.6746   25.2700 H   0  0  0  0  0  0  0  0  0  0  0  0
  1  2  1  0  0  0  0
  1  4  2  0  0  0  0
  2  5  2  0  0  0  0
  3  6  2  0  0  0  0
  3  7  1  0  0  0  0
  4 11  1  0  0  0  0
  5 12  1  0  0  0  0
  6 13  1  0  0  0  0
  7 15  2  0  0  0  0
  8 13  2  0  0  0  0
  8 15  1  0  0  0  0
  9 11  2  0  0  0  0
  9 26  1  0  0  0  0
 10 14  1  0  0  0  0
 10 26  2  0  0  0  0
 11 12  1  0  0  0  0
 12 14  2  0  0  0  0
 13 24  1  0  0  0  0
 14 27  1  0  0  0  0
 15 31  1  0  0  0  0
 16 24  1  6  0  0  0
 16 27  1  0  0  0  0
 16 29  2  0  0  0  0
 17 18  1  0  0  0  0
 17 19  1  0  0  0  0
 18 20  1  0  0  0  0
 19 30  1  0  0  0  0
 20 22  1  1  0  0  0
 20 30  1  0  0  0  0
 21 25  1  6  0  0  0
 22 28  1  0  0  0  0
 23 25  1  0  0  0  0
 23 28  1  0  0  0  0
 24 25  1  0  0  0  0
  1 32  1  0  0  0  0
  2 33  1  0  0  0  0
  3 34  1  0  0  0  0
  4 35  1  0  0  0  0
  5 36  1  0  0  0  0
  6 37  1  0  0  0  0
  7 38  1  0  0  0  0
  8 39  1  0  0  0  0
  9 40  1  0  0  0  0
 10 41  1  0  0  0  0
 17 42  1  0  0  0  0
 17 43  1  0  0  0  0
 18 44  1  0  0  0  0
 18 45  1  0  0  0  0
 19 46  1  0  0  0  0
 19 47  1  0  0  0  0
 20 48  1  0  0  0  0
 21 49  1  0  0  0  0
 21 50  1  0  0  0  0
 21 51  1  0  0  0  0
 22 52  1  0  0  0  0
 22 53  1  0  0  0  0
 23 54  1  0  0  0  0
 23 55  1  0  0  0  0
 24 56  1  0  0  0  0
 25 57  1  0  0  0  0
 27 58  1  0  0  0  0
 28 59  1  0  0  0  0
 28 60  1  0  0  0  0
M  CHG  1  28   1
M  END
> <compound>
MAK-UNK-ffc90da7-4

> <compound_smiles>
CC(CNCC1CCCO1)C(c2cccc(c2)Cl)C(=O)Nc3cncc4c3cccc4

> <enantiomer_smiles>
C[C@H](CNC[C@@H]1CCCO1)[C@H](c2cccc(c2)Cl)C(=O)Nc3cncc4c3cccc4

> <scaffold>
chlorobenzene-linker

> <clash_score>
1.3939037639831517

> <docking_score>
-3.197352409362793

> <overlap_score>
0.8344243168830872

> <MMFF_internal_energy>
147.2445749850129

> <docked_smiles>
C[C@H](C[NH2+]C[C@@H]1CCCO1)[C@H](c2cccc(c2)Cl)C(=O)Nc3cncc4c3cccc4

$$$$
MIC-UNK-5a93dd5f-5_2
  -OEChem-07262101023D

 54 57  0     1  0  0  0  0  0999 V2000
    3.4588    2.5719   20.0554 C   0  0  0  0  0  0  0  0  0  0  0  0
    4.0835    2.0505   21.1859 C   0  0  0  0  0  0  0  0  0  0  0  0
   11.9780    0.4600   23.9150 C   0  0  0  0  0  0  0  0  0  0  0  0
    3.8711    2.1742   18.7837 C   0  0  0  0  0  0  0  0  0  0  0  0
    5.1234    1.1291   21.0499 C   0  0  0  0  0  0  0  0  0  0  0  0
   10.6560    0.0720   23.7350 C   0  0  0  0  0  0  0  0  0  0  0  0
   12.9840   -0.1200   23.1530 C   0  0  0  0  0  0  0  0  0  0  0  0
   11.3360   -1.5050   22.0650 C   0  0  0  0  0  0  0  0  0  0  0  0
    5.3689    0.8151   17.3870 C   0  0  0  0  0  0  0  0  0  0  0  0
    6.9552   -0.5603   18.3181 C   0  0  0  0  0  0  0  0  0  0  0  0
    4.9163    1.2476   18.6351 C   0  0  0  0  0  0  0  0  0  0  0  0
    5.5514    0.7175   19.7772 C   0  0  0  0  0  0  0  0  0  0  0  0
   10.3220   -0.8940   22.7910 C   0  0  0  0  0  0  0  0  0  0  0  0
    6.5908   -0.2044   19.6077 C   0  0  0  0  0  0  0  0  0  0  0  0
   12.6400   -1.1000   22.2390 C   0  0  0  0  0  0  0  0  0  0  0  0
    5.9159   -5.8351   21.9007 C   0  0  0  0  0  0  0  0  0  0  0  0
    8.3880   -0.3240   21.3070 C   0  0  0  0  0  0  0  0  0  0  0  0
    8.5427   -4.7987   23.1001 C   0  0  0  0  0  0  0  0  0  0  0  0
    9.4518   -3.5940   22.9566 C   0  0  0  0  0  0  0  0  0  0  0  0
    7.1882   -3.0589   22.1862 C   0  0  0  0  0  0  0  0  0  0  0  0
    7.1730   -4.1566   23.2373 C   0  0  1  0  0  0  0  0  0  0  0  0
    4.7288   -6.7396   21.9306 C   0  0  0  0  0  0  0  0  0  0  0  0
    8.8810   -1.1900   22.4510 C   0  0  1  0  0  0  0  0  0  0  0  0
    6.3708   -0.0740   17.2025 N   0  0  0  0  0  0  0  0  0  0  0  0
    7.2820   -0.7860   20.6970 N   0  0  0  0  0  0  0  0  0  0  0  0
    6.0956   -5.0856   23.0553 N   0  0  0  0  0  0  0  0  0  0  0  0
    8.6444   -2.6293   22.1108 N   0  3  1  0  0  0  0  0  0  0  0  0
    6.6307   -5.8089   20.9057 O   0  0  0  0  0  0  0  0  0  0  0  0
    8.9170    0.7530   21.0260 O   0  0  0  0  0  0  0  0  0  0  0  0
   13.8840   -1.8490   21.2740 Cl  0  0  0  0  0  0  0  0  0  0  0  0
    2.6499    3.2883   20.1641 H   0  0  0  0  0  0  0  0  0  0  0  0
    3.7607    2.3613   22.1754 H   0  0  0  0  0  0  0  0  0  0  0  0
   12.2249    1.2198   24.6546 H   0  0  0  0  0  0  0  0  0  0  0  0
    3.3723    2.5911   17.9118 H   0  0  0  0  0  0  0  0  0  0  0  0
    5.5866    0.7453   21.9560 H   0  0  0  0  0  0  0  0  0  0  0  0
    9.8763    0.5350   24.3454 H   0  0  0  0  0  0  0  0  0  0  0  0
   14.0077    0.1988   23.2842 H   0  0  0  0  0  0  0  0  0  0  0  0
   11.0892   -2.3009   21.3624 H   0  0  0  0  0  0  0  0  0  0  0  0
    4.9234    1.1835   16.4670 H   0  0  0  0  0  0  0  0  0  0  0  0
    7.7549   -1.2720   18.1337 H   0  0  0  0  0  0  0  0  0  0  0  0
    8.6019   -5.4260   22.2020 H   0  0  0  0  0  0  0  0  0  0  0  0
    8.8071   -5.4094   23.9684 H   0  0  0  0  0  0  0  0  0  0  0  0
    9.6439   -3.1197   23.9253 H   0  0  0  0  0  0  0  0  0  0  0  0
   10.3904   -3.8075   22.4387 H   0  0  0  0  0  0  0  0  0  0  0  0
    6.9273   -3.4215   21.1859 H   0  0  0  0  0  0  0  0  0  0  0  0
    6.5622   -2.2013   22.4508 H   0  0  0  0  0  0  0  0  0  0  0  0
    7.0591   -3.7168   24.2353 H   0  0  0  0  0  0  0  0  0  0  0  0
    3.8186   -6.2517   21.5465 H   0  0  0  0  0  0  0  0  0  0  0  0
    4.8663   -7.6347   21.3029 H   0  0  0  0  0  0  0  0  0  0  0  0
    4.4538   -7.1235   22.9260 H   0  0  0  0  0  0  0  0  0  0  0  0
    8.2445   -1.0188   23.3300 H   0  0  0  0  0  0  0  0  0  0  0  0
    6.8974   -1.6551   21.0612 H   0  0  0  0  0  0  0  0  0  0  0  0
    5.4246   -5.2020   23.8158 H   0  0  0  0  0  0  0  0  0  0  0  0
    8.9442   -2.7588   21.1345 H   0  0  0  0  0  0  0  0  0  0  0  0
  1  2  1  0  0  0  0
  1  4  2  0  0  0  0
  2  5  2  0  0  0  0
  3  6  2  0  0  0  0
  3  7  1  0  0  0  0
  4 11  1  0  0  0  0
  5 12  1  0  0  0  0
  6 13  1  0  0  0  0
  7 15  2  0  0  0  0
  8 13  2  0  0  0  0
  8 15  1  0  0  0  0
  9 11  2  0  0  0  0
  9 24  1  0  0  0  0
 10 14  1  0  0  0  0
 10 24  2  0  0  0  0
 11 12  1  0  0  0  0
 12 14  2  0  0  0  0
 13 23  1  0  0  0  0
 14 25  1  0  0  0  0
 15 30  1  0  0  0  0
 16 22  1  0  0  0  0
 16 26  1  0  0  0  0
 16 28  2  0  0  0  0
 17 23  1  1  0  0  0
 17 25  1  0  0  0  0
 17 29  2  0  0  0  0
 18 19  1  0  0  0  0
 18 21  1  0  0  0  0
 19 27  1  1  0  0  0
 20 21  1  0  0  0  0
 20 27  1  0  0  0  0
 21 26  1  6  0  0  0
 23 27  1  0  0  0  0
  1 31  1  0  0  0  0
  2 32  1  0  0  0  0
  3 33  1  0  0  0  0
  4 34  1  0  0  0  0
  5 35  1  0  0  0  0
  6 36  1  0  0  0  0
  7 37  1  0  0  0  0
  8 38  1  0  0  0  0
  9 39  1  0  0  0  0
 10 40  1  0  0  0  0
 18 41  1  0  0  0  0
 18 42  1  0  0  0  0
 19 43  1  0  0  0  0
 19 44  1  0  0  0  0
 20 45  1  0  0  0  0
 20 46  1  0  0  0  0
 21 47  1  0  0  0  0
 22 48  1  0  0  0  0
 22 49  1  0  0  0  0
 22 50  1  0  0  0  0
 23 51  1  0  0  0  0
 25 52  1  0  0  0  0
 26 53  1  0  0  0  0
 27 54  1  0  0  0  0
M  CHG  1  27   1
M  END
> <compound>
MIC-UNK-5a93dd5f-5

> <compound_smiles>
CC(=O)NC1CCN(C1)C(c2cccc(c2)Cl)C(=O)Nc3cncc4c3cccc4

> <enantiomer_smiles>
CC(=O)N[C@H]1CC[N@@](C1)[C@@H](c2cccc(c2)Cl)C(=O)Nc3cncc4c3cccc4

> <scaffold>
chlorobenzene-linker

> <clash_score>
0

> <docking_score>
-9.57780647277832

> <overlap_score>
0.980529248714447

> <MMFF_internal_energy>
181.5852041033692

> <docked_smiles>
CC(=O)N[C@H]1CC[N@@H+](C1)[C@@H](c2cccc(c2)Cl)C(=O)Nc3cncc4c3cccc4

$$$$
MIC-UNK-5a93dd5f-3_12
  -OEChem-07262101023D

 60 64  0     1  0  0  0  0  0999 V2000
    4.8867    3.6427   19.7210 C   0  0  0  0  0  0  0  0  0  0  0  0
    5.5503    3.1504   20.8424 C   0  0  0  0  0  0  0  0  0  0  0  0
   11.9780    0.4600   23.9150 C   0  0  0  0  0  0  0  0  0  0  0  0
    4.7892    2.8630   18.5689 C   0  0  0  0  0  0  0  0  0  0  0  0
    6.1195    1.8760   20.8166 C   0  0  0  0  0  0  0  0  0  0  0  0
   10.6560    0.0720   23.7350 C   0  0  0  0  0  0  0  0  0  0  0  0
   12.9840   -0.1200   23.1530 C   0  0  0  0  0  0  0  0  0  0  0  0
   11.3360   -1.5050   22.0650 C   0  0  0  0  0  0  0  0  0  0  0  0
    5.2903    0.7565   17.4056 C   0  0  0  0  0  0  0  0  0  0  0  0
    6.4606   -0.9310   18.4340 C   0  0  0  0  0  0  0  0  0  0  0  0
    5.3581    1.5791   18.5317 C   0  0  0  0  0  0  0  0  0  0  0  0
    6.0308    1.0771   19.6649 C   0  0  0  0  0  0  0  0  0  0  0  0
   10.3220   -0.8940   22.7910 C   0  0  0  0  0  0  0  0  0  0  0  0
    6.5908   -0.2044   19.6077 C   0  0  0  0  0  0  0  0  0  0  0  0
   12.6400   -1.1000   22.2390 C   0  0  0  0  0  0  0  0  0  0  0  0
    8.3880   -0.3240   21.3070 C   0  0  0  0  0  0  0  0  0  0  0  0
    9.6218   -7.7758   21.9166 C   0  0  0  0  0  0  0  0  0  0  0  0
    9.3461   -7.4307   23.3774 C   0  0  0  0  0  0  0  0  0  0  0  0
    8.9348   -6.8006   20.9625 C   0  0  0  0  0  0  0  0  0  0  0  0
    9.7023   -5.9797   23.6961 C   0  0  0  0  0  0  0  0  0  0  0  0
    8.6138   -4.3687   20.3353 C   0  0  0  0  0  0  0  0  0  0  0  0
    8.9713   -2.9252   20.6638 C   0  0  0  0  0  0  0  0  0  0  0  0
    9.3651   -3.5606   23.0641 C   0  0  0  0  0  0  0  0  0  0  0  0
    9.3154   -5.3493   21.2802 C   0  0  2  0  0  0  0  0  0  0  0  0
    8.9901   -5.0083   22.7459 C   0  0  1  0  0  0  0  0  0  0  0  0
    8.8810   -1.1900   22.4510 C   0  0  2  0  0  0  0  0  0  0  0  0
    5.8245   -0.4834   17.3305 N   0  0  0  0  0  0  0  0  0  0  0  0
    7.2820   -0.7860   20.6970 N   0  0  0  0  0  0  0  0  0  0  0  0
    8.6431   -2.6374   22.1089 N   0  3  1  0  0  0  0  0  0  0  0  0
    8.9170    0.7530   21.0260 O   0  0  0  0  0  0  0  0  0  0  0  0
   13.8840   -1.8490   21.2740 Cl  0  0  0  0  0  0  0  0  0  0  0  0
    4.4446    4.6344   19.7440 H   0  0  0  0  0  0  0  0  0  0  0  0
    5.6249    3.7592   21.7389 H   0  0  0  0  0  0  0  0  0  0  0  0
   12.2249    1.2198   24.6546 H   0  0  0  0  0  0  0  0  0  0  0  0
    4.2674    3.2627   17.7024 H   0  0  0  0  0  0  0  0  0  0  0  0
    6.6299    1.5271   21.7114 H   0  0  0  0  0  0  0  0  0  0  0  0
    9.8763    0.5350   24.3454 H   0  0  0  0  0  0  0  0  0  0  0  0
   14.0077    0.1988   23.2842 H   0  0  0  0  0  0  0  0  0  0  0  0
   11.0892   -2.3009   21.3624 H   0  0  0  0  0  0  0  0  0  0  0  0
    4.7868    1.0816   16.4993 H   0  0  0  0  0  0  0  0  0  0  0  0
    6.8769   -1.9300   18.3396 H   0  0  0  0  0  0  0  0  0  0  0  0
   10.7039   -7.7582   21.7372 H   0  0  0  0  0  0  0  0  0  0  0  0
    9.2811   -8.7963   21.7086 H   0  0  0  0  0  0  0  0  0  0  0  0
    8.2848   -7.6008   23.5968 H   0  0  0  0  0  0  0  0  0  0  0  0
    9.9175   -8.1016   24.0285 H   0  0  0  0  0  0  0  0  0  0  0  0
    9.2160   -7.0448   19.9313 H   0  0  0  0  0  0  0  0  0  0  0  0
    7.8471   -6.9278   21.0349 H   0  0  0  0  0  0  0  0  0  0  0  0
    9.4254   -5.7593   24.7339 H   0  0  0  0  0  0  0  0  0  0  0  0
   10.7893   -5.8479   23.6216 H   0  0  0  0  0  0  0  0  0  0  0  0
    7.5257   -4.4994   20.3944 H   0  0  0  0  0  0  0  0  0  0  0  0
    8.9009   -4.5816   19.2987 H   0  0  0  0  0  0  0  0  0  0  0  0
   10.0394   -2.7281   20.5200 H   0  0  0  0  0  0  0  0  0  0  0  0
    8.3855   -2.2339   20.0491 H   0  0  0  0  0  0  0  0  0  0  0  0
    9.0498   -3.2895   24.0776 H   0  0  0  0  0  0  0  0  0  0  0  0
   10.4400   -3.3758   22.9542 H   0  0  0  0  0  0  0  0  0  0  0  0
   10.3997   -5.2450   21.1289 H   0  0  0  0  0  0  0  0  0  0  0  0
    7.9074   -5.1220   22.9027 H   0  0  0  0  0  0  0  0  0  0  0  0
    8.2445   -1.0188   23.3300 H   0  0  0  0  0  0  0  0  0  0  0  0
    6.8974   -1.6551   21.0612 H   0  0  0  0  0  0  0  0  0  0  0  0
    7.6344   -2.8032   22.2302 H   0  0  0  0  0  0  0  0  0  0  0  0
  1  2  1  0  0  0  0
  1  4  2  0  0  0  0
  2  5  2  0  0  0  0
  3  6  2  0  0  0  0
  3  7  1  0  0  0  0
  4 11  1  0  0  0  0
  5 12  1  0  0  0  0
  6 13  1  0  0  0  0
  7 15  2  0  0  0  0
  8 13  2  0  0  0  0
  8 15  1  0  0  0  0
  9 11  2  0  0  0  0
  9 27  1  0  0  0  0
 10 14  1  0  0  0  0
 10 27  2  0  0  0  0
 11 12  1  0  0  0  0
 12 14  2  0  0  0  0
 13 26  1  0  0  0  0
 14 28  1  0  0  0  0
 15 31  1  0  0  0  0
 16 26  1  6  0  0  0
 16 28  1  0  0  0  0
 16 30  2  0  0  0  0
 17 18  1  0  0  0  0
 17 19  1  0  0  0  0
 18 20  1  0  0  0  0
 19 24  1  0  0  0  0
 20 25  1  6  0  0  0
 21 22  1  0  0  0  0
 21 24  1  1  0  0  0
 22 29  1  0  0  0  0
 23 25  1  0  0  0  0
 23 29  1  6  0  0  0
 24 25  1  0  0  0  0
 26 29  1  0  0  0  0
  1 32  1  0  0  0  0
  2 33  1  0  0  0  0
  3 34  1  0  0  0  0
  4 35  1  0  0  0  0
  5 36  1  0  0  0  0
  6 37  1  0  0  0  0
  7 38  1  0  0  0  0
  8 39  1  0  0  0  0
  9 40  1  0  0  0  0
 10 41  1  0  0  0  0
 17 42  1  0  0  0  0
 17 43  1  0  0  0  0
 18 44  1  0  0  0  0
 18 45  1  0  0  0  0
 19 46  1  0  0  0  0
 19 47  1  0  0  0  0
 20 48  1  0  0  0  0
 20 49  1  0  0  0  0
 21 50  1  0  0  0  0
 21 51  1  0  0  0  0
 22 52  1  0  0  0  0
 22 53  1  0  0  0  0
 23 54  1  0  0  0  0
 23 55  1  0  0  0  0
 24 56  1  0  0  0  0
 25 57  1  0  0  0  0
 26 58  1  0  0  0  0
 28 59  1  0  0  0  0
 29 60  1  0  0  0  0
M  CHG  1  29   1
M  END
> <compound>
MIC-UNK-5a93dd5f-3

> <compound_smiles>
c1ccc2c(c1)cncc2NC(=O)C(c3cccc(c3)Cl)N4CCC5CCCCC5C4

> <enantiomer_smiles>
c1ccc2c(c1)cncc2NC(=O)[C@H](c3cccc(c3)Cl)[N@]4CC[C@@H]5CCCC[C@H]5C4

> <scaffold>
chlorobenzene-linker

> <clash_score>
4.802871706918083

> <docking_score>
1.7821062803268433

> <overlap_score>
0.8397467732429504

> <MMFF_internal_energy>
206.32554392402074

> <docked_smiles>
c1ccc2c(c1)cncc2NC(=O)[C@H](c3cccc(c3)Cl)[N@H+]4CC[C@@H]5CCCC[C@H]5C4

$$$$
MIC-UNK-5a93dd5f-3_11
  -OEChem-07262101023D

 60 64  0     1  0  0  0  0  0999 V2000
    2.5657    1.0132   19.7900 C   0  0  0  0  0  0  0  0  0  0  0  0
    3.1660    0.4495   20.9134 C   0  0  0  0  0  0  0  0  0  0  0  0
   11.9780    0.4600   23.9150 C   0  0  0  0  0  0  0  0  0  0  0  0
    3.2968    1.1719   18.6130 C   0  0  0  0  0  0  0  0  0  0  0  0
    4.5003    0.0420   20.8649 C   0  0  0  0  0  0  0  0  0  0  0  0
   10.6560    0.0720   23.7350 C   0  0  0  0  0  0  0  0  0  0  0  0
   12.9840   -0.1200   23.1530 C   0  0  0  0  0  0  0  0  0  0  0  0
   11.3360   -1.5050   22.0650 C   0  0  0  0  0  0  0  0  0  0  0  0
    5.4182    0.9006   17.4014 C   0  0  0  0  0  0  0  0  0  0  0  0
    7.2646   -0.0206   18.4099 C   0  0  0  0  0  0  0  0  0  0  0  0
    4.6401    0.7653   18.5528 C   0  0  0  0  0  0  0  0  0  0  0  0
    5.2515    0.1942   19.6881 C   0  0  0  0  0  0  0  0  0  0  0  0
   10.3220   -0.8940   22.7910 C   0  0  0  0  0  0  0  0  0  0  0  0
    6.5908   -0.2044   19.6077 C   0  0  0  0  0  0  0  0  0  0  0  0
   12.6400   -1.1000   22.2390 C   0  0  0  0  0  0  0  0  0  0  0  0
    8.3880   -0.3240   21.3070 C   0  0  0  0  0  0  0  0  0  0  0  0
    5.0104   -2.5671   27.6787 C   0  0  0  0  0  0  0  0  0  0  0  0
    6.4590   -2.8778   28.0447 C   0  0  0  0  0  0  0  0  0  0  0  0
    4.9107   -1.4148   26.6808 C   0  0  0  0  0  0  0  0  0  0  0  0
    7.3183   -3.1246   26.8059 C   0  0  0  0  0  0  0  0  0  0  0  0
    5.6767   -0.5208   24.4393 C   0  0  0  0  0  0  0  0  0  0  0  0
    6.5401   -0.7738   23.2105 C   0  0  0  0  0  0  0  0  0  0  0  0
    8.0791   -2.2158   24.5787 C   0  0  0  0  0  0  0  0  0  0  0  0
    5.7619   -1.6831   25.4336 C   0  0  2  0  0  0  0  0  0  0  0  0
    7.2275   -1.9520   25.8208 C   0  0  1  0  0  0  0  0  0  0  0  0
    8.8810   -1.1900   22.4510 C   0  0  1  0  0  0  0  0  0  0  0  0
    6.7126    0.5221   17.3038 N   0  0  0  0  0  0  0  0  0  0  0  0
    7.2820   -0.7860   20.6970 N   0  0  0  0  0  0  0  0  0  0  0  0
    7.9638   -1.0391   23.6364 N   0  3  1  0  0  0  0  0  0  0  0  0
    8.9170    0.7530   21.0260 O   0  0  0  0  0  0  0  0  0  0  0  0
   13.8840   -1.8490   21.2740 Cl  0  0  0  0  0  0  0  0  0  0  0  0
    1.5274    1.3292   19.8304 H   0  0  0  0  0  0  0  0  0  0  0  0
    2.5946    0.3266   21.8291 H   0  0  0  0  0  0  0  0  0  0  0  0
   12.2249    1.2198   24.6546 H   0  0  0  0  0  0  0  0  0  0  0  0
    2.8126    1.6137   17.7451 H   0  0  0  0  0  0  0  0  0  0  0  0
    4.9337   -0.3930   21.7626 H   0  0  0  0  0  0  0  0  0  0  0  0
    9.8763    0.5350   24.3454 H   0  0  0  0  0  0  0  0  0  0  0  0
   14.0077    0.1988   23.2842 H   0  0  0  0  0  0  0  0  0  0  0  0
   11.0892   -2.3009   21.3624 H   0  0  0  0  0  0  0  0  0  0  0  0
    5.0091    1.3323   16.4920 H   0  0  0  0  0  0  0  0  0  0  0  0
    8.3044   -0.3139   18.2966 H   0  0  0  0  0  0  0  0  0  0  0  0
    4.5444   -3.4620   27.2481 H   0  0  0  0  0  0  0  0  0  0  0  0
    4.4465   -2.3192   28.5850 H   0  0  0  0  0  0  0  0  0  0  0  0
    6.8772   -2.0399   28.6159 H   0  0  0  0  0  0  0  0  0  0  0  0
    6.4934   -3.7571   28.6977 H   0  0  0  0  0  0  0  0  0  0  0  0
    3.8615   -1.2733   26.3954 H   0  0  0  0  0  0  0  0  0  0  0  0
    5.2373   -0.4859   27.1654 H   0  0  0  0  0  0  0  0  0  0  0  0
    8.3599   -3.2762   27.1131 H   0  0  0  0  0  0  0  0  0  0  0  0
    6.9924   -4.0514   26.3167 H   0  0  0  0  0  0  0  0  0  0  0  0
    5.9909    0.4135   24.9219 H   0  0  0  0  0  0  0  0  0  0  0  0
    4.6367   -0.3778   24.1229 H   0  0  0  0  0  0  0  0  0  0  0  0
    6.1949   -1.6455   22.6436 H   0  0  0  0  0  0  0  0  0  0  0  0
    6.5498    0.1061   22.5588 H   0  0  0  0  0  0  0  0  0  0  0  0
    9.1371   -2.3156   24.8449 H   0  0  0  0  0  0  0  0  0  0  0  0
    7.7537   -3.1095   24.0337 H   0  0  0  0  0  0  0  0  0  0  0  0
    5.3605   -2.5794   24.9387 H   0  0  0  0  0  0  0  0  0  0  0  0
    7.6284   -1.0606   26.3256 H   0  0  0  0  0  0  0  0  0  0  0  0
    8.7698   -2.2472   22.1731 H   0  0  0  0  0  0  0  0  0  0  0  0
    6.8974   -1.6551   21.0612 H   0  0  0  0  0  0  0  0  0  0  0  0
    8.2879   -0.2069   24.1484 H   0  0  0  0  0  0  0  0  0  0  0  0
  1  2  1  0  0  0  0
  1  4  2  0  0  0  0
  2  5  2  0  0  0  0
  3  6  2  0  0  0  0
  3  7  1  0  0  0  0
  4 11  1  0  0  0  0
  5 12  1  0  0  0  0
  6 13  1  0  0  0  0
  7 15  2  0  0  0  0
  8 13  2  0  0  0  0
  8 15  1  0  0  0  0
  9 11  2  0  0  0  0
  9 27  1  0  0  0  0
 10 14  1  0  0  0  0
 10 27  2  0  0  0  0
 11 12  1  0  0  0  0
 12 14  2  0  0  0  0
 13 26  1  0  0  0  0
 14 28  1  0  0  0  0
 15 31  1  0  0  0  0
 16 26  1  1  0  0  0
 16 28  1  0  0  0  0
 16 30  2  0  0  0  0
 17 18  1  0  0  0  0
 17 19  1  0  0  0  0
 18 20  1  0  0  0  0
 19 24  1  0  0  0  0
 20 25  1  6  0  0  0
 21 22  1  0  0  0  0
 21 24  1  1  0  0  0
 22 29  1  0  0  0  0
 23 25  1  0  0  0  0
 23 29  1  6  0  0  0
 24 25  1  0  0  0  0
 26 29  1  0  0  0  0
  1 32  1  0  0  0  0
  2 33  1  0  0  0  0
  3 34  1  0  0  0  0
  4 35  1  0  0  0  0
  5 36  1  0  0  0  0
  6 37  1  0  0  0  0
  7 38  1  0  0  0  0
  8 39  1  0  0  0  0
  9 40  1  0  0  0  0
 10 41  1  0  0  0  0
 17 42  1  0  0  0  0
 17 43  1  0  0  0  0
 18 44  1  0  0  0  0
 18 45  1  0  0  0  0
 19 46  1  0  0  0  0
 19 47  1  0  0  0  0
 20 48  1  0  0  0  0
 20 49  1  0  0  0  0
 21 50  1  0  0  0  0
 21 51  1  0  0  0  0
 22 52  1  0  0  0  0
 22 53  1  0  0  0  0
 23 54  1  0  0  0  0
 23 55  1  0  0  0  0
 24 56  1  0  0  0  0
 25 57  1  0  0  0  0
 26 58  1  0  0  0  0
 28 59  1  0  0  0  0
 29 60  1  0  0  0  0
M  CHG  1  29   1
M  END
> <compound>
MIC-UNK-5a93dd5f-3

> <compound_smiles>
c1ccc2c(c1)cncc2NC(=O)C(c3cccc(c3)Cl)N4CCC5CCCCC5C4

> <enantiomer_smiles>
c1ccc2c(c1)cncc2NC(=O)[C@@H](c3cccc(c3)Cl)[N@]4CC[C@@H]5CCCC[C@H]5C4

> <scaffold>
chlorobenzene-linker

> <clash_score>
0

> <docking_score>
-4.718451976776123

> <overlap_score>
0.895618200302124

> <MMFF_internal_energy>
179.5186143352384

> <docked_smiles>
c1ccc2c(c1)cncc2NC(=O)[C@@H](c3cccc(c3)Cl)[N@H+]4CC[C@@H]5CCCC[C@H]5C4

$$$$
MAK-UNK-ffc90da7-9_8
  -OEChem-07262101023D

 58 61  0     1  0  0  0  0  0999 V2000
   11.9780    0.4600   23.9150 C   0  0  0  0  0  0  0  0  0  0  0  0
    4.4258   -1.1215   20.3410 C   0  0  0  0  0  0  0  0  0  0  0  0
   10.6560    0.0720   23.7350 C   0  0  0  0  0  0  0  0  0  0  0  0
    3.0521   -1.2609   20.1354 C   0  0  0  0  0  0  0  0  0  0  0  0
   12.9840   -0.1200   23.1530 C   0  0  0  0  0  0  0  0  0  0  0  0
    3.2103    0.0769   18.1314 C   0  0  0  0  0  0  0  0  0  0  0  0
   11.3360   -1.5050   22.0650 C   0  0  0  0  0  0  0  0  0  0  0  0
    5.4061    0.9528   17.4579 C   0  0  0  0  0  0  0  0  0  0  0  0
    7.2960    0.5250   18.6908 C   0  0  0  0  0  0  0  0  0  0  0  0
    5.2110   -0.3801   19.4431 C   0  0  0  0  0  0  0  0  0  0  0  0
    4.5934    0.2236   18.3283 C   0  0  0  0  0  0  0  0  0  0  0  0
    2.4458   -0.6630   19.0331 C   0  0  0  0  0  0  0  0  0  0  0  0
   10.3220   -0.8940   22.7910 C   0  0  0  0  0  0  0  0  0  0  0  0
    6.5902   -0.2221   19.6216 C   0  0  0  0  0  0  0  0  0  0  0  0
   12.6400   -1.1000   22.2390 C   0  0  0  0  0  0  0  0  0  0  0  0
    8.3880   -0.3240   21.3070 C   0  0  0  0  0  0  0  0  0  0  0  0
    0.8301    3.0686   21.3137 C   0  0  0  0  0  0  0  0  0  0  0  0
    1.7379    4.2310   20.9561 C   0  0  0  0  0  0  0  0  0  0  0  0
   -0.1289    3.0044   20.1412 C   0  0  2  0  0  0  0  0  0  0  0  0
   -0.2828    4.4909   19.8177 C   0  0  1  0  0  0  0  0  0  0  0  0
   -0.7455    4.8699   18.4218 C   0  0  0  0  0  0  0  0  0  0  0  0
    0.4695   -2.1886   19.3113 C   0  0  0  0  0  0  0  0  0  0  0  0
    8.8810   -1.1900   22.4510 C   0  0  0  0  0  0  0  0  0  0  0  0
    0.1850    0.3471   19.4723 C   0  0  0  0  0  0  0  0  0  0  0  0
    0.9777   -0.8148   18.8176 C   0  0  2  0  0  0  0  0  0  0  0  0
    6.7392    1.1171   17.6128 N   0  0  0  0  0  0  0  0  0  0  0  0
    7.2820   -0.7860   20.6970 N   0  0  0  0  0  0  0  0  0  0  0  0
    8.9170    0.7530   21.0260 O   0  0  0  0  0  0  0  0  0  0  0  0
    0.9938    5.0990   20.0883 O   0  0  0  0  0  0  0  0  0  0  0  0
    0.5809    1.9897   18.7957 S   0  0  0  0  0  0  0  0  0  0  0  0
   13.8840   -1.8490   21.2740 Cl  0  0  0  0  0  0  0  0  0  0  0  0
   12.2249    1.2198   24.6546 H   0  0  0  0  0  0  0  0  0  0  0  0
    4.8623   -1.6035   21.2129 H   0  0  0  0  0  0  0  0  0  0  0  0
    9.8763    0.5350   24.3454 H   0  0  0  0  0  0  0  0  0  0  0  0
    2.4626   -1.8396   20.8418 H   0  0  0  0  0  0  0  0  0  0  0  0
   14.0077    0.1988   23.2842 H   0  0  0  0  0  0  0  0  0  0  0  0
    2.7291    0.5405   17.2725 H   0  0  0  0  0  0  0  0  0  0  0  0
   11.0892   -2.3009   21.3624 H   0  0  0  0  0  0  0  0  0  0  0  0
    4.9939    1.4448   16.5809 H   0  0  0  0  0  0  0  0  0  0  0  0
    8.3675    0.6770   18.7841 H   0  0  0  0  0  0  0  0  0  0  0  0
    1.3787    2.1466   21.5290 H   0  0  0  0  0  0  0  0  0  0  0  0
    0.2676    3.3265   22.2205 H   0  0  0  0  0  0  0  0  0  0  0  0
    2.0641    4.7890   21.8387 H   0  0  0  0  0  0  0  0  0  0  0  0
    2.6266    3.8951   20.4121 H   0  0  0  0  0  0  0  0  0  0  0  0
   -1.0847    2.5482   20.4096 H   0  0  0  0  0  0  0  0  0  0  0  0
   -0.9860    4.9292   20.5383 H   0  0  0  0  0  0  0  0  0  0  0  0
   -0.0699    4.4515   17.6732 H   0  0  0  0  0  0  0  0  0  0  0  0
   -0.7610    5.9559   18.3108 H   0  0  0  0  0  0  0  0  0  0  0  0
   -1.7509    4.4852   18.2396 H   0  0  0  0  0  0  0  0  0  0  0  0
    0.6499   -2.2939   20.3873 H   0  0  0  0  0  0  0  0  0  0  0  0
   -0.6046   -2.3205   19.1477 H   0  0  0  0  0  0  0  0  0  0  0  0
    0.9868   -3.0115   18.8060 H   0  0  0  0  0  0  0  0  0  0  0  0
    8.7775   -2.2383   22.1732 H   0  0  0  0  0  0  0  0  0  0  0  0
    8.2557   -1.0153   23.3257 H   0  0  0  0  0  0  0  0  0  0  0  0
    0.3633    0.3782   20.5526 H   0  0  0  0  0  0  0  0  0  0  0  0
   -0.8893    0.1877   19.3248 H   0  0  0  0  0  0  0  0  0  0  0  0
    0.7626   -0.7823   17.7303 H   0  0  0  0  0  0  0  0  0  0  0  0
    6.8981   -1.6619   21.0675 H   0  0  0  0  0  0  0  0  0  0  0  0
  1  3  2  0  0  0  0
  1  5  1  0  0  0  0
  2  4  2  0  0  0  0
  2 10  1  0  0  0  0
  3 13  1  0  0  0  0
  4 12  1  0  0  0  0
  5 15  2  0  0  0  0
  6 11  1  0  0  0  0
  6 12  2  0  0  0  0
  7 13  2  0  0  0  0
  7 15  1  0  0  0  0
  8 11  2  0  0  0  0
  8 26  1  0  0  0  0
  9 14  1  0  0  0  0
  9 26  2  0  0  0  0
 10 11  1  0  0  0  0
 10 14  2  0  0  0  0
 12 25  1  0  0  0  0
 13 23  1  0  0  0  0
 14 27  1  0  0  0  0
 15 31  1  0  0  0  0
 16 23  1  0  0  0  0
 16 27  1  0  0  0  0
 16 28  2  0  0  0  0
 17 18  1  0  0  0  0
 17 19  1  0  0  0  0
 18 29  1  0  0  0  0
 19 20  1  0  0  0  0
 19 30  1  6  0  0  0
 20 21  1  6  0  0  0
 20 29  1  0  0  0  0
 22 25  1  6  0  0  0
 24 25  1  0  0  0  0
 24 30  1  0  0  0  0
  1 32  1  0  0  0  0
  2 33  1  0  0  0  0
  3 34  1  0  0  0  0
  4 35  1  0  0  0  0
  5 36  1  0  0  0  0
  6 37  1  0  0  0  0
  7 38  1  0  0  0  0
  8 39  1  0  0  0  0
  9 40  1  0  0  0  0
 17 41  1  0  0  0  0
 17 42  1  0  0  0  0
 18 43  1  0  0  0  0
 18 44  1  0  0  0  0
 19 45  1  0  0  0  0
 20 46  1  0  0  0  0
 21 47  1  0  0  0  0
 21 48  1  0  0  0  0
 21 49  1  0  0  0  0
 22 50  1  0  0  0  0
 22 51  1  0  0  0  0
 22 52  1  0  0  0  0
 23 53  1  0  0  0  0
 23 54  1  0  0  0  0
 24 55  1  0  0  0  0
 24 56  1  0  0  0  0
 25 57  1  0  0  0  0
 27 58  1  0  0  0  0
M  END
> <compound>
MAK-UNK-ffc90da7-9

> <compound_smiles>
CC1C(CCO1)SCC(C)c2ccc3c(c2)cncc3NC(=O)Cc4cccc(c4)Cl

> <enantiomer_smiles>
C[C@H]1[C@H](CCO1)SC[C@H](C)c2ccc3c(c2)cncc3NC(=O)Cc4cccc(c4)Cl

> <scaffold>
chlorobenzene-linker

> <clash_score>
11.914337982525288

> <docking_score>
3.2159175872802734

> <overlap_score>
0.7678313851356506

> <MMFF_internal_energy>
132.82239119653408

> <docked_smiles>
C[C@H]1[C@H](CCO1)SC[C@H](C)c2ccc3c(c2)cncc3NC(=O)Cc4cccc(c4)Cl

$$$$
MIC-UNK-5a93dd5f-3_16
  -OEChem-07262101023D

 60 64  0     1  0  0  0  0  0999 V2000
    2.5657    1.0132   19.7900 C   0  0  0  0  0  0  0  0  0  0  0  0
    3.1660    0.4495   20.9134 C   0  0  0  0  0  0  0  0  0  0  0  0
   11.9780    0.4600   23.9150 C   0  0  0  0  0  0  0  0  0  0  0  0
    3.2968    1.1719   18.6130 C   0  0  0  0  0  0  0  0  0  0  0  0
    4.5003    0.0420   20.8649 C   0  0  0  0  0  0  0  0  0  0  0  0
   10.6560    0.0720   23.7350 C   0  0  0  0  0  0  0  0  0  0  0  0
   12.9840   -0.1200   23.1530 C   0  0  0  0  0  0  0  0  0  0  0  0
   11.3360   -1.5050   22.0650 C   0  0  0  0  0  0  0  0  0  0  0  0
    5.4182    0.9006   17.4014 C   0  0  0  0  0  0  0  0  0  0  0  0
    7.2646   -0.0206   18.4099 C   0  0  0  0  0  0  0  0  0  0  0  0
    4.6401    0.7653   18.5528 C   0  0  0  0  0  0  0  0  0  0  0  0
    5.2515    0.1942   19.6881 C   0  0  0  0  0  0  0  0  0  0  0  0
   10.3220   -0.8940   22.7910 C   0  0  0  0  0  0  0  0  0  0  0  0
    6.5908   -0.2044   19.6077 C   0  0  0  0  0  0  0  0  0  0  0  0
   12.6400   -1.1000   22.2390 C   0  0  0  0  0  0  0  0  0  0  0  0
    8.3880   -0.3240   21.3070 C   0  0  0  0  0  0  0  0  0  0  0  0
    8.2875   -7.7091   22.2014 C   0  0  0  0  0  0  0  0  0  0  0  0
    9.0489   -7.4254   23.4959 C   0  0  0  0  0  0  0  0  0  0  0  0
    8.7401   -6.8039   21.0641 C   0  0  0  0  0  0  0  0  0  0  0  0
    9.6451   -6.0188   23.5624 C   0  0  0  0  0  0  0  0  0  0  0  0
    9.2543   -4.4129   20.4401 C   0  0  0  0  0  0  0  0  0  0  0  0
    8.9689   -2.9301   20.6637 C   0  0  0  0  0  0  0  0  0  0  0  0
    9.3366   -3.5732   23.0616 C   0  0  0  0  0  0  0  0  0  0  0  0
    8.4748   -5.3253   21.3927 C   0  0  1  0  0  0  0  0  0  0  0  0
    8.7517   -4.9783   22.8783 C   0  0  1  0  0  0  0  0  0  0  0  0
    8.8810   -1.1900   22.4510 C   0  0  2  0  0  0  0  0  0  0  0  0
    6.7126    0.5221   17.3038 N   0  0  0  0  0  0  0  0  0  0  0  0
    7.2820   -0.7860   20.6970 N   0  0  0  0  0  0  0  0  0  0  0  0
    8.6433   -2.6361   22.1092 N   0  3  1  0  0  0  0  0  0  0  0  0
    8.9170    0.7530   21.0260 O   0  0  0  0  0  0  0  0  0  0  0  0
   13.8840   -1.8490   21.2740 Cl  0  0  0  0  0  0  0  0  0  0  0  0
    1.5274    1.3292   19.8304 H   0  0  0  0  0  0  0  0  0  0  0  0
    2.5946    0.3266   21.8291 H   0  0  0  0  0  0  0  0  0  0  0  0
   12.2249    1.2198   24.6546 H   0  0  0  0  0  0  0  0  0  0  0  0
    2.8126    1.6137   17.7451 H   0  0  0  0  0  0  0  0  0  0  0  0
    4.9337   -0.3930   21.7626 H   0  0  0  0  0  0  0  0  0  0  0  0
    9.8763    0.5350   24.3454 H   0  0  0  0  0  0  0  0  0  0  0  0
   14.0077    0.1988   23.2842 H   0  0  0  0  0  0  0  0  0  0  0  0
   11.0892   -2.3009   21.3624 H   0  0  0  0  0  0  0  0  0  0  0  0
    5.0092    1.3323   16.4920 H   0  0  0  0  0  0  0  0  0  0  0  0
    8.3044   -0.3139   18.2966 H   0  0  0  0  0  0  0  0  0  0  0  0
    8.4215   -8.7630   21.9203 H   0  0  0  0  0  0  0  0  0  0  0  0
    7.2117   -7.5702   22.3759 H   0  0  0  0  0  0  0  0  0  0  0  0
    8.3729   -7.5779   24.3588 H   0  0  0  0  0  0  0  0  0  0  0  0
    9.8564   -8.1712   23.6163 H   0  0  0  0  0  0  0  0  0  0  0  0
    9.7940   -6.9644   20.8575 H   0  0  0  0  0  0  0  0  0  0  0  0
    8.1825   -7.0653   20.1668 H   0  0  0  0  0  0  0  0  0  0  0  0
    9.7946   -5.7447   24.6159 H   0  0  0  0  0  0  0  0  0  0  0  0
   10.6402   -6.0548   23.1095 H   0  0  0  0  0  0  0  0  0  0  0  0
    8.9894   -4.6617   19.3964 H   0  0  0  0  0  0  0  0  0  0  0  0
   10.3404   -4.5988   20.5127 H   0  0  0  0  0  0  0  0  0  0  0  0
    9.8226   -2.3041   20.3775 H   0  0  0  0  0  0  0  0  0  0  0  0
    8.0988   -2.6066   20.0781 H   0  0  0  0  0  0  0  0  0  0  0  0
    9.1029   -3.2118   24.0483 H   0  0  0  0  0  0  0  0  0  0  0  0
   10.3920   -3.5314   22.8829 H   0  0  0  0  0  0  0  0  0  0  0  0
    7.4080   -5.1463   21.1972 H   0  0  0  0  0  0  0  0  0  0  0  0
    7.8044   -4.9959   23.4068 H   0  0  0  0  0  0  0  0  0  0  0  0
    8.2445   -1.0188   23.3300 H   0  0  0  0  0  0  0  0  0  0  0  0
    6.8974   -1.6551   21.0612 H   0  0  0  0  0  0  0  0  0  0  0  0
    7.6777   -2.7802   22.2292 H   0  0  0  0  0  0  0  0  0  0  0  0
  1  2  1  0  0  0  0
  1  4  2  0  0  0  0
  2  5  2  0  0  0  0
  3  6  2  0  0  0  0
  3  7  1  0  0  0  0
  4 11  1  0  0  0  0
  5 12  1  0  0  0  0
  6 13  1  0  0  0  0
  7 15  2  0  0  0  0
  8 13  2  0  0  0  0
  8 15  1  0  0  0  0
  9 11  2  0  0  0  0
  9 27  1  0  0  0  0
 10 14  1  0  0  0  0
 10 27  2  0  0  0  0
 11 12  1  0  0  0  0
 12 14  2  0  0  0  0
 13 26  1  0  0  0  0
 14 28  1  0  0  0  0
 15 31  1  0  0  0  0
 16 26  1  6  0  0  0
 16 28  1  0  0  0  0
 16 30  2  0  0  0  0
 17 18  1  0  0  0  0
 17 19  1  0  0  0  0
 18 20  1  0  0  0  0
 19 24  1  0  0  0  0
 20 25  1  6  0  0  0
 21 22  1  0  0  0  0
 21 24  1  6  0  0  0
 22 29  1  0  0  0  0
 23 25  1  0  0  0  0
 23 29  1  6  0  0  0
 24 25  1  0  0  0  0
 26 29  1  0  0  0  0
  1 32  1  0  0  0  0
  2 33  1  0  0  0  0
  3 34  1  0  0  0  0
  4 35  1  0  0  0  0
  5 36  1  0  0  0  0
  6 37  1  0  0  0  0
  7 38  1  0  0  0  0
  8 39  1  0  0  0  0
  9 40  1  0  0  0  0
 10 41  1  0  0  0  0
 17 42  1  0  0  0  0
 17 43  1  0  0  0  0
 18 44  1  0  0  0  0
 18 45  1  0  0  0  0
 19 46  1  0  0  0  0
 19 47  1  0  0  0  0
 20 48  1  0  0  0  0
 20 49  1  0  0  0  0
 21 50  1  0  0  0  0
 21 51  1  0  0  0  0
 22 52  1  0  0  0  0
 22 53  1  0  0  0  0
 23 54  1  0  0  0  0
 23 55  1  0  0  0  0
 24 56  1  0  0  0  0
 25 57  1  0  0  0  0
 26 58  1  0  0  0  0
 28 59  1  0  0  0  0
 29 60  1  0  0  0  0
M  CHG  1  29   1
M  END
> <compound>
MIC-UNK-5a93dd5f-3

> <compound_smiles>
c1ccc2c(c1)cncc2NC(=O)C(c3cccc(c3)Cl)N4CCC5CCCCC5C4

> <enantiomer_smiles>
c1ccc2c(c1)cncc2NC(=O)[C@H](c3cccc(c3)Cl)[N@]4CC[C@H]5CCCC[C@H]5C4

> <scaffold>
chlorobenzene-linker

> <clash_score>
2.644437945252226

> <docking_score>
0.6741716861724854

> <overlap_score>
0.8959596157073975

> <MMFF_internal_energy>
198.2357882589604

> <docked_smiles>
c1ccc2c(c1)cncc2NC(=O)[C@H](c3cccc(c3)Cl)[N@H+]4CC[C@H]5CCCC[C@H]5C4

$$$$
MAK-UNK-ffc90da7-9_6
  -OEChem-07262101023D

 58 61  0     1  0  0  0  0  0999 V2000
   11.9780    0.4600   23.9150 C   0  0  0  0  0  0  0  0  0  0  0  0
    4.4258   -1.1215   20.3410 C   0  0  0  0  0  0  0  0  0  0  0  0
   10.6560    0.0720   23.7350 C   0  0  0  0  0  0  0  0  0  0  0  0
    3.0521   -1.2609   20.1354 C   0  0  0  0  0  0  0  0  0  0  0  0
   12.9840   -0.1200   23.1530 C   0  0  0  0  0  0  0  0  0  0  0  0
    3.2103    0.0769   18.1314 C   0  0  0  0  0  0  0  0  0  0  0  0
   11.3360   -1.5050   22.0650 C   0  0  0  0  0  0  0  0  0  0  0  0
    5.4060    0.9528   17.4579 C   0  0  0  0  0  0  0  0  0  0  0  0
    7.2960    0.5250   18.6908 C   0  0  0  0  0  0  0  0  0  0  0  0
    5.2110   -0.3801   19.4431 C   0  0  0  0  0  0  0  0  0  0  0  0
    4.5934    0.2236   18.3283 C   0  0  0  0  0  0  0  0  0  0  0  0
    2.4457   -0.6630   19.0331 C   0  0  0  0  0  0  0  0  0  0  0  0
   10.3220   -0.8940   22.7910 C   0  0  0  0  0  0  0  0  0  0  0  0
    6.5902   -0.2221   19.6216 C   0  0  0  0  0  0  0  0  0  0  0  0
   12.6400   -1.1000   22.2390 C   0  0  0  0  0  0  0  0  0  0  0  0
    8.3880   -0.3240   21.3070 C   0  0  0  0  0  0  0  0  0  0  0  0
   -0.6388    3.1904   22.1816 C   0  0  0  0  0  0  0  0  0  0  0  0
    0.6627    3.8065   22.6517 C   0  0  0  0  0  0  0  0  0  0  0  0
   -0.2568    1.7545   21.8910 C   0  0  1  0  0  0  0  0  0  0  0  0
    0.8308    1.4860   22.9293 C   0  0  1  0  0  0  0  0  0  0  0  0
    0.2623    0.9122   24.2243 C   0  0  0  0  0  0  0  0  0  0  0  0
    0.5870   -2.2920   18.5839 C   0  0  0  0  0  0  0  0  0  0  0  0
    8.8810   -1.1900   22.4510 C   0  0  0  0  0  0  0  0  0  0  0  0
    0.1658   -0.1958   19.9858 C   0  0  0  0  0  0  0  0  0  0  0  0
    0.9777   -0.8148   18.8176 C   0  0  2  0  0  0  0  0  0  0  0  0
    6.7392    1.1171   17.6128 N   0  0  0  0  0  0  0  0  0  0  0  0
    7.2820   -0.7860   20.6970 N   0  0  0  0  0  0  0  0  0  0  0  0
    8.9170    0.7530   21.0260 O   0  0  0  0  0  0  0  0  0  0  0  0
    1.4362    2.7545   23.2430 O   0  0  0  0  0  0  0  0  0  0  0  0
    0.4161    1.5946   20.1969 S   0  0  0  0  0  0  0  0  0  0  0  0
   13.8840   -1.8490   21.2740 Cl  0  0  0  0  0  0  0  0  0  0  0  0
   12.2249    1.2198   24.6546 H   0  0  0  0  0  0  0  0  0  0  0  0
    4.8623   -1.6035   21.2129 H   0  0  0  0  0  0  0  0  0  0  0  0
    9.8763    0.5350   24.3454 H   0  0  0  0  0  0  0  0  0  0  0  0
    2.4626   -1.8396   20.8418 H   0  0  0  0  0  0  0  0  0  0  0  0
   14.0077    0.1988   23.2842 H   0  0  0  0  0  0  0  0  0  0  0  0
    2.7291    0.5405   17.2725 H   0  0  0  0  0  0  0  0  0  0  0  0
   11.0892   -2.3009   21.3624 H   0  0  0  0  0  0  0  0  0  0  0  0
    4.9938    1.4447   16.5809 H   0  0  0  0  0  0  0  0  0  0  0  0
    8.3675    0.6770   18.7841 H   0  0  0  0  0  0  0  0  0  0  0  0
   -1.3586    3.2088   23.0096 H   0  0  0  0  0  0  0  0  0  0  0  0
   -1.0948    3.7347   21.3489 H   0  0  0  0  0  0  0  0  0  0  0  0
    1.2381    4.2182   21.8160 H   0  0  0  0  0  0  0  0  0  0  0  0
    0.5055    4.6019   23.3859 H   0  0  0  0  0  0  0  0  0  0  0  0
   -1.1022    1.0662   21.9601 H   0  0  0  0  0  0  0  0  0  0  0  0
    1.6129    0.8074   22.5708 H   0  0  0  0  0  0  0  0  0  0  0  0
   -0.5200    1.5663   24.6070 H   0  0  0  0  0  0  0  0  0  0  0  0
    1.0518    0.8281   24.9698 H   0  0  0  0  0  0  0  0  0  0  0  0
   -0.1585   -0.0750   24.0384 H   0  0  0  0  0  0  0  0  0  0  0  0
    0.8481   -2.8953   19.4610 H   0  0  0  0  0  0  0  0  0  0  0  0
   -0.4864   -2.4182   18.4109 H   0  0  0  0  0  0  0  0  0  0  0  0
    1.1151   -2.7138   17.7218 H   0  0  0  0  0  0  0  0  0  0  0  0
    8.7775   -2.2383   22.1732 H   0  0  0  0  0  0  0  0  0  0  0  0
    8.2557   -1.0153   23.3257 H   0  0  0  0  0  0  0  0  0  0  0  0
    0.4171   -0.6831   20.9341 H   0  0  0  0  0  0  0  0  0  0  0  0
   -0.9050   -0.3538   19.8131 H   0  0  0  0  0  0  0  0  0  0  0  0
    0.6855   -0.2721   17.8959 H   0  0  0  0  0  0  0  0  0  0  0  0
    6.8981   -1.6619   21.0675 H   0  0  0  0  0  0  0  0  0  0  0  0
  1  3  2  0  0  0  0
  1  5  1  0  0  0  0
  2  4  2  0  0  0  0
  2 10  1  0  0  0  0
  3 13  1  0  0  0  0
  4 12  1  0  0  0  0
  5 15  2  0  0  0  0
  6 11  1  0  0  0  0
  6 12  2  0  0  0  0
  7 13  2  0  0  0  0
  7 15  1  0  0  0  0
  8 11  2  0  0  0  0
  8 26  1  0  0  0  0
  9 14  1  0  0  0  0
  9 26  2  0  0  0  0
 10 11  1  0  0  0  0
 10 14  2  0  0  0  0
 12 25  1  0  0  0  0
 13 23  1  0  0  0  0
 14 27  1  0  0  0  0
 15 31  1  0  0  0  0
 16 23  1  0  0  0  0
 16 27  1  0  0  0  0
 16 28  2  0  0  0  0
 17 18  1  0  0  0  0
 17 19  1  0  0  0  0
 18 29  1  0  0  0  0
 19 20  1  0  0  0  0
 19 30  1  1  0  0  0
 20 21  1  6  0  0  0
 20 29  1  0  0  0  0
 22 25  1  6  0  0  0
 24 25  1  0  0  0  0
 24 30  1  0  0  0  0
  1 32  1  0  0  0  0
  2 33  1  0  0  0  0
  3 34  1  0  0  0  0
  4 35  1  0  0  0  0
  5 36  1  0  0  0  0
  6 37  1  0  0  0  0
  7 38  1  0  0  0  0
  8 39  1  0  0  0  0
  9 40  1  0  0  0  0
 17 41  1  0  0  0  0
 17 42  1  0  0  0  0
 18 43  1  0  0  0  0
 18 44  1  0  0  0  0
 19 45  1  0  0  0  0
 20 46  1  0  0  0  0
 21 47  1  0  0  0  0
 21 48  1  0  0  0  0
 21 49  1  0  0  0  0
 22 50  1  0  0  0  0
 22 51  1  0  0  0  0
 22 52  1  0  0  0  0
 23 53  1  0  0  0  0
 23 54  1  0  0  0  0
 24 55  1  0  0  0  0
 24 56  1  0  0  0  0
 25 57  1  0  0  0  0
 27 58  1  0  0  0  0
M  END
> <compound>
MAK-UNK-ffc90da7-9

> <compound_smiles>
CC1C(CCO1)SCC(C)c2ccc3c(c2)cncc3NC(=O)Cc4cccc(c4)Cl

> <enantiomer_smiles>
C[C@H]1[C@@H](CCO1)SC[C@H](C)c2ccc3c(c2)cncc3NC(=O)Cc4cccc(c4)Cl

> <scaffold>
chlorobenzene-linker

> <clash_score>
11.89261752967226

> <docking_score>
3.590897798538208

> <overlap_score>
0.7652236819267273

> <MMFF_internal_energy>
129.08285044307058

> <docked_smiles>
C[C@H]1[C@@H](CCO1)SC[C@H](C)c2ccc3c(c2)cncc3NC(=O)Cc4cccc(c4)Cl

$$$$
MIC-UNK-5a93dd5f-5_6
  -OEChem-07262101023D

 54 57  0     1  0  0  0  0  0999 V2000
    3.4588    2.5718   20.0554 C   0  0  0  0  0  0  0  0  0  0  0  0
    4.0835    2.0505   21.1859 C   0  0  0  0  0  0  0  0  0  0  0  0
   11.9780    0.4600   23.9150 C   0  0  0  0  0  0  0  0  0  0  0  0
    3.8711    2.1742   18.7837 C   0  0  0  0  0  0  0  0  0  0  0  0
    5.1234    1.1291   21.0499 C   0  0  0  0  0  0  0  0  0  0  0  0
   10.6560    0.0720   23.7350 C   0  0  0  0  0  0  0  0  0  0  0  0
   12.9840   -0.1200   23.1530 C   0  0  0  0  0  0  0  0  0  0  0  0
   11.3360   -1.5050   22.0650 C   0  0  0  0  0  0  0  0  0  0  0  0
    5.3689    0.8151   17.3870 C   0  0  0  0  0  0  0  0  0  0  0  0
    6.9552   -0.5603   18.3181 C   0  0  0  0  0  0  0  0  0  0  0  0
    4.9163    1.2476   18.6351 C   0  0  0  0  0  0  0  0  0  0  0  0
    5.5514    0.7175   19.7772 C   0  0  0  0  0  0  0  0  0  0  0  0
   10.3220   -0.8940   22.7910 C   0  0  0  0  0  0  0  0  0  0  0  0
    6.5908   -0.2044   19.6077 C   0  0  0  0  0  0  0  0  0  0  0  0
   12.6400   -1.1000   22.2390 C   0  0  0  0  0  0  0  0  0  0  0  0
    7.9586   -4.0089   27.4383 C   0  0  0  0  0  0  0  0  0  0  0  0
    8.3880   -0.3240   21.3070 C   0  0  0  0  0  0  0  0  0  0  0  0
    6.2764   -2.2026   24.8458 C   0  0  0  0  0  0  0  0  0  0  0  0
    6.6303   -1.7281   23.4501 C   0  0  0  0  0  0  0  0  0  0  0  0
    8.5626   -1.5239   24.9428 C   0  0  0  0  0  0  0  0  0  0  0  0
    7.6261   -2.6328   25.3939 C   0  0  1  0  0  0  0  0  0  0  0  0
    7.8891   -3.9697   28.9289 C   0  0  0  0  0  0  0  0  0  0  0  0
    8.8810   -1.1900   22.4510 C   0  0  2  0  0  0  0  0  0  0  0  0
    6.3708   -0.0740   17.2025 N   0  0  0  0  0  0  0  0  0  0  0  0
    7.2820   -0.7860   20.6970 N   0  0  0  0  0  0  0  0  0  0  0  0
    7.6235   -2.8139   26.8166 N   0  0  0  0  0  0  0  0  0  0  0  0
    7.9690   -1.0400   23.6297 N   0  3  1  0  0  0  0  0  0  0  0  0
    8.2934   -5.0450   26.8761 O   0  0  0  0  0  0  0  0  0  0  0  0
    8.9170    0.7530   21.0260 O   0  0  0  0  0  0  0  0  0  0  0  0
   13.8840   -1.8490   21.2740 Cl  0  0  0  0  0  0  0  0  0  0  0  0
    2.6499    3.2883   20.1641 H   0  0  0  0  0  0  0  0  0  0  0  0
    3.7607    2.3613   22.1754 H   0  0  0  0  0  0  0  0  0  0  0  0
   12.2249    1.2198   24.6546 H   0  0  0  0  0  0  0  0  0  0  0  0
    3.3723    2.5911   17.9118 H   0  0  0  0  0  0  0  0  0  0  0  0
    5.5866    0.7453   21.9560 H   0  0  0  0  0  0  0  0  0  0  0  0
    9.8763    0.5350   24.3454 H   0  0  0  0  0  0  0  0  0  0  0  0
   14.0077    0.1988   23.2842 H   0  0  0  0  0  0  0  0  0  0  0  0
   11.0892   -2.3009   21.3624 H   0  0  0  0  0  0  0  0  0  0  0  0
    4.9234    1.1835   16.4670 H   0  0  0  0  0  0  0  0  0  0  0  0
    7.7549   -1.2720   18.1337 H   0  0  0  0  0  0  0  0  0  0  0  0
    5.8528   -1.3761   25.4299 H   0  0  0  0  0  0  0  0  0  0  0  0
    5.5519   -3.0221   24.8276 H   0  0  0  0  0  0  0  0  0  0  0  0
    6.7695   -2.5707   22.7640 H   0  0  0  0  0  0  0  0  0  0  0  0
    5.9220   -1.0061   23.0356 H   0  0  0  0  0  0  0  0  0  0  0  0
    8.5558   -0.6590   25.6152 H   0  0  0  0  0  0  0  0  0  0  0  0
    9.5891   -1.8670   24.7812 H   0  0  0  0  0  0  0  0  0  0  0  0
    7.9311   -3.5854   24.9445 H   0  0  0  0  0  0  0  0  0  0  0  0
    6.8948   -4.2516   29.3111 H   0  0  0  0  0  0  0  0  0  0  0  0
    8.5929   -4.6737   29.4013 H   0  0  0  0  0  0  0  0  0  0  0  0
    8.1082   -2.9912   29.3854 H   0  0  0  0  0  0  0  0  0  0  0  0
    8.7698   -2.2472   22.1731 H   0  0  0  0  0  0  0  0  0  0  0  0
    6.8974   -1.6551   21.0612 H   0  0  0  0  0  0  0  0  0  0  0  0
    7.3611   -2.0210   27.4037 H   0  0  0  0  0  0  0  0  0  0  0  0
    7.7798   -0.0340   23.7399 H   0  0  0  0  0  0  0  0  0  0  0  0
  1  2  1  0  0  0  0
  1  4  2  0  0  0  0
  2  5  2  0  0  0  0
  3  6  2  0  0  0  0
  3  7  1  0  0  0  0
  4 11  1  0  0  0  0
  5 12  1  0  0  0  0
  6 13  1  0  0  0  0
  7 15  2  0  0  0  0
  8 13  2  0  0  0  0
  8 15  1  0  0  0  0
  9 11  2  0  0  0  0
  9 24  1  0  0  0  0
 10 14  1  0  0  0  0
 10 24  2  0  0  0  0
 11 12  1  0  0  0  0
 12 14  2  0  0  0  0
 13 23  1  0  0  0  0
 14 25  1  0  0  0  0
 15 30  1  0  0  0  0
 16 22  1  0  0  0  0
 16 26  1  0  0  0  0
 16 28  2  0  0  0  0
 17 23  1  6  0  0  0
 17 25  1  0  0  0  0
 17 29  2  0  0  0  0
 18 19  1  0  0  0  0
 18 21  1  0  0  0  0
 19 27  1  1  0  0  0
 20 21  1  0  0  0  0
 20 27  1  0  0  0  0
 21 26  1  6  0  0  0
 23 27  1  0  0  0  0
  1 31  1  0  0  0  0
  2 32  1  0  0  0  0
  3 33  1  0  0  0  0
  4 34  1  0  0  0  0
  5 35  1  0  0  0  0
  6 36  1  0  0  0  0
  7 37  1  0  0  0  0
  8 38  1  0  0  0  0
  9 39  1  0  0  0  0
 10 40  1  0  0  0  0
 18 41  1  0  0  0  0
 18 42  1  0  0  0  0
 19 43  1  0  0  0  0
 19 44  1  0  0  0  0
 20 45  1  0  0  0  0
 20 46  1  0  0  0  0
 21 47  1  0  0  0  0
 22 48  1  0  0  0  0
 22 49  1  0  0  0  0
 22 50  1  0  0  0  0
 23 51  1  0  0  0  0
 25 52  1  0  0  0  0
 26 53  1  0  0  0  0
 27 54  1  0  0  0  0
M  CHG  1  27   1
M  END
> <compound>
MIC-UNK-5a93dd5f-5

> <compound_smiles>
CC(=O)NC1CCN(C1)C(c2cccc(c2)Cl)C(=O)Nc3cncc4c3cccc4

> <enantiomer_smiles>
CC(=O)N[C@H]1CC[N@@](C1)[C@H](c2cccc(c2)Cl)C(=O)Nc3cncc4c3cccc4

> <scaffold>
chlorobenzene-linker

> <clash_score>
0

> <docking_score>
-10.933810234069824

> <overlap_score>
0.9799894690513611

> <MMFF_internal_energy>
168.38758151728155

> <docked_smiles>
CC(=O)N[C@H]1CC[N@@H+](C1)[C@H](c2cccc(c2)Cl)C(=O)Nc3cncc4c3cccc4

$$$$
MIC-UNK-5a93dd5f-3_15
  -OEChem-07262101023D

 60 64  0     1  0  0  0  0  0999 V2000
    4.8867    3.6427   19.7210 C   0  0  0  0  0  0  0  0  0  0  0  0
    5.5503    3.1504   20.8424 C   0  0  0  0  0  0  0  0  0  0  0  0
   11.9780    0.4600   23.9150 C   0  0  0  0  0  0  0  0  0  0  0  0
    4.7892    2.8630   18.5689 C   0  0  0  0  0  0  0  0  0  0  0  0
    6.1195    1.8760   20.8166 C   0  0  0  0  0  0  0  0  0  0  0  0
   10.6560    0.0720   23.7350 C   0  0  0  0  0  0  0  0  0  0  0  0
   12.9840   -0.1200   23.1530 C   0  0  0  0  0  0  0  0  0  0  0  0
   11.3360   -1.5050   22.0650 C   0  0  0  0  0  0  0  0  0  0  0  0
    5.2903    0.7565   17.4056 C   0  0  0  0  0  0  0  0  0  0  0  0
    6.4606   -0.9310   18.4340 C   0  0  0  0  0  0  0  0  0  0  0  0
    5.3581    1.5791   18.5317 C   0  0  0  0  0  0  0  0  0  0  0  0
    6.0308    1.0771   19.6649 C   0  0  0  0  0  0  0  0  0  0  0  0
   10.3220   -0.8940   22.7910 C   0  0  0  0  0  0  0  0  0  0  0  0
    6.5908   -0.2044   19.6077 C   0  0  0  0  0  0  0  0  0  0  0  0
   12.6400   -1.1000   22.2390 C   0  0  0  0  0  0  0  0  0  0  0  0
    8.3880   -0.3240   21.3070 C   0  0  0  0  0  0  0  0  0  0  0  0
    6.8144   -5.7411   23.6356 C   0  0  0  0  0  0  0  0  0  0  0  0
    8.2639   -5.6469   24.0966 C   0  0  0  0  0  0  0  0  0  0  0  0
    5.9100   -4.8298   24.4590 C   0  0  0  0  0  0  0  0  0  0  0  0
    8.7672   -4.2068   24.0511 C   0  0  0  0  0  0  0  0  0  0  0  0
    6.0875   -2.6257   23.1945 C   0  0  0  0  0  0  0  0  0  0  0  0
    6.5041   -1.1650   23.2884 C   0  0  0  0  0  0  0  0  0  0  0  0
    8.3647   -1.8123   24.8686 C   0  0  0  0  0  0  0  0  0  0  0  0
    6.3871   -3.3700   24.5019 C   0  0  1  0  0  0  0  0  0  0  0  0
    7.8772   -3.2664   24.8795 C   0  0  1  0  0  0  0  0  0  0  0  0
    8.8810   -1.1900   22.4510 C   0  0  1  0  0  0  0  0  0  0  0  0
    5.8245   -0.4834   17.3305 N   0  0  0  0  0  0  0  0  0  0  0  0
    7.2820   -0.7860   20.6970 N   0  0  0  0  0  0  0  0  0  0  0  0
    7.9644   -1.0392   23.6356 N   0  3  1  0  0  0  0  0  0  0  0  0
    8.9170    0.7530   21.0260 O   0  0  0  0  0  0  0  0  0  0  0  0
   13.8840   -1.8490   21.2740 Cl  0  0  0  0  0  0  0  0  0  0  0  0
    4.4446    4.6345   19.7440 H   0  0  0  0  0  0  0  0  0  0  0  0
    5.6249    3.7592   21.7389 H   0  0  0  0  0  0  0  0  0  0  0  0
   12.2249    1.2198   24.6546 H   0  0  0  0  0  0  0  0  0  0  0  0
    4.2675    3.2627   17.7024 H   0  0  0  0  0  0  0  0  0  0  0  0
    6.6299    1.5271   21.7114 H   0  0  0  0  0  0  0  0  0  0  0  0
    9.8763    0.5350   24.3454 H   0  0  0  0  0  0  0  0  0  0  0  0
   14.0077    0.1988   23.2842 H   0  0  0  0  0  0  0  0  0  0  0  0
   11.0892   -2.3009   21.3624 H   0  0  0  0  0  0  0  0  0  0  0  0
    4.7868    1.0816   16.4993 H   0  0  0  0  0  0  0  0  0  0  0  0
    6.8769   -1.9300   18.3396 H   0  0  0  0  0  0  0  0  0  0  0  0
    6.7457   -5.4772   22.5739 H   0  0  0  0  0  0  0  0  0  0  0  0
    6.4688   -6.7773   23.7257 H   0  0  0  0  0  0  0  0  0  0  0  0
    8.3518   -6.0356   25.1185 H   0  0  0  0  0  0  0  0  0  0  0  0
    8.8950   -6.2774   23.4600 H   0  0  0  0  0  0  0  0  0  0  0  0
    4.8845   -4.8833   24.0747 H   0  0  0  0  0  0  0  0  0  0  0  0
    5.8746   -5.2140   25.4871 H   0  0  0  0  0  0  0  0  0  0  0  0
    9.7946   -4.1734   24.4329 H   0  0  0  0  0  0  0  0  0  0  0  0
    8.8117   -3.8970   23.0054 H   0  0  0  0  0  0  0  0  0  0  0  0
    5.0110   -2.6689   22.9886 H   0  0  0  0  0  0  0  0  0  0  0  0
    6.5821   -3.1055   22.3431 H   0  0  0  0  0  0  0  0  0  0  0  0
    6.3338   -0.6310   22.3477 H   0  0  0  0  0  0  0  0  0  0  0  0
    5.9503   -0.6494   24.0813 H   0  0  0  0  0  0  0  0  0  0  0  0
    7.9100   -1.2717   25.7079 H   0  0  0  0  0  0  0  0  0  0  0  0
    9.4517   -1.7350   24.9796 H   0  0  0  0  0  0  0  0  0  0  0  0
    5.8070   -2.8712   25.2919 H   0  0  0  0  0  0  0  0  0  0  0  0
    7.9650   -3.6096   25.9212 H   0  0  0  0  0  0  0  0  0  0  0  0
    8.7698   -2.2472   22.1731 H   0  0  0  0  0  0  0  0  0  0  0  0
    6.8974   -1.6551   21.0612 H   0  0  0  0  0  0  0  0  0  0  0  0
    8.0860   -0.0542   23.9075 H   0  0  0  0  0  0  0  0  0  0  0  0
  1  2  1  0  0  0  0
  1  4  2  0  0  0  0
  2  5  2  0  0  0  0
  3  6  2  0  0  0  0
  3  7  1  0  0  0  0
  4 11  1  0  0  0  0
  5 12  1  0  0  0  0
  6 13  1  0  0  0  0
  7 15  2  0  0  0  0
  8 13  2  0  0  0  0
  8 15  1  0  0  0  0
  9 11  2  0  0  0  0
  9 27  1  0  0  0  0
 10 14  1  0  0  0  0
 10 27  2  0  0  0  0
 11 12  1  0  0  0  0
 12 14  2  0  0  0  0
 13 26  1  0  0  0  0
 14 28  1  0  0  0  0
 15 31  1  0  0  0  0
 16 26  1  1  0  0  0
 16 28  1  0  0  0  0
 16 30  2  0  0  0  0
 17 18  1  0  0  0  0
 17 19  1  0  0  0  0
 18 20  1  0  0  0  0
 19 24  1  0  0  0  0
 20 25  1  6  0  0  0
 21 22  1  0  0  0  0
 21 24  1  6  0  0  0
 22 29  1  0  0  0  0
 23 25  1  0  0  0  0
 23 29  1  6  0  0  0
 24 25  1  0  0  0  0
 26 29  1  0  0  0  0
  1 32  1  0  0  0  0
  2 33  1  0  0  0  0
  3 34  1  0  0  0  0
  4 35  1  0  0  0  0
  5 36  1  0  0  0  0
  6 37  1  0  0  0  0
  7 38  1  0  0  0  0
  8 39  1  0  0  0  0
  9 40  1  0  0  0  0
 10 41  1  0  0  0  0
 17 42  1  0  0  0  0
 17 43  1  0  0  0  0
 18 44  1  0  0  0  0
 18 45  1  0  0  0  0
 19 46  1  0  0  0  0
 19 47  1  0  0  0  0
 20 48  1  0  0  0  0
 20 49  1  0  0  0  0
 21 50  1  0  0  0  0
 21 51  1  0  0  0  0
 22 52  1  0  0  0  0
 22 53  1  0  0  0  0
 23 54  1  0  0  0  0
 23 55  1  0  0  0  0
 24 56  1  0  0  0  0
 25 57  1  0  0  0  0
 26 58  1  0  0  0  0
 28 59  1  0  0  0  0
 29 60  1  0  0  0  0
M  CHG  1  29   1
M  END
> <compound>
MIC-UNK-5a93dd5f-3

> <compound_smiles>
c1ccc2c(c1)cncc2NC(=O)C(c3cccc(c3)Cl)N4CCC5CCCCC5C4

> <enantiomer_smiles>
c1ccc2c(c1)cncc2NC(=O)[C@@H](c3cccc(c3)Cl)[N@]4CC[C@H]5CCCC[C@H]5C4

> <scaffold>
chlorobenzene-linker

> <clash_score>
0.6532382571895533

> <docking_score>
-4.8188042640686035

> <overlap_score>
0.8391438722610474

> <MMFF_internal_energy>
184.19919340432938

> <docked_smiles>
c1ccc2c(c1)cncc2NC(=O)[C@@H](c3cccc(c3)Cl)[N@H+]4CC[C@H]5CCCC[C@H]5C4

$$$$
MIC-UNK-5a93dd5f-3_13
  -OEChem-07262101023D

 60 64  0     1  0  0  0  0  0999 V2000
    2.5657    1.0132   19.7899 C   0  0  0  0  0  0  0  0  0  0  0  0
    3.1660    0.4495   20.9134 C   0  0  0  0  0  0  0  0  0  0  0  0
   11.9780    0.4600   23.9150 C   0  0  0  0  0  0  0  0  0  0  0  0
    3.2969    1.1719   18.6130 C   0  0  0  0  0  0  0  0  0  0  0  0
    4.5003    0.0420   20.8649 C   0  0  0  0  0  0  0  0  0  0  0  0
   10.6560    0.0720   23.7350 C   0  0  0  0  0  0  0  0  0  0  0  0
   12.9840   -0.1200   23.1530 C   0  0  0  0  0  0  0  0  0  0  0  0
   11.3360   -1.5050   22.0650 C   0  0  0  0  0  0  0  0  0  0  0  0
    5.4182    0.9007   17.4014 C   0  0  0  0  0  0  0  0  0  0  0  0
    7.2646   -0.0206   18.4099 C   0  0  0  0  0  0  0  0  0  0  0  0
    4.6401    0.7653   18.5528 C   0  0  0  0  0  0  0  0  0  0  0  0
    5.2515    0.1942   19.6880 C   0  0  0  0  0  0  0  0  0  0  0  0
   10.3220   -0.8940   22.7910 C   0  0  0  0  0  0  0  0  0  0  0  0
    6.5908   -0.2044   19.6077 C   0  0  0  0  0  0  0  0  0  0  0  0
   12.6400   -1.1000   22.2390 C   0  0  0  0  0  0  0  0  0  0  0  0
    8.3880   -0.3240   21.3070 C   0  0  0  0  0  0  0  0  0  0  0  0
    5.1452   -0.0355   27.3084 C   0  0  0  0  0  0  0  0  0  0  0  0
    4.9962    1.0737   26.2734 C   0  0  0  0  0  0  0  0  0  0  0  0
    4.9040   -1.4123   26.6950 C   0  0  0  0  0  0  0  0  0  0  0  0
    5.8955    0.8396   25.0626 C   0  0  0  0  0  0  0  0  0  0  0  0
    7.2286   -1.9602   25.8143 C   0  0  0  0  0  0  0  0  0  0  0  0
    8.0790   -2.2123   24.5773 C   0  0  0  0  0  0  0  0  0  0  0  0
    6.5383   -0.7847   23.2090 C   0  0  0  0  0  0  0  0  0  0  0  0
    5.7620   -1.6828   25.4496 C   0  0  1  0  0  0  0  0  0  0  0  0
    5.6386   -0.5374   24.4246 C   0  0  1  0  0  0  0  0  0  0  0  0
    8.8810   -1.1900   22.4510 C   0  0  1  0  0  0  0  0  0  0  0  0
    6.7126    0.5221   17.3038 N   0  0  0  0  0  0  0  0  0  0  0  0
    7.2820   -0.7860   20.6970 N   0  0  0  0  0  0  0  0  0  0  0  0
    7.9634   -1.0390   23.6369 N   0  3  2  0  0  0  0  0  0  0  0  0
    8.9170    0.7530   21.0260 O   0  0  0  0  0  0  0  0  0  0  0  0
   13.8840   -1.8490   21.2740 Cl  0  0  0  0  0  0  0  0  0  0  0  0
    1.5274    1.3292   19.8304 H   0  0  0  0  0  0  0  0  0  0  0  0
    2.5946    0.3266   21.8290 H   0  0  0  0  0  0  0  0  0  0  0  0
   12.2249    1.2198   24.6546 H   0  0  0  0  0  0  0  0  0  0  0  0
    2.8126    1.6137   17.7451 H   0  0  0  0  0  0  0  0  0  0  0  0
    4.9337   -0.3930   21.7626 H   0  0  0  0  0  0  0  0  0  0  0  0
    9.8763    0.5350   24.3454 H   0  0  0  0  0  0  0  0  0  0  0  0
   14.0077    0.1988   23.2842 H   0  0  0  0  0  0  0  0  0  0  0  0
   11.0892   -2.3009   21.3624 H   0  0  0  0  0  0  0  0  0  0  0  0
    5.0092    1.3323   16.4920 H   0  0  0  0  0  0  0  0  0  0  0  0
    8.3044   -0.3139   18.2966 H   0  0  0  0  0  0  0  0  0  0  0  0
    6.1466    0.0071   27.7520 H   0  0  0  0  0  0  0  0  0  0  0  0
    4.4339    0.1296   28.1259 H   0  0  0  0  0  0  0  0  0  0  0  0
    3.9508    1.1297   25.9458 H   0  0  0  0  0  0  0  0  0  0  0  0
    5.2382    2.0397   26.7309 H   0  0  0  0  0  0  0  0  0  0  0  0
    5.0776   -2.1874   27.4508 H   0  0  0  0  0  0  0  0  0  0  0  0
    3.8456   -1.4869   26.4126 H   0  0  0  0  0  0  0  0  0  0  0  0
    5.7124    1.6284   24.3230 H   0  0  0  0  0  0  0  0  0  0  0  0
    6.9411    0.9409   25.3743 H   0  0  0  0  0  0  0  0  0  0  0  0
    7.2831   -2.8401   26.4667 H   0  0  0  0  0  0  0  0  0  0  0  0
    7.6582   -1.1272   26.3825 H   0  0  0  0  0  0  0  0  0  0  0  0
    9.1346   -2.3139   24.8501 H   0  0  0  0  0  0  0  0  0  0  0  0
    7.7540   -3.1077   24.0356 H   0  0  0  0  0  0  0  0  0  0  0  0
    6.2073   -1.6661   22.6473 H   0  0  0  0  0  0  0  0  0  0  0  0
    6.5455    0.0825   22.5396 H   0  0  0  0  0  0  0  0  0  0  0  0
    5.3708   -2.5967   24.9802 H   0  0  0  0  0  0  0  0  0  0  0  0
    4.6021   -0.5307   24.0584 H   0  0  0  0  0  0  0  0  0  0  0  0
    8.7698   -2.2472   22.1731 H   0  0  0  0  0  0  0  0  0  0  0  0
    6.8974   -1.6551   21.0612 H   0  0  0  0  0  0  0  0  0  0  0  0
    8.2924   -0.2067   24.1435 H   0  0  0  0  0  0  0  0  0  0  0  0
  1  2  1  0  0  0  0
  1  4  2  0  0  0  0
  2  5  2  0  0  0  0
  3  6  2  0  0  0  0
  3  7  1  0  0  0  0
  4 11  1  0  0  0  0
  5 12  1  0  0  0  0
  6 13  1  0  0  0  0
  7 15  2  0  0  0  0
  8 13  2  0  0  0  0
  8 15  1  0  0  0  0
  9 11  2  0  0  0  0
  9 27  1  0  0  0  0
 10 14  1  0  0  0  0
 10 27  2  0  0  0  0
 11 12  1  0  0  0  0
 12 14  2  0  0  0  0
 13 26  1  0  0  0  0
 14 28  1  0  0  0  0
 15 31  1  0  0  0  0
 16 26  1  1  0  0  0
 16 28  1  0  0  0  0
 16 30  2  0  0  0  0
 17 18  1  0  0  0  0
 17 19  1  0  0  0  0
 18 20  1  0  0  0  0
 19 24  1  0  0  0  0
 20 25  1  6  0  0  0
 21 22  1  0  0  0  0
 21 24  1  6  0  0  0
 22 29  1  0  0  0  0
 23 25  1  0  0  0  0
 23 29  1  1  0  0  0
 24 25  1  0  0  0  0
 26 29  1  0  0  0  0
  1 32  1  0  0  0  0
  2 33  1  0  0  0  0
  3 34  1  0  0  0  0
  4 35  1  0  0  0  0
  5 36  1  0  0  0  0
  6 37  1  0  0  0  0
  7 38  1  0  0  0  0
  8 39  1  0  0  0  0
  9 40  1  0  0  0  0
 10 41  1  0  0  0  0
 17 42  1  0  0  0  0
 17 43  1  0  0  0  0
 18 44  1  0  0  0  0
 18 45  1  0  0  0  0
 19 46  1  0  0  0  0
 19 47  1  0  0  0  0
 20 48  1  0  0  0  0
 20 49  1  0  0  0  0
 21 50  1  0  0  0  0
 21 51  1  0  0  0  0
 22 52  1  0  0  0  0
 22 53  1  0  0  0  0
 23 54  1  0  0  0  0
 23 55  1  0  0  0  0
 24 56  1  0  0  0  0
 25 57  1  0  0  0  0
 26 58  1  0  0  0  0
 28 59  1  0  0  0  0
 29 60  1  0  0  0  0
M  CHG  1  29   1
M  END
> <compound>
MIC-UNK-5a93dd5f-3

> <compound_smiles>
c1ccc2c(c1)cncc2NC(=O)C(c3cccc(c3)Cl)N4CCC5CCCCC5C4

> <enantiomer_smiles>
c1ccc2c(c1)cncc2NC(=O)[C@@H](c3cccc(c3)Cl)[N@@]4CC[C@H]5CCCC[C@H]5C4

> <scaffold>
chlorobenzene-linker

> <clash_score>
0

> <docking_score>
-4.803719520568848

> <overlap_score>
0.8956788778305054

> <MMFF_internal_energy>
181.12591143712945

> <docked_smiles>
c1ccc2c(c1)cncc2NC(=O)[C@@H](c3cccc(c3)Cl)[N@@H+]4CC[C@H]5CCCC[C@H]5C4

$$$$
MIC-UNK-5a93dd5f-5_5
  -OEChem-07262101023D

 54 57  0     1  0  0  0  0  0999 V2000
    3.4588    2.5719   20.0554 C   0  0  0  0  0  0  0  0  0  0  0  0
    4.0835    2.0505   21.1859 C   0  0  0  0  0  0  0  0  0  0  0  0
   11.9780    0.4600   23.9150 C   0  0  0  0  0  0  0  0  0  0  0  0
    3.8711    2.1742   18.7837 C   0  0  0  0  0  0  0  0  0  0  0  0
    5.1234    1.1291   21.0499 C   0  0  0  0  0  0  0  0  0  0  0  0
   10.6560    0.0720   23.7350 C   0  0  0  0  0  0  0  0  0  0  0  0
   12.9840   -0.1200   23.1530 C   0  0  0  0  0  0  0  0  0  0  0  0
   11.3360   -1.5050   22.0650 C   0  0  0  0  0  0  0  0  0  0  0  0
    5.3689    0.8151   17.3870 C   0  0  0  0  0  0  0  0  0  0  0  0
    6.9552   -0.5603   18.3181 C   0  0  0  0  0  0  0  0  0  0  0  0
    4.9163    1.2476   18.6351 C   0  0  0  0  0  0  0  0  0  0  0  0
    5.5514    0.7175   19.7772 C   0  0  0  0  0  0  0  0  0  0  0  0
   10.3220   -0.8940   22.7910 C   0  0  0  0  0  0  0  0  0  0  0  0
    6.5908   -0.2044   19.6077 C   0  0  0  0  0  0  0  0  0  0  0  0
   12.6400   -1.1000   22.2390 C   0  0  0  0  0  0  0  0  0  0  0  0
    7.6362   -5.0255   25.7927 C   0  0  0  0  0  0  0  0  0  0  0  0
    8.3880   -0.3240   21.3070 C   0  0  0  0  0  0  0  0  0  0  0  0
    6.2527   -2.1468   24.8551 C   0  0  0  0  0  0  0  0  0  0  0  0
    6.6298   -1.7210   23.4495 C   0  0  0  0  0  0  0  0  0  0  0  0
    8.5617   -1.5187   24.9467 C   0  0  0  0  0  0  0  0  0  0  0  0
    7.5812   -2.5611   25.4667 C   0  0  2  0  0  0  0  0  0  0  0  0
    8.1255   -6.2997   25.1884 C   0  0  0  0  0  0  0  0  0  0  0  0
    8.8810   -1.1900   22.4510 C   0  0  2  0  0  0  0  0  0  0  0  0
    6.3708   -0.0740   17.2025 N   0  0  0  0  0  0  0  0  0  0  0  0
    7.2820   -0.7860   20.6970 N   0  0  0  0  0  0  0  0  0  0  0  0
    7.9580   -3.8948   25.0642 N   0  0  0  0  0  0  0  0  0  0  0  0
    7.9690   -1.0400   23.6296 N   0  3  1  0  0  0  0  0  0  0  0  0
    7.0087   -5.0576   26.8449 O   0  0  0  0  0  0  0  0  0  0  0  0
    8.9170    0.7530   21.0260 O   0  0  0  0  0  0  0  0  0  0  0  0
   13.8840   -1.8490   21.2740 Cl  0  0  0  0  0  0  0  0  0  0  0  0
    2.6499    3.2883   20.1641 H   0  0  0  0  0  0  0  0  0  0  0  0
    3.7607    2.3613   22.1755 H   0  0  0  0  0  0  0  0  0  0  0  0
   12.2249    1.2198   24.6546 H   0  0  0  0  0  0  0  0  0  0  0  0
    3.3723    2.5911   17.9118 H   0  0  0  0  0  0  0  0  0  0  0  0
    5.5866    0.7453   21.9560 H   0  0  0  0  0  0  0  0  0  0  0  0
    9.8763    0.5350   24.3454 H   0  0  0  0  0  0  0  0  0  0  0  0
   14.0077    0.1988   23.2842 H   0  0  0  0  0  0  0  0  0  0  0  0
   11.0892   -2.3009   21.3624 H   0  0  0  0  0  0  0  0  0  0  0  0
    4.9234    1.1835   16.4670 H   0  0  0  0  0  0  0  0  0  0  0  0
    7.7549   -1.2720   18.1337 H   0  0  0  0  0  0  0  0  0  0  0  0
    5.8348   -1.2954   25.4064 H   0  0  0  0  0  0  0  0  0  0  0  0
    5.5067   -2.9477   24.8619 H   0  0  0  0  0  0  0  0  0  0  0  0
    6.7686   -2.5825   22.7874 H   0  0  0  0  0  0  0  0  0  0  0  0
    5.9337   -1.0043   23.0055 H   0  0  0  0  0  0  0  0  0  0  0  0
    8.5985   -0.6412   25.6010 H   0  0  0  0  0  0  0  0  0  0  0  0
    9.5764   -1.8966   24.7841 H   0  0  0  0  0  0  0  0  0  0  0  0
    7.5389   -2.5616   26.5601 H   0  0  0  0  0  0  0  0  0  0  0  0
    9.1343   -6.5711   25.5388 H   0  0  0  0  0  0  0  0  0  0  0  0
    7.4867   -7.1597   25.4460 H   0  0  0  0  0  0  0  0  0  0  0  0
    8.1894   -6.3056   24.0885 H   0  0  0  0  0  0  0  0  0  0  0  0
    8.7698   -2.2472   22.1731 H   0  0  0  0  0  0  0  0  0  0  0  0
    6.8974   -1.6551   21.0612 H   0  0  0  0  0  0  0  0  0  0  0  0
    8.4858   -4.0087   24.2029 H   0  0  0  0  0  0  0  0  0  0  0  0
    7.7821   -0.0334   23.7368 H   0  0  0  0  0  0  0  0  0  0  0  0
  1  2  1  0  0  0  0
  1  4  2  0  0  0  0
  2  5  2  0  0  0  0
  3  6  2  0  0  0  0
  3  7  1  0  0  0  0
  4 11  1  0  0  0  0
  5 12  1  0  0  0  0
  6 13  1  0  0  0  0
  7 15  2  0  0  0  0
  8 13  2  0  0  0  0
  8 15  1  0  0  0  0
  9 11  2  0  0  0  0
  9 24  1  0  0  0  0
 10 14  1  0  0  0  0
 10 24  2  0  0  0  0
 11 12  1  0  0  0  0
 12 14  2  0  0  0  0
 13 23  1  0  0  0  0
 14 25  1  0  0  0  0
 15 30  1  0  0  0  0
 16 22  1  0  0  0  0
 16 26  1  0  0  0  0
 16 28  2  0  0  0  0
 17 23  1  6  0  0  0
 17 25  1  0  0  0  0
 17 29  2  0  0  0  0
 18 19  1  0  0  0  0
 18 21  1  0  0  0  0
 19 27  1  1  0  0  0
 20 21  1  0  0  0  0
 20 27  1  0  0  0  0
 21 26  1  1  0  0  0
 23 27  1  0  0  0  0
  1 31  1  0  0  0  0
  2 32  1  0  0  0  0
  3 33  1  0  0  0  0
  4 34  1  0  0  0  0
  5 35  1  0  0  0  0
  6 36  1  0  0  0  0
  7 37  1  0  0  0  0
  8 38  1  0  0  0  0
  9 39  1  0  0  0  0
 10 40  1  0  0  0  0
 18 41  1  0  0  0  0
 18 42  1  0  0  0  0
 19 43  1  0  0  0  0
 19 44  1  0  0  0  0
 20 45  1  0  0  0  0
 20 46  1  0  0  0  0
 21 47  1  0  0  0  0
 22 48  1  0  0  0  0
 22 49  1  0  0  0  0
 22 50  1  0  0  0  0
 23 51  1  0  0  0  0
 25 52  1  0  0  0  0
 26 53  1  0  0  0  0
 27 54  1  0  0  0  0
M  CHG  1  27   1
M  END
> <compound>
MIC-UNK-5a93dd5f-5

> <compound_smiles>
CC(=O)NC1CCN(C1)C(c2cccc(c2)Cl)C(=O)Nc3cncc4c3cccc4

> <enantiomer_smiles>
CC(=O)N[C@@H]1CC[N@@](C1)[C@H](c2cccc(c2)Cl)C(=O)Nc3cncc4c3cccc4

> <scaffold>
chlorobenzene-linker

> <clash_score>
0

> <docking_score>
-10.855419158935547

> <overlap_score>
0.9799490571022034

> <MMFF_internal_energy>
168.87020226231377

> <docked_smiles>
CC(=O)N[C@@H]1CC[N@@H+](C1)[C@H](c2cccc(c2)Cl)C(=O)Nc3cncc4c3cccc4

$$$$
MIC-UNK-5a93dd5f-4_1
  -OEChem-07262101023D

 57 60  0     1  0  0  0  0  0999 V2000
    3.4588    2.5719   20.0554 C   0  0  0  0  0  0  0  0  0  0  0  0
    4.0835    2.0505   21.1859 C   0  0  0  0  0  0  0  0  0  0  0  0
   11.9780    0.4600   23.9150 C   0  0  0  0  0  0  0  0  0  0  0  0
    3.8711    2.1742   18.7837 C   0  0  0  0  0  0  0  0  0  0  0  0
    5.1234    1.1291   21.0499 C   0  0  0  0  0  0  0  0  0  0  0  0
   10.6560    0.0720   23.7350 C   0  0  0  0  0  0  0  0  0  0  0  0
   12.9840   -0.1200   23.1530 C   0  0  0  0  0  0  0  0  0  0  0  0
   11.3360   -1.5050   22.0650 C   0  0  0  0  0  0  0  0  0  0  0  0
    5.3689    0.8151   17.3870 C   0  0  0  0  0  0  0  0  0  0  0  0
    6.9552   -0.5603   18.3181 C   0  0  0  0  0  0  0  0  0  0  0  0
    4.9163    1.2476   18.6351 C   0  0  0  0  0  0  0  0  0  0  0  0
    5.5514    0.7175   19.7772 C   0  0  0  0  0  0  0  0  0  0  0  0
   10.3220   -0.8940   22.7910 C   0  0  0  0  0  0  0  0  0  0  0  0
    6.5908   -0.2044   19.6077 C   0  0  0  0  0  0  0  0  0  0  0  0
   12.6400   -1.1000   22.2390 C   0  0  0  0  0  0  0  0  0  0  0  0
   11.2174   -6.7293   20.6442 C   0  0  0  0  0  0  0  0  0  0  0  0
    8.3880   -0.3240   21.3070 C   0  0  0  0  0  0  0  0  0  0  0  0
    8.5971   -4.3732   20.3415 C   0  0  0  0  0  0  0  0  0  0  0  0
    8.9800   -5.0028   22.7577 C   0  0  0  0  0  0  0  0  0  0  0  0
    8.9734   -2.9321   20.6661 C   0  0  0  0  0  0  0  0  0  0  0  0
    9.3644   -3.5598   23.0615 C   0  0  0  0  0  0  0  0  0  0  0  0
    9.2327   -5.3853   21.2980 C   0  0  0  0  0  0  0  0  0  0  0  0
   12.6932   -6.6546   20.4329 C   0  0  0  0  0  0  0  0  0  0  0  0
    8.8810   -1.1900   22.4510 C   0  0  1  0  0  0  0  0  0  0  0  0
    6.3708   -0.0740   17.2025 N   0  0  0  0  0  0  0  0  0  0  0  0
    7.2820   -0.7860   20.6970 N   0  0  0  0  0  0  0  0  0  0  0  0
   10.6466   -5.5361   21.0402 N   0  0  0  0  0  0  0  0  0  0  0  0
    8.6431   -2.6373   22.1089 N   0  3  0  0  0  0  0  0  0  0  0  0
   10.6337   -7.7911   20.4609 O   0  0  0  0  0  0  0  0  0  0  0  0
    8.9170    0.7530   21.0260 O   0  0  0  0  0  0  0  0  0  0  0  0
   13.8840   -1.8490   21.2740 Cl  0  0  0  0  0  0  0  0  0  0  0  0
    2.6499    3.2883   20.1641 H   0  0  0  0  0  0  0  0  0  0  0  0
    3.7607    2.3613   22.1754 H   0  0  0  0  0  0  0  0  0  0  0  0
   12.2249    1.2198   24.6546 H   0  0  0  0  0  0  0  0  0  0  0  0
    3.3723    2.5911   17.9118 H   0  0  0  0  0  0  0  0  0  0  0  0
    5.5866    0.7453   21.9560 H   0  0  0  0  0  0  0  0  0  0  0  0
    9.8763    0.5350   24.3454 H   0  0  0  0  0  0  0  0  0  0  0  0
   14.0077    0.1988   23.2842 H   0  0  0  0  0  0  0  0  0  0  0  0
   11.0892   -2.3009   21.3624 H   0  0  0  0  0  0  0  0  0  0  0  0
    4.9234    1.1835   16.4670 H   0  0  0  0  0  0  0  0  0  0  0  0
    7.7549   -1.2720   18.1337 H   0  0  0  0  0  0  0  0  0  0  0  0
    7.5053   -4.4750   20.3952 H   0  0  0  0  0  0  0  0  0  0  0  0
    8.8721   -4.6017   19.3046 H   0  0  0  0  0  0  0  0  0  0  0  0
    9.5223   -5.6789   23.4299 H   0  0  0  0  0  0  0  0  0  0  0  0
    7.9142   -5.1427   22.9816 H   0  0  0  0  0  0  0  0  0  0  0  0
   10.0432   -2.7436   20.5231 H   0  0  0  0  0  0  0  0  0  0  0  0
    8.3958   -2.2366   20.0480 H   0  0  0  0  0  0  0  0  0  0  0  0
    9.0573   -3.2878   24.0767 H   0  0  0  0  0  0  0  0  0  0  0  0
   10.4400   -3.3845   22.9473 H   0  0  0  0  0  0  0  0  0  0  0  0
    8.7936   -6.3790   21.1099 H   0  0  0  0  0  0  0  0  0  0  0  0
   13.2613   -6.8843   21.3486 H   0  0  0  0  0  0  0  0  0  0  0  0
   13.0475   -7.3783   19.6812 H   0  0  0  0  0  0  0  0  0  0  0  0
   13.0719   -5.6769   20.0945 H   0  0  0  0  0  0  0  0  0  0  0  0
    8.2445   -1.0188   23.3300 H   0  0  0  0  0  0  0  0  0  0  0  0
    6.8974   -1.6551   21.0612 H   0  0  0  0  0  0  0  0  0  0  0  0
   11.2481   -4.7271   21.1556 H   0  0  0  0  0  0  0  0  0  0  0  0
    7.6340   -2.8003   22.2311 H   0  0  0  0  0  0  0  0  0  0  0  0
  1  2  1  0  0  0  0
  1  4  2  0  0  0  0
  2  5  2  0  0  0  0
  3  6  2  0  0  0  0
  3  7  1  0  0  0  0
  4 11  1  0  0  0  0
  5 12  1  0  0  0  0
  6 13  1  0  0  0  0
  7 15  2  0  0  0  0
  8 13  2  0  0  0  0
  8 15  1  0  0  0  0
  9 11  2  0  0  0  0
  9 25  1  0  0  0  0
 10 14  1  0  0  0  0
 10 25  2  0  0  0  0
 11 12  1  0  0  0  0
 12 14  2  0  0  0  0
 13 24  1  0  0  0  0
 14 26  1  0  0  0  0
 15 31  1  0  0  0  0
 16 23  1  0  0  0  0
 16 27  1  0  0  0  0
 16 29  2  0  0  0  0
 17 24  1  1  0  0  0
 17 26  1  0  0  0  0
 17 30  2  0  0  0  0
 18 20  1  0  0  0  0
 18 22  1  0  0  0  0
 19 21  1  0  0  0  0
 19 22  1  0  0  0  0
 20 28  1  0  0  0  0
 21 28  1  0  0  0  0
 22 27  1  0  0  0  0
 24 28  1  0  0  0  0
  1 32  1  0  0  0  0
  2 33  1  0  0  0  0
  3 34  1  0  0  0  0
  4 35  1  0  0  0  0
  5 36  1  0  0  0  0
  6 37  1  0  0  0  0
  7 38  1  0  0  0  0
  8 39  1  0  0  0  0
  9 40  1  0  0  0  0
 10 41  1  0  0  0  0
 18 42  1  0  0  0  0
 18 43  1  0  0  0  0
 19 44  1  0  0  0  0
 19 45  1  0  0  0  0
 20 46  1  0  0  0  0
 20 47  1  0  0  0  0
 21 48  1  0  0  0  0
 21 49  1  0  0  0  0
 22 50  1  0  0  0  0
 23 51  1  0  0  0  0
 23 52  1  0  0  0  0
 23 53  1  0  0  0  0
 24 54  1  0  0  0  0
 26 55  1  0  0  0  0
 27 56  1  0  0  0  0
 28 57  1  0  0  0  0
M  CHG  1  28   1
M  END
> <compound>
MIC-UNK-5a93dd5f-4

> <compound_smiles>
CC(=O)NC1CCN(CC1)C(c2cccc(c2)Cl)C(=O)Nc3cncc4c3cccc4

> <enantiomer_smiles>
CC(=O)NC1CCN(CC1)[C@@H](c2cccc(c2)Cl)C(=O)Nc3cncc4c3cccc4

> <scaffold>
chlorobenzene-linker

> <clash_score>
7.411820994334478

> <docking_score>
-2.4881246089935303

> <overlap_score>
0.9798135757446289

> <MMFF_internal_energy>
181.63170127382728

> <docked_smiles>
CC(=O)NC1CC[NH+](CC1)[C@@H](c2cccc(c2)Cl)C(=O)Nc3cncc4c3cccc4

$$$$
MAK-UNK-ffc90da7-4_8
  -OEChem-07262101023D

 60 63  0     1  0  0  0  0  0999 V2000
    4.9179    3.6570   19.7100 C   0  0  0  0  0  0  0  0  0  0  0  0
    5.5819    3.1645   20.8311 C   0  0  0  0  0  0  0  0  0  0  0  0
   11.9780    0.4600   23.9150 C   0  0  0  0  0  0  0  0  0  0  0  0
    4.8099    2.8729   18.5617 C   0  0  0  0  0  0  0  0  0  0  0  0
    6.1409    1.8856   20.8089 C   0  0  0  0  0  0  0  0  0  0  0  0
   10.6560    0.0720   23.7350 C   0  0  0  0  0  0  0  0  0  0  0  0
   12.9840   -0.1200   23.1530 C   0  0  0  0  0  0  0  0  0  0  0  0
   11.3360   -1.5050   22.0650 C   0  0  0  0  0  0  0  0  0  0  0  0
    5.2900    0.7573   17.4061 C   0  0  0  0  0  0  0  0  0  0  0  0
    6.4509   -0.9347   18.4378 C   0  0  0  0  0  0  0  0  0  0  0  0
    5.3685    1.5844   18.5283 C   0  0  0  0  0  0  0  0  0  0  0  0
    6.0416    1.0822   19.6612 C   0  0  0  0  0  0  0  0  0  0  0  0
   10.3220   -0.8940   22.7910 C   0  0  0  0  0  0  0  0  0  0  0  0
    6.5912   -0.2039   19.6077 C   0  0  0  0  0  0  0  0  0  0  0  0
   12.6400   -1.1000   22.2390 C   0  0  0  0  0  0  0  0  0  0  0  0
    8.3880   -0.3240   21.3070 C   0  0  0  0  0  0  0  0  0  0  0  0
    2.4511   -0.3425   26.9563 C   0  0  0  0  0  0  0  0  0  0  0  0
    3.0767    0.1088   25.6604 C   0  0  0  0  0  0  0  0  0  0  0  0
    3.5804   -1.1239   27.5935 C   0  0  0  0  0  0  0  0  0  0  0  0
    4.4985    0.4122   26.1004 C   0  0  1  0  0  0  0  0  0  0  0  0
    8.3439   -2.0353   24.8302 C   0  0  0  0  0  0  0  0  0  0  0  0
    5.5154    0.2988   24.9813 C   0  0  0  0  0  0  0  0  0  0  0  0
    6.4425   -1.3254   23.3257 C   0  0  0  0  0  0  0  0  0  0  0  0
    8.8810   -1.1900   22.4510 C   0  0  2  0  0  0  0  0  0  0  0  0
    7.9194   -1.0821   23.6998 C   0  0  2  0  0  0  0  0  0  0  0  0
    5.8141   -0.4871   17.3347 N   0  0  0  0  0  0  0  0  0  0  0  0
    7.2820   -0.7860   20.6970 N   0  0  0  0  0  0  0  0  0  0  0  0
    5.5284   -1.0997   24.4706 N   0  3  0  0  0  0  0  0  0  0  0  0
    8.9170    0.7530   21.0260 O   0  0  0  0  0  0  0  0  0  0  0  0
    4.8071   -0.5337   27.1380 O   0  0  0  0  0  0  0  0  0  0  0  0
   13.8840   -1.8490   21.2740 Cl  0  0  0  0  0  0  0  0  0  0  0  0
    4.4837    4.6523   19.7301 H   0  0  0  0  0  0  0  0  0  0  0  0
    5.6647    3.7768   21.7245 H   0  0  0  0  0  0  0  0  0  0  0  0
   12.2249    1.2198   24.6546 H   0  0  0  0  0  0  0  0  0  0  0  0
    4.2880    3.2728   17.6954 H   0  0  0  0  0  0  0  0  0  0  0  0
    6.6519    1.5367   21.7033 H   0  0  0  0  0  0  0  0  0  0  0  0
    9.8763    0.5350   24.3454 H   0  0  0  0  0  0  0  0  0  0  0  0
   14.0077    0.1988   23.2842 H   0  0  0  0  0  0  0  0  0  0  0  0
   11.0892   -2.3009   21.3624 H   0  0  0  0  0  0  0  0  0  0  0  0
    4.7856    1.0823   16.5003 H   0  0  0  0  0  0  0  0  0  0  0  0
    6.8589   -1.9374   18.3464 H   0  0  0  0  0  0  0  0  0  0  0  0
    2.2041    0.5293   27.5737 H   0  0  0  0  0  0  0  0  0  0  0  0
    1.5427   -0.9359   26.8240 H   0  0  0  0  0  0  0  0  0  0  0  0
    3.0554   -0.7142   24.9357 H   0  0  0  0  0  0  0  0  0  0  0  0
    2.5762    0.9724   25.2139 H   0  0  0  0  0  0  0  0  0  0  0  0
    3.5431   -1.1002   28.6862 H   0  0  0  0  0  0  0  0  0  0  0  0
    3.5728   -2.1690   27.2662 H   0  0  0  0  0  0  0  0  0  0  0  0
    4.5526    1.4120   26.5470 H   0  0  0  0  0  0  0  0  0  0  0  0
    8.3236   -3.0763   24.4901 H   0  0  0  0  0  0  0  0  0  0  0  0
    9.3662   -1.8274   25.1619 H   0  0  0  0  0  0  0  0  0  0  0  0
    7.6864   -1.9486   25.7014 H   0  0  0  0  0  0  0  0  0  0  0  0
    6.5272    0.5229   25.3300 H   0  0  0  0  0  0  0  0  0  0  0  0
    5.2620    0.9466   24.1376 H   0  0  0  0  0  0  0  0  0  0  0  0
    6.1046   -0.6640   22.5233 H   0  0  0  0  0  0  0  0  0  0  0  0
    6.2842   -2.3596   23.0027 H   0  0  0  0  0  0  0  0  0  0  0  0
    8.8227   -2.2553   22.1299 H   0  0  0  0  0  0  0  0  0  0  0  0
    7.9631   -0.0642   24.1101 H   0  0  0  0  0  0  0  0  0  0  0  0
    6.8771   -1.6492   21.0526 H   0  0  0  0  0  0  0  0  0  0  0  0
    5.7836   -1.7343   25.2417 H   0  0  0  0  0  0  0  0  0  0  0  0
    4.5698   -1.3650   24.2000 H   0  0  0  0  0  0  0  0  0  0  0  0
  1  2  1  0  0  0  0
  1  4  2  0  0  0  0
  2  5  2  0  0  0  0
  3  6  2  0  0  0  0
  3  7  1  0  0  0  0
  4 11  1  0  0  0  0
  5 12  1  0  0  0  0
  6 13  1  0  0  0  0
  7 15  2  0  0  0  0
  8 13  2  0  0  0  0
  8 15  1  0  0  0  0
  9 11  2  0  0  0  0
  9 26  1  0  0  0  0
 10 14  1  0  0  0  0
 10 26  2  0  0  0  0
 11 12  1  0  0  0  0
 12 14  2  0  0  0  0
 13 24  1  0  0  0  0
 14 27  1  0  0  0  0
 15 31  1  0  0  0  0
 16 24  1  6  0  0  0
 16 27  1  0  0  0  0
 16 29  2  0  0  0  0
 17 18  1  0  0  0  0
 17 19  1  0  0  0  0
 18 20  1  0  0  0  0
 19 30  1  0  0  0  0
 20 22  1  6  0  0  0
 20 30  1  0  0  0  0
 21 25  1  6  0  0  0
 22 28  1  0  0  0  0
 23 25  1  0  0  0  0
 23 28  1  0  0  0  0
 24 25  1  0  0  0  0
  1 32  1  0  0  0  0
  2 33  1  0  0  0  0
  3 34  1  0  0  0  0
  4 35  1  0  0  0  0
  5 36  1  0  0  0  0
  6 37  1  0  0  0  0
  7 38  1  0  0  0  0
  8 39  1  0  0  0  0
  9 40  1  0  0  0  0
 10 41  1  0  0  0  0
 17 42  1  0  0  0  0
 17 43  1  0  0  0  0
 18 44  1  0  0  0  0
 18 45  1  0  0  0  0
 19 46  1  0  0  0  0
 19 47  1  0  0  0  0
 20 48  1  0  0  0  0
 21 49  1  0  0  0  0
 21 50  1  0  0  0  0
 21 51  1  0  0  0  0
 22 52  1  0  0  0  0
 22 53  1  0  0  0  0
 23 54  1  0  0  0  0
 23 55  1  0  0  0  0
 24 56  1  0  0  0  0
 25 57  1  0  0  0  0
 27 58  1  0  0  0  0
 28 59  1  0  0  0  0
 28 60  1  0  0  0  0
M  CHG  1  28   1
M  END
> <compound>
MAK-UNK-ffc90da7-4

> <compound_smiles>
CC(CNCC1CCCO1)C(c2cccc(c2)Cl)C(=O)Nc3cncc4c3cccc4

> <enantiomer_smiles>
C[C@H](CNC[C@H]1CCCO1)[C@H](c2cccc(c2)Cl)C(=O)Nc3cncc4c3cccc4

> <scaffold>
chlorobenzene-linker

> <clash_score>
0.6586747278998105

> <docking_score>
-3.2668681144714355

> <overlap_score>
0.8343976140022278

> <MMFF_internal_energy>
151.81627382122198

> <docked_smiles>
C[C@H](C[NH2+]C[C@H]1CCCO1)[C@H](c2cccc(c2)Cl)C(=O)Nc3cncc4c3cccc4

$$$$
MAK-UNK-ffc90da7-9_7
  -OEChem-07262101023D

 58 61  0     1  0  0  0  0  0999 V2000
   11.9780    0.4600   23.9150 C   0  0  0  0  0  0  0  0  0  0  0  0
    4.4258   -1.1215   20.3410 C   0  0  0  0  0  0  0  0  0  0  0  0
   10.6560    0.0720   23.7350 C   0  0  0  0  0  0  0  0  0  0  0  0
    3.0521   -1.2609   20.1354 C   0  0  0  0  0  0  0  0  0  0  0  0
   12.9840   -0.1200   23.1530 C   0  0  0  0  0  0  0  0  0  0  0  0
    3.2103    0.0769   18.1314 C   0  0  0  0  0  0  0  0  0  0  0  0
   11.3360   -1.5050   22.0650 C   0  0  0  0  0  0  0  0  0  0  0  0
    5.4060    0.9528   17.4579 C   0  0  0  0  0  0  0  0  0  0  0  0
    7.2960    0.5250   18.6908 C   0  0  0  0  0  0  0  0  0  0  0  0
    5.2110   -0.3801   19.4431 C   0  0  0  0  0  0  0  0  0  0  0  0
    4.5934    0.2236   18.3283 C   0  0  0  0  0  0  0  0  0  0  0  0
    2.4457   -0.6630   19.0331 C   0  0  0  0  0  0  0  0  0  0  0  0
   10.3220   -0.8940   22.7910 C   0  0  0  0  0  0  0  0  0  0  0  0
    6.5902   -0.2221   19.6216 C   0  0  0  0  0  0  0  0  0  0  0  0
   12.6400   -1.1000   22.2390 C   0  0  0  0  0  0  0  0  0  0  0  0
    8.3880   -0.3240   21.3070 C   0  0  0  0  0  0  0  0  0  0  0  0
    1.8828    3.5378   20.2011 C   0  0  0  0  0  0  0  0  0  0  0  0
    1.1559    4.3679   21.2392 C   0  0  0  0  0  0  0  0  0  0  0  0
    1.5434    2.1157   20.5945 C   0  0  2  0  0  0  0  0  0  0  0  0
    1.4324    2.2120   22.1147 C   0  0  2  0  0  0  0  0  0  0  0  0
    2.7619    1.9309   22.8093 C   0  0  0  0  0  0  0  0  0  0  0  0
    0.5870   -2.2920   18.5839 C   0  0  0  0  0  0  0  0  0  0  0  0
    8.8810   -1.1900   22.4510 C   0  0  0  0  0  0  0  0  0  0  0  0
    0.1658   -0.1958   19.9858 C   0  0  0  0  0  0  0  0  0  0  0  0
    0.9777   -0.8148   18.8176 C   0  0  2  0  0  0  0  0  0  0  0  0
    6.7392    1.1171   17.6128 N   0  0  0  0  0  0  0  0  0  0  0  0
    7.2820   -0.7860   20.6970 N   0  0  0  0  0  0  0  0  0  0  0  0
    8.9170    0.7530   21.0260 O   0  0  0  0  0  0  0  0  0  0  0  0
    1.0562    3.5674   22.4242 O   0  0  0  0  0  0  0  0  0  0  0  0
   -0.0547    1.6067   19.8632 S   0  0  0  0  0  0  0  0  0  0  0  0
   13.8840   -1.8490   21.2740 Cl  0  0  0  0  0  0  0  0  0  0  0  0
   12.2249    1.2198   24.6546 H   0  0  0  0  0  0  0  0  0  0  0  0
    4.8623   -1.6035   21.2129 H   0  0  0  0  0  0  0  0  0  0  0  0
    9.8763    0.5350   24.3454 H   0  0  0  0  0  0  0  0  0  0  0  0
    2.4626   -1.8396   20.8418 H   0  0  0  0  0  0  0  0  0  0  0  0
   14.0077    0.1988   23.2842 H   0  0  0  0  0  0  0  0  0  0  0  0
    2.7291    0.5405   17.2725 H   0  0  0  0  0  0  0  0  0  0  0  0
   11.0892   -2.3009   21.3624 H   0  0  0  0  0  0  0  0  0  0  0  0
    4.9938    1.4447   16.5809 H   0  0  0  0  0  0  0  0  0  0  0  0
    8.3675    0.6770   18.7841 H   0  0  0  0  0  0  0  0  0  0  0  0
    1.6269    3.8162   19.1742 H   0  0  0  0  0  0  0  0  0  0  0  0
    2.9631    3.6934   20.3155 H   0  0  0  0  0  0  0  0  0  0  0  0
    1.6815    5.2989   21.4702 H   0  0  0  0  0  0  0  0  0  0  0  0
    0.1401    4.6173   20.9152 H   0  0  0  0  0  0  0  0  0  0  0  0
    2.2882    1.3910   20.2588 H   0  0  0  0  0  0  0  0  0  0  0  0
    0.6786    1.5380   22.5365 H   0  0  0  0  0  0  0  0  0  0  0  0
    3.5342    2.5874   22.4106 H   0  0  0  0  0  0  0  0  0  0  0  0
    3.0550    0.8952   22.6430 H   0  0  0  0  0  0  0  0  0  0  0  0
    2.6646    2.1056   23.8801 H   0  0  0  0  0  0  0  0  0  0  0  0
    0.8481   -2.8953   19.4610 H   0  0  0  0  0  0  0  0  0  0  0  0
   -0.4864   -2.4182   18.4109 H   0  0  0  0  0  0  0  0  0  0  0  0
    1.1151   -2.7138   17.7218 H   0  0  0  0  0  0  0  0  0  0  0  0
    8.7775   -2.2383   22.1732 H   0  0  0  0  0  0  0  0  0  0  0  0
    8.2557   -1.0153   23.3257 H   0  0  0  0  0  0  0  0  0  0  0  0
    0.6445   -0.4099   20.9474 H   0  0  0  0  0  0  0  0  0  0  0  0
   -0.8349   -0.6421   20.0146 H   0  0  0  0  0  0  0  0  0  0  0  0
    0.6855   -0.2721   17.8959 H   0  0  0  0  0  0  0  0  0  0  0  0
    6.8981   -1.6619   21.0675 H   0  0  0  0  0  0  0  0  0  0  0  0
  1  3  2  0  0  0  0
  1  5  1  0  0  0  0
  2  4  2  0  0  0  0
  2 10  1  0  0  0  0
  3 13  1  0  0  0  0
  4 12  1  0  0  0  0
  5 15  2  0  0  0  0
  6 11  1  0  0  0  0
  6 12  2  0  0  0  0
  7 13  2  0  0  0  0
  7 15  1  0  0  0  0
  8 11  2  0  0  0  0
  8 26  1  0  0  0  0
  9 14  1  0  0  0  0
  9 26  2  0  0  0  0
 10 11  1  0  0  0  0
 10 14  2  0  0  0  0
 12 25  1  0  0  0  0
 13 23  1  0  0  0  0
 14 27  1  0  0  0  0
 15 31  1  0  0  0  0
 16 23  1  0  0  0  0
 16 27  1  0  0  0  0
 16 28  2  0  0  0  0
 17 18  1  0  0  0  0
 17 19  1  0  0  0  0
 18 29  1  0  0  0  0
 19 20  1  0  0  0  0
 19 30  1  6  0  0  0
 20 21  1  1  0  0  0
 20 29  1  0  0  0  0
 22 25  1  6  0  0  0
 24 25  1  0  0  0  0
 24 30  1  0  0  0  0
  1 32  1  0  0  0  0
  2 33  1  0  0  0  0
  3 34  1  0  0  0  0
  4 35  1  0  0  0  0
  5 36  1  0  0  0  0
  6 37  1  0  0  0  0
  7 38  1  0  0  0  0
  8 39  1  0  0  0  0
  9 40  1  0  0  0  0
 17 41  1  0  0  0  0
 17 42  1  0  0  0  0
 18 43  1  0  0  0  0
 18 44  1  0  0  0  0
 19 45  1  0  0  0  0
 20 46  1  0  0  0  0
 21 47  1  0  0  0  0
 21 48  1  0  0  0  0
 21 49  1  0  0  0  0
 22 50  1  0  0  0  0
 22 51  1  0  0  0  0
 22 52  1  0  0  0  0
 23 53  1  0  0  0  0
 23 54  1  0  0  0  0
 24 55  1  0  0  0  0
 24 56  1  0  0  0  0
 25 57  1  0  0  0  0
 27 58  1  0  0  0  0
M  END
> <compound>
MAK-UNK-ffc90da7-9

> <compound_smiles>
CC1C(CCO1)SCC(C)c2ccc3c(c2)cncc3NC(=O)Cc4cccc(c4)Cl

> <enantiomer_smiles>
C[C@@H]1[C@H](CCO1)SC[C@H](C)c2ccc3c(c2)cncc3NC(=O)Cc4cccc(c4)Cl

> <scaffold>
chlorobenzene-linker

> <clash_score>
11.892621487008304

> <docking_score>
3.2908389568328857

> <overlap_score>
0.7957428693771362

> <MMFF_internal_energy>
130.08949600277137

> <docked_smiles>
C[C@@H]1[C@H](CCO1)SC[C@H](C)c2ccc3c(c2)cncc3NC(=O)Cc4cccc(c4)Cl

$$$$
MAK-UNK-ffc90da7-6_2
  -OEChem-07262101023D

 56 58  0     1  0  0  0  0  0999 V2000
   11.9780    0.4600   23.9150 C   0  0  0  0  0  0  0  0  0  0  0  0
    3.2837    1.1295   18.6346 C   0  0  0  0  0  0  0  0  0  0  0  0
   10.6560    0.0720   23.7350 C   0  0  0  0  0  0  0  0  0  0  0  0
    2.5590    0.9732   19.8159 C   0  0  0  0  0  0  0  0  0  0  0  0
   12.9840   -0.1200   23.1530 C   0  0  0  0  0  0  0  0  0  0  0  0
    4.5042    0.0193   20.8872 C   0  0  0  0  0  0  0  0  0  0  0  0
   11.3360   -1.5050   22.0650 C   0  0  0  0  0  0  0  0  0  0  0  0
    5.4010    0.8637   17.4146 C   0  0  0  0  0  0  0  0  0  0  0  0
    7.2573   -0.0411   18.4196 C   0  0  0  0  0  0  0  0  0  0  0  0
    4.6290    0.7303   18.5704 C   0  0  0  0  0  0  0  0  0  0  0  0
    5.2490    0.1692   19.7060 C   0  0  0  0  0  0  0  0  0  0  0  0
    3.1678    0.4193   20.9396 C   0  0  0  0  0  0  0  0  0  0  0  0
   10.3220   -0.8940   22.7910 C   0  0  0  0  0  0  0  0  0  0  0  0
    6.5902   -0.2221   19.6216 C   0  0  0  0  0  0  0  0  0  0  0  0
   12.6400   -1.1000   22.2390 C   0  0  0  0  0  0  0  0  0  0  0  0
    8.3880   -0.3240   21.3070 C   0  0  0  0  0  0  0  0  0  0  0  0
    1.2012   -0.7179   22.0299 C   0  0  0  0  0  0  0  0  0  0  0  0
    8.8810   -1.1900   22.4510 C   0  0  0  0  0  0  0  0  0  0  0  0
    3.5993    4.9520   23.0470 C   0  0  0  0  0  0  0  0  0  0  0  0
    2.4409    3.9758   23.1607 C   0  0  0  0  0  0  0  0  0  0  0  0
    1.8469    1.5783   22.7890 C   0  0  0  0  0  0  0  0  0  0  0  0
    4.1000    5.0541   21.6135 C   0  0  0  0  0  0  0  0  0  0  0  0
    2.3898    0.2541   22.2017 C   0  0  2  0  0  0  0  0  0  0  0  0
    6.6971    0.4921   17.3131 N   0  0  0  0  0  0  0  0  0  0  0  0
    7.2820   -0.7860   20.6970 N   0  0  0  0  0  0  0  0  0  0  0  0
    2.8794    2.6403   22.6738 N   0  3  0  0  0  0  0  0  0  0  0  0
    8.9170    0.7530   21.0260 O   0  0  0  0  0  0  0  0  0  0  0  0
    3.0330    5.4921   20.7837 O   0  0  0  0  0  0  0  0  0  0  0  0
   13.8840   -1.8490   21.2740 Cl  0  0  0  0  0  0  0  0  0  0  0  0
   12.2249    1.2198   24.6546 H   0  0  0  0  0  0  0  0  0  0  0  0
    2.7937    1.5644   17.7666 H   0  0  0  0  0  0  0  0  0  0  0  0
    9.8763    0.5350   24.3454 H   0  0  0  0  0  0  0  0  0  0  0  0
    1.5183    1.2856   19.8491 H   0  0  0  0  0  0  0  0  0  0  0  0
   14.0077    0.1988   23.2842 H   0  0  0  0  0  0  0  0  0  0  0  0
    4.9529   -0.4105   21.7807 H   0  0  0  0  0  0  0  0  0  0  0  0
   11.0892   -2.3008   21.3624 H   0  0  0  0  0  0  0  0  0  0  0  0
    4.9846    1.2874   16.5047 H   0  0  0  0  0  0  0  0  0  0  0  0
    8.2985   -0.3283   18.3033 H   0  0  0  0  0  0  0  0  0  0  0  0
    0.4978   -0.3657   21.2675 H   0  0  0  0  0  0  0  0  0  0  0  0
    1.5591   -1.7071   21.7234 H   0  0  0  0  0  0  0  0  0  0  0  0
    0.6440   -0.8386   22.9653 H   0  0  0  0  0  0  0  0  0  0  0  0
    8.7774   -2.2383   22.1732 H   0  0  0  0  0  0  0  0  0  0  0  0
    8.2557   -1.0153   23.3257 H   0  0  0  0  0  0  0  0  0  0  0  0
    4.4265    4.6443   23.6995 H   0  0  0  0  0  0  0  0  0  0  0  0
    3.2989    5.9474   23.3982 H   0  0  0  0  0  0  0  0  0  0  0  0
    1.5899    4.2755   22.5420 H   0  0  0  0  0  0  0  0  0  0  0  0
    2.1155    3.8447   24.1969 H   0  0  0  0  0  0  0  0  0  0  0  0
    1.5963    1.4962   23.8510 H   0  0  0  0  0  0  0  0  0  0  0  0
    0.9709    1.9465   22.2455 H   0  0  0  0  0  0  0  0  0  0  0  0
    4.4466    4.0812   21.2507 H   0  0  0  0  0  0  0  0  0  0  0  0
    4.9196    5.7758   21.5367 H   0  0  0  0  0  0  0  0  0  0  0  0
    3.0277   -0.1999   22.9889 H   0  0  0  0  0  0  0  0  0  0  0  0
    6.8981   -1.6619   21.0675 H   0  0  0  0  0  0  0  0  0  0  0  0
    3.1734    2.7210   21.6902 H   0  0  0  0  0  0  0  0  0  0  0  0
    3.7204    2.3526   23.1935 H   0  0  0  0  0  0  0  0  0  0  0  0
    3.3845    5.5464   19.8802 H   0  0  0  0  0  0  0  0  0  0  0  0
  1  3  2  0  0  0  0
  1  5  1  0  0  0  0
  2  4  2  0  0  0  0
  2 10  1  0  0  0  0
  3 13  1  0  0  0  0
  4 12  1  0  0  0  0
  5 15  2  0  0  0  0
  6 11  1  0  0  0  0
  6 12  2  0  0  0  0
  7 13  2  0  0  0  0
  7 15  1  0  0  0  0
  8 10  1  0  0  0  0
  8 24  2  0  0  0  0
  9 14  2  0  0  0  0
  9 24  1  0  0  0  0
 10 11  2  0  0  0  0
 11 14  1  0  0  0  0
 12 23  1  0  0  0  0
 13 18  1  0  0  0  0
 14 25  1  0  0  0  0
 15 29  1  0  0  0  0
 16 18  1  0  0  0  0
 16 25  1  0  0  0  0
 16 27  2  0  0  0  0
 17 23  1  6  0  0  0
 19 20  1  0  0  0  0
 19 22  1  0  0  0  0
 20 26  1  0  0  0  0
 21 23  1  0  0  0  0
 21 26  1  0  0  0  0
 22 28  1  0  0  0  0
  1 30  1  0  0  0  0
  2 31  1  0  0  0  0
  3 32  1  0  0  0  0
  4 33  1  0  0  0  0
  5 34  1  0  0  0  0
  6 35  1  0  0  0  0
  7 36  1  0  0  0  0
  8 37  1  0  0  0  0
  9 38  1  0  0  0  0
 17 39  1  0  0  0  0
 17 40  1  0  0  0  0
 17 41  1  0  0  0  0
 18 42  1  0  0  0  0
 18 43  1  0  0  0  0
 19 44  1  0  0  0  0
 19 45  1  0  0  0  0
 20 46  1  0  0  0  0
 20 47  1  0  0  0  0
 21 48  1  0  0  0  0
 21 49  1  0  0  0  0
 22 50  1  0  0  0  0
 22 51  1  0  0  0  0
 23 52  1  0  0  0  0
 25 53  1  0  0  0  0
 26 54  1  0  0  0  0
 26 55  1  0  0  0  0
 28 56  1  0  0  0  0
M  CHG  1  26   1
M  END
> <compound>
MAK-UNK-ffc90da7-6

> <compound_smiles>
CC(CNCCCO)c1ccc2cncc(c2c1)NC(=O)Cc3cccc(c3)Cl

> <enantiomer_smiles>
C[C@H](CNCCCO)c1ccc2cncc(c2c1)NC(=O)Cc3cccc(c3)Cl

> <scaffold>
chlorobenzene-linker

> <clash_score>
2.032887344665598

> <docking_score>
-4.849040508270264

> <overlap_score>
0.8996096849441528

> <MMFF_internal_energy>
116.69057175929728

> <docked_smiles>
C[C@H](C[NH2+]CCCO)c1ccc2cncc(c2c1)NC(=O)Cc3cccc(c3)Cl

$$$$
MAK-UNK-ffc90da7-1_4
  -OEChem-07262101023D

 56 58  0     1  0  0  0  0  0999 V2000
    3.4829    2.5990   20.0546 C   0  0  0  0  0  0  0  0  0  0  0  0
    4.1078    2.0778   21.1851 C   0  0  0  0  0  0  0  0  0  0  0  0
   11.9780    0.4600   23.9150 C   0  0  0  0  0  0  0  0  0  0  0  0
    3.8872    2.1924   18.7832 C   0  0  0  0  0  0  0  0  0  0  0  0
    5.1399    1.1477   21.0494 C   0  0  0  0  0  0  0  0  0  0  0  0
   10.6560    0.0720   23.7350 C   0  0  0  0  0  0  0  0  0  0  0  0
   12.9840   -0.1200   23.1530 C   0  0  0  0  0  0  0  0  0  0  0  0
   11.3360   -1.5050   22.0650 C   0  0  0  0  0  0  0  0  0  0  0  0
    5.3690    0.8152   17.3870 C   0  0  0  0  0  0  0  0  0  0  0  0
    6.9479   -0.5684   18.3183 C   0  0  0  0  0  0  0  0  0  0  0  0
    4.9246    1.2569   18.6348 C   0  0  0  0  0  0  0  0  0  0  0  0
    5.5597    0.7270   19.7769 C   0  0  0  0  0  0  0  0  0  0  0  0
   10.3220   -0.8940   22.7910 C   0  0  0  0  0  0  0  0  0  0  0  0
    6.5912   -0.2039   19.6077 C   0  0  0  0  0  0  0  0  0  0  0  0
   12.6400   -1.1000   22.2390 C   0  0  0  0  0  0  0  0  0  0  0  0
    8.3880   -0.3240   21.3070 C   0  0  0  0  0  0  0  0  0  0  0  0
    8.5815   -1.6254   24.9777 C   0  0  0  0  0  0  0  0  0  0  0  0
    5.7496   -5.4456   22.7948 C   0  0  0  0  0  0  0  0  0  0  0  0
    5.4493   -3.9701   22.9962 C   0  0  0  0  0  0  0  0  0  0  0  0
    6.5671   -1.7855   23.4614 C   0  0  0  0  0  0  0  0  0  0  0  0
    6.6881   -5.6649   21.6169 C   0  0  0  0  0  0  0  0  0  0  0  0
    8.8810   -1.1900   22.4510 C   0  0  2  0  0  0  0  0  0  0  0  0
    7.9194   -1.0821   23.6998 C   0  0  2  0  0  0  0  0  0  0  0  0
    6.3631   -0.0826   17.2027 N   0  0  0  0  0  0  0  0  0  0  0  0
    7.2820   -0.7860   20.6970 N   0  0  0  0  0  0  0  0  0  0  0  0
    6.7166   -3.2518   23.3039 N   0  3  0  0  0  0  0  0  0  0  0  0
    8.9170    0.7530   21.0260 O   0  0  0  0  0  0  0  0  0  0  0  0
    6.9441   -7.0564   21.4857 O   0  0  0  0  0  0  0  0  0  0  0  0
   13.8840   -1.8490   21.2740 Cl  0  0  0  0  0  0  0  0  0  0  0  0
    2.6801    3.3223   20.1631 H   0  0  0  0  0  0  0  0  0  0  0  0
    3.7912    2.3956   22.1744 H   0  0  0  0  0  0  0  0  0  0  0  0
   12.2249    1.2198   24.6546 H   0  0  0  0  0  0  0  0  0  0  0  0
    3.3884    2.6092   17.9112 H   0  0  0  0  0  0  0  0  0  0  0  0
    5.6035    0.7643   21.9554 H   0  0  0  0  0  0  0  0  0  0  0  0
    9.8763    0.5350   24.3454 H   0  0  0  0  0  0  0  0  0  0  0  0
   14.0077    0.1988   23.2842 H   0  0  0  0  0  0  0  0  0  0  0  0
   11.0892   -2.3009   21.3624 H   0  0  0  0  0  0  0  0  0  0  0  0
    4.9229    1.1830   16.4670 H   0  0  0  0  0  0  0  0  0  0  0  0
    7.7413   -1.2873   18.1342 H   0  0  0  0  0  0  0  0  0  0  0  0
    8.8480   -2.6812   24.8598 H   0  0  0  0  0  0  0  0  0  0  0  0
    9.5063   -1.0860   25.2058 H   0  0  0  0  0  0  0  0  0  0  0  0
    7.9204   -1.5358   25.8458 H   0  0  0  0  0  0  0  0  0  0  0  0
    4.8215   -6.0075   22.6290 H   0  0  0  0  0  0  0  0  0  0  0  0
    6.1978   -5.8737   23.7005 H   0  0  0  0  0  0  0  0  0  0  0  0
    4.7751   -3.8005   23.8409 H   0  0  0  0  0  0  0  0  0  0  0  0
    5.0342   -3.5096   22.0949 H   0  0  0  0  0  0  0  0  0  0  0  0
    5.8690   -1.6315   24.2888 H   0  0  0  0  0  0  0  0  0  0  0  0
    6.0919   -1.4227   22.5440 H   0  0  0  0  0  0  0  0  0  0  0  0
    7.6404   -5.1489   21.7751 H   0  0  0  0  0  0  0  0  0  0  0  0
    6.2376   -5.3046   20.6865 H   0  0  0  0  0  0  0  0  0  0  0  0
    8.8227   -2.2553   22.1299 H   0  0  0  0  0  0  0  0  0  0  0  0
    7.6814   -0.0268   23.8899 H   0  0  0  0  0  0  0  0  0  0  0  0
    6.8771   -1.6492   21.0526 H   0  0  0  0  0  0  0  0  0  0  0  0
    7.1244   -3.6479   24.1637 H   0  0  0  0  0  0  0  0  0  0  0  0
    7.4006   -3.4475   22.5580 H   0  0  0  0  0  0  0  0  0  0  0  0
    7.5431   -7.1612   20.7288 H   0  0  0  0  0  0  0  0  0  0  0  0
  1  2  1  0  0  0  0
  1  4  2  0  0  0  0
  2  5  2  0  0  0  0
  3  6  2  0  0  0  0
  3  7  1  0  0  0  0
  4 11  1  0  0  0  0
  5 12  1  0  0  0  0
  6 13  1  0  0  0  0
  7 15  2  0  0  0  0
  8 13  2  0  0  0  0
  8 15  1  0  0  0  0
  9 11  2  0  0  0  0
  9 24  1  0  0  0  0
 10 14  1  0  0  0  0
 10 24  2  0  0  0  0
 11 12  1  0  0  0  0
 12 14  2  0  0  0  0
 13 22  1  0  0  0  0
 14 25  1  0  0  0  0
 15 29  1  0  0  0  0
 16 22  1  6  0  0  0
 16 25  1  0  0  0  0
 16 27  2  0  0  0  0
 17 23  1  6  0  0  0
 18 19  1  0  0  0  0
 18 21  1  0  0  0  0
 19 26  1  0  0  0  0
 20 23  1  0  0  0  0
 20 26  1  0  0  0  0
 21 28  1  0  0  0  0
 22 23  1  0  0  0  0
  1 30  1  0  0  0  0
  2 31  1  0  0  0  0
  3 32  1  0  0  0  0
  4 33  1  0  0  0  0
  5 34  1  0  0  0  0
  6 35  1  0  0  0  0
  7 36  1  0  0  0  0
  8 37  1  0  0  0  0
  9 38  1  0  0  0  0
 10 39  1  0  0  0  0
 17 40  1  0  0  0  0
 17 41  1  0  0  0  0
 17 42  1  0  0  0  0
 18 43  1  0  0  0  0
 18 44  1  0  0  0  0
 19 45  1  0  0  0  0
 19 46  1  0  0  0  0
 20 47  1  0  0  0  0
 20 48  1  0  0  0  0
 21 49  1  0  0  0  0
 21 50  1  0  0  0  0
 22 51  1  0  0  0  0
 23 52  1  0  0  0  0
 25 53  1  0  0  0  0
 26 54  1  0  0  0  0
 26 55  1  0  0  0  0
 28 56  1  0  0  0  0
M  CHG  1  26   1
M  END
> <compound>
MAK-UNK-ffc90da7-1

> <compound_smiles>
CC(CNCCCO)C(c1cccc(c1)Cl)C(=O)Nc2cncc3c2cccc3

> <enantiomer_smiles>
C[C@H](CNCCCO)[C@H](c1cccc(c1)Cl)C(=O)Nc2cncc3c2cccc3

> <scaffold>
chlorobenzene-linker

> <clash_score>
0

> <docking_score>
-9.988710403442383

> <overlap_score>
0.9808577299118042

> <MMFF_internal_energy>
145.6415923902243

> <docked_smiles>
C[C@H](C[NH2+]CCCO)[C@H](c1cccc(c1)Cl)C(=O)Nc2cncc3c2cccc3

$$$$
MIC-UNK-5a93dd5f-5_4
  -OEChem-07262101023D

 54 57  0     1  0  0  0  0  0999 V2000
    3.4588    2.5719   20.0554 C   0  0  0  0  0  0  0  0  0  0  0  0
    4.0835    2.0505   21.1859 C   0  0  0  0  0  0  0  0  0  0  0  0
   11.9780    0.4600   23.9150 C   0  0  0  0  0  0  0  0  0  0  0  0
    3.8711    2.1742   18.7837 C   0  0  0  0  0  0  0  0  0  0  0  0
    5.1234    1.1291   21.0499 C   0  0  0  0  0  0  0  0  0  0  0  0
   10.6560    0.0720   23.7350 C   0  0  0  0  0  0  0  0  0  0  0  0
   12.9840   -0.1200   23.1530 C   0  0  0  0  0  0  0  0  0  0  0  0
   11.3360   -1.5050   22.0650 C   0  0  0  0  0  0  0  0  0  0  0  0
    5.3689    0.8151   17.3870 C   0  0  0  0  0  0  0  0  0  0  0  0
    6.9552   -0.5603   18.3181 C   0  0  0  0  0  0  0  0  0  0  0  0
    4.9163    1.2476   18.6351 C   0  0  0  0  0  0  0  0  0  0  0  0
    5.5514    0.7175   19.7772 C   0  0  0  0  0  0  0  0  0  0  0  0
   10.3220   -0.8940   22.7910 C   0  0  0  0  0  0  0  0  0  0  0  0
    6.5908   -0.2044   19.6077 C   0  0  0  0  0  0  0  0  0  0  0  0
   12.6400   -1.1000   22.2390 C   0  0  0  0  0  0  0  0  0  0  0  0
    9.2951   -7.0285   23.8962 C   0  0  0  0  0  0  0  0  0  0  0  0
    8.3880   -0.3240   21.3070 C   0  0  0  0  0  0  0  0  0  0  0  0
    7.1851   -4.2392   23.1475 C   0  0  0  0  0  0  0  0  0  0  0  0
    7.1911   -3.0609   22.1897 C   0  0  0  0  0  0  0  0  0  0  0  0
    9.4543   -3.5944   22.9499 C   0  0  0  0  0  0  0  0  0  0  0  0
    8.5771   -4.8302   23.0041 C   0  0  1  0  0  0  0  0  0  0  0  0
    9.6211   -7.7548   25.1590 C   0  0  0  0  0  0  0  0  0  0  0  0
    8.8810   -1.1900   22.4510 C   0  0  1  0  0  0  0  0  0  0  0  0
    6.3708   -0.0740   17.2025 N   0  0  0  0  0  0  0  0  0  0  0  0
    7.2820   -0.7860   20.6970 N   0  0  0  0  0  0  0  0  0  0  0  0
    8.9284   -5.7078   24.0824 N   0  0  0  0  0  0  0  0  0  0  0  0
    8.6445   -2.6287   22.1110 N   0  3  2  0  0  0  0  0  0  0  0  0
    9.3700   -7.6172   22.8241 O   0  0  0  0  0  0  0  0  0  0  0  0
    8.9170    0.7530   21.0260 O   0  0  0  0  0  0  0  0  0  0  0  0
   13.8840   -1.8490   21.2740 Cl  0  0  0  0  0  0  0  0  0  0  0  0
    2.6499    3.2883   20.1641 H   0  0  0  0  0  0  0  0  0  0  0  0
    3.7607    2.3613   22.1754 H   0  0  0  0  0  0  0  0  0  0  0  0
   12.2249    1.2198   24.6546 H   0  0  0  0  0  0  0  0  0  0  0  0
    3.3723    2.5911   17.9118 H   0  0  0  0  0  0  0  0  0  0  0  0
    5.5866    0.7453   21.9560 H   0  0  0  0  0  0  0  0  0  0  0  0
    9.8763    0.5350   24.3454 H   0  0  0  0  0  0  0  0  0  0  0  0
   14.0077    0.1988   23.2842 H   0  0  0  0  0  0  0  0  0  0  0  0
   11.0892   -2.3009   21.3624 H   0  0  0  0  0  0  0  0  0  0  0  0
    4.9234    1.1835   16.4670 H   0  0  0  0  0  0  0  0  0  0  0  0
    7.7549   -1.2720   18.1337 H   0  0  0  0  0  0  0  0  0  0  0  0
    6.9476   -3.9384   24.1745 H   0  0  0  0  0  0  0  0  0  0  0  0
    6.4303   -4.9731   22.8341 H   0  0  0  0  0  0  0  0  0  0  0  0
    6.8528   -3.3153   21.1769 H   0  0  0  0  0  0  0  0  0  0  0  0
    6.6044   -2.2166   22.5792 H   0  0  0  0  0  0  0  0  0  0  0  0
    9.6762   -3.1551   23.9213 H   0  0  0  0  0  0  0  0  0  0  0  0
   10.3764   -3.7808   22.3991 H   0  0  0  0  0  0  0  0  0  0  0  0
    8.6636   -5.4150   22.0746 H   0  0  0  0  0  0  0  0  0  0  0  0
    8.7387   -8.2424   25.6034 H   0  0  0  0  0  0  0  0  0  0  0  0
   10.3526   -8.5638   25.0019 H   0  0  0  0  0  0  0  0  0  0  0  0
   10.0451   -7.1335   25.9640 H   0  0  0  0  0  0  0  0  0  0  0  0
    8.2445   -1.0188   23.3300 H   0  0  0  0  0  0  0  0  0  0  0  0
    6.8974   -1.6551   21.0612 H   0  0  0  0  0  0  0  0  0  0  0  0
    8.9069   -5.3412   25.0305 H   0  0  0  0  0  0  0  0  0  0  0  0
    8.9439   -2.7587   21.1355 H   0  0  0  0  0  0  0  0  0  0  0  0
  1  2  1  0  0  0  0
  1  4  2  0  0  0  0
  2  5  2  0  0  0  0
  3  6  2  0  0  0  0
  3  7  1  0  0  0  0
  4 11  1  0  0  0  0
  5 12  1  0  0  0  0
  6 13  1  0  0  0  0
  7 15  2  0  0  0  0
  8 13  2  0  0  0  0
  8 15  1  0  0  0  0
  9 11  2  0  0  0  0
  9 24  1  0  0  0  0
 10 14  1  0  0  0  0
 10 24  2  0  0  0  0
 11 12  1  0  0  0  0
 12 14  2  0  0  0  0
 13 23  1  0  0  0  0
 14 25  1  0  0  0  0
 15 30  1  0  0  0  0
 16 22  1  0  0  0  0
 16 26  1  0  0  0  0
 16 28  2  0  0  0  0
 17 23  1  1  0  0  0
 17 25  1  0  0  0  0
 17 29  2  0  0  0  0
 18 19  1  0  0  0  0
 18 21  1  0  0  0  0
 19 27  1  6  0  0  0
 20 21  1  0  0  0  0
 20 27  1  0  0  0  0
 21 26  1  6  0  0  0
 23 27  1  0  0  0  0
  1 31  1  0  0  0  0
  2 32  1  0  0  0  0
  3 33  1  0  0  0  0
  4 34  1  0  0  0  0
  5 35  1  0  0  0  0
  6 36  1  0  0  0  0
  7 37  1  0  0  0  0
  8 38  1  0  0  0  0
  9 39  1  0  0  0  0
 10 40  1  0  0  0  0
 18 41  1  0  0  0  0
 18 42  1  0  0  0  0
 19 43  1  0  0  0  0
 19 44  1  0  0  0  0
 20 45  1  0  0  0  0
 20 46  1  0  0  0  0
 21 47  1  0  0  0  0
 22 48  1  0  0  0  0
 22 49  1  0  0  0  0
 22 50  1  0  0  0  0
 23 51  1  0  0  0  0
 25 52  1  0  0  0  0
 26 53  1  0  0  0  0
 27 54  1  0  0  0  0
M  CHG  1  27   1
M  END
> <compound>
MIC-UNK-5a93dd5f-5

> <compound_smiles>
CC(=O)NC1CCN(C1)C(c2cccc(c2)Cl)C(=O)Nc3cncc4c3cccc4

> <enantiomer_smiles>
CC(=O)N[C@H]1CC[N@](C1)[C@@H](c2cccc(c2)Cl)C(=O)Nc3cncc4c3cccc4

> <scaffold>
chlorobenzene-linker

> <clash_score>
0

> <docking_score>
-6.051370620727539

> <overlap_score>
0.9806527495384216

> <MMFF_internal_energy>
189.68646842835483

> <docked_smiles>
CC(=O)N[C@H]1CC[N@H+](C1)[C@@H](c2cccc(c2)Cl)C(=O)Nc3cncc4c3cccc4

$$$$
MAK-UNK-ffc90da7-4_7
  -OEChem-07262101023D

 60 63  0     1  0  0  0  0  0999 V2000
    2.5765    1.0462   19.7996 C   0  0  0  0  0  0  0  0  0  0  0  0
    3.1767    0.4829   20.9233 C   0  0  0  0  0  0  0  0  0  0  0  0
   11.9780    0.4600   23.9150 C   0  0  0  0  0  0  0  0  0  0  0  0
    3.3045    1.1939   18.6191 C   0  0  0  0  0  0  0  0  0  0  0  0
    4.5075    0.0647   20.8716 C   0  0  0  0  0  0  0  0  0  0  0  0
   10.6560    0.0720   23.7350 C   0  0  0  0  0  0  0  0  0  0  0  0
   12.9840   -0.1200   23.1530 C   0  0  0  0  0  0  0  0  0  0  0  0
   11.3360   -1.5050   22.0650 C   0  0  0  0  0  0  0  0  0  0  0  0
    5.4190    0.9004   17.4008 C   0  0  0  0  0  0  0  0  0  0  0  0
    7.2619   -0.0308   18.4065 C   0  0  0  0  0  0  0  0  0  0  0  0
    4.6442    0.7764   18.5558 C   0  0  0  0  0  0  0  0  0  0  0  0
    5.2554    0.2056   19.6913 C   0  0  0  0  0  0  0  0  0  0  0  0
   10.3220   -0.8940   22.7910 C   0  0  0  0  0  0  0  0  0  0  0  0
    6.5912   -0.2039   19.6077 C   0  0  0  0  0  0  0  0  0  0  0  0
   12.6400   -1.1000   22.2390 C   0  0  0  0  0  0  0  0  0  0  0  0
    8.3880   -0.3240   21.3070 C   0  0  0  0  0  0  0  0  0  0  0  0
    2.2439    2.6912   26.0907 C   0  0  0  0  0  0  0  0  0  0  0  0
    3.7182    3.0085   26.0774 C   0  0  0  0  0  0  0  0  0  0  0  0
    2.1203    1.7299   24.9277 C   0  0  0  0  0  0  0  0  0  0  0  0
    4.3145    1.6607   25.7104 C   0  0  1  0  0  0  0  0  0  0  0  0
    8.5537   -1.7378   24.9385 C   0  0  0  0  0  0  0  0  0  0  0  0
    5.6671    1.7619   25.0325 C   0  0  0  0  0  0  0  0  0  0  0  0
    7.4740    0.3571   24.0324 C   0  0  0  0  0  0  0  0  0  0  0  0
    8.8810   -1.1900   22.4510 C   0  0  2  0  0  0  0  0  0  0  0  0
    7.9194   -1.0821   23.6998 C   0  0  1  0  0  0  0  0  0  0  0  0
    6.7100    0.5112   17.3001 N   0  0  0  0  0  0  0  0  0  0  0  0
    7.2820   -0.7860   20.6970 N   0  0  0  0  0  0  0  0  0  0  0  0
    6.1796    0.3921   24.7540 N   0  3  0  0  0  0  0  0  0  0  0  0
    8.9170    0.7530   21.0260 O   0  0  0  0  0  0  0  0  0  0  0  0
    3.3710    1.0329   24.8259 O   0  0  0  0  0  0  0  0  0  0  0  0
   13.8840   -1.8490   21.2740 Cl  0  0  0  0  0  0  0  0  0  0  0  0
    1.5410    1.3706   19.8425 H   0  0  0  0  0  0  0  0  0  0  0  0
    2.6079    0.3686   21.8416 H   0  0  0  0  0  0  0  0  0  0  0  0
   12.2249    1.2198   24.6546 H   0  0  0  0  0  0  0  0  0  0  0  0
    2.8204    1.6355   17.7511 H   0  0  0  0  0  0  0  0  0  0  0  0
    4.9409   -0.3697   21.7696 H   0  0  0  0  0  0  0  0  0  0  0  0
    9.8763    0.5350   24.3454 H   0  0  0  0  0  0  0  0  0  0  0  0
   14.0077    0.1988   23.2842 H   0  0  0  0  0  0  0  0  0  0  0  0
   11.0892   -2.3009   21.3624 H   0  0  0  0  0  0  0  0  0  0  0  0
    5.0099    1.3312   16.4910 H   0  0  0  0  0  0  0  0  0  0  0  0
    8.2989   -0.3328   18.2906 H   0  0  0  0  0  0  0  0  0  0  0  0
    1.9811    2.1830   27.0261 H   0  0  0  0  0  0  0  0  0  0  0  0
    1.6029    3.5706   25.9879 H   0  0  0  0  0  0  0  0  0  0  0  0
    3.9263    3.7560   25.3022 H   0  0  0  0  0  0  0  0  0  0  0  0
    4.0888    3.3918   27.0321 H   0  0  0  0  0  0  0  0  0  0  0  0
    1.3072    1.0109   25.0618 H   0  0  0  0  0  0  0  0  0  0  0  0
    1.9610    2.2660   23.9861 H   0  0  0  0  0  0  0  0  0  0  0  0
    4.3956    1.0261   26.6008 H   0  0  0  0  0  0  0  0  0  0  0  0
    9.4843   -1.2301   25.2145 H   0  0  0  0  0  0  0  0  0  0  0  0
    7.8875   -1.6771   25.8049 H   0  0  0  0  0  0  0  0  0  0  0  0
    8.7807   -2.7948   24.7656 H   0  0  0  0  0  0  0  0  0  0  0  0
    6.4037    2.2568   25.6713 H   0  0  0  0  0  0  0  0  0  0  0  0
    5.6004    2.2813   24.0725 H   0  0  0  0  0  0  0  0  0  0  0  0
    8.1970    0.8780   24.6661 H   0  0  0  0  0  0  0  0  0  0  0  0
    7.3356    0.9463   23.1199 H   0  0  0  0  0  0  0  0  0  0  0  0
    8.8227   -2.2553   22.1299 H   0  0  0  0  0  0  0  0  0  0  0  0
    6.9977   -1.6390   23.4831 H   0  0  0  0  0  0  0  0  0  0  0  0
    6.8771   -1.6492   21.0526 H   0  0  0  0  0  0  0  0  0  0  0  0
    6.2715   -0.1175   25.6452 H   0  0  0  0  0  0  0  0  0  0  0  0
    5.4719   -0.1251   24.2115 H   0  0  0  0  0  0  0  0  0  0  0  0
  1  2  1  0  0  0  0
  1  4  2  0  0  0  0
  2  5  2  0  0  0  0
  3  6  2  0  0  0  0
  3  7  1  0  0  0  0
  4 11  1  0  0  0  0
  5 12  1  0  0  0  0
  6 13  1  0  0  0  0
  7 15  2  0  0  0  0
  8 13  2  0  0  0  0
  8 15  1  0  0  0  0
  9 11  2  0  0  0  0
  9 26  1  0  0  0  0
 10 14  1  0  0  0  0
 10 26  2  0  0  0  0
 11 12  1  0  0  0  0
 12 14  2  0  0  0  0
 13 24  1  0  0  0  0
 14 27  1  0  0  0  0
 15 31  1  0  0  0  0
 16 24  1  6  0  0  0
 16 27  1  0  0  0  0
 16 29  2  0  0  0  0
 17 18  1  0  0  0  0
 17 19  1  0  0  0  0
 18 20  1  0  0  0  0
 19 30  1  0  0  0  0
 20 22  1  6  0  0  0
 20 30  1  0  0  0  0
 21 25  1  1  0  0  0
 22 28  1  0  0  0  0
 23 25  1  0  0  0  0
 23 28  1  0  0  0  0
 24 25  1  0  0  0  0
  1 32  1  0  0  0  0
  2 33  1  0  0  0  0
  3 34  1  0  0  0  0
  4 35  1  0  0  0  0
  5 36  1  0  0  0  0
  6 37  1  0  0  0  0
  7 38  1  0  0  0  0
  8 39  1  0  0  0  0
  9 40  1  0  0  0  0
 10 41  1  0  0  0  0
 17 42  1  0  0  0  0
 17 43  1  0  0  0  0
 18 44  1  0  0  0  0
 18 45  1  0  0  0  0
 19 46  1  0  0  0  0
 19 47  1  0  0  0  0
 20 48  1  0  0  0  0
 21 49  1  0  0  0  0
 21 50  1  0  0  0  0
 21 51  1  0  0  0  0
 22 52  1  0  0  0  0
 22 53  1  0  0  0  0
 23 54  1  0  0  0  0
 23 55  1  0  0  0  0
 24 56  1  0  0  0  0
 25 57  1  0  0  0  0
 27 58  1  0  0  0  0
 28 59  1  0  0  0  0
 28 60  1  0  0  0  0
M  CHG  1  28   1
M  END
> <compound>
MAK-UNK-ffc90da7-4

> <compound_smiles>
CC(CNCC1CCCO1)C(c2cccc(c2)Cl)C(=O)Nc3cncc4c3cccc4

> <enantiomer_smiles>
C[C@@H](CNC[C@H]1CCCO1)[C@H](c2cccc(c2)Cl)C(=O)Nc3cncc4c3cccc4

> <scaffold>
chlorobenzene-linker

> <clash_score>
0

> <docking_score>
-4.954165458679199

> <overlap_score>
0.8971115350723267

> <MMFF_internal_energy>
140.54014081494694

> <docked_smiles>
C[C@@H](C[NH2+]C[C@H]1CCCO1)[C@H](c2cccc(c2)Cl)C(=O)Nc3cncc4c3cccc4

$$$$
MIC-UNK-5a93dd5f-5_7
  -OEChem-07262101023D

 54 57  0     1  0  0  0  0  0999 V2000
    3.4588    2.5718   20.0554 C   0  0  0  0  0  0  0  0  0  0  0  0
    4.0835    2.0505   21.1859 C   0  0  0  0  0  0  0  0  0  0  0  0
   11.9780    0.4600   23.9150 C   0  0  0  0  0  0  0  0  0  0  0  0
    3.8710    2.1742   18.7837 C   0  0  0  0  0  0  0  0  0  0  0  0
    5.1234    1.1291   21.0499 C   0  0  0  0  0  0  0  0  0  0  0  0
   10.6560    0.0720   23.7350 C   0  0  0  0  0  0  0  0  0  0  0  0
   12.9840   -0.1200   23.1530 C   0  0  0  0  0  0  0  0  0  0  0  0
   11.3360   -1.5050   22.0650 C   0  0  0  0  0  0  0  0  0  0  0  0
    5.3689    0.8151   17.3870 C   0  0  0  0  0  0  0  0  0  0  0  0
    6.9552   -0.5603   18.3181 C   0  0  0  0  0  0  0  0  0  0  0  0
    4.9163    1.2476   18.6351 C   0  0  0  0  0  0  0  0  0  0  0  0
    5.5514    0.7175   19.7772 C   0  0  0  0  0  0  0  0  0  0  0  0
   10.3220   -0.8940   22.7910 C   0  0  0  0  0  0  0  0  0  0  0  0
    6.5908   -0.2044   19.6077 C   0  0  0  0  0  0  0  0  0  0  0  0
   12.6400   -1.1000   22.2390 C   0  0  0  0  0  0  0  0  0  0  0  0
    5.2102   -1.0014   26.8746 C   0  0  0  0  0  0  0  0  0  0  0  0
    8.3880   -0.3240   21.3070 C   0  0  0  0  0  0  0  0  0  0  0  0
    7.5278   -2.4924   25.5025 C   0  0  0  0  0  0  0  0  0  0  0  0
    8.5563   -1.5210   24.9428 C   0  0  0  0  0  0  0  0  0  0  0  0
    6.6263   -1.7195   23.4498 C   0  0  0  0  0  0  0  0  0  0  0  0
    6.2123   -2.0729   24.8672 C   0  0  2  0  0  0  0  0  0  0  0  0
    4.6260    0.2756   27.3809 C   0  0  0  0  0  0  0  0  0  0  0  0
    8.8810   -1.1900   22.4510 C   0  0  2  0  0  0  0  0  0  0  0  0
    6.3708   -0.0740   17.2025 N   0  0  0  0  0  0  0  0  0  0  0  0
    7.2820   -0.7860   20.6970 N   0  0  0  0  0  0  0  0  0  0  0  0
    5.6194   -0.9519   25.5539 N   0  0  0  0  0  0  0  0  0  0  0  0
    7.9695   -1.0401   23.6290 N   0  3  2  0  0  0  0  0  0  0  0  0
    5.2893   -1.9683   27.6234 O   0  0  0  0  0  0  0  0  0  0  0  0
    8.9170    0.7530   21.0260 O   0  0  0  0  0  0  0  0  0  0  0  0
   13.8840   -1.8490   21.2740 Cl  0  0  0  0  0  0  0  0  0  0  0  0
    2.6499    3.2883   20.1641 H   0  0  0  0  0  0  0  0  0  0  0  0
    3.7607    2.3613   22.1754 H   0  0  0  0  0  0  0  0  0  0  0  0
   12.2249    1.2198   24.6546 H   0  0  0  0  0  0  0  0  0  0  0  0
    3.3723    2.5910   17.9118 H   0  0  0  0  0  0  0  0  0  0  0  0
    5.5866    0.7453   21.9560 H   0  0  0  0  0  0  0  0  0  0  0  0
    9.8763    0.5350   24.3454 H   0  0  0  0  0  0  0  0  0  0  0  0
   14.0077    0.1988   23.2842 H   0  0  0  0  0  0  0  0  0  0  0  0
   11.0892   -2.3009   21.3624 H   0  0  0  0  0  0  0  0  0  0  0  0
    4.9234    1.1835   16.4670 H   0  0  0  0  0  0  0  0  0  0  0  0
    7.7549   -1.2720   18.1337 H   0  0  0  0  0  0  0  0  0  0  0  0
    7.7787   -3.5133   25.1882 H   0  0  0  0  0  0  0  0  0  0  0  0
    7.5000   -2.4824   26.5968 H   0  0  0  0  0  0  0  0  0  0  0  0
    8.6771   -0.6359   25.5753 H   0  0  0  0  0  0  0  0  0  0  0  0
    9.5274   -1.9930   24.7653 H   0  0  0  0  0  0  0  0  0  0  0  0
    6.7854   -2.6212   22.8478 H   0  0  0  0  0  0  0  0  0  0  0  0
    5.9526   -1.0311   22.9310 H   0  0  0  0  0  0  0  0  0  0  0  0
    5.4774   -2.8834   24.8834 H   0  0  0  0  0  0  0  0  0  0  0  0
    3.5366    0.3304   27.2255 H   0  0  0  0  0  0  0  0  0  0  0  0
    4.7722    0.4040   28.4655 H   0  0  0  0  0  0  0  0  0  0  0  0
    5.0305    1.1928   26.9237 H   0  0  0  0  0  0  0  0  0  0  0  0
    8.7698   -2.2472   22.1731 H   0  0  0  0  0  0  0  0  0  0  0  0
    6.8974   -1.6551   21.0612 H   0  0  0  0  0  0  0  0  0  0  0  0
    5.4961   -0.0818   25.0420 H   0  0  0  0  0  0  0  0  0  0  0  0
    7.7811   -0.0340   23.7382 H   0  0  0  0  0  0  0  0  0  0  0  0
  1  2  1  0  0  0  0
  1  4  2  0  0  0  0
  2  5  2  0  0  0  0
  3  6  2  0  0  0  0
  3  7  1  0  0  0  0
  4 11  1  0  0  0  0
  5 12  1  0  0  0  0
  6 13  1  0  0  0  0
  7 15  2  0  0  0  0
  8 13  2  0  0  0  0
  8 15  1  0  0  0  0
  9 11  2  0  0  0  0
  9 24  1  0  0  0  0
 10 14  1  0  0  0  0
 10 24  2  0  0  0  0
 11 12  1  0  0  0  0
 12 14  2  0  0  0  0
 13 23  1  0  0  0  0
 14 25  1  0  0  0  0
 15 30  1  0  0  0  0
 16 22  1  0  0  0  0
 16 26  1  0  0  0  0
 16 28  2  0  0  0  0
 17 23  1  6  0  0  0
 17 25  1  0  0  0  0
 17 29  2  0  0  0  0
 18 19  1  0  0  0  0
 18 21  1  0  0  0  0
 19 27  1  6  0  0  0
 20 21  1  0  0  0  0
 20 27  1  0  0  0  0
 21 26  1  1  0  0  0
 23 27  1  0  0  0  0
  1 31  1  0  0  0  0
  2 32  1  0  0  0  0
  3 33  1  0  0  0  0
  4 34  1  0  0  0  0
  5 35  1  0  0  0  0
  6 36  1  0  0  0  0
  7 37  1  0  0  0  0
  8 38  1  0  0  0  0
  9 39  1  0  0  0  0
 10 40  1  0  0  0  0
 18 41  1  0  0  0  0
 18 42  1  0  0  0  0
 19 43  1  0  0  0  0
 19 44  1  0  0  0  0
 20 45  1  0  0  0  0
 20 46  1  0  0  0  0
 21 47  1  0  0  0  0
 22 48  1  0  0  0  0
 22 49  1  0  0  0  0
 22 50  1  0  0  0  0
 23 51  1  0  0  0  0
 25 52  1  0  0  0  0
 26 53  1  0  0  0  0
 27 54  1  0  0  0  0
M  CHG  1  27   1
M  END
> <compound>
MIC-UNK-5a93dd5f-5

> <compound_smiles>
CC(=O)NC1CCN(C1)C(c2cccc(c2)Cl)C(=O)Nc3cncc4c3cccc4

> <enantiomer_smiles>
CC(=O)N[C@@H]1CC[N@](C1)[C@H](c2cccc(c2)Cl)C(=O)Nc3cncc4c3cccc4

> <scaffold>
chlorobenzene-linker

> <clash_score>
0

> <docking_score>
-10.54725456237793

> <overlap_score>
0.9798383712768555

> <MMFF_internal_energy>
167.75063653880315

> <docked_smiles>
CC(=O)N[C@@H]1CC[N@H+](C1)[C@H](c2cccc(c2)Cl)C(=O)Nc3cncc4c3cccc4

$$$$
MIC-UNK-5a93dd5f-5_8
  -OEChem-07262101023D

 54 57  0     1  0  0  0  0  0999 V2000
    3.4588    2.5718   20.0554 C   0  0  0  0  0  0  0  0  0  0  0  0
    4.0835    2.0505   21.1859 C   0  0  0  0  0  0  0  0  0  0  0  0
   11.9780    0.4600   23.9150 C   0  0  0  0  0  0  0  0  0  0  0  0
    3.8711    2.1742   18.7837 C   0  0  0  0  0  0  0  0  0  0  0  0
    5.1234    1.1291   21.0499 C   0  0  0  0  0  0  0  0  0  0  0  0
   10.6560    0.0720   23.7350 C   0  0  0  0  0  0  0  0  0  0  0  0
   12.9840   -0.1200   23.1530 C   0  0  0  0  0  0  0  0  0  0  0  0
   11.3360   -1.5050   22.0650 C   0  0  0  0  0  0  0  0  0  0  0  0
    5.3689    0.8151   17.3870 C   0  0  0  0  0  0  0  0  0  0  0  0
    6.9552   -0.5603   18.3181 C   0  0  0  0  0  0  0  0  0  0  0  0
    4.9163    1.2476   18.6351 C   0  0  0  0  0  0  0  0  0  0  0  0
    5.5514    0.7175   19.7772 C   0  0  0  0  0  0  0  0  0  0  0  0
   10.3220   -0.8940   22.7910 C   0  0  0  0  0  0  0  0  0  0  0  0
    6.5908   -0.2044   19.6077 C   0  0  0  0  0  0  0  0  0  0  0  0
   12.6400   -1.1000   22.2390 C   0  0  0  0  0  0  0  0  0  0  0  0
    4.7468   -3.6683   26.0758 C   0  0  0  0  0  0  0  0  0  0  0  0
    8.3880   -0.3240   21.3070 C   0  0  0  0  0  0  0  0  0  0  0  0
    7.5633   -2.5504   25.4602 C   0  0  0  0  0  0  0  0  0  0  0  0
    8.5580   -1.5268   24.9415 C   0  0  0  0  0  0  0  0  0  0  0  0
    6.6291   -1.7208   23.4494 C   0  0  0  0  0  0  0  0  0  0  0  0
    6.2394   -2.1039   24.8639 C   0  0  1  0  0  0  0  0  0  0  0  0
    3.7029   -4.7166   25.8770 C   0  0  0  0  0  0  0  0  0  0  0  0
    8.8810   -1.1900   22.4510 C   0  0  2  0  0  0  0  0  0  0  0  0
    6.3708   -0.0740   17.2025 N   0  0  0  0  0  0  0  0  0  0  0  0
    7.2820   -0.7860   20.6970 N   0  0  0  0  0  0  0  0  0  0  0  0
    5.2340   -3.1257   24.9004 N   0  0  0  0  0  0  0  0  0  0  0  0
    7.9694   -1.0400   23.6292 N   0  3  2  0  0  0  0  0  0  0  0  0
    5.0905   -3.3659   27.2125 O   0  0  0  0  0  0  0  0  0  0  0  0
    8.9170    0.7530   21.0260 O   0  0  0  0  0  0  0  0  0  0  0  0
   13.8840   -1.8490   21.2740 Cl  0  0  0  0  0  0  0  0  0  0  0  0
    2.6499    3.2883   20.1641 H   0  0  0  0  0  0  0  0  0  0  0  0
    3.7607    2.3613   22.1754 H   0  0  0  0  0  0  0  0  0  0  0  0
   12.2249    1.2198   24.6546 H   0  0  0  0  0  0  0  0  0  0  0  0
    3.3723    2.5910   17.9118 H   0  0  0  0  0  0  0  0  0  0  0  0
    5.5866    0.7453   21.9560 H   0  0  0  0  0  0  0  0  0  0  0  0
    9.8763    0.5350   24.3454 H   0  0  0  0  0  0  0  0  0  0  0  0
   14.0077    0.1988   23.2842 H   0  0  0  0  0  0  0  0  0  0  0  0
   11.0892   -2.3009   21.3624 H   0  0  0  0  0  0  0  0  0  0  0  0
    4.9234    1.1835   16.4670 H   0  0  0  0  0  0  0  0  0  0  0  0
    7.7549   -1.2720   18.1337 H   0  0  0  0  0  0  0  0  0  0  0  0
    7.8383   -3.5744   25.1824 H   0  0  0  0  0  0  0  0  0  0  0  0
    7.5167   -2.5054   26.5567 H   0  0  0  0  0  0  0  0  0  0  0  0
    8.6841   -0.6607   25.6040 H   0  0  0  0  0  0  0  0  0  0  0  0
    9.5364   -1.9812   24.7292 H   0  0  0  0  0  0  0  0  0  0  0  0
    6.7226   -2.5614   22.7633 H   0  0  0  0  0  0  0  0  0  0  0  0
    5.9558   -0.9690   23.0373 H   0  0  0  0  0  0  0  0  0  0  0  0
    5.8339   -1.2366   25.4086 H   0  0  0  0  0  0  0  0  0  0  0  0
    4.1331   -5.7274   25.7909 H   0  0  0  0  0  0  0  0  0  0  0  0
    2.9963   -4.7718   26.7206 H   0  0  0  0  0  0  0  0  0  0  0  0
    3.0745   -4.5919   24.9806 H   0  0  0  0  0  0  0  0  0  0  0  0
    8.7698   -2.2472   22.1731 H   0  0  0  0  0  0  0  0  0  0  0  0
    6.8974   -1.6551   21.0612 H   0  0  0  0  0  0  0  0  0  0  0  0
    4.8609   -3.4684   24.0188 H   0  0  0  0  0  0  0  0  0  0  0  0
    7.7800   -0.0351   23.7397 H   0  0  0  0  0  0  0  0  0  0  0  0
  1  2  1  0  0  0  0
  1  4  2  0  0  0  0
  2  5  2  0  0  0  0
  3  6  2  0  0  0  0
  3  7  1  0  0  0  0
  4 11  1  0  0  0  0
  5 12  1  0  0  0  0
  6 13  1  0  0  0  0
  7 15  2  0  0  0  0
  8 13  2  0  0  0  0
  8 15  1  0  0  0  0
  9 11  2  0  0  0  0
  9 24  1  0  0  0  0
 10 14  1  0  0  0  0
 10 24  2  0  0  0  0
 11 12  1  0  0  0  0
 12 14  2  0  0  0  0
 13 23  1  0  0  0  0
 14 25  1  0  0  0  0
 15 30  1  0  0  0  0
 16 22  1  0  0  0  0
 16 26  1  0  0  0  0
 16 28  2  0  0  0  0
 17 23  1  6  0  0  0
 17 25  1  0  0  0  0
 17 29  2  0  0  0  0
 18 19  1  0  0  0  0
 18 21  1  0  0  0  0
 19 27  1  6  0  0  0
 20 21  1  0  0  0  0
 20 27  1  0  0  0  0
 21 26  1  6  0  0  0
 23 27  1  0  0  0  0
  1 31  1  0  0  0  0
  2 32  1  0  0  0  0
  3 33  1  0  0  0  0
  4 34  1  0  0  0  0
  5 35  1  0  0  0  0
  6 36  1  0  0  0  0
  7 37  1  0  0  0  0
  8 38  1  0  0  0  0
  9 39  1  0  0  0  0
 10 40  1  0  0  0  0
 18 41  1  0  0  0  0
 18 42  1  0  0  0  0
 19 43  1  0  0  0  0
 19 44  1  0  0  0  0
 20 45  1  0  0  0  0
 20 46  1  0  0  0  0
 21 47  1  0  0  0  0
 22 48  1  0  0  0  0
 22 49  1  0  0  0  0
 22 50  1  0  0  0  0
 23 51  1  0  0  0  0
 25 52  1  0  0  0  0
 26 53  1  0  0  0  0
 27 54  1  0  0  0  0
M  CHG  1  27   1
M  END
> <compound>
MIC-UNK-5a93dd5f-5

> <compound_smiles>
CC(=O)NC1CCN(C1)C(c2cccc(c2)Cl)C(=O)Nc3cncc4c3cccc4

> <enantiomer_smiles>
CC(=O)N[C@H]1CC[N@](C1)[C@H](c2cccc(c2)Cl)C(=O)Nc3cncc4c3cccc4

> <scaffold>
chlorobenzene-linker

> <clash_score>
0

> <docking_score>
-9.751001358032227

> <overlap_score>
0.9799033999443054

> <MMFF_internal_energy>
170.66574679500255

> <docked_smiles>
CC(=O)N[C@H]1CC[N@H+](C1)[C@H](c2cccc(c2)Cl)C(=O)Nc3cncc4c3cccc4

$$$$
MAK-UNK-ffc90da7-1_3
  -OEChem-07262101023D

 56 58  0     1  0  0  0  0  0999 V2000
    3.4829    2.5990   20.0546 C   0  0  0  0  0  0  0  0  0  0  0  0
    4.1078    2.0778   21.1851 C   0  0  0  0  0  0  0  0  0  0  0  0
   11.9780    0.4600   23.9150 C   0  0  0  0  0  0  0  0  0  0  0  0
    3.8872    2.1924   18.7832 C   0  0  0  0  0  0  0  0  0  0  0  0
    5.1399    1.1477   21.0494 C   0  0  0  0  0  0  0  0  0  0  0  0
   10.6560    0.0720   23.7350 C   0  0  0  0  0  0  0  0  0  0  0  0
   12.9840   -0.1200   23.1530 C   0  0  0  0  0  0  0  0  0  0  0  0
   11.3360   -1.5050   22.0650 C   0  0  0  0  0  0  0  0  0  0  0  0
    5.3690    0.8152   17.3870 C   0  0  0  0  0  0  0  0  0  0  0  0
    6.9479   -0.5684   18.3184 C   0  0  0  0  0  0  0  0  0  0  0  0
    4.9246    1.2569   18.6348 C   0  0  0  0  0  0  0  0  0  0  0  0
    5.5597    0.7270   19.7769 C   0  0  0  0  0  0  0  0  0  0  0  0
   10.3220   -0.8940   22.7910 C   0  0  0  0  0  0  0  0  0  0  0  0
    6.5912   -0.2039   19.6077 C   0  0  0  0  0  0  0  0  0  0  0  0
   12.6400   -1.1000   22.2390 C   0  0  0  0  0  0  0  0  0  0  0  0
    8.3880   -0.3240   21.3070 C   0  0  0  0  0  0  0  0  0  0  0  0
    6.5796   -1.7853   23.4224 C   0  0  0  0  0  0  0  0  0  0  0  0
    9.4652   -5.1406   26.0885 C   0  0  0  0  0  0  0  0  0  0  0  0
    9.3080   -3.6378   26.2450 C   0  0  0  0  0  0  0  0  0  0  0  0
    8.5303   -1.6074   25.0155 C   0  0  0  0  0  0  0  0  0  0  0  0
    8.1287   -5.8119   25.8074 C   0  0  0  0  0  0  0  0  0  0  0  0
    8.8810   -1.1900   22.4510 C   0  0  2  0  0  0  0  0  0  0  0  0
    7.9194   -1.0821   23.6998 C   0  0  1  0  0  0  0  0  0  0  0  0
    6.3631   -0.0826   17.2027 N   0  0  0  0  0  0  0  0  0  0  0  0
    7.2820   -0.7860   20.6970 N   0  0  0  0  0  0  0  0  0  0  0  0
    8.7880   -3.0665   24.9722 N   0  3  0  0  0  0  0  0  0  0  0  0
    8.9170    0.7530   21.0260 O   0  0  0  0  0  0  0  0  0  0  0  0
    8.3385   -7.2091   25.6567 O   0  0  0  0  0  0  0  0  0  0  0  0
   13.8840   -1.8490   21.2740 Cl  0  0  0  0  0  0  0  0  0  0  0  0
    2.6801    3.3223   20.1631 H   0  0  0  0  0  0  0  0  0  0  0  0
    3.7912    2.3956   22.1744 H   0  0  0  0  0  0  0  0  0  0  0  0
   12.2249    1.2198   24.6546 H   0  0  0  0  0  0  0  0  0  0  0  0
    3.3884    2.6092   17.9112 H   0  0  0  0  0  0  0  0  0  0  0  0
    5.6035    0.7643   21.9554 H   0  0  0  0  0  0  0  0  0  0  0  0
    9.8763    0.5350   24.3454 H   0  0  0  0  0  0  0  0  0  0  0  0
   14.0077    0.1988   23.2842 H   0  0  0  0  0  0  0  0  0  0  0  0
   11.0892   -2.3009   21.3624 H   0  0  0  0  0  0  0  0  0  0  0  0
    4.9229    1.1830   16.4670 H   0  0  0  0  0  0  0  0  0  0  0  0
    7.7413   -1.2873   18.1342 H   0  0  0  0  0  0  0  0  0  0  0  0
    6.7318   -2.8538   23.2353 H   0  0  0  0  0  0  0  0  0  0  0  0
    5.9036   -1.7042   24.2796 H   0  0  0  0  0  0  0  0  0  0  0  0
    6.0695   -1.3566   22.5537 H   0  0  0  0  0  0  0  0  0  0  0  0
    9.9074   -5.5769   26.9934 H   0  0  0  0  0  0  0  0  0  0  0  0
   10.1653   -5.3712   25.2755 H   0  0  0  0  0  0  0  0  0  0  0  0
   10.2631   -3.1444   26.4475 H   0  0  0  0  0  0  0  0  0  0  0  0
    8.5869   -3.3802   27.0264 H   0  0  0  0  0  0  0  0  0  0  0  0
    9.4863   -1.1299   25.2475 H   0  0  0  0  0  0  0  0  0  0  0  0
    7.8526   -1.4378   25.8587 H   0  0  0  0  0  0  0  0  0  0  0  0
    7.6838   -5.4250   24.8851 H   0  0  0  0  0  0  0  0  0  0  0  0
    7.4299   -5.6521   26.6347 H   0  0  0  0  0  0  0  0  0  0  0  0
    8.8227   -2.2553   22.1299 H   0  0  0  0  0  0  0  0  0  0  0  0
    7.6908   -0.0225   23.8771 H   0  0  0  0  0  0  0  0  0  0  0  0
    6.8771   -1.6492   21.0526 H   0  0  0  0  0  0  0  0  0  0  0  0
    9.4572   -3.2728   24.2158 H   0  0  0  0  0  0  0  0  0  0  0  0
    7.9199   -3.5594   24.7153 H   0  0  0  0  0  0  0  0  0  0  0  0
    7.4701   -7.6056   25.4791 H   0  0  0  0  0  0  0  0  0  0  0  0
  1  2  1  0  0  0  0
  1  4  2  0  0  0  0
  2  5  2  0  0  0  0
  3  6  2  0  0  0  0
  3  7  1  0  0  0  0
  4 11  1  0  0  0  0
  5 12  1  0  0  0  0
  6 13  1  0  0  0  0
  7 15  2  0  0  0  0
  8 13  2  0  0  0  0
  8 15  1  0  0  0  0
  9 11  2  0  0  0  0
  9 24  1  0  0  0  0
 10 14  1  0  0  0  0
 10 24  2  0  0  0  0
 11 12  1  0  0  0  0
 12 14  2  0  0  0  0
 13 22  1  0  0  0  0
 14 25  1  0  0  0  0
 15 29  1  0  0  0  0
 16 22  1  6  0  0  0
 16 25  1  0  0  0  0
 16 27  2  0  0  0  0
 17 23  1  1  0  0  0
 18 19  1  0  0  0  0
 18 21  1  0  0  0  0
 19 26  1  0  0  0  0
 20 23  1  0  0  0  0
 20 26  1  0  0  0  0
 21 28  1  0  0  0  0
 22 23  1  0  0  0  0
  1 30  1  0  0  0  0
  2 31  1  0  0  0  0
  3 32  1  0  0  0  0
  4 33  1  0  0  0  0
  5 34  1  0  0  0  0
  6 35  1  0  0  0  0
  7 36  1  0  0  0  0
  8 37  1  0  0  0  0
  9 38  1  0  0  0  0
 10 39  1  0  0  0  0
 17 40  1  0  0  0  0
 17 41  1  0  0  0  0
 17 42  1  0  0  0  0
 18 43  1  0  0  0  0
 18 44  1  0  0  0  0
 19 45  1  0  0  0  0
 19 46  1  0  0  0  0
 20 47  1  0  0  0  0
 20 48  1  0  0  0  0
 21 49  1  0  0  0  0
 21 50  1  0  0  0  0
 22 51  1  0  0  0  0
 23 52  1  0  0  0  0
 25 53  1  0  0  0  0
 26 54  1  0  0  0  0
 26 55  1  0  0  0  0
 28 56  1  0  0  0  0
M  CHG  1  26   1
M  END
> <compound>
MAK-UNK-ffc90da7-1

> <compound_smiles>
CC(CNCCCO)C(c1cccc(c1)Cl)C(=O)Nc2cncc3c2cccc3

> <enantiomer_smiles>
C[C@@H](CNCCCO)[C@H](c1cccc(c1)Cl)C(=O)Nc2cncc3c2cccc3

> <scaffold>
chlorobenzene-linker

> <clash_score>
0

> <docking_score>
-11.648707389831543

> <overlap_score>
0.9808102250099182

> <MMFF_internal_energy>
132.19058591537475

> <docked_smiles>
C[C@@H](C[NH2+]CCCO)[C@H](c1cccc(c1)Cl)C(=O)Nc2cncc3c2cccc3

$$$$
MIC-UNK-5a93dd5f-6_1
  -OEChem-07262101023D

 60 63  0     1  0  0  0  0  0999 V2000
    3.4588    2.5719   20.0554 C   0  0  0  0  0  0  0  0  0  0  0  0
    4.0835    2.0505   21.1859 C   0  0  0  0  0  0  0  0  0  0  0  0
   11.9780    0.4600   23.9150 C   0  0  0  0  0  0  0  0  0  0  0  0
    3.8711    2.1742   18.7837 C   0  0  0  0  0  0  0  0  0  0  0  0
    5.1234    1.1291   21.0499 C   0  0  0  0  0  0  0  0  0  0  0  0
   10.6560    0.0720   23.7350 C   0  0  0  0  0  0  0  0  0  0  0  0
   12.9840   -0.1200   23.1530 C   0  0  0  0  0  0  0  0  0  0  0  0
   11.3360   -1.5050   22.0650 C   0  0  0  0  0  0  0  0  0  0  0  0
    5.3689    0.8151   17.3870 C   0  0  0  0  0  0  0  0  0  0  0  0
    6.9552   -0.5603   18.3181 C   0  0  0  0  0  0  0  0  0  0  0  0
    4.9163    1.2476   18.6351 C   0  0  0  0  0  0  0  0  0  0  0  0
    5.5514    0.7175   19.7772 C   0  0  0  0  0  0  0  0  0  0  0  0
   10.3220   -0.8940   22.7910 C   0  0  0  0  0  0  0  0  0  0  0  0
    6.5908   -0.2044   19.6077 C   0  0  0  0  0  0  0  0  0  0  0  0
   12.6400   -1.1000   22.2390 C   0  0  0  0  0  0  0  0  0  0  0  0
   11.2000   -5.3211   19.7720 C   0  0  0  0  0  0  0  0  0  0  0  0
    8.3880   -0.3240   21.3070 C   0  0  0  0  0  0  0  0  0  0  0  0
    8.5971   -4.3732   20.3415 C   0  0  0  0  0  0  0  0  0  0  0  0
    8.9800   -5.0028   22.7577 C   0  0  0  0  0  0  0  0  0  0  0  0
    8.9734   -2.9321   20.6661 C   0  0  0  0  0  0  0  0  0  0  0  0
    9.3644   -3.5598   23.0615 C   0  0  0  0  0  0  0  0  0  0  0  0
    9.2327   -5.3853   21.2980 C   0  0  0  0  0  0  0  0  0  0  0  0
   12.6897   -5.5113   19.6336 C   0  0  0  0  0  0  0  0  0  0  0  0
   11.4637   -5.9282   22.1913 C   0  0  0  0  0  0  0  0  0  0  0  0
    8.8810   -1.1900   22.4510 C   0  0  1  0  0  0  0  0  0  0  0  0
    6.3708   -0.0740   17.2025 N   0  0  0  0  0  0  0  0  0  0  0  0
    7.2820   -0.7860   20.6970 N   0  0  0  0  0  0  0  0  0  0  0  0
   10.6466   -5.5361   21.0402 N   0  0  0  0  0  0  0  0  0  0  0  0
    8.6431   -2.6373   22.1089 N   0  3  0  0  0  0  0  0  0  0  0  0
   10.5410   -4.9905   18.7826 O   0  0  0  0  0  0  0  0  0  0  0  0
    8.9170    0.7530   21.0260 O   0  0  0  0  0  0  0  0  0  0  0  0
   13.8840   -1.8490   21.2740 Cl  0  0  0  0  0  0  0  0  0  0  0  0
    2.6499    3.2883   20.1641 H   0  0  0  0  0  0  0  0  0  0  0  0
    3.7607    2.3613   22.1754 H   0  0  0  0  0  0  0  0  0  0  0  0
   12.2249    1.2198   24.6546 H   0  0  0  0  0  0  0  0  0  0  0  0
    3.3723    2.5911   17.9118 H   0  0  0  0  0  0  0  0  0  0  0  0
    5.5866    0.7453   21.9560 H   0  0  0  0  0  0  0  0  0  0  0  0
    9.8763    0.5350   24.3454 H   0  0  0  0  0  0  0  0  0  0  0  0
   14.0077    0.1988   23.2842 H   0  0  0  0  0  0  0  0  0  0  0  0
   11.0892   -2.3009   21.3624 H   0  0  0  0  0  0  0  0  0  0  0  0
    4.9234    1.1835   16.4670 H   0  0  0  0  0  0  0  0  0  0  0  0
    7.7549   -1.2720   18.1337 H   0  0  0  0  0  0  0  0  0  0  0  0
    7.5053   -4.4750   20.3952 H   0  0  0  0  0  0  0  0  0  0  0  0
    8.8721   -4.6017   19.3046 H   0  0  0  0  0  0  0  0  0  0  0  0
    9.5223   -5.6789   23.4299 H   0  0  0  0  0  0  0  0  0  0  0  0
    7.9142   -5.1427   22.9816 H   0  0  0  0  0  0  0  0  0  0  0  0
   10.0432   -2.7436   20.5231 H   0  0  0  0  0  0  0  0  0  0  0  0
    8.3958   -2.2366   20.0480 H   0  0  0  0  0  0  0  0  0  0  0  0
    9.0573   -3.2878   24.0767 H   0  0  0  0  0  0  0  0  0  0  0  0
   10.4400   -3.3845   22.9473 H   0  0  0  0  0  0  0  0  0  0  0  0
    8.7936   -6.3790   21.1099 H   0  0  0  0  0  0  0  0  0  0  0  0
   12.9004   -6.5517   19.3669 H   0  0  0  0  0  0  0  0  0  0  0  0
   13.0808   -4.8705   18.8389 H   0  0  0  0  0  0  0  0  0  0  0  0
   13.1886   -5.2957   20.5822 H   0  0  0  0  0  0  0  0  0  0  0  0
   11.8177   -5.0275   22.7142 H   0  0  0  0  0  0  0  0  0  0  0  0
   10.8593   -6.5377   22.8792 H   0  0  0  0  0  0  0  0  0  0  0  0
   12.3276   -6.5143   21.8448 H   0  0  0  0  0  0  0  0  0  0  0  0
    8.2445   -1.0188   23.3300 H   0  0  0  0  0  0  0  0  0  0  0  0
    6.8974   -1.6551   21.0612 H   0  0  0  0  0  0  0  0  0  0  0  0
    7.6340   -2.8003   22.2311 H   0  0  0  0  0  0  0  0  0  0  0  0
  1  2  1  0  0  0  0
  1  4  2  0  0  0  0
  2  5  2  0  0  0  0
  3  6  2  0  0  0  0
  3  7  1  0  0  0  0
  4 11  1  0  0  0  0
  5 12  1  0  0  0  0
  6 13  1  0  0  0  0
  7 15  2  0  0  0  0
  8 13  2  0  0  0  0
  8 15  1  0  0  0  0
  9 11  2  0  0  0  0
  9 26  1  0  0  0  0
 10 14  1  0  0  0  0
 10 26  2  0  0  0  0
 11 12  1  0  0  0  0
 12 14  2  0  0  0  0
 13 25  1  0  0  0  0
 14 27  1  0  0  0  0
 15 32  1  0  0  0  0
 16 23  1  0  0  0  0
 16 28  1  0  0  0  0
 16 30  2  0  0  0  0
 17 25  1  1  0  0  0
 17 27  1  0  0  0  0
 17 31  2  0  0  0  0
 18 20  1  0  0  0  0
 18 22  1  0  0  0  0
 19 21  1  0  0  0  0
 19 22  1  0  0  0  0
 20 29  1  0  0  0  0
 21 29  1  0  0  0  0
 22 28  1  0  0  0  0
 24 28  1  0  0  0  0
 25 29  1  0  0  0  0
  1 33  1  0  0  0  0
  2 34  1  0  0  0  0
  3 35  1  0  0  0  0
  4 36  1  0  0  0  0
  5 37  1  0  0  0  0
  6 38  1  0  0  0  0
  7 39  1  0  0  0  0
  8 40  1  0  0  0  0
  9 41  1  0  0  0  0
 10 42  1  0  0  0  0
 18 43  1  0  0  0  0
 18 44  1  0  0  0  0
 19 45  1  0  0  0  0
 19 46  1  0  0  0  0
 20 47  1  0  0  0  0
 20 48  1  0  0  0  0
 21 49  1  0  0  0  0
 21 50  1  0  0  0  0
 22 51  1  0  0  0  0
 23 52  1  0  0  0  0
 23 53  1  0  0  0  0
 23 54  1  0  0  0  0
 24 55  1  0  0  0  0
 24 56  1  0  0  0  0
 24 57  1  0  0  0  0
 25 58  1  0  0  0  0
 27 59  1  0  0  0  0
 29 60  1  0  0  0  0
M  CHG  1  29   1
M  END
> <compound>
MIC-UNK-5a93dd5f-6

> <compound_smiles>
CC(=O)N(C)C1CCN(CC1)C(c2cccc(c2)Cl)C(=O)Nc3cncc4c3cccc4

> <enantiomer_smiles>
CC(=O)N(C)C1CCN(CC1)[C@@H](c2cccc(c2)Cl)C(=O)Nc3cncc4c3cccc4

> <scaffold>
chlorobenzene-linker

> <clash_score>
11.535520047374945

> <docking_score>
-2.190709114074707

> <overlap_score>
0.9773344397544861

> <MMFF_internal_energy>
207.8716554982256

> <docked_smiles>
CC(=O)N(C)C1CC[NH+](CC1)[C@@H](c2cccc(c2)Cl)C(=O)Nc3cncc4c3cccc4

$$$$
MAK-UNK-ffc90da7-6_1
  -OEChem-07262101023D

 56 58  0     1  0  0  0  0  0999 V2000
   11.9780    0.4600   23.9150 C   0  0  0  0  0  0  0  0  0  0  0  0
    3.2837    1.1295   18.6346 C   0  0  0  0  0  0  0  0  0  0  0  0
   10.6560    0.0720   23.7350 C   0  0  0  0  0  0  0  0  0  0  0  0
    2.5590    0.9732   19.8159 C   0  0  0  0  0  0  0  0  0  0  0  0
   12.9840   -0.1200   23.1530 C   0  0  0  0  0  0  0  0  0  0  0  0
    4.5042    0.0193   20.8872 C   0  0  0  0  0  0  0  0  0  0  0  0
   11.3360   -1.5050   22.0650 C   0  0  0  0  0  0  0  0  0  0  0  0
    5.4010    0.8637   17.4146 C   0  0  0  0  0  0  0  0  0  0  0  0
    7.2573   -0.0411   18.4196 C   0  0  0  0  0  0  0  0  0  0  0  0
    4.6290    0.7303   18.5704 C   0  0  0  0  0  0  0  0  0  0  0  0
    5.2490    0.1692   19.7060 C   0  0  0  0  0  0  0  0  0  0  0  0
    3.1678    0.4193   20.9396 C   0  0  0  0  0  0  0  0  0  0  0  0
   10.3220   -0.8940   22.7910 C   0  0  0  0  0  0  0  0  0  0  0  0
    6.5902   -0.2221   19.6216 C   0  0  0  0  0  0  0  0  0  0  0  0
   12.6400   -1.1000   22.2390 C   0  0  0  0  0  0  0  0  0  0  0  0
    8.3880   -0.3240   21.3070 C   0  0  0  0  0  0  0  0  0  0  0  0
    2.2391   -1.2321   22.5961 C   0  0  0  0  0  0  0  0  0  0  0  0
    8.8810   -1.1900   22.4510 C   0  0  0  0  0  0  0  0  0  0  0  0
    3.5743    4.7853   23.7225 C   0  0  0  0  0  0  0  0  0  0  0  0
    3.5123    3.3428   24.1949 C   0  0  0  0  0  0  0  0  0  0  0  0
    2.9697    1.0367   23.4036 C   0  0  0  0  0  0  0  0  0  0  0  0
    4.5480    4.9483   22.5643 C   0  0  0  0  0  0  0  0  0  0  0  0
    2.3898    0.2541   22.2017 C   0  0  1  0  0  0  0  0  0  0  0  0
    6.6971    0.4921   17.3131 N   0  0  0  0  0  0  0  0  0  0  0  0
    7.2820   -0.7860   20.6970 N   0  0  0  0  0  0  0  0  0  0  0  0
    3.0197    2.4865   23.0829 N   0  3  0  0  0  0  0  0  0  0  0  0
    8.9170    0.7530   21.0260 O   0  0  0  0  0  0  0  0  0  0  0  0
    4.5538    6.3094   22.1564 O   0  0  0  0  0  0  0  0  0  0  0  0
   13.8840   -1.8490   21.2740 Cl  0  0  0  0  0  0  0  0  0  0  0  0
   12.2249    1.2198   24.6546 H   0  0  0  0  0  0  0  0  0  0  0  0
    2.7937    1.5644   17.7666 H   0  0  0  0  0  0  0  0  0  0  0  0
    9.8763    0.5350   24.3454 H   0  0  0  0  0  0  0  0  0  0  0  0
    1.5183    1.2856   19.8491 H   0  0  0  0  0  0  0  0  0  0  0  0
   14.0077    0.1988   23.2842 H   0  0  0  0  0  0  0  0  0  0  0  0
    4.9529   -0.4105   21.7807 H   0  0  0  0  0  0  0  0  0  0  0  0
   11.0892   -2.3008   21.3624 H   0  0  0  0  0  0  0  0  0  0  0  0
    4.9846    1.2874   16.5047 H   0  0  0  0  0  0  0  0  0  0  0  0
    8.2985   -0.3283   18.3033 H   0  0  0  0  0  0  0  0  0  0  0  0
    3.2121   -1.7077   22.7604 H   0  0  0  0  0  0  0  0  0  0  0  0
    1.6612   -1.3239   23.5225 H   0  0  0  0  0  0  0  0  0  0  0  0
    1.7181   -1.8019   21.8189 H   0  0  0  0  0  0  0  0  0  0  0  0
    8.7774   -2.2383   22.1732 H   0  0  0  0  0  0  0  0  0  0  0  0
    8.2557   -1.0153   23.3257 H   0  0  0  0  0  0  0  0  0  0  0  0
    3.8750    5.4465   24.5454 H   0  0  0  0  0  0  0  0  0  0  0  0
    2.5801    5.1312   23.4122 H   0  0  0  0  0  0  0  0  0  0  0  0
    2.8150    3.2138   25.0279 H   0  0  0  0  0  0  0  0  0  0  0  0
    4.4980    2.9611   24.4768 H   0  0  0  0  0  0  0  0  0  0  0  0
    3.9917    0.7329   23.6499 H   0  0  0  0  0  0  0  0  0  0  0  0
    2.3472    0.9454   24.2993 H   0  0  0  0  0  0  0  0  0  0  0  0
    4.2480    4.3305   21.7120 H   0  0  0  0  0  0  0  0  0  0  0  0
    5.5632    4.6710   22.8658 H   0  0  0  0  0  0  0  0  0  0  0  0
    1.3519    0.6231   22.0637 H   0  0  0  0  0  0  0  0  0  0  0  0
    6.8981   -1.6619   21.0675 H   0  0  0  0  0  0  0  0  0  0  0  0
    2.0805    2.8039   22.8048 H   0  0  0  0  0  0  0  0  0  0  0  0
    3.6183    2.6301   22.2575 H   0  0  0  0  0  0  0  0  0  0  0  0
    5.1823    6.3787   21.4195 H   0  0  0  0  0  0  0  0  0  0  0  0
  1  3  2  0  0  0  0
  1  5  1  0  0  0  0
  2  4  2  0  0  0  0
  2 10  1  0  0  0  0
  3 13  1  0  0  0  0
  4 12  1  0  0  0  0
  5 15  2  0  0  0  0
  6 11  1  0  0  0  0
  6 12  2  0  0  0  0
  7 13  2  0  0  0  0
  7 15  1  0  0  0  0
  8 10  1  0  0  0  0
  8 24  2  0  0  0  0
  9 14  2  0  0  0  0
  9 24  1  0  0  0  0
 10 11  2  0  0  0  0
 11 14  1  0  0  0  0
 12 23  1  0  0  0  0
 13 18  1  0  0  0  0
 14 25  1  0  0  0  0
 15 29  1  0  0  0  0
 16 18  1  0  0  0  0
 16 25  1  0  0  0  0
 16 27  2  0  0  0  0
 17 23  1  1  0  0  0
 19 20  1  0  0  0  0
 19 22  1  0  0  0  0
 20 26  1  0  0  0  0
 21 23  1  0  0  0  0
 21 26  1  0  0  0  0
 22 28  1  0  0  0  0
  1 30  1  0  0  0  0
  2 31  1  0  0  0  0
  3 32  1  0  0  0  0
  4 33  1  0  0  0  0
  5 34  1  0  0  0  0
  6 35  1  0  0  0  0
  7 36  1  0  0  0  0
  8 37  1  0  0  0  0
  9 38  1  0  0  0  0
 17 39  1  0  0  0  0
 17 40  1  0  0  0  0
 17 41  1  0  0  0  0
 18 42  1  0  0  0  0
 18 43  1  0  0  0  0
 19 44  1  0  0  0  0
 19 45  1  0  0  0  0
 20 46  1  0  0  0  0
 20 47  1  0  0  0  0
 21 48  1  0  0  0  0
 21 49  1  0  0  0  0
 22 50  1  0  0  0  0
 22 51  1  0  0  0  0
 23 52  1  0  0  0  0
 25 53  1  0  0  0  0
 26 54  1  0  0  0  0
 26 55  1  0  0  0  0
 28 56  1  0  0  0  0
M  CHG  1  26   1
M  END
> <compound>
MAK-UNK-ffc90da7-6

> <compound_smiles>
CC(CNCCCO)c1ccc2cncc(c2c1)NC(=O)Cc3cccc(c3)Cl

> <enantiomer_smiles>
C[C@@H](CNCCCO)c1ccc2cncc(c2c1)NC(=O)Cc3cccc(c3)Cl

> <scaffold>
chlorobenzene-linker

> <clash_score>
2.8853349130157335

> <docking_score>
-5.308328151702881

> <overlap_score>
0.897158682346344

> <MMFF_internal_energy>
120.83924439655887

> <docked_smiles>
C[C@@H](C[NH2+]CCCO)c1ccc2cncc(c2c1)NC(=O)Cc3cccc(c3)Cl

$$$$
MIC-UNK-5a93dd5f-7_1
  -OEChem-07262101023D

 57 60  0     1  0  0  0  0  0999 V2000
    3.4588    2.5718   20.0554 C   0  0  0  0  0  0  0  0  0  0  0  0
    4.0835    2.0505   21.1859 C   0  0  0  0  0  0  0  0  0  0  0  0
   11.9780    0.4600   23.9150 C   0  0  0  0  0  0  0  0  0  0  0  0
    3.8711    2.1742   18.7837 C   0  0  0  0  0  0  0  0  0  0  0  0
    5.1234    1.1291   21.0499 C   0  0  0  0  0  0  0  0  0  0  0  0
   10.6560    0.0720   23.7350 C   0  0  0  0  0  0  0  0  0  0  0  0
   12.9840   -0.1200   23.1530 C   0  0  0  0  0  0  0  0  0  0  0  0
   11.3360   -1.5050   22.0650 C   0  0  0  0  0  0  0  0  0  0  0  0
    5.3689    0.8151   17.3870 C   0  0  0  0  0  0  0  0  0  0  0  0
    6.9552   -0.5603   18.3181 C   0  0  0  0  0  0  0  0  0  0  0  0
    4.9163    1.2476   18.6350 C   0  0  0  0  0  0  0  0  0  0  0  0
    5.5514    0.7175   19.7772 C   0  0  0  0  0  0  0  0  0  0  0  0
   10.3220   -0.8940   22.7910 C   0  0  0  0  0  0  0  0  0  0  0  0
    6.5908   -0.2044   19.6077 C   0  0  0  0  0  0  0  0  0  0  0  0
   12.6400   -1.1000   22.2390 C   0  0  0  0  0  0  0  0  0  0  0  0
   10.3763   -6.7493   23.4598 C   0  0  0  0  0  0  0  0  0  0  0  0
    8.3880   -0.3240   21.3070 C   0  0  0  0  0  0  0  0  0  0  0  0
    9.9774   -4.1478   20.8025 C   0  0  0  0  0  0  0  0  0  0  0  0
    8.9922   -2.9988   20.6803 C   0  0  0  0  0  0  0  0  0  0  0  0
    9.3668   -3.5984   23.0214 C   0  0  0  0  0  0  0  0  0  0  0  0
    9.6168   -4.7979   22.1271 C   0  0  2  0  0  0  0  0  0  0  0  0
    9.1718   -6.6421   24.3612 C   0  0  0  0  0  0  0  0  0  0  0  0
   12.0183   -5.3148   22.2151 C   0  0  0  0  0  0  0  0  0  0  0  0
    8.8810   -1.1900   22.4510 C   0  0  1  0  0  0  0  0  0  0  0  0
    6.3708   -0.0740   17.2025 N   0  0  0  0  0  0  0  0  0  0  0  0
    7.2820   -0.7860   20.6970 N   0  0  0  0  0  0  0  0  0  0  0  0
   10.6524   -5.6547   22.6277 N   0  0  0  0  0  0  0  0  0  0  0  0
    8.6445   -2.6286   22.1110 N   0  3  1  0  0  0  0  0  0  0  0  0
   11.0597   -7.7763   23.4882 O   0  0  0  0  0  0  0  0  0  0  0  0
    8.9170    0.7530   21.0260 O   0  0  0  0  0  0  0  0  0  0  0  0
   13.8840   -1.8490   21.2740 Cl  0  0  0  0  0  0  0  0  0  0  0  0
    2.6499    3.2883   20.1641 H   0  0  0  0  0  0  0  0  0  0  0  0
    3.7607    2.3613   22.1754 H   0  0  0  0  0  0  0  0  0  0  0  0
   12.2249    1.2198   24.6546 H   0  0  0  0  0  0  0  0  0  0  0  0
    3.3723    2.5911   17.9118 H   0  0  0  0  0  0  0  0  0  0  0  0
    5.5866    0.7453   21.9560 H   0  0  0  0  0  0  0  0  0  0  0  0
    9.8763    0.5350   24.3454 H   0  0  0  0  0  0  0  0  0  0  0  0
   14.0077    0.1988   23.2842 H   0  0  0  0  0  0  0  0  0  0  0  0
   11.0892   -2.3009   21.3624 H   0  0  0  0  0  0  0  0  0  0  0  0
    4.9234    1.1835   16.4670 H   0  0  0  0  0  0  0  0  0  0  0  0
    7.7549   -1.2720   18.1337 H   0  0  0  0  0  0  0  0  0  0  0  0
    9.8260   -4.8602   19.9799 H   0  0  0  0  0  0  0  0  0  0  0  0
   11.0189   -3.8083   20.7575 H   0  0  0  0  0  0  0  0  0  0  0  0
    9.4487   -2.1208   20.2015 H   0  0  0  0  0  0  0  0  0  0  0  0
    8.0643   -3.2682   20.1596 H   0  0  0  0  0  0  0  0  0  0  0  0
    8.6730   -3.8374   23.8278 H   0  0  0  0  0  0  0  0  0  0  0  0
   10.2689   -3.1385   23.4224 H   0  0  0  0  0  0  0  0  0  0  0  0
    8.7093   -5.4135   22.0309 H   0  0  0  0  0  0  0  0  0  0  0  0
    8.2912   -7.0294   23.8392 H   0  0  0  0  0  0  0  0  0  0  0  0
    9.3213   -7.2387   25.2650 H   0  0  0  0  0  0  0  0  0  0  0  0
    8.9827   -5.5962   24.6174 H   0  0  0  0  0  0  0  0  0  0  0  0
   12.2598   -5.8381   21.2781 H   0  0  0  0  0  0  0  0  0  0  0  0
   12.0943   -4.2287   22.0583 H   0  0  0  0  0  0  0  0  0  0  0  0
   12.7255   -5.6224   22.9995 H   0  0  0  0  0  0  0  0  0  0  0  0
    8.2445   -1.0188   23.3300 H   0  0  0  0  0  0  0  0  0  0  0  0
    6.8974   -1.6551   21.0612 H   0  0  0  0  0  0  0  0  0  0  0  0
    7.6377   -2.8027   22.2298 H   0  0  0  0  0  0  0  0  0  0  0  0
  1  2  1  0  0  0  0
  1  4  2  0  0  0  0
  2  5  2  0  0  0  0
  3  6  2  0  0  0  0
  3  7  1  0  0  0  0
  4 11  1  0  0  0  0
  5 12  1  0  0  0  0
  6 13  1  0  0  0  0
  7 15  2  0  0  0  0
  8 13  2  0  0  0  0
  8 15  1  0  0  0  0
  9 11  2  0  0  0  0
  9 25  1  0  0  0  0
 10 14  1  0  0  0  0
 10 25  2  0  0  0  0
 11 12  1  0  0  0  0
 12 14  2  0  0  0  0
 13 24  1  0  0  0  0
 14 26  1  0  0  0  0
 15 31  1  0  0  0  0
 16 22  1  0  0  0  0
 16 27  1  0  0  0  0
 16 29  2  0  0  0  0
 17 24  1  1  0  0  0
 17 26  1  0  0  0  0
 17 30  2  0  0  0  0
 18 19  1  0  0  0  0
 18 21  1  0  0  0  0
 19 28  1  1  0  0  0
 20 21  1  0  0  0  0
 20 28  1  0  0  0  0
 21 27  1  1  0  0  0
 23 27  1  0  0  0  0
 24 28  1  0  0  0  0
  1 32  1  0  0  0  0
  2 33  1  0  0  0  0
  3 34  1  0  0  0  0
  4 35  1  0  0  0  0
  5 36  1  0  0  0  0
  6 37  1  0  0  0  0
  7 38  1  0  0  0  0
  8 39  1  0  0  0  0
  9 40  1  0  0  0  0
 10 41  1  0  0  0  0
 18 42  1  0  0  0  0
 18 43  1  0  0  0  0
 19 44  1  0  0  0  0
 19 45  1  0  0  0  0
 20 46  1  0  0  0  0
 20 47  1  0  0  0  0
 21 48  1  0  0  0  0
 22 49  1  0  0  0  0
 22 50  1  0  0  0  0
 22 51  1  0  0  0  0
 23 52  1  0  0  0  0
 23 53  1  0  0  0  0
 23 54  1  0  0  0  0
 24 55  1  0  0  0  0
 26 56  1  0  0  0  0
 28 57  1  0  0  0  0
M  CHG  1  28   1
M  END
> <compound>
MIC-UNK-5a93dd5f-7

> <compound_smiles>
CC(=O)N(C)C1CCN(C1)C(c2cccc(c2)Cl)C(=O)Nc3cncc4c3cccc4

> <enantiomer_smiles>
CC(=O)N(C)[C@@H]1CC[N@@](C1)[C@@H](c2cccc(c2)Cl)C(=O)Nc3cncc4c3cccc4

> <scaffold>
chlorobenzene-linker

> <clash_score>
13.562850450917377

> <docking_score>
-4.22052001953125

> <overlap_score>
0.9795809388160706

> <MMFF_internal_energy>
218.5178524586052

> <docked_smiles>
CC(=O)N(C)[C@@H]1CC[N@@H+](C1)[C@@H](c2cccc(c2)Cl)C(=O)Nc3cncc4c3cccc4

$$$$
MIC-UNK-5a93dd5f-6_2
  -OEChem-07262101023D

 60 63  0     1  0  0  0  0  0999 V2000
    4.8867    3.6427   19.7210 C   0  0  0  0  0  0  0  0  0  0  0  0
    5.5503    3.1504   20.8424 C   0  0  0  0  0  0  0  0  0  0  0  0
   11.9780    0.4600   23.9150 C   0  0  0  0  0  0  0  0  0  0  0  0
    4.7892    2.8630   18.5689 C   0  0  0  0  0  0  0  0  0  0  0  0
    6.1195    1.8760   20.8166 C   0  0  0  0  0  0  0  0  0  0  0  0
   10.6560    0.0720   23.7350 C   0  0  0  0  0  0  0  0  0  0  0  0
   12.9840   -0.1200   23.1530 C   0  0  0  0  0  0  0  0  0  0  0  0
   11.3360   -1.5050   22.0650 C   0  0  0  0  0  0  0  0  0  0  0  0
    5.2903    0.7565   17.4056 C   0  0  0  0  0  0  0  0  0  0  0  0
    6.4606   -0.9310   18.4340 C   0  0  0  0  0  0  0  0  0  0  0  0
    5.3581    1.5791   18.5317 C   0  0  0  0  0  0  0  0  0  0  0  0
    6.0308    1.0771   19.6649 C   0  0  0  0  0  0  0  0  0  0  0  0
   10.3220   -0.8940   22.7910 C   0  0  0  0  0  0  0  0  0  0  0  0
    6.5908   -0.2044   19.6077 C   0  0  0  0  0  0  0  0  0  0  0  0
   12.6400   -1.1000   22.2390 C   0  0  0  0  0  0  0  0  0  0  0  0
    6.9025   -5.6300   22.9771 C   0  0  0  0  0  0  0  0  0  0  0  0
    8.3880   -0.3240   21.3070 C   0  0  0  0  0  0  0  0  0  0  0  0
    6.1568   -2.6727   23.0868 C   0  0  0  0  0  0  0  0  0  0  0  0
    8.0458   -3.3305   24.6263 C   0  0  0  0  0  0  0  0  0  0  0  0
    6.5017   -1.2059   23.3028 C   0  0  0  0  0  0  0  0  0  0  0  0
    8.3794   -1.8596   24.8326 C   0  0  0  0  0  0  0  0  0  0  0  0
    6.5693   -3.5358   24.2810 C   0  0  0  0  0  0  0  0  0  0  0  0
    6.5286   -7.0821   22.8154 C   0  0  0  0  0  0  0  0  0  0  0  0
    5.3328   -5.5631   24.9323 C   0  0  0  0  0  0  0  0  0  0  0  0
    8.8810   -1.1900   22.4510 C   0  0  2  0  0  0  0  0  0  0  0  0
    5.8245   -0.4834   17.3305 N   0  0  0  0  0  0  0  0  0  0  0  0
    7.2820   -0.7860   20.6970 N   0  0  0  0  0  0  0  0  0  0  0  0
    6.2927   -4.9292   24.0250 N   0  0  0  0  0  0  0  0  0  0  0  0
    7.9634   -1.0390   23.6369 N   0  3  0  0  0  0  0  0  0  0  0  0
    7.7142   -5.1268   22.1958 O   0  0  0  0  0  0  0  0  0  0  0  0
    8.9170    0.7530   21.0260 O   0  0  0  0  0  0  0  0  0  0  0  0
   13.8840   -1.8490   21.2740 Cl  0  0  0  0  0  0  0  0  0  0  0  0
    4.4446    4.6345   19.7440 H   0  0  0  0  0  0  0  0  0  0  0  0
    5.6249    3.7592   21.7389 H   0  0  0  0  0  0  0  0  0  0  0  0
   12.2249    1.2198   24.6546 H   0  0  0  0  0  0  0  0  0  0  0  0
    4.2675    3.2627   17.7024 H   0  0  0  0  0  0  0  0  0  0  0  0
    6.6299    1.5271   21.7114 H   0  0  0  0  0  0  0  0  0  0  0  0
    9.8763    0.5350   24.3454 H   0  0  0  0  0  0  0  0  0  0  0  0
   14.0077    0.1988   23.2842 H   0  0  0  0  0  0  0  0  0  0  0  0
   11.0892   -2.3009   21.3624 H   0  0  0  0  0  0  0  0  0  0  0  0
    4.7868    1.0816   16.4993 H   0  0  0  0  0  0  0  0  0  0  0  0
    6.8769   -1.9300   18.3396 H   0  0  0  0  0  0  0  0  0  0  0  0
    5.0772   -2.7664   22.9400 H   0  0  0  0  0  0  0  0  0  0  0  0
    6.6300   -3.0339   22.1712 H   0  0  0  0  0  0  0  0  0  0  0  0
    8.6838   -3.7493   23.8435 H   0  0  0  0  0  0  0  0  0  0  0  0
    8.2754   -3.8817   25.5436 H   0  0  0  0  0  0  0  0  0  0  0  0
    6.2935   -0.5973   22.4080 H   0  0  0  0  0  0  0  0  0  0  0  0
    5.9240   -0.7958   24.1461 H   0  0  0  0  0  0  0  0  0  0  0  0
    7.8377   -1.4630   25.7058 H   0  0  0  0  0  0  0  0  0  0  0  0
    9.4588   -1.6972   24.9892 H   0  0  0  0  0  0  0  0  0  0  0  0
    5.9556   -3.2665   25.1493 H   0  0  0  0  0  0  0  0  0  0  0  0
    5.6658   -7.1633   22.1468 H   0  0  0  0  0  0  0  0  0  0  0  0
    7.3575   -7.6389   22.3702 H   0  0  0  0  0  0  0  0  0  0  0  0
    6.2516   -7.5116   23.7818 H   0  0  0  0  0  0  0  0  0  0  0  0
    5.8683   -5.9922   25.7920 H   0  0  0  0  0  0  0  0  0  0  0  0
    4.6124   -4.8114   25.2872 H   0  0  0  0  0  0  0  0  0  0  0  0
    4.7965   -6.3617   24.3988 H   0  0  0  0  0  0  0  0  0  0  0  0
    8.7698   -2.2472   22.1731 H   0  0  0  0  0  0  0  0  0  0  0  0
    6.8974   -1.6551   21.0612 H   0  0  0  0  0  0  0  0  0  0  0  0
    8.0700   -0.0268   23.9388 H   0  0  0  0  0  0  0  0  0  0  0  0
  1  2  1  0  0  0  0
  1  4  2  0  0  0  0
  2  5  2  0  0  0  0
  3  6  2  0  0  0  0
  3  7  1  0  0  0  0
  4 11  1  0  0  0  0
  5 12  1  0  0  0  0
  6 13  1  0  0  0  0
  7 15  2  0  0  0  0
  8 13  2  0  0  0  0
  8 15  1  0  0  0  0
  9 11  2  0  0  0  0
  9 26  1  0  0  0  0
 10 14  1  0  0  0  0
 10 26  2  0  0  0  0
 11 12  1  0  0  0  0
 12 14  2  0  0  0  0
 13 25  1  0  0  0  0
 14 27  1  0  0  0  0
 15 32  1  0  0  0  0
 16 23  1  0  0  0  0
 16 28  1  0  0  0  0
 16 30  2  0  0  0  0
 17 25  1  6  0  0  0
 17 27  1  0  0  0  0
 17 31  2  0  0  0  0
 18 20  1  0  0  0  0
 18 22  1  0  0  0  0
 19 21  1  0  0  0  0
 19 22  1  0  0  0  0
 20 29  1  0  0  0  0
 21 29  1  0  0  0  0
 22 28  1  0  0  0  0
 24 28  1  0  0  0  0
 25 29  1  0  0  0  0
  1 33  1  0  0  0  0
  2 34  1  0  0  0  0
  3 35  1  0  0  0  0
  4 36  1  0  0  0  0
  5 37  1  0  0  0  0
  6 38  1  0  0  0  0
  7 39  1  0  0  0  0
  8 40  1  0  0  0  0
  9 41  1  0  0  0  0
 10 42  1  0  0  0  0
 18 43  1  0  0  0  0
 18 44  1  0  0  0  0
 19 45  1  0  0  0  0
 19 46  1  0  0  0  0
 20 47  1  0  0  0  0
 20 48  1  0  0  0  0
 21 49  1  0  0  0  0
 21 50  1  0  0  0  0
 22 51  1  0  0  0  0
 23 52  1  0  0  0  0
 23 53  1  0  0  0  0
 23 54  1  0  0  0  0
 24 55  1  0  0  0  0
 24 56  1  0  0  0  0
 24 57  1  0  0  0  0
 25 58  1  0  0  0  0
 27 59  1  0  0  0  0
 29 60  1  0  0  0  0
M  CHG  1  29   1
M  END
> <compound>
MIC-UNK-5a93dd5f-6

> <compound_smiles>
CC(=O)N(C)C1CCN(CC1)C(c2cccc(c2)Cl)C(=O)Nc3cncc4c3cccc4

> <enantiomer_smiles>
CC(=O)N(C)C1CCN(CC1)[C@H](c2cccc(c2)Cl)C(=O)Nc3cncc4c3cccc4

> <scaffold>
chlorobenzene-linker

> <clash_score>
0.6532380263030996

> <docking_score>
-5.665945053100586

> <overlap_score>
0.8374348282814026

> <MMFF_internal_energy>
149.6784555194943

> <docked_smiles>
CC(=O)N(C)C1CC[NH+](CC1)[C@H](c2cccc(c2)Cl)C(=O)Nc3cncc4c3cccc4

$$$$
MIC-UNK-5a93dd5f-7_2
  -OEChem-07262101023D

 57 60  0     1  0  0  0  0  0999 V2000
    3.4588    2.5719   20.0554 C   0  0  0  0  0  0  0  0  0  0  0  0
    4.0835    2.0505   21.1859 C   0  0  0  0  0  0  0  0  0  0  0  0
   11.9780    0.4600   23.9150 C   0  0  0  0  0  0  0  0  0  0  0  0
    3.8711    2.1742   18.7837 C   0  0  0  0  0  0  0  0  0  0  0  0
    5.1234    1.1291   21.0499 C   0  0  0  0  0  0  0  0  0  0  0  0
   10.6560    0.0720   23.7350 C   0  0  0  0  0  0  0  0  0  0  0  0
   12.9840   -0.1200   23.1530 C   0  0  0  0  0  0  0  0  0  0  0  0
   11.3360   -1.5050   22.0650 C   0  0  0  0  0  0  0  0  0  0  0  0
    5.3689    0.8151   17.3870 C   0  0  0  0  0  0  0  0  0  0  0  0
    6.9552   -0.5603   18.3181 C   0  0  0  0  0  0  0  0  0  0  0  0
    4.9163    1.2476   18.6351 C   0  0  0  0  0  0  0  0  0  0  0  0
    5.5514    0.7175   19.7772 C   0  0  0  0  0  0  0  0  0  0  0  0
   10.3220   -0.8940   22.7910 C   0  0  0  0  0  0  0  0  0  0  0  0
    6.5908   -0.2044   19.6077 C   0  0  0  0  0  0  0  0  0  0  0  0
   12.6400   -1.1000   22.2390 C   0  0  0  0  0  0  0  0  0  0  0  0
    5.1274   -5.3068   24.0521 C   0  0  0  0  0  0  0  0  0  0  0  0
    8.3880   -0.3240   21.3070 C   0  0  0  0  0  0  0  0  0  0  0  0
    8.5427   -4.7987   23.1001 C   0  0  0  0  0  0  0  0  0  0  0  0
    9.4518   -3.5940   22.9566 C   0  0  0  0  0  0  0  0  0  0  0  0
    7.1882   -3.0589   22.1862 C   0  0  0  0  0  0  0  0  0  0  0  0
    7.1730   -4.1566   23.2373 C   0  0  1  0  0  0  0  0  0  0  0  0
    4.0380   -6.3064   23.7545 C   0  0  0  0  0  0  0  0  0  0  0  0
    6.0610   -5.7939   21.7666 C   0  0  0  0  0  0  0  0  0  0  0  0
    8.8810   -1.1900   22.4510 C   0  0  1  0  0  0  0  0  0  0  0  0
    6.3708   -0.0740   17.2025 N   0  0  0  0  0  0  0  0  0  0  0  0
    7.2820   -0.7860   20.6970 N   0  0  0  0  0  0  0  0  0  0  0  0
    6.0956   -5.0856   23.0553 N   0  0  0  0  0  0  0  0  0  0  0  0
    8.6444   -2.6293   22.1108 N   0  3  1  0  0  0  0  0  0  0  0  0
    5.1315   -4.7275   25.1415 O   0  0  0  0  0  0  0  0  0  0  0  0
    8.9170    0.7530   21.0260 O   0  0  0  0  0  0  0  0  0  0  0  0
   13.8840   -1.8490   21.2740 Cl  0  0  0  0  0  0  0  0  0  0  0  0
    2.6499    3.2883   20.1641 H   0  0  0  0  0  0  0  0  0  0  0  0
    3.7607    2.3613   22.1754 H   0  0  0  0  0  0  0  0  0  0  0  0
   12.2249    1.2198   24.6546 H   0  0  0  0  0  0  0  0  0  0  0  0
    3.3723    2.5911   17.9118 H   0  0  0  0  0  0  0  0  0  0  0  0
    5.5866    0.7453   21.9560 H   0  0  0  0  0  0  0  0  0  0  0  0
    9.8763    0.5350   24.3454 H   0  0  0  0  0  0  0  0  0  0  0  0
   14.0077    0.1988   23.2842 H   0  0  0  0  0  0  0  0  0  0  0  0
   11.0892   -2.3009   21.3624 H   0  0  0  0  0  0  0  0  0  0  0  0
    4.9234    1.1835   16.4670 H   0  0  0  0  0  0  0  0  0  0  0  0
    7.7549   -1.2720   18.1337 H   0  0  0  0  0  0  0  0  0  0  0  0
    8.6019   -5.4260   22.2020 H   0  0  0  0  0  0  0  0  0  0  0  0
    8.8071   -5.4094   23.9684 H   0  0  0  0  0  0  0  0  0  0  0  0
    9.6439   -3.1197   23.9253 H   0  0  0  0  0  0  0  0  0  0  0  0
   10.3904   -3.8075   22.4387 H   0  0  0  0  0  0  0  0  0  0  0  0
    6.9273   -3.4215   21.1859 H   0  0  0  0  0  0  0  0  0  0  0  0
    6.5622   -2.2013   22.4508 H   0  0  0  0  0  0  0  0  0  0  0  0
    7.0591   -3.7168   24.2353 H   0  0  0  0  0  0  0  0  0  0  0  0
    4.3576   -7.3009   24.0812 H   0  0  0  0  0  0  0  0  0  0  0  0
    3.1265   -6.0460   24.2992 H   0  0  0  0  0  0  0  0  0  0  0  0
    3.8452   -6.3473   22.6791 H   0  0  0  0  0  0  0  0  0  0  0  0
    5.4673   -5.2139   21.0447 H   0  0  0  0  0  0  0  0  0  0  0  0
    7.0862   -5.9132   21.3863 H   0  0  0  0  0  0  0  0  0  0  0  0
    5.6037   -6.7847   21.9051 H   0  0  0  0  0  0  0  0  0  0  0  0
    8.2445   -1.0188   23.3300 H   0  0  0  0  0  0  0  0  0  0  0  0
    6.8974   -1.6551   21.0612 H   0  0  0  0  0  0  0  0  0  0  0  0
    8.9442   -2.7588   21.1345 H   0  0  0  0  0  0  0  0  0  0  0  0
  1  2  1  0  0  0  0
  1  4  2  0  0  0  0
  2  5  2  0  0  0  0
  3  6  2  0  0  0  0
  3  7  1  0  0  0  0
  4 11  1  0  0  0  0
  5 12  1  0  0  0  0
  6 13  1  0  0  0  0
  7 15  2  0  0  0  0
  8 13  2  0  0  0  0
  8 15  1  0  0  0  0
  9 11  2  0  0  0  0
  9 25  1  0  0  0  0
 10 14  1  0  0  0  0
 10 25  2  0  0  0  0
 11 12  1  0  0  0  0
 12 14  2  0  0  0  0
 13 24  1  0  0  0  0
 14 26  1  0  0  0  0
 15 31  1  0  0  0  0
 16 22  1  0  0  0  0
 16 27  1  0  0  0  0
 16 29  2  0  0  0  0
 17 24  1  1  0  0  0
 17 26  1  0  0  0  0
 17 30  2  0  0  0  0
 18 19  1  0  0  0  0
 18 21  1  0  0  0  0
 19 28  1  1  0  0  0
 20 21  1  0  0  0  0
 20 28  1  0  0  0  0
 21 27  1  6  0  0  0
 23 27  1  0  0  0  0
 24 28  1  0  0  0  0
  1 32  1  0  0  0  0
  2 33  1  0  0  0  0
  3 34  1  0  0  0  0
  4 35  1  0  0  0  0
  5 36  1  0  0  0  0
  6 37  1  0  0  0  0
  7 38  1  0  0  0  0
  8 39  1  0  0  0  0
  9 40  1  0  0  0  0
 10 41  1  0  0  0  0
 18 42  1  0  0  0  0
 18 43  1  0  0  0  0
 19 44  1  0  0  0  0
 19 45  1  0  0  0  0
 20 46  1  0  0  0  0
 20 47  1  0  0  0  0
 21 48  1  0  0  0  0
 22 49  1  0  0  0  0
 22 50  1  0  0  0  0
 22 51  1  0  0  0  0
 23 52  1  0  0  0  0
 23 53  1  0  0  0  0
 23 54  1  0  0  0  0
 24 55  1  0  0  0  0
 26 56  1  0  0  0  0
 28 57  1  0  0  0  0
M  CHG  1  28   1
M  END
> <compound>
MIC-UNK-5a93dd5f-7

> <compound_smiles>
CC(=O)N(C)C1CCN(C1)C(c2cccc(c2)Cl)C(=O)Nc3cncc4c3cccc4

> <enantiomer_smiles>
CC(=O)N(C)[C@H]1CC[N@@](C1)[C@@H](c2cccc(c2)Cl)C(=O)Nc3cncc4c3cccc4

> <scaffold>
chlorobenzene-linker

> <clash_score>
0

> <docking_score>
-10.028741836547852

> <overlap_score>
0.9784287214279175

> <MMFF_internal_energy>
203.73636105021083

> <docked_smiles>
CC(=O)N(C)[C@H]1CC[N@@H+](C1)[C@@H](c2cccc(c2)Cl)C(=O)Nc3cncc4c3cccc4

$$$$
MIC-UNK-5a93dd5f-8_2
  -OEChem-07262101023D

 59 62  0     1  0  0  0  0  0999 V2000
    2.5657    1.0132   19.7899 C   0  0  0  0  0  0  0  0  0  0  0  0
    3.1660    0.4495   20.9134 C   0  0  0  0  0  0  0  0  0  0  0  0
   11.9780    0.4600   23.9150 C   0  0  0  0  0  0  0  0  0  0  0  0
    3.2969    1.1719   18.6130 C   0  0  0  0  0  0  0  0  0  0  0  0
    4.5003    0.0420   20.8649 C   0  0  0  0  0  0  0  0  0  0  0  0
   10.6560    0.0720   23.7350 C   0  0  0  0  0  0  0  0  0  0  0  0
   12.9840   -0.1200   23.1530 C   0  0  0  0  0  0  0  0  0  0  0  0
   11.3360   -1.5050   22.0650 C   0  0  0  0  0  0  0  0  0  0  0  0
    5.4182    0.9006   17.4014 C   0  0  0  0  0  0  0  0  0  0  0  0
    7.2646   -0.0206   18.4099 C   0  0  0  0  0  0  0  0  0  0  0  0
    4.6401    0.7653   18.5528 C   0  0  0  0  0  0  0  0  0  0  0  0
    5.2515    0.1942   19.6881 C   0  0  0  0  0  0  0  0  0  0  0  0
   10.3220   -0.8940   22.7910 C   0  0  0  0  0  0  0  0  0  0  0  0
    6.5908   -0.2044   19.6077 C   0  0  0  0  0  0  0  0  0  0  0  0
   12.6400   -1.1000   22.2390 C   0  0  0  0  0  0  0  0  0  0  0  0
    8.3880   -0.3240   21.3070 C   0  0  0  0  0  0  0  0  0  0  0  0
    7.2308   -1.9566   25.8175 C   0  0  0  0  0  0  0  0  0  0  0  0
    5.6817   -0.5063   24.4395 C   0  0  0  0  0  0  0  0  0  0  0  0
    8.0762   -2.2159   24.5759 C   0  0  0  0  0  0  0  0  0  0  0  0
    6.5394   -0.7769   23.2088 C   0  0  0  0  0  0  0  0  0  0  0  0
    5.7794   -1.6063   25.4950 C   0  0  0  0  0  0  0  0  0  0  0  0
    5.1444   -3.9633   25.9870 C   0  0  0  0  0  0  0  0  0  0  0  0
    3.6569   -2.5399   24.5864 C   0  0  0  0  0  0  0  0  0  0  0  0
    8.8810   -1.1900   22.4510 C   0  0  2  0  0  0  0  0  0  0  0  0
    6.7126    0.5221   17.3038 N   0  0  0  0  0  0  0  0  0  0  0  0
    7.2820   -0.7860   20.6970 N   0  0  0  0  0  0  0  0  0  0  0  0
    7.9639   -1.0391   23.6363 N   0  3  0  0  0  0  0  0  0  0  0  0
    5.0760   -2.8255   25.0024 N   0  3  0  0  0  0  0  0  0  0  0  0
    8.9170    0.7530   21.0260 O   0  0  0  0  0  0  0  0  0  0  0  0
   13.8840   -1.8490   21.2740 Cl  0  0  0  0  0  0  0  0  0  0  0  0
    1.5274    1.3292   19.8304 H   0  0  0  0  0  0  0  0  0  0  0  0
    2.5946    0.3266   21.8290 H   0  0  0  0  0  0  0  0  0  0  0  0
   12.2249    1.2198   24.6546 H   0  0  0  0  0  0  0  0  0  0  0  0
    2.8126    1.6137   17.7451 H   0  0  0  0  0  0  0  0  0  0  0  0
    4.9337   -0.3929   21.7626 H   0  0  0  0  0  0  0  0  0  0  0  0
    9.8763    0.5350   24.3454 H   0  0  0  0  0  0  0  0  0  0  0  0
   14.0077    0.1988   23.2842 H   0  0  0  0  0  0  0  0  0  0  0  0
   11.0892   -2.3009   21.3624 H   0  0  0  0  0  0  0  0  0  0  0  0
    5.0092    1.3323   16.4920 H   0  0  0  0  0  0  0  0  0  0  0  0
    8.3044   -0.3139   18.2966 H   0  0  0  0  0  0  0  0  0  0  0  0
    7.2753   -2.8283   26.4816 H   0  0  0  0  0  0  0  0  0  0  0  0
    7.6754   -1.1250   26.3801 H   0  0  0  0  0  0  0  0  0  0  0  0
    6.0017    0.4419   24.8914 H   0  0  0  0  0  0  0  0  0  0  0  0
    4.6382   -0.3599   24.1354 H   0  0  0  0  0  0  0  0  0  0  0  0
    9.1321   -2.3171   24.8487 H   0  0  0  0  0  0  0  0  0  0  0  0
    7.7570   -3.1109   24.0316 H   0  0  0  0  0  0  0  0  0  0  0  0
    6.1942   -1.6475   22.6413 H   0  0  0  0  0  0  0  0  0  0  0  0
    6.5510    0.0998   22.5525 H   0  0  0  0  0  0  0  0  0  0  0  0
    5.2479   -1.3089   26.4051 H   0  0  0  0  0  0  0  0  0  0  0  0
    4.6282   -3.6496   26.8961 H   0  0  0  0  0  0  0  0  0  0  0  0
    4.6531   -4.8268   25.5345 H   0  0  0  0  0  0  0  0  0  0  0  0
    6.1978   -4.1705   26.1855 H   0  0  0  0  0  0  0  0  0  0  0  0
    3.1124   -2.1992   25.4689 H   0  0  0  0  0  0  0  0  0  0  0  0
    3.6835   -1.7650   23.8180 H   0  0  0  0  0  0  0  0  0  0  0  0
    3.2306   -3.4658   24.1955 H   0  0  0  0  0  0  0  0  0  0  0  0
    8.7698   -2.2472   22.1731 H   0  0  0  0  0  0  0  0  0  0  0  0
    6.8974   -1.6551   21.0612 H   0  0  0  0  0  0  0  0  0  0  0  0
    8.2862   -0.2073   24.1500 H   0  0  0  0  0  0  0  0  0  0  0  0
    5.5692   -3.1451   24.1538 H   0  0  0  0  0  0  0  0  0  0  0  0
  1  2  1  0  0  0  0
  1  4  2  0  0  0  0
  2  5  2  0  0  0  0
  3  6  2  0  0  0  0
  3  7  1  0  0  0  0
  4 11  1  0  0  0  0
  5 12  1  0  0  0  0
  6 13  1  0  0  0  0
  7 15  2  0  0  0  0
  8 13  2  0  0  0  0
  8 15  1  0  0  0  0
  9 11  2  0  0  0  0
  9 25  1  0  0  0  0
 10 14  1  0  0  0  0
 10 25  2  0  0  0  0
 11 12  1  0  0  0  0
 12 14  2  0  0  0  0
 13 24  1  0  0  0  0
 14 26  1  0  0  0  0
 15 30  1  0  0  0  0
 16 24  1  6  0  0  0
 16 26  1  0  0  0  0
 16 29  2  0  0  0  0
 17 19  1  0  0  0  0
 17 21  1  0  0  0  0
 18 20  1  0  0  0  0
 18 21  1  0  0  0  0
 19 27  1  0  0  0  0
 20 27  1  0  0  0  0
 21 28  1  0  0  0  0
 22 28  1  0  0  0  0
 23 28  1  0  0  0  0
 24 27  1  0  0  0  0
  1 31  1  0  0  0  0
  2 32  1  0  0  0  0
  3 33  1  0  0  0  0
  4 34  1  0  0  0  0
  5 35  1  0  0  0  0
  6 36  1  0  0  0  0
  7 37  1  0  0  0  0
  8 38  1  0  0  0  0
  9 39  1  0  0  0  0
 10 40  1  0  0  0  0
 17 41  1  0  0  0  0
 17 42  1  0  0  0  0
 18 43  1  0  0  0  0
 18 44  1  0  0  0  0
 19 45  1  0  0  0  0
 19 46  1  0  0  0  0
 20 47  1  0  0  0  0
 20 48  1  0  0  0  0
 21 49  1  0  0  0  0
 22 50  1  0  0  0  0
 22 51  1  0  0  0  0
 22 52  1  0  0  0  0
 23 53  1  0  0  0  0
 23 54  1  0  0  0  0
 23 55  1  0  0  0  0
 24 56  1  0  0  0  0
 26 57  1  0  0  0  0
 27 58  1  0  0  0  0
 28 59  1  0  0  0  0
M  CHG  2  27   1  28   1
M  END
> <compound>
MIC-UNK-5a93dd5f-8

> <compound_smiles>
CN(C)C1CCN(CC1)C(c2cccc(c2)Cl)C(=O)Nc3cncc4c3cccc4

> <enantiomer_smiles>
CN(C)C1CCN(CC1)[C@H](c2cccc(c2)Cl)C(=O)Nc3cncc4c3cccc4

> <scaffold>
chlorobenzene-linker

> <clash_score>
0.7726617016165661

> <docking_score>
-4.368398189544678

> <overlap_score>
0.8981443643569946

> <MMFF_internal_energy>
267.2758333422032

> <docked_smiles>
C[NH+](C)C1CC[NH+](CC1)[C@H](c2cccc(c2)Cl)C(=O)Nc3cncc4c3cccc4

$$$$
MIC-UNK-5a93dd5f-8_1
  -OEChem-07262101023D

 59 62  0     1  0  0  0  0  0999 V2000
    3.4588    2.5719   20.0554 C   0  0  0  0  0  0  0  0  0  0  0  0
    4.0835    2.0505   21.1859 C   0  0  0  0  0  0  0  0  0  0  0  0
   11.9780    0.4600   23.9150 C   0  0  0  0  0  0  0  0  0  0  0  0
    3.8711    2.1742   18.7837 C   0  0  0  0  0  0  0  0  0  0  0  0
    5.1234    1.1291   21.0499 C   0  0  0  0  0  0  0  0  0  0  0  0
   10.6560    0.0720   23.7350 C   0  0  0  0  0  0  0  0  0  0  0  0
   12.9840   -0.1200   23.1530 C   0  0  0  0  0  0  0  0  0  0  0  0
   11.3360   -1.5050   22.0650 C   0  0  0  0  0  0  0  0  0  0  0  0
    5.3689    0.8151   17.3870 C   0  0  0  0  0  0  0  0  0  0  0  0
    6.9552   -0.5603   18.3181 C   0  0  0  0  0  0  0  0  0  0  0  0
    4.9163    1.2476   18.6351 C   0  0  0  0  0  0  0  0  0  0  0  0
    5.5514    0.7175   19.7772 C   0  0  0  0  0  0  0  0  0  0  0  0
   10.3220   -0.8940   22.7910 C   0  0  0  0  0  0  0  0  0  0  0  0
    6.5908   -0.2044   19.6077 C   0  0  0  0  0  0  0  0  0  0  0  0
   12.6400   -1.1000   22.2390 C   0  0  0  0  0  0  0  0  0  0  0  0
    8.3880   -0.3240   21.3070 C   0  0  0  0  0  0  0  0  0  0  0  0
    8.9881   -5.0055   22.7487 C   0  0  0  0  0  0  0  0  0  0  0  0
    8.5928   -4.3641   20.3332 C   0  0  0  0  0  0  0  0  0  0  0  0
    9.3651   -3.5618   23.0600 C   0  0  0  0  0  0  0  0  0  0  0  0
    8.9727   -2.9254   20.6636 C   0  0  0  0  0  0  0  0  0  0  0  0
    9.2131   -5.3844   21.2861 C   0  0  0  0  0  0  0  0  0  0  0  0
   11.4352   -6.0516   22.1903 C   0  0  0  0  0  0  0  0  0  0  0  0
   10.9830   -6.2228   19.7476 C   0  0  0  0  0  0  0  0  0  0  0  0
    8.8810   -1.1900   22.4510 C   0  0  1  0  0  0  0  0  0  0  0  0
    6.3708   -0.0740   17.2025 N   0  0  0  0  0  0  0  0  0  0  0  0
    7.2820   -0.7860   20.6970 N   0  0  0  0  0  0  0  0  0  0  0  0
    8.6431   -2.6373   22.1089 N   0  3  0  0  0  0  0  0  0  0  0  0
   10.6776   -5.4790   21.0212 N   0  3  0  0  0  0  0  0  0  0  0  0
    8.9170    0.7530   21.0260 O   0  0  0  0  0  0  0  0  0  0  0  0
   13.8840   -1.8490   21.2740 Cl  0  0  0  0  0  0  0  0  0  0  0  0
    2.6499    3.2883   20.1641 H   0  0  0  0  0  0  0  0  0  0  0  0
    3.7607    2.3613   22.1754 H   0  0  0  0  0  0  0  0  0  0  0  0
   12.2249    1.2198   24.6546 H   0  0  0  0  0  0  0  0  0  0  0  0
    3.3723    2.5911   17.9118 H   0  0  0  0  0  0  0  0  0  0  0  0
    5.5866    0.7453   21.9560 H   0  0  0  0  0  0  0  0  0  0  0  0
    9.8763    0.5350   24.3454 H   0  0  0  0  0  0  0  0  0  0  0  0
   14.0077    0.1988   23.2842 H   0  0  0  0  0  0  0  0  0  0  0  0
   11.0892   -2.3009   21.3624 H   0  0  0  0  0  0  0  0  0  0  0  0
    4.9234    1.1836   16.4670 H   0  0  0  0  0  0  0  0  0  0  0  0
    7.7549   -1.2720   18.1337 H   0  0  0  0  0  0  0  0  0  0  0  0
    9.5449   -5.6817   23.4088 H   0  0  0  0  0  0  0  0  0  0  0  0
    7.9271   -5.1533   22.9898 H   0  0  0  0  0  0  0  0  0  0  0  0
    7.5000   -4.4604   20.3803 H   0  0  0  0  0  0  0  0  0  0  0  0
    8.8724   -4.5896   19.2970 H   0  0  0  0  0  0  0  0  0  0  0  0
    9.0512   -3.2968   24.0752 H   0  0  0  0  0  0  0  0  0  0  0  0
   10.4395   -3.3778   22.9551 H   0  0  0  0  0  0  0  0  0  0  0  0
   10.0405   -2.7305   20.5181 H   0  0  0  0  0  0  0  0  0  0  0  0
    8.3922   -2.2279   20.0505 H   0  0  0  0  0  0  0  0  0  0  0  0
    8.8139   -6.3843   21.0857 H   0  0  0  0  0  0  0  0  0  0  0  0
   11.0796   -7.0708   22.3518 H   0  0  0  0  0  0  0  0  0  0  0  0
   12.4972   -6.0417   21.9375 H   0  0  0  0  0  0  0  0  0  0  0  0
   11.2329   -5.4231   23.0597 H   0  0  0  0  0  0  0  0  0  0  0  0
   10.6187   -7.2454   19.8627 H   0  0  0  0  0  0  0  0  0  0  0  0
   10.4688   -5.7124   18.9311 H   0  0  0  0  0  0  0  0  0  0  0  0
   12.0647   -6.2057   19.6019 H   0  0  0  0  0  0  0  0  0  0  0  0
    8.2445   -1.0188   23.3300 H   0  0  0  0  0  0  0  0  0  0  0  0
    6.8974   -1.6551   21.0612 H   0  0  0  0  0  0  0  0  0  0  0  0
    7.6343   -2.8025   22.2304 H   0  0  0  0  0  0  0  0  0  0  0  0
   11.0302   -4.5180   20.8886 H   0  0  0  0  0  0  0  0  0  0  0  0
  1  2  1  0  0  0  0
  1  4  2  0  0  0  0
  2  5  2  0  0  0  0
  3  6  2  0  0  0  0
  3  7  1  0  0  0  0
  4 11  1  0  0  0  0
  5 12  1  0  0  0  0
  6 13  1  0  0  0  0
  7 15  2  0  0  0  0
  8 13  2  0  0  0  0
  8 15  1  0  0  0  0
  9 11  2  0  0  0  0
  9 25  1  0  0  0  0
 10 14  1  0  0  0  0
 10 25  2  0  0  0  0
 11 12  1  0  0  0  0
 12 14  2  0  0  0  0
 13 24  1  0  0  0  0
 14 26  1  0  0  0  0
 15 30  1  0  0  0  0
 16 24  1  1  0  0  0
 16 26  1  0  0  0  0
 16 29  2  0  0  0  0
 17 19  1  0  0  0  0
 17 21  1  0  0  0  0
 18 20  1  0  0  0  0
 18 21  1  0  0  0  0
 19 27  1  0  0  0  0
 20 27  1  0  0  0  0
 21 28  1  0  0  0  0
 22 28  1  0  0  0  0
 23 28  1  0  0  0  0
 24 27  1  0  0  0  0
  1 31  1  0  0  0  0
  2 32  1  0  0  0  0
  3 33  1  0  0  0  0
  4 34  1  0  0  0  0
  5 35  1  0  0  0  0
  6 36  1  0  0  0  0
  7 37  1  0  0  0  0
  8 38  1  0  0  0  0
  9 39  1  0  0  0  0
 10 40  1  0  0  0  0
 17 41  1  0  0  0  0
 17 42  1  0  0  0  0
 18 43  1  0  0  0  0
 18 44  1  0  0  0  0
 19 45  1  0  0  0  0
 19 46  1  0  0  0  0
 20 47  1  0  0  0  0
 20 48  1  0  0  0  0
 21 49  1  0  0  0  0
 22 50  1  0  0  0  0
 22 51  1  0  0  0  0
 22 52  1  0  0  0  0
 23 53  1  0  0  0  0
 23 54  1  0  0  0  0
 23 55  1  0  0  0  0
 24 56  1  0  0  0  0
 26 57  1  0  0  0  0
 27 58  1  0  0  0  0
 28 59  1  0  0  0  0
M  CHG  2  27   1  28   1
M  END
> <compound>
MIC-UNK-5a93dd5f-8

> <compound_smiles>
CN(C)C1CCN(CC1)C(c2cccc(c2)Cl)C(=O)Nc3cncc4c3cccc4

> <enantiomer_smiles>
CN(C)C1CCN(CC1)[C@@H](c2cccc(c2)Cl)C(=O)Nc3cncc4c3cccc4

> <scaffold>
chlorobenzene-linker

> <clash_score>
8.576849291661038

> <docking_score>
-4.04863166809082

> <overlap_score>
0.9823259115219116

> <MMFF_internal_energy>
291.8768942715184

> <docked_smiles>
C[NH+](C)C1CC[NH+](CC1)[C@@H](c2cccc(c2)Cl)C(=O)Nc3cncc4c3cccc4

$$$$
MIC-UNK-5a93dd5f-9_2
  -OEChem-07262101023D

 55 58  0     1  0  0  0  0  0999 V2000
    3.4588    2.5719   20.0554 C   0  0  0  0  0  0  0  0  0  0  0  0
    4.0835    2.0505   21.1859 C   0  0  0  0  0  0  0  0  0  0  0  0
   11.9780    0.4600   23.9150 C   0  0  0  0  0  0  0  0  0  0  0  0
    3.8711    2.1742   18.7837 C   0  0  0  0  0  0  0  0  0  0  0  0
    5.1234    1.1291   21.0499 C   0  0  0  0  0  0  0  0  0  0  0  0
   10.6560    0.0720   23.7350 C   0  0  0  0  0  0  0  0  0  0  0  0
   12.9840   -0.1200   23.1530 C   0  0  0  0  0  0  0  0  0  0  0  0
   11.3360   -1.5050   22.0650 C   0  0  0  0  0  0  0  0  0  0  0  0
    5.3689    0.8151   17.3870 C   0  0  0  0  0  0  0  0  0  0  0  0
    6.9552   -0.5603   18.3181 C   0  0  0  0  0  0  0  0  0  0  0  0
    4.9163    1.2476   18.6350 C   0  0  0  0  0  0  0  0  0  0  0  0
    5.5514    0.7175   19.7772 C   0  0  0  0  0  0  0  0  0  0  0  0
   10.3220   -0.8940   22.7910 C   0  0  0  0  0  0  0  0  0  0  0  0
    6.5908   -0.2044   19.6077 C   0  0  0  0  0  0  0  0  0  0  0  0
   12.6400   -1.1000   22.2390 C   0  0  0  0  0  0  0  0  0  0  0  0
    8.3880   -0.3240   21.3070 C   0  0  0  0  0  0  0  0  0  0  0  0
    8.5319   -4.7885   23.1246 C   0  0  0  0  0  0  0  0  0  0  0  0
    9.4515   -3.5941   22.9594 C   0  0  0  0  0  0  0  0  0  0  0  0
    7.1877   -3.0580   22.1877 C   0  0  0  0  0  0  0  0  0  0  0  0
    7.1685   -4.1305   23.2660 C   0  0  1  0  0  0  0  0  0  0  0  0
    4.7817   -4.3944   23.2389 C   0  0  0  0  0  0  0  0  0  0  0  0
    6.1780   -6.1700   24.0577 C   0  0  0  0  0  0  0  0  0  0  0  0
    8.8810   -1.1900   22.4510 C   0  0  1  0  0  0  0  0  0  0  0  0
    6.3708   -0.0740   17.2025 N   0  0  0  0  0  0  0  0  0  0  0  0
    7.2820   -0.7860   20.6970 N   0  0  0  0  0  0  0  0  0  0  0  0
    6.0743   -5.0698   23.0948 N   0  0  0  0  0  0  0  0  0  0  0  0
    8.6444   -2.6295   22.1108 N   0  3  1  0  0  0  0  0  0  0  0  0
    8.9170    0.7530   21.0260 O   0  0  0  0  0  0  0  0  0  0  0  0
   13.8840   -1.8490   21.2740 Cl  0  0  0  0  0  0  0  0  0  0  0  0
    2.6499    3.2883   20.1641 H   0  0  0  0  0  0  0  0  0  0  0  0
    3.7607    2.3613   22.1754 H   0  0  0  0  0  0  0  0  0  0  0  0
   12.2249    1.2198   24.6546 H   0  0  0  0  0  0  0  0  0  0  0  0
    3.3723    2.5911   17.9118 H   0  0  0  0  0  0  0  0  0  0  0  0
    5.5866    0.7453   21.9560 H   0  0  0  0  0  0  0  0  0  0  0  0
    9.8763    0.5350   24.3454 H   0  0  0  0  0  0  0  0  0  0  0  0
   14.0077    0.1988   23.2842 H   0  0  0  0  0  0  0  0  0  0  0  0
   11.0892   -2.3009   21.3624 H   0  0  0  0  0  0  0  0  0  0  0  0
    4.9234    1.1835   16.4670 H   0  0  0  0  0  0  0  0  0  0  0  0
    7.7549   -1.2720   18.1337 H   0  0  0  0  0  0  0  0  0  0  0  0
    8.5809   -5.4290   22.2349 H   0  0  0  0  0  0  0  0  0  0  0  0
    8.7973   -5.3935   23.9970 H   0  0  0  0  0  0  0  0  0  0  0  0
    9.6592   -3.1117   23.9207 H   0  0  0  0  0  0  0  0  0  0  0  0
   10.3819   -3.8229   22.4331 H   0  0  0  0  0  0  0  0  0  0  0  0
    6.9315   -3.4431   21.1945 H   0  0  0  0  0  0  0  0  0  0  0  0
    6.5568   -2.1956   22.4254 H   0  0  0  0  0  0  0  0  0  0  0  0
    7.0849   -3.6618   24.2500 H   0  0  0  0  0  0  0  0  0  0  0  0
    3.9693   -5.1240   23.1055 H   0  0  0  0  0  0  0  0  0  0  0  0
    4.7116   -3.9470   24.2413 H   0  0  0  0  0  0  0  0  0  0  0  0
    4.6938   -3.6049   22.4780 H   0  0  0  0  0  0  0  0  0  0  0  0
    5.3405   -6.8676   23.9096 H   0  0  0  0  0  0  0  0  0  0  0  0
    7.1290   -6.7015   23.9059 H   0  0  0  0  0  0  0  0  0  0  0  0
    6.1426   -5.7666   25.0804 H   0  0  0  0  0  0  0  0  0  0  0  0
    8.2445   -1.0188   23.3300 H   0  0  0  0  0  0  0  0  0  0  0  0
    6.8974   -1.6551   21.0612 H   0  0  0  0  0  0  0  0  0  0  0  0
    8.9439   -2.7596   21.1348 H   0  0  0  0  0  0  0  0  0  0  0  0
  1  2  1  0  0  0  0
  1  4  2  0  0  0  0
  2  5  2  0  0  0  0
  3  6  2  0  0  0  0
  3  7  1  0  0  0  0
  4 11  1  0  0  0  0
  5 12  1  0  0  0  0
  6 13  1  0  0  0  0
  7 15  2  0  0  0  0
  8 13  2  0  0  0  0
  8 15  1  0  0  0  0
  9 11  2  0  0  0  0
  9 24  1  0  0  0  0
 10 14  1  0  0  0  0
 10 24  2  0  0  0  0
 11 12  1  0  0  0  0
 12 14  2  0  0  0  0
 13 23  1  0  0  0  0
 14 25  1  0  0  0  0
 15 29  1  0  0  0  0
 16 23  1  1  0  0  0
 16 25  1  0  0  0  0
 16 28  2  0  0  0  0
 17 18  1  0  0  0  0
 17 20  1  0  0  0  0
 18 27  1  1  0  0  0
 19 20  1  0  0  0  0
 19 27  1  0  0  0  0
 20 26  1  6  0  0  0
 21 26  1  0  0  0  0
 22 26  1  0  0  0  0
 23 27  1  0  0  0  0
  1 30  1  0  0  0  0
  2 31  1  0  0  0  0
  3 32  1  0  0  0  0
  4 33  1  0  0  0  0
  5 34  1  0  0  0  0
  6 35  1  0  0  0  0
  7 36  1  0  0  0  0
  8 37  1  0  0  0  0
  9 38  1  0  0  0  0
 10 39  1  0  0  0  0
 17 40  1  0  0  0  0
 17 41  1  0  0  0  0
 18 42  1  0  0  0  0
 18 43  1  0  0  0  0
 19 44  1  0  0  0  0
 19 45  1  0  0  0  0
 20 46  1  0  0  0  0
 21 47  1  0  0  0  0
 21 48  1  0  0  0  0
 21 49  1  0  0  0  0
 22 50  1  0  0  0  0
 22 51  1  0  0  0  0
 22 52  1  0  0  0  0
 23 53  1  0  0  0  0
 25 54  1  0  0  0  0
 27 55  1  0  0  0  0
M  CHG  1  27   1
M  END
> <compound>
MIC-UNK-5a93dd5f-9

> <compound_smiles>
CN(C)C1CCN(C1)C(c2cccc(c2)Cl)C(=O)Nc3cncc4c3cccc4

> <enantiomer_smiles>
CN(C)[C@H]1CC[N@@](C1)[C@@H](c2cccc(c2)Cl)C(=O)Nc3cncc4c3cccc4

> <scaffold>
chlorobenzene-linker

> <clash_score>
0

> <docking_score>
-8.515137672424316

> <overlap_score>
0.9829915165901184

> <MMFF_internal_energy>
219.35916213273777

> <docked_smiles>
CN(C)[C@H]1CC[N@@H+](C1)[C@@H](c2cccc(c2)Cl)C(=O)Nc3cncc4c3cccc4

$$$$
MIC-UNK-5a93dd5f-9_1
  -OEChem-07262101023D

 55 58  0     1  0  0  0  0  0999 V2000
    3.4588    2.5718   20.0554 C   0  0  0  0  0  0  0  0  0  0  0  0
    4.0835    2.0505   21.1859 C   0  0  0  0  0  0  0  0  0  0  0  0
   11.9780    0.4600   23.9150 C   0  0  0  0  0  0  0  0  0  0  0  0
    3.8711    2.1742   18.7837 C   0  0  0  0  0  0  0  0  0  0  0  0
    5.1234    1.1291   21.0499 C   0  0  0  0  0  0  0  0  0  0  0  0
   10.6560    0.0720   23.7350 C   0  0  0  0  0  0  0  0  0  0  0  0
   12.9840   -0.1200   23.1530 C   0  0  0  0  0  0  0  0  0  0  0  0
   11.3360   -1.5050   22.0650 C   0  0  0  0  0  0  0  0  0  0  0  0
    5.3689    0.8151   17.3870 C   0  0  0  0  0  0  0  0  0  0  0  0
    6.9552   -0.5603   18.3181 C   0  0  0  0  0  0  0  0  0  0  0  0
    4.9163    1.2476   18.6351 C   0  0  0  0  0  0  0  0  0  0  0  0
    5.5514    0.7175   19.7772 C   0  0  0  0  0  0  0  0  0  0  0  0
   10.3220   -0.8940   22.7910 C   0  0  0  0  0  0  0  0  0  0  0  0
    6.5908   -0.2044   19.6077 C   0  0  0  0  0  0  0  0  0  0  0  0
   12.6400   -1.1000   22.2390 C   0  0  0  0  0  0  0  0  0  0  0  0
    8.3880   -0.3240   21.3070 C   0  0  0  0  0  0  0  0  0  0  0  0
    9.9772   -4.1477   20.8022 C   0  0  0  0  0  0  0  0  0  0  0  0
    8.9920   -2.9987   20.6802 C   0  0  0  0  0  0  0  0  0  0  0  0
    9.3670   -3.5984   23.0212 C   0  0  0  0  0  0  0  0  0  0  0  0
    9.6169   -4.7979   22.1269 C   0  0  2  0  0  0  0  0  0  0  0  0
   10.6113   -6.9530   21.9553 C   0  0  0  0  0  0  0  0  0  0  0  0
   10.5218   -5.8237   24.0741 C   0  0  0  0  0  0  0  0  0  0  0  0
    8.8810   -1.1900   22.4510 C   0  0  1  0  0  0  0  0  0  0  0  0
    6.3708   -0.0740   17.2025 N   0  0  0  0  0  0  0  0  0  0  0  0
    7.2820   -0.7860   20.6970 N   0  0  0  0  0  0  0  0  0  0  0  0
   10.6526   -5.6547   22.6273 N   0  0  0  0  0  0  0  0  0  0  0  0
    8.6445   -2.6286   22.1110 N   0  3  1  0  0  0  0  0  0  0  0  0
    8.9170    0.7530   21.0260 O   0  0  0  0  0  0  0  0  0  0  0  0
   13.8840   -1.8490   21.2740 Cl  0  0  0  0  0  0  0  0  0  0  0  0
    2.6499    3.2883   20.1641 H   0  0  0  0  0  0  0  0  0  0  0  0
    3.7607    2.3613   22.1755 H   0  0  0  0  0  0  0  0  0  0  0  0
   12.2249    1.2198   24.6546 H   0  0  0  0  0  0  0  0  0  0  0  0
    3.3723    2.5910   17.9118 H   0  0  0  0  0  0  0  0  0  0  0  0
    5.5866    0.7453   21.9560 H   0  0  0  0  0  0  0  0  0  0  0  0
    9.8763    0.5350   24.3454 H   0  0  0  0  0  0  0  0  0  0  0  0
   14.0077    0.1988   23.2842 H   0  0  0  0  0  0  0  0  0  0  0  0
   11.0892   -2.3009   21.3624 H   0  0  0  0  0  0  0  0  0  0  0  0
    4.9234    1.1835   16.4670 H   0  0  0  0  0  0  0  0  0  0  0  0
    7.7549   -1.2720   18.1337 H   0  0  0  0  0  0  0  0  0  0  0  0
    9.8257   -4.8603   19.9798 H   0  0  0  0  0  0  0  0  0  0  0  0
   11.0179   -3.8053   20.7531 H   0  0  0  0  0  0  0  0  0  0  0  0
    9.4456   -2.1196   20.2005 H   0  0  0  0  0  0  0  0  0  0  0  0
    8.0638   -3.2686   20.1605 H   0  0  0  0  0  0  0  0  0  0  0  0
    8.6715   -3.8382   23.8262 H   0  0  0  0  0  0  0  0  0  0  0  0
   10.2645   -3.1338   23.4277 H   0  0  0  0  0  0  0  0  0  0  0  0
    8.6824   -5.3885   22.0114 H   0  0  0  0  0  0  0  0  0  0  0  0
   11.4111   -7.5966   22.3505 H   0  0  0  0  0  0  0  0  0  0  0  0
    9.6358   -7.4281   22.1355 H   0  0  0  0  0  0  0  0  0  0  0  0
   10.7558   -6.8109   20.8741 H   0  0  0  0  0  0  0  0  0  0  0  0
   11.3227   -6.4825   24.4408 H   0  0  0  0  0  0  0  0  0  0  0  0
   10.5998   -4.8430   24.5663 H   0  0  0  0  0  0  0  0  0  0  0  0
    9.5441   -6.2724   24.3038 H   0  0  0  0  0  0  0  0  0  0  0  0
    8.2445   -1.0188   23.3300 H   0  0  0  0  0  0  0  0  0  0  0  0
    6.8974   -1.6551   21.0612 H   0  0  0  0  0  0  0  0  0  0  0  0
    7.6379   -2.8022   22.2299 H   0  0  0  0  0  0  0  0  0  0  0  0
  1  2  1  0  0  0  0
  1  4  2  0  0  0  0
  2  5  2  0  0  0  0
  3  6  2  0  0  0  0
  3  7  1  0  0  0  0
  4 11  1  0  0  0  0
  5 12  1  0  0  0  0
  6 13  1  0  0  0  0
  7 15  2  0  0  0  0
  8 13  2  0  0  0  0
  8 15  1  0  0  0  0
  9 11  2  0  0  0  0
  9 24  1  0  0  0  0
 10 14  1  0  0  0  0
 10 24  2  0  0  0  0
 11 12  1  0  0  0  0
 12 14  2  0  0  0  0
 13 23  1  0  0  0  0
 14 25  1  0  0  0  0
 15 29  1  0  0  0  0
 16 23  1  1  0  0  0
 16 25  1  0  0  0  0
 16 28  2  0  0  0  0
 17 18  1  0  0  0  0
 17 20  1  0  0  0  0
 18 27  1  1  0  0  0
 19 20  1  0  0  0  0
 19 27  1  0  0  0  0
 20 26  1  1  0  0  0
 21 26  1  0  0  0  0
 22 26  1  0  0  0  0
 23 27  1  0  0  0  0
  1 30  1  0  0  0  0
  2 31  1  0  0  0  0
  3 32  1  0  0  0  0
  4 33  1  0  0  0  0
  5 34  1  0  0  0  0
  6 35  1  0  0  0  0
  7 36  1  0  0  0  0
  8 37  1  0  0  0  0
  9 38  1  0  0  0  0
 10 39  1  0  0  0  0
 17 40  1  0  0  0  0
 17 41  1  0  0  0  0
 18 42  1  0  0  0  0
 18 43  1  0  0  0  0
 19 44  1  0  0  0  0
 19 45  1  0  0  0  0
 20 46  1  0  0  0  0
 21 47  1  0  0  0  0
 21 48  1  0  0  0  0
 21 49  1  0  0  0  0
 22 50  1  0  0  0  0
 22 51  1  0  0  0  0
 22 52  1  0  0  0  0
 23 53  1  0  0  0  0
 25 54  1  0  0  0  0
 27 55  1  0  0  0  0
M  CHG  1  27   1
M  END
> <compound>
MIC-UNK-5a93dd5f-9

> <compound_smiles>
CN(C)C1CCN(C1)C(c2cccc(c2)Cl)C(=O)Nc3cncc4c3cccc4

> <enantiomer_smiles>
CN(C)[C@@H]1CC[N@@](C1)[C@@H](c2cccc(c2)Cl)C(=O)Nc3cncc4c3cccc4

> <scaffold>
chlorobenzene-linker

> <clash_score>
8.239889629658597

> <docking_score>
-4.842438697814941

> <overlap_score>
0.9840404987335205

> <MMFF_internal_energy>
224.0453673874156

> <docked_smiles>
CN(C)[C@@H]1CC[N@@H+](C1)[C@@H](c2cccc(c2)Cl)C(=O)Nc3cncc4c3cccc4

$$$$
MIC-UNK-5a93dd5f-9_3
  -OEChem-07262101023D

 55 58  0     1  0  0  0  0  0999 V2000
    3.4588    2.5719   20.0554 C   0  0  0  0  0  0  0  0  0  0  0  0
    4.0835    2.0505   21.1859 C   0  0  0  0  0  0  0  0  0  0  0  0
   11.9780    0.4600   23.9150 C   0  0  0  0  0  0  0  0  0  0  0  0
    3.8711    2.1742   18.7838 C   0  0  0  0  0  0  0  0  0  0  0  0
    5.1234    1.1291   21.0499 C   0  0  0  0  0  0  0  0  0  0  0  0
   10.6560    0.0720   23.7350 C   0  0  0  0  0  0  0  0  0  0  0  0
   12.9840   -0.1200   23.1530 C   0  0  0  0  0  0  0  0  0  0  0  0
   11.3360   -1.5050   22.0650 C   0  0  0  0  0  0  0  0  0  0  0  0
    5.3689    0.8151   17.3870 C   0  0  0  0  0  0  0  0  0  0  0  0
    6.9552   -0.5603   18.3181 C   0  0  0  0  0  0  0  0  0  0  0  0
    4.9163    1.2476   18.6351 C   0  0  0  0  0  0  0  0  0  0  0  0
    5.5514    0.7175   19.7772 C   0  0  0  0  0  0  0  0  0  0  0  0
   10.3220   -0.8940   22.7910 C   0  0  0  0  0  0  0  0  0  0  0  0
    6.5908   -0.2044   19.6077 C   0  0  0  0  0  0  0  0  0  0  0  0
   12.6400   -1.1000   22.2390 C   0  0  0  0  0  0  0  0  0  0  0  0
    8.3880   -0.3240   21.3070 C   0  0  0  0  0  0  0  0  0  0  0  0
    9.5785   -4.8086   22.1343 C   0  0  0  0  0  0  0  0  0  0  0  0
    9.3673   -3.5987   23.0186 C   0  0  0  0  0  0  0  0  0  0  0  0
    8.9915   -2.9961   20.6789 C   0  0  0  0  0  0  0  0  0  0  0  0
    9.9406   -4.1808   20.7988 C   0  0  2  0  0  0  0  0  0  0  0  0
   10.3072   -6.4229   20.0872 C   0  0  0  0  0  0  0  0  0  0  0  0
   10.5534   -4.6034   18.5375 C   0  0  0  0  0  0  0  0  0  0  0  0
    8.8810   -1.1900   22.4510 C   0  0  1  0  0  0  0  0  0  0  0  0
    6.3708   -0.0740   17.2025 N   0  0  0  0  0  0  0  0  0  0  0  0
    7.2820   -0.7860   20.6970 N   0  0  0  0  0  0  0  0  0  0  0  0
    9.8201   -5.0985   19.7023 N   0  0  0  0  0  0  0  0  0  0  0  0
    8.6446   -2.6282   22.1111 N   0  3  2  0  0  0  0  0  0  0  0  0
    8.9170    0.7530   21.0260 O   0  0  0  0  0  0  0  0  0  0  0  0
   13.8840   -1.8490   21.2740 Cl  0  0  0  0  0  0  0  0  0  0  0  0
    2.6499    3.2883   20.1641 H   0  0  0  0  0  0  0  0  0  0  0  0
    3.7607    2.3613   22.1755 H   0  0  0  0  0  0  0  0  0  0  0  0
   12.2249    1.2198   24.6546 H   0  0  0  0  0  0  0  0  0  0  0  0
    3.3723    2.5911   17.9118 H   0  0  0  0  0  0  0  0  0  0  0  0
    5.5866    0.7453   21.9560 H   0  0  0  0  0  0  0  0  0  0  0  0
    9.8763    0.5350   24.3454 H   0  0  0  0  0  0  0  0  0  0  0  0
   14.0077    0.1988   23.2842 H   0  0  0  0  0  0  0  0  0  0  0  0
   11.0892   -2.3008   21.3624 H   0  0  0  0  0  0  0  0  0  0  0  0
    4.9234    1.1835   16.4670 H   0  0  0  0  0  0  0  0  0  0  0  0
    7.7549   -1.2720   18.1337 H   0  0  0  0  0  0  0  0  0  0  0  0
   10.4205   -5.3935   22.5035 H   0  0  0  0  0  0  0  0  0  0  0  0
    8.7027   -5.4493   22.0894 H   0  0  0  0  0  0  0  0  0  0  0  0
    8.7008   -3.8041   23.8551 H   0  0  0  0  0  0  0  0  0  0  0  0
   10.3015   -3.1595   23.3636 H   0  0  0  0  0  0  0  0  0  0  0  0
    9.4971   -2.1307   20.2260 H   0  0  0  0  0  0  0  0  0  0  0  0
    8.0575   -3.2008   20.1379 H   0  0  0  0  0  0  0  0  0  0  0  0
   11.0026   -3.8113   20.8318 H   0  0  0  0  0  0  0  0  0  0  0  0
   10.2075   -7.1125   19.2361 H   0  0  0  0  0  0  0  0  0  0  0  0
   11.3651   -6.3533   20.3806 H   0  0  0  0  0  0  0  0  0  0  0  0
    9.7156   -6.7990   20.9349 H   0  0  0  0  0  0  0  0  0  0  0  0
   10.4503   -5.3181   17.7077 H   0  0  0  0  0  0  0  0  0  0  0  0
   10.1445   -3.6283   18.2343 H   0  0  0  0  0  0  0  0  0  0  0  0
   11.6170   -4.4911   18.7945 H   0  0  0  0  0  0  0  0  0  0  0  0
    8.2445   -1.0188   23.3300 H   0  0  0  0  0  0  0  0  0  0  0  0
    6.8974   -1.6551   21.0612 H   0  0  0  0  0  0  0  0  0  0  0  0
    7.6382   -2.8056   22.2290 H   0  0  0  0  0  0  0  0  0  0  0  0
  1  2  1  0  0  0  0
  1  4  2  0  0  0  0
  2  5  2  0  0  0  0
  3  6  2  0  0  0  0
  3  7  1  0  0  0  0
  4 11  1  0  0  0  0
  5 12  1  0  0  0  0
  6 13  1  0  0  0  0
  7 15  2  0  0  0  0
  8 13  2  0  0  0  0
  8 15  1  0  0  0  0
  9 11  2  0  0  0  0
  9 24  1  0  0  0  0
 10 14  1  0  0  0  0
 10 24  2  0  0  0  0
 11 12  1  0  0  0  0
 12 14  2  0  0  0  0
 13 23  1  0  0  0  0
 14 25  1  0  0  0  0
 15 29  1  0  0  0  0
 16 23  1  1  0  0  0
 16 25  1  0  0  0  0
 16 28  2  0  0  0  0
 17 18  1  0  0  0  0
 17 20  1  0  0  0  0
 18 27  1  6  0  0  0
 19 20  1  0  0  0  0
 19 27  1  0  0  0  0
 20 26  1  1  0  0  0
 21 26  1  0  0  0  0
 22 26  1  0  0  0  0
 23 27  1  0  0  0  0
  1 30  1  0  0  0  0
  2 31  1  0  0  0  0
  3 32  1  0  0  0  0
  4 33  1  0  0  0  0
  5 34  1  0  0  0  0
  6 35  1  0  0  0  0
  7 36  1  0  0  0  0
  8 37  1  0  0  0  0
  9 38  1  0  0  0  0
 10 39  1  0  0  0  0
 17 40  1  0  0  0  0
 17 41  1  0  0  0  0
 18 42  1  0  0  0  0
 18 43  1  0  0  0  0
 19 44  1  0  0  0  0
 19 45  1  0  0  0  0
 20 46  1  0  0  0  0
 21 47  1  0  0  0  0
 21 48  1  0  0  0  0
 21 49  1  0  0  0  0
 22 50  1  0  0  0  0
 22 51  1  0  0  0  0
 22 52  1  0  0  0  0
 23 53  1  0  0  0  0
 25 54  1  0  0  0  0
 27 55  1  0  0  0  0
M  CHG  1  27   1
M  END
> <compound>
MIC-UNK-5a93dd5f-9

> <compound_smiles>
CN(C)C1CCN(C1)C(c2cccc(c2)Cl)C(=O)Nc3cncc4c3cccc4

> <enantiomer_smiles>
CN(C)[C@@H]1CC[N@](C1)[C@@H](c2cccc(c2)Cl)C(=O)Nc3cncc4c3cccc4

> <scaffold>
chlorobenzene-linker

> <clash_score>
5.635574214400937

> <docking_score>
-4.625616073608398

> <overlap_score>
0.9840034246444702

> <MMFF_internal_energy>
222.83699744608185

> <docked_smiles>
CN(C)[C@@H]1CC[N@H+](C1)[C@@H](c2cccc(c2)Cl)C(=O)Nc3cncc4c3cccc4

$$$$
MIC-UNK-5a93dd5f-9_4
  -OEChem-07262101023D

 55 58  0     1  0  0  0  0  0999 V2000
    3.4588    2.5718   20.0554 C   0  0  0  0  0  0  0  0  0  0  0  0
    4.0835    2.0505   21.1859 C   0  0  0  0  0  0  0  0  0  0  0  0
   11.9780    0.4600   23.9150 C   0  0  0  0  0  0  0  0  0  0  0  0
    3.8710    2.1742   18.7837 C   0  0  0  0  0  0  0  0  0  0  0  0
    5.1234    1.1291   21.0499 C   0  0  0  0  0  0  0  0  0  0  0  0
   10.6560    0.0720   23.7350 C   0  0  0  0  0  0  0  0  0  0  0  0
   12.9840   -0.1200   23.1530 C   0  0  0  0  0  0  0  0  0  0  0  0
   11.3360   -1.5050   22.0650 C   0  0  0  0  0  0  0  0  0  0  0  0
    5.3689    0.8151   17.3870 C   0  0  0  0  0  0  0  0  0  0  0  0
    6.9552   -0.5603   18.3181 C   0  0  0  0  0  0  0  0  0  0  0  0
    4.9163    1.2476   18.6351 C   0  0  0  0  0  0  0  0  0  0  0  0
    5.5514    0.7175   19.7772 C   0  0  0  0  0  0  0  0  0  0  0  0
   10.3220   -0.8940   22.7910 C   0  0  0  0  0  0  0  0  0  0  0  0
    6.5908   -0.2044   19.6077 C   0  0  0  0  0  0  0  0  0  0  0  0
   12.6400   -1.1000   22.2390 C   0  0  0  0  0  0  0  0  0  0  0  0
    8.3880   -0.3240   21.3070 C   0  0  0  0  0  0  0  0  0  0  0  0
    7.1858   -4.2395   23.1482 C   0  0  0  0  0  0  0  0  0  0  0  0
    7.1912   -3.0610   22.1904 C   0  0  0  0  0  0  0  0  0  0  0  0
    9.4548   -3.5944   22.9494 C   0  0  0  0  0  0  0  0  0  0  0  0
    8.5778   -4.8303   23.0040 C   0  0  1  0  0  0  0  0  0  0  0  0
   10.0244   -6.5921   23.6841 C   0  0  0  0  0  0  0  0  0  0  0  0
    7.7682   -6.4898   24.5039 C   0  0  0  0  0  0  0  0  0  0  0  0
    8.8810   -1.1900   22.4510 C   0  0  1  0  0  0  0  0  0  0  0  0
    6.3708   -0.0740   17.2025 N   0  0  0  0  0  0  0  0  0  0  0  0
    7.2820   -0.7860   20.6970 N   0  0  0  0  0  0  0  0  0  0  0  0
    8.9298   -5.7080   24.0820 N   0  0  0  0  0  0  0  0  0  0  0  0
    8.6445   -2.6287   22.1110 N   0  3  2  0  0  0  0  0  0  0  0  0
    8.9170    0.7530   21.0260 O   0  0  0  0  0  0  0  0  0  0  0  0
   13.8840   -1.8490   21.2740 Cl  0  0  0  0  0  0  0  0  0  0  0  0
    2.6499    3.2883   20.1641 H   0  0  0  0  0  0  0  0  0  0  0  0
    3.7607    2.3613   22.1754 H   0  0  0  0  0  0  0  0  0  0  0  0
   12.2249    1.2198   24.6546 H   0  0  0  0  0  0  0  0  0  0  0  0
    3.3723    2.5910   17.9118 H   0  0  0  0  0  0  0  0  0  0  0  0
    5.5866    0.7453   21.9560 H   0  0  0  0  0  0  0  0  0  0  0  0
    9.8763    0.5350   24.3454 H   0  0  0  0  0  0  0  0  0  0  0  0
   14.0077    0.1988   23.2842 H   0  0  0  0  0  0  0  0  0  0  0  0
   11.0892   -2.3009   21.3624 H   0  0  0  0  0  0  0  0  0  0  0  0
    4.9234    1.1835   16.4670 H   0  0  0  0  0  0  0  0  0  0  0  0
    7.7549   -1.2720   18.1337 H   0  0  0  0  0  0  0  0  0  0  0  0
    6.9479   -3.9354   24.1742 H   0  0  0  0  0  0  0  0  0  0  0  0
    6.4297   -4.9727   22.8360 H   0  0  0  0  0  0  0  0  0  0  0  0
    6.8558   -3.3193   21.1775 H   0  0  0  0  0  0  0  0  0  0  0  0
    6.6014   -2.2154   22.5714 H   0  0  0  0  0  0  0  0  0  0  0  0
    9.6808   -3.1505   23.9179 H   0  0  0  0  0  0  0  0  0  0  0  0
   10.3763   -3.7809   22.3973 H   0  0  0  0  0  0  0  0  0  0  0  0
    8.6483   -5.3894   22.0557 H   0  0  0  0  0  0  0  0  0  0  0  0
   10.2816   -7.2577   24.5213 H   0  0  0  0  0  0  0  0  0  0  0  0
    9.7123   -7.1953   22.8188 H   0  0  0  0  0  0  0  0  0  0  0  0
   10.9030   -5.9884   23.4126 H   0  0  0  0  0  0  0  0  0  0  0  0
    8.0551   -7.1568   25.3302 H   0  0  0  0  0  0  0  0  0  0  0  0
    6.9718   -5.8102   24.8411 H   0  0  0  0  0  0  0  0  0  0  0  0
    7.4037   -7.0905   23.6576 H   0  0  0  0  0  0  0  0  0  0  0  0
    8.2445   -1.0188   23.3300 H   0  0  0  0  0  0  0  0  0  0  0  0
    6.8974   -1.6551   21.0612 H   0  0  0  0  0  0  0  0  0  0  0  0
    8.9439   -2.7583   21.1357 H   0  0  0  0  0  0  0  0  0  0  0  0
  1  2  1  0  0  0  0
  1  4  2  0  0  0  0
  2  5  2  0  0  0  0
  3  6  2  0  0  0  0
  3  7  1  0  0  0  0
  4 11  1  0  0  0  0
  5 12  1  0  0  0  0
  6 13  1  0  0  0  0
  7 15  2  0  0  0  0
  8 13  2  0  0  0  0
  8 15  1  0  0  0  0
  9 11  2  0  0  0  0
  9 24  1  0  0  0  0
 10 14  1  0  0  0  0
 10 24  2  0  0  0  0
 11 12  1  0  0  0  0
 12 14  2  0  0  0  0
 13 23  1  0  0  0  0
 14 25  1  0  0  0  0
 15 29  1  0  0  0  0
 16 23  1  1  0  0  0
 16 25  1  0  0  0  0
 16 28  2  0  0  0  0
 17 18  1  0  0  0  0
 17 20  1  0  0  0  0
 18 27  1  6  0  0  0
 19 20  1  0  0  0  0
 19 27  1  0  0  0  0
 20 26  1  6  0  0  0
 21 26  1  0  0  0  0
 22 26  1  0  0  0  0
 23 27  1  0  0  0  0
  1 30  1  0  0  0  0
  2 31  1  0  0  0  0
  3 32  1  0  0  0  0
  4 33  1  0  0  0  0
  5 34  1  0  0  0  0
  6 35  1  0  0  0  0
  7 36  1  0  0  0  0
  8 37  1  0  0  0  0
  9 38  1  0  0  0  0
 10 39  1  0  0  0  0
 17 40  1  0  0  0  0
 17 41  1  0  0  0  0
 18 42  1  0  0  0  0
 18 43  1  0  0  0  0
 19 44  1  0  0  0  0
 19 45  1  0  0  0  0
 20 46  1  0  0  0  0
 21 47  1  0  0  0  0
 21 48  1  0  0  0  0
 21 49  1  0  0  0  0
 22 50  1  0  0  0  0
 22 51  1  0  0  0  0
 22 52  1  0  0  0  0
 23 53  1  0  0  0  0
 25 54  1  0  0  0  0
 27 55  1  0  0  0  0
M  CHG  1  27   1
M  END
> <compound>
MIC-UNK-5a93dd5f-9

> <compound_smiles>
CN(C)C1CCN(C1)C(c2cccc(c2)Cl)C(=O)Nc3cncc4c3cccc4

> <enantiomer_smiles>
CN(C)[C@H]1CC[N@](C1)[C@@H](c2cccc(c2)Cl)C(=O)Nc3cncc4c3cccc4

> <scaffold>
chlorobenzene-linker

> <clash_score>
0.6609768808642494

> <docking_score>
-7.404743194580078

> <overlap_score>
0.9829035401344299

> <MMFF_internal_energy>
223.7858542910269

> <docked_smiles>
CN(C)[C@H]1CC[N@H+](C1)[C@@H](c2cccc(c2)Cl)C(=O)Nc3cncc4c3cccc4

$$$$
MIC-UNK-5a93dd5f-9_5
  -OEChem-07262101023D

 55 58  0     1  0  0  0  0  0999 V2000
    3.4588    2.5719   20.0554 C   0  0  0  0  0  0  0  0  0  0  0  0
    4.0835    2.0505   21.1859 C   0  0  0  0  0  0  0  0  0  0  0  0
   11.9780    0.4600   23.9150 C   0  0  0  0  0  0  0  0  0  0  0  0
    3.8711    2.1742   18.7837 C   0  0  0  0  0  0  0  0  0  0  0  0
    5.1234    1.1291   21.0499 C   0  0  0  0  0  0  0  0  0  0  0  0
   10.6560    0.0720   23.7350 C   0  0  0  0  0  0  0  0  0  0  0  0
   12.9840   -0.1200   23.1530 C   0  0  0  0  0  0  0  0  0  0  0  0
   11.3360   -1.5050   22.0650 C   0  0  0  0  0  0  0  0  0  0  0  0
    5.3689    0.8151   17.3870 C   0  0  0  0  0  0  0  0  0  0  0  0
    6.9552   -0.5603   18.3181 C   0  0  0  0  0  0  0  0  0  0  0  0
    4.9163    1.2476   18.6351 C   0  0  0  0  0  0  0  0  0  0  0  0
    5.5514    0.7175   19.7772 C   0  0  0  0  0  0  0  0  0  0  0  0
   10.3220   -0.8940   22.7910 C   0  0  0  0  0  0  0  0  0  0  0  0
    6.5908   -0.2044   19.6077 C   0  0  0  0  0  0  0  0  0  0  0  0
   12.6400   -1.1000   22.2390 C   0  0  0  0  0  0  0  0  0  0  0  0
    8.3880   -0.3240   21.3070 C   0  0  0  0  0  0  0  0  0  0  0  0
    6.2525   -2.1467   24.8549 C   0  0  0  0  0  0  0  0  0  0  0  0
    6.6298   -1.7208   23.4494 C   0  0  0  0  0  0  0  0  0  0  0  0
    8.5616   -1.5189   24.9466 C   0  0  0  0  0  0  0  0  0  0  0  0
    7.5809   -2.5612   25.4665 C   0  0  2  0  0  0  0  0  0  0  0  0
    6.9463   -4.8621   25.4890 C   0  0  0  0  0  0  0  0  0  0  0  0
    9.2651   -4.2460   25.6173 C   0  0  0  0  0  0  0  0  0  0  0  0
    8.8810   -1.1900   22.4510 C   0  0  2  0  0  0  0  0  0  0  0  0
    6.3708   -0.0740   17.2025 N   0  0  0  0  0  0  0  0  0  0  0  0
    7.2820   -0.7860   20.6970 N   0  0  0  0  0  0  0  0  0  0  0  0
    7.9575   -3.8949   25.0639 N   0  0  0  0  0  0  0  0  0  0  0  0
    7.9690   -1.0400   23.6296 N   0  3  1  0  0  0  0  0  0  0  0  0
    8.9170    0.7530   21.0260 O   0  0  0  0  0  0  0  0  0  0  0  0
   13.8840   -1.8490   21.2740 Cl  0  0  0  0  0  0  0  0  0  0  0  0
    2.6499    3.2883   20.1641 H   0  0  0  0  0  0  0  0  0  0  0  0
    3.7607    2.3613   22.1754 H   0  0  0  0  0  0  0  0  0  0  0  0
   12.2249    1.2198   24.6546 H   0  0  0  0  0  0  0  0  0  0  0  0
    3.3723    2.5911   17.9118 H   0  0  0  0  0  0  0  0  0  0  0  0
    5.5866    0.7453   21.9560 H   0  0  0  0  0  0  0  0  0  0  0  0
    9.8763    0.5350   24.3454 H   0  0  0  0  0  0  0  0  0  0  0  0
   14.0077    0.1988   23.2842 H   0  0  0  0  0  0  0  0  0  0  0  0
   11.0892   -2.3009   21.3624 H   0  0  0  0  0  0  0  0  0  0  0  0
    4.9234    1.1835   16.4670 H   0  0  0  0  0  0  0  0  0  0  0  0
    7.7549   -1.2720   18.1337 H   0  0  0  0  0  0  0  0  0  0  0  0
    5.8349   -1.2953   25.4065 H   0  0  0  0  0  0  0  0  0  0  0  0
    5.5036   -2.9452   24.8583 H   0  0  0  0  0  0  0  0  0  0  0  0
    6.7678   -2.5805   22.7848 H   0  0  0  0  0  0  0  0  0  0  0  0
    5.9342   -1.0034   23.0060 H   0  0  0  0  0  0  0  0  0  0  0  0
    8.5961   -0.6410   25.6008 H   0  0  0  0  0  0  0  0  0  0  0  0
    9.5794   -1.8889   24.7832 H   0  0  0  0  0  0  0  0  0  0  0  0
    7.5226   -2.5246   26.5689 H   0  0  0  0  0  0  0  0  0  0  0  0
    7.2488   -5.8719   25.1745 H   0  0  0  0  0  0  0  0  0  0  0  0
    6.8490   -4.8332   26.5843 H   0  0  0  0  0  0  0  0  0  0  0  0
    5.9801   -4.6087   25.0282 H   0  0  0  0  0  0  0  0  0  0  0  0
    9.5363   -5.2640   25.3011 H   0  0  0  0  0  0  0  0  0  0  0  0
   10.0207   -3.5351   25.2517 H   0  0  0  0  0  0  0  0  0  0  0  0
    9.2218   -4.2026   26.7156 H   0  0  0  0  0  0  0  0  0  0  0  0
    8.7698   -2.2472   22.1731 H   0  0  0  0  0  0  0  0  0  0  0  0
    6.8974   -1.6551   21.0612 H   0  0  0  0  0  0  0  0  0  0  0  0
    7.7824   -0.0335   23.7364 H   0  0  0  0  0  0  0  0  0  0  0  0
  1  2  1  0  0  0  0
  1  4  2  0  0  0  0
  2  5  2  0  0  0  0
  3  6  2  0  0  0  0
  3  7  1  0  0  0  0
  4 11  1  0  0  0  0
  5 12  1  0  0  0  0
  6 13  1  0  0  0  0
  7 15  2  0  0  0  0
  8 13  2  0  0  0  0
  8 15  1  0  0  0  0
  9 11  2  0  0  0  0
  9 24  1  0  0  0  0
 10 14  1  0  0  0  0
 10 24  2  0  0  0  0
 11 12  1  0  0  0  0
 12 14  2  0  0  0  0
 13 23  1  0  0  0  0
 14 25  1  0  0  0  0
 15 29  1  0  0  0  0
 16 23  1  6  0  0  0
 16 25  1  0  0  0  0
 16 28  2  0  0  0  0
 17 18  1  0  0  0  0
 17 20  1  0  0  0  0
 18 27  1  1  0  0  0
 19 20  1  0  0  0  0
 19 27  1  0  0  0  0
 20 26  1  1  0  0  0
 21 26  1  0  0  0  0
 22 26  1  0  0  0  0
 23 27  1  0  0  0  0
  1 30  1  0  0  0  0
  2 31  1  0  0  0  0
  3 32  1  0  0  0  0
  4 33  1  0  0  0  0
  5 34  1  0  0  0  0
  6 35  1  0  0  0  0
  7 36  1  0  0  0  0
  8 37  1  0  0  0  0
  9 38  1  0  0  0  0
 10 39  1  0  0  0  0
 17 40  1  0  0  0  0
 17 41  1  0  0  0  0
 18 42  1  0  0  0  0
 18 43  1  0  0  0  0
 19 44  1  0  0  0  0
 19 45  1  0  0  0  0
 20 46  1  0  0  0  0
 21 47  1  0  0  0  0
 21 48  1  0  0  0  0
 21 49  1  0  0  0  0
 22 50  1  0  0  0  0
 22 51  1  0  0  0  0
 22 52  1  0  0  0  0
 23 53  1  0  0  0  0
 25 54  1  0  0  0  0
 27 55  1  0  0  0  0
M  CHG  1  27   1
M  END
> <compound>
MIC-UNK-5a93dd5f-9

> <compound_smiles>
CN(C)C1CCN(C1)C(c2cccc(c2)Cl)C(=O)Nc3cncc4c3cccc4

> <enantiomer_smiles>
CN(C)[C@@H]1CC[N@@](C1)[C@H](c2cccc(c2)Cl)C(=O)Nc3cncc4c3cccc4

> <scaffold>
chlorobenzene-linker

> <clash_score>
0

> <docking_score>
-11.7885103225708

> <overlap_score>
0.9822285175323486

> <MMFF_internal_energy>
202.37412264935315

> <docked_smiles>
CN(C)[C@@H]1CC[N@@H+](C1)[C@H](c2cccc(c2)Cl)C(=O)Nc3cncc4c3cccc4

$$$$
MIC-UNK-5a93dd5f-7_3
  -OEChem-07262101023D

 57 60  0     1  0  0  0  0  0999 V2000
    3.4588    2.5719   20.0554 C   0  0  0  0  0  0  0  0  0  0  0  0
    4.0835    2.0505   21.1859 C   0  0  0  0  0  0  0  0  0  0  0  0
   11.9780    0.4600   23.9150 C   0  0  0  0  0  0  0  0  0  0  0  0
    3.8711    2.1742   18.7837 C   0  0  0  0  0  0  0  0  0  0  0  0
    5.1234    1.1291   21.0499 C   0  0  0  0  0  0  0  0  0  0  0  0
   10.6560    0.0720   23.7350 C   0  0  0  0  0  0  0  0  0  0  0  0
   12.9840   -0.1200   23.1530 C   0  0  0  0  0  0  0  0  0  0  0  0
   11.3360   -1.5050   22.0650 C   0  0  0  0  0  0  0  0  0  0  0  0
    5.3689    0.8151   17.3870 C   0  0  0  0  0  0  0  0  0  0  0  0
    6.9552   -0.5603   18.3181 C   0  0  0  0  0  0  0  0  0  0  0  0
    4.9163    1.2476   18.6351 C   0  0  0  0  0  0  0  0  0  0  0  0
    5.5514    0.7175   19.7772 C   0  0  0  0  0  0  0  0  0  0  0  0
   10.3220   -0.8940   22.7910 C   0  0  0  0  0  0  0  0  0  0  0  0
    6.5908   -0.2044   19.6077 C   0  0  0  0  0  0  0  0  0  0  0  0
   12.6400   -1.1000   22.2390 C   0  0  0  0  0  0  0  0  0  0  0  0
    8.6161   -5.2681   19.0019 C   0  0  0  0  0  0  0  0  0  0  0  0
    8.3880   -0.3240   21.3070 C   0  0  0  0  0  0  0  0  0  0  0  0
    9.5785   -4.8085   22.1341 C   0  0  0  0  0  0  0  0  0  0  0  0
    9.3675   -3.5987   23.0185 C   0  0  0  0  0  0  0  0  0  0  0  0
    8.9913   -2.9960   20.6789 C   0  0  0  0  0  0  0  0  0  0  0  0
    9.9405   -4.1807   20.7986 C   0  0  2  0  0  0  0  0  0  0  0  0
    8.7136   -5.6545   17.5473 C   0  0  0  0  0  0  0  0  0  0  0  0
   11.0332   -5.8484   19.3585 C   0  0  0  0  0  0  0  0  0  0  0  0
    8.8810   -1.1900   22.4510 C   0  0  1  0  0  0  0  0  0  0  0  0
    6.3708   -0.0740   17.2025 N   0  0  0  0  0  0  0  0  0  0  0  0
    7.2820   -0.7860   20.6970 N   0  0  0  0  0  0  0  0  0  0  0  0
    9.8198   -5.0984   19.7021 N   0  0  0  0  0  0  0  0  0  0  0  0
    8.6446   -2.6282   22.1111 N   0  3  2  0  0  0  0  0  0  0  0  0
    7.5023   -5.1186   19.5115 O   0  0  0  0  0  0  0  0  0  0  0  0
    8.9170    0.7530   21.0260 O   0  0  0  0  0  0  0  0  0  0  0  0
   13.8840   -1.8490   21.2740 Cl  0  0  0  0  0  0  0  0  0  0  0  0
    2.6499    3.2883   20.1641 H   0  0  0  0  0  0  0  0  0  0  0  0
    3.7607    2.3613   22.1755 H   0  0  0  0  0  0  0  0  0  0  0  0
   12.2249    1.2198   24.6546 H   0  0  0  0  0  0  0  0  0  0  0  0
    3.3723    2.5911   17.9118 H   0  0  0  0  0  0  0  0  0  0  0  0
    5.5866    0.7453   21.9560 H   0  0  0  0  0  0  0  0  0  0  0  0
    9.8763    0.5350   24.3454 H   0  0  0  0  0  0  0  0  0  0  0  0
   14.0077    0.1988   23.2842 H   0  0  0  0  0  0  0  0  0  0  0  0
   11.0892   -2.3009   21.3624 H   0  0  0  0  0  0  0  0  0  0  0  0
    4.9234    1.1835   16.4670 H   0  0  0  0  0  0  0  0  0  0  0  0
    7.7549   -1.2720   18.1337 H   0  0  0  0  0  0  0  0  0  0  0  0
   10.4203   -5.3938   22.5030 H   0  0  0  0  0  0  0  0  0  0  0  0
    8.7038   -5.4500   22.0846 H   0  0  0  0  0  0  0  0  0  0  0  0
    8.6996   -3.8055   23.8536 H   0  0  0  0  0  0  0  0  0  0  0  0
   10.3012   -3.1598   23.3650 H   0  0  0  0  0  0  0  0  0  0  0  0
    9.4956   -2.1308   20.2246 H   0  0  0  0  0  0  0  0  0  0  0  0
    8.0591   -3.2069   20.1377 H   0  0  0  0  0  0  0  0  0  0  0  0
   10.9980   -3.8353   20.7966 H   0  0  0  0  0  0  0  0  0  0  0  0
    8.7241   -6.7455   17.4606 H   0  0  0  0  0  0  0  0  0  0  0  0
    7.8473   -5.2779   16.9968 H   0  0  0  0  0  0  0  0  0  0  0  0
    9.6412   -5.2701   17.1148 H   0  0  0  0  0  0  0  0  0  0  0  0
   11.6144   -5.2852   18.6135 H   0  0  0  0  0  0  0  0  0  0  0  0
   11.6416   -5.9956   20.2631 H   0  0  0  0  0  0  0  0  0  0  0  0
   10.7534   -6.8271   18.9416 H   0  0  0  0  0  0  0  0  0  0  0  0
    8.2445   -1.0188   23.3300 H   0  0  0  0  0  0  0  0  0  0  0  0
    6.8974   -1.6551   21.0612 H   0  0  0  0  0  0  0  0  0  0  0  0
    7.6381   -2.8052   22.2291 H   0  0  0  0  0  0  0  0  0  0  0  0
  1  2  1  0  0  0  0
  1  4  2  0  0  0  0
  2  5  2  0  0  0  0
  3  6  2  0  0  0  0
  3  7  1  0  0  0  0
  4 11  1  0  0  0  0
  5 12  1  0  0  0  0
  6 13  1  0  0  0  0
  7 15  2  0  0  0  0
  8 13  2  0  0  0  0
  8 15  1  0  0  0  0
  9 11  2  0  0  0  0
  9 25  1  0  0  0  0
 10 14  1  0  0  0  0
 10 25  2  0  0  0  0
 11 12  1  0  0  0  0
 12 14  2  0  0  0  0
 13 24  1  0  0  0  0
 14 26  1  0  0  0  0
 15 31  1  0  0  0  0
 16 22  1  0  0  0  0
 16 27  1  0  0  0  0
 16 29  2  0  0  0  0
 17 24  1  1  0  0  0
 17 26  1  0  0  0  0
 17 30  2  0  0  0  0
 18 19  1  0  0  0  0
 18 21  1  0  0  0  0
 19 28  1  6  0  0  0
 20 21  1  0  0  0  0
 20 28  1  0  0  0  0
 21 27  1  1  0  0  0
 23 27  1  0  0  0  0
 24 28  1  0  0  0  0
  1 32  1  0  0  0  0
  2 33  1  0  0  0  0
  3 34  1  0  0  0  0
  4 35  1  0  0  0  0
  5 36  1  0  0  0  0
  6 37  1  0  0  0  0
  7 38  1  0  0  0  0
  8 39  1  0  0  0  0
  9 40  1  0  0  0  0
 10 41  1  0  0  0  0
 18 42  1  0  0  0  0
 18 43  1  0  0  0  0
 19 44  1  0  0  0  0
 19 45  1  0  0  0  0
 20 46  1  0  0  0  0
 20 47  1  0  0  0  0
 21 48  1  0  0  0  0
 22 49  1  0  0  0  0
 22 50  1  0  0  0  0
 22 51  1  0  0  0  0
 23 52  1  0  0  0  0
 23 53  1  0  0  0  0
 23 54  1  0  0  0  0
 24 55  1  0  0  0  0
 26 56  1  0  0  0  0
 28 57  1  0  0  0  0
M  CHG  1  28   1
M  END
> <compound>
MIC-UNK-5a93dd5f-7

> <compound_smiles>
CC(=O)N(C)C1CCN(C1)C(c2cccc(c2)Cl)C(=O)Nc3cncc4c3cccc4

> <enantiomer_smiles>
CC(=O)N(C)[C@@H]1CC[N@](C1)[C@@H](c2cccc(c2)Cl)C(=O)Nc3cncc4c3cccc4

> <scaffold>
chlorobenzene-linker

> <clash_score>
11.24560582884668

> <docking_score>
-2.981963634490967

> <overlap_score>
0.9794188737869263

> <MMFF_internal_energy>
194.9082407019243

> <docked_smiles>
CC(=O)N(C)[C@@H]1CC[N@H+](C1)[C@@H](c2cccc(c2)Cl)C(=O)Nc3cncc4c3cccc4

$$$$
MIC-UNK-5a93dd5f-11_2
  -OEChem-07262101023D

 66 70  0     1  0  0  0  0  0999 V2000
    3.4588    2.5719   20.0554 C   0  0  0  0  0  0  0  0  0  0  0  0
    4.0835    2.0505   21.1859 C   0  0  0  0  0  0  0  0  0  0  0  0
   11.9780    0.4600   23.9150 C   0  0  0  0  0  0  0  0  0  0  0  0
    3.8711    2.1742   18.7837 C   0  0  0  0  0  0  0  0  0  0  0  0
    5.1234    1.1291   21.0499 C   0  0  0  0  0  0  0  0  0  0  0  0
   10.6560    0.0720   23.7350 C   0  0  0  0  0  0  0  0  0  0  0  0
   12.9840   -0.1200   23.1530 C   0  0  0  0  0  0  0  0  0  0  0  0
   11.3360   -1.5050   22.0650 C   0  0  0  0  0  0  0  0  0  0  0  0
    5.3689    0.8151   17.3870 C   0  0  0  0  0  0  0  0  0  0  0  0
    6.9552   -0.5603   18.3181 C   0  0  0  0  0  0  0  0  0  0  0  0
    4.9163    1.2476   18.6351 C   0  0  0  0  0  0  0  0  0  0  0  0
    5.5514    0.7175   19.7772 C   0  0  0  0  0  0  0  0  0  0  0  0
   10.3220   -0.8940   22.7910 C   0  0  0  0  0  0  0  0  0  0  0  0
    6.5908   -0.2044   19.6077 C   0  0  0  0  0  0  0  0  0  0  0  0
   12.6400   -1.1000   22.2390 C   0  0  0  0  0  0  0  0  0  0  0  0
    8.3880   -0.3240   21.3070 C   0  0  0  0  0  0  0  0  0  0  0  0
   11.3556   -7.7353   19.2789 C   0  0  0  0  0  0  0  0  0  0  0  0
   10.9957   -7.9438   20.7460 C   0  0  0  0  0  0  0  0  0  0  0  0
   10.7257   -6.4627   18.7228 C   0  0  0  0  0  0  0  0  0  0  0  0
    8.9881   -5.0055   22.7487 C   0  0  0  0  0  0  0  0  0  0  0  0
    8.5928   -4.3641   20.3332 C   0  0  0  0  0  0  0  0  0  0  0  0
   11.3324   -6.7218   21.5888 C   0  0  0  0  0  0  0  0  0  0  0  0
   11.0634   -5.2472   19.5746 C   0  0  0  0  0  0  0  0  0  0  0  0
    9.3651   -3.5618   23.0600 C   0  0  0  0  0  0  0  0  0  0  0  0
    8.9727   -2.9254   20.6636 C   0  0  0  0  0  0  0  0  0  0  0  0
    9.2131   -5.3844   21.2861 C   0  0  0  0  0  0  0  0  0  0  0  0
    8.8810   -1.1900   22.4510 C   0  0  2  0  0  0  0  0  0  0  0  0
    6.3708   -0.0740   17.2025 N   0  0  0  0  0  0  0  0  0  0  0  0
    7.2820   -0.7860   20.6970 N   0  0  0  0  0  0  0  0  0  0  0  0
   10.6911   -5.4798   21.0188 N   0  3  0  0  0  0  0  0  0  0  0  0
    8.6431   -2.6373   22.1089 N   0  3  0  0  0  0  0  0  0  0  0  0
    8.9170    0.7530   21.0260 O   0  0  0  0  0  0  0  0  0  0  0  0
   13.8840   -1.8490   21.2740 Cl  0  0  0  0  0  0  0  0  0  0  0  0
    2.6499    3.2883   20.1641 H   0  0  0  0  0  0  0  0  0  0  0  0
    3.7607    2.3613   22.1754 H   0  0  0  0  0  0  0  0  0  0  0  0
   12.2249    1.2198   24.6546 H   0  0  0  0  0  0  0  0  0  0  0  0
    3.3723    2.5911   17.9118 H   0  0  0  0  0  0  0  0  0  0  0  0
    5.5866    0.7453   21.9560 H   0  0  0  0  0  0  0  0  0  0  0  0
    9.8763    0.5350   24.3454 H   0  0  0  0  0  0  0  0  0  0  0  0
   14.0077    0.1988   23.2842 H   0  0  0  0  0  0  0  0  0  0  0  0
   11.0892   -2.3009   21.3624 H   0  0  0  0  0  0  0  0  0  0  0  0
    4.9234    1.1835   16.4670 H   0  0  0  0  0  0  0  0  0  0  0  0
    7.7549   -1.2720   18.1337 H   0  0  0  0  0  0  0  0  0  0  0  0
   12.4461   -7.6890   19.1672 H   0  0  0  0  0  0  0  0  0  0  0  0
   11.0125   -8.5985   18.6927 H   0  0  0  0  0  0  0  0  0  0  0  0
    9.9256   -8.1641   20.8325 H   0  0  0  0  0  0  0  0  0  0  0  0
   11.5312   -8.8186   21.1358 H   0  0  0  0  0  0  0  0  0  0  0  0
   11.0723   -6.2993   17.6947 H   0  0  0  0  0  0  0  0  0  0  0  0
    9.6376   -6.5841   18.6740 H   0  0  0  0  0  0  0  0  0  0  0  0
    9.5449   -5.6817   23.4088 H   0  0  0  0  0  0  0  0  0  0  0  0
    7.9271   -5.1533   22.9898 H   0  0  0  0  0  0  0  0  0  0  0  0
    7.5000   -4.4604   20.3803 H   0  0  0  0  0  0  0  0  0  0  0  0
    8.8724   -4.5896   19.2970 H   0  0  0  0  0  0  0  0  0  0  0  0
   10.9775   -6.8324   22.6251 H   0  0  0  0  0  0  0  0  0  0  0  0
   12.4190   -6.5518   21.6023 H   0  0  0  0  0  0  0  0  0  0  0  0
   12.1442   -5.0448   19.5441 H   0  0  0  0  0  0  0  0  0  0  0  0
   10.5243   -4.3498   19.2338 H   0  0  0  0  0  0  0  0  0  0  0  0
    9.0512   -3.2968   24.0752 H   0  0  0  0  0  0  0  0  0  0  0  0
   10.4395   -3.3778   22.9551 H   0  0  0  0  0  0  0  0  0  0  0  0
   10.0405   -2.7305   20.5181 H   0  0  0  0  0  0  0  0  0  0  0  0
    8.3922   -2.2279   20.0505 H   0  0  0  0  0  0  0  0  0  0  0  0
    8.8139   -6.3843   21.0857 H   0  0  0  0  0  0  0  0  0  0  0  0
    8.2445   -1.0188   23.3300 H   0  0  0  0  0  0  0  0  0  0  0  0
    6.8974   -1.6551   21.0612 H   0  0  0  0  0  0  0  0  0  0  0  0
   11.1245   -4.6701   21.5537 H   0  0  0  0  0  0  0  0  0  0  0  0
    7.6343   -2.8025   22.2304 H   0  0  0  0  0  0  0  0  0  0  0  0
  1  2  1  0  0  0  0
  1  4  2  0  0  0  0
  2  5  2  0  0  0  0
  3  6  2  0  0  0  0
  3  7  1  0  0  0  0
  4 11  1  0  0  0  0
  5 12  1  0  0  0  0
  6 13  1  0  0  0  0
  7 15  2  0  0  0  0
  8 13  2  0  0  0  0
  8 15  1  0  0  0  0
  9 11  2  0  0  0  0
  9 28  1  0  0  0  0
 10 14  1  0  0  0  0
 10 28  2  0  0  0  0
 11 12  1  0  0  0  0
 12 14  2  0  0  0  0
 13 27  1  0  0  0  0
 14 29  1  0  0  0  0
 15 33  1  0  0  0  0
 16 27  1  6  0  0  0
 16 29  1  0  0  0  0
 16 32  2  0  0  0  0
 17 18  1  0  0  0  0
 17 19  1  0  0  0  0
 18 22  1  0  0  0  0
 19 23  1  0  0  0  0
 20 24  1  0  0  0  0
 20 26  1  0  0  0  0
 21 25  1  0  0  0  0
 21 26  1  0  0  0  0
 22 30  1  0  0  0  0
 23 30  1  0  0  0  0
 24 31  1  0  0  0  0
 25 31  1  0  0  0  0
 26 30  1  0  0  0  0
 27 31  1  0  0  0  0
  1 34  1  0  0  0  0
  2 35  1  0  0  0  0
  3 36  1  0  0  0  0
  4 37  1  0  0  0  0
  5 38  1  0  0  0  0
  6 39  1  0  0  0  0
  7 40  1  0  0  0  0
  8 41  1  0  0  0  0
  9 42  1  0  0  0  0
 10 43  1  0  0  0  0
 17 44  1  0  0  0  0
 17 45  1  0  0  0  0
 18 46  1  0  0  0  0
 18 47  1  0  0  0  0
 19 48  1  0  0  0  0
 19 49  1  0  0  0  0
 20 50  1  0  0  0  0
 20 51  1  0  0  0  0
 21 52  1  0  0  0  0
 21 53  1  0  0  0  0
 22 54  1  0  0  0  0
 22 55  1  0  0  0  0
 23 56  1  0  0  0  0
 23 57  1  0  0  0  0
 24 58  1  0  0  0  0
 24 59  1  0  0  0  0
 25 60  1  0  0  0  0
 25 61  1  0  0  0  0
 26 62  1  0  0  0  0
 27 63  1  0  0  0  0
 29 64  1  0  0  0  0
 30 65  1  0  0  0  0
 31 66  1  0  0  0  0
M  CHG  2  30   1  31   1
M  END
> <compound>
MIC-UNK-5a93dd5f-11

> <compound_smiles>
c1ccc2c(c1)cncc2NC(=O)C(c3cccc(c3)Cl)N4CCC(CC4)N5CCCCC5

> <enantiomer_smiles>
c1ccc2c(c1)cncc2NC(=O)[C@H](c3cccc(c3)Cl)N4CCC(CC4)N5CCCCC5

> <scaffold>
chlorobenzene-linker

> <clash_score>
9.623714255600524

> <docking_score>
-1.5273733139038086

> <overlap_score>
0.9753265380859375

> <MMFF_internal_energy>
294.60527001502476

> <docked_smiles>
c1ccc2c(c1)cncc2NC(=O)[C@H](c3cccc(c3)Cl)[NH+]4CCC(CC4)[NH+]5CCCCC5

$$$$
MIC-UNK-5a93dd5f-9_6
  -OEChem-07262101023D

 55 58  0     1  0  0  0  0  0999 V2000
    3.4588    2.5718   20.0554 C   0  0  0  0  0  0  0  0  0  0  0  0
    4.0835    2.0505   21.1859 C   0  0  0  0  0  0  0  0  0  0  0  0
   11.9780    0.4600   23.9150 C   0  0  0  0  0  0  0  0  0  0  0  0
    3.8711    2.1742   18.7837 C   0  0  0  0  0  0  0  0  0  0  0  0
    5.1234    1.1291   21.0499 C   0  0  0  0  0  0  0  0  0  0  0  0
   10.6560    0.0720   23.7350 C   0  0  0  0  0  0  0  0  0  0  0  0
   12.9840   -0.1200   23.1530 C   0  0  0  0  0  0  0  0  0  0  0  0
   11.3360   -1.5050   22.0650 C   0  0  0  0  0  0  0  0  0  0  0  0
    5.3689    0.8151   17.3870 C   0  0  0  0  0  0  0  0  0  0  0  0
    6.9552   -0.5603   18.3181 C   0  0  0  0  0  0  0  0  0  0  0  0
    4.9163    1.2476   18.6351 C   0  0  0  0  0  0  0  0  0  0  0  0
    5.5514    0.7175   19.7772 C   0  0  0  0  0  0  0  0  0  0  0  0
   10.3220   -0.8940   22.7910 C   0  0  0  0  0  0  0  0  0  0  0  0
    6.5908   -0.2044   19.6077 C   0  0  0  0  0  0  0  0  0  0  0  0
   12.6400   -1.1000   22.2390 C   0  0  0  0  0  0  0  0  0  0  0  0
    8.3880   -0.3240   21.3070 C   0  0  0  0  0  0  0  0  0  0  0  0
    6.2891   -2.2280   24.8417 C   0  0  0  0  0  0  0  0  0  0  0  0
    6.6301   -1.7309   23.4503 C   0  0  0  0  0  0  0  0  0  0  0  0
    8.5641   -1.5253   24.9420 C   0  0  0  0  0  0  0  0  0  0  0  0
    7.6467   -2.6592   25.3734 C   0  0  1  0  0  0  0  0  0  0  0  0
    8.7735   -3.6983   27.2223 C   0  0  0  0  0  0  0  0  0  0  0  0
    6.3836   -3.4531   27.2553 C   0  0  0  0  0  0  0  0  0  0  0  0
    8.8810   -1.1900   22.4510 C   0  0  2  0  0  0  0  0  0  0  0  0
    6.3708   -0.0740   17.2025 N   0  0  0  0  0  0  0  0  0  0  0  0
    7.2820   -0.7860   20.6970 N   0  0  0  0  0  0  0  0  0  0  0  0
    7.6465   -2.8558   26.8123 N   0  0  0  0  0  0  0  0  0  0  0  0
    7.9689   -1.0399   23.6299 N   0  3  1  0  0  0  0  0  0  0  0  0
    8.9170    0.7530   21.0260 O   0  0  0  0  0  0  0  0  0  0  0  0
   13.8840   -1.8490   21.2740 Cl  0  0  0  0  0  0  0  0  0  0  0  0
    2.6499    3.2883   20.1641 H   0  0  0  0  0  0  0  0  0  0  0  0
    3.7607    2.3613   22.1754 H   0  0  0  0  0  0  0  0  0  0  0  0
   12.2249    1.2198   24.6546 H   0  0  0  0  0  0  0  0  0  0  0  0
    3.3723    2.5910   17.9118 H   0  0  0  0  0  0  0  0  0  0  0  0
    5.5866    0.7453   21.9560 H   0  0  0  0  0  0  0  0  0  0  0  0
    9.8763    0.5350   24.3454 H   0  0  0  0  0  0  0  0  0  0  0  0
   14.0077    0.1988   23.2842 H   0  0  0  0  0  0  0  0  0  0  0  0
   11.0892   -2.3009   21.3624 H   0  0  0  0  0  0  0  0  0  0  0  0
    4.9234    1.1835   16.4670 H   0  0  0  0  0  0  0  0  0  0  0  0
    7.7549   -1.2720   18.1337 H   0  0  0  0  0  0  0  0  0  0  0  0
    5.8613   -1.4134   25.4397 H   0  0  0  0  0  0  0  0  0  0  0  0
    5.5680   -3.0509   24.8185 H   0  0  0  0  0  0  0  0  0  0  0  0
    6.7660   -2.5618   22.7495 H   0  0  0  0  0  0  0  0  0  0  0  0
    5.9161   -1.0043   23.0539 H   0  0  0  0  0  0  0  0  0  0  0  0
    8.5366   -0.6679   25.6236 H   0  0  0  0  0  0  0  0  0  0  0  0
    9.6000   -1.8432   24.7872 H   0  0  0  0  0  0  0  0  0  0  0  0
    7.9558   -3.5882   24.8871 H   0  0  0  0  0  0  0  0  0  0  0  0
    8.7530   -3.8333   28.3138 H   0  0  0  0  0  0  0  0  0  0  0  0
    8.6960   -4.6790   26.7302 H   0  0  0  0  0  0  0  0  0  0  0  0
    9.7176   -3.2152   26.9303 H   0  0  0  0  0  0  0  0  0  0  0  0
    6.4061   -3.5926   28.3462 H   0  0  0  0  0  0  0  0  0  0  0  0
    5.5496   -2.7875   26.9880 H   0  0  0  0  0  0  0  0  0  0  0  0
    6.2468   -4.4277   26.7640 H   0  0  0  0  0  0  0  0  0  0  0  0
    8.7698   -2.2472   22.1731 H   0  0  0  0  0  0  0  0  0  0  0  0
    6.8974   -1.6551   21.0612 H   0  0  0  0  0  0  0  0  0  0  0  0
    7.7794   -0.0345   23.7405 H   0  0  0  0  0  0  0  0  0  0  0  0
  1  2  1  0  0  0  0
  1  4  2  0  0  0  0
  2  5  2  0  0  0  0
  3  6  2  0  0  0  0
  3  7  1  0  0  0  0
  4 11  1  0  0  0  0
  5 12  1  0  0  0  0
  6 13  1  0  0  0  0
  7 15  2  0  0  0  0
  8 13  2  0  0  0  0
  8 15  1  0  0  0  0
  9 11  2  0  0  0  0
  9 24  1  0  0  0  0
 10 14  1  0  0  0  0
 10 24  2  0  0  0  0
 11 12  1  0  0  0  0
 12 14  2  0  0  0  0
 13 23  1  0  0  0  0
 14 25  1  0  0  0  0
 15 29  1  0  0  0  0
 16 23  1  6  0  0  0
 16 25  1  0  0  0  0
 16 28  2  0  0  0  0
 17 18  1  0  0  0  0
 17 20  1  0  0  0  0
 18 27  1  1  0  0  0
 19 20  1  0  0  0  0
 19 27  1  0  0  0  0
 20 26  1  6  0  0  0
 21 26  1  0  0  0  0
 22 26  1  0  0  0  0
 23 27  1  0  0  0  0
  1 30  1  0  0  0  0
  2 31  1  0  0  0  0
  3 32  1  0  0  0  0
  4 33  1  0  0  0  0
  5 34  1  0  0  0  0
  6 35  1  0  0  0  0
  7 36  1  0  0  0  0
  8 37  1  0  0  0  0
  9 38  1  0  0  0  0
 10 39  1  0  0  0  0
 17 40  1  0  0  0  0
 17 41  1  0  0  0  0
 18 42  1  0  0  0  0
 18 43  1  0  0  0  0
 19 44  1  0  0  0  0
 19 45  1  0  0  0  0
 20 46  1  0  0  0  0
 21 47  1  0  0  0  0
 21 48  1  0  0  0  0
 21 49  1  0  0  0  0
 22 50  1  0  0  0  0
 22 51  1  0  0  0  0
 22 52  1  0  0  0  0
 23 53  1  0  0  0  0
 25 54  1  0  0  0  0
 27 55  1  0  0  0  0
M  CHG  1  27   1
M  END
> <compound>
MIC-UNK-5a93dd5f-9

> <compound_smiles>
CN(C)C1CCN(C1)C(c2cccc(c2)Cl)C(=O)Nc3cncc4c3cccc4

> <enantiomer_smiles>
CN(C)[C@H]1CC[N@@](C1)[C@H](c2cccc(c2)Cl)C(=O)Nc3cncc4c3cccc4

> <scaffold>
chlorobenzene-linker

> <clash_score>
0

> <docking_score>
-11.600558280944824

> <overlap_score>
0.982289731502533

> <MMFF_internal_energy>
201.56578402809947

> <docked_smiles>
CN(C)[C@H]1CC[N@@H+](C1)[C@H](c2cccc(c2)Cl)C(=O)Nc3cncc4c3cccc4

$$$$
MIC-UNK-5a93dd5f-9_8
  -OEChem-07262101023D

 55 58  0     1  0  0  0  0  0999 V2000
    3.4588    2.5718   20.0554 C   0  0  0  0  0  0  0  0  0  0  0  0
    4.0835    2.0505   21.1859 C   0  0  0  0  0  0  0  0  0  0  0  0
   11.9780    0.4600   23.9150 C   0  0  0  0  0  0  0  0  0  0  0  0
    3.8711    2.1742   18.7837 C   0  0  0  0  0  0  0  0  0  0  0  0
    5.1234    1.1291   21.0499 C   0  0  0  0  0  0  0  0  0  0  0  0
   10.6560    0.0720   23.7350 C   0  0  0  0  0  0  0  0  0  0  0  0
   12.9840   -0.1200   23.1530 C   0  0  0  0  0  0  0  0  0  0  0  0
   11.3360   -1.5050   22.0650 C   0  0  0  0  0  0  0  0  0  0  0  0
    5.3689    0.8151   17.3870 C   0  0  0  0  0  0  0  0  0  0  0  0
    6.9552   -0.5603   18.3181 C   0  0  0  0  0  0  0  0  0  0  0  0
    4.9163    1.2476   18.6351 C   0  0  0  0  0  0  0  0  0  0  0  0
    5.5514    0.7175   19.7772 C   0  0  0  0  0  0  0  0  0  0  0  0
   10.3220   -0.8940   22.7910 C   0  0  0  0  0  0  0  0  0  0  0  0
    6.5908   -0.2044   19.6077 C   0  0  0  0  0  0  0  0  0  0  0  0
   12.6400   -1.1000   22.2390 C   0  0  0  0  0  0  0  0  0  0  0  0
    8.3880   -0.3240   21.3070 C   0  0  0  0  0  0  0  0  0  0  0  0
    7.5626   -2.5508   25.4596 C   0  0  0  0  0  0  0  0  0  0  0  0
    8.5577   -1.5275   24.9414 C   0  0  0  0  0  0  0  0  0  0  0  0
    6.6289   -1.7202   23.4491 C   0  0  0  0  0  0  0  0  0  0  0  0
    6.2389   -2.1036   24.8635 C   0  0  1  0  0  0  0  0  0  0  0  0
    3.9863   -2.6350   24.3133 C   0  0  0  0  0  0  0  0  0  0  0  0
    5.0106   -3.5742   26.2733 C   0  0  0  0  0  0  0  0  0  0  0  0
    8.8810   -1.1900   22.4510 C   0  0  2  0  0  0  0  0  0  0  0  0
    6.3708   -0.0740   17.2025 N   0  0  0  0  0  0  0  0  0  0  0  0
    7.2820   -0.7860   20.6970 N   0  0  0  0  0  0  0  0  0  0  0  0
    5.2331   -3.1250   24.8996 N   0  0  0  0  0  0  0  0  0  0  0  0
    7.9694   -1.0400   23.6292 N   0  3  2  0  0  0  0  0  0  0  0  0
    8.9170    0.7530   21.0260 O   0  0  0  0  0  0  0  0  0  0  0  0
   13.8840   -1.8490   21.2740 Cl  0  0  0  0  0  0  0  0  0  0  0  0
    2.6499    3.2883   20.1641 H   0  0  0  0  0  0  0  0  0  0  0  0
    3.7607    2.3613   22.1754 H   0  0  0  0  0  0  0  0  0  0  0  0
   12.2249    1.2198   24.6546 H   0  0  0  0  0  0  0  0  0  0  0  0
    3.3723    2.5910   17.9118 H   0  0  0  0  0  0  0  0  0  0  0  0
    5.5866    0.7453   21.9560 H   0  0  0  0  0  0  0  0  0  0  0  0
    9.8763    0.5350   24.3454 H   0  0  0  0  0  0  0  0  0  0  0  0
   14.0077    0.1988   23.2842 H   0  0  0  0  0  0  0  0  0  0  0  0
   11.0892   -2.3009   21.3624 H   0  0  0  0  0  0  0  0  0  0  0  0
    4.9234    1.1835   16.4670 H   0  0  0  0  0  0  0  0  0  0  0  0
    7.7549   -1.2720   18.1337 H   0  0  0  0  0  0  0  0  0  0  0  0
    7.8404   -3.5738   25.1803 H   0  0  0  0  0  0  0  0  0  0  0  0
    7.5171   -2.5073   26.5564 H   0  0  0  0  0  0  0  0  0  0  0  0
    8.6791   -0.6609   25.6042 H   0  0  0  0  0  0  0  0  0  0  0  0
    9.5400   -1.9745   24.7325 H   0  0  0  0  0  0  0  0  0  0  0  0
    6.7236   -2.5566   22.7579 H   0  0  0  0  0  0  0  0  0  0  0  0
    5.9560   -0.9673   23.0380 H   0  0  0  0  0  0  0  0  0  0  0  0
    5.8651   -1.2202   25.4081 H   0  0  0  0  0  0  0  0  0  0  0  0
    3.2266   -3.4297   24.3489 H   0  0  0  0  0  0  0  0  0  0  0  0
    3.6316   -1.7630   24.8823 H   0  0  0  0  0  0  0  0  0  0  0  0
    4.1629   -2.3433   23.2675 H   0  0  0  0  0  0  0  0  0  0  0  0
    4.2373   -4.3565   26.2832 H   0  0  0  0  0  0  0  0  0  0  0  0
    5.9476   -3.9798   26.6827 H   0  0  0  0  0  0  0  0  0  0  0  0
    4.6797   -2.7240   26.8879 H   0  0  0  0  0  0  0  0  0  0  0  0
    8.7698   -2.2472   22.1731 H   0  0  0  0  0  0  0  0  0  0  0  0
    6.8974   -1.6551   21.0612 H   0  0  0  0  0  0  0  0  0  0  0  0
    7.7803   -0.0352   23.7394 H   0  0  0  0  0  0  0  0  0  0  0  0
  1  2  1  0  0  0  0
  1  4  2  0  0  0  0
  2  5  2  0  0  0  0
  3  6  2  0  0  0  0
  3  7  1  0  0  0  0
  4 11  1  0  0  0  0
  5 12  1  0  0  0  0
  6 13  1  0  0  0  0
  7 15  2  0  0  0  0
  8 13  2  0  0  0  0
  8 15  1  0  0  0  0
  9 11  2  0  0  0  0
  9 24  1  0  0  0  0
 10 14  1  0  0  0  0
 10 24  2  0  0  0  0
 11 12  1  0  0  0  0
 12 14  2  0  0  0  0
 13 23  1  0  0  0  0
 14 25  1  0  0  0  0
 15 29  1  0  0  0  0
 16 23  1  6  0  0  0
 16 25  1  0  0  0  0
 16 28  2  0  0  0  0
 17 18  1  0  0  0  0
 17 20  1  0  0  0  0
 18 27  1  6  0  0  0
 19 20  1  0  0  0  0
 19 27  1  0  0  0  0
 20 26  1  6  0  0  0
 21 26  1  0  0  0  0
 22 26  1  0  0  0  0
 23 27  1  0  0  0  0
  1 30  1  0  0  0  0
  2 31  1  0  0  0  0
  3 32  1  0  0  0  0
  4 33  1  0  0  0  0
  5 34  1  0  0  0  0
  6 35  1  0  0  0  0
  7 36  1  0  0  0  0
  8 37  1  0  0  0  0
  9 38  1  0  0  0  0
 10 39  1  0  0  0  0
 17 40  1  0  0  0  0
 17 41  1  0  0  0  0
 18 42  1  0  0  0  0
 18 43  1  0  0  0  0
 19 44  1  0  0  0  0
 19 45  1  0  0  0  0
 20 46  1  0  0  0  0
 21 47  1  0  0  0  0
 21 48  1  0  0  0  0
 21 49  1  0  0  0  0
 22 50  1  0  0  0  0
 22 51  1  0  0  0  0
 22 52  1  0  0  0  0
 23 53  1  0  0  0  0
 25 54  1  0  0  0  0
 27 55  1  0  0  0  0
M  CHG  1  27   1
M  END
> <compound>
MIC-UNK-5a93dd5f-9

> <compound_smiles>
CN(C)C1CCN(C1)C(c2cccc(c2)Cl)C(=O)Nc3cncc4c3cccc4

> <enantiomer_smiles>
CN(C)[C@H]1CC[N@](C1)[C@H](c2cccc(c2)Cl)C(=O)Nc3cncc4c3cccc4

> <scaffold>
chlorobenzene-linker

> <clash_score>
0.845430404615611

> <docking_score>
-10.551674842834473

> <overlap_score>
0.9822262525558472

> <MMFF_internal_energy>
199.07225933237825

> <docked_smiles>
CN(C)[C@H]1CC[N@H+](C1)[C@H](c2cccc(c2)Cl)C(=O)Nc3cncc4c3cccc4

$$$$
MIC-UNK-5a93dd5f-9_7
  -OEChem-07262101023D

 55 58  0     1  0  0  0  0  0999 V2000
    3.4588    2.5719   20.0554 C   0  0  0  0  0  0  0  0  0  0  0  0
    4.0836    2.0505   21.1859 C   0  0  0  0  0  0  0  0  0  0  0  0
   11.9780    0.4600   23.9150 C   0  0  0  0  0  0  0  0  0  0  0  0
    3.8711    2.1742   18.7838 C   0  0  0  0  0  0  0  0  0  0  0  0
    5.1234    1.1291   21.0499 C   0  0  0  0  0  0  0  0  0  0  0  0
   10.6560    0.0720   23.7350 C   0  0  0  0  0  0  0  0  0  0  0  0
   12.9840   -0.1200   23.1530 C   0  0  0  0  0  0  0  0  0  0  0  0
   11.3360   -1.5050   22.0650 C   0  0  0  0  0  0  0  0  0  0  0  0
    5.3689    0.8151   17.3870 C   0  0  0  0  0  0  0  0  0  0  0  0
    6.9552   -0.5603   18.3181 C   0  0  0  0  0  0  0  0  0  0  0  0
    4.9163    1.2476   18.6351 C   0  0  0  0  0  0  0  0  0  0  0  0
    5.5514    0.7175   19.7772 C   0  0  0  0  0  0  0  0  0  0  0  0
   10.3220   -0.8940   22.7910 C   0  0  0  0  0  0  0  0  0  0  0  0
    6.5908   -0.2044   19.6077 C   0  0  0  0  0  0  0  0  0  0  0  0
   12.6400   -1.1000   22.2390 C   0  0  0  0  0  0  0  0  0  0  0  0
    8.3880   -0.3240   21.3070 C   0  0  0  0  0  0  0  0  0  0  0  0
    7.3697   -1.9328   25.7430 C   0  0  0  0  0  0  0  0  0  0  0  0
    8.5762   -1.5148   24.9306 C   0  0  0  0  0  0  0  0  0  0  0  0
    6.6239   -1.7269   23.4738 C   0  0  0  0  0  0  0  0  0  0  0  0
    6.4938   -2.6138   24.7047 C   0  0  2  0  0  0  0  0  0  0  0  0
    5.0692   -3.5707   26.3548 C   0  0  0  0  0  0  0  0  0  0  0  0
    4.3244   -3.3690   24.0794 C   0  0  0  0  0  0  0  0  0  0  0  0
    8.8810   -1.1900   22.4510 C   0  0  2  0  0  0  0  0  0  0  0  0
    6.3708   -0.0740   17.2025 N   0  0  0  0  0  0  0  0  0  0  0  0
    7.2820   -0.7860   20.6970 N   0  0  0  0  0  0  0  0  0  0  0  0
    5.1337   -2.7634   25.1368 N   0  0  0  0  0  0  0  0  0  0  0  0
    7.9697   -1.0401   23.6288 N   0  3  2  0  0  0  0  0  0  0  0  0
    8.9170    0.7530   21.0260 O   0  0  0  0  0  0  0  0  0  0  0  0
   13.8840   -1.8490   21.2740 Cl  0  0  0  0  0  0  0  0  0  0  0  0
    2.6499    3.2883   20.1641 H   0  0  0  0  0  0  0  0  0  0  0  0
    3.7608    2.3613   22.1755 H   0  0  0  0  0  0  0  0  0  0  0  0
   12.2249    1.2198   24.6546 H   0  0  0  0  0  0  0  0  0  0  0  0
    3.3723    2.5911   17.9118 H   0  0  0  0  0  0  0  0  0  0  0  0
    5.5866    0.7453   21.9560 H   0  0  0  0  0  0  0  0  0  0  0  0
    9.8763    0.5350   24.3454 H   0  0  0  0  0  0  0  0  0  0  0  0
   14.0077    0.1988   23.2842 H   0  0  0  0  0  0  0  0  0  0  0  0
   11.0892   -2.3009   21.3624 H   0  0  0  0  0  0  0  0  0  0  0  0
    4.9234    1.1835   16.4670 H   0  0  0  0  0  0  0  0  0  0  0  0
    7.7549   -1.2720   18.1337 H   0  0  0  0  0  0  0  0  0  0  0  0
    7.6677   -2.6566   26.5011 H   0  0  0  0  0  0  0  0  0  0  0  0
    6.8873   -1.0929   26.2342 H   0  0  0  0  0  0  0  0  0  0  0  0
    9.0971   -0.6626   25.3649 H   0  0  0  0  0  0  0  0  0  0  0  0
    9.2639   -2.3370   24.7421 H   0  0  0  0  0  0  0  0  0  0  0  0
    6.6622   -2.3310   22.5555 H   0  0  0  0  0  0  0  0  0  0  0  0
    5.8499   -0.9537   23.3733 H   0  0  0  0  0  0  0  0  0  0  0  0
    6.9042   -3.6363   24.4778 H   0  0  0  0  0  0  0  0  0  0  0  0
    4.0209   -3.6749   26.6712 H   0  0  0  0  0  0  0  0  0  0  0  0
    5.4932   -4.5663   26.1574 H   0  0  0  0  0  0  0  0  0  0  0  0
    5.6455   -3.0782   27.1519 H   0  0  0  0  0  0  0  0  0  0  0  0
    3.2864   -3.4760   24.4272 H   0  0  0  0  0  0  0  0  0  0  0  0
    4.3475   -2.7267   23.1867 H   0  0  0  0  0  0  0  0  0  0  0  0
    4.7310   -4.3599   23.8287 H   0  0  0  0  0  0  0  0  0  0  0  0
    8.7698   -2.2472   22.1731 H   0  0  0  0  0  0  0  0  0  0  0  0
    6.8974   -1.6551   21.0612 H   0  0  0  0  0  0  0  0  0  0  0  0
    7.7804   -0.0350   23.7393 H   0  0  0  0  0  0  0  0  0  0  0  0
  1  2  1  0  0  0  0
  1  4  2  0  0  0  0
  2  5  2  0  0  0  0
  3  6  2  0  0  0  0
  3  7  1  0  0  0  0
  4 11  1  0  0  0  0
  5 12  1  0  0  0  0
  6 13  1  0  0  0  0
  7 15  2  0  0  0  0
  8 13  2  0  0  0  0
  8 15  1  0  0  0  0
  9 11  2  0  0  0  0
  9 24  1  0  0  0  0
 10 14  1  0  0  0  0
 10 24  2  0  0  0  0
 11 12  1  0  0  0  0
 12 14  2  0  0  0  0
 13 23  1  0  0  0  0
 14 25  1  0  0  0  0
 15 29  1  0  0  0  0
 16 23  1  6  0  0  0
 16 25  1  0  0  0  0
 16 28  2  0  0  0  0
 17 18  1  0  0  0  0
 17 20  1  0  0  0  0
 18 27  1  6  0  0  0
 19 20  1  0  0  0  0
 19 27  1  0  0  0  0
 20 26  1  1  0  0  0
 21 26  1  0  0  0  0
 22 26  1  0  0  0  0
 23 27  1  0  0  0  0
  1 30  1  0  0  0  0
  2 31  1  0  0  0  0
  3 32  1  0  0  0  0
  4 33  1  0  0  0  0
  5 34  1  0  0  0  0
  6 35  1  0  0  0  0
  7 36  1  0  0  0  0
  8 37  1  0  0  0  0
  9 38  1  0  0  0  0
 10 39  1  0  0  0  0
 17 40  1  0  0  0  0
 17 41  1  0  0  0  0
 18 42  1  0  0  0  0
 18 43  1  0  0  0  0
 19 44  1  0  0  0  0
 19 45  1  0  0  0  0
 20 46  1  0  0  0  0
 21 47  1  0  0  0  0
 21 48  1  0  0  0  0
 21 49  1  0  0  0  0
 22 50  1  0  0  0  0
 22 51  1  0  0  0  0
 22 52  1  0  0  0  0
 23 53  1  0  0  0  0
 25 54  1  0  0  0  0
 27 55  1  0  0  0  0
M  CHG  1  27   1
M  END
> <compound>
MIC-UNK-5a93dd5f-9

> <compound_smiles>
CN(C)C1CCN(C1)C(c2cccc(c2)Cl)C(=O)Nc3cncc4c3cccc4

> <enantiomer_smiles>
CN(C)[C@@H]1CC[N@](C1)[C@H](c2cccc(c2)Cl)C(=O)Nc3cncc4c3cccc4

> <scaffold>
chlorobenzene-linker

> <clash_score>
0.8076873355486011

> <docking_score>
-10.572572708129883

> <overlap_score>
0.9822356104850769

> <MMFF_internal_energy>
204.32402259023465

> <docked_smiles>
CN(C)[C@@H]1CC[N@H+](C1)[C@H](c2cccc(c2)Cl)C(=O)Nc3cncc4c3cccc4

$$$$
MIC-UNK-5a93dd5f-7_6
  -OEChem-07262101023D

 57 60  0     1  0  0  0  0  0999 V2000
    3.4588    2.5718   20.0554 C   0  0  0  0  0  0  0  0  0  0  0  0
    4.0835    2.0505   21.1859 C   0  0  0  0  0  0  0  0  0  0  0  0
   11.9780    0.4600   23.9150 C   0  0  0  0  0  0  0  0  0  0  0  0
    3.8711    2.1742   18.7837 C   0  0  0  0  0  0  0  0  0  0  0  0
    5.1234    1.1291   21.0499 C   0  0  0  0  0  0  0  0  0  0  0  0
   10.6560    0.0720   23.7350 C   0  0  0  0  0  0  0  0  0  0  0  0
   12.9840   -0.1200   23.1530 C   0  0  0  0  0  0  0  0  0  0  0  0
   11.3360   -1.5050   22.0650 C   0  0  0  0  0  0  0  0  0  0  0  0
    5.3689    0.8151   17.3870 C   0  0  0  0  0  0  0  0  0  0  0  0
    6.9552   -0.5603   18.3181 C   0  0  0  0  0  0  0  0  0  0  0  0
    4.9163    1.2476   18.6351 C   0  0  0  0  0  0  0  0  0  0  0  0
    5.5514    0.7175   19.7772 C   0  0  0  0  0  0  0  0  0  0  0  0
   10.3220   -0.8940   22.7910 C   0  0  0  0  0  0  0  0  0  0  0  0
    6.5908   -0.2044   19.6077 C   0  0  0  0  0  0  0  0  0  0  0  0
   12.6400   -1.1000   22.2390 C   0  0  0  0  0  0  0  0  0  0  0  0
    7.9695   -4.0414   27.4110 C   0  0  0  0  0  0  0  0  0  0  0  0
    8.3880   -0.3240   21.3070 C   0  0  0  0  0  0  0  0  0  0  0  0
    6.2764   -2.2026   24.8458 C   0  0  0  0  0  0  0  0  0  0  0  0
    6.6303   -1.7281   23.4501 C   0  0  0  0  0  0  0  0  0  0  0  0
    8.5626   -1.5239   24.9428 C   0  0  0  0  0  0  0  0  0  0  0  0
    7.6261   -2.6328   25.3939 C   0  0  1  0  0  0  0  0  0  0  0  0
    8.6007   -3.9982   28.7801 C   0  0  0  0  0  0  0  0  0  0  0  0
    7.2384   -1.6426   27.6186 C   0  0  0  0  0  0  0  0  0  0  0  0
    8.8810   -1.1900   22.4510 C   0  0  2  0  0  0  0  0  0  0  0  0
    6.3708   -0.0740   17.2025 N   0  0  0  0  0  0  0  0  0  0  0  0
    7.2820   -0.7860   20.6970 N   0  0  0  0  0  0  0  0  0  0  0  0
    7.6235   -2.8139   26.8166 N   0  0  0  0  0  0  0  0  0  0  0  0
    7.9690   -1.0400   23.6297 N   0  3  1  0  0  0  0  0  0  0  0  0
    7.7816   -5.1339   26.8690 O   0  0  0  0  0  0  0  0  0  0  0  0
    8.9170    0.7530   21.0260 O   0  0  0  0  0  0  0  0  0  0  0  0
   13.8840   -1.8490   21.2740 Cl  0  0  0  0  0  0  0  0  0  0  0  0
    2.6499    3.2883   20.1641 H   0  0  0  0  0  0  0  0  0  0  0  0
    3.7607    2.3613   22.1754 H   0  0  0  0  0  0  0  0  0  0  0  0
   12.2249    1.2198   24.6546 H   0  0  0  0  0  0  0  0  0  0  0  0
    3.3723    2.5911   17.9118 H   0  0  0  0  0  0  0  0  0  0  0  0
    5.5866    0.7453   21.9560 H   0  0  0  0  0  0  0  0  0  0  0  0
    9.8763    0.5350   24.3454 H   0  0  0  0  0  0  0  0  0  0  0  0
   14.0077    0.1988   23.2842 H   0  0  0  0  0  0  0  0  0  0  0  0
   11.0892   -2.3009   21.3624 H   0  0  0  0  0  0  0  0  0  0  0  0
    4.9234    1.1835   16.4670 H   0  0  0  0  0  0  0  0  0  0  0  0
    7.7549   -1.2720   18.1337 H   0  0  0  0  0  0  0  0  0  0  0  0
    5.8528   -1.3761   25.4299 H   0  0  0  0  0  0  0  0  0  0  0  0
    5.5519   -3.0221   24.8276 H   0  0  0  0  0  0  0  0  0  0  0  0
    6.7695   -2.5707   22.7640 H   0  0  0  0  0  0  0  0  0  0  0  0
    5.9220   -1.0061   23.0356 H   0  0  0  0  0  0  0  0  0  0  0  0
    8.5558   -0.6590   25.6152 H   0  0  0  0  0  0  0  0  0  0  0  0
    9.5891   -1.8670   24.7812 H   0  0  0  0  0  0  0  0  0  0  0  0
    7.9311   -3.5854   24.9445 H   0  0  0  0  0  0  0  0  0  0  0  0
    7.8175   -4.0418   29.5433 H   0  0  0  0  0  0  0  0  0  0  0  0
    9.2602   -4.8589   28.9199 H   0  0  0  0  0  0  0  0  0  0  0  0
    9.1534   -3.0644   28.9128 H   0  0  0  0  0  0  0  0  0  0  0  0
    8.1344   -1.0512   27.8586 H   0  0  0  0  0  0  0  0  0  0  0  0
    6.5325   -1.0226   27.0464 H   0  0  0  0  0  0  0  0  0  0  0  0
    6.7599   -1.9778   28.5506 H   0  0  0  0  0  0  0  0  0  0  0  0
    8.7698   -2.2472   22.1731 H   0  0  0  0  0  0  0  0  0  0  0  0
    6.8974   -1.6551   21.0612 H   0  0  0  0  0  0  0  0  0  0  0  0
    7.7798   -0.0340   23.7399 H   0  0  0  0  0  0  0  0  0  0  0  0
  1  2  1  0  0  0  0
  1  4  2  0  0  0  0
  2  5  2  0  0  0  0
  3  6  2  0  0  0  0
  3  7  1  0  0  0  0
  4 11  1  0  0  0  0
  5 12  1  0  0  0  0
  6 13  1  0  0  0  0
  7 15  2  0  0  0  0
  8 13  2  0  0  0  0
  8 15  1  0  0  0  0
  9 11  2  0  0  0  0
  9 25  1  0  0  0  0
 10 14  1  0  0  0  0
 10 25  2  0  0  0  0
 11 12  1  0  0  0  0
 12 14  2  0  0  0  0
 13 24  1  0  0  0  0
 14 26  1  0  0  0  0
 15 31  1  0  0  0  0
 16 22  1  0  0  0  0
 16 27  1  0  0  0  0
 16 29  2  0  0  0  0
 17 24  1  6  0  0  0
 17 26  1  0  0  0  0
 17 30  2  0  0  0  0
 18 19  1  0  0  0  0
 18 21  1  0  0  0  0
 19 28  1  1  0  0  0
 20 21  1  0  0  0  0
 20 28  1  0  0  0  0
 21 27  1  6  0  0  0
 23 27  1  0  0  0  0
 24 28  1  0  0  0  0
  1 32  1  0  0  0  0
  2 33  1  0  0  0  0
  3 34  1  0  0  0  0
  4 35  1  0  0  0  0
  5 36  1  0  0  0  0
  6 37  1  0  0  0  0
  7 38  1  0  0  0  0
  8 39  1  0  0  0  0
  9 40  1  0  0  0  0
 10 41  1  0  0  0  0
 18 42  1  0  0  0  0
 18 43  1  0  0  0  0
 19 44  1  0  0  0  0
 19 45  1  0  0  0  0
 20 46  1  0  0  0  0
 20 47  1  0  0  0  0
 21 48  1  0  0  0  0
 22 49  1  0  0  0  0
 22 50  1  0  0  0  0
 22 51  1  0  0  0  0
 23 52  1  0  0  0  0
 23 53  1  0  0  0  0
 23 54  1  0  0  0  0
 24 55  1  0  0  0  0
 26 56  1  0  0  0  0
 28 57  1  0  0  0  0
M  CHG  1  28   1
M  END
> <compound>
MIC-UNK-5a93dd5f-7

> <compound_smiles>
CC(=O)N(C)C1CCN(C1)C(c2cccc(c2)Cl)C(=O)Nc3cncc4c3cccc4

> <enantiomer_smiles>
CC(=O)N(C)[C@H]1CC[N@@](C1)[C@H](c2cccc(c2)Cl)C(=O)Nc3cncc4c3cccc4

> <scaffold>
chlorobenzene-linker

> <clash_score>
0

> <docking_score>
-10.699468612670898

> <overlap_score>
0.9777576923370361

> <MMFF_internal_energy>
186.14522452696673

> <docked_smiles>
CC(=O)N(C)[C@H]1CC[N@@H+](C1)[C@H](c2cccc(c2)Cl)C(=O)Nc3cncc4c3cccc4

$$$$
MIC-UNK-5a93dd5f-7_5
  -OEChem-07262101023D

 57 60  0     1  0  0  0  0  0999 V2000
    3.4588    2.5719   20.0554 C   0  0  0  0  0  0  0  0  0  0  0  0
    4.0835    2.0505   21.1859 C   0  0  0  0  0  0  0  0  0  0  0  0
   11.9780    0.4600   23.9150 C   0  0  0  0  0  0  0  0  0  0  0  0
    3.8711    2.1742   18.7837 C   0  0  0  0  0  0  0  0  0  0  0  0
    5.1234    1.1291   21.0499 C   0  0  0  0  0  0  0  0  0  0  0  0
   10.6560    0.0720   23.7350 C   0  0  0  0  0  0  0  0  0  0  0  0
   12.9840   -0.1200   23.1530 C   0  0  0  0  0  0  0  0  0  0  0  0
   11.3360   -1.5050   22.0650 C   0  0  0  0  0  0  0  0  0  0  0  0
    5.3689    0.8151   17.3870 C   0  0  0  0  0  0  0  0  0  0  0  0
    6.9552   -0.5603   18.3181 C   0  0  0  0  0  0  0  0  0  0  0  0
    4.9163    1.2476   18.6351 C   0  0  0  0  0  0  0  0  0  0  0  0
    5.5514    0.7175   19.7772 C   0  0  0  0  0  0  0  0  0  0  0  0
   10.3220   -0.8940   22.7910 C   0  0  0  0  0  0  0  0  0  0  0  0
    6.5908   -0.2044   19.6077 C   0  0  0  0  0  0  0  0  0  0  0  0
   12.6400   -1.1000   22.2390 C   0  0  0  0  0  0  0  0  0  0  0  0
    6.8694   -3.8920   27.2309 C   0  0  0  0  0  0  0  0  0  0  0  0
    8.3880   -0.3240   21.3070 C   0  0  0  0  0  0  0  0  0  0  0  0
    6.5158   -2.6549   24.6664 C   0  0  0  0  0  0  0  0  0  0  0  0
    6.6261   -1.7288   23.4681 C   0  0  0  0  0  0  0  0  0  0  0  0
    8.5734   -1.5175   24.9323 C   0  0  0  0  0  0  0  0  0  0  0  0
    7.3678   -1.9807   25.7279 C   0  0  2  0  0  0  0  0  0  0  0  0
    7.3512   -4.7534   28.3714 C   0  0  0  0  0  0  0  0  0  0  0  0
    9.0253   -2.6202   27.4267 C   0  0  0  0  0  0  0  0  0  0  0  0
    8.8810   -1.1900   22.4510 C   0  0  2  0  0  0  0  0  0  0  0  0
    6.3708   -0.0740   17.2025 N   0  0  0  0  0  0  0  0  0  0  0  0
    7.2820   -0.7860   20.6970 N   0  0  0  0  0  0  0  0  0  0  0  0
    7.7200   -2.8624   26.8029 N   0  0  0  0  0  0  0  0  0  0  0  0
    7.9694   -1.0400   23.6292 N   0  3  1  0  0  0  0  0  0  0  0  0
    5.7665   -4.1215   26.7276 O   0  0  0  0  0  0  0  0  0  0  0  0
    8.9170    0.7530   21.0260 O   0  0  0  0  0  0  0  0  0  0  0  0
   13.8840   -1.8490   21.2740 Cl  0  0  0  0  0  0  0  0  0  0  0  0
    2.6499    3.2883   20.1641 H   0  0  0  0  0  0  0  0  0  0  0  0
    3.7607    2.3613   22.1754 H   0  0  0  0  0  0  0  0  0  0  0  0
   12.2249    1.2198   24.6546 H   0  0  0  0  0  0  0  0  0  0  0  0
    3.3723    2.5911   17.9118 H   0  0  0  0  0  0  0  0  0  0  0  0
    5.5866    0.7453   21.9560 H   0  0  0  0  0  0  0  0  0  0  0  0
    9.8763    0.5350   24.3454 H   0  0  0  0  0  0  0  0  0  0  0  0
   14.0077    0.1988   23.2842 H   0  0  0  0  0  0  0  0  0  0  0  0
   11.0892   -2.3009   21.3624 H   0  0  0  0  0  0  0  0  0  0  0  0
    4.9234    1.1835   16.4670 H   0  0  0  0  0  0  0  0  0  0  0  0
    7.7549   -1.2720   18.1337 H   0  0  0  0  0  0  0  0  0  0  0  0
    5.4711   -2.7109   25.0017 H   0  0  0  0  0  0  0  0  0  0  0  0
    6.8429   -3.6752   24.4341 H   0  0  0  0  0  0  0  0  0  0  0  0
    6.6402   -2.2880   22.5217 H   0  0  0  0  0  0  0  0  0  0  0  0
    5.8459   -0.9575   23.4348 H   0  0  0  0  0  0  0  0  0  0  0  0
    9.0450   -0.6472   25.3894 H   0  0  0  0  0  0  0  0  0  0  0  0
    9.3141   -2.2930   24.7427 H   0  0  0  0  0  0  0  0  0  0  0  0
    6.8383   -1.1252   26.1747 H   0  0  0  0  0  0  0  0  0  0  0  0
    7.0255   -4.3160   29.3204 H   0  0  0  0  0  0  0  0  0  0  0  0
    6.9235   -5.7566   28.2947 H   0  0  0  0  0  0  0  0  0  0  0  0
    8.4434   -4.8000   28.3754 H   0  0  0  0  0  0  0  0  0  0  0  0
    9.7958   -3.2076   26.9059 H   0  0  0  0  0  0  0  0  0  0  0  0
    9.2714   -1.5503   27.3582 H   0  0  0  0  0  0  0  0  0  0  0  0
    8.9876   -2.9208   28.4842 H   0  0  0  0  0  0  0  0  0  0  0  0
    8.7698   -2.2472   22.1731 H   0  0  0  0  0  0  0  0  0  0  0  0
    6.8974   -1.6551   21.0612 H   0  0  0  0  0  0  0  0  0  0  0  0
    7.7800   -0.0350   23.7397 H   0  0  0  0  0  0  0  0  0  0  0  0
  1  2  1  0  0  0  0
  1  4  2  0  0  0  0
  2  5  2  0  0  0  0
  3  6  2  0  0  0  0
  3  7  1  0  0  0  0
  4 11  1  0  0  0  0
  5 12  1  0  0  0  0
  6 13  1  0  0  0  0
  7 15  2  0  0  0  0
  8 13  2  0  0  0  0
  8 15  1  0  0  0  0
  9 11  2  0  0  0  0
  9 25  1  0  0  0  0
 10 14  1  0  0  0  0
 10 25  2  0  0  0  0
 11 12  1  0  0  0  0
 12 14  2  0  0  0  0
 13 24  1  0  0  0  0
 14 26  1  0  0  0  0
 15 31  1  0  0  0  0
 16 22  1  0  0  0  0
 16 27  1  0  0  0  0
 16 29  2  0  0  0  0
 17 24  1  6  0  0  0
 17 26  1  0  0  0  0
 17 30  2  0  0  0  0
 18 19  1  0  0  0  0
 18 21  1  0  0  0  0
 19 28  1  1  0  0  0
 20 21  1  0  0  0  0
 20 28  1  0  0  0  0
 21 27  1  1  0  0  0
 23 27  1  0  0  0  0
 24 28  1  0  0  0  0
  1 32  1  0  0  0  0
  2 33  1  0  0  0  0
  3 34  1  0  0  0  0
  4 35  1  0  0  0  0
  5 36  1  0  0  0  0
  6 37  1  0  0  0  0
  7 38  1  0  0  0  0
  8 39  1  0  0  0  0
  9 40  1  0  0  0  0
 10 41  1  0  0  0  0
 18 42  1  0  0  0  0
 18 43  1  0  0  0  0
 19 44  1  0  0  0  0
 19 45  1  0  0  0  0
 20 46  1  0  0  0  0
 20 47  1  0  0  0  0
 21 48  1  0  0  0  0
 22 49  1  0  0  0  0
 22 50  1  0  0  0  0
 22 51  1  0  0  0  0
 23 52  1  0  0  0  0
 23 53  1  0  0  0  0
 23 54  1  0  0  0  0
 24 55  1  0  0  0  0
 26 56  1  0  0  0  0
 28 57  1  0  0  0  0
M  CHG  1  28   1
M  END
> <compound>
MIC-UNK-5a93dd5f-7

> <compound_smiles>
CC(=O)N(C)C1CCN(C1)C(c2cccc(c2)Cl)C(=O)Nc3cncc4c3cccc4

> <enantiomer_smiles>
CC(=O)N(C)[C@@H]1CC[N@@](C1)[C@H](c2cccc(c2)Cl)C(=O)Nc3cncc4c3cccc4

> <scaffold>
chlorobenzene-linker

> <clash_score>
0

> <docking_score>
-11.094643592834473

> <overlap_score>
0.9775605201721191

> <MMFF_internal_energy>
189.3936078096904

> <docked_smiles>
CC(=O)N(C)[C@@H]1CC[N@@H+](C1)[C@H](c2cccc(c2)Cl)C(=O)Nc3cncc4c3cccc4

$$$$
MIC-UNK-5a93dd5f-7_7
  -OEChem-07262101023D

 57 60  0     1  0  0  0  0  0999 V2000
    3.4588    2.5718   20.0554 C   0  0  0  0  0  0  0  0  0  0  0  0
    4.0835    2.0505   21.1859 C   0  0  0  0  0  0  0  0  0  0  0  0
   11.9780    0.4600   23.9150 C   0  0  0  0  0  0  0  0  0  0  0  0
    3.8710    2.1742   18.7837 C   0  0  0  0  0  0  0  0  0  0  0  0
    5.1234    1.1291   21.0499 C   0  0  0  0  0  0  0  0  0  0  0  0
   10.6560    0.0720   23.7350 C   0  0  0  0  0  0  0  0  0  0  0  0
   12.9840   -0.1200   23.1530 C   0  0  0  0  0  0  0  0  0  0  0  0
   11.3360   -1.5050   22.0650 C   0  0  0  0  0  0  0  0  0  0  0  0
    5.3689    0.8151   17.3870 C   0  0  0  0  0  0  0  0  0  0  0  0
    6.9552   -0.5603   18.3181 C   0  0  0  0  0  0  0  0  0  0  0  0
    4.9163    1.2476   18.6351 C   0  0  0  0  0  0  0  0  0  0  0  0
    5.5514    0.7175   19.7772 C   0  0  0  0  0  0  0  0  0  0  0  0
   10.3220   -0.8940   22.7910 C   0  0  0  0  0  0  0  0  0  0  0  0
    6.5908   -0.2044   19.6077 C   0  0  0  0  0  0  0  0  0  0  0  0
   12.6400   -1.1000   22.2390 C   0  0  0  0  0  0  0  0  0  0  0  0
    5.7662   -0.7630   26.9363 C   0  0  0  0  0  0  0  0  0  0  0  0
    8.3880   -0.3240   21.3070 C   0  0  0  0  0  0  0  0  0  0  0  0
    7.5278   -2.4924   25.5025 C   0  0  0  0  0  0  0  0  0  0  0  0
    8.5563   -1.5210   24.9428 C   0  0  0  0  0  0  0  0  0  0  0  0
    6.6263   -1.7195   23.4498 C   0  0  0  0  0  0  0  0  0  0  0  0
    6.2123   -2.0729   24.8672 C   0  0  2  0  0  0  0  0  0  0  0  0
    5.7540    0.6575   27.4428 C   0  0  0  0  0  0  0  0  0  0  0  0
    4.8533   -0.0212   24.7175 C   0  0  0  0  0  0  0  0  0  0  0  0
    8.8810   -1.1900   22.4510 C   0  0  2  0  0  0  0  0  0  0  0  0
    6.3708   -0.0740   17.2025 N   0  0  0  0  0  0  0  0  0  0  0  0
    7.2820   -0.7860   20.6970 N   0  0  0  0  0  0  0  0  0  0  0  0
    5.6194   -0.9519   25.5539 N   0  0  0  0  0  0  0  0  0  0  0  0
    7.9695   -1.0401   23.6290 N   0  3  2  0  0  0  0  0  0  0  0  0
    5.9021   -1.6880   27.7416 O   0  0  0  0  0  0  0  0  0  0  0  0
    8.9170    0.7530   21.0260 O   0  0  0  0  0  0  0  0  0  0  0  0
   13.8840   -1.8490   21.2740 Cl  0  0  0  0  0  0  0  0  0  0  0  0
    2.6499    3.2883   20.1641 H   0  0  0  0  0  0  0  0  0  0  0  0
    3.7607    2.3613   22.1754 H   0  0  0  0  0  0  0  0  0  0  0  0
   12.2249    1.2198   24.6546 H   0  0  0  0  0  0  0  0  0  0  0  0
    3.3723    2.5910   17.9118 H   0  0  0  0  0  0  0  0  0  0  0  0
    5.5866    0.7453   21.9560 H   0  0  0  0  0  0  0  0  0  0  0  0
    9.8763    0.5350   24.3454 H   0  0  0  0  0  0  0  0  0  0  0  0
   14.0077    0.1988   23.2842 H   0  0  0  0  0  0  0  0  0  0  0  0
   11.0892   -2.3009   21.3624 H   0  0  0  0  0  0  0  0  0  0  0  0
    4.9234    1.1835   16.4670 H   0  0  0  0  0  0  0  0  0  0  0  0
    7.7549   -1.2720   18.1337 H   0  0  0  0  0  0  0  0  0  0  0  0
    7.7787   -3.5133   25.1882 H   0  0  0  0  0  0  0  0  0  0  0  0
    7.5000   -2.4824   26.5968 H   0  0  0  0  0  0  0  0  0  0  0  0
    8.6771   -0.6359   25.5753 H   0  0  0  0  0  0  0  0  0  0  0  0
    9.5274   -1.9930   24.7653 H   0  0  0  0  0  0  0  0  0  0  0  0
    6.7854   -2.6212   22.8478 H   0  0  0  0  0  0  0  0  0  0  0  0
    5.9526   -1.0311   22.9310 H   0  0  0  0  0  0  0  0  0  0  0  0
    5.4774   -2.8834   24.8834 H   0  0  0  0  0  0  0  0  0  0  0  0
    4.7265    0.9502   27.6805 H   0  0  0  0  0  0  0  0  0  0  0  0
    6.3507    0.7390   28.3552 H   0  0  0  0  0  0  0  0  0  0  0  0
    6.1318    1.3368   26.6740 H   0  0  0  0  0  0  0  0  0  0  0  0
    5.5203    0.7683   24.3410 H   0  0  0  0  0  0  0  0  0  0  0  0
    4.4154   -0.5667   23.8687 H   0  0  0  0  0  0  0  0  0  0  0  0
    4.0495    0.4326   25.3158 H   0  0  0  0  0  0  0  0  0  0  0  0
    8.7698   -2.2472   22.1731 H   0  0  0  0  0  0  0  0  0  0  0  0
    6.8974   -1.6551   21.0612 H   0  0  0  0  0  0  0  0  0  0  0  0
    7.7811   -0.0340   23.7382 H   0  0  0  0  0  0  0  0  0  0  0  0
  1  2  1  0  0  0  0
  1  4  2  0  0  0  0
  2  5  2  0  0  0  0
  3  6  2  0  0  0  0
  3  7  1  0  0  0  0
  4 11  1  0  0  0  0
  5 12  1  0  0  0  0
  6 13  1  0  0  0  0
  7 15  2  0  0  0  0
  8 13  2  0  0  0  0
  8 15  1  0  0  0  0
  9 11  2  0  0  0  0
  9 25  1  0  0  0  0
 10 14  1  0  0  0  0
 10 25  2  0  0  0  0
 11 12  1  0  0  0  0
 12 14  2  0  0  0  0
 13 24  1  0  0  0  0
 14 26  1  0  0  0  0
 15 31  1  0  0  0  0
 16 22  1  0  0  0  0
 16 27  1  0  0  0  0
 16 29  2  0  0  0  0
 17 24  1  6  0  0  0
 17 26  1  0  0  0  0
 17 30  2  0  0  0  0
 18 19  1  0  0  0  0
 18 21  1  0  0  0  0
 19 28  1  6  0  0  0
 20 21  1  0  0  0  0
 20 28  1  0  0  0  0
 21 27  1  1  0  0  0
 23 27  1  0  0  0  0
 24 28  1  0  0  0  0
  1 32  1  0  0  0  0
  2 33  1  0  0  0  0
  3 34  1  0  0  0  0
  4 35  1  0  0  0  0
  5 36  1  0  0  0  0
  6 37  1  0  0  0  0
  7 38  1  0  0  0  0
  8 39  1  0  0  0  0
  9 40  1  0  0  0  0
 10 41  1  0  0  0  0
 18 42  1  0  0  0  0
 18 43  1  0  0  0  0
 19 44  1  0  0  0  0
 19 45  1  0  0  0  0
 20 46  1  0  0  0  0
 20 47  1  0  0  0  0
 21 48  1  0  0  0  0
 22 49  1  0  0  0  0
 22 50  1  0  0  0  0
 22 51  1  0  0  0  0
 23 52  1  0  0  0  0
 23 53  1  0  0  0  0
 23 54  1  0  0  0  0
 24 55  1  0  0  0  0
 26 56  1  0  0  0  0
 28 57  1  0  0  0  0
M  CHG  1  28   1
M  END
> <compound>
MIC-UNK-5a93dd5f-7

> <compound_smiles>
CC(=O)N(C)C1CCN(C1)C(c2cccc(c2)Cl)C(=O)Nc3cncc4c3cccc4

> <enantiomer_smiles>
CC(=O)N(C)[C@@H]1CC[N@](C1)[C@H](c2cccc(c2)Cl)C(=O)Nc3cncc4c3cccc4

> <scaffold>
chlorobenzene-linker

> <clash_score>
0

> <docking_score>
-10.2174072265625

> <overlap_score>
0.9777771830558777

> <MMFF_internal_energy>
189.69075774877

> <docked_smiles>
CC(=O)N(C)[C@@H]1CC[N@H+](C1)[C@H](c2cccc(c2)Cl)C(=O)Nc3cncc4c3cccc4

$$$$
MIC-UNK-5a93dd5f-7_4
  -OEChem-07262101023D

 57 60  0     1  0  0  0  0  0999 V2000
    3.4588    2.5719   20.0554 C   0  0  0  0  0  0  0  0  0  0  0  0
    4.0835    2.0505   21.1859 C   0  0  0  0  0  0  0  0  0  0  0  0
   11.9780    0.4600   23.9150 C   0  0  0  0  0  0  0  0  0  0  0  0
    3.8711    2.1742   18.7837 C   0  0  0  0  0  0  0  0  0  0  0  0
    5.1234    1.1291   21.0499 C   0  0  0  0  0  0  0  0  0  0  0  0
   10.6560    0.0720   23.7350 C   0  0  0  0  0  0  0  0  0  0  0  0
   12.9840   -0.1200   23.1530 C   0  0  0  0  0  0  0  0  0  0  0  0
   11.3360   -1.5050   22.0650 C   0  0  0  0  0  0  0  0  0  0  0  0
    5.3689    0.8151   17.3870 C   0  0  0  0  0  0  0  0  0  0  0  0
    6.9552   -0.5603   18.3181 C   0  0  0  0  0  0  0  0  0  0  0  0
    4.9163    1.2476   18.6351 C   0  0  0  0  0  0  0  0  0  0  0  0
    5.5514    0.7175   19.7772 C   0  0  0  0  0  0  0  0  0  0  0  0
   10.3220   -0.8940   22.7910 C   0  0  0  0  0  0  0  0  0  0  0  0
    6.5908   -0.2044   19.6077 C   0  0  0  0  0  0  0  0  0  0  0  0
   12.6400   -1.1000   22.2390 C   0  0  0  0  0  0  0  0  0  0  0  0
    8.9250   -5.2837   25.4193 C   0  0  0  0  0  0  0  0  0  0  0  0
    8.3880   -0.3240   21.3070 C   0  0  0  0  0  0  0  0  0  0  0  0
    7.1851   -4.2392   23.1475 C   0  0  0  0  0  0  0  0  0  0  0  0
    7.1911   -3.0609   22.1897 C   0  0  0  0  0  0  0  0  0  0  0  0
    9.4543   -3.5944   22.9499 C   0  0  0  0  0  0  0  0  0  0  0  0
    8.5771   -4.8302   23.0041 C   0  0  1  0  0  0  0  0  0  0  0  0
    8.6192   -6.3214   26.4702 C   0  0  0  0  0  0  0  0  0  0  0  0
    9.2916   -7.0768   23.7003 C   0  0  0  0  0  0  0  0  0  0  0  0
    8.8810   -1.1900   22.4510 C   0  0  1  0  0  0  0  0  0  0  0  0
    6.3708   -0.0740   17.2025 N   0  0  0  0  0  0  0  0  0  0  0  0
    7.2820   -0.7860   20.6970 N   0  0  0  0  0  0  0  0  0  0  0  0
    8.9284   -5.7078   24.0824 N   0  0  0  0  0  0  0  0  0  0  0  0
    8.6445   -2.6287   22.1110 N   0  3  2  0  0  0  0  0  0  0  0  0
    9.1562   -4.1231   25.7688 O   0  0  0  0  0  0  0  0  0  0  0  0
    8.9170    0.7530   21.0260 O   0  0  0  0  0  0  0  0  0  0  0  0
   13.8840   -1.8490   21.2740 Cl  0  0  0  0  0  0  0  0  0  0  0  0
    2.6499    3.2883   20.1641 H   0  0  0  0  0  0  0  0  0  0  0  0
    3.7607    2.3613   22.1754 H   0  0  0  0  0  0  0  0  0  0  0  0
   12.2249    1.2198   24.6546 H   0  0  0  0  0  0  0  0  0  0  0  0
    3.3723    2.5911   17.9118 H   0  0  0  0  0  0  0  0  0  0  0  0
    5.5866    0.7453   21.9560 H   0  0  0  0  0  0  0  0  0  0  0  0
    9.8763    0.5350   24.3454 H   0  0  0  0  0  0  0  0  0  0  0  0
   14.0077    0.1988   23.2842 H   0  0  0  0  0  0  0  0  0  0  0  0
   11.0892   -2.3009   21.3624 H   0  0  0  0  0  0  0  0  0  0  0  0
    4.9234    1.1835   16.4670 H   0  0  0  0  0  0  0  0  0  0  0  0
    7.7549   -1.2720   18.1337 H   0  0  0  0  0  0  0  0  0  0  0  0
    6.9476   -3.9384   24.1745 H   0  0  0  0  0  0  0  0  0  0  0  0
    6.4303   -4.9731   22.8341 H   0  0  0  0  0  0  0  0  0  0  0  0
    6.8528   -3.3153   21.1769 H   0  0  0  0  0  0  0  0  0  0  0  0
    6.6044   -2.2166   22.5792 H   0  0  0  0  0  0  0  0  0  0  0  0
    9.6762   -3.1551   23.9213 H   0  0  0  0  0  0  0  0  0  0  0  0
   10.3764   -3.7808   22.3991 H   0  0  0  0  0  0  0  0  0  0  0  0
    8.6636   -5.4150   22.0746 H   0  0  0  0  0  0  0  0  0  0  0  0
    9.5508   -6.7940   26.7967 H   0  0  0  0  0  0  0  0  0  0  0  0
    8.1524   -5.8524   27.3405 H   0  0  0  0  0  0  0  0  0  0  0  0
    7.9702   -7.0983   26.0574 H   0  0  0  0  0  0  0  0  0  0  0  0
    8.3904   -7.7075   23.6935 H   0  0  0  0  0  0  0  0  0  0  0  0
    9.7418   -7.0700   22.6967 H   0  0  0  0  0  0  0  0  0  0  0  0
   10.0154   -7.4796   24.4241 H   0  0  0  0  0  0  0  0  0  0  0  0
    8.2445   -1.0188   23.3300 H   0  0  0  0  0  0  0  0  0  0  0  0
    6.8974   -1.6551   21.0612 H   0  0  0  0  0  0  0  0  0  0  0  0
    8.9439   -2.7587   21.1355 H   0  0  0  0  0  0  0  0  0  0  0  0
  1  2  1  0  0  0  0
  1  4  2  0  0  0  0
  2  5  2  0  0  0  0
  3  6  2  0  0  0  0
  3  7  1  0  0  0  0
  4 11  1  0  0  0  0
  5 12  1  0  0  0  0
  6 13  1  0  0  0  0
  7 15  2  0  0  0  0
  8 13  2  0  0  0  0
  8 15  1  0  0  0  0
  9 11  2  0  0  0  0
  9 25  1  0  0  0  0
 10 14  1  0  0  0  0
 10 25  2  0  0  0  0
 11 12  1  0  0  0  0
 12 14  2  0  0  0  0
 13 24  1  0  0  0  0
 14 26  1  0  0  0  0
 15 31  1  0  0  0  0
 16 22  1  0  0  0  0
 16 27  1  0  0  0  0
 16 29  2  0  0  0  0
 17 24  1  1  0  0  0
 17 26  1  0  0  0  0
 17 30  2  0  0  0  0
 18 19  1  0  0  0  0
 18 21  1  0  0  0  0
 19 28  1  6  0  0  0
 20 21  1  0  0  0  0
 20 28  1  0  0  0  0
 21 27  1  6  0  0  0
 23 27  1  0  0  0  0
 24 28  1  0  0  0  0
  1 32  1  0  0  0  0
  2 33  1  0  0  0  0
  3 34  1  0  0  0  0
  4 35  1  0  0  0  0
  5 36  1  0  0  0  0
  6 37  1  0  0  0  0
  7 38  1  0  0  0  0
  8 39  1  0  0  0  0
  9 40  1  0  0  0  0
 10 41  1  0  0  0  0
 18 42  1  0  0  0  0
 18 43  1  0  0  0  0
 19 44  1  0  0  0  0
 19 45  1  0  0  0  0
 20 46  1  0  0  0  0
 20 47  1  0  0  0  0
 21 48  1  0  0  0  0
 22 49  1  0  0  0  0
 22 50  1  0  0  0  0
 22 51  1  0  0  0  0
 23 52  1  0  0  0  0
 23 53  1  0  0  0  0
 23 54  1  0  0  0  0
 24 55  1  0  0  0  0
 26 56  1  0  0  0  0
 28 57  1  0  0  0  0
M  CHG  1  28   1
M  END
> <compound>
MIC-UNK-5a93dd5f-7

> <compound_smiles>
CC(=O)N(C)C1CCN(C1)C(c2cccc(c2)Cl)C(=O)Nc3cncc4c3cccc4

> <enantiomer_smiles>
CC(=O)N(C)[C@H]1CC[N@](C1)[C@@H](c2cccc(c2)Cl)C(=O)Nc3cncc4c3cccc4

> <scaffold>
chlorobenzene-linker

> <clash_score>
0

> <docking_score>
-8.793265342712402

> <overlap_score>
0.9783492088317871

> <MMFF_internal_energy>
196.26621833408896

> <docked_smiles>
CC(=O)N(C)[C@H]1CC[N@H+](C1)[C@@H](c2cccc(c2)Cl)C(=O)Nc3cncc4c3cccc4

$$$$
MIC-UNK-5a93dd5f-12_1
  -OEChem-07262101023D

 62 66  0     1  0  0  0  0  0999 V2000
    4.8854    3.6419   19.7205 C   0  0  0  0  0  0  0  0  0  0  0  0
    5.5494    3.1500   20.8419 C   0  0  0  0  0  0  0  0  0  0  0  0
   11.9780    0.4600   23.9150 C   0  0  0  0  0  0  0  0  0  0  0  0
    4.7878    2.8619   18.5685 C   0  0  0  0  0  0  0  0  0  0  0  0
    6.1189    1.8757   20.8162 C   0  0  0  0  0  0  0  0  0  0  0  0
   10.6560    0.0720   23.7350 C   0  0  0  0  0  0  0  0  0  0  0  0
   12.9840   -0.1200   23.1530 C   0  0  0  0  0  0  0  0  0  0  0  0
   11.3360   -1.5050   22.0650 C   0  0  0  0  0  0  0  0  0  0  0  0
    5.2893    0.7552   17.4056 C   0  0  0  0  0  0  0  0  0  0  0  0
    6.4602   -0.9317   18.4342 C   0  0  0  0  0  0  0  0  0  0  0  0
    5.3570    1.5782   18.5316 C   0  0  0  0  0  0  0  0  0  0  0  0
    6.0301    1.0765   19.6647 C   0  0  0  0  0  0  0  0  0  0  0  0
   10.3220   -0.8940   22.7910 C   0  0  0  0  0  0  0  0  0  0  0  0
    6.5904   -0.2048   19.6077 C   0  0  0  0  0  0  0  0  0  0  0  0
   12.6400   -1.1000   22.2390 C   0  0  0  0  0  0  0  0  0  0  0  0
    8.3880   -0.3240   21.3070 C   0  0  0  0  0  0  0  0  0  0  0  0
    2.6054   -0.3333   25.9048 C   0  0  0  0  0  0  0  0  0  0  0  0
    3.6808   -0.9263   26.8090 C   0  0  0  0  0  0  0  0  0  0  0  0
    3.1120   -0.1488   24.4783 C   0  0  0  0  0  0  0  0  0  0  0  0
    7.1338   -1.9440   25.5904 C   0  0  0  0  0  0  0  0  0  0  0  0
    8.4031   -1.8399   24.7437 C   0  0  0  0  0  0  0  0  0  0  0  0
    6.6215   -1.2671   23.3428 C   0  0  0  0  0  0  0  0  0  0  0  0
    4.2552   -2.2131   26.2335 C   0  0  0  0  0  0  0  0  0  0  0  0
    3.6891   -1.4390   23.9131 C   0  0  0  0  0  0  0  0  0  0  0  0
    6.0632   -1.2607   24.7518 C   0  0  1  0  0  0  0  0  0  0  0  0
    8.8810   -1.1900   22.4510 C   0  0  1  0  0  0  0  0  0  0  0  0
    5.8238   -0.4845   17.3307 N   0  0  0  0  0  0  0  0  0  0  0  0
    8.0318   -0.9796   23.6152 N   0  0  2  0  0  0  0  0  0  0  0  0
    7.2820   -0.7860   20.6970 N   0  0  0  0  0  0  0  0  0  0  0  0
    4.7539   -1.9990   24.8249 N   0  3  0  0  0  0  0  0  0  0  0  0
    8.9170    0.7530   21.0260 O   0  0  0  0  0  0  0  0  0  0  0  0
   13.8840   -1.8490   21.2740 Cl  0  0  0  0  0  0  0  0  0  0  0  0
    4.4431    4.6335   19.7433 H   0  0  0  0  0  0  0  0  0  0  0  0
    5.6240    3.7591   21.7382 H   0  0  0  0  0  0  0  0  0  0  0  0
   12.2249    1.2198   24.6546 H   0  0  0  0  0  0  0  0  0  0  0  0
    4.2658    3.2613   17.7021 H   0  0  0  0  0  0  0  0  0  0  0  0
    6.6295    1.5271   21.7110 H   0  0  0  0  0  0  0  0  0  0  0  0
    9.8763    0.5350   24.3454 H   0  0  0  0  0  0  0  0  0  0  0  0
   14.0077    0.1988   23.2842 H   0  0  0  0  0  0  0  0  0  0  0  0
   11.0892   -2.3008   21.3624 H   0  0  0  0  0  0  0  0  0  0  0  0
    4.7855    1.0801   16.4994 H   0  0  0  0  0  0  0  0  0  0  0  0
    6.8767   -1.9306   18.3399 H   0  0  0  0  0  0  0  0  0  0  0  0
    1.7217   -0.9835   25.9035 H   0  0  0  0  0  0  0  0  0  0  0  0
    2.2853    0.6374   26.3068 H   0  0  0  0  0  0  0  0  0  0  0  0
    4.4862   -0.1960   26.9471 H   0  0  0  0  0  0  0  0  0  0  0  0
    3.2588   -1.1236   27.8024 H   0  0  0  0  0  0  0  0  0  0  0  0
    2.2913    0.1985   23.8383 H   0  0  0  0  0  0  0  0  0  0  0  0
    3.8793    0.6335   24.4608 H   0  0  0  0  0  0  0  0  0  0  0  0
    6.9039   -2.9976   25.7882 H   0  0  0  0  0  0  0  0  0  0  0  0
    7.2498   -1.4373   26.5546 H   0  0  0  0  0  0  0  0  0  0  0  0
    9.2323   -1.4097   25.3142 H   0  0  0  0  0  0  0  0  0  0  0  0
    8.6978   -2.8439   24.4130 H   0  0  0  0  0  0  0  0  0  0  0  0
    6.4960   -2.2451   22.8599 H   0  0  0  0  0  0  0  0  0  0  0  0
    6.1578   -0.4965   22.7186 H   0  0  0  0  0  0  0  0  0  0  0  0
    5.1021   -2.5853   26.8331 H   0  0  0  0  0  0  0  0  0  0  0  0
    3.4820   -2.9963   26.1934 H   0  0  0  0  0  0  0  0  0  0  0  0
    2.9023   -2.2037   23.8173 H   0  0  0  0  0  0  0  0  0  0  0  0
    4.1483   -1.2807   22.9236 H   0  0  0  0  0  0  0  0  0  0  0  0
    5.8782   -0.2403   25.1082 H   0  0  0  0  0  0  0  0  0  0  0  0
    8.7711   -2.2448   22.1651 H   0  0  0  0  0  0  0  0  0  0  0  0
    6.8975   -1.6551   21.0614 H   0  0  0  0  0  0  0  0  0  0  0  0
    4.9647   -2.9697   24.4496 H   0  0  0  0  0  0  0  0  0  0  0  0
  1  2  1  0  0  0  0
  1  4  2  0  0  0  0
  2  5  2  0  0  0  0
  3  6  2  0  0  0  0
  3  7  1  0  0  0  0
  4 11  1  0  0  0  0
  5 12  1  0  0  0  0
  6 13  1  0  0  0  0
  7 15  2  0  0  0  0
  8 13  2  0  0  0  0
  8 15  1  0  0  0  0
  9 11  2  0  0  0  0
  9 27  1  0  0  0  0
 10 14  1  0  0  0  0
 10 27  2  0  0  0  0
 11 12  1  0  0  0  0
 12 14  2  0  0  0  0
 13 26  1  0  0  0  0
 14 29  1  0  0  0  0
 15 32  1  0  0  0  0
 16 26  1  1  0  0  0
 16 29  1  0  0  0  0
 16 31  2  0  0  0  0
 17 18  1  0  0  0  0
 17 19  1  0  0  0  0
 18 23  1  0  0  0  0
 19 24  1  0  0  0  0
 20 21  1  0  0  0  0
 20 25  1  0  0  0  0
 21 28  1  0  0  0  0
 22 25  1  0  0  0  0
 22 28  1  1  0  0  0
 23 30  1  0  0  0  0
 24 30  1  0  0  0  0
 25 30  1  1  0  0  0
 26 28  1  0  0  0  0
  1 33  1  0  0  0  0
  2 34  1  0  0  0  0
  3 35  1  0  0  0  0
  4 36  1  0  0  0  0
  5 37  1  0  0  0  0
  6 38  1  0  0  0  0
  7 39  1  0  0  0  0
  8 40  1  0  0  0  0
  9 41  1  0  0  0  0
 10 42  1  0  0  0  0
 17 43  1  0  0  0  0
 17 44  1  0  0  0  0
 18 45  1  0  0  0  0
 18 46  1  0  0  0  0
 19 47  1  0  0  0  0
 19 48  1  0  0  0  0
 20 49  1  0  0  0  0
 20 50  1  0  0  0  0
 21 51  1  0  0  0  0
 21 52  1  0  0  0  0
 22 53  1  0  0  0  0
 22 54  1  0  0  0  0
 23 55  1  0  0  0  0
 23 56  1  0  0  0  0
 24 57  1  0  0  0  0
 24 58  1  0  0  0  0
 25 59  1  0  0  0  0
 26 60  1  0  0  0  0
 29 61  1  0  0  0  0
 30 62  1  0  0  0  0
M  CHG  1  30   1
M  END
> <compound>
MIC-UNK-5a93dd5f-12

> <compound_smiles>
c1ccc2c(c1)cncc2NC(=O)C(c3cccc(c3)Cl)N4CCC(C4)N5CCCCC5

> <enantiomer_smiles>
c1ccc2c(c1)cncc2NC(=O)[C@@H](c3cccc(c3)Cl)[N@@]4CC[C@@H](C4)N5CCCCC5

> <scaffold>
chlorobenzene-linker

> <clash_score>
2.681653022504748

> <docking_score>
-2.741710662841797

> <overlap_score>
0.8383598923683167

> <MMFF_internal_energy>
200.04119117218377

> <docked_smiles>
c1ccc2c(c1)cncc2NC(=O)[C@@H](c3cccc(c3)Cl)[N@@]4CC[C@@H](C4)[NH+]5CCCCC5

$$$$
MIC-UNK-5a93dd5f-10_2
  -OEChem-07262101023D

 54 57  0     1  0  0  0  0  0999 V2000
    4.8867    3.6427   19.7211 C   0  0  0  0  0  0  0  0  0  0  0  0
    5.5503    3.1504   20.8424 C   0  0  0  0  0  0  0  0  0  0  0  0
   11.9780    0.4600   23.9150 C   0  0  0  0  0  0  0  0  0  0  0  0
    4.7892    2.8630   18.5689 C   0  0  0  0  0  0  0  0  0  0  0  0
    6.1195    1.8760   20.8166 C   0  0  0  0  0  0  0  0  0  0  0  0
   10.6560    0.0720   23.7350 C   0  0  0  0  0  0  0  0  0  0  0  0
   12.9840   -0.1200   23.1530 C   0  0  0  0  0  0  0  0  0  0  0  0
   11.3360   -1.5050   22.0650 C   0  0  0  0  0  0  0  0  0  0  0  0
    5.2903    0.7565   17.4056 C   0  0  0  0  0  0  0  0  0  0  0  0
    6.4606   -0.9310   18.4340 C   0  0  0  0  0  0  0  0  0  0  0  0
    5.3581    1.5791   18.5317 C   0  0  0  0  0  0  0  0  0  0  0  0
    6.0308    1.0771   19.6649 C   0  0  0  0  0  0  0  0  0  0  0  0
   10.3220   -0.8940   22.7910 C   0  0  0  0  0  0  0  0  0  0  0  0
    6.5908   -0.2044   19.6077 C   0  0  0  0  0  0  0  0  0  0  0  0
   12.6400   -1.1000   22.2390 C   0  0  0  0  0  0  0  0  0  0  0  0
    5.7962   -4.3865   24.9643 C   0  0  0  0  0  0  0  0  0  0  0  0
    8.3880   -0.3240   21.3070 C   0  0  0  0  0  0  0  0  0  0  0  0
    8.0052   -3.3291   24.6209 C   0  0  0  0  0  0  0  0  0  0  0  0
    6.1613   -2.6840   23.1117 C   0  0  0  0  0  0  0  0  0  0  0  0
    8.3675   -1.8667   24.8344 C   0  0  0  0  0  0  0  0  0  0  0  0
    6.5005   -1.2117   23.3026 C   0  0  0  0  0  0  0  0  0  0  0  0
    6.4871   -5.6065   25.5195 C   0  0  0  0  0  0  0  0  0  0  0  0
    8.8810   -1.1900   22.4510 C   0  0  2  0  0  0  0  0  0  0  0  0
    5.8245   -0.4834   17.3305 N   0  0  0  0  0  0  0  0  0  0  0  0
    6.5936   -3.4798   24.2660 N   0  0  0  0  0  0  0  0  0  0  0  0
    7.2820   -0.7860   20.6970 N   0  0  0  0  0  0  0  0  0  0  0  0
    7.9638   -1.0391   23.6364 N   0  3  0  0  0  0  0  0  0  0  0  0
    4.5838   -4.2466   25.1446 O   0  0  0  0  0  0  0  0  0  0  0  0
    8.9170    0.7530   21.0260 O   0  0  0  0  0  0  0  0  0  0  0  0
   13.8840   -1.8490   21.2740 Cl  0  0  0  0  0  0  0  0  0  0  0  0
    4.4446    4.6344   19.7440 H   0  0  0  0  0  0  0  0  0  0  0  0
    5.6249    3.7592   21.7389 H   0  0  0  0  0  0  0  0  0  0  0  0
   12.2249    1.2198   24.6546 H   0  0  0  0  0  0  0  0  0  0  0  0
    4.2674    3.2627   17.7024 H   0  0  0  0  0  0  0  0  0  0  0  0
    6.6299    1.5271   21.7114 H   0  0  0  0  0  0  0  0  0  0  0  0
    9.8763    0.5350   24.3454 H   0  0  0  0  0  0  0  0  0  0  0  0
   14.0077    0.1988   23.2842 H   0  0  0  0  0  0  0  0  0  0  0  0
   11.0892   -2.3009   21.3624 H   0  0  0  0  0  0  0  0  0  0  0  0
    4.7868    1.0816   16.4993 H   0  0  0  0  0  0  0  0  0  0  0  0
    6.8769   -1.9300   18.3396 H   0  0  0  0  0  0  0  0  0  0  0  0
    8.6483   -3.7552   23.8433 H   0  0  0  0  0  0  0  0  0  0  0  0
    8.1780   -3.9096   25.5363 H   0  0  0  0  0  0  0  0  0  0  0  0
    5.0769   -2.8200   23.0112 H   0  0  0  0  0  0  0  0  0  0  0  0
    6.6130   -3.0369   22.1820 H   0  0  0  0  0  0  0  0  0  0  0  0
    7.8330   -1.4598   25.7071 H   0  0  0  0  0  0  0  0  0  0  0  0
    9.4509   -1.7304   24.9876 H   0  0  0  0  0  0  0  0  0  0  0  0
    6.2909   -0.6221   22.3947 H   0  0  0  0  0  0  0  0  0  0  0  0
    5.9231   -0.7887   24.1397 H   0  0  0  0  0  0  0  0  0  0  0  0
    6.8398   -5.3891   26.5223 H   0  0  0  0  0  0  0  0  0  0  0  0
    7.3250   -5.8628   24.8791 H   0  0  0  0  0  0  0  0  0  0  0  0
    5.7835   -6.4324   25.5445 H   0  0  0  0  0  0  0  0  0  0  0  0
    8.7698   -2.2472   22.1731 H   0  0  0  0  0  0  0  0  0  0  0  0
    6.8974   -1.6551   21.0612 H   0  0  0  0  0  0  0  0  0  0  0  0
    8.0693   -0.0280   23.9392 H   0  0  0  0  0  0  0  0  0  0  0  0
  1  2  1  0  0  0  0
  1  4  2  0  0  0  0
  2  5  2  0  0  0  0
  3  6  2  0  0  0  0
  3  7  1  0  0  0  0
  4 11  1  0  0  0  0
  5 12  1  0  0  0  0
  6 13  1  0  0  0  0
  7 15  2  0  0  0  0
  8 13  2  0  0  0  0
  8 15  1  0  0  0  0
  9 11  2  0  0  0  0
  9 24  1  0  0  0  0
 10 14  1  0  0  0  0
 10 24  2  0  0  0  0
 11 12  1  0  0  0  0
 12 14  2  0  0  0  0
 13 23  1  0  0  0  0
 14 26  1  0  0  0  0
 15 30  1  0  0  0  0
 16 22  1  0  0  0  0
 16 25  1  0  0  0  0
 16 28  2  0  0  0  0
 17 23  1  6  0  0  0
 17 26  1  0  0  0  0
 17 29  2  0  0  0  0
 18 20  1  0  0  0  0
 18 25  1  0  0  0  0
 19 21  1  0  0  0  0
 19 25  1  0  0  0  0
 20 27  1  0  0  0  0
 21 27  1  0  0  0  0
 23 27  1  0  0  0  0
  1 31  1  0  0  0  0
  2 32  1  0  0  0  0
  3 33  1  0  0  0  0
  4 34  1  0  0  0  0
  5 35  1  0  0  0  0
  6 36  1  0  0  0  0
  7 37  1  0  0  0  0
  8 38  1  0  0  0  0
  9 39  1  0  0  0  0
 10 40  1  0  0  0  0
 18 41  1  0  0  0  0
 18 42  1  0  0  0  0
 19 43  1  0  0  0  0
 19 44  1  0  0  0  0
 20 45  1  0  0  0  0
 20 46  1  0  0  0  0
 21 47  1  0  0  0  0
 21 48  1  0  0  0  0
 22 49  1  0  0  0  0
 22 50  1  0  0  0  0
 22 51  1  0  0  0  0
 23 52  1  0  0  0  0
 26 53  1  0  0  0  0
 27 54  1  0  0  0  0
M  CHG  1  27   1
M  END
> <compound>
MIC-UNK-5a93dd5f-10

> <compound_smiles>
CC(=O)N1CCN(CC1)C(c2cccc(c2)Cl)C(=O)Nc3cncc4c3cccc4

> <enantiomer_smiles>
CC(=O)N1CCN(CC1)[C@H](c2cccc(c2)Cl)C(=O)Nc3cncc4c3cccc4

> <scaffold>
chlorobenzene-linker

> <clash_score>
0.6532360200676584

> <docking_score>
-5.196829319000244

> <overlap_score>
0.8409225344657898

> <MMFF_internal_energy>
230.78253658986426

> <docked_smiles>
CC(=O)N1CC[NH+](CC1)[C@H](c2cccc(c2)Cl)C(=O)Nc3cncc4c3cccc4

$$$$
MIC-UNK-5a93dd5f-10_1
  -OEChem-07262101023D

 54 57  0     1  0  0  0  0  0999 V2000
    3.4588    2.5718   20.0554 C   0  0  0  0  0  0  0  0  0  0  0  0
    4.0835    2.0505   21.1859 C   0  0  0  0  0  0  0  0  0  0  0  0
   11.9780    0.4600   23.9150 C   0  0  0  0  0  0  0  0  0  0  0  0
    3.8711    2.1742   18.7837 C   0  0  0  0  0  0  0  0  0  0  0  0
    5.1234    1.1291   21.0499 C   0  0  0  0  0  0  0  0  0  0  0  0
   10.6560    0.0720   23.7350 C   0  0  0  0  0  0  0  0  0  0  0  0
   12.9840   -0.1200   23.1530 C   0  0  0  0  0  0  0  0  0  0  0  0
   11.3360   -1.5050   22.0650 C   0  0  0  0  0  0  0  0  0  0  0  0
    5.3689    0.8151   17.3870 C   0  0  0  0  0  0  0  0  0  0  0  0
    6.9552   -0.5603   18.3181 C   0  0  0  0  0  0  0  0  0  0  0  0
    4.9163    1.2476   18.6351 C   0  0  0  0  0  0  0  0  0  0  0  0
    5.5514    0.7175   19.7772 C   0  0  0  0  0  0  0  0  0  0  0  0
   10.3220   -0.8940   22.7910 C   0  0  0  0  0  0  0  0  0  0  0  0
    6.5908   -0.2044   19.6077 C   0  0  0  0  0  0  0  0  0  0  0  0
   12.6400   -1.1000   22.2390 C   0  0  0  0  0  0  0  0  0  0  0  0
   10.0549   -6.3970   20.9567 C   0  0  0  0  0  0  0  0  0  0  0  0
    8.3880   -0.3240   21.3070 C   0  0  0  0  0  0  0  0  0  0  0  0
    9.0070   -5.0039   22.7124 C   0  0  0  0  0  0  0  0  0  0  0  0
    8.6216   -4.3830   20.3588 C   0  0  0  0  0  0  0  0  0  0  0  0
    9.3715   -3.5664   23.0534 C   0  0  0  0  0  0  0  0  0  0  0  0
    8.9788   -2.9348   20.6651 C   0  0  0  0  0  0  0  0  0  0  0  0
   10.8601   -6.2818   19.6870 C   0  0  0  0  0  0  0  0  0  0  0  0
    8.8810   -1.1900   22.4510 C   0  0  1  0  0  0  0  0  0  0  0  0
    6.3708   -0.0740   17.2025 N   0  0  0  0  0  0  0  0  0  0  0  0
    9.2756   -5.2944   21.3040 N   0  0  0  0  0  0  0  0  0  0  0  0
    7.2820   -0.7860   20.6970 N   0  0  0  0  0  0  0  0  0  0  0  0
    8.6433   -2.6361   22.1092 N   0  3  0  0  0  0  0  0  0  0  0  0
   10.1200   -7.4353   21.6198 O   0  0  0  0  0  0  0  0  0  0  0  0
    8.9170    0.7530   21.0260 O   0  0  0  0  0  0  0  0  0  0  0  0
   13.8840   -1.8490   21.2740 Cl  0  0  0  0  0  0  0  0  0  0  0  0
    2.6499    3.2883   20.1641 H   0  0  0  0  0  0  0  0  0  0  0  0
    3.7607    2.3613   22.1754 H   0  0  0  0  0  0  0  0  0  0  0  0
   12.2249    1.2198   24.6546 H   0  0  0  0  0  0  0  0  0  0  0  0
    3.3723    2.5910   17.9118 H   0  0  0  0  0  0  0  0  0  0  0  0
    5.5866    0.7453   21.9560 H   0  0  0  0  0  0  0  0  0  0  0  0
    9.8763    0.5350   24.3454 H   0  0  0  0  0  0  0  0  0  0  0  0
   14.0077    0.1988   23.2842 H   0  0  0  0  0  0  0  0  0  0  0  0
   11.0892   -2.3009   21.3624 H   0  0  0  0  0  0  0  0  0  0  0  0
    4.9234    1.1835   16.4670 H   0  0  0  0  0  0  0  0  0  0  0  0
    7.7549   -1.2720   18.1337 H   0  0  0  0  0  0  0  0  0  0  0  0
    9.5635   -5.6862   23.3626 H   0  0  0  0  0  0  0  0  0  0  0  0
    7.9398   -5.1861   22.8884 H   0  0  0  0  0  0  0  0  0  0  0  0
    7.5401   -4.5410   20.4502 H   0  0  0  0  0  0  0  0  0  0  0  0
    8.8907   -4.6064   19.3251 H   0  0  0  0  0  0  0  0  0  0  0  0
    9.0502   -3.3169   24.0698 H   0  0  0  0  0  0  0  0  0  0  0  0
   10.4461   -3.3790   22.9490 H   0  0  0  0  0  0  0  0  0  0  0  0
   10.0464   -2.7357   20.5193 H   0  0  0  0  0  0  0  0  0  0  0  0
    8.3881   -2.2524   20.0453 H   0  0  0  0  0  0  0  0  0  0  0  0
   11.8351   -5.8674   19.9214 H   0  0  0  0  0  0  0  0  0  0  0  0
   10.3379   -5.6313   18.9927 H   0  0  0  0  0  0  0  0  0  0  0  0
   10.9720   -7.2674   19.2469 H   0  0  0  0  0  0  0  0  0  0  0  0
    8.2445   -1.0188   23.3300 H   0  0  0  0  0  0  0  0  0  0  0  0
    6.8974   -1.6551   21.0612 H   0  0  0  0  0  0  0  0  0  0  0  0
    7.6346   -2.8016   22.2306 H   0  0  0  0  0  0  0  0  0  0  0  0
  1  2  1  0  0  0  0
  1  4  2  0  0  0  0
  2  5  2  0  0  0  0
  3  6  2  0  0  0  0
  3  7  1  0  0  0  0
  4 11  1  0  0  0  0
  5 12  1  0  0  0  0
  6 13  1  0  0  0  0
  7 15  2  0  0  0  0
  8 13  2  0  0  0  0
  8 15  1  0  0  0  0
  9 11  2  0  0  0  0
  9 24  1  0  0  0  0
 10 14  1  0  0  0  0
 10 24  2  0  0  0  0
 11 12  1  0  0  0  0
 12 14  2  0  0  0  0
 13 23  1  0  0  0  0
 14 26  1  0  0  0  0
 15 30  1  0  0  0  0
 16 22  1  0  0  0  0
 16 25  1  0  0  0  0
 16 28  2  0  0  0  0
 17 23  1  1  0  0  0
 17 26  1  0  0  0  0
 17 29  2  0  0  0  0
 18 20  1  0  0  0  0
 18 25  1  0  0  0  0
 19 21  1  0  0  0  0
 19 25  1  0  0  0  0
 20 27  1  0  0  0  0
 21 27  1  0  0  0  0
 23 27  1  0  0  0  0
  1 31  1  0  0  0  0
  2 32  1  0  0  0  0
  3 33  1  0  0  0  0
  4 34  1  0  0  0  0
  5 35  1  0  0  0  0
  6 36  1  0  0  0  0
  7 37  1  0  0  0  0
  8 38  1  0  0  0  0
  9 39  1  0  0  0  0
 10 40  1  0  0  0  0
 18 41  1  0  0  0  0
 18 42  1  0  0  0  0
 19 43  1  0  0  0  0
 19 44  1  0  0  0  0
 20 45  1  0  0  0  0
 20 46  1  0  0  0  0
 21 47  1  0  0  0  0
 21 48  1  0  0  0  0
 22 49  1  0  0  0  0
 22 50  1  0  0  0  0
 22 51  1  0  0  0  0
 23 52  1  0  0  0  0
 26 53  1  0  0  0  0
 27 54  1  0  0  0  0
M  CHG  1  27   1
M  END
> <compound>
MIC-UNK-5a93dd5f-10

> <compound_smiles>
CC(=O)N1CCN(CC1)C(c2cccc(c2)Cl)C(=O)Nc3cncc4c3cccc4

> <enantiomer_smiles>
CC(=O)N1CCN(CC1)[C@@H](c2cccc(c2)Cl)C(=O)Nc3cncc4c3cccc4

> <scaffold>
chlorobenzene-linker

> <clash_score>
4.8796285249287905

> <docking_score>
-3.913654327392578

> <overlap_score>
0.9816785454750061

> <MMFF_internal_energy>
263.5182084982723

> <docked_smiles>
CC(=O)N1CC[NH+](CC1)[C@@H](c2cccc(c2)Cl)C(=O)Nc3cncc4c3cccc4

$$$$
MIC-UNK-5a93dd5f-11_1
  -OEChem-07262101023D

 66 70  0     1  0  0  0  0  0999 V2000
    4.8867    3.6427   19.7210 C   0  0  0  0  0  0  0  0  0  0  0  0
    5.5503    3.1504   20.8424 C   0  0  0  0  0  0  0  0  0  0  0  0
   11.9780    0.4600   23.9150 C   0  0  0  0  0  0  0  0  0  0  0  0
    4.7892    2.8630   18.5689 C   0  0  0  0  0  0  0  0  0  0  0  0
    6.1195    1.8760   20.8166 C   0  0  0  0  0  0  0  0  0  0  0  0
   10.6560    0.0720   23.7350 C   0  0  0  0  0  0  0  0  0  0  0  0
   12.9840   -0.1200   23.1530 C   0  0  0  0  0  0  0  0  0  0  0  0
   11.3360   -1.5050   22.0650 C   0  0  0  0  0  0  0  0  0  0  0  0
    5.2903    0.7565   17.4056 C   0  0  0  0  0  0  0  0  0  0  0  0
    6.4607   -0.9310   18.4340 C   0  0  0  0  0  0  0  0  0  0  0  0
    5.3581    1.5791   18.5317 C   0  0  0  0  0  0  0  0  0  0  0  0
    6.0308    1.0771   19.6649 C   0  0  0  0  0  0  0  0  0  0  0  0
   10.3220   -0.8940   22.7910 C   0  0  0  0  0  0  0  0  0  0  0  0
    6.5908   -0.2044   19.6077 C   0  0  0  0  0  0  0  0  0  0  0  0
   12.6400   -1.1000   22.2390 C   0  0  0  0  0  0  0  0  0  0  0  0
    8.3880   -0.3240   21.3070 C   0  0  0  0  0  0  0  0  0  0  0  0
    5.2193   -7.2801   22.5897 C   0  0  0  0  0  0  0  0  0  0  0  0
    4.7069   -6.8414   23.9573 C   0  0  0  0  0  0  0  0  0  0  0  0
    6.6599   -6.8311   22.3696 C   0  0  0  0  0  0  0  0  0  0  0  0
    8.0492   -3.3330   24.6252 C   0  0  0  0  0  0  0  0  0  0  0  0
    6.1568   -2.6741   23.0818 C   0  0  0  0  0  0  0  0  0  0  0  0
    4.8770   -5.3438   24.1690 C   0  0  0  0  0  0  0  0  0  0  0  0
    6.8232   -5.3337   22.5873 C   0  0  0  0  0  0  0  0  0  0  0  0
    8.3818   -1.8611   24.8331 C   0  0  0  0  0  0  0  0  0  0  0  0
    6.5006   -1.2063   23.2996 C   0  0  0  0  0  0  0  0  0  0  0  0
    6.5747   -3.5202   24.2807 C   0  0  0  0  0  0  0  0  0  0  0  0
    8.8810   -1.1900   22.4510 C   0  0  1  0  0  0  0  0  0  0  0  0
    5.8245   -0.4834   17.3305 N   0  0  0  0  0  0  0  0  0  0  0  0
    7.2820   -0.7860   20.6970 N   0  0  0  0  0  0  0  0  0  0  0  0
    6.3264   -4.9698   23.9664 N   0  3  0  0  0  0  0  0  0  0  0  0
    7.9633   -1.0390   23.6370 N   0  3  0  0  0  0  0  0  0  0  0  0
    8.9170    0.7530   21.0260 O   0  0  0  0  0  0  0  0  0  0  0  0
   13.8840   -1.8490   21.2740 Cl  0  0  0  0  0  0  0  0  0  0  0  0
    4.4446    4.6345   19.7440 H   0  0  0  0  0  0  0  0  0  0  0  0
    5.6249    3.7592   21.7389 H   0  0  0  0  0  0  0  0  0  0  0  0
   12.2249    1.2198   24.6546 H   0  0  0  0  0  0  0  0  0  0  0  0
    4.2675    3.2627   17.7024 H   0  0  0  0  0  0  0  0  0  0  0  0
    6.6299    1.5271   21.7114 H   0  0  0  0  0  0  0  0  0  0  0  0
    9.8763    0.5350   24.3454 H   0  0  0  0  0  0  0  0  0  0  0  0
   14.0077    0.1988   23.2842 H   0  0  0  0  0  0  0  0  0  0  0  0
   11.0892   -2.3009   21.3624 H   0  0  0  0  0  0  0  0  0  0  0  0
    4.7868    1.0816   16.4993 H   0  0  0  0  0  0  0  0  0  0  0  0
    6.8769   -1.9300   18.3396 H   0  0  0  0  0  0  0  0  0  0  0  0
    5.1524   -8.3701   22.5002 H   0  0  0  0  0  0  0  0  0  0  0  0
    4.5804   -6.8539   21.8065 H   0  0  0  0  0  0  0  0  0  0  0  0
    3.6480   -7.1064   24.0535 H   0  0  0  0  0  0  0  0  0  0  0  0
    5.2426   -7.3875   24.7437 H   0  0  0  0  0  0  0  0  0  0  0  0
    7.3238   -7.3768   23.0517 H   0  0  0  0  0  0  0  0  0  0  0  0
    6.9720   -7.0889   21.3512 H   0  0  0  0  0  0  0  0  0  0  0  0
    8.6822   -3.7483   23.8443 H   0  0  0  0  0  0  0  0  0  0  0  0
    8.2684   -3.8786   25.5424 H   0  0  0  0  0  0  0  0  0  0  0  0
    5.0804   -2.7687   22.9427 H   0  0  0  0  0  0  0  0  0  0  0  0
    6.6329   -3.0341   22.1727 H   0  0  0  0  0  0  0  0  0  0  0  0
    4.2814   -4.7620   23.4589 H   0  0  0  0  0  0  0  0  0  0  0  0
    4.6076   -5.0668   25.1920 H   0  0  0  0  0  0  0  0  0  0  0  0
    7.8780   -5.0499   22.5341 H   0  0  0  0  0  0  0  0  0  0  0  0
    6.2462   -4.7517   21.8621 H   0  0  0  0  0  0  0  0  0  0  0  0
    7.8379   -1.4671   25.7059 H   0  0  0  0  0  0  0  0  0  0  0  0
    9.4590   -1.6937   24.9923 H   0  0  0  0  0  0  0  0  0  0  0  0
    6.2910   -0.5907   22.4104 H   0  0  0  0  0  0  0  0  0  0  0  0
    5.9227   -0.8007   24.1449 H   0  0  0  0  0  0  0  0  0  0  0  0
    5.9472   -3.2944   25.1463 H   0  0  0  0  0  0  0  0  0  0  0  0
    8.7698   -2.2472   22.1731 H   0  0  0  0  0  0  0  0  0  0  0  0
    6.8974   -1.6551   21.0612 H   0  0  0  0  0  0  0  0  0  0  0  0
    6.8790   -5.5157   24.6428 H   0  0  0  0  0  0  0  0  0  0  0  0
    8.0682   -0.0276   23.9407 H   0  0  0  0  0  0  0  0  0  0  0  0
  1  2  1  0  0  0  0
  1  4  2  0  0  0  0
  2  5  2  0  0  0  0
  3  6  2  0  0  0  0
  3  7  1  0  0  0  0
  4 11  1  0  0  0  0
  5 12  1  0  0  0  0
  6 13  1  0  0  0  0
  7 15  2  0  0  0  0
  8 13  2  0  0  0  0
  8 15  1  0  0  0  0
  9 11  2  0  0  0  0
  9 28  1  0  0  0  0
 10 14  1  0  0  0  0
 10 28  2  0  0  0  0
 11 12  1  0  0  0  0
 12 14  2  0  0  0  0
 13 27  1  0  0  0  0
 14 29  1  0  0  0  0
 15 33  1  0  0  0  0
 16 27  1  1  0  0  0
 16 29  1  0  0  0  0
 16 32  2  0  0  0  0
 17 18  1  0  0  0  0
 17 19  1  0  0  0  0
 18 22  1  0  0  0  0
 19 23  1  0  0  0  0
 20 24  1  0  0  0  0
 20 26  1  0  0  0  0
 21 25  1  0  0  0  0
 21 26  1  0  0  0  0
 22 30  1  0  0  0  0
 23 30  1  0  0  0  0
 24 31  1  0  0  0  0
 25 31  1  0  0  0  0
 26 30  1  0  0  0  0
 27 31  1  0  0  0  0
  1 34  1  0  0  0  0
  2 35  1  0  0  0  0
  3 36  1  0  0  0  0
  4 37  1  0  0  0  0
  5 38  1  0  0  0  0
  6 39  1  0  0  0  0
  7 40  1  0  0  0  0
  8 41  1  0  0  0  0
  9 42  1  0  0  0  0
 10 43  1  0  0  0  0
 17 44  1  0  0  0  0
 17 45  1  0  0  0  0
 18 46  1  0  0  0  0
 18 47  1  0  0  0  0
 19 48  1  0  0  0  0
 19 49  1  0  0  0  0
 20 50  1  0  0  0  0
 20 51  1  0  0  0  0
 21 52  1  0  0  0  0
 21 53  1  0  0  0  0
 22 54  1  0  0  0  0
 22 55  1  0  0  0  0
 23 56  1  0  0  0  0
 23 57  1  0  0  0  0
 24 58  1  0  0  0  0
 24 59  1  0  0  0  0
 25 60  1  0  0  0  0
 25 61  1  0  0  0  0
 26 62  1  0  0  0  0
 27 63  1  0  0  0  0
 29 64  1  0  0  0  0
 30 65  1  0  0  0  0
 31 66  1  0  0  0  0
M  CHG  2  30   1  31   1
M  END
> <compound>
MIC-UNK-5a93dd5f-11

> <compound_smiles>
c1ccc2c(c1)cncc2NC(=O)C(c3cccc(c3)Cl)N4CCC(CC4)N5CCCCC5

> <enantiomer_smiles>
c1ccc2c(c1)cncc2NC(=O)[C@@H](c3cccc(c3)Cl)N4CCC(CC4)N5CCCCC5

> <scaffold>
chlorobenzene-linker

> <clash_score>
0.6532374890839064

> <docking_score>
-3.598559856414795

> <overlap_score>
0.8355757594108582

> <MMFF_internal_energy>
248.03029098669944

> <docked_smiles>
c1ccc2c(c1)cncc2NC(=O)[C@@H](c3cccc(c3)Cl)[NH+]4CCC(CC4)[NH+]5CCCCC5

$$$$
MIC-UNK-5a93dd5f-12_7
  -OEChem-07262101023D

 62 66  0     1  0  0  0  0  0999 V2000
    4.8854    3.6419   19.7205 C   0  0  0  0  0  0  0  0  0  0  0  0
    5.5494    3.1500   20.8419 C   0  0  0  0  0  0  0  0  0  0  0  0
   11.9780    0.4600   23.9150 C   0  0  0  0  0  0  0  0  0  0  0  0
    4.7878    2.8619   18.5685 C   0  0  0  0  0  0  0  0  0  0  0  0
    6.1189    1.8757   20.8162 C   0  0  0  0  0  0  0  0  0  0  0  0
   10.6560    0.0720   23.7350 C   0  0  0  0  0  0  0  0  0  0  0  0
   12.9840   -0.1200   23.1530 C   0  0  0  0  0  0  0  0  0  0  0  0
   11.3360   -1.5050   22.0650 C   0  0  0  0  0  0  0  0  0  0  0  0
    5.2893    0.7552   17.4056 C   0  0  0  0  0  0  0  0  0  0  0  0
    6.4602   -0.9317   18.4342 C   0  0  0  0  0  0  0  0  0  0  0  0
    5.3570    1.5782   18.5316 C   0  0  0  0  0  0  0  0  0  0  0  0
    6.0301    1.0765   19.6647 C   0  0  0  0  0  0  0  0  0  0  0  0
   10.3220   -0.8940   22.7910 C   0  0  0  0  0  0  0  0  0  0  0  0
    6.5904   -0.2048   19.6077 C   0  0  0  0  0  0  0  0  0  0  0  0
   12.6400   -1.1000   22.2390 C   0  0  0  0  0  0  0  0  0  0  0  0
    8.3880   -0.3240   21.3070 C   0  0  0  0  0  0  0  0  0  0  0  0
    7.8668   -4.9829   28.3215 C   0  0  0  0  0  0  0  0  0  0  0  0
    7.0855   -5.1932   27.0289 C   0  0  0  0  0  0  0  0  0  0  0  0
    7.6105   -3.5965   28.9024 C   0  0  0  0  0  0  0  0  0  0  0  0
    6.0078   -1.5671   24.7084 C   0  0  0  0  0  0  0  0  0  0  0  0
    6.6172   -1.2533   23.3413 C   0  0  0  0  0  0  0  0  0  0  0  0
    8.3942   -1.8468   24.7389 C   0  0  0  0  0  0  0  0  0  0  0  0
    7.3621   -4.0901   26.0174 C   0  0  0  0  0  0  0  0  0  0  0  0
    7.8847   -2.4991   27.8843 C   0  0  0  0  0  0  0  0  0  0  0  0
    7.2023   -1.6285   25.6495 C   0  0  2  0  0  0  0  0  0  0  0  0
    8.8810   -1.1900   22.4510 C   0  0  1  0  0  0  0  0  0  0  0  0
    5.8237   -0.4845   17.3308 N   0  0  0  0  0  0  0  0  0  0  0  0
    8.0318   -0.9795   23.6153 N   0  0  1  0  0  0  0  0  0  0  0  0
    7.2820   -0.7860   20.6970 N   0  0  0  0  0  0  0  0  0  0  0  0
    7.0611   -2.7486   26.6431 N   0  3  0  0  0  0  0  0  0  0  0  0
    8.9170    0.7530   21.0260 O   0  0  0  0  0  0  0  0  0  0  0  0
   13.8840   -1.8490   21.2740 Cl  0  0  0  0  0  0  0  0  0  0  0  0
    4.4431    4.6335   19.7433 H   0  0  0  0  0  0  0  0  0  0  0  0
    5.6240    3.7591   21.7382 H   0  0  0  0  0  0  0  0  0  0  0  0
   12.2249    1.2198   24.6546 H   0  0  0  0  0  0  0  0  0  0  0  0
    4.2658    3.2613   17.7021 H   0  0  0  0  0  0  0  0  0  0  0  0
    6.6295    1.5271   21.7110 H   0  0  0  0  0  0  0  0  0  0  0  0
    9.8763    0.5350   24.3454 H   0  0  0  0  0  0  0  0  0  0  0  0
   14.0077    0.1988   23.2842 H   0  0  0  0  0  0  0  0  0  0  0  0
   11.0892   -2.3008   21.3624 H   0  0  0  0  0  0  0  0  0  0  0  0
    4.7855    1.0801   16.4994 H   0  0  0  0  0  0  0  0  0  0  0  0
    6.8767   -1.9306   18.3399 H   0  0  0  0  0  0  0  0  0  0  0  0
    7.5877   -5.7494   29.0531 H   0  0  0  0  0  0  0  0  0  0  0  0
    8.9391   -5.1033   28.1237 H   0  0  0  0  0  0  0  0  0  0  0  0
    7.3518   -6.1632   26.5942 H   0  0  0  0  0  0  0  0  0  0  0  0
    6.0114   -5.2294   27.2497 H   0  0  0  0  0  0  0  0  0  0  0  0
    6.5708   -3.5280   29.2463 H   0  0  0  0  0  0  0  0  0  0  0  0
    8.2452   -3.4456   29.7829 H   0  0  0  0  0  0  0  0  0  0  0  0
    5.3074   -0.7871   25.0262 H   0  0  0  0  0  0  0  0  0  0  0  0
    5.4592   -2.5152   24.6628 H   0  0  0  0  0  0  0  0  0  0  0  0
    6.4885   -2.1214   22.6824 H   0  0  0  0  0  0  0  0  0  0  0  0
    6.1298   -0.3923   22.8728 H   0  0  0  0  0  0  0  0  0  0  0  0
    9.3309   -1.5357   25.2121 H   0  0  0  0  0  0  0  0  0  0  0  0
    8.4799   -2.8957   24.4261 H   0  0  0  0  0  0  0  0  0  0  0  0
    8.4105   -4.0817   25.6990 H   0  0  0  0  0  0  0  0  0  0  0  0
    6.7138   -4.1981   25.1418 H   0  0  0  0  0  0  0  0  0  0  0  0
    7.5930   -1.5216   28.2824 H   0  0  0  0  0  0  0  0  0  0  0  0
    8.9386   -2.4739   27.5854 H   0  0  0  0  0  0  0  0  0  0  0  0
    7.2972   -0.6987   26.2231 H   0  0  0  0  0  0  0  0  0  0  0  0
    8.7711   -2.2448   22.1651 H   0  0  0  0  0  0  0  0  0  0  0  0
    6.8975   -1.6551   21.0614 H   0  0  0  0  0  0  0  0  0  0  0  0
    6.0724   -2.7599   26.9296 H   0  0  0  0  0  0  0  0  0  0  0  0
  1  2  1  0  0  0  0
  1  4  2  0  0  0  0
  2  5  2  0  0  0  0
  3  6  2  0  0  0  0
  3  7  1  0  0  0  0
  4 11  1  0  0  0  0
  5 12  1  0  0  0  0
  6 13  1  0  0  0  0
  7 15  2  0  0  0  0
  8 13  2  0  0  0  0
  8 15  1  0  0  0  0
  9 11  2  0  0  0  0
  9 27  1  0  0  0  0
 10 14  1  0  0  0  0
 10 27  2  0  0  0  0
 11 12  1  0  0  0  0
 12 14  2  0  0  0  0
 13 26  1  0  0  0  0
 14 29  1  0  0  0  0
 15 32  1  0  0  0  0
 16 26  1  1  0  0  0
 16 29  1  0  0  0  0
 16 31  2  0  0  0  0
 17 18  1  0  0  0  0
 17 19  1  0  0  0  0
 18 23  1  0  0  0  0
 19 24  1  0  0  0  0
 20 21  1  0  0  0  0
 20 25  1  0  0  0  0
 21 28  1  0  0  0  0
 22 25  1  0  0  0  0
 22 28  1  6  0  0  0
 23 30  1  0  0  0  0
 24 30  1  0  0  0  0
 25 30  1  6  0  0  0
 26 28  1  0  0  0  0
  1 33  1  0  0  0  0
  2 34  1  0  0  0  0
  3 35  1  0  0  0  0
  4 36  1  0  0  0  0
  5 37  1  0  0  0  0
  6 38  1  0  0  0  0
  7 39  1  0  0  0  0
  8 40  1  0  0  0  0
  9 41  1  0  0  0  0
 10 42  1  0  0  0  0
 17 43  1  0  0  0  0
 17 44  1  0  0  0  0
 18 45  1  0  0  0  0
 18 46  1  0  0  0  0
 19 47  1  0  0  0  0
 19 48  1  0  0  0  0
 20 49  1  0  0  0  0
 20 50  1  0  0  0  0
 21 51  1  0  0  0  0
 21 52  1  0  0  0  0
 22 53  1  0  0  0  0
 22 54  1  0  0  0  0
 23 55  1  0  0  0  0
 23 56  1  0  0  0  0
 24 57  1  0  0  0  0
 24 58  1  0  0  0  0
 25 59  1  0  0  0  0
 26 60  1  0  0  0  0
 29 61  1  0  0  0  0
 30 62  1  0  0  0  0
M  CHG  1  30   1
M  END
> <compound>
MIC-UNK-5a93dd5f-12

> <compound_smiles>
c1ccc2c(c1)cncc2NC(=O)C(c3cccc(c3)Cl)N4CCC(C4)N5CCCCC5

> <enantiomer_smiles>
c1ccc2c(c1)cncc2NC(=O)[C@@H](c3cccc(c3)Cl)[N@]4CC[C@H](C4)N5CCCCC5

> <scaffold>
chlorobenzene-linker

> <clash_score>
1.3188485420987268

> <docking_score>
-4.1539201736450195

> <overlap_score>
0.8379278779029846

> <MMFF_internal_energy>
203.83969027224538

> <docked_smiles>
c1ccc2c(c1)cncc2NC(=O)[C@@H](c3cccc(c3)Cl)[N@]4CC[C@H](C4)[NH+]5CCCCC5

$$$$
MIC-UNK-5a93dd5f-7_8
  -OEChem-07262101023D

 57 60  0     1  0  0  0  0  0999 V2000
    3.4588    2.5718   20.0554 C   0  0  0  0  0  0  0  0  0  0  0  0
    4.0835    2.0505   21.1859 C   0  0  0  0  0  0  0  0  0  0  0  0
   11.9780    0.4600   23.9150 C   0  0  0  0  0  0  0  0  0  0  0  0
    3.8711    2.1742   18.7837 C   0  0  0  0  0  0  0  0  0  0  0  0
    5.1234    1.1291   21.0499 C   0  0  0  0  0  0  0  0  0  0  0  0
   10.6560    0.0720   23.7350 C   0  0  0  0  0  0  0  0  0  0  0  0
   12.9840   -0.1200   23.1530 C   0  0  0  0  0  0  0  0  0  0  0  0
   11.3360   -1.5050   22.0650 C   0  0  0  0  0  0  0  0  0  0  0  0
    5.3689    0.8151   17.3870 C   0  0  0  0  0  0  0  0  0  0  0  0
    6.9552   -0.5603   18.3181 C   0  0  0  0  0  0  0  0  0  0  0  0
    4.9163    1.2476   18.6351 C   0  0  0  0  0  0  0  0  0  0  0  0
    5.5514    0.7175   19.7772 C   0  0  0  0  0  0  0  0  0  0  0  0
   10.3220   -0.8940   22.7910 C   0  0  0  0  0  0  0  0  0  0  0  0
    6.5908   -0.2044   19.6077 C   0  0  0  0  0  0  0  0  0  0  0  0
   12.6400   -1.1000   22.2390 C   0  0  0  0  0  0  0  0  0  0  0  0
    4.3281   -3.2416   25.9649 C   0  0  0  0  0  0  0  0  0  0  0  0
    8.3880   -0.3240   21.3070 C   0  0  0  0  0  0  0  0  0  0  0  0
    7.5633   -2.5504   25.4602 C   0  0  0  0  0  0  0  0  0  0  0  0
    8.5580   -1.5268   24.9415 C   0  0  0  0  0  0  0  0  0  0  0  0
    6.6291   -1.7208   23.4494 C   0  0  0  0  0  0  0  0  0  0  0  0
    6.2394   -2.1039   24.8639 C   0  0  1  0  0  0  0  0  0  0  0  0
    4.4504   -2.2396   27.0854 C   0  0  0  0  0  0  0  0  0  0  0  0
    5.2119   -4.0423   23.7552 C   0  0  0  0  0  0  0  0  0  0  0  0
    8.8810   -1.1900   22.4510 C   0  0  2  0  0  0  0  0  0  0  0  0
    6.3708   -0.0740   17.2025 N   0  0  0  0  0  0  0  0  0  0  0  0
    7.2820   -0.7860   20.6970 N   0  0  0  0  0  0  0  0  0  0  0  0
    5.2340   -3.1257   24.9004 N   0  0  0  0  0  0  0  0  0  0  0  0
    7.9694   -1.0400   23.6292 N   0  3  2  0  0  0  0  0  0  0  0  0
    3.4524   -4.1088   26.0259 O   0  0  0  0  0  0  0  0  0  0  0  0
    8.9170    0.7530   21.0260 O   0  0  0  0  0  0  0  0  0  0  0  0
   13.8840   -1.8490   21.2740 Cl  0  0  0  0  0  0  0  0  0  0  0  0
    2.6499    3.2883   20.1641 H   0  0  0  0  0  0  0  0  0  0  0  0
    3.7607    2.3613   22.1754 H   0  0  0  0  0  0  0  0  0  0  0  0
   12.2249    1.2198   24.6546 H   0  0  0  0  0  0  0  0  0  0  0  0
    3.3723    2.5910   17.9118 H   0  0  0  0  0  0  0  0  0  0  0  0
    5.5866    0.7453   21.9560 H   0  0  0  0  0  0  0  0  0  0  0  0
    9.8763    0.5350   24.3454 H   0  0  0  0  0  0  0  0  0  0  0  0
   14.0077    0.1988   23.2842 H   0  0  0  0  0  0  0  0  0  0  0  0
   11.0892   -2.3009   21.3624 H   0  0  0  0  0  0  0  0  0  0  0  0
    4.9234    1.1835   16.4670 H   0  0  0  0  0  0  0  0  0  0  0  0
    7.7549   -1.2720   18.1337 H   0  0  0  0  0  0  0  0  0  0  0  0
    7.8383   -3.5744   25.1824 H   0  0  0  0  0  0  0  0  0  0  0  0
    7.5167   -2.5054   26.5567 H   0  0  0  0  0  0  0  0  0  0  0  0
    8.6841   -0.6607   25.6040 H   0  0  0  0  0  0  0  0  0  0  0  0
    9.5364   -1.9812   24.7292 H   0  0  0  0  0  0  0  0  0  0  0  0
    6.7226   -2.5614   22.7633 H   0  0  0  0  0  0  0  0  0  0  0  0
    5.9558   -0.9690   23.0373 H   0  0  0  0  0  0  0  0  0  0  0  0
    5.8339   -1.2366   25.4086 H   0  0  0  0  0  0  0  0  0  0  0  0
    3.8236   -1.3697   26.8656 H   0  0  0  0  0  0  0  0  0  0  0  0
    4.1052   -2.6788   28.0252 H   0  0  0  0  0  0  0  0  0  0  0  0
    5.4852   -1.8988   27.1772 H   0  0  0  0  0  0  0  0  0  0  0  0
    4.5471   -3.6407   22.9763 H   0  0  0  0  0  0  0  0  0  0  0  0
    6.2292   -4.1477   23.3503 H   0  0  0  0  0  0  0  0  0  0  0  0
    4.8429   -5.0263   24.0804 H   0  0  0  0  0  0  0  0  0  0  0  0
    8.7698   -2.2472   22.1731 H   0  0  0  0  0  0  0  0  0  0  0  0
    6.8974   -1.6551   21.0612 H   0  0  0  0  0  0  0  0  0  0  0  0
    7.7800   -0.0351   23.7397 H   0  0  0  0  0  0  0  0  0  0  0  0
  1  2  1  0  0  0  0
  1  4  2  0  0  0  0
  2  5  2  0  0  0  0
  3  6  2  0  0  0  0
  3  7  1  0  0  0  0
  4 11  1  0  0  0  0
  5 12  1  0  0  0  0
  6 13  1  0  0  0  0
  7 15  2  0  0  0  0
  8 13  2  0  0  0  0
  8 15  1  0  0  0  0
  9 11  2  0  0  0  0
  9 25  1  0  0  0  0
 10 14  1  0  0  0  0
 10 25  2  0  0  0  0
 11 12  1  0  0  0  0
 12 14  2  0  0  0  0
 13 24  1  0  0  0  0
 14 26  1  0  0  0  0
 15 31  1  0  0  0  0
 16 22  1  0  0  0  0
 16 27  1  0  0  0  0
 16 29  2  0  0  0  0
 17 24  1  6  0  0  0
 17 26  1  0  0  0  0
 17 30  2  0  0  0  0
 18 19  1  0  0  0  0
 18 21  1  0  0  0  0
 19 28  1  6  0  0  0
 20 21  1  0  0  0  0
 20 28  1  0  0  0  0
 21 27  1  6  0  0  0
 23 27  1  0  0  0  0
 24 28  1  0  0  0  0
  1 32  1  0  0  0  0
  2 33  1  0  0  0  0
  3 34  1  0  0  0  0
  4 35  1  0  0  0  0
  5 36  1  0  0  0  0
  6 37  1  0  0  0  0
  7 38  1  0  0  0  0
  8 39  1  0  0  0  0
  9 40  1  0  0  0  0
 10 41  1  0  0  0  0
 18 42  1  0  0  0  0
 18 43  1  0  0  0  0
 19 44  1  0  0  0  0
 19 45  1  0  0  0  0
 20 46  1  0  0  0  0
 20 47  1  0  0  0  0
 21 48  1  0  0  0  0
 22 49  1  0  0  0  0
 22 50  1  0  0  0  0
 22 51  1  0  0  0  0
 23 52  1  0  0  0  0
 23 53  1  0  0  0  0
 23 54  1  0  0  0  0
 24 55  1  0  0  0  0
 26 56  1  0  0  0  0
 28 57  1  0  0  0  0
M  CHG  1  28   1
M  END
> <compound>
MIC-UNK-5a93dd5f-7

> <compound_smiles>
CC(=O)N(C)C1CCN(C1)C(c2cccc(c2)Cl)C(=O)Nc3cncc4c3cccc4

> <enantiomer_smiles>
CC(=O)N(C)[C@H]1CC[N@](C1)[C@H](c2cccc(c2)Cl)C(=O)Nc3cncc4c3cccc4

> <scaffold>
chlorobenzene-linker

> <clash_score>
0

> <docking_score>
-9.470819473266602

> <overlap_score>
0.9776797294616699

> <MMFF_internal_energy>
194.19609631887033

> <docked_smiles>
CC(=O)N(C)[C@H]1CC[N@H+](C1)[C@H](c2cccc(c2)Cl)C(=O)Nc3cncc4c3cccc4

$$$$
MIC-UNK-5a93dd5f-12_2
  -OEChem-07262101023D

 62 66  0     1  0  0  0  0  0999 V2000
    3.4578    2.5708   20.0554 C   0  0  0  0  0  0  0  0  0  0  0  0
    4.0829    2.0498   21.1859 C   0  0  0  0  0  0  0  0  0  0  0  0
   11.9780    0.4600   23.9150 C   0  0  0  0  0  0  0  0  0  0  0  0
    3.8699    2.1730   18.7838 C   0  0  0  0  0  0  0  0  0  0  0  0
    5.1230    1.1287   21.0499 C   0  0  0  0  0  0  0  0  0  0  0  0
   10.6560    0.0720   23.7350 C   0  0  0  0  0  0  0  0  0  0  0  0
   12.9840   -0.1200   23.1530 C   0  0  0  0  0  0  0  0  0  0  0  0
   11.3360   -1.5050   22.0650 C   0  0  0  0  0  0  0  0  0  0  0  0
    5.3679    0.8139   17.3870 C   0  0  0  0  0  0  0  0  0  0  0  0
    6.9546   -0.5609   18.3181 C   0  0  0  0  0  0  0  0  0  0  0  0
    4.9154    1.2466   18.6351 C   0  0  0  0  0  0  0  0  0  0  0  0
    5.5508    0.7169   19.7772 C   0  0  0  0  0  0  0  0  0  0  0  0
   10.3220   -0.8940   22.7910 C   0  0  0  0  0  0  0  0  0  0  0  0
    6.5904   -0.2048   19.6077 C   0  0  0  0  0  0  0  0  0  0  0  0
   12.6400   -1.1000   22.2390 C   0  0  0  0  0  0  0  0  0  0  0  0
    8.3880   -0.3240   21.3070 C   0  0  0  0  0  0  0  0  0  0  0  0
    9.7990   -8.4913   24.7038 C   0  0  0  0  0  0  0  0  0  0  0  0
    8.3877   -7.9147   24.7394 C   0  0  0  0  0  0  0  0  0  0  0  0
   10.8464   -7.3845   24.6447 C   0  0  0  0  0  0  0  0  0  0  0  0
    7.4353   -4.5660   22.3889 C   0  0  0  0  0  0  0  0  0  0  0  0
    7.3327   -3.0510   22.2068 C   0  0  0  0  0  0  0  0  0  0  0  0
    9.5074   -3.4852   22.9463 C   0  0  0  0  0  0  0  0  0  0  0  0
    8.1411   -6.9564   23.5831 C   0  0  0  0  0  0  0  0  0  0  0  0
   10.5909   -6.4278   23.4890 C   0  0  0  0  0  0  0  0  0  0  0  0
    8.9261   -4.8272   22.5485 C   0  0  1  0  0  0  0  0  0  0  0  0
    8.8810   -1.1900   22.4510 C   0  0  2  0  0  0  0  0  0  0  0  0
    6.3699   -0.0750   17.2025 N   0  0  0  0  0  0  0  0  0  0  0  0
    8.7211   -2.5921   22.0919 N   0  0  2  0  0  0  0  0  0  0  0  0
    7.2820   -0.7860   20.6970 N   0  0  0  0  0  0  0  0  0  0  0  0
    9.1913   -5.8708   23.5984 N   0  3  0  0  0  0  0  0  0  0  0  0
    8.9170    0.7530   21.0260 O   0  0  0  0  0  0  0  0  0  0  0  0
   13.8840   -1.8490   21.2740 Cl  0  0  0  0  0  0  0  0  0  0  0  0
    2.6488    3.2871   20.1641 H   0  0  0  0  0  0  0  0  0  0  0  0
    3.7602    2.3608   22.1754 H   0  0  0  0  0  0  0  0  0  0  0  0
   12.2249    1.2198   24.6546 H   0  0  0  0  0  0  0  0  0  0  0  0
    3.3709    2.5895   17.9118 H   0  0  0  0  0  0  0  0  0  0  0  0
    5.5865    0.7452   21.9560 H   0  0  0  0  0  0  0  0  0  0  0  0
    9.8763    0.5350   24.3454 H   0  0  0  0  0  0  0  0  0  0  0  0
   14.0077    0.1988   23.2842 H   0  0  0  0  0  0  0  0  0  0  0  0
   11.0892   -2.3009   21.3624 H   0  0  0  0  0  0  0  0  0  0  0  0
    4.9221    1.1820   16.4670 H   0  0  0  0  0  0  0  0  0  0  0  0
    7.7545   -1.2725   18.1337 H   0  0  0  0  0  0  0  0  0  0  0  0
    9.9678   -9.1151   25.5887 H   0  0  0  0  0  0  0  0  0  0  0  0
    9.9056   -9.1420   23.8272 H   0  0  0  0  0  0  0  0  0  0  0  0
    7.6579   -8.7312   24.6998 H   0  0  0  0  0  0  0  0  0  0  0  0
    8.2272   -7.3926   25.6909 H   0  0  0  0  0  0  0  0  0  0  0  0
   10.8472   -6.8277   25.5901 H   0  0  0  0  0  0  0  0  0  0  0  0
   11.8425   -7.8287   24.5385 H   0  0  0  0  0  0  0  0  0  0  0  0
    6.8580   -4.8749   23.2683 H   0  0  0  0  0  0  0  0  0  0  0  0
    7.0406   -5.1041   21.5202 H   0  0  0  0  0  0  0  0  0  0  0  0
    6.7543   -2.7921   21.3142 H   0  0  0  0  0  0  0  0  0  0  0  0
    6.8294   -2.6173   23.0802 H   0  0  0  0  0  0  0  0  0  0  0  0
    9.3445   -3.2707   24.0107 H   0  0  0  0  0  0  0  0  0  0  0  0
   10.5785   -3.4256   22.7280 H   0  0  0  0  0  0  0  0  0  0  0  0
    8.1997   -7.4631   22.6133 H   0  0  0  0  0  0  0  0  0  0  0  0
    7.1647   -6.4717   23.6851 H   0  0  0  0  0  0  0  0  0  0  0  0
   11.2859   -5.5825   23.5269 H   0  0  0  0  0  0  0  0  0  0  0  0
   10.6752   -6.9289   22.5182 H   0  0  0  0  0  0  0  0  0  0  0  0
    9.3621   -5.1944   21.6117 H   0  0  0  0  0  0  0  0  0  0  0  0
    8.2436   -1.0112   23.3272 H   0  0  0  0  0  0  0  0  0  0  0  0
    6.8975   -1.6551   21.0614 H   0  0  0  0  0  0  0  0  0  0  0  0
    9.1230   -5.3923   24.5073 H   0  0  0  0  0  0  0  0  0  0  0  0
  1  2  1  0  0  0  0
  1  4  2  0  0  0  0
  2  5  2  0  0  0  0
  3  6  2  0  0  0  0
  3  7  1  0  0  0  0
  4 11  1  0  0  0  0
  5 12  1  0  0  0  0
  6 13  1  0  0  0  0
  7 15  2  0  0  0  0
  8 13  2  0  0  0  0
  8 15  1  0  0  0  0
  9 11  2  0  0  0  0
  9 27  1  0  0  0  0
 10 14  1  0  0  0  0
 10 27  2  0  0  0  0
 11 12  1  0  0  0  0
 12 14  2  0  0  0  0
 13 26  1  0  0  0  0
 14 29  1  0  0  0  0
 15 32  1  0  0  0  0
 16 26  1  6  0  0  0
 16 29  1  0  0  0  0
 16 31  2  0  0  0  0
 17 18  1  0  0  0  0
 17 19  1  0  0  0  0
 18 23  1  0  0  0  0
 19 24  1  0  0  0  0
 20 21  1  0  0  0  0
 20 25  1  0  0  0  0
 21 28  1  0  0  0  0
 22 25  1  0  0  0  0
 22 28  1  1  0  0  0
 23 30  1  0  0  0  0
 24 30  1  0  0  0  0
 25 30  1  1  0  0  0
 26 28  1  0  0  0  0
  1 33  1  0  0  0  0
  2 34  1  0  0  0  0
  3 35  1  0  0  0  0
  4 36  1  0  0  0  0
  5 37  1  0  0  0  0
  6 38  1  0  0  0  0
  7 39  1  0  0  0  0
  8 40  1  0  0  0  0
  9 41  1  0  0  0  0
 10 42  1  0  0  0  0
 17 43  1  0  0  0  0
 17 44  1  0  0  0  0
 18 45  1  0  0  0  0
 18 46  1  0  0  0  0
 19 47  1  0  0  0  0
 19 48  1  0  0  0  0
 20 49  1  0  0  0  0
 20 50  1  0  0  0  0
 21 51  1  0  0  0  0
 21 52  1  0  0  0  0
 22 53  1  0  0  0  0
 22 54  1  0  0  0  0
 23 55  1  0  0  0  0
 23 56  1  0  0  0  0
 24 57  1  0  0  0  0
 24 58  1  0  0  0  0
 25 59  1  0  0  0  0
 26 60  1  0  0  0  0
 29 61  1  0  0  0  0
 30 62  1  0  0  0  0
M  CHG  1  30   1
M  END
> <compound>
MIC-UNK-5a93dd5f-12

> <compound_smiles>
c1ccc2c(c1)cncc2NC(=O)C(c3cccc(c3)Cl)N4CCC(C4)N5CCCCC5

> <enantiomer_smiles>
c1ccc2c(c1)cncc2NC(=O)[C@H](c3cccc(c3)Cl)[N@@]4CC[C@@H](C4)N5CCCCC5

> <scaffold>
chlorobenzene-linker

> <clash_score>
3.069330849785215

> <docking_score>
-4.320025444030762

> <overlap_score>
0.9779667258262634

> <MMFF_internal_energy>
257.47548067732527

> <docked_smiles>
c1ccc2c(c1)cncc2NC(=O)[C@H](c3cccc(c3)Cl)[N@@]4CC[C@@H](C4)[NH+]5CCCCC5

$$$$
MIC-UNK-5a93dd5f-12_4
  -OEChem-07262101023D

 62 66  0     1  0  0  0  0  0999 V2000
    2.5650    1.0119   19.7905 C   0  0  0  0  0  0  0  0  0  0  0  0
    3.1657    0.4486   20.9139 C   0  0  0  0  0  0  0  0  0  0  0  0
   11.9780    0.4600   23.9150 C   0  0  0  0  0  0  0  0  0  0  0  0
    3.2959    1.1705   18.6133 C   0  0  0  0  0  0  0  0  0  0  0  0
    4.5001    0.0414   20.8653 C   0  0  0  0  0  0  0  0  0  0  0  0
   10.6560    0.0720   23.7350 C   0  0  0  0  0  0  0  0  0  0  0  0
   12.9840   -0.1200   23.1530 C   0  0  0  0  0  0  0  0  0  0  0  0
   11.3360   -1.5050   22.0650 C   0  0  0  0  0  0  0  0  0  0  0  0
    5.4171    0.8995   17.4014 C   0  0  0  0  0  0  0  0  0  0  0  0
    7.2639   -0.0211   18.4097 C   0  0  0  0  0  0  0  0  0  0  0  0
    4.6393    0.7642   18.5530 C   0  0  0  0  0  0  0  0  0  0  0  0
    5.2510    0.1935   19.6882 C   0  0  0  0  0  0  0  0  0  0  0  0
   10.3220   -0.8940   22.7910 C   0  0  0  0  0  0  0  0  0  0  0  0
    6.5904   -0.2048   19.6077 C   0  0  0  0  0  0  0  0  0  0  0  0
   12.6400   -1.1000   22.2390 C   0  0  0  0  0  0  0  0  0  0  0  0
    8.3880   -0.3240   21.3070 C   0  0  0  0  0  0  0  0  0  0  0  0
    5.3614   -7.6629   22.7457 C   0  0  0  0  0  0  0  0  0  0  0  0
    6.8780   -7.6429   22.5871 C   0  0  0  0  0  0  0  0  0  0  0  0
    4.7878   -6.2522   22.8263 C   0  0  0  0  0  0  0  0  0  0  0  0
    8.9115   -4.8380   22.5936 C   0  0  0  0  0  0  0  0  0  0  0  0
    9.5132   -3.4866   22.9362 C   0  0  0  0  0  0  0  0  0  0  0  0
    7.3274   -3.0456   22.1796 C   0  0  0  0  0  0  0  0  0  0  0  0
    7.3109   -6.7798   21.4104 C   0  0  0  0  0  0  0  0  0  0  0  0
    5.2300   -5.3951   21.6487 C   0  0  0  0  0  0  0  0  0  0  0  0
    7.4255   -4.5255   22.5404 C   0  0  1  0  0  0  0  0  0  0  0  0
    8.8810   -1.1900   22.4510 C   0  0  2  0  0  0  0  0  0  0  0  0
    6.7116    0.5212   17.3036 N   0  0  0  0  0  0  0  0  0  0  0  0
    8.7211   -2.5915   22.0921 N   0  0  1  0  0  0  0  0  0  0  0  0
    7.2820   -0.7860   20.6970 N   0  0  0  0  0  0  0  0  0  0  0  0
    6.7340   -5.3891   21.5202 N   0  3  0  0  0  0  0  0  0  0  0  0
    8.9170    0.7530   21.0260 O   0  0  0  0  0  0  0  0  0  0  0  0
   13.8840   -1.8490   21.2740 Cl  0  0  0  0  0  0  0  0  0  0  0  0
    1.5267    1.3276   19.8311 H   0  0  0  0  0  0  0  0  0  0  0  0
    2.5946    0.3257   21.8297 H   0  0  0  0  0  0  0  0  0  0  0  0
   12.2249    1.2198   24.6546 H   0  0  0  0  0  0  0  0  0  0  0  0
    2.8114    1.6119   17.7455 H   0  0  0  0  0  0  0  0  0  0  0  0
    4.9338   -0.3933   21.7630 H   0  0  0  0  0  0  0  0  0  0  0  0
    9.8763    0.5350   24.3454 H   0  0  0  0  0  0  0  0  0  0  0  0
   14.0077    0.1988   23.2842 H   0  0  0  0  0  0  0  0  0  0  0  0
   11.0892   -2.3008   21.3624 H   0  0  0  0  0  0  0  0  0  0  0  0
    5.0078    1.3308   16.4920 H   0  0  0  0  0  0  0  0  0  0  0  0
    8.3038   -0.3142   18.2963 H   0  0  0  0  0  0  0  0  0  0  0  0
    4.9072   -8.2006   21.9041 H   0  0  0  0  0  0  0  0  0  0  0  0
    5.0970   -8.2169   23.6565 H   0  0  0  0  0  0  0  0  0  0  0  0
    7.3371   -7.2637   23.5072 H   0  0  0  0  0  0  0  0  0  0  0  0
    7.2472   -8.6667   22.4480 H   0  0  0  0  0  0  0  0  0  0  0  0
    3.6921   -6.3015   22.8546 H   0  0  0  0  0  0  0  0  0  0  0  0
    5.1072   -5.7803   23.7624 H   0  0  0  0  0  0  0  0  0  0  0  0
    9.2902   -5.1817   21.6224 H   0  0  0  0  0  0  0  0  0  0  0  0
    9.1486   -5.6003   23.3420 H   0  0  0  0  0  0  0  0  0  0  0  0
    9.3807   -3.2682   24.0034 H   0  0  0  0  0  0  0  0  0  0  0  0
   10.5793   -3.4459   22.6927 H   0  0  0  0  0  0  0  0  0  0  0  0
    6.8105   -2.8641   21.2310 H   0  0  0  0  0  0  0  0  0  0  0  0
    6.7726   -2.5234   22.9696 H   0  0  0  0  0  0  0  0  0  0  0  0
    8.4077   -6.6817   21.3586 H   0  0  0  0  0  0  0  0  0  0  0  0
    6.9515   -7.2113   20.4631 H   0  0  0  0  0  0  0  0  0  0  0  0
    4.8208   -5.7934   20.7069 H   0  0  0  0  0  0  0  0  0  0  0  0
    4.9016   -4.3487   21.7604 H   0  0  0  0  0  0  0  0  0  0  0  0
    6.9460   -4.7267   23.5049 H   0  0  0  0  0  0  0  0  0  0  0  0
    8.2436   -1.0112   23.3272 H   0  0  0  0  0  0  0  0  0  0  0  0
    6.8975   -1.6551   21.0614 H   0  0  0  0  0  0  0  0  0  0  0  0
    6.9355   -4.9255   20.5863 H   0  0  0  0  0  0  0  0  0  0  0  0
  1  2  1  0  0  0  0
  1  4  2  0  0  0  0
  2  5  2  0  0  0  0
  3  6  2  0  0  0  0
  3  7  1  0  0  0  0
  4 11  1  0  0  0  0
  5 12  1  0  0  0  0
  6 13  1  0  0  0  0
  7 15  2  0  0  0  0
  8 13  2  0  0  0  0
  8 15  1  0  0  0  0
  9 11  2  0  0  0  0
  9 27  1  0  0  0  0
 10 14  1  0  0  0  0
 10 27  2  0  0  0  0
 11 12  1  0  0  0  0
 12 14  2  0  0  0  0
 13 26  1  0  0  0  0
 14 29  1  0  0  0  0
 15 32  1  0  0  0  0
 16 26  1  6  0  0  0
 16 29  1  0  0  0  0
 16 31  2  0  0  0  0
 17 18  1  0  0  0  0
 17 19  1  0  0  0  0
 18 23  1  0  0  0  0
 19 24  1  0  0  0  0
 20 21  1  0  0  0  0
 20 25  1  0  0  0  0
 21 28  1  0  0  0  0
 22 25  1  0  0  0  0
 22 28  1  6  0  0  0
 23 30  1  0  0  0  0
 24 30  1  0  0  0  0
 25 30  1  1  0  0  0
 26 28  1  0  0  0  0
  1 33  1  0  0  0  0
  2 34  1  0  0  0  0
  3 35  1  0  0  0  0
  4 36  1  0  0  0  0
  5 37  1  0  0  0  0
  6 38  1  0  0  0  0
  7 39  1  0  0  0  0
  8 40  1  0  0  0  0
  9 41  1  0  0  0  0
 10 42  1  0  0  0  0
 17 43  1  0  0  0  0
 17 44  1  0  0  0  0
 18 45  1  0  0  0  0
 18 46  1  0  0  0  0
 19 47  1  0  0  0  0
 19 48  1  0  0  0  0
 20 49  1  0  0  0  0
 20 50  1  0  0  0  0
 21 51  1  0  0  0  0
 21 52  1  0  0  0  0
 22 53  1  0  0  0  0
 22 54  1  0  0  0  0
 23 55  1  0  0  0  0
 23 56  1  0  0  0  0
 24 57  1  0  0  0  0
 24 58  1  0  0  0  0
 25 59  1  0  0  0  0
 26 60  1  0  0  0  0
 29 61  1  0  0  0  0
 30 62  1  0  0  0  0
M  CHG  1  30   1
M  END
> <compound>
MIC-UNK-5a93dd5f-12

> <compound_smiles>
c1ccc2c(c1)cncc2NC(=O)C(c3cccc(c3)Cl)N4CCC(C4)N5CCCCC5

> <enantiomer_smiles>
c1ccc2c(c1)cncc2NC(=O)[C@H](c3cccc(c3)Cl)[N@]4CC[C@@H](C4)N5CCCCC5

> <scaffold>
chlorobenzene-linker

> <clash_score>
0.6114127813922688

> <docking_score>
-1.4164196252822876

> <overlap_score>
0.894568681716919

> <MMFF_internal_energy>
247.97611742577683

> <docked_smiles>
c1ccc2c(c1)cncc2NC(=O)[C@H](c3cccc(c3)Cl)[N@]4CC[C@@H](C4)[NH+]5CCCCC5

$$$$
MIC-UNK-5a93dd5f-12_3
  -OEChem-07262101023D

 62 66  0     1  0  0  0  0  0999 V2000
    2.5650    1.0119   19.7905 C   0  0  0  0  0  0  0  0  0  0  0  0
    3.1657    0.4486   20.9139 C   0  0  0  0  0  0  0  0  0  0  0  0
   11.9780    0.4600   23.9150 C   0  0  0  0  0  0  0  0  0  0  0  0
    3.2959    1.1705   18.6133 C   0  0  0  0  0  0  0  0  0  0  0  0
    4.5001    0.0414   20.8653 C   0  0  0  0  0  0  0  0  0  0  0  0
   10.6560    0.0720   23.7350 C   0  0  0  0  0  0  0  0  0  0  0  0
   12.9840   -0.1200   23.1530 C   0  0  0  0  0  0  0  0  0  0  0  0
   11.3360   -1.5050   22.0650 C   0  0  0  0  0  0  0  0  0  0  0  0
    5.4171    0.8995   17.4014 C   0  0  0  0  0  0  0  0  0  0  0  0
    7.2639   -0.0211   18.4097 C   0  0  0  0  0  0  0  0  0  0  0  0
    4.6393    0.7642   18.5530 C   0  0  0  0  0  0  0  0  0  0  0  0
    5.2510    0.1935   19.6882 C   0  0  0  0  0  0  0  0  0  0  0  0
   10.3220   -0.8940   22.7910 C   0  0  0  0  0  0  0  0  0  0  0  0
    6.5904   -0.2048   19.6077 C   0  0  0  0  0  0  0  0  0  0  0  0
   12.6400   -1.1000   22.2390 C   0  0  0  0  0  0  0  0  0  0  0  0
    8.3880   -0.3240   21.3070 C   0  0  0  0  0  0  0  0  0  0  0  0
    6.4570   -2.6185   29.5311 C   0  0  0  0  0  0  0  0  0  0  0  0
    5.6117   -1.5476   28.8499 C   0  0  0  0  0  0  0  0  0  0  0  0
    7.7999   -2.7912   28.8294 C   0  0  0  0  0  0  0  0  0  0  0  0
    5.9521   -0.9375   24.6178 C   0  0  0  0  0  0  0  0  0  0  0  0
    6.6241   -0.7906   23.2641 C   0  0  0  0  0  0  0  0  0  0  0  0
    8.0873   -2.0917   24.5722 C   0  0  0  0  0  0  0  0  0  0  0  0
    5.4475   -1.8213   27.3618 C   0  0  0  0  0  0  0  0  0  0  0  0
    7.6280   -3.0601   27.3414 C   0  0  0  0  0  0  0  0  0  0  0  0
    6.7097   -2.1039   25.2294 C   0  0  1  0  0  0  0  0  0  0  0  0
    8.8810   -1.1900   22.4510 C   0  0  1  0  0  0  0  0  0  0  0  0
    6.7116    0.5212   17.3036 N   0  0  0  0  0  0  0  0  0  0  0  0
    8.0322   -0.9796   23.6147 N   0  0  1  0  0  0  0  0  0  0  0  0
    7.2820   -0.7860   20.6970 N   0  0  0  0  0  0  0  0  0  0  0  0
    6.8096   -1.9519   26.7223 N   0  3  0  0  0  0  0  0  0  0  0  0
    8.9170    0.7530   21.0260 O   0  0  0  0  0  0  0  0  0  0  0  0
   13.8840   -1.8490   21.2740 Cl  0  0  0  0  0  0  0  0  0  0  0  0
    1.5267    1.3276   19.8311 H   0  0  0  0  0  0  0  0  0  0  0  0
    2.5946    0.3257   21.8297 H   0  0  0  0  0  0  0  0  0  0  0  0
   12.2249    1.2198   24.6546 H   0  0  0  0  0  0  0  0  0  0  0  0
    2.8114    1.6120   17.7455 H   0  0  0  0  0  0  0  0  0  0  0  0
    4.9338   -0.3933   21.7630 H   0  0  0  0  0  0  0  0  0  0  0  0
    9.8763    0.5350   24.3454 H   0  0  0  0  0  0  0  0  0  0  0  0
   14.0077    0.1988   23.2842 H   0  0  0  0  0  0  0  0  0  0  0  0
   11.0892   -2.3009   21.3624 H   0  0  0  0  0  0  0  0  0  0  0  0
    5.0078    1.3308   16.4920 H   0  0  0  0  0  0  0  0  0  0  0  0
    8.3038   -0.3142   18.2963 H   0  0  0  0  0  0  0  0  0  0  0  0
    6.6186   -2.3517   30.5815 H   0  0  0  0  0  0  0  0  0  0  0  0
    5.9150   -3.5722   29.5218 H   0  0  0  0  0  0  0  0  0  0  0  0
    4.6251   -1.5034   29.3248 H   0  0  0  0  0  0  0  0  0  0  0  0
    6.0768   -0.5645   28.9942 H   0  0  0  0  0  0  0  0  0  0  0  0
    8.4086   -1.8897   28.9726 H   0  0  0  0  0  0  0  0  0  0  0  0
    8.3493   -3.6201   29.2898 H   0  0  0  0  0  0  0  0  0  0  0  0
    6.0808   -0.0172   25.2021 H   0  0  0  0  0  0  0  0  0  0  0  0
    4.8802   -1.1393   24.5299 H   0  0  0  0  0  0  0  0  0  0  0  0
    6.2660   -1.5642   22.5731 H   0  0  0  0  0  0  0  0  0  0  0  0
    6.4378    0.1945   22.8256 H   0  0  0  0  0  0  0  0  0  0  0  0
    8.9056   -1.9374   25.2838 H   0  0  0  0  0  0  0  0  0  0  0  0
    8.2522   -3.0561   24.0748 H   0  0  0  0  0  0  0  0  0  0  0  0
    4.9013   -2.7528   27.1759 H   0  0  0  0  0  0  0  0  0  0  0  0
    4.9315   -0.9896   26.8711 H   0  0  0  0  0  0  0  0  0  0  0  0
    8.5997   -3.0735   26.8368 H   0  0  0  0  0  0  0  0  0  0  0  0
    7.1047   -4.0047   27.1552 H   0  0  0  0  0  0  0  0  0  0  0  0
    6.1932   -3.0517   25.0400 H   0  0  0  0  0  0  0  0  0  0  0  0
    8.7711   -2.2448   22.1651 H   0  0  0  0  0  0  0  0  0  0  0  0
    6.8975   -1.6551   21.0614 H   0  0  0  0  0  0  0  0  0  0  0  0
    7.3125   -1.0697   26.8913 H   0  0  0  0  0  0  0  0  0  0  0  0
  1  2  1  0  0  0  0
  1  4  2  0  0  0  0
  2  5  2  0  0  0  0
  3  6  2  0  0  0  0
  3  7  1  0  0  0  0
  4 11  1  0  0  0  0
  5 12  1  0  0  0  0
  6 13  1  0  0  0  0
  7 15  2  0  0  0  0
  8 13  2  0  0  0  0
  8 15  1  0  0  0  0
  9 11  2  0  0  0  0
  9 27  1  0  0  0  0
 10 14  1  0  0  0  0
 10 27  2  0  0  0  0
 11 12  1  0  0  0  0
 12 14  2  0  0  0  0
 13 26  1  0  0  0  0
 14 29  1  0  0  0  0
 15 32  1  0  0  0  0
 16 26  1  1  0  0  0
 16 29  1  0  0  0  0
 16 31  2  0  0  0  0
 17 18  1  0  0  0  0
 17 19  1  0  0  0  0
 18 23  1  0  0  0  0
 19 24  1  0  0  0  0
 20 21  1  0  0  0  0
 20 25  1  0  0  0  0
 21 28  1  0  0  0  0
 22 25  1  0  0  0  0
 22 28  1  6  0  0  0
 23 30  1  0  0  0  0
 24 30  1  0  0  0  0
 25 30  1  1  0  0  0
 26 28  1  0  0  0  0
  1 33  1  0  0  0  0
  2 34  1  0  0  0  0
  3 35  1  0  0  0  0
  4 36  1  0  0  0  0
  5 37  1  0  0  0  0
  6 38  1  0  0  0  0
  7 39  1  0  0  0  0
  8 40  1  0  0  0  0
  9 41  1  0  0  0  0
 10 42  1  0  0  0  0
 17 43  1  0  0  0  0
 17 44  1  0  0  0  0
 18 45  1  0  0  0  0
 18 46  1  0  0  0  0
 19 47  1  0  0  0  0
 19 48  1  0  0  0  0
 20 49  1  0  0  0  0
 20 50  1  0  0  0  0
 21 51  1  0  0  0  0
 21 52  1  0  0  0  0
 22 53  1  0  0  0  0
 22 54  1  0  0  0  0
 23 55  1  0  0  0  0
 23 56  1  0  0  0  0
 24 57  1  0  0  0  0
 24 58  1  0  0  0  0
 25 59  1  0  0  0  0
 26 60  1  0  0  0  0
 29 61  1  0  0  0  0
 30 62  1  0  0  0  0
M  CHG  1  30   1
M  END
> <compound>
MIC-UNK-5a93dd5f-12

> <compound_smiles>
c1ccc2c(c1)cncc2NC(=O)C(c3cccc(c3)Cl)N4CCC(C4)N5CCCCC5

> <enantiomer_smiles>
c1ccc2c(c1)cncc2NC(=O)[C@@H](c3cccc(c3)Cl)[N@]4CC[C@@H](C4)N5CCCCC5

> <scaffold>
chlorobenzene-linker

> <clash_score>
1.6727258198917214

> <docking_score>
-2.9607837200164795

> <overlap_score>
0.8945437073707581

> <MMFF_internal_energy>
204.76200653690083

> <docked_smiles>
c1ccc2c(c1)cncc2NC(=O)[C@@H](c3cccc(c3)Cl)[N@]4CC[C@@H](C4)[NH+]5CCCCC5

$$$$
MIC-UNK-5a93dd5f-12_8
  -OEChem-07262101023D

 62 66  0     1  0  0  0  0  0999 V2000
    3.4578    2.5708   20.0554 C   0  0  0  0  0  0  0  0  0  0  0  0
    4.0829    2.0498   21.1859 C   0  0  0  0  0  0  0  0  0  0  0  0
   11.9780    0.4600   23.9150 C   0  0  0  0  0  0  0  0  0  0  0  0
    3.8699    2.1730   18.7838 C   0  0  0  0  0  0  0  0  0  0  0  0
    5.1230    1.1287   21.0499 C   0  0  0  0  0  0  0  0  0  0  0  0
   10.6560    0.0720   23.7350 C   0  0  0  0  0  0  0  0  0  0  0  0
   12.9840   -0.1200   23.1530 C   0  0  0  0  0  0  0  0  0  0  0  0
   11.3360   -1.5050   22.0650 C   0  0  0  0  0  0  0  0  0  0  0  0
    5.3679    0.8139   17.3870 C   0  0  0  0  0  0  0  0  0  0  0  0
    6.9546   -0.5609   18.3181 C   0  0  0  0  0  0  0  0  0  0  0  0
    4.9154    1.2466   18.6351 C   0  0  0  0  0  0  0  0  0  0  0  0
    5.5508    0.7169   19.7772 C   0  0  0  0  0  0  0  0  0  0  0  0
   10.3220   -0.8940   22.7910 C   0  0  0  0  0  0  0  0  0  0  0  0
    6.5904   -0.2048   19.6077 C   0  0  0  0  0  0  0  0  0  0  0  0
   12.6400   -1.1000   22.2390 C   0  0  0  0  0  0  0  0  0  0  0  0
    8.3880   -0.3240   21.3070 C   0  0  0  0  0  0  0  0  0  0  0  0
    9.5937   -7.8796   24.2740 C   0  0  0  0  0  0  0  0  0  0  0  0
    9.8358   -6.4671   24.7953 C   0  0  0  0  0  0  0  0  0  0  0  0
    9.2470   -7.8770   22.7890 C   0  0  0  0  0  0  0  0  0  0  0  0
    9.4673   -4.3588   20.6924 C   0  0  0  0  0  0  0  0  0  0  0  0
    9.1294   -2.8674   20.7104 C   0  0  0  0  0  0  0  0  0  0  0  0
    9.5261   -3.4842   22.9297 C   0  0  0  0  0  0  0  0  0  0  0  0
   10.8768   -5.7299   23.9648 C   0  0  0  0  0  0  0  0  0  0  0  0
   10.2905   -7.1334   21.9673 C   0  0  0  0  0  0  0  0  0  0  0  0
    9.3979   -4.7797   22.1533 C   0  0  2  0  0  0  0  0  0  0  0  0
    8.8810   -1.1900   22.4510 C   0  0  2  0  0  0  0  0  0  0  0  0
    6.3699   -0.0750   17.2025 N   0  0  0  0  0  0  0  0  0  0  0  0
    8.7210   -2.5921   22.0919 N   0  0  1  0  0  0  0  0  0  0  0  0
    7.2820   -0.7860   20.6970 N   0  0  0  0  0  0  0  0  0  0  0  0
   10.5045   -5.7381   22.5019 N   0  3  0  0  0  0  0  0  0  0  0  0
    8.9170    0.7530   21.0260 O   0  0  0  0  0  0  0  0  0  0  0  0
   13.8840   -1.8490   21.2740 Cl  0  0  0  0  0  0  0  0  0  0  0  0
    2.6488    3.2871   20.1641 H   0  0  0  0  0  0  0  0  0  0  0  0
    3.7603    2.3608   22.1754 H   0  0  0  0  0  0  0  0  0  0  0  0
   12.2249    1.2198   24.6546 H   0  0  0  0  0  0  0  0  0  0  0  0
    3.3709    2.5895   17.9118 H   0  0  0  0  0  0  0  0  0  0  0  0
    5.5865    0.7452   21.9560 H   0  0  0  0  0  0  0  0  0  0  0  0
    9.8763    0.5350   24.3454 H   0  0  0  0  0  0  0  0  0  0  0  0
   14.0077    0.1988   23.2842 H   0  0  0  0  0  0  0  0  0  0  0  0
   11.0892   -2.3008   21.3624 H   0  0  0  0  0  0  0  0  0  0  0  0
    4.9221    1.1820   16.4670 H   0  0  0  0  0  0  0  0  0  0  0  0
    7.7545   -1.2725   18.1337 H   0  0  0  0  0  0  0  0  0  0  0  0
   10.4845   -8.4965   24.4460 H   0  0  0  0  0  0  0  0  0  0  0  0
    8.7732   -8.3416   24.8395 H   0  0  0  0  0  0  0  0  0  0  0  0
    8.8943   -5.9063   24.7833 H   0  0  0  0  0  0  0  0  0  0  0  0
   10.1640   -6.5119   25.8414 H   0  0  0  0  0  0  0  0  0  0  0  0
    9.1628   -8.9100   22.4289 H   0  0  0  0  0  0  0  0  0  0  0  0
    8.2662   -7.4105   22.6430 H   0  0  0  0  0  0  0  0  0  0  0  0
    8.7480   -4.9279   20.0935 H   0  0  0  0  0  0  0  0  0  0  0  0
   10.4625   -4.5099   20.2581 H   0  0  0  0  0  0  0  0  0  0  0  0
   10.0202   -2.2934   20.4249 H   0  0  0  0  0  0  0  0  0  0  0  0
    8.3275   -2.6291   20.0045 H   0  0  0  0  0  0  0  0  0  0  0  0
    9.1199   -3.5741   23.9422 H   0  0  0  0  0  0  0  0  0  0  0  0
   10.5695   -3.1475   22.9890 H   0  0  0  0  0  0  0  0  0  0  0  0
   10.9761   -4.6772   24.2768 H   0  0  0  0  0  0  0  0  0  0  0  0
   11.8597   -6.2180   24.0571 H   0  0  0  0  0  0  0  0  0  0  0  0
   11.2594   -7.6551   22.0115 H   0  0  0  0  0  0  0  0  0  0  0  0
    9.9879   -7.0421   20.9112 H   0  0  0  0  0  0  0  0  0  0  0  0
    8.4507   -5.2882   22.3699 H   0  0  0  0  0  0  0  0  0  0  0  0
    8.2436   -1.0112   23.3272 H   0  0  0  0  0  0  0  0  0  0  0  0
    6.8975   -1.6551   21.0614 H   0  0  0  0  0  0  0  0  0  0  0  0
   11.3590   -5.3683   21.9913 H   0  0  0  0  0  0  0  0  0  0  0  0
  1  2  1  0  0  0  0
  1  4  2  0  0  0  0
  2  5  2  0  0  0  0
  3  6  2  0  0  0  0
  3  7  1  0  0  0  0
  4 11  1  0  0  0  0
  5 12  1  0  0  0  0
  6 13  1  0  0  0  0
  7 15  2  0  0  0  0
  8 13  2  0  0  0  0
  8 15  1  0  0  0  0
  9 11  2  0  0  0  0
  9 27  1  0  0  0  0
 10 14  1  0  0  0  0
 10 27  2  0  0  0  0
 11 12  1  0  0  0  0
 12 14  2  0  0  0  0
 13 26  1  0  0  0  0
 14 29  1  0  0  0  0
 15 32  1  0  0  0  0
 16 26  1  6  0  0  0
 16 29  1  0  0  0  0
 16 31  2  0  0  0  0
 17 18  1  0  0  0  0
 17 19  1  0  0  0  0
 18 23  1  0  0  0  0
 19 24  1  0  0  0  0
 20 21  1  0  0  0  0
 20 25  1  0  0  0  0
 21 28  1  0  0  0  0
 22 25  1  0  0  0  0
 22 28  1  6  0  0  0
 23 30  1  0  0  0  0
 24 30  1  0  0  0  0
 25 30  1  6  0  0  0
 26 28  1  0  0  0  0
  1 33  1  0  0  0  0
  2 34  1  0  0  0  0
  3 35  1  0  0  0  0
  4 36  1  0  0  0  0
  5 37  1  0  0  0  0
  6 38  1  0  0  0  0
  7 39  1  0  0  0  0
  8 40  1  0  0  0  0
  9 41  1  0  0  0  0
 10 42  1  0  0  0  0
 17 43  1  0  0  0  0
 17 44  1  0  0  0  0
 18 45  1  0  0  0  0
 18 46  1  0  0  0  0
 19 47  1  0  0  0  0
 19 48  1  0  0  0  0
 20 49  1  0  0  0  0
 20 50  1  0  0  0  0
 21 51  1  0  0  0  0
 21 52  1  0  0  0  0
 22 53  1  0  0  0  0
 22 54  1  0  0  0  0
 23 55  1  0  0  0  0
 23 56  1  0  0  0  0
 24 57  1  0  0  0  0
 24 58  1  0  0  0  0
 25 59  1  0  0  0  0
 26 60  1  0  0  0  0
 29 61  1  0  0  0  0
 30 62  1  0  0  0  0
M  CHG  1  30   1
M  END
> <compound>
MIC-UNK-5a93dd5f-12

> <compound_smiles>
c1ccc2c(c1)cncc2NC(=O)C(c3cccc(c3)Cl)N4CCC(C4)N5CCCCC5

> <enantiomer_smiles>
c1ccc2c(c1)cncc2NC(=O)[C@H](c3cccc(c3)Cl)[N@]4CC[C@H](C4)N5CCCCC5

> <scaffold>
chlorobenzene-linker

> <clash_score>
6.074787170905339

> <docking_score>
-4.570491790771484

> <overlap_score>
0.9794909954071045

> <MMFF_internal_energy>
239.76784608779113

> <docked_smiles>
c1ccc2c(c1)cncc2NC(=O)[C@H](c3cccc(c3)Cl)[N@]4CC[C@H](C4)[NH+]5CCCCC5

$$$$
MIC-UNK-5a93dd5f-12_5
  -OEChem-07262101023D

 62 66  0     1  0  0  0  0  0999 V2000
    2.5650    1.0119   19.7905 C   0  0  0  0  0  0  0  0  0  0  0  0
    3.1657    0.4486   20.9139 C   0  0  0  0  0  0  0  0  0  0  0  0
   11.9780    0.4600   23.9150 C   0  0  0  0  0  0  0  0  0  0  0  0
    3.2959    1.1705   18.6133 C   0  0  0  0  0  0  0  0  0  0  0  0
    4.5001    0.0414   20.8653 C   0  0  0  0  0  0  0  0  0  0  0  0
   10.6560    0.0720   23.7350 C   0  0  0  0  0  0  0  0  0  0  0  0
   12.9840   -0.1200   23.1530 C   0  0  0  0  0  0  0  0  0  0  0  0
   11.3360   -1.5050   22.0650 C   0  0  0  0  0  0  0  0  0  0  0  0
    5.4171    0.8995   17.4014 C   0  0  0  0  0  0  0  0  0  0  0  0
    7.2639   -0.0211   18.4097 C   0  0  0  0  0  0  0  0  0  0  0  0
    4.6393    0.7642   18.5530 C   0  0  0  0  0  0  0  0  0  0  0  0
    5.2510    0.1935   19.6882 C   0  0  0  0  0  0  0  0  0  0  0  0
   10.3220   -0.8940   22.7910 C   0  0  0  0  0  0  0  0  0  0  0  0
    6.5904   -0.2048   19.6077 C   0  0  0  0  0  0  0  0  0  0  0  0
   12.6400   -1.1000   22.2390 C   0  0  0  0  0  0  0  0  0  0  0  0
    8.3880   -0.3240   21.3070 C   0  0  0  0  0  0  0  0  0  0  0  0
    2.3109   -0.2518   26.3159 C   0  0  0  0  0  0  0  0  0  0  0  0
    2.5099   -0.2597   24.8040 C   0  0  0  0  0  0  0  0  0  0  0  0
    3.6223    0.0226   27.0441 C   0  0  0  0  0  0  0  0  0  0  0  0
    7.1833   -1.6767   25.6469 C   0  0  0  0  0  0  0  0  0  0  0  0
    8.3953   -1.8341   24.7458 C   0  0  0  0  0  0  0  0  0  0  0  0
    6.6110   -1.2213   23.3333 C   0  0  0  0  0  0  0  0  0  0  0  0
    3.6087   -1.2259   24.3852 C   0  0  0  0  0  0  0  0  0  0  0  0
    4.7173   -0.9443   26.6172 C   0  0  0  0  0  0  0  0  0  0  0  0
    6.0365   -1.7305   24.6525 C   0  0  2  0  0  0  0  0  0  0  0  0
    8.8810   -1.1900   22.4510 C   0  0  1  0  0  0  0  0  0  0  0  0
    6.7116    0.5212   17.3036 N   0  0  0  0  0  0  0  0  0  0  0  0
    8.0322   -0.9797   23.6147 N   0  0  2  0  0  0  0  0  0  0  0  0
    7.2820   -0.7860   20.6970 N   0  0  0  0  0  0  0  0  0  0  0  0
    4.8845   -0.8827   25.1173 N   0  3  0  0  0  0  0  0  0  0  0  0
    8.9170    0.7530   21.0260 O   0  0  0  0  0  0  0  0  0  0  0  0
   13.8840   -1.8490   21.2740 Cl  0  0  0  0  0  0  0  0  0  0  0  0
    1.5267    1.3276   19.8311 H   0  0  0  0  0  0  0  0  0  0  0  0
    2.5946    0.3257   21.8297 H   0  0  0  0  0  0  0  0  0  0  0  0
   12.2249    1.2198   24.6546 H   0  0  0  0  0  0  0  0  0  0  0  0
    2.8114    1.6120   17.7455 H   0  0  0  0  0  0  0  0  0  0  0  0
    4.9338   -0.3933   21.7630 H   0  0  0  0  0  0  0  0  0  0  0  0
    9.8763    0.5350   24.3454 H   0  0  0  0  0  0  0  0  0  0  0  0
   14.0077    0.1988   23.2842 H   0  0  0  0  0  0  0  0  0  0  0  0
   11.0892   -2.3009   21.3624 H   0  0  0  0  0  0  0  0  0  0  0  0
    5.0078    1.3308   16.4920 H   0  0  0  0  0  0  0  0  0  0  0  0
    8.3038   -0.3142   18.2963 H   0  0  0  0  0  0  0  0  0  0  0  0
    1.5688    0.5067   26.5889 H   0  0  0  0  0  0  0  0  0  0  0  0
    1.9113   -1.2218   26.6366 H   0  0  0  0  0  0  0  0  0  0  0  0
    1.5708   -0.5385   24.3129 H   0  0  0  0  0  0  0  0  0  0  0  0
    2.7586    0.7521   24.4602 H   0  0  0  0  0  0  0  0  0  0  0  0
    3.9438    1.0530   26.8474 H   0  0  0  0  0  0  0  0  0  0  0  0
    3.4642   -0.0582   28.1255 H   0  0  0  0  0  0  0  0  0  0  0  0
    7.1182   -2.4691   26.3988 H   0  0  0  0  0  0  0  0  0  0  0  0
    7.2255   -0.7116   26.1681 H   0  0  0  0  0  0  0  0  0  0  0  0
    9.3118   -1.4963   25.2392 H   0  0  0  0  0  0  0  0  0  0  0  0
    8.5155   -2.8829   24.4460 H   0  0  0  0  0  0  0  0  0  0  0  0
    6.4662   -1.9888   22.5625 H   0  0  0  0  0  0  0  0  0  0  0  0
    6.1356   -0.2992   22.9818 H   0  0  0  0  0  0  0  0  0  0  0  0
    3.3541   -2.2636   24.6278 H   0  0  0  0  0  0  0  0  0  0  0  0
    3.8108   -1.1390   23.3127 H   0  0  0  0  0  0  0  0  0  0  0  0
    5.6756   -0.6652   27.0673 H   0  0  0  0  0  0  0  0  0  0  0  0
    4.4743   -1.9791   26.8831 H   0  0  0  0  0  0  0  0  0  0  0  0
    5.6567   -2.7530   24.5454 H   0  0  0  0  0  0  0  0  0  0  0  0
    8.7711   -2.2448   22.1651 H   0  0  0  0  0  0  0  0  0  0  0  0
    6.8975   -1.6551   21.0614 H   0  0  0  0  0  0  0  0  0  0  0  0
    5.1234    0.0892   24.8762 H   0  0  0  0  0  0  0  0  0  0  0  0
  1  2  1  0  0  0  0
  1  4  2  0  0  0  0
  2  5  2  0  0  0  0
  3  6  2  0  0  0  0
  3  7  1  0  0  0  0
  4 11  1  0  0  0  0
  5 12  1  0  0  0  0
  6 13  1  0  0  0  0
  7 15  2  0  0  0  0
  8 13  2  0  0  0  0
  8 15  1  0  0  0  0
  9 11  2  0  0  0  0
  9 27  1  0  0  0  0
 10 14  1  0  0  0  0
 10 27  2  0  0  0  0
 11 12  1  0  0  0  0
 12 14  2  0  0  0  0
 13 26  1  0  0  0  0
 14 29  1  0  0  0  0
 15 32  1  0  0  0  0
 16 26  1  1  0  0  0
 16 29  1  0  0  0  0
 16 31  2  0  0  0  0
 17 18  1  0  0  0  0
 17 19  1  0  0  0  0
 18 23  1  0  0  0  0
 19 24  1  0  0  0  0
 20 21  1  0  0  0  0
 20 25  1  0  0  0  0
 21 28  1  0  0  0  0
 22 25  1  0  0  0  0
 22 28  1  1  0  0  0
 23 30  1  0  0  0  0
 24 30  1  0  0  0  0
 25 30  1  6  0  0  0
 26 28  1  0  0  0  0
  1 33  1  0  0  0  0
  2 34  1  0  0  0  0
  3 35  1  0  0  0  0
  4 36  1  0  0  0  0
  5 37  1  0  0  0  0
  6 38  1  0  0  0  0
  7 39  1  0  0  0  0
  8 40  1  0  0  0  0
  9 41  1  0  0  0  0
 10 42  1  0  0  0  0
 17 43  1  0  0  0  0
 17 44  1  0  0  0  0
 18 45  1  0  0  0  0
 18 46  1  0  0  0  0
 19 47  1  0  0  0  0
 19 48  1  0  0  0  0
 20 49  1  0  0  0  0
 20 50  1  0  0  0  0
 21 51  1  0  0  0  0
 21 52  1  0  0  0  0
 22 53  1  0  0  0  0
 22 54  1  0  0  0  0
 23 55  1  0  0  0  0
 23 56  1  0  0  0  0
 24 57  1  0  0  0  0
 24 58  1  0  0  0  0
 25 59  1  0  0  0  0
 26 60  1  0  0  0  0
 29 61  1  0  0  0  0
 30 62  1  0  0  0  0
M  CHG  1  30   1
M  END
> <compound>
MIC-UNK-5a93dd5f-12

> <compound_smiles>
c1ccc2c(c1)cncc2NC(=O)C(c3cccc(c3)Cl)N4CCC(C4)N5CCCCC5

> <enantiomer_smiles>
c1ccc2c(c1)cncc2NC(=O)[C@@H](c3cccc(c3)Cl)[N@@]4CC[C@H](C4)N5CCCCC5

> <scaffold>
chlorobenzene-linker

> <clash_score>
0.6588797671232264

> <docking_score>
-4.049156665802002

> <overlap_score>
0.894136369228363

> <MMFF_internal_energy>
211.7846506284695

> <docked_smiles>
c1ccc2c(c1)cncc2NC(=O)[C@@H](c3cccc(c3)Cl)[N@@]4CC[C@H](C4)[NH+]5CCCCC5

$$$$
MIC-UNK-5a93dd5f-12_6
  -OEChem-07262101023D

 62 66  0     1  0  0  0  0  0999 V2000
    2.5650    1.0119   19.7905 C   0  0  0  0  0  0  0  0  0  0  0  0
    3.1657    0.4486   20.9139 C   0  0  0  0  0  0  0  0  0  0  0  0
   11.9780    0.4600   23.9150 C   0  0  0  0  0  0  0  0  0  0  0  0
    3.2959    1.1705   18.6133 C   0  0  0  0  0  0  0  0  0  0  0  0
    4.5001    0.0414   20.8653 C   0  0  0  0  0  0  0  0  0  0  0  0
   10.6560    0.0720   23.7350 C   0  0  0  0  0  0  0  0  0  0  0  0
   12.9840   -0.1200   23.1530 C   0  0  0  0  0  0  0  0  0  0  0  0
   11.3360   -1.5050   22.0650 C   0  0  0  0  0  0  0  0  0  0  0  0
    5.4171    0.8995   17.4014 C   0  0  0  0  0  0  0  0  0  0  0  0
    7.2639   -0.0211   18.4097 C   0  0  0  0  0  0  0  0  0  0  0  0
    4.6393    0.7642   18.5530 C   0  0  0  0  0  0  0  0  0  0  0  0
    5.2510    0.1935   19.6882 C   0  0  0  0  0  0  0  0  0  0  0  0
   10.3220   -0.8940   22.7910 C   0  0  0  0  0  0  0  0  0  0  0  0
    6.5904   -0.2048   19.6077 C   0  0  0  0  0  0  0  0  0  0  0  0
   12.6400   -1.1000   22.2390 C   0  0  0  0  0  0  0  0  0  0  0  0
    8.3880   -0.3240   21.3070 C   0  0  0  0  0  0  0  0  0  0  0  0
   10.6091   -7.1316   18.4456 C   0  0  0  0  0  0  0  0  0  0  0  0
   10.6076   -5.6620   18.0382 C   0  0  0  0  0  0  0  0  0  0  0  0
   10.1744   -7.3112   19.8962 C   0  0  0  0  0  0  0  0  0  0  0  0
    9.4421   -4.7853   22.1528 C   0  0  0  0  0  0  0  0  0  0  0  0
    9.5133   -3.4865   22.9363 C   0  0  0  0  0  0  0  0  0  0  0  0
    9.0935   -2.8736   20.6996 C   0  0  0  0  0  0  0  0  0  0  0  0
    9.2669   -4.9993   18.3212 C   0  0  0  0  0  0  0  0  0  0  0  0
    8.8356   -6.6411   20.1713 C   0  0  0  0  0  0  0  0  0  0  0  0
    9.6201   -4.3061   20.7226 C   0  0  2  0  0  0  0  0  0  0  0  0
    8.8810   -1.1900   22.4510 C   0  0  2  0  0  0  0  0  0  0  0  0
    6.7116    0.5212   17.3036 N   0  0  0  0  0  0  0  0  0  0  0  0
    8.7211   -2.5914   22.0921 N   0  0  2  0  0  0  0  0  0  0  0  0
    7.2820   -0.7860   20.6970 N   0  0  0  0  0  0  0  0  0  0  0  0
    8.8657   -5.1878   19.7643 N   0  3  0  0  0  0  0  0  0  0  0  0
    8.9170    0.7530   21.0260 O   0  0  0  0  0  0  0  0  0  0  0  0
   13.8840   -1.8490   21.2740 Cl  0  0  0  0  0  0  0  0  0  0  0  0
    1.5267    1.3276   19.8311 H   0  0  0  0  0  0  0  0  0  0  0  0
    2.5946    0.3257   21.8297 H   0  0  0  0  0  0  0  0  0  0  0  0
   12.2249    1.2198   24.6546 H   0  0  0  0  0  0  0  0  0  0  0  0
    2.8114    1.6119   17.7455 H   0  0  0  0  0  0  0  0  0  0  0  0
    4.9338   -0.3933   21.7630 H   0  0  0  0  0  0  0  0  0  0  0  0
    9.8763    0.5350   24.3454 H   0  0  0  0  0  0  0  0  0  0  0  0
   14.0077    0.1988   23.2842 H   0  0  0  0  0  0  0  0  0  0  0  0
   11.0892   -2.3009   21.3624 H   0  0  0  0  0  0  0  0  0  0  0  0
    5.0078    1.3308   16.4920 H   0  0  0  0  0  0  0  0  0  0  0  0
    8.3038   -0.3142   18.2963 H   0  0  0  0  0  0  0  0  0  0  0  0
    9.9426   -7.7005   17.7854 H   0  0  0  0  0  0  0  0  0  0  0  0
   11.6175   -7.5461   18.3129 H   0  0  0  0  0  0  0  0  0  0  0  0
   11.3993   -5.1316   18.5794 H   0  0  0  0  0  0  0  0  0  0  0  0
   10.8424   -5.5760   16.9698 H   0  0  0  0  0  0  0  0  0  0  0  0
   10.1053   -8.3810   20.1300 H   0  0  0  0  0  0  0  0  0  0  0  0
   10.9371   -6.8910   20.5615 H   0  0  0  0  0  0  0  0  0  0  0  0
   10.2191   -5.4951   22.4525 H   0  0  0  0  0  0  0  0  0  0  0  0
    8.4649   -5.2620   22.3039 H   0  0  0  0  0  0  0  0  0  0  0  0
    9.0846   -3.5947   23.9372 H   0  0  0  0  0  0  0  0  0  0  0  0
   10.5542   -3.1509   23.0267 H   0  0  0  0  0  0  0  0  0  0  0  0
    9.8888   -2.2081   20.3407 H   0  0  0  0  0  0  0  0  0  0  0  0
    8.2254   -2.7424   20.0446 H   0  0  0  0  0  0  0  0  0  0  0  0
    9.2983   -3.9153   18.1237 H   0  0  0  0  0  0  0  0  0  0  0  0
    8.4765   -5.4472   17.6987 H   0  0  0  0  0  0  0  0  0  0  0  0
    8.0347   -7.1283   19.5931 H   0  0  0  0  0  0  0  0  0  0  0  0
    8.5720   -6.6815   21.2409 H   0  0  0  0  0  0  0  0  0  0  0  0
   10.6743   -4.3405   20.4248 H   0  0  0  0  0  0  0  0  0  0  0  0
    8.2436   -1.0112   23.3272 H   0  0  0  0  0  0  0  0  0  0  0  0
    6.8975   -1.6551   21.0614 H   0  0  0  0  0  0  0  0  0  0  0  0
    7.8582   -4.8576   19.8225 H   0  0  0  0  0  0  0  0  0  0  0  0
  1  2  1  0  0  0  0
  1  4  2  0  0  0  0
  2  5  2  0  0  0  0
  3  6  2  0  0  0  0
  3  7  1  0  0  0  0
  4 11  1  0  0  0  0
  5 12  1  0  0  0  0
  6 13  1  0  0  0  0
  7 15  2  0  0  0  0
  8 13  2  0  0  0  0
  8 15  1  0  0  0  0
  9 11  2  0  0  0  0
  9 27  1  0  0  0  0
 10 14  1  0  0  0  0
 10 27  2  0  0  0  0
 11 12  1  0  0  0  0
 12 14  2  0  0  0  0
 13 26  1  0  0  0  0
 14 29  1  0  0  0  0
 15 32  1  0  0  0  0
 16 26  1  6  0  0  0
 16 29  1  0  0  0  0
 16 31  2  0  0  0  0
 17 18  1  0  0  0  0
 17 19  1  0  0  0  0
 18 23  1  0  0  0  0
 19 24  1  0  0  0  0
 20 21  1  0  0  0  0
 20 25  1  0  0  0  0
 21 28  1  0  0  0  0
 22 25  1  0  0  0  0
 22 28  1  1  0  0  0
 23 30  1  0  0  0  0
 24 30  1  0  0  0  0
 25 30  1  6  0  0  0
 26 28  1  0  0  0  0
  1 33  1  0  0  0  0
  2 34  1  0  0  0  0
  3 35  1  0  0  0  0
  4 36  1  0  0  0  0
  5 37  1  0  0  0  0
  6 38  1  0  0  0  0
  7 39  1  0  0  0  0
  8 40  1  0  0  0  0
  9 41  1  0  0  0  0
 10 42  1  0  0  0  0
 17 43  1  0  0  0  0
 17 44  1  0  0  0  0
 18 45  1  0  0  0  0
 18 46  1  0  0  0  0
 19 47  1  0  0  0  0
 19 48  1  0  0  0  0
 20 49  1  0  0  0  0
 20 50  1  0  0  0  0
 21 51  1  0  0  0  0
 21 52  1  0  0  0  0
 22 53  1  0  0  0  0
 22 54  1  0  0  0  0
 23 55  1  0  0  0  0
 23 56  1  0  0  0  0
 24 57  1  0  0  0  0
 24 58  1  0  0  0  0
 25 59  1  0  0  0  0
 26 60  1  0  0  0  0
 29 61  1  0  0  0  0
 30 62  1  0  0  0  0
M  CHG  1  30   1
M  END
> <compound>
MIC-UNK-5a93dd5f-12

> <compound_smiles>
c1ccc2c(c1)cncc2NC(=O)C(c3cccc(c3)Cl)N4CCC(C4)N5CCCCC5

> <enantiomer_smiles>
c1ccc2c(c1)cncc2NC(=O)[C@H](c3cccc(c3)Cl)[N@@]4CC[C@H](C4)N5CCCCC5

> <scaffold>
chlorobenzene-linker

> <clash_score>
7.936902354423832

> <docking_score>
2.635025978088379

> <overlap_score>
0.8960240483283997

> <MMFF_internal_energy>
225.78288709119536

> <docked_smiles>
c1ccc2c(c1)cncc2NC(=O)[C@H](c3cccc(c3)Cl)[N@@]4CC[C@H](C4)[NH+]5CCCCC5

$$$$
MIC-UNK-67d4a29a-1_1
  -OEChem-07262101023D

 37 39  0     0  0  0  0  0  0999 V2000
    4.7338    3.6958   20.3570 C   0  0  0  0  0  0  0  0  0  0  0  0
   11.9780    0.4600   23.9150 C   0  0  0  0  0  0  0  0  0  0  0  0
    4.6665    3.0712   19.1118 C   0  0  0  0  0  0  0  0  0  0  0  0
   10.6560    0.0720   23.7350 C   0  0  0  0  0  0  0  0  0  0  0  0
    5.4107    3.0832   21.4090 C   0  0  0  0  0  0  0  0  0  0  0  0
   12.9840   -0.1200   23.1530 C   0  0  0  0  0  0  0  0  0  0  0  0
   11.3360   -1.5050   22.0650 C   0  0  0  0  0  0  0  0  0  0  0  0
    5.2433    1.1538   17.6861 C   0  0  0  0  0  0  0  0  0  0  0  0
    6.4681   -0.6136   18.4931 C   0  0  0  0  0  0  0  0  0  0  0  0
    5.2794    1.8233   18.9109 C   0  0  0  0  0  0  0  0  0  0  0  0
    5.9658    1.1998   19.9734 C   0  0  0  0  0  0  0  0  0  0  0  0
   10.3220   -0.8940   22.7910 C   0  0  0  0  0  0  0  0  0  0  0  0
    6.5698   -0.0434   19.7529 C   0  0  0  0  0  0  0  0  0  0  0  0
   12.6400   -1.1000   22.2390 C   0  0  0  0  0  0  0  0  0  0  0  0
    6.0236    1.8432   21.2205 C   0  0  0  0  0  0  0  0  0  0  0  0
    8.3880   -0.3240   21.3070 C   0  0  0  0  0  0  0  0  0  0  0  0
    6.7287   -2.1088   21.1223 C   0  0  0  0  0  0  0  0  0  0  0  0
    8.8810   -1.1900   22.4510 C   0  0  0  0  0  0  0  0  0  0  0  0
    5.8201   -0.0468   17.4531 N   0  0  0  0  0  0  0  0  0  0  0  0
    7.2820   -0.7860   20.6970 N   0  0  0  0  0  0  0  0  0  0  0  0
    8.9170    0.7530   21.0260 O   0  0  0  0  0  0  0  0  0  0  0  0
   13.8840   -1.8490   21.2740 Cl  0  0  0  0  0  0  0  0  0  0  0  0
    6.8162    1.2401   22.6454 Cl  0  0  0  0  0  0  0  0  0  0  0  0
    4.2571    4.6604   20.5070 H   0  0  0  0  0  0  0  0  0  0  0  0
   12.2249    1.2198   24.6546 H   0  0  0  0  0  0  0  0  0  0  0  0
    4.1329    3.5630   18.3016 H   0  0  0  0  0  0  0  0  0  0  0  0
    9.8763    0.5350   24.3454 H   0  0  0  0  0  0  0  0  0  0  0  0
    5.4472    3.5932   22.3691 H   0  0  0  0  0  0  0  0  0  0  0  0
   14.0077    0.1988   23.2842 H   0  0  0  0  0  0  0  0  0  0  0  0
   11.0892   -2.3008   21.3624 H   0  0  0  0  0  0  0  0  0  0  0  0
    4.7310    1.5781   16.8271 H   0  0  0  0  0  0  0  0  0  0  0  0
    6.9184   -1.5763   18.2676 H   0  0  0  0  0  0  0  0  0  0  0  0
    7.1190   -2.8989   20.4639 H   0  0  0  0  0  0  0  0  0  0  0  0
    7.0290   -2.3151   22.1602 H   0  0  0  0  0  0  0  0  0  0  0  0
    5.6310   -2.0854   21.0559 H   0  0  0  0  0  0  0  0  0  0  0  0
    8.8006   -2.2403   22.1717 H   0  0  0  0  0  0  0  0  0  0  0  0
    8.2668   -1.0117   23.3332 H   0  0  0  0  0  0  0  0  0  0  0  0
  1  3  2  0  0  0  0
  1  5  1  0  0  0  0
  2  4  2  0  0  0  0
  2  6  1  0  0  0  0
  3 10  1  0  0  0  0
  4 12  1  0  0  0  0
  5 15  2  0  0  0  0
  6 14  2  0  0  0  0
  7 12  2  0  0  0  0
  7 14  1  0  0  0  0
  8 10  2  0  0  0  0
  8 19  1  0  0  0  0
  9 13  1  0  0  0  0
  9 19  2  0  0  0  0
 10 11  1  0  0  0  0
 11 13  2  0  0  0  0
 11 15  1  0  0  0  0
 12 18  1  0  0  0  0
 13 20  1  0  0  0  0
 14 22  1  0  0  0  0
 15 23  1  0  0  0  0
 16 18  1  0  0  0  0
 16 20  1  0  0  0  0
 16 21  2  0  0  0  0
 17 20  1  0  0  0  0
  1 24  1  0  0  0  0
  2 25  1  0  0  0  0
  3 26  1  0  0  0  0
  4 27  1  0  0  0  0
  5 28  1  0  0  0  0
  6 29  1  0  0  0  0
  7 30  1  0  0  0  0
  8 31  1  0  0  0  0
  9 32  1  0  0  0  0
 17 33  1  0  0  0  0
 17 34  1  0  0  0  0
 17 35  1  0  0  0  0
 18 36  1  0  0  0  0
 18 37  1  0  0  0  0
M  END
> <compound>
MIC-UNK-67d4a29a-1

> <compound_smiles>
CN(c1cncc2c1c(ccc2)Cl)C(=O)Cc3cccc(c3)Cl

> <enantiomer_smiles>
CN(c1cncc2c1c(ccc2)Cl)C(=O)Cc3cccc(c3)Cl

> <scaffold>
chlorobenzene-linker

> <clash_score>
0

> <docking_score>
-6.237610816955566

> <overlap_score>
0.8716977834701538

> <MMFF_internal_energy>
135.91306512288068

> <docked_smiles>
CN(c1cncc2c1c(ccc2)Cl)C(=O)Cc3cccc(c3)Cl

$$$$
MIC-UNK-67d4a29a-3_1
  -OEChem-07262101023D

 40 42  0     0  0  0  0  0  0999 V2000
    4.4605    2.8797   18.4434 C   0  0  0  0  0  0  0  0  0  0  0  0
   11.9780    0.4600   23.9150 C   0  0  0  0  0  0  0  0  0  0  0  0
    4.9773    2.0673   17.4344 C   0  0  0  0  0  0  0  0  0  0  0  0
    4.7545    2.6072   19.7774 C   0  0  0  0  0  0  0  0  0  0  0  0
   10.6560    0.0720   23.7350 C   0  0  0  0  0  0  0  0  0  0  0  0
   12.9840   -0.1200   23.1530 C   0  0  0  0  0  0  0  0  0  0  0  0
   11.3360   -1.5050   22.0650 C   0  0  0  0  0  0  0  0  0  0  0  0
    6.3391    0.1262   16.7867 C   0  0  0  0  0  0  0  0  0  0  0  0
    7.3957   -1.1738   18.3578 C   0  0  0  0  0  0  0  0  0  0  0  0
    5.7954    0.9716   17.7559 C   0  0  0  0  0  0  0  0  0  0  0  0
    6.0954    0.6925   19.1052 C   0  0  0  0  0  0  0  0  0  0  0  0
   10.3220   -0.8940   22.7910 C   0  0  0  0  0  0  0  0  0  0  0  0
    5.5666    1.5210   20.1084 C   0  0  0  0  0  0  0  0  0  0  0  0
    6.9125   -0.4038   19.4047 C   0  0  0  0  0  0  0  0  0  0  0  0
   12.6400   -1.1000   22.2390 C   0  0  0  0  0  0  0  0  0  0  0  0
    8.3880   -0.3240   21.3070 C   0  0  0  0  0  0  0  0  0  0  0  0
    5.8112    1.3296   21.5737 C   0  0  0  0  0  0  0  0  0  0  0  0
    6.3502   -1.6641   21.4692 C   0  0  0  0  0  0  0  0  0  0  0  0
    8.8810   -1.1900   22.4510 C   0  0  0  0  0  0  0  0  0  0  0  0
    7.1300   -0.9370   17.0555 N   0  0  0  0  0  0  0  0  0  0  0  0
    7.2820   -0.7860   20.6970 N   0  0  0  0  0  0  0  0  0  0  0  0
    8.9170    0.7530   21.0260 O   0  0  0  0  0  0  0  0  0  0  0  0
   13.8840   -1.8490   21.2740 Cl  0  0  0  0  0  0  0  0  0  0  0  0
    3.8284    3.7253   18.1883 H   0  0  0  0  0  0  0  0  0  0  0  0
   12.2249    1.2198   24.6546 H   0  0  0  0  0  0  0  0  0  0  0  0
    4.7382    2.2945   16.3980 H   0  0  0  0  0  0  0  0  0  0  0  0
    4.3432    3.2493   20.5523 H   0  0  0  0  0  0  0  0  0  0  0  0
    9.8763    0.5350   24.3454 H   0  0  0  0  0  0  0  0  0  0  0  0
   14.0077    0.1988   23.2842 H   0  0  0  0  0  0  0  0  0  0  0  0
   11.0892   -2.3009   21.3624 H   0  0  0  0  0  0  0  0  0  0  0  0
    6.1471    0.2851   15.7290 H   0  0  0  0  0  0  0  0  0  0  0  0
    8.0330   -2.0355   18.5357 H   0  0  0  0  0  0  0  0  0  0  0  0
    5.0418    0.6786   22.0009 H   0  0  0  0  0  0  0  0  0  0  0  0
    6.7936    0.8789   21.7515 H   0  0  0  0  0  0  0  0  0  0  0  0
    5.7957    2.2890   22.1023 H   0  0  0  0  0  0  0  0  0  0  0  0
    6.5944   -2.7190   21.2754 H   0  0  0  0  0  0  0  0  0  0  0  0
    6.4557   -1.4550   22.5440 H   0  0  0  0  0  0  0  0  0  0  0  0
    5.3147   -1.4642   21.1567 H   0  0  0  0  0  0  0  0  0  0  0  0
    8.8006   -2.2403   22.1717 H   0  0  0  0  0  0  0  0  0  0  0  0
    8.2668   -1.0117   23.3332 H   0  0  0  0  0  0  0  0  0  0  0  0
  1  3  1  0  0  0  0
  1  4  2  0  0  0  0
  2  5  2  0  0  0  0
  2  6  1  0  0  0  0
  3 10  2  0  0  0  0
  4 13  1  0  0  0  0
  5 12  1  0  0  0  0
  6 15  2  0  0  0  0
  7 12  2  0  0  0  0
  7 15  1  0  0  0  0
  8 10  1  0  0  0  0
  8 20  2  0  0  0  0
  9 14  2  0  0  0  0
  9 20  1  0  0  0  0
 10 11  1  0  0  0  0
 11 13  2  0  0  0  0
 11 14  1  0  0  0  0
 12 19  1  0  0  0  0
 13 17  1  0  0  0  0
 14 21  1  0  0  0  0
 15 23  1  0  0  0  0
 16 19  1  0  0  0  0
 16 21  1  0  0  0  0
 16 22  2  0  0  0  0
 18 21  1  0  0  0  0
  1 24  1  0  0  0  0
  2 25  1  0  0  0  0
  3 26  1  0  0  0  0
  4 27  1  0  0  0  0
  5 28  1  0  0  0  0
  6 29  1  0  0  0  0
  7 30  1  0  0  0  0
  8 31  1  0  0  0  0
  9 32  1  0  0  0  0
 17 33  1  0  0  0  0
 17 34  1  0  0  0  0
 17 35  1  0  0  0  0
 18 36  1  0  0  0  0
 18 37  1  0  0  0  0
 18 38  1  0  0  0  0
 19 39  1  0  0  0  0
 19 40  1  0  0  0  0
M  END
> <compound>
MIC-UNK-67d4a29a-3

> <compound_smiles>
Cc1cccc2c1c(cnc2)N(C)C(=O)Cc3cccc(c3)Cl

> <enantiomer_smiles>
Cc1cccc2c1c(cnc2)N(C)C(=O)Cc3cccc(c3)Cl

> <scaffold>
chlorobenzene-linker

> <clash_score>
0

> <docking_score>
-3.341309070587158

> <overlap_score>
0.911333441734314

> <MMFF_internal_energy>
139.3459044464755

> <docked_smiles>
Cc1cccc2c1c(cnc2)N(C)C(=O)Cc3cccc(c3)Cl

$$$$
MAK-UNK-c749d764-6_2
  -OEChem-07262101023D

 56 58  0     1  0  0  0  0  0999 V2000
    3.4829    2.5990   20.0545 C   0  0  0  0  0  0  0  0  0  0  0  0
    4.1078    2.0778   21.1851 C   0  0  0  0  0  0  0  0  0  0  0  0
   11.9780    0.4600   23.9150 C   0  0  0  0  0  0  0  0  0  0  0  0
    3.8872    2.1924   18.7832 C   0  0  0  0  0  0  0  0  0  0  0  0
    5.1399    1.1477   21.0494 C   0  0  0  0  0  0  0  0  0  0  0  0
   10.6560    0.0720   23.7350 C   0  0  0  0  0  0  0  0  0  0  0  0
   12.9840   -0.1200   23.1530 C   0  0  0  0  0  0  0  0  0  0  0  0
   11.3360   -1.5050   22.0650 C   0  0  0  0  0  0  0  0  0  0  0  0
    5.3690    0.8152   17.3870 C   0  0  0  0  0  0  0  0  0  0  0  0
    6.9479   -0.5684   18.3184 C   0  0  0  0  0  0  0  0  0  0  0  0
    4.9246    1.2569   18.6348 C   0  0  0  0  0  0  0  0  0  0  0  0
    5.5598    0.7270   19.7769 C   0  0  0  0  0  0  0  0  0  0  0  0
   10.3220   -0.8940   22.7910 C   0  0  0  0  0  0  0  0  0  0  0  0
    6.5912   -0.2039   19.6077 C   0  0  0  0  0  0  0  0  0  0  0  0
   12.6400   -1.1000   22.2390 C   0  0  0  0  0  0  0  0  0  0  0  0
    8.3880   -0.3240   21.3070 C   0  0  0  0  0  0  0  0  0  0  0  0
    9.3569   -3.6322   23.1659 C   0  0  0  0  0  0  0  0  0  0  0  0
   10.0372   -5.1178   18.8593 C   0  0  0  0  0  0  0  0  0  0  0  0
    8.5553   -4.7860   18.8988 C   0  0  0  0  0  0  0  0  0  0  0  0
    8.9748   -3.1287   20.7198 C   0  0  0  0  0  0  0  0  0  0  0  0
   10.4486   -5.6583   17.4974 C   0  0  0  0  0  0  0  0  0  0  0  0
    8.8810   -1.1900   22.4510 C   0  0  1  0  0  0  0  0  0  0  0  0
    8.6228   -2.7224   22.1659 C   0  0  2  0  0  0  0  0  0  0  0  0
    6.3631   -0.0826   17.2027 N   0  0  0  0  0  0  0  0  0  0  0  0
    7.2820   -0.7860   20.6970 N   0  0  0  0  0  0  0  0  0  0  0  0
    8.1990   -4.3061   20.2624 N   0  3  0  0  0  0  0  0  0  0  0  0
    8.9170    0.7530   21.0260 O   0  0  0  0  0  0  0  0  0  0  0  0
   10.1593   -4.6804   16.5079 O   0  0  0  0  0  0  0  0  0  0  0  0
   13.8840   -1.8490   21.2740 Cl  0  0  0  0  0  0  0  0  0  0  0  0
    2.6801    3.3223   20.1631 H   0  0  0  0  0  0  0  0  0  0  0  0
    3.7912    2.3956   22.1744 H   0  0  0  0  0  0  0  0  0  0  0  0
   12.2249    1.2198   24.6546 H   0  0  0  0  0  0  0  0  0  0  0  0
    3.3884    2.6092   17.9112 H   0  0  0  0  0  0  0  0  0  0  0  0
    5.6035    0.7643   21.9554 H   0  0  0  0  0  0  0  0  0  0  0  0
    9.8763    0.5350   24.3454 H   0  0  0  0  0  0  0  0  0  0  0  0
   14.0077    0.1988   23.2842 H   0  0  0  0  0  0  0  0  0  0  0  0
   11.0892   -2.3009   21.3624 H   0  0  0  0  0  0  0  0  0  0  0  0
    4.9229    1.1830   16.4670 H   0  0  0  0  0  0  0  0  0  0  0  0
    7.7413   -1.2873   18.1342 H   0  0  0  0  0  0  0  0  0  0  0  0
   10.4405   -3.4843   23.1042 H   0  0  0  0  0  0  0  0  0  0  0  0
    9.0622   -3.4090   24.1962 H   0  0  0  0  0  0  0  0  0  0  0  0
    9.1465   -4.6905   22.9805 H   0  0  0  0  0  0  0  0  0  0  0  0
   10.2867   -5.8552   19.6330 H   0  0  0  0  0  0  0  0  0  0  0  0
   10.6366   -4.2286   19.0929 H   0  0  0  0  0  0  0  0  0  0  0  0
    7.9333   -5.6633   18.6984 H   0  0  0  0  0  0  0  0  0  0  0  0
    8.2963   -3.9834   18.2020 H   0  0  0  0  0  0  0  0  0  0  0  0
    8.7736   -2.3270   20.0041 H   0  0  0  0  0  0  0  0  0  0  0  0
   10.0316   -3.4026   20.6348 H   0  0  0  0  0  0  0  0  0  0  0  0
    9.8955   -6.5717   17.2565 H   0  0  0  0  0  0  0  0  0  0  0  0
   11.5215   -5.8737   17.4707 H   0  0  0  0  0  0  0  0  0  0  0  0
    8.2678   -0.9572   23.3517 H   0  0  0  0  0  0  0  0  0  0  0  0
    7.5494   -2.9234   22.2832 H   0  0  0  0  0  0  0  0  0  0  0  0
    6.8771   -1.6492   21.0526 H   0  0  0  0  0  0  0  0  0  0  0  0
    7.1931   -4.0821   20.2851 H   0  0  0  0  0  0  0  0  0  0  0  0
    8.3251   -5.0797   20.9319 H   0  0  0  0  0  0  0  0  0  0  0  0
   10.4325   -5.0552   15.6549 H   0  0  0  0  0  0  0  0  0  0  0  0
  1  2  1  0  0  0  0
  1  4  2  0  0  0  0
  2  5  2  0  0  0  0
  3  6  2  0  0  0  0
  3  7  1  0  0  0  0
  4 11  1  0  0  0  0
  5 12  1  0  0  0  0
  6 13  1  0  0  0  0
  7 15  2  0  0  0  0
  8 13  2  0  0  0  0
  8 15  1  0  0  0  0
  9 11  2  0  0  0  0
  9 24  1  0  0  0  0
 10 14  1  0  0  0  0
 10 24  2  0  0  0  0
 11 12  1  0  0  0  0
 12 14  2  0  0  0  0
 13 22  1  0  0  0  0
 14 25  1  0  0  0  0
 15 29  1  0  0  0  0
 16 22  1  1  0  0  0
 16 25  1  0  0  0  0
 16 27  2  0  0  0  0
 17 23  1  6  0  0  0
 18 19  1  0  0  0  0
 18 21  1  0  0  0  0
 19 26  1  0  0  0  0
 20 23  1  0  0  0  0
 20 26  1  0  0  0  0
 21 28  1  0  0  0  0
 22 23  1  0  0  0  0
  1 30  1  0  0  0  0
  2 31  1  0  0  0  0
  3 32  1  0  0  0  0
  4 33  1  0  0  0  0
  5 34  1  0  0  0  0
  6 35  1  0  0  0  0
  7 36  1  0  0  0  0
  8 37  1  0  0  0  0
  9 38  1  0  0  0  0
 10 39  1  0  0  0  0
 17 40  1  0  0  0  0
 17 41  1  0  0  0  0
 17 42  1  0  0  0  0
 18 43  1  0  0  0  0
 18 44  1  0  0  0  0
 19 45  1  0  0  0  0
 19 46  1  0  0  0  0
 20 47  1  0  0  0  0
 20 48  1  0  0  0  0
 21 49  1  0  0  0  0
 21 50  1  0  0  0  0
 22 51  1  0  0  0  0
 23 52  1  0  0  0  0
 25 53  1  0  0  0  0
 26 54  1  0  0  0  0
 26 55  1  0  0  0  0
 28 56  1  0  0  0  0
M  CHG  1  26   1
M  END
> <compound>
MAK-UNK-c749d764-6

> <compound_smiles>
CC(CNCCCO)C(c1cccc(c1)Cl)C(=O)Nc2cncc3c2cccc3

> <enantiomer_smiles>
C[C@H](CNCCCO)[C@@H](c1cccc(c1)Cl)C(=O)Nc2cncc3c2cccc3

> <scaffold>
chlorobenzene-linker

> <clash_score>
4.680083938840849

> <docking_score>
-4.627861022949219

> <overlap_score>
0.9813868999481201

> <MMFF_internal_energy>
137.07680154516424

> <docked_smiles>
C[C@H](C[NH2+]CCCO)[C@@H](c1cccc(c1)Cl)C(=O)Nc2cncc3c2cccc3

$$$$
MIC-UNK-67d4a29a-4_1
  -OEChem-07262101023D

 41 43  0     0  0  0  0  0  0999 V2000
    4.7776    3.6961   20.4819 C   0  0  0  0  0  0  0  0  0  0  0  0
   11.9780    0.4600   23.9150 C   0  0  0  0  0  0  0  0  0  0  0  0
    4.6872    3.1058   19.2216 C   0  0  0  0  0  0  0  0  0  0  0  0
   10.6560    0.0720   23.7350 C   0  0  0  0  0  0  0  0  0  0  0  0
    5.4633    3.0494   21.5075 C   0  0  0  0  0  0  0  0  0  0  0  0
   12.9840   -0.1200   23.1530 C   0  0  0  0  0  0  0  0  0  0  0  0
   11.3360   -1.5050   22.0650 C   0  0  0  0  0  0  0  0  0  0  0  0
    5.2261    1.2223   17.7371 C   0  0  0  0  0  0  0  0  0  0  0  0
    6.4453   -0.5771   18.4792 C   0  0  0  0  0  0  0  0  0  0  0  0
    5.2855    1.8583   18.9787 C   0  0  0  0  0  0  0  0  0  0  0  0
    5.9806    1.2003   20.0144 C   0  0  0  0  0  0  0  0  0  0  0  0
   10.3220   -0.8940   22.7910 C   0  0  0  0  0  0  0  0  0  0  0  0
    6.5697   -0.0420   19.7522 C   0  0  0  0  0  0  0  0  0  0  0  0
    6.0618    1.8094   21.2774 C   0  0  0  0  0  0  0  0  0  0  0  0
   12.6400   -1.1000   22.2390 C   0  0  0  0  0  0  0  0  0  0  0  0
    8.3880   -0.3240   21.3070 C   0  0  0  0  0  0  0  0  0  0  0  0
    6.7274   -2.1081   21.1207 C   0  0  0  0  0  0  0  0  0  0  0  0
    6.7136    1.9765   23.5583 C   0  0  0  0  0  0  0  0  0  0  0  0
    8.8810   -1.1900   22.4510 C   0  0  0  0  0  0  0  0  0  0  0  0
    5.7883    0.0232   17.4640 N   0  0  0  0  0  0  0  0  0  0  0  0
    7.2820   -0.7860   20.6970 N   0  0  0  0  0  0  0  0  0  0  0  0
    8.9170    0.7530   21.0260 O   0  0  0  0  0  0  0  0  0  0  0  0
    6.7127    1.2440   22.3364 O   0  0  0  0  0  0  0  0  0  0  0  0
   13.8840   -1.8490   21.2740 Cl  0  0  0  0  0  0  0  0  0  0  0  0
    4.3119    4.6603   20.6635 H   0  0  0  0  0  0  0  0  0  0  0  0
   12.2249    1.2198   24.6546 H   0  0  0  0  0  0  0  0  0  0  0  0
    4.1481    3.6243   18.4321 H   0  0  0  0  0  0  0  0  0  0  0  0
    9.8763    0.5350   24.3454 H   0  0  0  0  0  0  0  0  0  0  0  0
    5.5282    3.5185   22.4857 H   0  0  0  0  0  0  0  0  0  0  0  0
   14.0077    0.1988   23.2842 H   0  0  0  0  0  0  0  0  0  0  0  0
   11.0892   -2.3009   21.3624 H   0  0  0  0  0  0  0  0  0  0  0  0
    4.7059    1.6743   16.8970 H   0  0  0  0  0  0  0  0  0  0  0  0
    6.8847   -1.5372   18.2236 H   0  0  0  0  0  0  0  0  0  0  0  0
    7.1172   -2.8980   20.4618 H   0  0  0  0  0  0  0  0  0  0  0  0
    7.0268   -2.3156   22.1586 H   0  0  0  0  0  0  0  0  0  0  0  0
    5.6297   -2.0835   21.0537 H   0  0  0  0  0  0  0  0  0  0  0  0
    7.2640    1.4173   24.3189 H   0  0  0  0  0  0  0  0  0  0  0  0
    5.6841    2.1416   23.8860 H   0  0  0  0  0  0  0  0  0  0  0  0
    7.2008    2.9406   23.3944 H   0  0  0  0  0  0  0  0  0  0  0  0
    8.8006   -2.2403   22.1717 H   0  0  0  0  0  0  0  0  0  0  0  0
    8.2668   -1.0117   23.3332 H   0  0  0  0  0  0  0  0  0  0  0  0
  1  3  2  0  0  0  0
  1  5  1  0  0  0  0
  2  4  2  0  0  0  0
  2  6  1  0  0  0  0
  3 10  1  0  0  0  0
  4 12  1  0  0  0  0
  5 14  2  0  0  0  0
  6 15  2  0  0  0  0
  7 12  2  0  0  0  0
  7 15  1  0  0  0  0
  8 10  2  0  0  0  0
  8 20  1  0  0  0  0
  9 13  1  0  0  0  0
  9 20  2  0  0  0  0
 10 11  1  0  0  0  0
 11 13  2  0  0  0  0
 11 14  1  0  0  0  0
 12 19  1  0  0  0  0
 13 21  1  0  0  0  0
 14 23  1  0  0  0  0
 15 24  1  0  0  0  0
 16 19  1  0  0  0  0
 16 21  1  0  0  0  0
 16 22  2  0  0  0  0
 17 21  1  0  0  0  0
 18 23  1  0  0  0  0
  1 25  1  0  0  0  0
  2 26  1  0  0  0  0
  3 27  1  0  0  0  0
  4 28  1  0  0  0  0
  5 29  1  0  0  0  0
  6 30  1  0  0  0  0
  7 31  1  0  0  0  0
  8 32  1  0  0  0  0
  9 33  1  0  0  0  0
 17 34  1  0  0  0  0
 17 35  1  0  0  0  0
 17 36  1  0  0  0  0
 18 37  1  0  0  0  0
 18 38  1  0  0  0  0
 18 39  1  0  0  0  0
 19 40  1  0  0  0  0
 19 41  1  0  0  0  0
M  END
> <compound>
MIC-UNK-67d4a29a-4

> <compound_smiles>
CN(c1cncc2c1c(ccc2)OC)C(=O)Cc3cccc(c3)Cl

> <enantiomer_smiles>
CN(c1cncc2c1c(ccc2)OC)C(=O)Cc3cccc(c3)Cl

> <scaffold>
chlorobenzene-linker

> <clash_score>
0

> <docking_score>
-6.125125885009766

> <overlap_score>
0.8718027472496033

> <MMFF_internal_energy>
139.20571673152617

> <docked_smiles>
CN(c1cncc2c1c(ccc2)OC)C(=O)Cc3cccc(c3)Cl

$$$$
MIC-UNK-67d4a29a-2_1
  -OEChem-07262101023D

 37 39  0     0  0  0  0  0  0999 V2000
    4.7953    3.6933   20.5365 C   0  0  0  0  0  0  0  0  0  0  0  0
   11.9780    0.4600   23.9150 C   0  0  0  0  0  0  0  0  0  0  0  0
    4.6948    3.1178   19.2701 C   0  0  0  0  0  0  0  0  0  0  0  0
   10.6560    0.0720   23.7350 C   0  0  0  0  0  0  0  0  0  0  0  0
    5.4853    3.0324   21.5501 C   0  0  0  0  0  0  0  0  0  0  0  0
   12.9840   -0.1200   23.1530 C   0  0  0  0  0  0  0  0  0  0  0  0
   11.3360   -1.5050   22.0650 C   0  0  0  0  0  0  0  0  0  0  0  0
    5.2176    1.2497   17.7607 C   0  0  0  0  0  0  0  0  0  0  0  0
    6.4353   -0.5623   18.4741 C   0  0  0  0  0  0  0  0  0  0  0  0
    5.2872    1.8711   19.0091 C   0  0  0  0  0  0  0  0  0  0  0  0
    5.9866    1.1989   20.0326 C   0  0  0  0  0  0  0  0  0  0  0  0
   10.3220   -0.8940   22.7910 C   0  0  0  0  0  0  0  0  0  0  0  0
    6.5697   -0.0422   19.7523 C   0  0  0  0  0  0  0  0  0  0  0  0
    6.0780    1.7931   21.3019 C   0  0  0  0  0  0  0  0  0  0  0  0
   12.6400   -1.1000   22.2390 C   0  0  0  0  0  0  0  0  0  0  0  0
    8.3880   -0.3240   21.3070 C   0  0  0  0  0  0  0  0  0  0  0  0
    6.7276   -2.1082   21.1210 C   0  0  0  0  0  0  0  0  0  0  0  0
    8.8810   -1.1900   22.4510 C   0  0  0  0  0  0  0  0  0  0  0  0
    5.7739    0.0519   17.4702 N   0  0  0  0  0  0  0  0  0  0  0  0
    7.2820   -0.7860   20.6970 N   0  0  0  0  0  0  0  0  0  0  0  0
    8.9170    0.7530   21.0260 O   0  0  0  0  0  0  0  0  0  0  0  0
    6.7314    1.1977   22.3111 F   0  0  0  0  0  0  0  0  0  0  0  0
   13.8840   -1.8490   21.2740 Cl  0  0  0  0  0  0  0  0  0  0  0  0
    4.3357    4.6576   20.7327 H   0  0  0  0  0  0  0  0  0  0  0  0
   12.2249    1.2198   24.6546 H   0  0  0  0  0  0  0  0  0  0  0  0
    4.1525    3.6470   18.4900 H   0  0  0  0  0  0  0  0  0  0  0  0
    9.8763    0.5350   24.3454 H   0  0  0  0  0  0  0  0  0  0  0  0
    5.5614    3.4815   22.5361 H   0  0  0  0  0  0  0  0  0  0  0  0
   14.0077    0.1988   23.2842 H   0  0  0  0  0  0  0  0  0  0  0  0
   11.0892   -2.3008   21.3624 H   0  0  0  0  0  0  0  0  0  0  0  0
    4.6937    1.7127   16.9290 H   0  0  0  0  0  0  0  0  0  0  0  0
    6.8686   -1.5216   18.2057 H   0  0  0  0  0  0  0  0  0  0  0  0
    7.1175   -2.8982   20.4622 H   0  0  0  0  0  0  0  0  0  0  0  0
    7.0273   -2.3155   22.1589 H   0  0  0  0  0  0  0  0  0  0  0  0
    5.6299   -2.0839   21.0542 H   0  0  0  0  0  0  0  0  0  0  0  0
    8.8006   -2.2403   22.1717 H   0  0  0  0  0  0  0  0  0  0  0  0
    8.2668   -1.0117   23.3332 H   0  0  0  0  0  0  0  0  0  0  0  0
  1  3  2  0  0  0  0
  1  5  1  0  0  0  0
  2  4  2  0  0  0  0
  2  6  1  0  0  0  0
  3 10  1  0  0  0  0
  4 12  1  0  0  0  0
  5 14  2  0  0  0  0
  6 15  2  0  0  0  0
  7 12  2  0  0  0  0
  7 15  1  0  0  0  0
  8 10  2  0  0  0  0
  8 19  1  0  0  0  0
  9 13  1  0  0  0  0
  9 19  2  0  0  0  0
 10 11  1  0  0  0  0
 11 13  2  0  0  0  0
 11 14  1  0  0  0  0
 12 18  1  0  0  0  0
 13 20  1  0  0  0  0
 14 22  1  0  0  0  0
 15 23  1  0  0  0  0
 16 18  1  0  0  0  0
 16 20  1  0  0  0  0
 16 21  2  0  0  0  0
 17 20  1  0  0  0  0
  1 24  1  0  0  0  0
  2 25  1  0  0  0  0
  3 26  1  0  0  0  0
  4 27  1  0  0  0  0
  5 28  1  0  0  0  0
  6 29  1  0  0  0  0
  7 30  1  0  0  0  0
  8 31  1  0  0  0  0
  9 32  1  0  0  0  0
 17 33  1  0  0  0  0
 17 34  1  0  0  0  0
 17 35  1  0  0  0  0
 18 36  1  0  0  0  0
 18 37  1  0  0  0  0
M  END
> <compound>
MIC-UNK-67d4a29a-2

> <compound_smiles>
CN(c1cncc2c1c(ccc2)F)C(=O)Cc3cccc(c3)Cl

> <enantiomer_smiles>
CN(c1cncc2c1c(ccc2)F)C(=O)Cc3cccc(c3)Cl

> <scaffold>
chlorobenzene-linker

> <clash_score>
0

> <docking_score>
-6.010885715484619

> <overlap_score>
0.8728628754615784

> <MMFF_internal_energy>
115.52092766203027

> <docked_smiles>
CN(c1cncc2c1c(ccc2)F)C(=O)Cc3cccc(c3)Cl

$$$$
MAK-UNK-c749d764-32_1
  -OEChem-07262101023D

 38 40  0     0  0  0  0  0  0999 V2000
    3.4430    2.5368   20.0698 C   0  0  0  0  0  0  0  0  0  0  0  0
    4.0769    2.0258   21.2000 C   0  0  0  0  0  0  0  0  0  0  0  0
   11.9780    0.4600   23.9150 C   0  0  0  0  0  0  0  0  0  0  0  0
    3.8513    2.1346   18.7983 C   0  0  0  0  0  0  0  0  0  0  0  0
    5.1219    1.1103   21.0638 C   0  0  0  0  0  0  0  0  0  0  0  0
   10.6560    0.0720   23.7350 C   0  0  0  0  0  0  0  0  0  0  0  0
   12.9840   -0.1200   23.1530 C   0  0  0  0  0  0  0  0  0  0  0  0
    5.3505    0.7771   17.4015 C   0  0  0  0  0  0  0  0  0  0  0  0
    6.9502   -0.5829   18.3321 C   0  0  0  0  0  0  0  0  0  0  0  0
    4.9016    1.2138   18.6494 C   0  0  0  0  0  0  0  0  0  0  0  0
    5.5459    0.6942   19.7912 C   0  0  0  0  0  0  0  0  0  0  0  0
   10.3220   -0.8940   22.7910 C   0  0  0  0  0  0  0  0  0  0  0  0
   11.3360   -1.5050   22.0650 C   0  0  0  0  0  0  0  0  0  0  0  0
    6.5902   -0.2221   19.6216 C   0  0  0  0  0  0  0  0  0  0  0  0
   12.6400   -1.1000   22.2390 C   0  0  0  0  0  0  0  0  0  0  0  0
    8.3880   -0.3240   21.3070 C   0  0  0  0  0  0  0  0  0  0  0  0
    8.8810   -1.1900   22.4510 C   0  0  0  0  0  0  0  0  0  0  0  0
   10.9880   -2.5995   21.1010 C   0  0  0  0  0  0  0  0  0  0  0  0
    6.3571   -0.1067   17.2168 N   0  0  0  0  0  0  0  0  0  0  0  0
    7.2820   -0.7860   20.6970 N   0  0  0  0  0  0  0  0  0  0  0  0
    8.9170    0.7530   21.0260 O   0  0  0  0  0  0  0  0  0  0  0  0
   10.0990   -2.0918   20.1163 O   0  0  0  0  0  0  0  0  0  0  0  0
   13.8840   -1.8490   21.2740 Cl  0  0  0  0  0  0  0  0  0  0  0  0
    2.6302    3.2488   20.1787 H   0  0  0  0  0  0  0  0  0  0  0  0
    3.7572    2.3402   22.1894 H   0  0  0  0  0  0  0  0  0  0  0  0
   12.2253    1.2198   24.6544 H   0  0  0  0  0  0  0  0  0  0  0  0
    3.3454    2.5434   17.9266 H   0  0  0  0  0  0  0  0  0  0  0  0
    5.5921    0.7346   21.9697 H   0  0  0  0  0  0  0  0  0  0  0  0
    9.8773    0.5359   24.3459 H   0  0  0  0  0  0  0  0  0  0  0  0
   14.0068    0.2005   23.2856 H   0  0  0  0  0  0  0  0  0  0  0  0
    4.8980    1.1375   16.4818 H   0  0  0  0  0  0  0  0  0  0  0  0
    7.7536   -1.2906   18.1476 H   0  0  0  0  0  0  0  0  0  0  0  0
    8.7775   -2.2383   22.1732 H   0  0  0  0  0  0  0  0  0  0  0  0
    8.2557   -1.0153   23.3257 H   0  0  0  0  0  0  0  0  0  0  0  0
   11.8863   -2.9843   20.6034 H   0  0  0  0  0  0  0  0  0  0  0  0
   10.5071   -3.4390   21.6172 H   0  0  0  0  0  0  0  0  0  0  0  0
    6.8981   -1.6619   21.0675 H   0  0  0  0  0  0  0  0  0  0  0  0
    9.8998   -2.8258   19.5124 H   0  0  0  0  0  0  0  0  0  0  0  0
  1  2  1  0  0  0  0
  1  4  2  0  0  0  0
  2  5  2  0  0  0  0
  3  6  2  0  0  0  0
  3  7  1  0  0  0  0
  4 10  1  0  0  0  0
  5 11  1  0  0  0  0
  6 12  1  0  0  0  0
  7 15  2  0  0  0  0
  8 10  2  0  0  0  0
  8 19  1  0  0  0  0
  9 14  1  0  0  0  0
  9 19  2  0  0  0  0
 10 11  1  0  0  0  0
 11 14  2  0  0  0  0
 12 13  2  0  0  0  0
 12 17  1  0  0  0  0
 13 15  1  0  0  0  0
 13 18  1  0  0  0  0
 14 20  1  0  0  0  0
 15 23  1  0  0  0  0
 16 17  1  0  0  0  0
 16 20  1  0  0  0  0
 16 21  2  0  0  0  0
 18 22  1  0  0  0  0
  1 24  1  0  0  0  0
  2 25  1  0  0  0  0
  3 26  1  0  0  0  0
  4 27  1  0  0  0  0
  5 28  1  0  0  0  0
  6 29  1  0  0  0  0
  7 30  1  0  0  0  0
  8 31  1  0  0  0  0
  9 32  1  0  0  0  0
 17 33  1  0  0  0  0
 17 34  1  0  0  0  0
 18 35  1  0  0  0  0
 18 36  1  0  0  0  0
 20 37  1  0  0  0  0
 22 38  1  0  0  0  0
M  END
> <compound>
MAK-UNK-c749d764-32

> <compound_smiles>
c1ccc2c(c1)cncc2NC(=O)Cc3cccc(c3CO)Cl

> <enantiomer_smiles>
c1ccc2c(c1)cncc2NC(=O)Cc3cccc(c3CO)Cl

> <scaffold>
chlorobenzene-linker

> <clash_score>
0.7295416358417295

> <docking_score>
-9.974220275878906

> <overlap_score>
1.0

> <MMFF_internal_energy>
109.98485348387202

> <docked_smiles>
c1ccc2c(c1)cncc2NC(=O)Cc3cccc(c3CO)Cl

$$$$
NAU-LAT-2fed8305-1_1
  -OEChem-07262101023D

 40 42  0     0  0  0  0  0  0999 V2000
    4.8933    3.6272   19.7021 C   0  0  0  0  0  0  0  0  0  0  0  0
    5.5695    3.1490   20.8220 C   0  0  0  0  0  0  0  0  0  0  0  0
   11.9780    0.4600   23.9150 C   0  0  0  0  0  0  0  0  0  0  0  0
    4.7802    2.8318   18.5621 C   0  0  0  0  0  0  0  0  0  0  0  0
    6.1355    1.8730   20.8071 C   0  0  0  0  0  0  0  0  0  0  0  0
   10.6560    0.0720   23.7350 C   0  0  0  0  0  0  0  0  0  0  0  0
   12.9840   -0.1200   23.1530 C   0  0  0  0  0  0  0  0  0  0  0  0
   11.3360   -1.5050   22.0650 C   0  0  0  0  0  0  0  0  0  0  0  0
    5.2627    0.7082   17.4223 C   0  0  0  0  0  0  0  0  0  0  0  0
    6.4417   -0.9676   18.4599 C   0  0  0  0  0  0  0  0  0  0  0  0
    5.3458    1.5462   18.5360 C   0  0  0  0  0  0  0  0  0  0  0  0
    6.0311    1.0584   19.6678 C   0  0  0  0  0  0  0  0  0  0  0  0
   10.3220   -0.8940   22.7910 C   0  0  0  0  0  0  0  0  0  0  0  0
    6.5876   -0.2251   19.6217 C   0  0  0  0  0  0  0  0  0  0  0  0
   12.6400   -1.1000   22.2390 C   0  0  0  0  0  0  0  0  0  0  0  0
    8.3880   -0.3240   21.3070 C   0  0  0  0  0  0  0  0  0  0  0  0
    8.7851   -2.6925   22.0505 C   0  0  0  0  0  0  0  0  0  0  0  0
    7.8868   -1.0071   23.6371 C   0  0  0  0  0  0  0  0  0  0  0  0
    8.8810   -1.1900   22.4510 C   0  0  0  0  0  0  0  0  0  0  0  0
    5.7932   -0.5339   17.3581 N   0  0  0  0  0  0  0  0  0  0  0  0
    7.2820   -0.7860   20.6970 N   0  0  0  0  0  0  0  0  0  0  0  0
    8.9170    0.7530   21.0260 O   0  0  0  0  0  0  0  0  0  0  0  0
   13.8840   -1.8490   21.2740 Cl  0  0  0  0  0  0  0  0  0  0  0  0
    4.4537    4.6202   19.7165 H   0  0  0  0  0  0  0  0  0  0  0  0
    5.6562    3.7701   21.7090 H   0  0  0  0  0  0  0  0  0  0  0  0
   12.2249    1.2198   24.6546 H   0  0  0  0  0  0  0  0  0  0  0  0
    4.2489    3.2207   17.6965 H   0  0  0  0  0  0  0  0  0  0  0  0
    6.6560    1.5354   21.7004 H   0  0  0  0  0  0  0  0  0  0  0  0
    9.8763    0.5350   24.3454 H   0  0  0  0  0  0  0  0  0  0  0  0
   14.0077    0.1988   23.2842 H   0  0  0  0  0  0  0  0  0  0  0  0
   11.0892   -2.3008   21.3624 H   0  0  0  0  0  0  0  0  0  0  0  0
    4.7489    1.0219   16.5177 H   0  0  0  0  0  0  0  0  0  0  0  0
    6.8546   -1.9688   18.3744 H   0  0  0  0  0  0  0  0  0  0  0  0
    7.7562   -2.9760   21.7988 H   0  0  0  0  0  0  0  0  0  0  0  0
    9.1239   -3.3622   22.8498 H   0  0  0  0  0  0  0  0  0  0  0  0
    9.4121   -2.8991   21.1748 H   0  0  0  0  0  0  0  0  0  0  0  0
    6.8529   -1.2397   23.3585 H   0  0  0  0  0  0  0  0  0  0  0  0
    7.9045    0.0237   24.0100 H   0  0  0  0  0  0  0  0  0  0  0  0
    8.1455   -1.6627   24.4776 H   0  0  0  0  0  0  0  0  0  0  0  0
    6.8918   -1.6548   21.0755 H   0  0  0  0  0  0  0  0  0  0  0  0
  1  2  1  0  0  0  0
  1  4  2  0  0  0  0
  2  5  2  0  0  0  0
  3  6  2  0  0  0  0
  3  7  1  0  0  0  0
  4 11  1  0  0  0  0
  5 12  1  0  0  0  0
  6 13  1  0  0  0  0
  7 15  2  0  0  0  0
  8 13  2  0  0  0  0
  8 15  1  0  0  0  0
  9 11  2  0  0  0  0
  9 20  1  0  0  0  0
 10 14  1  0  0  0  0
 10 20  2  0  0  0  0
 11 12  1  0  0  0  0
 12 14  2  0  0  0  0
 13 19  1  0  0  0  0
 14 21  1  0  0  0  0
 15 23  1  0  0  0  0
 16 19  1  0  0  0  0
 16 21  1  0  0  0  0
 16 22  2  0  0  0  0
 17 19  1  0  0  0  0
 18 19  1  0  0  0  0
  1 24  1  0  0  0  0
  2 25  1  0  0  0  0
  3 26  1  0  0  0  0
  4 27  1  0  0  0  0
  5 28  1  0  0  0  0
  6 29  1  0  0  0  0
  7 30  1  0  0  0  0
  8 31  1  0  0  0  0
  9 32  1  0  0  0  0
 10 33  1  0  0  0  0
 17 34  1  0  0  0  0
 17 35  1  0  0  0  0
 17 36  1  0  0  0  0
 18 37  1  0  0  0  0
 18 38  1  0  0  0  0
 18 39  1  0  0  0  0
 21 40  1  0  0  0  0
M  END
> <compound>
NAU-LAT-2fed8305-1

> <compound_smiles>
CC(C)(c1cccc(c1)Cl)C(=O)Nc2cncc3c2cccc3

> <enantiomer_smiles>
CC(C)(c1cccc(c1)Cl)C(=O)Nc2cncc3c2cccc3

> <scaffold>
chlorobenzene-linker

> <clash_score>
0.6507361984401875

> <docking_score>
-5.444306373596191

> <overlap_score>
0.8588808178901672

> <MMFF_internal_energy>
122.1023291779645

> <docked_smiles>
CC(C)(c1cccc(c1)Cl)C(=O)Nc2cncc3c2cccc3

$$$$
MAK-UNK-c749d764-22_6
  -OEChem-07262101023D

 60 63  0     1  0  0  0  0  0999 V2000
    4.9179    3.6570   19.7100 C   0  0  0  0  0  0  0  0  0  0  0  0
    5.5819    3.1645   20.8311 C   0  0  0  0  0  0  0  0  0  0  0  0
   11.9780    0.4600   23.9150 C   0  0  0  0  0  0  0  0  0  0  0  0
    4.8099    2.8729   18.5617 C   0  0  0  0  0  0  0  0  0  0  0  0
    6.1409    1.8856   20.8089 C   0  0  0  0  0  0  0  0  0  0  0  0
   10.6560    0.0720   23.7350 C   0  0  0  0  0  0  0  0  0  0  0  0
   12.9840   -0.1200   23.1530 C   0  0  0  0  0  0  0  0  0  0  0  0
   11.3360   -1.5050   22.0650 C   0  0  0  0  0  0  0  0  0  0  0  0
    5.2900    0.7573   17.4061 C   0  0  0  0  0  0  0  0  0  0  0  0
    6.4509   -0.9347   18.4378 C   0  0  0  0  0  0  0  0  0  0  0  0
    5.3685    1.5844   18.5283 C   0  0  0  0  0  0  0  0  0  0  0  0
    6.0416    1.0822   19.6612 C   0  0  0  0  0  0  0  0  0  0  0  0
   10.3220   -0.8940   22.7910 C   0  0  0  0  0  0  0  0  0  0  0  0
    6.5912   -0.2039   19.6077 C   0  0  0  0  0  0  0  0  0  0  0  0
   12.6400   -1.1000   22.2390 C   0  0  0  0  0  0  0  0  0  0  0  0
    8.3880   -0.3240   21.3070 C   0  0  0  0  0  0  0  0  0  0  0  0
    2.8000    0.2353   27.2431 C   0  0  0  0  0  0  0  0  0  0  0  0
    2.9910    0.2709   25.7476 C   0  0  0  0  0  0  0  0  0  0  0  0
    3.8454   -0.7741   27.6681 C   0  0  0  0  0  0  0  0  0  0  0  0
    3.2821   -1.1888   25.4449 C   0  0  2  0  0  0  0  0  0  0  0  0
    8.3439   -2.0353   24.8302 C   0  0  0  0  0  0  0  0  0  0  0  0
    4.0976   -1.3942   24.1831 C   0  0  0  0  0  0  0  0  0  0  0  0
    6.4425   -1.3254   23.3257 C   0  0  0  0  0  0  0  0  0  0  0  0
    8.8810   -1.1900   22.4510 C   0  0  2  0  0  0  0  0  0  0  0  0
    7.9194   -1.0821   23.6998 C   0  0  2  0  0  0  0  0  0  0  0  0
    5.8141   -0.4871   17.3347 N   0  0  0  0  0  0  0  0  0  0  0  0
    7.2820   -0.7860   20.6970 N   0  0  0  0  0  0  0  0  0  0  0  0
    5.5284   -1.0997   24.4706 N   0  3  0  0  0  0  0  0  0  0  0  0
    8.9170    0.7530   21.0260 O   0  0  0  0  0  0  0  0  0  0  0  0
    4.0029   -1.6972   26.5802 O   0  0  0  0  0  0  0  0  0  0  0  0
   13.8840   -1.8490   21.2740 Cl  0  0  0  0  0  0  0  0  0  0  0  0
    4.4837    4.6523   19.7301 H   0  0  0  0  0  0  0  0  0  0  0  0
    5.6647    3.7768   21.7245 H   0  0  0  0  0  0  0  0  0  0  0  0
   12.2249    1.2198   24.6546 H   0  0  0  0  0  0  0  0  0  0  0  0
    4.2880    3.2728   17.6954 H   0  0  0  0  0  0  0  0  0  0  0  0
    6.6519    1.5367   21.7033 H   0  0  0  0  0  0  0  0  0  0  0  0
    9.8763    0.5350   24.3454 H   0  0  0  0  0  0  0  0  0  0  0  0
   14.0077    0.1988   23.2842 H   0  0  0  0  0  0  0  0  0  0  0  0
   11.0892   -2.3009   21.3624 H   0  0  0  0  0  0  0  0  0  0  0  0
    4.7856    1.0823   16.5003 H   0  0  0  0  0  0  0  0  0  0  0  0
    6.8589   -1.9374   18.3464 H   0  0  0  0  0  0  0  0  0  0  0  0
    2.9239    1.2077   27.7266 H   0  0  0  0  0  0  0  0  0  0  0  0
    1.7979   -0.1408   27.4814 H   0  0  0  0  0  0  0  0  0  0  0  0
    2.1200    0.6518   25.2073 H   0  0  0  0  0  0  0  0  0  0  0  0
    3.8523    0.9039   25.5021 H   0  0  0  0  0  0  0  0  0  0  0  0
    4.8143   -0.2927   27.8385 H   0  0  0  0  0  0  0  0  0  0  0  0
    3.5612   -1.3167   28.5741 H   0  0  0  0  0  0  0  0  0  0  0  0
    2.3465   -1.7560   25.3748 H   0  0  0  0  0  0  0  0  0  0  0  0
    8.3236   -3.0763   24.4901 H   0  0  0  0  0  0  0  0  0  0  0  0
    9.3662   -1.8274   25.1619 H   0  0  0  0  0  0  0  0  0  0  0  0
    7.6864   -1.9486   25.7014 H   0  0  0  0  0  0  0  0  0  0  0  0
    3.7843   -0.7165   23.3841 H   0  0  0  0  0  0  0  0  0  0  0  0
    4.0467   -2.4288   23.8327 H   0  0  0  0  0  0  0  0  0  0  0  0
    6.1046   -0.6640   22.5233 H   0  0  0  0  0  0  0  0  0  0  0  0
    6.2842   -2.3596   23.0027 H   0  0  0  0  0  0  0  0  0  0  0  0
    8.8227   -2.2553   22.1299 H   0  0  0  0  0  0  0  0  0  0  0  0
    7.9631   -0.0642   24.1101 H   0  0  0  0  0  0  0  0  0  0  0  0
    6.8771   -1.6492   21.0526 H   0  0  0  0  0  0  0  0  0  0  0  0
    5.6110   -0.1218   24.7860 H   0  0  0  0  0  0  0  0  0  0  0  0
    5.8333   -1.6746   25.2700 H   0  0  0  0  0  0  0  0  0  0  0  0
  1  2  1  0  0  0  0
  1  4  2  0  0  0  0
  2  5  2  0  0  0  0
  3  6  2  0  0  0  0
  3  7  1  0  0  0  0
  4 11  1  0  0  0  0
  5 12  1  0  0  0  0
  6 13  1  0  0  0  0
  7 15  2  0  0  0  0
  8 13  2  0  0  0  0
  8 15  1  0  0  0  0
  9 11  2  0  0  0  0
  9 26  1  0  0  0  0
 10 14  1  0  0  0  0
 10 26  2  0  0  0  0
 11 12  1  0  0  0  0
 12 14  2  0  0  0  0
 13 24  1  0  0  0  0
 14 27  1  0  0  0  0
 15 31  1  0  0  0  0
 16 24  1  6  0  0  0
 16 27  1  0  0  0  0
 16 29  2  0  0  0  0
 17 18  1  0  0  0  0
 17 19  1  0  0  0  0
 18 20  1  0  0  0  0
 19 30  1  0  0  0  0
 20 22  1  1  0  0  0
 20 30  1  0  0  0  0
 21 25  1  6  0  0  0
 22 28  1  0  0  0  0
 23 25  1  0  0  0  0
 23 28  1  0  0  0  0
 24 25  1  0  0  0  0
  1 32  1  0  0  0  0
  2 33  1  0  0  0  0
  3 34  1  0  0  0  0
  4 35  1  0  0  0  0
  5 36  1  0  0  0  0
  6 37  1  0  0  0  0
  7 38  1  0  0  0  0
  8 39  1  0  0  0  0
  9 40  1  0  0  0  0
 10 41  1  0  0  0  0
 17 42  1  0  0  0  0
 17 43  1  0  0  0  0
 18 44  1  0  0  0  0
 18 45  1  0  0  0  0
 19 46  1  0  0  0  0
 19 47  1  0  0  0  0
 20 48  1  0  0  0  0
 21 49  1  0  0  0  0
 21 50  1  0  0  0  0
 21 51  1  0  0  0  0
 22 52  1  0  0  0  0
 22 53  1  0  0  0  0
 23 54  1  0  0  0  0
 23 55  1  0  0  0  0
 24 56  1  0  0  0  0
 25 57  1  0  0  0  0
 27 58  1  0  0  0  0
 28 59  1  0  0  0  0
 28 60  1  0  0  0  0
M  CHG  1  28   1
M  END
> <compound>
MAK-UNK-c749d764-22

> <compound_smiles>
CC(CNCC1CCCO1)C(c2cccc(c2)Cl)C(=O)Nc3cncc4c3cccc4

> <enantiomer_smiles>
C[C@H](CNC[C@@H]1CCCO1)[C@H](c2cccc(c2)Cl)C(=O)Nc3cncc4c3cccc4

> <scaffold>
chlorobenzene-linker

> <clash_score>
1.3939037639831517

> <docking_score>
-3.197352409362793

> <overlap_score>
0.8344243168830872

> <MMFF_internal_energy>
147.2445749850129

> <docked_smiles>
C[C@H](C[NH2+]C[C@@H]1CCCO1)[C@H](c2cccc(c2)Cl)C(=O)Nc3cncc4c3cccc4

$$$$
JOH-UNI-6fede743-3_1
  -OEChem-07262101023D

 35 37  0     0  0  0  0  0  0999 V2000
    5.7356    3.2708   21.0297 C   0  0  0  0  0  0  0  0  0  0  0  0
    5.1354    3.8513   19.9164 C   0  0  0  0  0  0  0  0  0  0  0  0
   11.9780    0.4600   23.9150 C   0  0  0  0  0  0  0  0  0  0  0  0
    6.2437    1.9700   20.9599 C   0  0  0  0  0  0  0  0  0  0  0  0
    5.0395    3.1346   18.7268 C   0  0  0  0  0  0  0  0  0  0  0  0
   10.6560    0.0720   23.7350 C   0  0  0  0  0  0  0  0  0  0  0  0
   12.9840   -0.1200   23.1530 C   0  0  0  0  0  0  0  0  0  0  0  0
   11.3360   -1.5050   22.0650 C   0  0  0  0  0  0  0  0  0  0  0  0
    6.1598    1.2258   19.7727 C   0  0  0  0  0  0  0  0  0  0  0  0
    5.5480    1.8312   18.6556 C   0  0  0  0  0  0  0  0  0  0  0  0
   10.3220   -0.8940   22.7910 C   0  0  0  0  0  0  0  0  0  0  0  0
   12.6400   -1.1000   22.2390 C   0  0  0  0  0  0  0  0  0  0  0  0
    6.5526   -0.7806   18.4684 C   0  0  0  0  0  0  0  0  0  0  0  0
    6.6808   -0.1525   19.6456 C   0  0  0  0  0  0  0  0  0  0  0  0
    5.4358    1.0817   17.3753 C   0  0  0  0  0  0  0  0  0  0  0  0
    8.3880   -0.3240   21.3070 C   0  0  0  0  0  0  0  0  0  0  0  0
    8.8810   -1.1900   22.4510 C   0  0  0  0  0  0  0  0  0  0  0  0
    5.9599   -0.1988   17.3804 N   0  0  0  0  0  0  0  0  0  0  0  0
    7.2820   -0.7860   20.6970 N   0  0  0  0  0  0  0  0  0  0  0  0
    4.9075    1.5896   16.3911 O   0  0  0  0  0  0  0  0  0  0  0  0
    8.9170    0.7530   21.0260 O   0  0  0  0  0  0  0  0  0  0  0  0
   13.8840   -1.8490   21.2740 Cl  0  0  0  0  0  0  0  0  0  0  0  0
    5.8095    3.8300   21.9581 H   0  0  0  0  0  0  0  0  0  0  0  0
    4.7417    4.8618   19.9759 H   0  0  0  0  0  0  0  0  0  0  0  0
   12.2249    1.2198   24.6546 H   0  0  0  0  0  0  0  0  0  0  0  0
    6.7023    1.5632   21.8568 H   0  0  0  0  0  0  0  0  0  0  0  0
    4.5665    3.6049   17.8693 H   0  0  0  0  0  0  0  0  0  0  0  0
    9.8763    0.5350   24.3454 H   0  0  0  0  0  0  0  0  0  0  0  0
   14.0077    0.1988   23.2842 H   0  0  0  0  0  0  0  0  0  0  0  0
   11.0892   -2.3009   21.3624 H   0  0  0  0  0  0  0  0  0  0  0  0
    6.9107   -1.7909   18.3029 H   0  0  0  0  0  0  0  0  0  0  0  0
    8.2535   -1.0146   23.3240 H   0  0  0  0  0  0  0  0  0  0  0  0
    8.7756   -2.2377   22.1724 H   0  0  0  0  0  0  0  0  0  0  0  0
    5.9064   -0.7485   16.5279 H   0  0  0  0  0  0  0  0  0  0  0  0
    6.8585   -1.6466   21.0208 H   0  0  0  0  0  0  0  0  0  0  0  0
  1  2  1  0  0  0  0
  1  4  2  0  0  0  0
  2  5  2  0  0  0  0
  3  6  2  0  0  0  0
  3  7  1  0  0  0  0
  4  9  1  0  0  0  0
  5 10  1  0  0  0  0
  6 11  1  0  0  0  0
  7 12  2  0  0  0  0
  8 11  2  0  0  0  0
  8 12  1  0  0  0  0
  9 10  2  0  0  0  0
  9 14  1  0  0  0  0
 10 15  1  0  0  0  0
 11 17  1  0  0  0  0
 12 22  1  0  0  0  0
 13 14  2  0  0  0  0
 13 18  1  0  0  0  0
 14 19  1  0  0  0  0
 15 18  1  0  0  0  0
 15 20  2  0  0  0  0
 16 17  1  0  0  0  0
 16 19  1  0  0  0  0
 16 21  2  0  0  0  0
  1 23  1  0  0  0  0
  2 24  1  0  0  0  0
  3 25  1  0  0  0  0
  4 26  1  0  0  0  0
  5 27  1  0  0  0  0
  6 28  1  0  0  0  0
  7 29  1  0  0  0  0
  8 30  1  0  0  0  0
 13 31  1  0  0  0  0
 17 32  1  0  0  0  0
 17 33  1  0  0  0  0
 18 34  1  0  0  0  0
 19 35  1  0  0  0  0
M  END
> <compound>
JOH-UNI-6fede743-3

> <compound_smiles>
c1ccc2c(c1)c(c[nH]c2=O)NC(=O)Cc3cccc(c3)Cl

> <enantiomer_smiles>
c1ccc2c(c1)c(c[nH]c2=O)NC(=O)Cc3cccc(c3)Cl

> <scaffold>
chlorobenzene-linker

> <clash_score>
0.6851712973595664

> <docking_score>
-4.199223518371582

> <overlap_score>
0.8323191404342651

> <MMFF_internal_energy>
79.12068030774877

> <docked_smiles>
c1ccc2c(c1)c(c[nH]c2=O)NC(=O)Cc3cccc(c3)Cl

$$$$
JOH-UNI-6fede743-4_1
  -OEChem-07262101023D

 35 37  0     0  0  0  0  0  0999 V2000
   11.9780    0.4600   23.9150 C   0  0  0  0  0  0  0  0  0  0  0  0
   10.6560    0.0720   23.7350 C   0  0  0  0  0  0  0  0  0  0  0  0
   12.9840   -0.1200   23.1530 C   0  0  0  0  0  0  0  0  0  0  0  0
   11.3360   -1.5050   22.0650 C   0  0  0  0  0  0  0  0  0  0  0  0
   10.3220   -0.8940   22.7910 C   0  0  0  0  0  0  0  0  0  0  0  0
   12.6400   -1.1000   22.2390 C   0  0  0  0  0  0  0  0  0  0  0  0
    2.7364    1.3142   19.5473 C   0  0  0  0  0  0  0  0  0  0  0  0
    3.2487    0.6575   20.7367 C   0  0  0  0  0  0  0  0  0  0  0  0
    3.4965    1.4739   18.4504 C   0  0  0  0  0  0  0  0  0  0  0  0
    4.5044    0.1777   20.8006 C   0  0  0  0  0  0  0  0  0  0  0  0
    5.6529    1.1247   17.3647 C   0  0  0  0  0  0  0  0  0  0  0  0
    4.8704    0.9799   18.4435 C   0  0  0  0  0  0  0  0  0  0  0  0
    5.4093    0.3070   19.6489 C   0  0  0  0  0  0  0  0  0  0  0  0
    6.6809   -0.1511   19.6447 C   0  0  0  0  0  0  0  0  0  0  0  0
    7.5388    0.0240   18.4217 C   0  0  0  0  0  0  0  0  0  0  0  0
    8.3880   -0.3240   21.3070 C   0  0  0  0  0  0  0  0  0  0  0  0
    8.8810   -1.1900   22.4510 C   0  0  0  0  0  0  0  0  0  0  0  0
    6.9409    0.6637   17.3533 N   0  0  0  0  0  0  0  0  0  0  0  0
    7.2820   -0.7860   20.6970 N   0  0  0  0  0  0  0  0  0  0  0  0
    8.6986   -0.3840   18.3942 O   0  0  0  0  0  0  0  0  0  0  0  0
    8.9170    0.7530   21.0260 O   0  0  0  0  0  0  0  0  0  0  0  0
   13.8840   -1.8490   21.2740 Cl  0  0  0  0  0  0  0  0  0  0  0  0
   12.2249    1.2198   24.6546 H   0  0  0  0  0  0  0  0  0  0  0  0
    9.8763    0.5350   24.3454 H   0  0  0  0  0  0  0  0  0  0  0  0
   14.0077    0.1988   23.2842 H   0  0  0  0  0  0  0  0  0  0  0  0
   11.0892   -2.3009   21.3624 H   0  0  0  0  0  0  0  0  0  0  0  0
    1.7138    1.6748   19.5706 H   0  0  0  0  0  0  0  0  0  0  0  0
    2.5788    0.5638   21.5848 H   0  0  0  0  0  0  0  0  0  0  0  0
    3.0985    1.9669   17.5697 H   0  0  0  0  0  0  0  0  0  0  0  0
    4.8391   -0.3044   21.7115 H   0  0  0  0  0  0  0  0  0  0  0  0
    5.3266    1.6056   16.4498 H   0  0  0  0  0  0  0  0  0  0  0  0
    8.2535   -1.0146   23.3240 H   0  0  0  0  0  0  0  0  0  0  0  0
    8.7756   -2.2377   22.1724 H   0  0  0  0  0  0  0  0  0  0  0  0
    7.4899    0.7999   16.5095 H   0  0  0  0  0  0  0  0  0  0  0  0
    6.8574   -1.6459   21.0193 H   0  0  0  0  0  0  0  0  0  0  0  0
  1  2  2  0  0  0  0
  1  3  1  0  0  0  0
  2  5  1  0  0  0  0
  3  6  2  0  0  0  0
  4  5  2  0  0  0  0
  4  6  1  0  0  0  0
  5 17  1  0  0  0  0
  6 22  1  0  0  0  0
  7  8  1  0  0  0  0
  7  9  2  0  0  0  0
  8 10  2  0  0  0  0
  9 12  1  0  0  0  0
 10 13  1  0  0  0  0
 11 12  2  0  0  0  0
 11 18  1  0  0  0  0
 12 13  1  0  0  0  0
 13 14  2  0  0  0  0
 14 15  1  0  0  0  0
 14 19  1  0  0  0  0
 15 18  1  0  0  0  0
 15 20  2  0  0  0  0
 16 17  1  0  0  0  0
 16 19  1  0  0  0  0
 16 21  2  0  0  0  0
  1 23  1  0  0  0  0
  2 24  1  0  0  0  0
  3 25  1  0  0  0  0
  4 26  1  0  0  0  0
  7 27  1  0  0  0  0
  8 28  1  0  0  0  0
  9 29  1  0  0  0  0
 10 30  1  0  0  0  0
 11 31  1  0  0  0  0
 17 32  1  0  0  0  0
 17 33  1  0  0  0  0
 18 34  1  0  0  0  0
 19 35  1  0  0  0  0
M  END
> <compound>
JOH-UNI-6fede743-4

> <compound_smiles>
c1ccc2c(c1)cnc(c2NC(=O)Cc3cccc(c3)Cl)O

> <enantiomer_smiles>
c1ccc2c(c1)cnc(c2NC(=O)Cc3cccc(c3)Cl)O

> <scaffold>
chlorobenzene-linker

> <clash_score>
0

> <docking_score>
-4.060771465301514

> <overlap_score>
0.9231931567192078

> <MMFF_internal_energy>
89.69988473691049

> <docked_smiles>
c1ccc2c(c1)c[nH]c(=O)c2NC(=O)Cc3cccc(c3)Cl

$$$$
JOH-UNI-6fede743-1_1
  -OEChem-07262101023D

 37 39  0     0  0  0  0  0  0999 V2000
    4.0778    2.0271   21.1996 C   0  0  0  0  0  0  0  0  0  0  0  0
    3.4445    2.5385   20.0693 C   0  0  0  0  0  0  0  0  0  0  0  0
   11.9780    0.4600   23.9150 C   0  0  0  0  0  0  0  0  0  0  0  0
    5.1223    1.1110   21.0637 C   0  0  0  0  0  0  0  0  0  0  0  0
    3.8528    2.1362   18.7979 C   0  0  0  0  0  0  0  0  0  0  0  0
   10.6560    0.0720   23.7350 C   0  0  0  0  0  0  0  0  0  0  0  0
   12.9840   -0.1200   23.1530 C   0  0  0  0  0  0  0  0  0  0  0  0
   11.3360   -1.5050   22.0650 C   0  0  0  0  0  0  0  0  0  0  0  0
    6.9503   -0.5831   18.3322 C   0  0  0  0  0  0  0  0  0  0  0  0
    5.5463    0.6947   19.7911 C   0  0  0  0  0  0  0  0  0  0  0  0
    4.9026    1.2148   18.6492 C   0  0  0  0  0  0  0  0  0  0  0  0
   10.3220   -0.8940   22.7910 C   0  0  0  0  0  0  0  0  0  0  0  0
    6.5902   -0.2221   19.6216 C   0  0  0  0  0  0  0  0  0  0  0  0
   12.6400   -1.1000   22.2390 C   0  0  0  0  0  0  0  0  0  0  0  0
    5.3516    0.7779   17.4013 C   0  0  0  0  0  0  0  0  0  0  0  0
    8.3880   -0.3240   21.3070 C   0  0  0  0  0  0  0  0  0  0  0  0
    8.8810   -1.1900   22.4510 C   0  0  0  0  0  0  0  0  0  0  0  0
    4.7294    1.2756   16.1353 C   0  0  0  0  0  0  0  0  0  0  0  0
    6.3577   -0.1064   17.2168 N   0  0  0  0  0  0  0  0  0  0  0  0
    7.2820   -0.7860   20.6970 N   0  0  0  0  0  0  0  0  0  0  0  0
    8.9170    0.7530   21.0260 O   0  0  0  0  0  0  0  0  0  0  0  0
    4.8344    2.6261   16.0485 F   0  0  0  0  0  0  0  0  0  0  0  0
    3.4035    0.9863   16.1078 F   0  0  0  0  0  0  0  0  0  0  0  0
   13.8840   -1.8490   21.2740 Cl  0  0  0  0  0  0  0  0  0  0  0  0
    3.7581    2.3421   22.1887 H   0  0  0  0  0  0  0  0  0  0  0  0
    2.6326    3.2516   20.1776 H   0  0  0  0  0  0  0  0  0  0  0  0
   12.2249    1.2198   24.6546 H   0  0  0  0  0  0  0  0  0  0  0  0
    5.5931    0.7351   21.9691 H   0  0  0  0  0  0  0  0  0  0  0  0
    3.3379    2.5554   17.9370 H   0  0  0  0  0  0  0  0  0  0  0  0
    9.8763    0.5350   24.3454 H   0  0  0  0  0  0  0  0  0  0  0  0
   14.0077    0.1988   23.2842 H   0  0  0  0  0  0  0  0  0  0  0  0
   11.0892   -2.3009   21.3624 H   0  0  0  0  0  0  0  0  0  0  0  0
    7.7532   -1.2914   18.1480 H   0  0  0  0  0  0  0  0  0  0  0  0
    8.7775   -2.2383   22.1732 H   0  0  0  0  0  0  0  0  0  0  0  0
    8.2557   -1.0153   23.3257 H   0  0  0  0  0  0  0  0  0  0  0  0
    5.1902    0.8414   15.2481 H   0  0  0  0  0  0  0  0  0  0  0  0
    6.8982   -1.6620   21.0675 H   0  0  0  0  0  0  0  0  0  0  0  0
  1  2  1  0  0  0  0
  1  4  2  0  0  0  0
  2  5  2  0  0  0  0
  3  6  2  0  0  0  0
  3  7  1  0  0  0  0
  4 10  1  0  0  0  0
  5 11  1  0  0  0  0
  6 12  1  0  0  0  0
  7 14  2  0  0  0  0
  8 12  2  0  0  0  0
  8 14  1  0  0  0  0
  9 13  1  0  0  0  0
  9 19  2  0  0  0  0
 10 11  1  0  0  0  0
 10 13  2  0  0  0  0
 11 15  2  0  0  0  0
 12 17  1  0  0  0  0
 13 20  1  0  0  0  0
 14 24  1  0  0  0  0
 15 18  1  0  0  0  0
 15 19  1  0  0  0  0
 16 17  1  0  0  0  0
 16 20  1  0  0  0  0
 16 21  2  0  0  0  0
 18 22  1  0  0  0  0
 18 23  1  0  0  0  0
  1 25  1  0  0  0  0
  2 26  1  0  0  0  0
  3 27  1  0  0  0  0
  4 28  1  0  0  0  0
  5 29  1  0  0  0  0
  6 30  1  0  0  0  0
  7 31  1  0  0  0  0
  8 32  1  0  0  0  0
  9 33  1  0  0  0  0
 17 34  1  0  0  0  0
 17 35  1  0  0  0  0
 18 36  1  0  0  0  0
 20 37  1  0  0  0  0
M  END
> <compound>
JOH-UNI-6fede743-1

> <compound_smiles>
c1ccc2c(c1)c(cnc2C(F)F)NC(=O)Cc3cccc(c3)Cl

> <enantiomer_smiles>
c1ccc2c(c1)c(cnc2C(F)F)NC(=O)Cc3cccc(c3)Cl

> <scaffold>
chlorobenzene-linker

> <clash_score>
2.333008498248848

> <docking_score>
-7.761490821838379

> <overlap_score>
1.0

> <MMFF_internal_energy>
138.0180458352298

> <docked_smiles>
c1ccc2c(c1)c(cnc2C(F)F)NC(=O)Cc3cccc(c3)Cl

$$$$
JOH-UNI-6fede743-2_1
  -OEChem-07262101023D

 37 39  0     0  0  0  0  0  0999 V2000
    3.4528    2.5386   20.1354 C   0  0  0  0  0  0  0  0  0  0  0  0
    4.0985    2.0135   21.2523 C   0  0  0  0  0  0  0  0  0  0  0  0
   11.9780    0.4600   23.9150 C   0  0  0  0  0  0  0  0  0  0  0  0
    3.8461    2.1507   18.8548 C   0  0  0  0  0  0  0  0  0  0  0  0
    5.1404    1.0981   21.0938 C   0  0  0  0  0  0  0  0  0  0  0  0
   10.6560    0.0720   23.7350 C   0  0  0  0  0  0  0  0  0  0  0  0
   12.9840   -0.1200   23.1530 C   0  0  0  0  0  0  0  0  0  0  0  0
   11.3360   -1.5050   22.0650 C   0  0  0  0  0  0  0  0  0  0  0  0
    5.3273    0.8073   17.4254 C   0  0  0  0  0  0  0  0  0  0  0  0
    4.8932    1.2301   18.6834 C   0  0  0  0  0  0  0  0  0  0  0  0
    5.5494    0.6962   19.8117 C   0  0  0  0  0  0  0  0  0  0  0  0
   10.3220   -0.8940   22.7910 C   0  0  0  0  0  0  0  0  0  0  0  0
    6.5903   -0.2196   19.6196 C   0  0  0  0  0  0  0  0  0  0  0  0
   12.6400   -1.1000   22.2390 C   0  0  0  0  0  0  0  0  0  0  0  0
    6.9352   -0.5659   18.3221 C   0  0  0  0  0  0  0  0  0  0  0  0
    8.3880   -0.3240   21.3070 C   0  0  0  0  0  0  0  0  0  0  0  0
    8.8810   -1.1900   22.4510 C   0  0  0  0  0  0  0  0  0  0  0  0
    8.0399   -1.5398   18.0638 C   0  0  0  0  0  0  0  0  0  0  0  0
    6.3303   -0.0758   17.2191 N   0  0  0  0  0  0  0  0  0  0  0  0
    7.2820   -0.7860   20.6970 N   0  0  0  0  0  0  0  0  0  0  0  0
    8.9170    0.7530   21.0260 O   0  0  0  0  0  0  0  0  0  0  0  0
    7.5628   -2.8105   18.0365 F   0  0  0  0  0  0  0  0  0  0  0  0
    8.9624   -1.4929   19.0588 F   0  0  0  0  0  0  0  0  0  0  0  0
   13.8840   -1.8490   21.2740 Cl  0  0  0  0  0  0  0  0  0  0  0  0
    2.6426    3.2508   20.2616 H   0  0  0  0  0  0  0  0  0  0  0  0
    3.7909    2.3170   22.2489 H   0  0  0  0  0  0  0  0  0  0  0  0
   12.2249    1.2198   24.6546 H   0  0  0  0  0  0  0  0  0  0  0  0
    3.3313    2.5704   17.9936 H   0  0  0  0  0  0  0  0  0  0  0  0
    5.6190    0.7114   21.9905 H   0  0  0  0  0  0  0  0  0  0  0  0
    9.8763    0.5350   24.3454 H   0  0  0  0  0  0  0  0  0  0  0  0
   14.0077    0.1988   23.2842 H   0  0  0  0  0  0  0  0  0  0  0  0
   11.0892   -2.3008   21.3624 H   0  0  0  0  0  0  0  0  0  0  0  0
    4.8649    1.1795   16.5153 H   0  0  0  0  0  0  0  0  0  0  0  0
    8.7774   -2.2383   22.1732 H   0  0  0  0  0  0  0  0  0  0  0  0
    8.2557   -1.0153   23.3257 H   0  0  0  0  0  0  0  0  0  0  0  0
    8.5499   -1.3487   17.1194 H   0  0  0  0  0  0  0  0  0  0  0  0
    6.8980   -1.6610   21.0666 H   0  0  0  0  0  0  0  0  0  0  0  0
  1  2  1  0  0  0  0
  1  4  2  0  0  0  0
  2  5  2  0  0  0  0
  3  6  2  0  0  0  0
  3  7  1  0  0  0  0
  4 10  1  0  0  0  0
  5 11  1  0  0  0  0
  6 12  1  0  0  0  0
  7 14  2  0  0  0  0
  8 12  2  0  0  0  0
  8 14  1  0  0  0  0
  9 10  2  0  0  0  0
  9 19  1  0  0  0  0
 10 11  1  0  0  0  0
 11 13  2  0  0  0  0
 12 17  1  0  0  0  0
 13 15  1  0  0  0  0
 13 20  1  0  0  0  0
 14 24  1  0  0  0  0
 15 18  1  0  0  0  0
 15 19  2  0  0  0  0
 16 17  1  0  0  0  0
 16 20  1  0  0  0  0
 16 21  2  0  0  0  0
 18 22  1  0  0  0  0
 18 23  1  0  0  0  0
  1 25  1  0  0  0  0
  2 26  1  0  0  0  0
  3 27  1  0  0  0  0
  4 28  1  0  0  0  0
  5 29  1  0  0  0  0
  6 30  1  0  0  0  0
  7 31  1  0  0  0  0
  8 32  1  0  0  0  0
  9 33  1  0  0  0  0
 17 34  1  0  0  0  0
 17 35  1  0  0  0  0
 18 36  1  0  0  0  0
 20 37  1  0  0  0  0
M  END
> <compound>
JOH-UNI-6fede743-2

> <compound_smiles>
c1ccc2c(c1)cnc(c2NC(=O)Cc3cccc(c3)Cl)C(F)F

> <enantiomer_smiles>
c1ccc2c(c1)cnc(c2NC(=O)Cc3cccc(c3)Cl)C(F)F

> <scaffold>
chlorobenzene-linker

> <clash_score>
0.732266215782602

> <docking_score>
-9.392404556274414

> <overlap_score>
1.0

> <MMFF_internal_energy>
138.8249165404675

> <docked_smiles>
c1ccc2c(c1)cnc(c2NC(=O)Cc3cccc(c3)Cl)C(F)F

$$$$
JOH-UNI-6fede743-5_1
  -OEChem-07262101023D

 37 39  0     0  0  0  0  0  0999 V2000
   11.9780    0.4600   23.9150 C   0  0  0  0  0  0  0  0  0  0  0  0
    3.8466    2.1514   18.8550 C   0  0  0  0  0  0  0  0  0  0  0  0
   10.6560    0.0720   23.7350 C   0  0  0  0  0  0  0  0  0  0  0  0
    3.4530    2.5387   20.1356 C   0  0  0  0  0  0  0  0  0  0  0  0
   12.9840   -0.1200   23.1530 C   0  0  0  0  0  0  0  0  0  0  0  0
    5.1401    1.0976   21.0939 C   0  0  0  0  0  0  0  0  0  0  0  0
   11.3360   -1.5050   22.0650 C   0  0  0  0  0  0  0  0  0  0  0  0
    5.3282    0.8085   17.4255 C   0  0  0  0  0  0  0  0  0  0  0  0
    4.8936    1.2308   18.6835 C   0  0  0  0  0  0  0  0  0  0  0  0
    5.5494    0.6963   19.8117 C   0  0  0  0  0  0  0  0  0  0  0  0
   10.3220   -0.8940   22.7910 C   0  0  0  0  0  0  0  0  0  0  0  0
    6.5903   -0.2196   19.6196 C   0  0  0  0  0  0  0  0  0  0  0  0
    4.0982    2.0130   21.2526 C   0  0  0  0  0  0  0  0  0  0  0  0
   12.6400   -1.1000   22.2390 C   0  0  0  0  0  0  0  0  0  0  0  0
    6.9356   -0.5653   18.3220 C   0  0  0  0  0  0  0  0  0  0  0  0
    8.3880   -0.3240   21.3070 C   0  0  0  0  0  0  0  0  0  0  0  0
    8.8810   -1.1900   22.4510 C   0  0  0  0  0  0  0  0  0  0  0  0
    8.0396   -1.5398   18.0632 C   0  0  0  0  0  0  0  0  0  0  0  0
    6.3311   -0.0746   17.2191 N   0  0  0  0  0  0  0  0  0  0  0  0
    7.2820   -0.7860   20.6970 N   0  0  0  0  0  0  0  0  0  0  0  0
    8.9170    0.7530   21.0260 O   0  0  0  0  0  0  0  0  0  0  0  0
    3.7189    2.3872   22.4816 F   0  0  0  0  0  0  0  0  0  0  0  0
    7.5614   -2.8101   18.0346 F   0  0  0  0  0  0  0  0  0  0  0  0
    8.9618   -1.4946   19.0584 F   0  0  0  0  0  0  0  0  0  0  0  0
   13.8840   -1.8490   21.2740 Cl  0  0  0  0  0  0  0  0  0  0  0  0
   12.2249    1.2198   24.6546 H   0  0  0  0  0  0  0  0  0  0  0  0
    3.3326    2.5720   17.9935 H   0  0  0  0  0  0  0  0  0  0  0  0
    9.8763    0.5350   24.3454 H   0  0  0  0  0  0  0  0  0  0  0  0
    2.6433    3.2515   20.2622 H   0  0  0  0  0  0  0  0  0  0  0  0
   14.0077    0.1988   23.2842 H   0  0  0  0  0  0  0  0  0  0  0  0
    5.6187    0.7112   21.9907 H   0  0  0  0  0  0  0  0  0  0  0  0
   11.0892   -2.3009   21.3624 H   0  0  0  0  0  0  0  0  0  0  0  0
    4.8652    1.1803   16.5153 H   0  0  0  0  0  0  0  0  0  0  0  0
    8.7774   -2.2383   22.1732 H   0  0  0  0  0  0  0  0  0  0  0  0
    8.2557   -1.0153   23.3257 H   0  0  0  0  0  0  0  0  0  0  0  0
    8.5500   -1.3483   17.1191 H   0  0  0  0  0  0  0  0  0  0  0  0
    6.8980   -1.6610   21.0666 H   0  0  0  0  0  0  0  0  0  0  0  0
  1  3  1  0  0  0  0
  1  5  2  0  0  0  0
  2  4  2  0  0  0  0
  2  9  1  0  0  0  0
  3 11  2  0  0  0  0
  4 13  1  0  0  0  0
  5 14  1  0  0  0  0
  6 10  1  0  0  0  0
  6 13  2  0  0  0  0
  7 11  1  0  0  0  0
  7 14  2  0  0  0  0
  8  9  1  0  0  0  0
  8 19  2  0  0  0  0
  9 10  2  0  0  0  0
 10 12  1  0  0  0  0
 11 17  1  0  0  0  0
 12 15  2  0  0  0  0
 12 20  1  0  0  0  0
 13 22  1  0  0  0  0
 14 25  1  0  0  0  0
 15 18  1  0  0  0  0
 15 19  1  0  0  0  0
 16 17  1  0  0  0  0
 16 20  1  0  0  0  0
 16 21  2  0  0  0  0
 18 23  1  0  0  0  0
 18 24  1  0  0  0  0
  1 26  1  0  0  0  0
  2 27  1  0  0  0  0
  3 28  1  0  0  0  0
  4 29  1  0  0  0  0
  5 30  1  0  0  0  0
  6 31  1  0  0  0  0
  7 32  1  0  0  0  0
  8 33  1  0  0  0  0
 17 34  1  0  0  0  0
 17 35  1  0  0  0  0
 18 36  1  0  0  0  0
 20 37  1  0  0  0  0
M  END
> <compound>
JOH-UNI-6fede743-5

> <compound_smiles>
c1cc(cc(c1)Cl)CC(=O)Nc2c3cc(ccc3cnc2C(F)F)F

> <enantiomer_smiles>
c1cc(cc(c1)Cl)CC(=O)Nc2c3cc(ccc3cnc2C(F)F)F

> <scaffold>
chlorobenzene-linker

> <clash_score>
0.7316817195006767

> <docking_score>
-9.315841674804688

> <overlap_score>
1.0096192359924316

> <MMFF_internal_energy>
131.81376662612521

> <docked_smiles>
c1cc(cc(c1)Cl)CC(=O)Nc2c3cc(ccc3cnc2C(F)F)F

$$$$
MAK-UNK-c749d764-6_1
  -OEChem-07262101023D

 56 58  0     1  0  0  0  0  0999 V2000
    3.4829    2.5990   20.0546 C   0  0  0  0  0  0  0  0  0  0  0  0
    4.1078    2.0778   21.1851 C   0  0  0  0  0  0  0  0  0  0  0  0
   11.9780    0.4600   23.9150 C   0  0  0  0  0  0  0  0  0  0  0  0
    3.8872    2.1924   18.7832 C   0  0  0  0  0  0  0  0  0  0  0  0
    5.1399    1.1477   21.0494 C   0  0  0  0  0  0  0  0  0  0  0  0
   10.6560    0.0720   23.7350 C   0  0  0  0  0  0  0  0  0  0  0  0
   12.9840   -0.1200   23.1530 C   0  0  0  0  0  0  0  0  0  0  0  0
   11.3360   -1.5050   22.0650 C   0  0  0  0  0  0  0  0  0  0  0  0
    5.3690    0.8152   17.3870 C   0  0  0  0  0  0  0  0  0  0  0  0
    6.9479   -0.5684   18.3183 C   0  0  0  0  0  0  0  0  0  0  0  0
    4.9246    1.2569   18.6348 C   0  0  0  0  0  0  0  0  0  0  0  0
    5.5597    0.7270   19.7769 C   0  0  0  0  0  0  0  0  0  0  0  0
   10.3220   -0.8940   22.7910 C   0  0  0  0  0  0  0  0  0  0  0  0
    6.5912   -0.2039   19.6077 C   0  0  0  0  0  0  0  0  0  0  0  0
   12.6400   -1.1000   22.2390 C   0  0  0  0  0  0  0  0  0  0  0  0
    8.3880   -0.3240   21.3070 C   0  0  0  0  0  0  0  0  0  0  0  0
    8.9867   -3.1058   20.7212 C   0  0  0  0  0  0  0  0  0  0  0  0
    6.7620   -4.2010   25.9166 C   0  0  0  0  0  0  0  0  0  0  0  0
    7.2859   -4.1839   24.4908 C   0  0  0  0  0  0  0  0  0  0  0  0
    9.3341   -3.6650   23.1588 C   0  0  0  0  0  0  0  0  0  0  0  0
    7.5817   -5.1326   26.7977 C   0  0  0  0  0  0  0  0  0  0  0  0
    8.8810   -1.1900   22.4510 C   0  0  1  0  0  0  0  0  0  0  0  0
    8.6228   -2.7224   22.1659 C   0  0  1  0  0  0  0  0  0  0  0  0
    6.3631   -0.0826   17.2027 N   0  0  0  0  0  0  0  0  0  0  0  0
    7.2820   -0.7860   20.6970 N   0  0  0  0  0  0  0  0  0  0  0  0
    8.6840   -3.6720   24.4909 N   0  3  0  0  0  0  0  0  0  0  0  0
    8.9170    0.7530   21.0260 O   0  0  0  0  0  0  0  0  0  0  0  0
    7.0569   -5.0973   28.1176 O   0  0  0  0  0  0  0  0  0  0  0  0
   13.8840   -1.8490   21.2740 Cl  0  0  0  0  0  0  0  0  0  0  0  0
    2.6801    3.3223   20.1631 H   0  0  0  0  0  0  0  0  0  0  0  0
    3.7912    2.3956   22.1744 H   0  0  0  0  0  0  0  0  0  0  0  0
   12.2249    1.2198   24.6546 H   0  0  0  0  0  0  0  0  0  0  0  0
    3.3884    2.6092   17.9112 H   0  0  0  0  0  0  0  0  0  0  0  0
    5.6035    0.7643   21.9554 H   0  0  0  0  0  0  0  0  0  0  0  0
    9.8763    0.5350   24.3454 H   0  0  0  0  0  0  0  0  0  0  0  0
   14.0077    0.1988   23.2842 H   0  0  0  0  0  0  0  0  0  0  0  0
   11.0892   -2.3009   21.3624 H   0  0  0  0  0  0  0  0  0  0  0  0
    4.9229    1.1830   16.4670 H   0  0  0  0  0  0  0  0  0  0  0  0
    7.7413   -1.2873   18.1342 H   0  0  0  0  0  0  0  0  0  0  0  0
   10.0518   -2.9366   20.5298 H   0  0  0  0  0  0  0  0  0  0  0  0
    8.7924   -4.1661   20.5309 H   0  0  0  0  0  0  0  0  0  0  0  0
    8.4130   -2.5252   19.9915 H   0  0  0  0  0  0  0  0  0  0  0  0
    5.7104   -4.5150   25.9358 H   0  0  0  0  0  0  0  0  0  0  0  0
    6.7775   -3.1903   26.3440 H   0  0  0  0  0  0  0  0  0  0  0  0
    6.7038   -3.5170   23.8480 H   0  0  0  0  0  0  0  0  0  0  0  0
    7.3147   -5.1858   24.0527 H   0  0  0  0  0  0  0  0  0  0  0  0
    9.3422   -4.7018   22.8116 H   0  0  0  0  0  0  0  0  0  0  0  0
   10.3711   -3.3535   23.3222 H   0  0  0  0  0  0  0  0  0  0  0  0
    8.6293   -4.8173   26.8308 H   0  0  0  0  0  0  0  0  0  0  0  0
    7.5307   -6.1626   26.4303 H   0  0  0  0  0  0  0  0  0  0  0  0
    8.2678   -0.9572   23.3517 H   0  0  0  0  0  0  0  0  0  0  0  0
    7.5483   -2.9169   22.2847 H   0  0  0  0  0  0  0  0  0  0  0  0
    6.8771   -1.6492   21.0526 H   0  0  0  0  0  0  0  0  0  0  0  0
    8.6898   -2.7170   24.8788 H   0  0  0  0  0  0  0  0  0  0  0  0
    9.2467   -4.2385   25.1429 H   0  0  0  0  0  0  0  0  0  0  0  0
    7.5999   -5.6997   28.6516 H   0  0  0  0  0  0  0  0  0  0  0  0
  1  2  1  0  0  0  0
  1  4  2  0  0  0  0
  2  5  2  0  0  0  0
  3  6  2  0  0  0  0
  3  7  1  0  0  0  0
  4 11  1  0  0  0  0
  5 12  1  0  0  0  0
  6 13  1  0  0  0  0
  7 15  2  0  0  0  0
  8 13  2  0  0  0  0
  8 15  1  0  0  0  0
  9 11  2  0  0  0  0
  9 24  1  0  0  0  0
 10 14  1  0  0  0  0
 10 24  2  0  0  0  0
 11 12  1  0  0  0  0
 12 14  2  0  0  0  0
 13 22  1  0  0  0  0
 14 25  1  0  0  0  0
 15 29  1  0  0  0  0
 16 22  1  1  0  0  0
 16 25  1  0  0  0  0
 16 27  2  0  0  0  0
 17 23  1  1  0  0  0
 18 19  1  0  0  0  0
 18 21  1  0  0  0  0
 19 26  1  0  0  0  0
 20 23  1  0  0  0  0
 20 26  1  0  0  0  0
 21 28  1  0  0  0  0
 22 23  1  0  0  0  0
  1 30  1  0  0  0  0
  2 31  1  0  0  0  0
  3 32  1  0  0  0  0
  4 33  1  0  0  0  0
  5 34  1  0  0  0  0
  6 35  1  0  0  0  0
  7 36  1  0  0  0  0
  8 37  1  0  0  0  0
  9 38  1  0  0  0  0
 10 39  1  0  0  0  0
 17 40  1  0  0  0  0
 17 41  1  0  0  0  0
 17 42  1  0  0  0  0
 18 43  1  0  0  0  0
 18 44  1  0  0  0  0
 19 45  1  0  0  0  0
 19 46  1  0  0  0  0
 20 47  1  0  0  0  0
 20 48  1  0  0  0  0
 21 49  1  0  0  0  0
 21 50  1  0  0  0  0
 22 51  1  0  0  0  0
 23 52  1  0  0  0  0
 25 53  1  0  0  0  0
 26 54  1  0  0  0  0
 26 55  1  0  0  0  0
 28 56  1  0  0  0  0
M  CHG  1  26   1
M  END
> <compound>
MAK-UNK-c749d764-6

> <compound_smiles>
CC(CNCCCO)C(c1cccc(c1)Cl)C(=O)Nc2cncc3c2cccc3

> <enantiomer_smiles>
C[C@@H](CNCCCO)[C@@H](c1cccc(c1)Cl)C(=O)Nc2cncc3c2cccc3

> <scaffold>
chlorobenzene-linker

> <clash_score>
0.6134321558014565

> <docking_score>
-11.232338905334473

> <overlap_score>
0.9816722273826599

> <MMFF_internal_energy>
152.23130234940547

> <docked_smiles>
C[C@@H](C[NH2+]CCCO)[C@@H](c1cccc(c1)Cl)C(=O)Nc2cncc3c2cccc3

$$$$
DAR-DIA-076fb6ea-5_1
  -OEChem-07262101023D

 37 39  0     0  0  0  0  0  0999 V2000
    6.2754   -3.0714   21.3896 C   0  0  0  0  0  0  0  0  0  0  0  0
    6.7416   -2.0130   21.0689 C   0  0  0  0  0  0  0  0  0  0  0  0
    5.7423   -4.2816   21.7561 C   0  0  0  0  0  0  0  0  0  0  0  0
    3.5550    2.7115   20.4740 C   0  0  0  0  0  0  0  0  0  0  0  0
    4.1658    2.0460   21.5344 C   0  0  0  0  0  0  0  0  0  0  0  0
   11.9780    0.4600   23.9150 C   0  0  0  0  0  0  0  0  0  0  0  0
    3.9574    2.4545   19.1636 C   0  0  0  0  0  0  0  0  0  0  0  0
    5.1817    1.1205   21.2892 C   0  0  0  0  0  0  0  0  0  0  0  0
   10.6560    0.0720   23.7350 C   0  0  0  0  0  0  0  0  0  0  0  0
   12.9840   -0.1200   23.1530 C   0  0  0  0  0  0  0  0  0  0  0  0
   11.3360   -1.5050   22.0650 C   0  0  0  0  0  0  0  0  0  0  0  0
    5.4203    1.2297   17.6140 C   0  0  0  0  0  0  0  0  0  0  0  0
    6.9703   -0.2850   18.3741 C   0  0  0  0  0  0  0  0  0  0  0  0
    4.9785    1.5252   18.9051 C   0  0  0  0  0  0  0  0  0  0  0  0
    5.5993    0.8494   19.9760 C   0  0  0  0  0  0  0  0  0  0  0  0
   10.3220   -0.8940   22.7910 C   0  0  0  0  0  0  0  0  0  0  0  0
    6.6148   -0.0728   19.6974 C   0  0  0  0  0  0  0  0  0  0  0  0
   12.6400   -1.1000   22.2390 C   0  0  0  0  0  0  0  0  0  0  0  0
    8.3880   -0.3240   21.3070 C   0  0  0  0  0  0  0  0  0  0  0  0
    8.8810   -1.1900   22.4510 C   0  0  0  0  0  0  0  0  0  0  0  0
    5.2916   -5.3045   22.0664 N   0  0  0  0  0  0  0  0  0  0  0  0
    6.3991    0.3429   17.3244 N   0  0  0  0  0  0  0  0  0  0  0  0
    7.2820   -0.7860   20.6970 N   0  0  0  0  0  0  0  0  0  0  0  0
    8.9170    0.7530   21.0260 O   0  0  0  0  0  0  0  0  0  0  0  0
   13.8840   -1.8490   21.2740 Cl  0  0  0  0  0  0  0  0  0  0  0  0
    2.7648    3.4309   20.6677 H   0  0  0  0  0  0  0  0  0  0  0  0
    3.8507    2.2474   22.5543 H   0  0  0  0  0  0  0  0  0  0  0  0
   12.2249    1.2198   24.6546 H   0  0  0  0  0  0  0  0  0  0  0  0
    3.4699    2.9828   18.3475 H   0  0  0  0  0  0  0  0  0  0  0  0
    5.6345    0.6219   22.1431 H   0  0  0  0  0  0  0  0  0  0  0  0
    9.8763    0.5350   24.3454 H   0  0  0  0  0  0  0  0  0  0  0  0
   14.0077    0.1988   23.2842 H   0  0  0  0  0  0  0  0  0  0  0  0
   11.0892   -2.3009   21.3624 H   0  0  0  0  0  0  0  0  0  0  0  0
    4.9848    1.7143   16.7444 H   0  0  0  0  0  0  0  0  0  0  0  0
    7.7516   -0.9906   18.1059 H   0  0  0  0  0  0  0  0  0  0  0  0
    8.7964   -2.2444   22.1829 H   0  0  0  0  0  0  0  0  0  0  0  0
    8.2579   -1.0138   23.3292 H   0  0  0  0  0  0  0  0  0  0  0  0
  1  2  3  0  0  0  0
  1  3  1  0  0  0  0
  2 23  1  0  0  0  0
  3 21  3  0  0  0  0
  4  5  1  0  0  0  0
  4  7  2  0  0  0  0
  5  8  2  0  0  0  0
  6  9  2  0  0  0  0
  6 10  1  0  0  0  0
  7 14  1  0  0  0  0
  8 15  1  0  0  0  0
  9 16  1  0  0  0  0
 10 18  2  0  0  0  0
 11 16  2  0  0  0  0
 11 18  1  0  0  0  0
 12 14  2  0  0  0  0
 12 22  1  0  0  0  0
 13 17  1  0  0  0  0
 13 22  2  0  0  0  0
 14 15  1  0  0  0  0
 15 17  2  0  0  0  0
 16 20  1  0  0  0  0
 17 23  1  0  0  0  0
 18 25  1  0  0  0  0
 19 20  1  0  0  0  0
 19 23  1  0  0  0  0
 19 24  2  0  0  0  0
  4 26  1  0  0  0  0
  5 27  1  0  0  0  0
  6 28  1  0  0  0  0
  7 29  1  0  0  0  0
  8 30  1  0  0  0  0
  9 31  1  0  0  0  0
 10 32  1  0  0  0  0
 11 33  1  0  0  0  0
 12 34  1  0  0  0  0
 13 35  1  0  0  0  0
 20 36  1  0  0  0  0
 20 37  1  0  0  0  0
M  END
> <compound>
DAR-DIA-076fb6ea-5

> <compound_smiles>
c1ccc2c(c1)cncc2N(C#CC#N)C(=O)Cc3cccc(c3)Cl

> <enantiomer_smiles>
c1ccc2c(c1)cncc2N(C#CC#N)C(=O)Cc3cccc(c3)Cl

> <scaffold>
chlorobenzene-linker

> <clash_score>
0

> <docking_score>
-10.514463424682617

> <overlap_score>
1.0

> <MMFF_internal_energy>
118.51824186081053

> <docked_smiles>
c1ccc2c(c1)cncc2N(C#CC#N)C(=O)Cc3cccc(c3)Cl

$$$$
NAU-LAT-4ce8bf23-2_1
  -OEChem-07262101023D

 44 46  0     0  0  0  0  0  0999 V2000
    3.4052    2.5518   20.7394 C   0  0  0  0  0  0  0  0  0  0  0  0
    4.0598    1.8492   21.7484 C   0  0  0  0  0  0  0  0  0  0  0  0
   11.9780    0.4600   23.9150 C   0  0  0  0  0  0  0  0  0  0  0  0
    3.7984    2.3944   19.4106 C   0  0  0  0  0  0  0  0  0  0  0  0
    5.1108    0.9862   21.4332 C   0  0  0  0  0  0  0  0  0  0  0  0
   10.6560    0.0720   23.7350 C   0  0  0  0  0  0  0  0  0  0  0  0
   12.9840   -0.1200   23.1530 C   0  0  0  0  0  0  0  0  0  0  0  0
   11.3360   -1.5050   22.0650 C   0  0  0  0  0  0  0  0  0  0  0  0
    5.2892    1.3334   17.7694 C   0  0  0  0  0  0  0  0  0  0  0  0
    6.9142   -0.1561   18.4141 C   0  0  0  0  0  0  0  0  0  0  0  0
    4.8546    1.5285   19.0819 C   0  0  0  0  0  0  0  0  0  0  0  0
    5.5199    0.8155   20.1005 C   0  0  0  0  0  0  0  0  0  0  0  0
   10.3220   -0.8940   22.7910 C   0  0  0  0  0  0  0  0  0  0  0  0
    6.5697   -0.0422   19.7523 C   0  0  0  0  0  0  0  0  0  0  0  0
   12.6400   -1.1000   22.2390 C   0  0  0  0  0  0  0  0  0  0  0  0
    8.3880   -0.3240   21.3070 C   0  0  0  0  0  0  0  0  0  0  0  0
    6.7835   -4.6202   20.7431 C   0  0  0  0  0  0  0  0  0  0  0  0
    8.8810   -1.1900   22.4510 C   0  0  0  0  0  0  0  0  0  0  0  0
    7.3148   -3.2624   20.3205 C   0  0  0  0  0  0  0  0  0  0  0  0
    6.7276   -2.1082   21.1209 C   0  0  0  0  0  0  0  0  0  0  0  0
    6.3007    0.5100   17.4128 N   0  0  0  0  0  0  0  0  0  0  0  0
    7.0560   -4.8997   22.0655 N   0  0  0  0  0  0  0  0  0  0  0  0
    7.2820   -0.7860   20.6970 N   0  0  0  0  0  0  0  0  0  0  0  0
    8.9170    0.7530   21.0260 O   0  0  0  0  0  0  0  0  0  0  0  0
    6.1713   -5.3806   19.9990 O   0  0  0  0  0  0  0  0  0  0  0  0
   13.8840   -1.8490   21.2740 Cl  0  0  0  0  0  0  0  0  0  0  0  0
    2.5877    3.2224   20.9875 H   0  0  0  0  0  0  0  0  0  0  0  0
    3.7518    1.9730   22.7827 H   0  0  0  0  0  0  0  0  0  0  0  0
   12.2249    1.2198   24.6546 H   0  0  0  0  0  0  0  0  0  0  0  0
    3.2764    2.9504   18.6353 H   0  0  0  0  0  0  0  0  0  0  0  0
    5.5974    0.4559   22.2486 H   0  0  0  0  0  0  0  0  0  0  0  0
    9.8763    0.5350   24.3454 H   0  0  0  0  0  0  0  0  0  0  0  0
   14.0077    0.1988   23.2842 H   0  0  0  0  0  0  0  0  0  0  0  0
   11.0892   -2.3008   21.3624 H   0  0  0  0  0  0  0  0  0  0  0  0
    4.8201    1.8513   16.9373 H   0  0  0  0  0  0  0  0  0  0  0  0
    7.7209   -0.8088   18.0926 H   0  0  0  0  0  0  0  0  0  0  0  0
    8.8006   -2.2403   22.1717 H   0  0  0  0  0  0  0  0  0  0  0  0
    8.2668   -1.0117   23.3332 H   0  0  0  0  0  0  0  0  0  0  0  0
    7.1158   -3.1257   19.2506 H   0  0  0  0  0  0  0  0  0  0  0  0
    8.4023   -3.2787   20.4613 H   0  0  0  0  0  0  0  0  0  0  0  0
    5.6389   -2.0597   21.0155 H   0  0  0  0  0  0  0  0  0  0  0  0
    6.9659   -2.2263   22.1825 H   0  0  0  0  0  0  0  0  0  0  0  0
    7.5609   -4.2136   22.6165 H   0  0  0  0  0  0  0  0  0  0  0  0
    6.7695   -5.7675   22.5072 H   0  0  0  0  0  0  0  0  0  0  0  0
  1  2  1  0  0  0  0
  1  4  2  0  0  0  0
  2  5  2  0  0  0  0
  3  6  2  0  0  0  0
  3  7  1  0  0  0  0
  4 11  1  0  0  0  0
  5 12  1  0  0  0  0
  6 13  1  0  0  0  0
  7 15  2  0  0  0  0
  8 13  2  0  0  0  0
  8 15  1  0  0  0  0
  9 11  2  0  0  0  0
  9 21  1  0  0  0  0
 10 14  1  0  0  0  0
 10 21  2  0  0  0  0
 11 12  1  0  0  0  0
 12 14  2  0  0  0  0
 13 18  1  0  0  0  0
 14 23  1  0  0  0  0
 15 26  1  0  0  0  0
 16 18  1  0  0  0  0
 16 23  1  0  0  0  0
 16 24  2  0  0  0  0
 17 19  1  0  0  0  0
 17 22  1  0  0  0  0
 17 25  2  0  0  0  0
 19 20  1  0  0  0  0
 20 23  1  0  0  0  0
  1 27  1  0  0  0  0
  2 28  1  0  0  0  0
  3 29  1  0  0  0  0
  4 30  1  0  0  0  0
  5 31  1  0  0  0  0
  6 32  1  0  0  0  0
  7 33  1  0  0  0  0
  8 34  1  0  0  0  0
  9 35  1  0  0  0  0
 10 36  1  0  0  0  0
 18 37  1  0  0  0  0
 18 38  1  0  0  0  0
 19 39  1  0  0  0  0
 19 40  1  0  0  0  0
 20 41  1  0  0  0  0
 20 42  1  0  0  0  0
 22 43  1  0  0  0  0
 22 44  1  0  0  0  0
M  END
> <compound>
NAU-LAT-4ce8bf23-2

> <compound_smiles>
c1ccc2c(c1)cncc2N(CCC(=O)N)C(=O)Cc3cccc(c3)Cl

> <enantiomer_smiles>
c1ccc2c(c1)cncc2N(CCC(=O)N)C(=O)Cc3cccc(c3)Cl

> <scaffold>
chlorobenzene-linker

> <clash_score>
0.7183570935952345

> <docking_score>
-9.17013168334961

> <overlap_score>
1.0

> <MMFF_internal_energy>
92.22725412026043

> <docked_smiles>
c1ccc2c(c1)cncc2N(CCC(=O)N)C(=O)Cc3cccc(c3)Cl

$$$$
MAK-UNK-c749d764-22_2
  -OEChem-07262101023D

 60 63  0     1  0  0  0  0  0999 V2000
    3.4829    2.5990   20.0546 C   0  0  0  0  0  0  0  0  0  0  0  0
    4.1078    2.0778   21.1851 C   0  0  0  0  0  0  0  0  0  0  0  0
   11.9780    0.4600   23.9150 C   0  0  0  0  0  0  0  0  0  0  0  0
    3.8872    2.1924   18.7832 C   0  0  0  0  0  0  0  0  0  0  0  0
    5.1399    1.1477   21.0494 C   0  0  0  0  0  0  0  0  0  0  0  0
   10.6560    0.0720   23.7350 C   0  0  0  0  0  0  0  0  0  0  0  0
   12.9840   -0.1200   23.1530 C   0  0  0  0  0  0  0  0  0  0  0  0
   11.3360   -1.5050   22.0650 C   0  0  0  0  0  0  0  0  0  0  0  0
    5.3690    0.8152   17.3870 C   0  0  0  0  0  0  0  0  0  0  0  0
    6.9479   -0.5684   18.3183 C   0  0  0  0  0  0  0  0  0  0  0  0
    4.9246    1.2569   18.6348 C   0  0  0  0  0  0  0  0  0  0  0  0
    5.5597    0.7270   19.7769 C   0  0  0  0  0  0  0  0  0  0  0  0
   10.3220   -0.8940   22.7910 C   0  0  0  0  0  0  0  0  0  0  0  0
    6.5912   -0.2039   19.6077 C   0  0  0  0  0  0  0  0  0  0  0  0
   12.6400   -1.1000   22.2390 C   0  0  0  0  0  0  0  0  0  0  0  0
    8.3880   -0.3240   21.3070 C   0  0  0  0  0  0  0  0  0  0  0  0
    7.8944   -8.1367   17.4277 C   0  0  0  0  0  0  0  0  0  0  0  0
    8.9022   -7.0193   17.5294 C   0  0  0  0  0  0  0  0  0  0  0  0
    6.6822   -7.5268   18.0993 C   0  0  0  0  0  0  0  0  0  0  0  0
    8.5879   -6.4526   18.9032 C   0  0  2  0  0  0  0  0  0  0  0  0
    9.3569   -3.6322   23.1659 C   0  0  0  0  0  0  0  0  0  0  0  0
    8.9760   -4.9952   19.0599 C   0  0  0  0  0  0  0  0  0  0  0  0
    8.9748   -3.1287   20.7198 C   0  0  0  0  0  0  0  0  0  0  0  0
    8.8810   -1.1900   22.4510 C   0  0  1  0  0  0  0  0  0  0  0  0
    8.6228   -2.7224   22.1659 C   0  0  2  0  0  0  0  0  0  0  0  0
    6.3631   -0.0826   17.2027 N   0  0  0  0  0  0  0  0  0  0  0  0
    7.2820   -0.7860   20.6970 N   0  0  0  0  0  0  0  0  0  0  0  0
    8.5897   -4.5284   20.4199 N   0  3  0  0  0  0  0  0  0  0  0  0
    8.9170    0.7530   21.0260 O   0  0  0  0  0  0  0  0  0  0  0  0
    7.1694   -6.6022   19.0833 O   0  0  0  0  0  0  0  0  0  0  0  0
   13.8840   -1.8490   21.2740 Cl  0  0  0  0  0  0  0  0  0  0  0  0
    2.6801    3.3223   20.1631 H   0  0  0  0  0  0  0  0  0  0  0  0
    3.7912    2.3956   22.1744 H   0  0  0  0  0  0  0  0  0  0  0  0
   12.2249    1.2198   24.6546 H   0  0  0  0  0  0  0  0  0  0  0  0
    3.3884    2.6092   17.9112 H   0  0  0  0  0  0  0  0  0  0  0  0
    5.6035    0.7643   21.9554 H   0  0  0  0  0  0  0  0  0  0  0  0
    9.8763    0.5350   24.3454 H   0  0  0  0  0  0  0  0  0  0  0  0
   14.0077    0.1988   23.2842 H   0  0  0  0  0  0  0  0  0  0  0  0
   11.0892   -2.3009   21.3624 H   0  0  0  0  0  0  0  0  0  0  0  0
    4.9229    1.1830   16.4670 H   0  0  0  0  0  0  0  0  0  0  0  0
    7.7413   -1.2873   18.1342 H   0  0  0  0  0  0  0  0  0  0  0  0
    7.6971   -8.4602   16.4025 H   0  0  0  0  0  0  0  0  0  0  0  0
    8.2423   -9.0048   18.0001 H   0  0  0  0  0  0  0  0  0  0  0  0
    9.9376   -7.3582   17.4358 H   0  0  0  0  0  0  0  0  0  0  0  0
    8.7100   -6.2784   16.7439 H   0  0  0  0  0  0  0  0  0  0  0  0
    6.0756   -6.9616   17.3836 H   0  0  0  0  0  0  0  0  0  0  0  0
    6.0471   -8.2762   18.5798 H   0  0  0  0  0  0  0  0  0  0  0  0
    9.0778   -7.0496   19.6814 H   0  0  0  0  0  0  0  0  0  0  0  0
   10.4405   -3.4843   23.1042 H   0  0  0  0  0  0  0  0  0  0  0  0
    9.0622   -3.4090   24.1962 H   0  0  0  0  0  0  0  0  0  0  0  0
    9.1465   -4.6905   22.9805 H   0  0  0  0  0  0  0  0  0  0  0  0
    8.4537   -4.3579   18.3411 H   0  0  0  0  0  0  0  0  0  0  0  0
   10.0560   -4.8520   18.9659 H   0  0  0  0  0  0  0  0  0  0  0  0
    8.4699   -2.5022   19.9794 H   0  0  0  0  0  0  0  0  0  0  0  0
   10.0534   -3.0602   20.5439 H   0  0  0  0  0  0  0  0  0  0  0  0
    8.2678   -0.9572   23.3517 H   0  0  0  0  0  0  0  0  0  0  0  0
    7.5494   -2.9234   22.2832 H   0  0  0  0  0  0  0  0  0  0  0  0
    6.8771   -1.6492   21.0526 H   0  0  0  0  0  0  0  0  0  0  0  0
    7.5705   -4.6337   20.5319 H   0  0  0  0  0  0  0  0  0  0  0  0
    9.0111   -5.1564   21.1204 H   0  0  0  0  0  0  0  0  0  0  0  0
  1  2  1  0  0  0  0
  1  4  2  0  0  0  0
  2  5  2  0  0  0  0
  3  6  2  0  0  0  0
  3  7  1  0  0  0  0
  4 11  1  0  0  0  0
  5 12  1  0  0  0  0
  6 13  1  0  0  0  0
  7 15  2  0  0  0  0
  8 13  2  0  0  0  0
  8 15  1  0  0  0  0
  9 11  2  0  0  0  0
  9 26  1  0  0  0  0
 10 14  1  0  0  0  0
 10 26  2  0  0  0  0
 11 12  1  0  0  0  0
 12 14  2  0  0  0  0
 13 24  1  0  0  0  0
 14 27  1  0  0  0  0
 15 31  1  0  0  0  0
 16 24  1  1  0  0  0
 16 27  1  0  0  0  0
 16 29  2  0  0  0  0
 17 18  1  0  0  0  0
 17 19  1  0  0  0  0
 18 20  1  0  0  0  0
 19 30  1  0  0  0  0
 20 22  1  1  0  0  0
 20 30  1  0  0  0  0
 21 25  1  6  0  0  0
 22 28  1  0  0  0  0
 23 25  1  0  0  0  0
 23 28  1  0  0  0  0
 24 25  1  0  0  0  0
  1 32  1  0  0  0  0
  2 33  1  0  0  0  0
  3 34  1  0  0  0  0
  4 35  1  0  0  0  0
  5 36  1  0  0  0  0
  6 37  1  0  0  0  0
  7 38  1  0  0  0  0
  8 39  1  0  0  0  0
  9 40  1  0  0  0  0
 10 41  1  0  0  0  0
 17 42  1  0  0  0  0
 17 43  1  0  0  0  0
 18 44  1  0  0  0  0
 18 45  1  0  0  0  0
 19 46  1  0  0  0  0
 19 47  1  0  0  0  0
 20 48  1  0  0  0  0
 21 49  1  0  0  0  0
 21 50  1  0  0  0  0
 21 51  1  0  0  0  0
 22 52  1  0  0  0  0
 22 53  1  0  0  0  0
 23 54  1  0  0  0  0
 23 55  1  0  0  0  0
 24 56  1  0  0  0  0
 25 57  1  0  0  0  0
 27 58  1  0  0  0  0
 28 59  1  0  0  0  0
 28 60  1  0  0  0  0
M  CHG  1  28   1
M  END
> <compound>
MAK-UNK-c749d764-22

> <compound_smiles>
CC(CNCC1CCCO1)C(c2cccc(c2)Cl)C(=O)Nc3cncc4c3cccc4

> <enantiomer_smiles>
C[C@H](CNC[C@@H]1CCCO1)[C@@H](c2cccc(c2)Cl)C(=O)Nc3cncc4c3cccc4

> <scaffold>
chlorobenzene-linker

> <clash_score>
7.301607101113208

> <docking_score>
-2.6528568267822266

> <overlap_score>
0.9759035706520081

> <MMFF_internal_energy>
164.2808273284728

> <docked_smiles>
C[C@H](C[NH2+]C[C@@H]1CCCO1)[C@@H](c2cccc(c2)Cl)C(=O)Nc3cncc4c3cccc4

$$$$
DAR-DIA-076fb6ea-6_1
  -OEChem-07262101023D

 34 35  0     0  0  0  0  0  0999 V2000
    6.1604   -3.0250   21.2630 C   0  0  0  0  0  0  0  0  0  0  0  0
    6.6846   -1.9784   20.9984 C   0  0  0  0  0  0  0  0  0  0  0  0
    5.5610   -4.2217   21.5658 C   0  0  0  0  0  0  0  0  0  0  0  0
   11.9780    0.4600   23.9150 C   0  0  0  0  0  0  0  0  0  0  0  0
   10.6560    0.0720   23.7350 C   0  0  0  0  0  0  0  0  0  0  0  0
   12.9840   -0.1200   23.1530 C   0  0  0  0  0  0  0  0  0  0  0  0
    4.7154    1.1660   18.7829 C   0  0  0  0  0  0  0  0  0  0  0  0
   11.3360   -1.5050   22.0650 C   0  0  0  0  0  0  0  0  0  0  0  0
    5.4743    1.4422   17.6571 C   0  0  0  0  0  0  0  0  0  0  0  0
    7.2934    0.3188   18.4981 C   0  0  0  0  0  0  0  0  0  0  0  0
   10.3220   -0.8940   22.7910 C   0  0  0  0  0  0  0  0  0  0  0  0
    5.3064    0.4256   19.8007 C   0  0  0  0  0  0  0  0  0  0  0  0
    6.6197   -0.0098   19.6634 C   0  0  0  0  0  0  0  0  0  0  0  0
   12.6400   -1.1000   22.2390 C   0  0  0  0  0  0  0  0  0  0  0  0
    8.3880   -0.3240   21.3070 C   0  0  0  0  0  0  0  0  0  0  0  0
    4.5113    0.1138   21.0260 C   0  0  0  0  0  0  0  0  0  0  0  0
    8.8810   -1.1900   22.4510 C   0  0  0  0  0  0  0  0  0  0  0  0
    5.0543   -5.2335   21.8213 N   0  0  0  0  0  0  0  0  0  0  0  0
    6.7527    1.0362   17.4878 N   0  0  0  0  0  0  0  0  0  0  0  0
    7.2820   -0.7860   20.6970 N   0  0  0  0  0  0  0  0  0  0  0  0
    8.9170    0.7530   21.0260 O   0  0  0  0  0  0  0  0  0  0  0  0
   13.8840   -1.8490   21.2740 Cl  0  0  0  0  0  0  0  0  0  0  0  0
   12.2249    1.2198   24.6546 H   0  0  0  0  0  0  0  0  0  0  0  0
    9.8763    0.5350   24.3454 H   0  0  0  0  0  0  0  0  0  0  0  0
   14.0077    0.1988   23.2842 H   0  0  0  0  0  0  0  0  0  0  0  0
    3.6931    1.5207   18.8590 H   0  0  0  0  0  0  0  0  0  0  0  0
   11.0892   -2.3009   21.3624 H   0  0  0  0  0  0  0  0  0  0  0  0
    5.0597    2.0163   16.8350 H   0  0  0  0  0  0  0  0  0  0  0  0
    8.3205    0.0074   18.3321 H   0  0  0  0  0  0  0  0  0  0  0  0
    3.9751   -0.8338   20.8998 H   0  0  0  0  0  0  0  0  0  0  0  0
    5.1580    0.0349   21.9086 H   0  0  0  0  0  0  0  0  0  0  0  0
    3.7800    0.9043   21.2356 H   0  0  0  0  0  0  0  0  0  0  0  0
    8.7890   -2.2449   22.1800 H   0  0  0  0  0  0  0  0  0  0  0  0
    8.2505   -1.0142   23.3263 H   0  0  0  0  0  0  0  0  0  0  0  0
  1  2  3  0  0  0  0
  1  3  1  0  0  0  0
  2 20  1  0  0  0  0
  3 18  3  0  0  0  0
  4  5  2  0  0  0  0
  4  6  1  0  0  0  0
  5 11  1  0  0  0  0
  6 14  2  0  0  0  0
  7  9  2  0  0  0  0
  7 12  1  0  0  0  0
  8 11  2  0  0  0  0
  8 14  1  0  0  0  0
  9 19  1  0  0  0  0
 10 13  1  0  0  0  0
 10 19  2  0  0  0  0
 11 17  1  0  0  0  0
 12 13  2  0  0  0  0
 12 16  1  0  0  0  0
 13 20  1  0  0  0  0
 14 22  1  0  0  0  0
 15 17  1  0  0  0  0
 15 20  1  0  0  0  0
 15 21  2  0  0  0  0
  4 23  1  0  0  0  0
  5 24  1  0  0  0  0
  6 25  1  0  0  0  0
  7 26  1  0  0  0  0
  8 27  1  0  0  0  0
  9 28  1  0  0  0  0
 10 29  1  0  0  0  0
 16 30  1  0  0  0  0
 16 31  1  0  0  0  0
 16 32  1  0  0  0  0
 17 33  1  0  0  0  0
 17 34  1  0  0  0  0
M  END
> <compound>
DAR-DIA-076fb6ea-6

> <compound_smiles>
Cc1ccncc1N(C#CC#N)C(=O)Cc2cccc(c2)Cl

> <enantiomer_smiles>
Cc1ccncc1N(C#CC#N)C(=O)Cc2cccc(c2)Cl

> <scaffold>
chlorobenzene-linker

> <clash_score>
0

> <docking_score>
-4.968957901000977

> <overlap_score>
0.8531414866447449

> <MMFF_internal_energy>
93.21952669413392

> <docked_smiles>
Cc1ccncc1N(C#CC#N)C(=O)Cc2cccc(c2)Cl

$$$$
MAK-UNK-c749d764-22_1
  -OEChem-07262101023D

 60 63  0     1  0  0  0  0  0999 V2000
    3.4829    2.5989   20.0545 C   0  0  0  0  0  0  0  0  0  0  0  0
    4.1078    2.0778   21.1851 C   0  0  0  0  0  0  0  0  0  0  0  0
   11.9780    0.4600   23.9150 C   0  0  0  0  0  0  0  0  0  0  0  0
    3.8872    2.1924   18.7832 C   0  0  0  0  0  0  0  0  0  0  0  0
    5.1399    1.1477   21.0494 C   0  0  0  0  0  0  0  0  0  0  0  0
   10.6560    0.0720   23.7350 C   0  0  0  0  0  0  0  0  0  0  0  0
   12.9840   -0.1200   23.1530 C   0  0  0  0  0  0  0  0  0  0  0  0
   11.3360   -1.5050   22.0650 C   0  0  0  0  0  0  0  0  0  0  0  0
    5.3690    0.8152   17.3870 C   0  0  0  0  0  0  0  0  0  0  0  0
    6.9479   -0.5684   18.3184 C   0  0  0  0  0  0  0  0  0  0  0  0
    4.9246    1.2569   18.6348 C   0  0  0  0  0  0  0  0  0  0  0  0
    5.5597    0.7270   19.7769 C   0  0  0  0  0  0  0  0  0  0  0  0
   10.3220   -0.8940   22.7910 C   0  0  0  0  0  0  0  0  0  0  0  0
    6.5912   -0.2039   19.6077 C   0  0  0  0  0  0  0  0  0  0  0  0
   12.6400   -1.1000   22.2390 C   0  0  0  0  0  0  0  0  0  0  0  0
    8.3880   -0.3240   21.3070 C   0  0  0  0  0  0  0  0  0  0  0  0
    8.4245   -5.2044   29.0183 C   0  0  0  0  0  0  0  0  0  0  0  0
    9.4920   -4.8144   28.0270 C   0  0  0  0  0  0  0  0  0  0  0  0
    7.3888   -5.8526   28.1240 C   0  0  0  0  0  0  0  0  0  0  0  0
    8.6549   -4.3789   26.8367 C   0  0  2  0  0  0  0  0  0  0  0  0
    8.9867   -3.1058   20.7212 C   0  0  0  0  0  0  0  0  0  0  0  0
    9.3765   -4.5086   25.5094 C   0  0  0  0  0  0  0  0  0  0  0  0
    9.3341   -3.6650   23.1588 C   0  0  0  0  0  0  0  0  0  0  0  0
    8.8810   -1.1900   22.4510 C   0  0  1  0  0  0  0  0  0  0  0  0
    8.6228   -2.7224   22.1659 C   0  0  1  0  0  0  0  0  0  0  0  0
    6.3631   -0.0826   17.2027 N   0  0  0  0  0  0  0  0  0  0  0  0
    7.2820   -0.7860   20.6970 N   0  0  0  0  0  0  0  0  0  0  0  0
    8.6840   -3.6720   24.4909 N   0  3  0  0  0  0  0  0  0  0  0  0
    8.9170    0.7530   21.0260 O   0  0  0  0  0  0  0  0  0  0  0  0
    7.4863   -5.2163   26.8409 O   0  0  0  0  0  0  0  0  0  0  0  0
   13.8840   -1.8490   21.2740 Cl  0  0  0  0  0  0  0  0  0  0  0  0
    2.6801    3.3223   20.1631 H   0  0  0  0  0  0  0  0  0  0  0  0
    3.7912    2.3956   22.1744 H   0  0  0  0  0  0  0  0  0  0  0  0
   12.2249    1.2198   24.6546 H   0  0  0  0  0  0  0  0  0  0  0  0
    3.3884    2.6092   17.9112 H   0  0  0  0  0  0  0  0  0  0  0  0
    5.6035    0.7643   21.9554 H   0  0  0  0  0  0  0  0  0  0  0  0
    9.8763    0.5350   24.3454 H   0  0  0  0  0  0  0  0  0  0  0  0
   14.0077    0.1988   23.2842 H   0  0  0  0  0  0  0  0  0  0  0  0
   11.0892   -2.3009   21.3624 H   0  0  0  0  0  0  0  0  0  0  0  0
    4.9229    1.1830   16.4670 H   0  0  0  0  0  0  0  0  0  0  0  0
    7.7413   -1.2873   18.1342 H   0  0  0  0  0  0  0  0  0  0  0  0
    8.7801   -5.8683   29.8105 H   0  0  0  0  0  0  0  0  0  0  0  0
    8.0052   -4.3060   29.4864 H   0  0  0  0  0  0  0  0  0  0  0  0
   10.1560   -4.0257   28.3913 H   0  0  0  0  0  0  0  0  0  0  0  0
   10.1023   -5.6915   27.7799 H   0  0  0  0  0  0  0  0  0  0  0  0
    7.5983   -6.9183   27.9834 H   0  0  0  0  0  0  0  0  0  0  0  0
    6.3722   -5.7451   28.5126 H   0  0  0  0  0  0  0  0  0  0  0  0
    8.3133   -3.3457   26.9704 H   0  0  0  0  0  0  0  0  0  0  0  0
   10.0518   -2.9366   20.5298 H   0  0  0  0  0  0  0  0  0  0  0  0
    8.7924   -4.1661   20.5309 H   0  0  0  0  0  0  0  0  0  0  0  0
    8.4130   -2.5252   19.9915 H   0  0  0  0  0  0  0  0  0  0  0  0
    9.3646   -5.5382   25.1414 H   0  0  0  0  0  0  0  0  0  0  0  0
   10.4075   -4.1496   25.5729 H   0  0  0  0  0  0  0  0  0  0  0  0
    9.3422   -4.7018   22.8116 H   0  0  0  0  0  0  0  0  0  0  0  0
   10.3711   -3.3535   23.3222 H   0  0  0  0  0  0  0  0  0  0  0  0
    8.2678   -0.9572   23.3517 H   0  0  0  0  0  0  0  0  0  0  0  0
    7.5483   -2.9169   22.2847 H   0  0  0  0  0  0  0  0  0  0  0  0
    6.8771   -1.6492   21.0526 H   0  0  0  0  0  0  0  0  0  0  0  0
    7.7116   -4.0001   24.3947 H   0  0  0  0  0  0  0  0  0  0  0  0
    8.6161   -2.7056   24.8432 H   0  0  0  0  0  0  0  0  0  0  0  0
  1  2  1  0  0  0  0
  1  4  2  0  0  0  0
  2  5  2  0  0  0  0
  3  6  2  0  0  0  0
  3  7  1  0  0  0  0
  4 11  1  0  0  0  0
  5 12  1  0  0  0  0
  6 13  1  0  0  0  0
  7 15  2  0  0  0  0
  8 13  2  0  0  0  0
  8 15  1  0  0  0  0
  9 11  2  0  0  0  0
  9 26  1  0  0  0  0
 10 14  1  0  0  0  0
 10 26  2  0  0  0  0
 11 12  1  0  0  0  0
 12 14  2  0  0  0  0
 13 24  1  0  0  0  0
 14 27  1  0  0  0  0
 15 31  1  0  0  0  0
 16 24  1  1  0  0  0
 16 27  1  0  0  0  0
 16 29  2  0  0  0  0
 17 18  1  0  0  0  0
 17 19  1  0  0  0  0
 18 20  1  0  0  0  0
 19 30  1  0  0  0  0
 20 22  1  1  0  0  0
 20 30  1  0  0  0  0
 21 25  1  1  0  0  0
 22 28  1  0  0  0  0
 23 25  1  0  0  0  0
 23 28  1  0  0  0  0
 24 25  1  0  0  0  0
  1 32  1  0  0  0  0
  2 33  1  0  0  0  0
  3 34  1  0  0  0  0
  4 35  1  0  0  0  0
  5 36  1  0  0  0  0
  6 37  1  0  0  0  0
  7 38  1  0  0  0  0
  8 39  1  0  0  0  0
  9 40  1  0  0  0  0
 10 41  1  0  0  0  0
 17 42  1  0  0  0  0
 17 43  1  0  0  0  0
 18 44  1  0  0  0  0
 18 45  1  0  0  0  0
 19 46  1  0  0  0  0
 19 47  1  0  0  0  0
 20 48  1  0  0  0  0
 21 49  1  0  0  0  0
 21 50  1  0  0  0  0
 21 51  1  0  0  0  0
 22 52  1  0  0  0  0
 22 53  1  0  0  0  0
 23 54  1  0  0  0  0
 23 55  1  0  0  0  0
 24 56  1  0  0  0  0
 25 57  1  0  0  0  0
 27 58  1  0  0  0  0
 28 59  1  0  0  0  0
 28 60  1  0  0  0  0
M  CHG  1  28   1
M  END
> <compound>
MAK-UNK-c749d764-22

> <compound_smiles>
CC(CNCC1CCCO1)C(c2cccc(c2)Cl)C(=O)Nc3cncc4c3cccc4

> <enantiomer_smiles>
C[C@@H](CNC[C@@H]1CCCO1)[C@@H](c2cccc(c2)Cl)C(=O)Nc3cncc4c3cccc4

> <scaffold>
chlorobenzene-linker

> <clash_score>
0.613432497538474

> <docking_score>
-10.22105598449707

> <overlap_score>
0.9762580990791321

> <MMFF_internal_energy>
169.3075696136829

> <docked_smiles>
C[C@@H](C[NH2+]C[C@@H]1CCCO1)[C@@H](c2cccc(c2)Cl)C(=O)Nc3cncc4c3cccc4

$$$$
DAR-DIA-076fb6ea-2_1
  -OEChem-07262101023D

 37 38  0     0  0  0  0  0  0999 V2000
   11.9780    0.4600   23.9150 C   0  0  0  0  0  0  0  0  0  0  0  0
   10.6560    0.0720   23.7350 C   0  0  0  0  0  0  0  0  0  0  0  0
   12.9840   -0.1200   23.1530 C   0  0  0  0  0  0  0  0  0  0  0  0
    5.1602    1.7279   18.9033 C   0  0  0  0  0  0  0  0  0  0  0  0
   11.3360   -1.5050   22.0650 C   0  0  0  0  0  0  0  0  0  0  0  0
    5.6198    1.4943   17.6172 C   0  0  0  0  0  0  0  0  0  0  0  0
    7.0733   -0.1331   18.3363 C   0  0  0  0  0  0  0  0  0  0  0  0
   10.3220   -0.8940   22.7910 C   0  0  0  0  0  0  0  0  0  0  0  0
    5.7065    0.9747   19.9365 C   0  0  0  0  0  0  0  0  0  0  0  0
    6.6819    0.0244   19.6561 C   0  0  0  0  0  0  0  0  0  0  0  0
   12.6400   -1.1000   22.2390 C   0  0  0  0  0  0  0  0  0  0  0  0
    4.7144   -2.4405   19.5973 C   0  0  0  0  0  0  0  0  0  0  0  0
    6.0004   -2.6863   19.8651 C   0  0  0  0  0  0  0  0  0  0  0  0
    6.6751   -2.0202   21.0185 C   0  0  0  0  0  0  0  0  0  0  0  0
    8.3880   -0.3240   21.3070 C   0  0  0  0  0  0  0  0  0  0  0  0
    5.2298    1.2063   21.3329 C   0  0  0  0  0  0  0  0  0  0  0  0
    8.8810   -1.1900   22.4510 C   0  0  0  0  0  0  0  0  0  0  0  0
    6.5657    0.5799   17.3060 N   0  0  0  0  0  0  0  0  0  0  0  0
    7.2820   -0.7860   20.6970 N   0  0  0  0  0  0  0  0  0  0  0  0
    6.7001   -2.5468   22.1300 O   0  0  0  0  0  0  0  0  0  0  0  0
    8.9170    0.7530   21.0260 O   0  0  0  0  0  0  0  0  0  0  0  0
   13.8840   -1.8490   21.2740 Cl  0  0  0  0  0  0  0  0  0  0  0  0
   12.2249    1.2198   24.6546 H   0  0  0  0  0  0  0  0  0  0  0  0
    9.8763    0.5350   24.3454 H   0  0  0  0  0  0  0  0  0  0  0  0
   14.0077    0.1988   23.2842 H   0  0  0  0  0  0  0  0  0  0  0  0
    4.3980    2.4771   19.0885 H   0  0  0  0  0  0  0  0  0  0  0  0
   11.0892   -2.3009   21.3624 H   0  0  0  0  0  0  0  0  0  0  0  0
    5.2259    2.0554   16.7762 H   0  0  0  0  0  0  0  0  0  0  0  0
    7.8301   -0.8591   18.0541 H   0  0  0  0  0  0  0  0  0  0  0  0
    4.2363   -2.9193   18.7491 H   0  0  0  0  0  0  0  0  0  0  0  0
    4.1091   -1.7731   20.2005 H   0  0  0  0  0  0  0  0  0  0  0  0
    6.5716   -3.3534   19.2294 H   0  0  0  0  0  0  0  0  0  0  0  0
    4.3775    0.5542   21.5563 H   0  0  0  0  0  0  0  0  0  0  0  0
    6.0247    1.0048   22.0615 H   0  0  0  0  0  0  0  0  0  0  0  0
    4.9202    2.2487   21.4782 H   0  0  0  0  0  0  0  0  0  0  0  0
    8.7694   -2.2423   22.1628 H   0  0  0  0  0  0  0  0  0  0  0  0
    8.2812   -1.0412   23.3569 H   0  0  0  0  0  0  0  0  0  0  0  0
  1  2  2  0  0  0  0
  1  3  1  0  0  0  0
  2  8  1  0  0  0  0
  3 11  2  0  0  0  0
  4  6  2  0  0  0  0
  4  9  1  0  0  0  0
  5  8  2  0  0  0  0
  5 11  1  0  0  0  0
  6 18  1  0  0  0  0
  7 10  1  0  0  0  0
  7 18  2  0  0  0  0
  8 17  1  0  0  0  0
  9 10  2  0  0  0  0
  9 16  1  0  0  0  0
 10 19  1  0  0  0  0
 11 22  1  0  0  0  0
 12 13  2  0  0  0  0
 13 14  1  0  0  0  0
 14 19  1  0  0  0  0
 14 20  2  0  0  0  0
 15 17  1  0  0  0  0
 15 19  1  0  0  0  0
 15 21  2  0  0  0  0
  1 23  1  0  0  0  0
  2 24  1  0  0  0  0
  3 25  1  0  0  0  0
  4 26  1  0  0  0  0
  5 27  1  0  0  0  0
  6 28  1  0  0  0  0
  7 29  1  0  0  0  0
 12 30  1  0  0  0  0
 12 31  1  0  0  0  0
 13 32  1  0  0  0  0
 16 33  1  0  0  0  0
 16 34  1  0  0  0  0
 16 35  1  0  0  0  0
 17 36  1  0  0  0  0
 17 37  1  0  0  0  0
M  END
> <compound>
DAR-DIA-076fb6ea-2

> <compound_smiles>
Cc1ccncc1N(C(=O)Cc2cccc(c2)Cl)C(=O)C=C

> <enantiomer_smiles>
Cc1ccncc1N(C(=O)Cc2cccc(c2)Cl)C(=O)C=C

> <scaffold>
chlorobenzene-linker

> <clash_score>
0

> <docking_score>
-8.519678115844727

> <overlap_score>
0.8689149618148804

> <MMFF_internal_energy>
94.57615886393184

> <docked_smiles>
Cc1ccncc1N(C(=O)Cc2cccc(c2)Cl)C(=O)C=C

$$$$
MAK-UNK-c749d764-22_5
  -OEChem-07262101023D

 60 63  0     1  0  0  0  0  0999 V2000
    2.5765    1.0462   19.7996 C   0  0  0  0  0  0  0  0  0  0  0  0
    3.1767    0.4829   20.9233 C   0  0  0  0  0  0  0  0  0  0  0  0
   11.9780    0.4600   23.9150 C   0  0  0  0  0  0  0  0  0  0  0  0
    3.3045    1.1939   18.6191 C   0  0  0  0  0  0  0  0  0  0  0  0
    4.5075    0.0647   20.8716 C   0  0  0  0  0  0  0  0  0  0  0  0
   10.6560    0.0720   23.7350 C   0  0  0  0  0  0  0  0  0  0  0  0
   12.9840   -0.1200   23.1530 C   0  0  0  0  0  0  0  0  0  0  0  0
   11.3360   -1.5050   22.0650 C   0  0  0  0  0  0  0  0  0  0  0  0
    5.4190    0.9004   17.4008 C   0  0  0  0  0  0  0  0  0  0  0  0
    7.2619   -0.0308   18.4065 C   0  0  0  0  0  0  0  0  0  0  0  0
    4.6442    0.7764   18.5558 C   0  0  0  0  0  0  0  0  0  0  0  0
    5.2554    0.2056   19.6913 C   0  0  0  0  0  0  0  0  0  0  0  0
   10.3220   -0.8940   22.7910 C   0  0  0  0  0  0  0  0  0  0  0  0
    6.5912   -0.2039   19.6077 C   0  0  0  0  0  0  0  0  0  0  0  0
   12.6400   -1.1000   22.2390 C   0  0  0  0  0  0  0  0  0  0  0  0
    8.3880   -0.3240   21.3070 C   0  0  0  0  0  0  0  0  0  0  0  0
    2.8179    2.6352   27.2285 C   0  0  0  0  0  0  0  0  0  0  0  0
    3.7179    3.0085   26.0775 C   0  0  0  0  0  0  0  0  0  0  0  0
    3.6405    1.5818   27.9401 C   0  0  0  0  0  0  0  0  0  0  0  0
    4.3144    1.6607   25.7104 C   0  0  2  0  0  0  0  0  0  0  0  0
    8.5537   -1.7378   24.9385 C   0  0  0  0  0  0  0  0  0  0  0  0
    5.6671    1.7619   25.0325 C   0  0  0  0  0  0  0  0  0  0  0  0
    7.4740    0.3571   24.0324 C   0  0  0  0  0  0  0  0  0  0  0  0
    8.8810   -1.1900   22.4510 C   0  0  2  0  0  0  0  0  0  0  0  0
    7.9194   -1.0821   23.6998 C   0  0  1  0  0  0  0  0  0  0  0  0
    6.7100    0.5112   17.3001 N   0  0  0  0  0  0  0  0  0  0  0  0
    7.2820   -0.7860   20.6970 N   0  0  0  0  0  0  0  0  0  0  0  0
    6.1796    0.3921   24.7540 N   0  3  0  0  0  0  0  0  0  0  0  0
    8.9170    0.7530   21.0260 O   0  0  0  0  0  0  0  0  0  0  0  0
    4.4390    0.9291   26.9417 O   0  0  0  0  0  0  0  0  0  0  0  0
   13.8840   -1.8490   21.2740 Cl  0  0  0  0  0  0  0  0  0  0  0  0
    1.5410    1.3706   19.8425 H   0  0  0  0  0  0  0  0  0  0  0  0
    2.6079    0.3686   21.8416 H   0  0  0  0  0  0  0  0  0  0  0  0
   12.2249    1.2198   24.6546 H   0  0  0  0  0  0  0  0  0  0  0  0
    2.8204    1.6355   17.7511 H   0  0  0  0  0  0  0  0  0  0  0  0
    4.9409   -0.3697   21.7696 H   0  0  0  0  0  0  0  0  0  0  0  0
    9.8763    0.5350   24.3454 H   0  0  0  0  0  0  0  0  0  0  0  0
   14.0077    0.1988   23.2842 H   0  0  0  0  0  0  0  0  0  0  0  0
   11.0892   -2.3009   21.3624 H   0  0  0  0  0  0  0  0  0  0  0  0
    5.0099    1.3311   16.4910 H   0  0  0  0  0  0  0  0  0  0  0  0
    8.2990   -0.3328   18.2906 H   0  0  0  0  0  0  0  0  0  0  0  0
    2.5537    3.4778   27.8727 H   0  0  0  0  0  0  0  0  0  0  0  0
    1.8906    2.1914   26.8471 H   0  0  0  0  0  0  0  0  0  0  0  0
    3.1869    3.4794   25.2457 H   0  0  0  0  0  0  0  0  0  0  0  0
    4.4935    3.7009   26.4269 H   0  0  0  0  0  0  0  0  0  0  0  0
    4.3226    2.0362   28.6665 H   0  0  0  0  0  0  0  0  0  0  0  0
    3.0208    0.8439   28.4573 H   0  0  0  0  0  0  0  0  0  0  0  0
    3.6227    1.1011   25.0698 H   0  0  0  0  0  0  0  0  0  0  0  0
    9.4843   -1.2301   25.2145 H   0  0  0  0  0  0  0  0  0  0  0  0
    7.8875   -1.6771   25.8049 H   0  0  0  0  0  0  0  0  0  0  0  0
    8.7807   -2.7948   24.7656 H   0  0  0  0  0  0  0  0  0  0  0  0
    6.4037    2.2568   25.6713 H   0  0  0  0  0  0  0  0  0  0  0  0
    5.6004    2.2813   24.0725 H   0  0  0  0  0  0  0  0  0  0  0  0
    8.1970    0.8780   24.6661 H   0  0  0  0  0  0  0  0  0  0  0  0
    7.3356    0.9463   23.1199 H   0  0  0  0  0  0  0  0  0  0  0  0
    8.8227   -2.2553   22.1299 H   0  0  0  0  0  0  0  0  0  0  0  0
    6.9977   -1.6390   23.4831 H   0  0  0  0  0  0  0  0  0  0  0  0
    6.8771   -1.6492   21.0526 H   0  0  0  0  0  0  0  0  0  0  0  0
    6.2715   -0.1175   25.6452 H   0  0  0  0  0  0  0  0  0  0  0  0
    5.4719   -0.1251   24.2115 H   0  0  0  0  0  0  0  0  0  0  0  0
  1  2  1  0  0  0  0
  1  4  2  0  0  0  0
  2  5  2  0  0  0  0
  3  6  2  0  0  0  0
  3  7  1  0  0  0  0
  4 11  1  0  0  0  0
  5 12  1  0  0  0  0
  6 13  1  0  0  0  0
  7 15  2  0  0  0  0
  8 13  2  0  0  0  0
  8 15  1  0  0  0  0
  9 11  2  0  0  0  0
  9 26  1  0  0  0  0
 10 14  1  0  0  0  0
 10 26  2  0  0  0  0
 11 12  1  0  0  0  0
 12 14  2  0  0  0  0
 13 24  1  0  0  0  0
 14 27  1  0  0  0  0
 15 31  1  0  0  0  0
 16 24  1  6  0  0  0
 16 27  1  0  0  0  0
 16 29  2  0  0  0  0
 17 18  1  0  0  0  0
 17 19  1  0  0  0  0
 18 20  1  0  0  0  0
 19 30  1  0  0  0  0
 20 22  1  1  0  0  0
 20 30  1  0  0  0  0
 21 25  1  1  0  0  0
 22 28  1  0  0  0  0
 23 25  1  0  0  0  0
 23 28  1  0  0  0  0
 24 25  1  0  0  0  0
  1 32  1  0  0  0  0
  2 33  1  0  0  0  0
  3 34  1  0  0  0  0
  4 35  1  0  0  0  0
  5 36  1  0  0  0  0
  6 37  1  0  0  0  0
  7 38  1  0  0  0  0
  8 39  1  0  0  0  0
  9 40  1  0  0  0  0
 10 41  1  0  0  0  0
 17 42  1  0  0  0  0
 17 43  1  0  0  0  0
 18 44  1  0  0  0  0
 18 45  1  0  0  0  0
 19 46  1  0  0  0  0
 19 47  1  0  0  0  0
 20 48  1  0  0  0  0
 21 49  1  0  0  0  0
 21 50  1  0  0  0  0
 21 51  1  0  0  0  0
 22 52  1  0  0  0  0
 22 53  1  0  0  0  0
 23 54  1  0  0  0  0
 23 55  1  0  0  0  0
 24 56  1  0  0  0  0
 25 57  1  0  0  0  0
 27 58  1  0  0  0  0
 28 59  1  0  0  0  0
 28 60  1  0  0  0  0
M  CHG  1  28   1
M  END
> <compound>
MAK-UNK-c749d764-22

> <compound_smiles>
CC(CNCC1CCCO1)C(c2cccc(c2)Cl)C(=O)Nc3cncc4c3cccc4

> <enantiomer_smiles>
C[C@@H](CNC[C@@H]1CCCO1)[C@H](c2cccc(c2)Cl)C(=O)Nc3cncc4c3cccc4

> <scaffold>
chlorobenzene-linker

> <clash_score>
0

> <docking_score>
-4.809898376464844

> <overlap_score>
0.8967058658599854

> <MMFF_internal_energy>
141.57786682493725

> <docked_smiles>
C[C@@H](C[NH2+]C[C@@H]1CCCO1)[C@H](c2cccc(c2)Cl)C(=O)Nc3cncc4c3cccc4

$$$$
MAK-UNK-c749d764-22_4
  -OEChem-07262101023D

 60 63  0     1  0  0  0  0  0999 V2000
    3.4829    2.5990   20.0546 C   0  0  0  0  0  0  0  0  0  0  0  0
    4.1078    2.0778   21.1851 C   0  0  0  0  0  0  0  0  0  0  0  0
   11.9780    0.4600   23.9150 C   0  0  0  0  0  0  0  0  0  0  0  0
    3.8872    2.1924   18.7832 C   0  0  0  0  0  0  0  0  0  0  0  0
    5.1399    1.1477   21.0494 C   0  0  0  0  0  0  0  0  0  0  0  0
   10.6560    0.0720   23.7350 C   0  0  0  0  0  0  0  0  0  0  0  0
   12.9840   -0.1200   23.1530 C   0  0  0  0  0  0  0  0  0  0  0  0
   11.3360   -1.5050   22.0650 C   0  0  0  0  0  0  0  0  0  0  0  0
    5.3690    0.8152   17.3870 C   0  0  0  0  0  0  0  0  0  0  0  0
    6.9479   -0.5684   18.3184 C   0  0  0  0  0  0  0  0  0  0  0  0
    4.9246    1.2569   18.6348 C   0  0  0  0  0  0  0  0  0  0  0  0
    5.5598    0.7270   19.7769 C   0  0  0  0  0  0  0  0  0  0  0  0
   10.3220   -0.8940   22.7910 C   0  0  0  0  0  0  0  0  0  0  0  0
    6.5912   -0.2039   19.6077 C   0  0  0  0  0  0  0  0  0  0  0  0
   12.6400   -1.1000   22.2390 C   0  0  0  0  0  0  0  0  0  0  0  0
    8.3880   -0.3240   21.3070 C   0  0  0  0  0  0  0  0  0  0  0  0
    5.1276   -7.4236   20.1669 C   0  0  0  0  0  0  0  0  0  0  0  0
    6.3348   -6.5774   20.4844 C   0  0  0  0  0  0  0  0  0  0  0  0
    4.0274   -6.3859   20.0981 C   0  0  0  0  0  0  0  0  0  0  0  0
    6.0600   -5.3350   19.6550 C   0  0  1  0  0  0  0  0  0  0  0  0
    9.3569   -3.6322   23.1659 C   0  0  0  0  0  0  0  0  0  0  0  0
    6.7279   -4.0861   20.1966 C   0  0  0  0  0  0  0  0  0  0  0  0
    8.9748   -3.1287   20.7198 C   0  0  0  0  0  0  0  0  0  0  0  0
    8.8810   -1.1900   22.4510 C   0  0  1  0  0  0  0  0  0  0  0  0
    8.6228   -2.7224   22.1659 C   0  0  2  0  0  0  0  0  0  0  0  0
    6.3631   -0.0826   17.2027 N   0  0  0  0  0  0  0  0  0  0  0  0
    7.2820   -0.7860   20.6970 N   0  0  0  0  0  0  0  0  0  0  0  0
    8.1990   -4.3061   20.2624 N   0  3  0  0  0  0  0  0  0  0  0  0
    8.9170    0.7530   21.0260 O   0  0  0  0  0  0  0  0  0  0  0  0
    4.6327   -5.1630   19.6523 O   0  0  0  0  0  0  0  0  0  0  0  0
   13.8840   -1.8490   21.2740 Cl  0  0  0  0  0  0  0  0  0  0  0  0
    2.6801    3.3223   20.1631 H   0  0  0  0  0  0  0  0  0  0  0  0
    3.7912    2.3956   22.1744 H   0  0  0  0  0  0  0  0  0  0  0  0
   12.2249    1.2198   24.6546 H   0  0  0  0  0  0  0  0  0  0  0  0
    3.3884    2.6092   17.9112 H   0  0  0  0  0  0  0  0  0  0  0  0
    5.6035    0.7643   21.9554 H   0  0  0  0  0  0  0  0  0  0  0  0
    9.8763    0.5350   24.3454 H   0  0  0  0  0  0  0  0  0  0  0  0
   14.0077    0.1988   23.2842 H   0  0  0  0  0  0  0  0  0  0  0  0
   11.0892   -2.3009   21.3624 H   0  0  0  0  0  0  0  0  0  0  0  0
    4.9229    1.1830   16.4670 H   0  0  0  0  0  0  0  0  0  0  0  0
    7.7413   -1.2873   18.1342 H   0  0  0  0  0  0  0  0  0  0  0  0
    5.2544   -7.9003   19.1877 H   0  0  0  0  0  0  0  0  0  0  0  0
    4.9313   -8.2058   20.9048 H   0  0  0  0  0  0  0  0  0  0  0  0
    6.3471   -6.3418   21.5555 H   0  0  0  0  0  0  0  0  0  0  0  0
    7.2825   -7.0589   20.2279 H   0  0  0  0  0  0  0  0  0  0  0  0
    3.2238   -6.6707   19.4132 H   0  0  0  0  0  0  0  0  0  0  0  0
    3.5947   -6.2013   21.0871 H   0  0  0  0  0  0  0  0  0  0  0  0
    6.3688   -5.4963   18.6155 H   0  0  0  0  0  0  0  0  0  0  0  0
   10.4405   -3.4843   23.1042 H   0  0  0  0  0  0  0  0  0  0  0  0
    9.0622   -3.4090   24.1962 H   0  0  0  0  0  0  0  0  0  0  0  0
    9.1465   -4.6905   22.9805 H   0  0  0  0  0  0  0  0  0  0  0  0
    6.3919   -3.8552   21.2112 H   0  0  0  0  0  0  0  0  0  0  0  0
    6.5609   -3.2235   19.5456 H   0  0  0  0  0  0  0  0  0  0  0  0
    8.7736   -2.3270   20.0041 H   0  0  0  0  0  0  0  0  0  0  0  0
   10.0316   -3.4026   20.6348 H   0  0  0  0  0  0  0  0  0  0  0  0
    8.2678   -0.9572   23.3517 H   0  0  0  0  0  0  0  0  0  0  0  0
    7.5494   -2.9234   22.2832 H   0  0  0  0  0  0  0  0  0  0  0  0
    6.8771   -1.6492   21.0526 H   0  0  0  0  0  0  0  0  0  0  0  0
    8.3895   -5.1041   20.8863 H   0  0  0  0  0  0  0  0  0  0  0  0
    8.5349   -4.5963   19.3320 H   0  0  0  0  0  0  0  0  0  0  0  0
  1  2  1  0  0  0  0
  1  4  2  0  0  0  0
  2  5  2  0  0  0  0
  3  6  2  0  0  0  0
  3  7  1  0  0  0  0
  4 11  1  0  0  0  0
  5 12  1  0  0  0  0
  6 13  1  0  0  0  0
  7 15  2  0  0  0  0
  8 13  2  0  0  0  0
  8 15  1  0  0  0  0
  9 11  2  0  0  0  0
  9 26  1  0  0  0  0
 10 14  1  0  0  0  0
 10 26  2  0  0  0  0
 11 12  1  0  0  0  0
 12 14  2  0  0  0  0
 13 24  1  0  0  0  0
 14 27  1  0  0  0  0
 15 31  1  0  0  0  0
 16 24  1  1  0  0  0
 16 27  1  0  0  0  0
 16 29  2  0  0  0  0
 17 18  1  0  0  0  0
 17 19  1  0  0  0  0
 18 20  1  0  0  0  0
 19 30  1  0  0  0  0
 20 22  1  6  0  0  0
 20 30  1  0  0  0  0
 21 25  1  6  0  0  0
 22 28  1  0  0  0  0
 23 25  1  0  0  0  0
 23 28  1  0  0  0  0
 24 25  1  0  0  0  0
  1 32  1  0  0  0  0
  2 33  1  0  0  0  0
  3 34  1  0  0  0  0
  4 35  1  0  0  0  0
  5 36  1  0  0  0  0
  6 37  1  0  0  0  0
  7 38  1  0  0  0  0
  8 39  1  0  0  0  0
  9 40  1  0  0  0  0
 10 41  1  0  0  0  0
 17 42  1  0  0  0  0
 17 43  1  0  0  0  0
 18 44  1  0  0  0  0
 18 45  1  0  0  0  0
 19 46  1  0  0  0  0
 19 47  1  0  0  0  0
 20 48  1  0  0  0  0
 21 49  1  0  0  0  0
 21 50  1  0  0  0  0
 21 51  1  0  0  0  0
 22 52  1  0  0  0  0
 22 53  1  0  0  0  0
 23 54  1  0  0  0  0
 23 55  1  0  0  0  0
 24 56  1  0  0  0  0
 25 57  1  0  0  0  0
 27 58  1  0  0  0  0
 28 59  1  0  0  0  0
 28 60  1  0  0  0  0
M  CHG  1  28   1
M  END
> <compound>
MAK-UNK-c749d764-22

> <compound_smiles>
CC(CNCC1CCCO1)C(c2cccc(c2)Cl)C(=O)Nc3cncc4c3cccc4

> <enantiomer_smiles>
C[C@H](CNC[C@H]1CCCO1)[C@@H](c2cccc(c2)Cl)C(=O)Nc3cncc4c3cccc4

> <scaffold>
chlorobenzene-linker

> <clash_score>
4.293917122214712

> <docking_score>
-2.272825002670288

> <overlap_score>
0.9761951565742493

> <MMFF_internal_energy>
176.26819194200704

> <docked_smiles>
C[C@H](C[NH2+]C[C@H]1CCCO1)[C@@H](c2cccc(c2)Cl)C(=O)Nc3cncc4c3cccc4

$$$$
JOH-UNI-a38a7bdd-2_1
  -OEChem-07262101023D

 40 42  0     0  0  0  0  0  0999 V2000
    3.4052    2.5518   20.7394 C   0  0  0  0  0  0  0  0  0  0  0  0
    4.0598    1.8492   21.7484 C   0  0  0  0  0  0  0  0  0  0  0  0
   11.9780    0.4600   23.9150 C   0  0  0  0  0  0  0  0  0  0  0  0
    3.7984    2.3944   19.4106 C   0  0  0  0  0  0  0  0  0  0  0  0
    5.1108    0.9862   21.4332 C   0  0  0  0  0  0  0  0  0  0  0  0
   10.6560    0.0720   23.7350 C   0  0  0  0  0  0  0  0  0  0  0  0
   12.9840   -0.1200   23.1530 C   0  0  0  0  0  0  0  0  0  0  0  0
   11.3360   -1.5050   22.0650 C   0  0  0  0  0  0  0  0  0  0  0  0
    5.2892    1.3334   17.7694 C   0  0  0  0  0  0  0  0  0  0  0  0
    6.9142   -0.1561   18.4141 C   0  0  0  0  0  0  0  0  0  0  0  0
    4.8546    1.5285   19.0819 C   0  0  0  0  0  0  0  0  0  0  0  0
    5.5199    0.8155   20.1005 C   0  0  0  0  0  0  0  0  0  0  0  0
   10.3220   -0.8940   22.7910 C   0  0  0  0  0  0  0  0  0  0  0  0
    6.5697   -0.0422   19.7523 C   0  0  0  0  0  0  0  0  0  0  0  0
   12.6400   -1.1000   22.2390 C   0  0  0  0  0  0  0  0  0  0  0  0
    8.3880   -0.3240   21.3070 C   0  0  0  0  0  0  0  0  0  0  0  0
    8.8810   -1.1900   22.4510 C   0  0  0  0  0  0  0  0  0  0  0  0
    6.7276   -2.1082   21.1209 C   0  0  0  0  0  0  0  0  0  0  0  0
    7.3178   -3.2415   20.3202 C   0  0  0  0  0  0  0  0  0  0  0  0
    6.3007    0.5100   17.4128 N   0  0  0  0  0  0  0  0  0  0  0  0
    7.2820   -0.7860   20.6970 N   0  0  0  0  0  0  0  0  0  0  0  0
    8.9170    0.7530   21.0260 O   0  0  0  0  0  0  0  0  0  0  0  0
    6.8028   -4.4239   20.7242 F   0  0  0  0  0  0  0  0  0  0  0  0
    7.0498   -3.1071   19.0038 F   0  0  0  0  0  0  0  0  0  0  0  0
    8.6577   -3.3062   20.4711 F   0  0  0  0  0  0  0  0  0  0  0  0
   13.8840   -1.8490   21.2740 Cl  0  0  0  0  0  0  0  0  0  0  0  0
    2.5877    3.2224   20.9875 H   0  0  0  0  0  0  0  0  0  0  0  0
    3.7518    1.9730   22.7827 H   0  0  0  0  0  0  0  0  0  0  0  0
   12.2249    1.2198   24.6546 H   0  0  0  0  0  0  0  0  0  0  0  0
    3.2764    2.9504   18.6353 H   0  0  0  0  0  0  0  0  0  0  0  0
    5.5974    0.4559   22.2486 H   0  0  0  0  0  0  0  0  0  0  0  0
    9.8763    0.5350   24.3454 H   0  0  0  0  0  0  0  0  0  0  0  0
   14.0077    0.1988   23.2842 H   0  0  0  0  0  0  0  0  0  0  0  0
   11.0892   -2.3008   21.3624 H   0  0  0  0  0  0  0  0  0  0  0  0
    4.8201    1.8513   16.9373 H   0  0  0  0  0  0  0  0  0  0  0  0
    7.7209   -0.8088   18.0926 H   0  0  0  0  0  0  0  0  0  0  0  0
    8.8006   -2.2403   22.1717 H   0  0  0  0  0  0  0  0  0  0  0  0
    8.2668   -1.0117   23.3332 H   0  0  0  0  0  0  0  0  0  0  0  0
    6.9456   -2.2330   22.1857 H   0  0  0  0  0  0  0  0  0  0  0  0
    5.6420   -2.0687   20.9921 H   0  0  0  0  0  0  0  0  0  0  0  0
  1  2  1  0  0  0  0
  1  4  2  0  0  0  0
  2  5  2  0  0  0  0
  3  6  2  0  0  0  0
  3  7  1  0  0  0  0
  4 11  1  0  0  0  0
  5 12  1  0  0  0  0
  6 13  1  0  0  0  0
  7 15  2  0  0  0  0
  8 13  2  0  0  0  0
  8 15  1  0  0  0  0
  9 11  2  0  0  0  0
  9 20  1  0  0  0  0
 10 14  1  0  0  0  0
 10 20  2  0  0  0  0
 11 12  1  0  0  0  0
 12 14  2  0  0  0  0
 13 17  1  0  0  0  0
 14 21  1  0  0  0  0
 15 26  1  0  0  0  0
 16 17  1  0  0  0  0
 16 21  1  0  0  0  0
 16 22  2  0  0  0  0
 18 19  1  0  0  0  0
 18 21  1  0  0  0  0
 19 23  1  0  0  0  0
 19 24  1  0  0  0  0
 19 25  1  0  0  0  0
  1 27  1  0  0  0  0
  2 28  1  0  0  0  0
  3 29  1  0  0  0  0
  4 30  1  0  0  0  0
  5 31  1  0  0  0  0
  6 32  1  0  0  0  0
  7 33  1  0  0  0  0
  8 34  1  0  0  0  0
  9 35  1  0  0  0  0
 10 36  1  0  0  0  0
 17 37  1  0  0  0  0
 17 38  1  0  0  0  0
 18 39  1  0  0  0  0
 18 40  1  0  0  0  0
M  END
> <compound>
JOH-UNI-a38a7bdd-2

> <compound_smiles>
c1ccc2c(c1)cncc2N(CC(F)(F)F)C(=O)Cc3cccc(c3)Cl

> <enantiomer_smiles>
c1ccc2c(c1)cncc2N(CC(F)(F)F)C(=O)Cc3cccc(c3)Cl

> <scaffold>
chlorobenzene-linker

> <clash_score>
2.2480720589307186

> <docking_score>
-7.273688316345215

> <overlap_score>
1.0

> <MMFF_internal_energy>
150.4097178606334

> <docked_smiles>
c1ccc2c(c1)cncc2N(CC(F)(F)F)C(=O)Cc3cccc(c3)Cl

$$$$
DAR-DIA-076fb6ea-1_1
  -OEChem-07262101023D

 40 42  0     0  0  0  0  0  0999 V2000
    3.6628    2.8182   20.4076 C   0  0  0  0  0  0  0  0  0  0  0  0
    4.2152    2.1158   21.4761 C   0  0  0  0  0  0  0  0  0  0  0  0
   11.9780    0.4600   23.9150 C   0  0  0  0  0  0  0  0  0  0  0  0
    4.1066    2.5750   19.1079 C   0  0  0  0  0  0  0  0  0  0  0  0
    5.2139    1.1670   21.2498 C   0  0  0  0  0  0  0  0  0  0  0  0
   10.6560    0.0720   23.7350 C   0  0  0  0  0  0  0  0  0  0  0  0
   12.9840   -0.1200   23.1530 C   0  0  0  0  0  0  0  0  0  0  0  0
   11.3360   -1.5050   22.0650 C   0  0  0  0  0  0  0  0  0  0  0  0
    5.5922    1.3394   17.5887 C   0  0  0  0  0  0  0  0  0  0  0  0
    7.0709   -0.2324   18.3748 C   0  0  0  0  0  0  0  0  0  0  0  0
    5.1109    1.6225   18.8685 C   0  0  0  0  0  0  0  0  0  0  0  0
    5.6726    0.9093   19.9476 C   0  0  0  0  0  0  0  0  0  0  0  0
   10.3220   -0.8940   22.7910 C   0  0  0  0  0  0  0  0  0  0  0  0
    6.6722   -0.0355   19.6881 C   0  0  0  0  0  0  0  0  0  0  0  0
   12.6400   -1.1000   22.2390 C   0  0  0  0  0  0  0  0  0  0  0  0
    5.9897   -4.1403   20.0170 C   0  0  0  0  0  0  0  0  0  0  0  0
    6.0179   -2.8043   20.0089 C   0  0  0  0  0  0  0  0  0  0  0  0
    6.7293   -2.0547   21.0866 C   0  0  0  0  0  0  0  0  0  0  0  0
    8.3880   -0.3240   21.3070 C   0  0  0  0  0  0  0  0  0  0  0  0
    8.8810   -1.1900   22.4510 C   0  0  0  0  0  0  0  0  0  0  0  0
    6.5564    0.4311   17.3175 N   0  0  0  0  0  0  0  0  0  0  0  0
    7.2820   -0.7860   20.6970 N   0  0  0  0  0  0  0  0  0  0  0  0
    6.8240   -2.5145   22.2237 O   0  0  0  0  0  0  0  0  0  0  0  0
    8.9170    0.7530   21.0260 O   0  0  0  0  0  0  0  0  0  0  0  0
   13.8840   -1.8490   21.2740 Cl  0  0  0  0  0  0  0  0  0  0  0  0
    2.8859    3.5556   20.5865 H   0  0  0  0  0  0  0  0  0  0  0  0
    3.8680    2.3066   22.4875 H   0  0  0  0  0  0  0  0  0  0  0  0
   12.2249    1.2198   24.6546 H   0  0  0  0  0  0  0  0  0  0  0  0
    3.6644    3.1322   18.2852 H   0  0  0  0  0  0  0  0  0  0  0  0
    5.6208    0.6398   22.1096 H   0  0  0  0  0  0  0  0  0  0  0  0
    9.8763    0.5350   24.3454 H   0  0  0  0  0  0  0  0  0  0  0  0
   14.0077    0.1988   23.2842 H   0  0  0  0  0  0  0  0  0  0  0  0
   11.0892   -2.3009   21.3624 H   0  0  0  0  0  0  0  0  0  0  0  0
    5.2027    1.8524   16.7137 H   0  0  0  0  0  0  0  0  0  0  0  0
    7.8420   -0.9544   18.1213 H   0  0  0  0  0  0  0  0  0  0  0  0
    5.4591   -4.6759   19.2367 H   0  0  0  0  0  0  0  0  0  0  0  0
    6.4841   -4.7307   20.7802 H   0  0  0  0  0  0  0  0  0  0  0  0
    5.5011   -2.2529   19.2316 H   0  0  0  0  0  0  0  0  0  0  0  0
    8.7694   -2.2423   22.1628 H   0  0  0  0  0  0  0  0  0  0  0  0
    8.2812   -1.0412   23.3569 H   0  0  0  0  0  0  0  0  0  0  0  0
  1  2  1  0  0  0  0
  1  4  2  0  0  0  0
  2  5  2  0  0  0  0
  3  6  2  0  0  0  0
  3  7  1  0  0  0  0
  4 11  1  0  0  0  0
  5 12  1  0  0  0  0
  6 13  1  0  0  0  0
  7 15  2  0  0  0  0
  8 13  2  0  0  0  0
  8 15  1  0  0  0  0
  9 11  2  0  0  0  0
  9 21  1  0  0  0  0
 10 14  1  0  0  0  0
 10 21  2  0  0  0  0
 11 12  1  0  0  0  0
 12 14  2  0  0  0  0
 13 20  1  0  0  0  0
 14 22  1  0  0  0  0
 15 25  1  0  0  0  0
 16 17  2  0  0  0  0
 17 18  1  0  0  0  0
 18 22  1  0  0  0  0
 18 23  2  0  0  0  0
 19 20  1  0  0  0  0
 19 22  1  0  0  0  0
 19 24  2  0  0  0  0
  1 26  1  0  0  0  0
  2 27  1  0  0  0  0
  3 28  1  0  0  0  0
  4 29  1  0  0  0  0
  5 30  1  0  0  0  0
  6 31  1  0  0  0  0
  7 32  1  0  0  0  0
  8 33  1  0  0  0  0
  9 34  1  0  0  0  0
 10 35  1  0  0  0  0
 16 36  1  0  0  0  0
 16 37  1  0  0  0  0
 17 38  1  0  0  0  0
 20 39  1  0  0  0  0
 20 40  1  0  0  0  0
M  END
> <compound>
DAR-DIA-076fb6ea-1

> <compound_smiles>
C=CC(=O)N(c1cncc2c1cccc2)C(=O)Cc3cccc(c3)Cl

> <enantiomer_smiles>
C=CC(=O)N(c1cncc2c1cccc2)C(=O)Cc3cccc(c3)Cl

> <scaffold>
chlorobenzene-linker

> <clash_score>
0

> <docking_score>
-9.416003227233887

> <overlap_score>
0.9840629696846008

> <MMFF_internal_energy>
113.21814846167258

> <docked_smiles>
C=CC(=O)N(c1cncc2c1cccc2)C(=O)Cc3cccc(c3)Cl

$$$$
JOH-UNI-a38a7bdd-4_1
  -OEChem-07262101023D

 37 38  0     0  0  0  0  0  0999 V2000
   11.9780    0.4600   23.9150 C   0  0  0  0  0  0  0  0  0  0  0  0
   10.6560    0.0720   23.7350 C   0  0  0  0  0  0  0  0  0  0  0  0
   12.9840   -0.1200   23.1530 C   0  0  0  0  0  0  0  0  0  0  0  0
    5.4405    1.5746   18.4441 C   0  0  0  0  0  0  0  0  0  0  0  0
   11.3360   -1.5050   22.0650 C   0  0  0  0  0  0  0  0  0  0  0  0
    4.4414    1.9527   19.3266 C   0  0  0  0  0  0  0  0  0  0  0  0
    5.2775    0.6063   20.9899 C   0  0  0  0  0  0  0  0  0  0  0  0
   10.3220   -0.8940   22.7910 C   0  0  0  0  0  0  0  0  0  0  0  0
    6.3915    0.6633   18.8894 C   0  0  0  0  0  0  0  0  0  0  0  0
    6.3156    0.1650   20.1853 C   0  0  0  0  0  0  0  0  0  0  0  0
   12.6400   -1.1000   22.2390 C   0  0  0  0  0  0  0  0  0  0  0  0
    8.3880   -0.3240   21.3070 C   0  0  0  0  0  0  0  0  0  0  0  0
    7.4794    0.2378   17.9588 C   0  0  0  0  0  0  0  0  0  0  0  0
    8.8810   -1.1900   22.4510 C   0  0  0  0  0  0  0  0  0  0  0  0
    7.0202   -2.2244   20.5317 C   0  0  0  0  0  0  0  0  0  0  0  0
    6.2505   -2.7876   21.6997 C   0  0  0  0  0  0  0  0  0  0  0  0
    4.3350    1.4904   20.5925 N   0  0  0  0  0  0  0  0  0  0  0  0
    7.2820   -0.7860   20.6970 N   0  0  0  0  0  0  0  0  0  0  0  0
    8.9170    0.7530   21.0260 O   0  0  0  0  0  0  0  0  0  0  0  0
    6.0211   -4.1076   21.5222 F   0  0  0  0  0  0  0  0  0  0  0  0
    6.9329   -2.6429   22.8557 F   0  0  0  0  0  0  0  0  0  0  0  0
    5.0533   -2.1798   21.8404 F   0  0  0  0  0  0  0  0  0  0  0  0
   13.8840   -1.8490   21.2740 Cl  0  0  0  0  0  0  0  0  0  0  0  0
   12.2249    1.2198   24.6546 H   0  0  0  0  0  0  0  0  0  0  0  0
    9.8763    0.5350   24.3454 H   0  0  0  0  0  0  0  0  0  0  0  0
   14.0077    0.1988   23.2842 H   0  0  0  0  0  0  0  0  0  0  0  0
    5.4713    1.9820   17.4393 H   0  0  0  0  0  0  0  0  0  0  0  0
   11.0892   -2.3009   21.3624 H   0  0  0  0  0  0  0  0  0  0  0  0
    3.6754    2.6608   19.0279 H   0  0  0  0  0  0  0  0  0  0  0  0
    5.1649    0.2542   22.0110 H   0  0  0  0  0  0  0  0  0  0  0  0
    8.3437    0.9052   18.0544 H   0  0  0  0  0  0  0  0  0  0  0  0
    7.8045   -0.7880   18.1718 H   0  0  0  0  0  0  0  0  0  0  0  0
    7.1382    0.2546   16.9162 H   0  0  0  0  0  0  0  0  0  0  0  0
    8.7925   -2.2408   22.1686 H   0  0  0  0  0  0  0  0  0  0  0  0
    8.2587   -1.0122   23.3300 H   0  0  0  0  0  0  0  0  0  0  0  0
    6.4599   -2.3544   19.6011 H   0  0  0  0  0  0  0  0  0  0  0  0
    7.9862   -2.7270   20.4274 H   0  0  0  0  0  0  0  0  0  0  0  0
  1  2  2  0  0  0  0
  1  3  1  0  0  0  0
  2  8  1  0  0  0  0
  3 11  2  0  0  0  0
  4  6  2  0  0  0  0
  4  9  1  0  0  0  0
  5  8  2  0  0  0  0
  5 11  1  0  0  0  0
  6 17  1  0  0  0  0
  7 10  1  0  0  0  0
  7 17  2  0  0  0  0
  8 14  1  0  0  0  0
  9 10  2  0  0  0  0
  9 13  1  0  0  0  0
 10 18  1  0  0  0  0
 11 23  1  0  0  0  0
 12 14  1  0  0  0  0
 12 18  1  0  0  0  0
 12 19  2  0  0  0  0
 15 16  1  0  0  0  0
 15 18  1  0  0  0  0
 16 20  1  0  0  0  0
 16 21  1  0  0  0  0
 16 22  1  0  0  0  0
  1 24  1  0  0  0  0
  2 25  1  0  0  0  0
  3 26  1  0  0  0  0
  4 27  1  0  0  0  0
  5 28  1  0  0  0  0
  6 29  1  0  0  0  0
  7 30  1  0  0  0  0
 13 31  1  0  0  0  0
 13 32  1  0  0  0  0
 13 33  1  0  0  0  0
 14 34  1  0  0  0  0
 14 35  1  0  0  0  0
 15 36  1  0  0  0  0
 15 37  1  0  0  0  0
M  END
> <compound>
JOH-UNI-a38a7bdd-4

> <compound_smiles>
Cc1ccncc1N(CC(F)(F)F)C(=O)Cc2cccc(c2)Cl

> <enantiomer_smiles>
Cc1ccncc1N(CC(F)(F)F)C(=O)Cc2cccc(c2)Cl

> <scaffold>
chlorobenzene-linker

> <clash_score>
0.6593838784291933

> <docking_score>
-4.647135257720947

> <overlap_score>
0.8775657415390015

> <MMFF_internal_energy>
130.05716325818395

> <docked_smiles>
Cc1ccncc1N(CC(F)(F)F)C(=O)Cc2cccc(c2)Cl

$$$$
MAK-UNK-c749d764-22_3
  -OEChem-07262101023D

 60 63  0     1  0  0  0  0  0999 V2000
    3.4829    2.5990   20.0546 C   0  0  0  0  0  0  0  0  0  0  0  0
    4.1078    2.0778   21.1851 C   0  0  0  0  0  0  0  0  0  0  0  0
   11.9780    0.4600   23.9150 C   0  0  0  0  0  0  0  0  0  0  0  0
    3.8872    2.1924   18.7832 C   0  0  0  0  0  0  0  0  0  0  0  0
    5.1399    1.1477   21.0494 C   0  0  0  0  0  0  0  0  0  0  0  0
   10.6560    0.0720   23.7350 C   0  0  0  0  0  0  0  0  0  0  0  0
   12.9840   -0.1200   23.1530 C   0  0  0  0  0  0  0  0  0  0  0  0
   11.3360   -1.5050   22.0650 C   0  0  0  0  0  0  0  0  0  0  0  0
    5.3690    0.8152   17.3870 C   0  0  0  0  0  0  0  0  0  0  0  0
    6.9479   -0.5684   18.3183 C   0  0  0  0  0  0  0  0  0  0  0  0
    4.9246    1.2569   18.6348 C   0  0  0  0  0  0  0  0  0  0  0  0
    5.5597    0.7270   19.7769 C   0  0  0  0  0  0  0  0  0  0  0  0
   10.3220   -0.8940   22.7910 C   0  0  0  0  0  0  0  0  0  0  0  0
    6.5912   -0.2039   19.6077 C   0  0  0  0  0  0  0  0  0  0  0  0
   12.6400   -1.1000   22.2390 C   0  0  0  0  0  0  0  0  0  0  0  0
    8.3880   -0.3240   21.3070 C   0  0  0  0  0  0  0  0  0  0  0  0
    7.2632   -5.4223   28.4076 C   0  0  0  0  0  0  0  0  0  0  0  0
    7.3853   -5.2085   26.9198 C   0  0  0  0  0  0  0  0  0  0  0  0
    8.7090   -5.6065   28.8170 C   0  0  0  0  0  0  0  0  0  0  0  0
    8.6549   -4.3789   26.8366 C   0  0  1  0  0  0  0  0  0  0  0  0
    8.9867   -3.1058   20.7212 C   0  0  0  0  0  0  0  0  0  0  0  0
    9.3765   -4.5086   25.5094 C   0  0  0  0  0  0  0  0  0  0  0  0
    9.3341   -3.6650   23.1588 C   0  0  0  0  0  0  0  0  0  0  0  0
    8.8810   -1.1900   22.4510 C   0  0  1  0  0  0  0  0  0  0  0  0
    8.6228   -2.7224   22.1659 C   0  0  1  0  0  0  0  0  0  0  0  0
    6.3631   -0.0826   17.2027 N   0  0  0  0  0  0  0  0  0  0  0  0
    7.2820   -0.7860   20.6970 N   0  0  0  0  0  0  0  0  0  0  0  0
    8.6840   -3.6720   24.4909 N   0  3  0  0  0  0  0  0  0  0  0  0
    8.9170    0.7530   21.0260 O   0  0  0  0  0  0  0  0  0  0  0  0
    9.5044   -4.8391   27.9011 O   0  0  0  0  0  0  0  0  0  0  0  0
   13.8840   -1.8490   21.2740 Cl  0  0  0  0  0  0  0  0  0  0  0  0
    2.6801    3.3223   20.1631 H   0  0  0  0  0  0  0  0  0  0  0  0
    3.7912    2.3956   22.1744 H   0  0  0  0  0  0  0  0  0  0  0  0
   12.2249    1.2198   24.6546 H   0  0  0  0  0  0  0  0  0  0  0  0
    3.3884    2.6092   17.9112 H   0  0  0  0  0  0  0  0  0  0  0  0
    5.6035    0.7643   21.9554 H   0  0  0  0  0  0  0  0  0  0  0  0
    9.8763    0.5350   24.3454 H   0  0  0  0  0  0  0  0  0  0  0  0
   14.0077    0.1988   23.2842 H   0  0  0  0  0  0  0  0  0  0  0  0
   11.0892   -2.3009   21.3624 H   0  0  0  0  0  0  0  0  0  0  0  0
    4.9229    1.1830   16.4670 H   0  0  0  0  0  0  0  0  0  0  0  0
    7.7413   -1.2873   18.1342 H   0  0  0  0  0  0  0  0  0  0  0  0
    6.8519   -4.5226   28.8804 H   0  0  0  0  0  0  0  0  0  0  0  0
    6.6307   -6.2711   28.6804 H   0  0  0  0  0  0  0  0  0  0  0  0
    7.5128   -6.1757   26.4187 H   0  0  0  0  0  0  0  0  0  0  0  0
    6.5192   -4.7058   26.4805 H   0  0  0  0  0  0  0  0  0  0  0  0
    8.9012   -5.2736   29.8408 H   0  0  0  0  0  0  0  0  0  0  0  0
    9.0158   -6.6540   28.7267 H   0  0  0  0  0  0  0  0  0  0  0  0
    8.4325   -3.3234   27.0331 H   0  0  0  0  0  0  0  0  0  0  0  0
   10.0518   -2.9366   20.5298 H   0  0  0  0  0  0  0  0  0  0  0  0
    8.7924   -4.1661   20.5309 H   0  0  0  0  0  0  0  0  0  0  0  0
    8.4130   -2.5252   19.9915 H   0  0  0  0  0  0  0  0  0  0  0  0
    9.3646   -5.5382   25.1414 H   0  0  0  0  0  0  0  0  0  0  0  0
   10.4075   -4.1496   25.5729 H   0  0  0  0  0  0  0  0  0  0  0  0
    9.3422   -4.7018   22.8116 H   0  0  0  0  0  0  0  0  0  0  0  0
   10.3711   -3.3535   23.3222 H   0  0  0  0  0  0  0  0  0  0  0  0
    8.2678   -0.9572   23.3517 H   0  0  0  0  0  0  0  0  0  0  0  0
    7.5483   -2.9169   22.2847 H   0  0  0  0  0  0  0  0  0  0  0  0
    6.8771   -1.6492   21.0526 H   0  0  0  0  0  0  0  0  0  0  0  0
    7.7116   -4.0001   24.3947 H   0  0  0  0  0  0  0  0  0  0  0  0
    8.6161   -2.7056   24.8432 H   0  0  0  0  0  0  0  0  0  0  0  0
  1  2  1  0  0  0  0
  1  4  2  0  0  0  0
  2  5  2  0  0  0  0
  3  6  2  0  0  0  0
  3  7  1  0  0  0  0
  4 11  1  0  0  0  0
  5 12  1  0  0  0  0
  6 13  1  0  0  0  0
  7 15  2  0  0  0  0
  8 13  2  0  0  0  0
  8 15  1  0  0  0  0
  9 11  2  0  0  0  0
  9 26  1  0  0  0  0
 10 14  1  0  0  0  0
 10 26  2  0  0  0  0
 11 12  1  0  0  0  0
 12 14  2  0  0  0  0
 13 24  1  0  0  0  0
 14 27  1  0  0  0  0
 15 31  1  0  0  0  0
 16 24  1  1  0  0  0
 16 27  1  0  0  0  0
 16 29  2  0  0  0  0
 17 18  1  0  0  0  0
 17 19  1  0  0  0  0
 18 20  1  0  0  0  0
 19 30  1  0  0  0  0
 20 22  1  6  0  0  0
 20 30  1  0  0  0  0
 21 25  1  1  0  0  0
 22 28  1  0  0  0  0
 23 25  1  0  0  0  0
 23 28  1  0  0  0  0
 24 25  1  0  0  0  0
  1 32  1  0  0  0  0
  2 33  1  0  0  0  0
  3 34  1  0  0  0  0
  4 35  1  0  0  0  0
  5 36  1  0  0  0  0
  6 37  1  0  0  0  0
  7 38  1  0  0  0  0
  8 39  1  0  0  0  0
  9 40  1  0  0  0  0
 10 41  1  0  0  0  0
 17 42  1  0  0  0  0
 17 43  1  0  0  0  0
 18 44  1  0  0  0  0
 18 45  1  0  0  0  0
 19 46  1  0  0  0  0
 19 47  1  0  0  0  0
 20 48  1  0  0  0  0
 21 49  1  0  0  0  0
 21 50  1  0  0  0  0
 21 51  1  0  0  0  0
 22 52  1  0  0  0  0
 22 53  1  0  0  0  0
 23 54  1  0  0  0  0
 23 55  1  0  0  0  0
 24 56  1  0  0  0  0
 25 57  1  0  0  0  0
 27 58  1  0  0  0  0
 28 59  1  0  0  0  0
 28 60  1  0  0  0  0
M  CHG  1  28   1
M  END
> <compound>
MAK-UNK-c749d764-22

> <compound_smiles>
CC(CNCC1CCCO1)C(c2cccc(c2)Cl)C(=O)Nc3cncc4c3cccc4

> <enantiomer_smiles>
C[C@@H](CNC[C@H]1CCCO1)[C@@H](c2cccc(c2)Cl)C(=O)Nc3cncc4c3cccc4

> <scaffold>
chlorobenzene-linker

> <clash_score>
0.6134321558014565

> <docking_score>
-10.34090518951416

> <overlap_score>
0.9762653112411499

> <MMFF_internal_energy>
177.81371148524863

> <docked_smiles>
C[C@@H](C[NH2+]C[C@H]1CCCO1)[C@@H](c2cccc(c2)Cl)C(=O)Nc3cncc4c3cccc4

$$$$
DAR-DIA-076fb6ea-9_2
  -OEChem-07262101023D

 49 52  0     1  0  0  0  0  0999 V2000
    6.2756   -3.0718   21.3898 C   0  0  0  0  0  0  0  0  0  0  0  0
    6.7416   -2.0131   21.0689 C   0  0  0  0  0  0  0  0  0  0  0  0
    3.5550    2.7115   20.4740 C   0  0  0  0  0  0  0  0  0  0  0  0
    4.1658    2.0460   21.5344 C   0  0  0  0  0  0  0  0  0  0  0  0
   11.9780    0.4600   23.9150 C   0  0  0  0  0  0  0  0  0  0  0  0
    3.9574    2.4545   19.1636 C   0  0  0  0  0  0  0  0  0  0  0  0
    5.1816    1.1205   21.2892 C   0  0  0  0  0  0  0  0  0  0  0  0
   10.6560    0.0720   23.7350 C   0  0  0  0  0  0  0  0  0  0  0  0
   12.9840   -0.1200   23.1530 C   0  0  0  0  0  0  0  0  0  0  0  0
   11.3360   -1.5050   22.0650 C   0  0  0  0  0  0  0  0  0  0  0  0
    5.4203    1.2297   17.6140 C   0  0  0  0  0  0  0  0  0  0  0  0
    6.9703   -0.2850   18.3741 C   0  0  0  0  0  0  0  0  0  0  0  0
    4.9785    1.5251   18.9051 C   0  0  0  0  0  0  0  0  0  0  0  0
    5.5993    0.8494   19.9759 C   0  0  0  0  0  0  0  0  0  0  0  0
   10.3220   -0.8940   22.7910 C   0  0  0  0  0  0  0  0  0  0  0  0
    6.6148   -0.0728   19.6974 C   0  0  0  0  0  0  0  0  0  0  0  0
   12.6400   -1.1000   22.2390 C   0  0  0  0  0  0  0  0  0  0  0  0
    8.3880   -0.3240   21.3070 C   0  0  0  0  0  0  0  0  0  0  0  0
    3.7323   -5.5325   22.3961 C   0  0  0  0  0  0  0  0  0  0  0  0
    4.4769   -4.2367   22.6630 C   0  0  0  0  0  0  0  0  0  0  0  0
    3.8688   -5.7112   20.8982 C   0  0  0  0  0  0  0  0  0  0  0  0
    5.7088   -4.3598   21.7797 C   0  0  1  0  0  0  0  0  0  0  0  0
    8.8810   -1.1900   22.4510 C   0  0  0  0  0  0  0  0  0  0  0  0
    6.3991    0.3429   17.3244 N   0  0  0  0  0  0  0  0  0  0  0  0
    7.2820   -0.7860   20.6970 N   0  0  0  0  0  0  0  0  0  0  0  0
    5.2057   -5.1092   20.5700 N   0  3  0  0  0  0  0  0  0  0  0  0
    8.9170    0.7530   21.0260 O   0  0  0  0  0  0  0  0  0  0  0  0
   13.8840   -1.8490   21.2740 Cl  0  0  0  0  0  0  0  0  0  0  0  0
    2.7648    3.4308   20.6677 H   0  0  0  0  0  0  0  0  0  0  0  0
    3.8507    2.2474   22.5543 H   0  0  0  0  0  0  0  0  0  0  0  0
   12.2249    1.2198   24.6546 H   0  0  0  0  0  0  0  0  0  0  0  0
    3.4699    2.9828   18.3475 H   0  0  0  0  0  0  0  0  0  0  0  0
    5.6345    0.6219   22.1431 H   0  0  0  0  0  0  0  0  0  0  0  0
    9.8763    0.5350   24.3454 H   0  0  0  0  0  0  0  0  0  0  0  0
   14.0077    0.1988   23.2842 H   0  0  0  0  0  0  0  0  0  0  0  0
   11.0892   -2.3009   21.3624 H   0  0  0  0  0  0  0  0  0  0  0  0
    4.9848    1.7142   16.7444 H   0  0  0  0  0  0  0  0  0  0  0  0
    7.7516   -0.9906   18.1059 H   0  0  0  0  0  0  0  0  0  0  0  0
    4.2136   -6.3643   22.9239 H   0  0  0  0  0  0  0  0  0  0  0  0
    2.6872   -5.4829   22.7145 H   0  0  0  0  0  0  0  0  0  0  0  0
    3.8572   -3.3764   22.3786 H   0  0  0  0  0  0  0  0  0  0  0  0
    4.7373   -4.1277   23.7210 H   0  0  0  0  0  0  0  0  0  0  0  0
    3.8668   -6.7552   20.5752 H   0  0  0  0  0  0  0  0  0  0  0  0
    3.1193   -5.1358   20.3460 H   0  0  0  0  0  0  0  0  0  0  0  0
    6.4601   -5.0068   22.2452 H   0  0  0  0  0  0  0  0  0  0  0  0
    8.7964   -2.2444   22.1829 H   0  0  0  0  0  0  0  0  0  0  0  0
    8.2579   -1.0138   23.3292 H   0  0  0  0  0  0  0  0  0  0  0  0
    5.8792   -5.8423   20.3069 H   0  0  0  0  0  0  0  0  0  0  0  0
    5.1144   -4.4946   19.7487 H   0  0  0  0  0  0  0  0  0  0  0  0
  1  2  3  0  0  0  0
  1 22  1  6  0  0  0
  2 25  1  0  0  0  0
  3  4  1  0  0  0  0
  3  6  2  0  0  0  0
  4  7  2  0  0  0  0
  5  8  2  0  0  0  0
  5  9  1  0  0  0  0
  6 13  1  0  0  0  0
  7 14  1  0  0  0  0
  8 15  1  0  0  0  0
  9 17  2  0  0  0  0
 10 15  2  0  0  0  0
 10 17  1  0  0  0  0
 11 13  2  0  0  0  0
 11 24  1  0  0  0  0
 12 16  1  0  0  0  0
 12 24  2  0  0  0  0
 13 14  1  0  0  0  0
 14 16  2  0  0  0  0
 15 23  1  0  0  0  0
 16 25  1  0  0  0  0
 17 28  1  0  0  0  0
 18 23  1  0  0  0  0
 18 25  1  0  0  0  0
 18 27  2  0  0  0  0
 19 20  1  0  0  0  0
 19 21  1  0  0  0  0
 20 22  1  0  0  0  0
 21 26  1  0  0  0  0
 22 26  1  0  0  0  0
  3 29  1  0  0  0  0
  4 30  1  0  0  0  0
  5 31  1  0  0  0  0
  6 32  1  0  0  0  0
  7 33  1  0  0  0  0
  8 34  1  0  0  0  0
  9 35  1  0  0  0  0
 10 36  1  0  0  0  0
 11 37  1  0  0  0  0
 12 38  1  0  0  0  0
 19 39  1  0  0  0  0
 19 40  1  0  0  0  0
 20 41  1  0  0  0  0
 20 42  1  0  0  0  0
 21 43  1  0  0  0  0
 21 44  1  0  0  0  0
 22 45  1  0  0  0  0
 23 46  1  0  0  0  0
 23 47  1  0  0  0  0
 26 48  1  0  0  0  0
 26 49  1  0  0  0  0
M  CHG  1  26   1
M  END
> <compound>
DAR-DIA-076fb6ea-9

> <compound_smiles>
c1ccc2c(c1)cncc2N(C#CC3CCCN3)C(=O)Cc4cccc(c4)Cl

> <enantiomer_smiles>
c1ccc2c(c1)cncc2N(C#C[C@H]3CCCN3)C(=O)Cc4cccc(c4)Cl

> <scaffold>
chlorobenzene-linker

> <clash_score>
1.9804564232011017

> <docking_score>
-6.764538764953613

> <overlap_score>
0.9848634600639343

> <MMFF_internal_energy>
106.23294019845278

> <docked_smiles>
c1ccc2c(c1)cncc2N(C#C[C@H]3CCC[NH2+]3)C(=O)Cc4cccc(c4)Cl

$$$$
MAK-UNK-c749d764-22_8
  -OEChem-07262101023D

 60 63  0     1  0  0  0  0  0999 V2000
    4.9179    3.6570   19.7100 C   0  0  0  0  0  0  0  0  0  0  0  0
    5.5819    3.1645   20.8311 C   0  0  0  0  0  0  0  0  0  0  0  0
   11.9780    0.4600   23.9150 C   0  0  0  0  0  0  0  0  0  0  0  0
    4.8099    2.8729   18.5617 C   0  0  0  0  0  0  0  0  0  0  0  0
    6.1409    1.8856   20.8089 C   0  0  0  0  0  0  0  0  0  0  0  0
   10.6560    0.0720   23.7350 C   0  0  0  0  0  0  0  0  0  0  0  0
   12.9840   -0.1200   23.1530 C   0  0  0  0  0  0  0  0  0  0  0  0
   11.3360   -1.5050   22.0650 C   0  0  0  0  0  0  0  0  0  0  0  0
    5.2900    0.7573   17.4061 C   0  0  0  0  0  0  0  0  0  0  0  0
    6.4509   -0.9347   18.4378 C   0  0  0  0  0  0  0  0  0  0  0  0
    5.3685    1.5844   18.5283 C   0  0  0  0  0  0  0  0  0  0  0  0
    6.0416    1.0822   19.6612 C   0  0  0  0  0  0  0  0  0  0  0  0
   10.3220   -0.8940   22.7910 C   0  0  0  0  0  0  0  0  0  0  0  0
    6.5912   -0.2039   19.6077 C   0  0  0  0  0  0  0  0  0  0  0  0
   12.6400   -1.1000   22.2390 C   0  0  0  0  0  0  0  0  0  0  0  0
    8.3880   -0.3240   21.3070 C   0  0  0  0  0  0  0  0  0  0  0  0
    2.4511   -0.3425   26.9563 C   0  0  0  0  0  0  0  0  0  0  0  0
    3.0767    0.1088   25.6604 C   0  0  0  0  0  0  0  0  0  0  0  0
    3.5804   -1.1239   27.5935 C   0  0  0  0  0  0  0  0  0  0  0  0
    4.4985    0.4122   26.1004 C   0  0  1  0  0  0  0  0  0  0  0  0
    8.3439   -2.0353   24.8302 C   0  0  0  0  0  0  0  0  0  0  0  0
    5.5154    0.2988   24.9813 C   0  0  0  0  0  0  0  0  0  0  0  0
    6.4425   -1.3254   23.3257 C   0  0  0  0  0  0  0  0  0  0  0  0
    8.8810   -1.1900   22.4510 C   0  0  2  0  0  0  0  0  0  0  0  0
    7.9194   -1.0821   23.6998 C   0  0  2  0  0  0  0  0  0  0  0  0
    5.8141   -0.4871   17.3347 N   0  0  0  0  0  0  0  0  0  0  0  0
    7.2820   -0.7860   20.6970 N   0  0  0  0  0  0  0  0  0  0  0  0
    5.5284   -1.0997   24.4706 N   0  3  0  0  0  0  0  0  0  0  0  0
    8.9170    0.7530   21.0260 O   0  0  0  0  0  0  0  0  0  0  0  0
    4.8071   -0.5337   27.1380 O   0  0  0  0  0  0  0  0  0  0  0  0
   13.8840   -1.8490   21.2740 Cl  0  0  0  0  0  0  0  0  0  0  0  0
    4.4837    4.6523   19.7301 H   0  0  0  0  0  0  0  0  0  0  0  0
    5.6647    3.7768   21.7245 H   0  0  0  0  0  0  0  0  0  0  0  0
   12.2249    1.2198   24.6546 H   0  0  0  0  0  0  0  0  0  0  0  0
    4.2880    3.2728   17.6954 H   0  0  0  0  0  0  0  0  0  0  0  0
    6.6519    1.5367   21.7033 H   0  0  0  0  0  0  0  0  0  0  0  0
    9.8763    0.5350   24.3454 H   0  0  0  0  0  0  0  0  0  0  0  0
   14.0077    0.1988   23.2842 H   0  0  0  0  0  0  0  0  0  0  0  0
   11.0892   -2.3009   21.3624 H   0  0  0  0  0  0  0  0  0  0  0  0
    4.7856    1.0823   16.5003 H   0  0  0  0  0  0  0  0  0  0  0  0
    6.8589   -1.9374   18.3464 H   0  0  0  0  0  0  0  0  0  0  0  0
    2.2041    0.5293   27.5737 H   0  0  0  0  0  0  0  0  0  0  0  0
    1.5427   -0.9359   26.8240 H   0  0  0  0  0  0  0  0  0  0  0  0
    3.0554   -0.7142   24.9357 H   0  0  0  0  0  0  0  0  0  0  0  0
    2.5762    0.9724   25.2139 H   0  0  0  0  0  0  0  0  0  0  0  0
    3.5431   -1.1002   28.6862 H   0  0  0  0  0  0  0  0  0  0  0  0
    3.5728   -2.1690   27.2662 H   0  0  0  0  0  0  0  0  0  0  0  0
    4.5526    1.4120   26.5470 H   0  0  0  0  0  0  0  0  0  0  0  0
    8.3236   -3.0763   24.4901 H   0  0  0  0  0  0  0  0  0  0  0  0
    9.3662   -1.8274   25.1619 H   0  0  0  0  0  0  0  0  0  0  0  0
    7.6864   -1.9486   25.7014 H   0  0  0  0  0  0  0  0  0  0  0  0
    6.5272    0.5229   25.3300 H   0  0  0  0  0  0  0  0  0  0  0  0
    5.2620    0.9466   24.1376 H   0  0  0  0  0  0  0  0  0  0  0  0
    6.1046   -0.6640   22.5233 H   0  0  0  0  0  0  0  0  0  0  0  0
    6.2842   -2.3596   23.0027 H   0  0  0  0  0  0  0  0  0  0  0  0
    8.8227   -2.2553   22.1299 H   0  0  0  0  0  0  0  0  0  0  0  0
    7.9631   -0.0642   24.1101 H   0  0  0  0  0  0  0  0  0  0  0  0
    6.8771   -1.6492   21.0526 H   0  0  0  0  0  0  0  0  0  0  0  0
    5.7836   -1.7343   25.2417 H   0  0  0  0  0  0  0  0  0  0  0  0
    4.5698   -1.3650   24.2000 H   0  0  0  0  0  0  0  0  0  0  0  0
  1  2  1  0  0  0  0
  1  4  2  0  0  0  0
  2  5  2  0  0  0  0
  3  6  2  0  0  0  0
  3  7  1  0  0  0  0
  4 11  1  0  0  0  0
  5 12  1  0  0  0  0
  6 13  1  0  0  0  0
  7 15  2  0  0  0  0
  8 13  2  0  0  0  0
  8 15  1  0  0  0  0
  9 11  2  0  0  0  0
  9 26  1  0  0  0  0
 10 14  1  0  0  0  0
 10 26  2  0  0  0  0
 11 12  1  0  0  0  0
 12 14  2  0  0  0  0
 13 24  1  0  0  0  0
 14 27  1  0  0  0  0
 15 31  1  0  0  0  0
 16 24  1  6  0  0  0
 16 27  1  0  0  0  0
 16 29  2  0  0  0  0
 17 18  1  0  0  0  0
 17 19  1  0  0  0  0
 18 20  1  0  0  0  0
 19 30  1  0  0  0  0
 20 22  1  6  0  0  0
 20 30  1  0  0  0  0
 21 25  1  6  0  0  0
 22 28  1  0  0  0  0
 23 25  1  0  0  0  0
 23 28  1  0  0  0  0
 24 25  1  0  0  0  0
  1 32  1  0  0  0  0
  2 33  1  0  0  0  0
  3 34  1  0  0  0  0
  4 35  1  0  0  0  0
  5 36  1  0  0  0  0
  6 37  1  0  0  0  0
  7 38  1  0  0  0  0
  8 39  1  0  0  0  0
  9 40  1  0  0  0  0
 10 41  1  0  0  0  0
 17 42  1  0  0  0  0
 17 43  1  0  0  0  0
 18 44  1  0  0  0  0
 18 45  1  0  0  0  0
 19 46  1  0  0  0  0
 19 47  1  0  0  0  0
 20 48  1  0  0  0  0
 21 49  1  0  0  0  0
 21 50  1  0  0  0  0
 21 51  1  0  0  0  0
 22 52  1  0  0  0  0
 22 53  1  0  0  0  0
 23 54  1  0  0  0  0
 23 55  1  0  0  0  0
 24 56  1  0  0  0  0
 25 57  1  0  0  0  0
 27 58  1  0  0  0  0
 28 59  1  0  0  0  0
 28 60  1  0  0  0  0
M  CHG  1  28   1
M  END
> <compound>
MAK-UNK-c749d764-22

> <compound_smiles>
CC(CNCC1CCCO1)C(c2cccc(c2)Cl)C(=O)Nc3cncc4c3cccc4

> <enantiomer_smiles>
C[C@H](CNC[C@H]1CCCO1)[C@H](c2cccc(c2)Cl)C(=O)Nc3cncc4c3cccc4

> <scaffold>
chlorobenzene-linker

> <clash_score>
0.6586747278998105

> <docking_score>
-3.2668681144714355

> <overlap_score>
0.8343976140022278

> <MMFF_internal_energy>
151.81627382122198

> <docked_smiles>
C[C@H](C[NH2+]C[C@H]1CCCO1)[C@H](c2cccc(c2)Cl)C(=O)Nc3cncc4c3cccc4

$$$$
DAR-DIA-076fb6ea-10_1
  -OEChem-07262101023D

 46 48  0     1  0  0  0  0  0999 V2000
    6.2081   -3.1036   21.3554 C   0  0  0  0  0  0  0  0  0  0  0  0
    6.6967   -2.0490   21.0557 C   0  0  0  0  0  0  0  0  0  0  0  0
   11.9780    0.4600   23.9150 C   0  0  0  0  0  0  0  0  0  0  0  0
   10.6560    0.0720   23.7350 C   0  0  0  0  0  0  0  0  0  0  0  0
   12.9840   -0.1200   23.1530 C   0  0  0  0  0  0  0  0  0  0  0  0
    4.5450    0.9004   18.8195 C   0  0  0  0  0  0  0  0  0  0  0  0
   11.3360   -1.5050   22.0650 C   0  0  0  0  0  0  0  0  0  0  0  0
    5.2424    1.1643   17.6517 C   0  0  0  0  0  0  0  0  0  0  0  0
    7.1571    0.1933   18.4698 C   0  0  0  0  0  0  0  0  0  0  0  0
   10.3220   -0.8940   22.7910 C   0  0  0  0  0  0  0  0  0  0  0  0
    5.2183    0.2477   19.8462 C   0  0  0  0  0  0  0  0  0  0  0  0
    6.5495   -0.1160   19.6761 C   0  0  0  0  0  0  0  0  0  0  0  0
   12.6400   -1.1000   22.2390 C   0  0  0  0  0  0  0  0  0  0  0  0
    8.3880   -0.3240   21.3070 C   0  0  0  0  0  0  0  0  0  0  0  0
    4.9731   -5.8190   23.5090 C   0  0  0  0  0  0  0  0  0  0  0  0
    4.9116   -4.3672   23.0688 C   0  0  0  0  0  0  0  0  0  0  0  0
    6.3756   -6.2413   23.1236 C   0  0  0  0  0  0  0  0  0  0  0  0
    5.6140   -4.3868   21.7202 C   0  0  2  0  0  0  0  0  0  0  0  0
    4.4909   -0.0489   21.1164 C   0  0  0  0  0  0  0  0  0  0  0  0
    8.8810   -1.1900   22.4510 C   0  0  0  0  0  0  0  0  0  0  0  0
    6.5357    0.8264   17.4496 N   0  0  0  0  0  0  0  0  0  0  0  0
    7.2820   -0.7860   20.6970 N   0  0  0  0  0  0  0  0  0  0  0  0
    6.6820   -5.4396   21.8904 N   0  3  0  0  0  0  0  0  0  0  0  0
    8.9170    0.7530   21.0260 O   0  0  0  0  0  0  0  0  0  0  0  0
   13.8840   -1.8490   21.2740 Cl  0  0  0  0  0  0  0  0  0  0  0  0
   12.2249    1.2198   24.6546 H   0  0  0  0  0  0  0  0  0  0  0  0
    9.8763    0.5350   24.3454 H   0  0  0  0  0  0  0  0  0  0  0  0
   14.0077    0.1988   23.2842 H   0  0  0  0  0  0  0  0  0  0  0  0
    3.5068    1.1976   18.9205 H   0  0  0  0  0  0  0  0  0  0  0  0
   11.0892   -2.3009   21.3624 H   0  0  0  0  0  0  0  0  0  0  0  0
    4.7627    1.6713   16.8209 H   0  0  0  0  0  0  0  0  0  0  0  0
    8.1941   -0.0650   18.2768 H   0  0  0  0  0  0  0  0  0  0  0  0
    4.7842   -5.9358   24.5799 H   0  0  0  0  0  0  0  0  0  0  0  0
    4.2319   -6.4139   22.9622 H   0  0  0  0  0  0  0  0  0  0  0  0
    3.8801   -4.0087   22.9917 H   0  0  0  0  0  0  0  0  0  0  0  0
    5.4366   -3.7294   23.7915 H   0  0  0  0  0  0  0  0  0  0  0  0
    7.1134   -5.9531   23.8788 H   0  0  0  0  0  0  0  0  0  0  0  0
    6.4668   -7.3031   22.8819 H   0  0  0  0  0  0  0  0  0  0  0  0
    4.9453   -4.7590   20.9363 H   0  0  0  0  0  0  0  0  0  0  0  0
    4.0088   -1.0316   21.0575 H   0  0  0  0  0  0  0  0  0  0  0  0
    5.1742   -0.0455   21.9745 H   0  0  0  0  0  0  0  0  0  0  0  0
    3.7214    0.7066   21.3181 H   0  0  0  0  0  0  0  0  0  0  0  0
    8.7964   -2.2444   22.1829 H   0  0  0  0  0  0  0  0  0  0  0  0
    8.2579   -1.0138   23.3292 H   0  0  0  0  0  0  0  0  0  0  0  0
    7.6200   -5.0230   21.9743 H   0  0  0  0  0  0  0  0  0  0  0  0
    6.7107   -6.0491   21.0612 H   0  0  0  0  0  0  0  0  0  0  0  0
  1  2  3  0  0  0  0
  1 18  1  1  0  0  0
  2 22  1  0  0  0  0
  3  4  2  0  0  0  0
  3  5  1  0  0  0  0
  4 10  1  0  0  0  0
  5 13  2  0  0  0  0
  6  8  2  0  0  0  0
  6 11  1  0  0  0  0
  7 10  2  0  0  0  0
  7 13  1  0  0  0  0
  8 21  1  0  0  0  0
  9 12  1  0  0  0  0
  9 21  2  0  0  0  0
 10 20  1  0  0  0  0
 11 12  2  0  0  0  0
 11 19  1  0  0  0  0
 12 22  1  0  0  0  0
 13 25  1  0  0  0  0
 14 20  1  0  0  0  0
 14 22  1  0  0  0  0
 14 24  2  0  0  0  0
 15 16  1  0  0  0  0
 15 17  1  0  0  0  0
 16 18  1  0  0  0  0
 17 23  1  0  0  0  0
 18 23  1  0  0  0  0
  3 26  1  0  0  0  0
  4 27  1  0  0  0  0
  5 28  1  0  0  0  0
  6 29  1  0  0  0  0
  7 30  1  0  0  0  0
  8 31  1  0  0  0  0
  9 32  1  0  0  0  0
 15 33  1  0  0  0  0
 15 34  1  0  0  0  0
 16 35  1  0  0  0  0
 16 36  1  0  0  0  0
 17 37  1  0  0  0  0
 17 38  1  0  0  0  0
 18 39  1  0  0  0  0
 19 40  1  0  0  0  0
 19 41  1  0  0  0  0
 19 42  1  0  0  0  0
 20 43  1  0  0  0  0
 20 44  1  0  0  0  0
 23 45  1  0  0  0  0
 23 46  1  0  0  0  0
M  CHG  1  23   1
M  END
> <compound>
DAR-DIA-076fb6ea-10

> <compound_smiles>
Cc1ccncc1N(C#CC2CCCN2)C(=O)Cc3cccc(c3)Cl

> <enantiomer_smiles>
Cc1ccncc1N(C#C[C@@H]2CCCN2)C(=O)Cc3cccc(c3)Cl

> <scaffold>
chlorobenzene-linker

> <clash_score>
0

> <docking_score>
-4.723090171813965

> <overlap_score>
0.843723714351654

> <MMFF_internal_energy>
87.48442808343223

> <docked_smiles>
Cc1ccncc1N(C#C[C@@H]2CCC[NH2+]2)C(=O)Cc3cccc(c3)Cl

$$$$
DAR-DIA-076fb6ea-9_1
  -OEChem-07262101023D

 49 52  0     1  0  0  0  0  0999 V2000
    6.2756   -3.0718   21.3898 C   0  0  0  0  0  0  0  0  0  0  0  0
    6.7416   -2.0131   21.0689 C   0  0  0  0  0  0  0  0  0  0  0  0
    3.5550    2.7115   20.4740 C   0  0  0  0  0  0  0  0  0  0  0  0
    4.1658    2.0460   21.5344 C   0  0  0  0  0  0  0  0  0  0  0  0
   11.9780    0.4600   23.9150 C   0  0  0  0  0  0  0  0  0  0  0  0
    3.9574    2.4545   19.1636 C   0  0  0  0  0  0  0  0  0  0  0  0
    5.1816    1.1205   21.2892 C   0  0  0  0  0  0  0  0  0  0  0  0
   10.6560    0.0720   23.7350 C   0  0  0  0  0  0  0  0  0  0  0  0
   12.9840   -0.1200   23.1530 C   0  0  0  0  0  0  0  0  0  0  0  0
   11.3360   -1.5050   22.0650 C   0  0  0  0  0  0  0  0  0  0  0  0
    5.4203    1.2297   17.6140 C   0  0  0  0  0  0  0  0  0  0  0  0
    6.9703   -0.2850   18.3741 C   0  0  0  0  0  0  0  0  0  0  0  0
    4.9785    1.5251   18.9051 C   0  0  0  0  0  0  0  0  0  0  0  0
    5.5993    0.8494   19.9759 C   0  0  0  0  0  0  0  0  0  0  0  0
   10.3220   -0.8940   22.7910 C   0  0  0  0  0  0  0  0  0  0  0  0
    6.6148   -0.0728   19.6974 C   0  0  0  0  0  0  0  0  0  0  0  0
   12.6400   -1.1000   22.2390 C   0  0  0  0  0  0  0  0  0  0  0  0
    8.3880   -0.3240   21.3070 C   0  0  0  0  0  0  0  0  0  0  0  0
    6.1729   -6.5443   22.6011 C   0  0  0  0  0  0  0  0  0  0  0  0
    6.5269   -5.0865   22.8356 C   0  0  0  0  0  0  0  0  0  0  0  0
    6.1665   -6.6632   21.0912 C   0  0  0  0  0  0  0  0  0  0  0  0
    5.7087   -4.3598   21.7797 C   0  0  2  0  0  0  0  0  0  0  0  0
    8.8810   -1.1900   22.4510 C   0  0  0  0  0  0  0  0  0  0  0  0
    6.3991    0.3429   17.3244 N   0  0  0  0  0  0  0  0  0  0  0  0
    7.2820   -0.7860   20.6970 N   0  0  0  0  0  0  0  0  0  0  0  0
    5.7049   -5.3161   20.6119 N   0  3  0  0  0  0  0  0  0  0  0  0
    8.9170    0.7530   21.0260 O   0  0  0  0  0  0  0  0  0  0  0  0
   13.8840   -1.8490   21.2740 Cl  0  0  0  0  0  0  0  0  0  0  0  0
    2.7648    3.4308   20.6677 H   0  0  0  0  0  0  0  0  0  0  0  0
    3.8507    2.2474   22.5543 H   0  0  0  0  0  0  0  0  0  0  0  0
   12.2249    1.2198   24.6546 H   0  0  0  0  0  0  0  0  0  0  0  0
    3.4699    2.9828   18.3475 H   0  0  0  0  0  0  0  0  0  0  0  0
    5.6345    0.6219   22.1431 H   0  0  0  0  0  0  0  0  0  0  0  0
    9.8763    0.5350   24.3454 H   0  0  0  0  0  0  0  0  0  0  0  0
   14.0077    0.1988   23.2842 H   0  0  0  0  0  0  0  0  0  0  0  0
   11.0892   -2.3009   21.3624 H   0  0  0  0  0  0  0  0  0  0  0  0
    4.9848    1.7142   16.7444 H   0  0  0  0  0  0  0  0  0  0  0  0
    7.7516   -0.9906   18.1059 H   0  0  0  0  0  0  0  0  0  0  0  0
    6.8902   -7.2253   23.0678 H   0  0  0  0  0  0  0  0  0  0  0  0
    5.1774   -6.7635   23.0052 H   0  0  0  0  0  0  0  0  0  0  0  0
    6.2712   -4.7636   23.8500 H   0  0  0  0  0  0  0  0  0  0  0  0
    7.6044   -4.9306   22.6946 H   0  0  0  0  0  0  0  0  0  0  0  0
    7.1721   -6.8146   20.6869 H   0  0  0  0  0  0  0  0  0  0  0  0
    5.4800   -7.4236   20.7107 H   0  0  0  0  0  0  0  0  0  0  0  0
    4.6639   -4.2615   22.0933 H   0  0  0  0  0  0  0  0  0  0  0  0
    8.7964   -2.2444   22.1829 H   0  0  0  0  0  0  0  0  0  0  0  0
    8.2579   -1.0138   23.3292 H   0  0  0  0  0  0  0  0  0  0  0  0
    6.3175   -4.9928   19.8497 H   0  0  0  0  0  0  0  0  0  0  0  0
    4.7580   -5.3795   20.2127 H   0  0  0  0  0  0  0  0  0  0  0  0
  1  2  3  0  0  0  0
  1 22  1  1  0  0  0
  2 25  1  0  0  0  0
  3  4  1  0  0  0  0
  3  6  2  0  0  0  0
  4  7  2  0  0  0  0
  5  8  2  0  0  0  0
  5  9  1  0  0  0  0
  6 13  1  0  0  0  0
  7 14  1  0  0  0  0
  8 15  1  0  0  0  0
  9 17  2  0  0  0  0
 10 15  2  0  0  0  0
 10 17  1  0  0  0  0
 11 13  2  0  0  0  0
 11 24  1  0  0  0  0
 12 16  1  0  0  0  0
 12 24  2  0  0  0  0
 13 14  1  0  0  0  0
 14 16  2  0  0  0  0
 15 23  1  0  0  0  0
 16 25  1  0  0  0  0
 17 28  1  0  0  0  0
 18 23  1  0  0  0  0
 18 25  1  0  0  0  0
 18 27  2  0  0  0  0
 19 20  1  0  0  0  0
 19 21  1  0  0  0  0
 20 22  1  0  0  0  0
 21 26  1  0  0  0  0
 22 26  1  0  0  0  0
  3 29  1  0  0  0  0
  4 30  1  0  0  0  0
  5 31  1  0  0  0  0
  6 32  1  0  0  0  0
  7 33  1  0  0  0  0
  8 34  1  0  0  0  0
  9 35  1  0  0  0  0
 10 36  1  0  0  0  0
 11 37  1  0  0  0  0
 12 38  1  0  0  0  0
 19 39  1  0  0  0  0
 19 40  1  0  0  0  0
 20 41  1  0  0  0  0
 20 42  1  0  0  0  0
 21 43  1  0  0  0  0
 21 44  1  0  0  0  0
 22 45  1  0  0  0  0
 23 46  1  0  0  0  0
 23 47  1  0  0  0  0
 26 48  1  0  0  0  0
 26 49  1  0  0  0  0
M  CHG  1  26   1
M  END
> <compound>
DAR-DIA-076fb6ea-9

> <compound_smiles>
c1ccc2c(c1)cncc2N(C#CC3CCCN3)C(=O)Cc4cccc(c4)Cl

> <enantiomer_smiles>
c1ccc2c(c1)cncc2N(C#C[C@@H]3CCCN3)C(=O)Cc4cccc(c4)Cl

> <scaffold>
chlorobenzene-linker

> <clash_score>
0

> <docking_score>
-9.357603073120117

> <overlap_score>
0.9848669171333313

> <MMFF_internal_energy>
106.53595106537668

> <docked_smiles>
c1ccc2c(c1)cncc2N(C#C[C@@H]3CCC[NH2+]3)C(=O)Cc4cccc(c4)Cl

$$$$
DAR-DIA-076fb6ea-8_1
  -OEChem-07262101023D

 41 43  0     0  0  0  0  0  0999 V2000
    6.6534   -3.1719   18.9342 C   0  0  0  0  0  0  0  0  0  0  0  0
    3.6630    2.8184   20.4076 C   0  0  0  0  0  0  0  0  0  0  0  0
    4.2153    2.1159   21.4761 C   0  0  0  0  0  0  0  0  0  0  0  0
   11.9780    0.4600   23.9150 C   0  0  0  0  0  0  0  0  0  0  0  0
    4.1067    2.5752   19.1079 C   0  0  0  0  0  0  0  0  0  0  0  0
    5.2140    1.1671   21.2498 C   0  0  0  0  0  0  0  0  0  0  0  0
   10.6560    0.0720   23.7350 C   0  0  0  0  0  0  0  0  0  0  0  0
   12.9840   -0.1200   23.1530 C   0  0  0  0  0  0  0  0  0  0  0  0
   11.3360   -1.5050   22.0650 C   0  0  0  0  0  0  0  0  0  0  0  0
    5.5924    1.3396   17.5888 C   0  0  0  0  0  0  0  0  0  0  0  0
    7.0710   -0.2323   18.3748 C   0  0  0  0  0  0  0  0  0  0  0  0
    5.1110    1.6226   18.8685 C   0  0  0  0  0  0  0  0  0  0  0  0
    5.6727    0.9094   19.9476 C   0  0  0  0  0  0  0  0  0  0  0  0
   10.3220   -0.8940   22.7910 C   0  0  0  0  0  0  0  0  0  0  0  0
    6.6722   -0.0354   19.6881 C   0  0  0  0  0  0  0  0  0  0  0  0
   12.6400   -1.1000   22.2390 C   0  0  0  0  0  0  0  0  0  0  0  0
    7.2780   -3.5344   17.8553 C   0  0  0  0  0  0  0  0  0  0  0  0
    6.0245   -2.8107   20.0130 C   0  0  0  0  0  0  0  0  0  0  0  0
    6.7295   -2.0539   21.0862 C   0  0  0  0  0  0  0  0  0  0  0  0
    8.3880   -0.3240   21.3070 C   0  0  0  0  0  0  0  0  0  0  0  0
    8.8810   -1.1900   22.4510 C   0  0  0  0  0  0  0  0  0  0  0  0
    6.5566    0.4313   17.3176 N   0  0  0  0  0  0  0  0  0  0  0  0
    7.2820   -0.7860   20.6970 N   0  0  0  0  0  0  0  0  0  0  0  0
    6.8221   -2.5172   22.2225 O   0  0  0  0  0  0  0  0  0  0  0  0
    8.9170    0.7530   21.0260 O   0  0  0  0  0  0  0  0  0  0  0  0
   13.8840   -1.8490   21.2740 Cl  0  0  0  0  0  0  0  0  0  0  0  0
    2.8861    3.5558   20.5865 H   0  0  0  0  0  0  0  0  0  0  0  0
    3.8681    2.3066   22.4875 H   0  0  0  0  0  0  0  0  0  0  0  0
   12.2249    1.2198   24.6546 H   0  0  0  0  0  0  0  0  0  0  0  0
    3.6646    3.1325   18.2853 H   0  0  0  0  0  0  0  0  0  0  0  0
    5.6209    0.6398   22.1096 H   0  0  0  0  0  0  0  0  0  0  0  0
    9.8763    0.5350   24.3454 H   0  0  0  0  0  0  0  0  0  0  0  0
   14.0077    0.1988   23.2842 H   0  0  0  0  0  0  0  0  0  0  0  0
   11.0892   -2.3008   21.3624 H   0  0  0  0  0  0  0  0  0  0  0  0
    5.2030    1.8526   16.7137 H   0  0  0  0  0  0  0  0  0  0  0  0
    7.8421   -0.9543   18.1213 H   0  0  0  0  0  0  0  0  0  0  0  0
    8.3252   -3.2925   17.7160 H   0  0  0  0  0  0  0  0  0  0  0  0
    6.7618   -4.0857   17.0781 H   0  0  0  0  0  0  0  0  0  0  0  0
    5.0024   -3.1333   20.1750 H   0  0  0  0  0  0  0  0  0  0  0  0
    8.7696   -2.2422   22.1627 H   0  0  0  0  0  0  0  0  0  0  0  0
    8.2813   -1.0411   23.3568 H   0  0  0  0  0  0  0  0  0  0  0  0
  1 17  2  0  0  0  0
  1 18  2  0  0  0  0
  2  3  1  0  0  0  0
  2  5  2  0  0  0  0
  3  6  2  0  0  0  0
  4  7  2  0  0  0  0
  4  8  1  0  0  0  0
  5 12  1  0  0  0  0
  6 13  1  0  0  0  0
  7 14  1  0  0  0  0
  8 16  2  0  0  0  0
  9 14  2  0  0  0  0
  9 16  1  0  0  0  0
 10 12  2  0  0  0  0
 10 22  1  0  0  0  0
 11 15  1  0  0  0  0
 11 22  2  0  0  0  0
 12 13  1  0  0  0  0
 13 15  2  0  0  0  0
 14 21  1  0  0  0  0
 15 23  1  0  0  0  0
 16 26  1  0  0  0  0
 18 19  1  0  0  0  0
 19 23  1  0  0  0  0
 19 24  2  0  0  0  0
 20 21  1  0  0  0  0
 20 23  1  0  0  0  0
 20 25  2  0  0  0  0
  2 27  1  0  0  0  0
  3 28  1  0  0  0  0
  4 29  1  0  0  0  0
  5 30  1  0  0  0  0
  6 31  1  0  0  0  0
  7 32  1  0  0  0  0
  8 33  1  0  0  0  0
  9 34  1  0  0  0  0
 10 35  1  0  0  0  0
 11 36  1  0  0  0  0
 17 37  1  0  0  0  0
 17 38  1  0  0  0  0
 18 39  1  0  0  0  0
 21 40  1  0  0  0  0
 21 41  1  0  0  0  0
M  END
> <compound>
DAR-DIA-076fb6ea-8

> <compound_smiles>
C=C=CC(=O)N(c1cncc2c1cccc2)C(=O)Cc3cccc(c3)Cl

> <enantiomer_smiles>
C=C=CC(=O)N(c1cncc2c1cccc2)C(=O)Cc3cccc(c3)Cl

> <scaffold>
chlorobenzene-linker

> <clash_score>
2.0705609818908153

> <docking_score>
-8.428496360778809

> <overlap_score>
0.9832754731178284

> <MMFF_internal_energy>
109.57083948868122

> <docked_smiles>
C=C=CC(=O)N(c1cncc2c1cccc2)C(=O)Cc3cccc(c3)Cl

$$$$
DAR-DIA-076fb6ea-10_2
  -OEChem-07262101023D

 46 48  0     1  0  0  0  0  0999 V2000
    6.2081   -3.1036   21.3554 C   0  0  0  0  0  0  0  0  0  0  0  0
    6.6967   -2.0490   21.0557 C   0  0  0  0  0  0  0  0  0  0  0  0
   11.9780    0.4600   23.9150 C   0  0  0  0  0  0  0  0  0  0  0  0
   10.6560    0.0720   23.7350 C   0  0  0  0  0  0  0  0  0  0  0  0
   12.9840   -0.1200   23.1530 C   0  0  0  0  0  0  0  0  0  0  0  0
    4.5450    0.9003   18.8195 C   0  0  0  0  0  0  0  0  0  0  0  0
   11.3360   -1.5050   22.0650 C   0  0  0  0  0  0  0  0  0  0  0  0
    5.2424    1.1643   17.6517 C   0  0  0  0  0  0  0  0  0  0  0  0
    7.1571    0.1933   18.4698 C   0  0  0  0  0  0  0  0  0  0  0  0
   10.3220   -0.8940   22.7910 C   0  0  0  0  0  0  0  0  0  0  0  0
    5.2183    0.2477   19.8462 C   0  0  0  0  0  0  0  0  0  0  0  0
    6.5495   -0.1160   19.6761 C   0  0  0  0  0  0  0  0  0  0  0  0
   12.6400   -1.1000   22.2390 C   0  0  0  0  0  0  0  0  0  0  0  0
    8.3880   -0.3240   21.3070 C   0  0  0  0  0  0  0  0  0  0  0  0
    4.8626   -6.5013   20.9291 C   0  0  0  0  0  0  0  0  0  0  0  0
    4.8063   -5.0207   20.5983 C   0  0  0  0  0  0  0  0  0  0  0  0
    6.2998   -6.7082   21.3602 C   0  0  0  0  0  0  0  0  0  0  0  0
    5.6140   -4.3868   21.7202 C   0  0  1  0  0  0  0  0  0  0  0  0
    4.4908   -0.0489   21.1164 C   0  0  0  0  0  0  0  0  0  0  0  0
    8.8810   -1.1900   22.4510 C   0  0  0  0  0  0  0  0  0  0  0  0
    6.5357    0.8264   17.4496 N   0  0  0  0  0  0  0  0  0  0  0  0
    7.2820   -0.7860   20.6970 N   0  0  0  0  0  0  0  0  0  0  0  0
    6.6868   -5.4086   22.0076 N   0  3  0  0  0  0  0  0  0  0  0  0
    8.9170    0.7530   21.0260 O   0  0  0  0  0  0  0  0  0  0  0  0
   13.8840   -1.8490   21.2740 Cl  0  0  0  0  0  0  0  0  0  0  0  0
   12.2249    1.2198   24.6546 H   0  0  0  0  0  0  0  0  0  0  0  0
    9.8763    0.5350   24.3454 H   0  0  0  0  0  0  0  0  0  0  0  0
   14.0077    0.1988   23.2842 H   0  0  0  0  0  0  0  0  0  0  0  0
    3.5068    1.1976   18.9205 H   0  0  0  0  0  0  0  0  0  0  0  0
   11.0892   -2.3009   21.3624 H   0  0  0  0  0  0  0  0  0  0  0  0
    4.7627    1.6713   16.8209 H   0  0  0  0  0  0  0  0  0  0  0  0
    8.1941   -0.0650   18.2768 H   0  0  0  0  0  0  0  0  0  0  0  0
    4.1804   -6.7333   21.7556 H   0  0  0  0  0  0  0  0  0  0  0  0
    4.5916   -7.1274   20.0745 H   0  0  0  0  0  0  0  0  0  0  0  0
    5.2592   -4.8332   19.6162 H   0  0  0  0  0  0  0  0  0  0  0  0
    3.7768   -4.6493   20.5701 H   0  0  0  0  0  0  0  0  0  0  0  0
    6.4323   -7.5137   22.0867 H   0  0  0  0  0  0  0  0  0  0  0  0
    6.9691   -6.8466   20.5054 H   0  0  0  0  0  0  0  0  0  0  0  0
    5.0170   -4.3101   22.6356 H   0  0  0  0  0  0  0  0  0  0  0  0
    4.0088   -1.0316   21.0575 H   0  0  0  0  0  0  0  0  0  0  0  0
    5.1742   -0.0455   21.9745 H   0  0  0  0  0  0  0  0  0  0  0  0
    3.7214    0.7066   21.3181 H   0  0  0  0  0  0  0  0  0  0  0  0
    8.7964   -2.2444   22.1829 H   0  0  0  0  0  0  0  0  0  0  0  0
    8.2579   -1.0138   23.3292 H   0  0  0  0  0  0  0  0  0  0  0  0
    6.7947   -5.5279   23.0245 H   0  0  0  0  0  0  0  0  0  0  0  0
    7.6061   -5.1083   21.6540 H   0  0  0  0  0  0  0  0  0  0  0  0
  1  2  3  0  0  0  0
  1 18  1  6  0  0  0
  2 22  1  0  0  0  0
  3  4  2  0  0  0  0
  3  5  1  0  0  0  0
  4 10  1  0  0  0  0
  5 13  2  0  0  0  0
  6  8  2  0  0  0  0
  6 11  1  0  0  0  0
  7 10  2  0  0  0  0
  7 13  1  0  0  0  0
  8 21  1  0  0  0  0
  9 12  1  0  0  0  0
  9 21  2  0  0  0  0
 10 20  1  0  0  0  0
 11 12  2  0  0  0  0
 11 19  1  0  0  0  0
 12 22  1  0  0  0  0
 13 25  1  0  0  0  0
 14 20  1  0  0  0  0
 14 22  1  0  0  0  0
 14 24  2  0  0  0  0
 15 16  1  0  0  0  0
 15 17  1  0  0  0  0
 16 18  1  0  0  0  0
 17 23  1  0  0  0  0
 18 23  1  0  0  0  0
  3 26  1  0  0  0  0
  4 27  1  0  0  0  0
  5 28  1  0  0  0  0
  6 29  1  0  0  0  0
  7 30  1  0  0  0  0
  8 31  1  0  0  0  0
  9 32  1  0  0  0  0
 15 33  1  0  0  0  0
 15 34  1  0  0  0  0
 16 35  1  0  0  0  0
 16 36  1  0  0  0  0
 17 37  1  0  0  0  0
 17 38  1  0  0  0  0
 18 39  1  0  0  0  0
 19 40  1  0  0  0  0
 19 41  1  0  0  0  0
 19 42  1  0  0  0  0
 20 43  1  0  0  0  0
 20 44  1  0  0  0  0
 23 45  1  0  0  0  0
 23 46  1  0  0  0  0
M  CHG  1  23   1
M  END
> <compound>
DAR-DIA-076fb6ea-10

> <compound_smiles>
Cc1ccncc1N(C#CC2CCCN2)C(=O)Cc3cccc(c3)Cl

> <enantiomer_smiles>
Cc1ccncc1N(C#C[C@H]2CCCN2)C(=O)Cc3cccc(c3)Cl

> <scaffold>
chlorobenzene-linker

> <clash_score>
0.6441188730010757

> <docking_score>
-3.2552521228790283

> <overlap_score>
0.8437231779098511

> <MMFF_internal_energy>
87.46432309719494

> <docked_smiles>
Cc1ccncc1N(C#C[C@H]2CCC[NH2+]2)C(=O)Cc3cccc(c3)Cl

$$$$
MAK-UNK-c749d764-22_7
  -OEChem-07262101023D

 60 63  0     1  0  0  0  0  0999 V2000
    2.5765    1.0462   19.7996 C   0  0  0  0  0  0  0  0  0  0  0  0
    3.1767    0.4829   20.9233 C   0  0  0  0  0  0  0  0  0  0  0  0
   11.9780    0.4600   23.9150 C   0  0  0  0  0  0  0  0  0  0  0  0
    3.3045    1.1939   18.6191 C   0  0  0  0  0  0  0  0  0  0  0  0
    4.5075    0.0647   20.8716 C   0  0  0  0  0  0  0  0  0  0  0  0
   10.6560    0.0720   23.7350 C   0  0  0  0  0  0  0  0  0  0  0  0
   12.9840   -0.1200   23.1530 C   0  0  0  0  0  0  0  0  0  0  0  0
   11.3360   -1.5050   22.0650 C   0  0  0  0  0  0  0  0  0  0  0  0
    5.4190    0.9004   17.4008 C   0  0  0  0  0  0  0  0  0  0  0  0
    7.2619   -0.0308   18.4065 C   0  0  0  0  0  0  0  0  0  0  0  0
    4.6442    0.7764   18.5558 C   0  0  0  0  0  0  0  0  0  0  0  0
    5.2554    0.2056   19.6913 C   0  0  0  0  0  0  0  0  0  0  0  0
   10.3220   -0.8940   22.7910 C   0  0  0  0  0  0  0  0  0  0  0  0
    6.5912   -0.2039   19.6077 C   0  0  0  0  0  0  0  0  0  0  0  0
   12.6400   -1.1000   22.2390 C   0  0  0  0  0  0  0  0  0  0  0  0
    8.3880   -0.3240   21.3070 C   0  0  0  0  0  0  0  0  0  0  0  0
    2.2439    2.6912   26.0907 C   0  0  0  0  0  0  0  0  0  0  0  0
    3.7182    3.0085   26.0774 C   0  0  0  0  0  0  0  0  0  0  0  0
    2.1203    1.7299   24.9277 C   0  0  0  0  0  0  0  0  0  0  0  0
    4.3145    1.6607   25.7104 C   0  0  1  0  0  0  0  0  0  0  0  0
    8.5537   -1.7378   24.9385 C   0  0  0  0  0  0  0  0  0  0  0  0
    5.6671    1.7619   25.0325 C   0  0  0  0  0  0  0  0  0  0  0  0
    7.4740    0.3571   24.0324 C   0  0  0  0  0  0  0  0  0  0  0  0
    8.8810   -1.1900   22.4510 C   0  0  2  0  0  0  0  0  0  0  0  0
    7.9194   -1.0821   23.6998 C   0  0  1  0  0  0  0  0  0  0  0  0
    6.7100    0.5112   17.3001 N   0  0  0  0  0  0  0  0  0  0  0  0
    7.2820   -0.7860   20.6970 N   0  0  0  0  0  0  0  0  0  0  0  0
    6.1796    0.3921   24.7540 N   0  3  0  0  0  0  0  0  0  0  0  0
    8.9170    0.7530   21.0260 O   0  0  0  0  0  0  0  0  0  0  0  0
    3.3710    1.0329   24.8259 O   0  0  0  0  0  0  0  0  0  0  0  0
   13.8840   -1.8490   21.2740 Cl  0  0  0  0  0  0  0  0  0  0  0  0
    1.5410    1.3706   19.8425 H   0  0  0  0  0  0  0  0  0  0  0  0
    2.6079    0.3686   21.8416 H   0  0  0  0  0  0  0  0  0  0  0  0
   12.2249    1.2198   24.6546 H   0  0  0  0  0  0  0  0  0  0  0  0
    2.8204    1.6355   17.7511 H   0  0  0  0  0  0  0  0  0  0  0  0
    4.9409   -0.3697   21.7696 H   0  0  0  0  0  0  0  0  0  0  0  0
    9.8763    0.5350   24.3454 H   0  0  0  0  0  0  0  0  0  0  0  0
   14.0077    0.1988   23.2842 H   0  0  0  0  0  0  0  0  0  0  0  0
   11.0892   -2.3009   21.3624 H   0  0  0  0  0  0  0  0  0  0  0  0
    5.0099    1.3312   16.4910 H   0  0  0  0  0  0  0  0  0  0  0  0
    8.2989   -0.3328   18.2906 H   0  0  0  0  0  0  0  0  0  0  0  0
    1.9811    2.1830   27.0261 H   0  0  0  0  0  0  0  0  0  0  0  0
    1.6029    3.5706   25.9879 H   0  0  0  0  0  0  0  0  0  0  0  0
    3.9263    3.7560   25.3022 H   0  0  0  0  0  0  0  0  0  0  0  0
    4.0888    3.3918   27.0321 H   0  0  0  0  0  0  0  0  0  0  0  0
    1.3072    1.0109   25.0618 H   0  0  0  0  0  0  0  0  0  0  0  0
    1.9610    2.2660   23.9861 H   0  0  0  0  0  0  0  0  0  0  0  0
    4.3956    1.0261   26.6008 H   0  0  0  0  0  0  0  0  0  0  0  0
    9.4843   -1.2301   25.2145 H   0  0  0  0  0  0  0  0  0  0  0  0
    7.8875   -1.6771   25.8049 H   0  0  0  0  0  0  0  0  0  0  0  0
    8.7807   -2.7948   24.7656 H   0  0  0  0  0  0  0  0  0  0  0  0
    6.4037    2.2568   25.6713 H   0  0  0  0  0  0  0  0  0  0  0  0
    5.6004    2.2813   24.0725 H   0  0  0  0  0  0  0  0  0  0  0  0
    8.1970    0.8780   24.6661 H   0  0  0  0  0  0  0  0  0  0  0  0
    7.3356    0.9463   23.1199 H   0  0  0  0  0  0  0  0  0  0  0  0
    8.8227   -2.2553   22.1299 H   0  0  0  0  0  0  0  0  0  0  0  0
    6.9977   -1.6390   23.4831 H   0  0  0  0  0  0  0  0  0  0  0  0
    6.8771   -1.6492   21.0526 H   0  0  0  0  0  0  0  0  0  0  0  0
    6.2715   -0.1175   25.6452 H   0  0  0  0  0  0  0  0  0  0  0  0
    5.4719   -0.1251   24.2115 H   0  0  0  0  0  0  0  0  0  0  0  0
  1  2  1  0  0  0  0
  1  4  2  0  0  0  0
  2  5  2  0  0  0  0
  3  6  2  0  0  0  0
  3  7  1  0  0  0  0
  4 11  1  0  0  0  0
  5 12  1  0  0  0  0
  6 13  1  0  0  0  0
  7 15  2  0  0  0  0
  8 13  2  0  0  0  0
  8 15  1  0  0  0  0
  9 11  2  0  0  0  0
  9 26  1  0  0  0  0
 10 14  1  0  0  0  0
 10 26  2  0  0  0  0
 11 12  1  0  0  0  0
 12 14  2  0  0  0  0
 13 24  1  0  0  0  0
 14 27  1  0  0  0  0
 15 31  1  0  0  0  0
 16 24  1  6  0  0  0
 16 27  1  0  0  0  0
 16 29  2  0  0  0  0
 17 18  1  0  0  0  0
 17 19  1  0  0  0  0
 18 20  1  0  0  0  0
 19 30  1  0  0  0  0
 20 22  1  6  0  0  0
 20 30  1  0  0  0  0
 21 25  1  1  0  0  0
 22 28  1  0  0  0  0
 23 25  1  0  0  0  0
 23 28  1  0  0  0  0
 24 25  1  0  0  0  0
  1 32  1  0  0  0  0
  2 33  1  0  0  0  0
  3 34  1  0  0  0  0
  4 35  1  0  0  0  0
  5 36  1  0  0  0  0
  6 37  1  0  0  0  0
  7 38  1  0  0  0  0
  8 39  1  0  0  0  0
  9 40  1  0  0  0  0
 10 41  1  0  0  0  0
 17 42  1  0  0  0  0
 17 43  1  0  0  0  0
 18 44  1  0  0  0  0
 18 45  1  0  0  0  0
 19 46  1  0  0  0  0
 19 47  1  0  0  0  0
 20 48  1  0  0  0  0
 21 49  1  0  0  0  0
 21 50  1  0  0  0  0
 21 51  1  0  0  0  0
 22 52  1  0  0  0  0
 22 53  1  0  0  0  0
 23 54  1  0  0  0  0
 23 55  1  0  0  0  0
 24 56  1  0  0  0  0
 25 57  1  0  0  0  0
 27 58  1  0  0  0  0
 28 59  1  0  0  0  0
 28 60  1  0  0  0  0
M  CHG  1  28   1
M  END
> <compound>
MAK-UNK-c749d764-22

> <compound_smiles>
CC(CNCC1CCCO1)C(c2cccc(c2)Cl)C(=O)Nc3cncc4c3cccc4

> <enantiomer_smiles>
C[C@@H](CNC[C@H]1CCCO1)[C@H](c2cccc(c2)Cl)C(=O)Nc3cncc4c3cccc4

> <scaffold>
chlorobenzene-linker

> <clash_score>
0

> <docking_score>
-4.954165458679199

> <overlap_score>
0.8971115350723267

> <MMFF_internal_energy>
140.54014081494694

> <docked_smiles>
C[C@@H](C[NH2+]C[C@H]1CCCO1)[C@H](c2cccc(c2)Cl)C(=O)Nc3cncc4c3cccc4

$$$$
DAR-DIA-076fb6ea-7_1
  -OEChem-07262101023D

 38 39  0     0  0  0  0  0  0999 V2000
    4.7335   -2.9539   19.9032 C   0  0  0  0  0  0  0  0  0  0  0  0
   11.9780    0.4600   23.9150 C   0  0  0  0  0  0  0  0  0  0  0  0
   10.6560    0.0720   23.7350 C   0  0  0  0  0  0  0  0  0  0  0  0
   12.9840   -0.1200   23.1530 C   0  0  0  0  0  0  0  0  0  0  0  0
    5.1603    1.7280   18.9033 C   0  0  0  0  0  0  0  0  0  0  0  0
   11.3360   -1.5050   22.0650 C   0  0  0  0  0  0  0  0  0  0  0  0
    5.6200    1.4944   17.6173 C   0  0  0  0  0  0  0  0  0  0  0  0
    7.0734   -0.1331   18.3364 C   0  0  0  0  0  0  0  0  0  0  0  0
   10.3220   -0.8940   22.7910 C   0  0  0  0  0  0  0  0  0  0  0  0
    5.7066    0.9748   19.9366 C   0  0  0  0  0  0  0  0  0  0  0  0
    6.6820    0.0244   19.6561 C   0  0  0  0  0  0  0  0  0  0  0  0
   12.6400   -1.1000   22.2390 C   0  0  0  0  0  0  0  0  0  0  0  0
    3.4623   -3.2159   19.9336 C   0  0  0  0  0  0  0  0  0  0  0  0
    6.0066   -2.6931   19.8690 C   0  0  0  0  0  0  0  0  0  0  0  0
    6.6754   -2.0194   21.0182 C   0  0  0  0  0  0  0  0  0  0  0  0
    8.3880   -0.3240   21.3070 C   0  0  0  0  0  0  0  0  0  0  0  0
    5.2299    1.2063   21.3330 C   0  0  0  0  0  0  0  0  0  0  0  0
    8.8810   -1.1900   22.4510 C   0  0  0  0  0  0  0  0  0  0  0  0
    6.5658    0.5800   17.3060 N   0  0  0  0  0  0  0  0  0  0  0  0
    7.2820   -0.7860   20.6970 N   0  0  0  0  0  0  0  0  0  0  0  0
    6.6981   -2.5493   22.1285 O   0  0  0  0  0  0  0  0  0  0  0  0
    8.9170    0.7530   21.0260 O   0  0  0  0  0  0  0  0  0  0  0  0
   13.8840   -1.8490   21.2740 Cl  0  0  0  0  0  0  0  0  0  0  0  0
   12.2249    1.2198   24.6546 H   0  0  0  0  0  0  0  0  0  0  0  0
    9.8763    0.5350   24.3454 H   0  0  0  0  0  0  0  0  0  0  0  0
   14.0077    0.1988   23.2842 H   0  0  0  0  0  0  0  0  0  0  0  0
    4.3982    2.4773   19.0885 H   0  0  0  0  0  0  0  0  0  0  0  0
   11.0892   -2.3009   21.3624 H   0  0  0  0  0  0  0  0  0  0  0  0
    5.2261    2.0556   16.7763 H   0  0  0  0  0  0  0  0  0  0  0  0
    7.8302   -0.8591   18.0542 H   0  0  0  0  0  0  0  0  0  0  0  0
    2.8641   -2.9488   20.7968 H   0  0  0  0  0  0  0  0  0  0  0  0
    2.9799   -3.7047   19.0952 H   0  0  0  0  0  0  0  0  0  0  0  0
    6.5732   -2.8891   18.9660 H   0  0  0  0  0  0  0  0  0  0  0  0
    4.3776    0.5543   21.5563 H   0  0  0  0  0  0  0  0  0  0  0  0
    6.0247    1.0048   22.0616 H   0  0  0  0  0  0  0  0  0  0  0  0
    4.9203    2.2488   21.4782 H   0  0  0  0  0  0  0  0  0  0  0  0
    8.7696   -2.2422   22.1627 H   0  0  0  0  0  0  0  0  0  0  0  0
    8.2813   -1.0411   23.3568 H   0  0  0  0  0  0  0  0  0  0  0  0
  1 13  2  0  0  0  0
  1 14  2  0  0  0  0
  2  3  2  0  0  0  0
  2  4  1  0  0  0  0
  3  9  1  0  0  0  0
  4 12  2  0  0  0  0
  5  7  2  0  0  0  0
  5 10  1  0  0  0  0
  6  9  2  0  0  0  0
  6 12  1  0  0  0  0
  7 19  1  0  0  0  0
  8 11  1  0  0  0  0
  8 19  2  0  0  0  0
  9 18  1  0  0  0  0
 10 11  2  0  0  0  0
 10 17  1  0  0  0  0
 11 20  1  0  0  0  0
 12 23  1  0  0  0  0
 14 15  1  0  0  0  0
 15 20  1  0  0  0  0
 15 21  2  0  0  0  0
 16 18  1  0  0  0  0
 16 20  1  0  0  0  0
 16 22  2  0  0  0  0
  2 24  1  0  0  0  0
  3 25  1  0  0  0  0
  4 26  1  0  0  0  0
  5 27  1  0  0  0  0
  6 28  1  0  0  0  0
  7 29  1  0  0  0  0
  8 30  1  0  0  0  0
 13 31  1  0  0  0  0
 13 32  1  0  0  0  0
 14 33  1  0  0  0  0
 17 34  1  0  0  0  0
 17 35  1  0  0  0  0
 17 36  1  0  0  0  0
 18 37  1  0  0  0  0
 18 38  1  0  0  0  0
M  END
> <compound>
DAR-DIA-076fb6ea-7

> <compound_smiles>
Cc1ccncc1N(C(=O)Cc2cccc(c2)Cl)C(=O)C=C=C

> <enantiomer_smiles>
Cc1ccncc1N(C(=O)Cc2cccc(c2)Cl)C(=O)C=C=C

> <scaffold>
chlorobenzene-linker

> <clash_score>
3.100106512419541

> <docking_score>
-7.159737586975098

> <overlap_score>
0.8659515976905823

> <MMFF_internal_energy>
85.56439055226596

> <docked_smiles>
Cc1ccncc1N(C(=O)Cc2cccc(c2)Cl)C(=O)C=C=C

$$$$
DAR-DIA-076fb6ea-16_1
  -OEChem-07262101023D

 33 34  0     0  0  0  0  0  0999 V2000
    7.1345   -2.9561   20.6799 C   0  0  0  0  0  0  0  0  0  0  0  0
   11.9780    0.4600   23.9150 C   0  0  0  0  0  0  0  0  0  0  0  0
   10.6560    0.0720   23.7350 C   0  0  0  0  0  0  0  0  0  0  0  0
   12.9840   -0.1200   23.1530 C   0  0  0  0  0  0  0  0  0  0  0  0
    5.1652    1.5458   18.6833 C   0  0  0  0  0  0  0  0  0  0  0  0
   11.3360   -1.5050   22.0650 C   0  0  0  0  0  0  0  0  0  0  0  0
    5.6256    1.1937   17.4248 C   0  0  0  0  0  0  0  0  0  0  0  0
    7.0786   -0.3598   18.2929 C   0  0  0  0  0  0  0  0  0  0  0  0
   10.3220   -0.8940   22.7910 C   0  0  0  0  0  0  0  0  0  0  0  0
    5.7108    0.8919   19.7824 C   0  0  0  0  0  0  0  0  0  0  0  0
    6.6864   -0.0804   19.5921 C   0  0  0  0  0  0  0  0  0  0  0  0
   12.6400   -1.1000   22.2390 C   0  0  0  0  0  0  0  0  0  0  0  0
    8.3880   -0.3240   21.3070 C   0  0  0  0  0  0  0  0  0  0  0  0
    5.2333    1.2521   21.1509 C   0  0  0  0  0  0  0  0  0  0  0  0
    8.8810   -1.1900   22.4510 C   0  0  0  0  0  0  0  0  0  0  0  0
    6.5716    0.2544   17.2004 N   0  0  0  0  0  0  0  0  0  0  0  0
    6.7408   -1.9625   21.1718 N   0  0  0  0  0  0  0  0  0  0  0  0
    7.2820   -0.7860   20.6970 N   0  0  0  0  0  0  0  0  0  0  0  0
    8.9170    0.7530   21.0260 O   0  0  0  0  0  0  0  0  0  0  0  0
    7.6384   -4.3269   20.0424 S   0  0  0  0  0  0  0  0  0  0  0  0
   13.8840   -1.8490   21.2740 Cl  0  0  0  0  0  0  0  0  0  0  0  0
   12.2249    1.2198   24.6546 H   0  0  0  0  0  0  0  0  0  0  0  0
    9.8763    0.5350   24.3454 H   0  0  0  0  0  0  0  0  0  0  0  0
   14.0077    0.1988   23.2842 H   0  0  0  0  0  0  0  0  0  0  0  0
    4.4029    2.3089   18.7976 H   0  0  0  0  0  0  0  0  0  0  0  0
   11.0892   -2.3009   21.3624 H   0  0  0  0  0  0  0  0  0  0  0  0
    5.2322    1.6742   16.5350 H   0  0  0  0  0  0  0  0  0  0  0  0
    7.8356   -1.1088   18.0798 H   0  0  0  0  0  0  0  0  0  0  0  0
    4.3808    0.6236   21.4334 H   0  0  0  0  0  0  0  0  0  0  0  0
    6.0277    1.1192   21.8956 H   0  0  0  0  0  0  0  0  0  0  0  0
    4.9236    2.3035   21.1985 H   0  0  0  0  0  0  0  0  0  0  0  0
    8.7762   -2.2412   22.1721 H   0  0  0  0  0  0  0  0  0  0  0  0
    8.2636   -1.0151   23.3353 H   0  0  0  0  0  0  0  0  0  0  0  0
  1 17  2  0  0  0  0
  1 20  2  0  0  0  0
  2  3  2  0  0  0  0
  2  4  1  0  0  0  0
  3  9  1  0  0  0  0
  4 12  2  0  0  0  0
  5  7  2  0  0  0  0
  5 10  1  0  0  0  0
  6  9  2  0  0  0  0
  6 12  1  0  0  0  0
  7 16  1  0  0  0  0
  8 11  1  0  0  0  0
  8 16  2  0  0  0  0
  9 15  1  0  0  0  0
 10 11  2  0  0  0  0
 10 14  1  0  0  0  0
 11 18  1  0  0  0  0
 12 21  1  0  0  0  0
 13 15  1  0  0  0  0
 13 18  1  0  0  0  0
 13 19  2  0  0  0  0
 17 18  1  0  0  0  0
  2 22  1  0  0  0  0
  3 23  1  0  0  0  0
  4 24  1  0  0  0  0
  5 25  1  0  0  0  0
  6 26  1  0  0  0  0
  7 27  1  0  0  0  0
  8 28  1  0  0  0  0
 14 29  1  0  0  0  0
 14 30  1  0  0  0  0
 14 31  1  0  0  0  0
 15 32  1  0  0  0  0
 15 33  1  0  0  0  0
M  END
> <compound>
DAR-DIA-076fb6ea-16

> <compound_smiles>
Cc1ccncc1N(C(=O)Cc2cccc(c2)Cl)N=C=S

> <enantiomer_smiles>
Cc1ccncc1N(C(=O)Cc2cccc(c2)Cl)N=C=S

> <scaffold>
chlorobenzene-linker

> <clash_score>
0.8301724702357717

> <docking_score>
-9.64300537109375

> <overlap_score>
0.8689706325531006

> <MMFF_internal_energy>
134.87211527050047

> <docked_smiles>
Cc1ccncc1N(C(=O)Cc2cccc(c2)Cl)N=C=S

$$$$
MAK-UNK-c749d764-6_4
  -OEChem-07262101023D

 56 58  0     1  0  0  0  0  0999 V2000
    3.4829    2.5990   20.0546 C   0  0  0  0  0  0  0  0  0  0  0  0
    4.1078    2.0778   21.1851 C   0  0  0  0  0  0  0  0  0  0  0  0
   11.9780    0.4600   23.9150 C   0  0  0  0  0  0  0  0  0  0  0  0
    3.8872    2.1924   18.7832 C   0  0  0  0  0  0  0  0  0  0  0  0
    5.1399    1.1477   21.0494 C   0  0  0  0  0  0  0  0  0  0  0  0
   10.6560    0.0720   23.7350 C   0  0  0  0  0  0  0  0  0  0  0  0
   12.9840   -0.1200   23.1530 C   0  0  0  0  0  0  0  0  0  0  0  0
   11.3360   -1.5050   22.0650 C   0  0  0  0  0  0  0  0  0  0  0  0
    5.3690    0.8152   17.3870 C   0  0  0  0  0  0  0  0  0  0  0  0
    6.9479   -0.5684   18.3183 C   0  0  0  0  0  0  0  0  0  0  0  0
    4.9246    1.2569   18.6348 C   0  0  0  0  0  0  0  0  0  0  0  0
    5.5597    0.7270   19.7769 C   0  0  0  0  0  0  0  0  0  0  0  0
   10.3220   -0.8940   22.7910 C   0  0  0  0  0  0  0  0  0  0  0  0
    6.5912   -0.2039   19.6077 C   0  0  0  0  0  0  0  0  0  0  0  0
   12.6400   -1.1000   22.2390 C   0  0  0  0  0  0  0  0  0  0  0  0
    8.3880   -0.3240   21.3070 C   0  0  0  0  0  0  0  0  0  0  0  0
    8.5815   -1.6254   24.9777 C   0  0  0  0  0  0  0  0  0  0  0  0
    5.7496   -5.4456   22.7948 C   0  0  0  0  0  0  0  0  0  0  0  0
    5.4493   -3.9701   22.9962 C   0  0  0  0  0  0  0  0  0  0  0  0
    6.5671   -1.7855   23.4614 C   0  0  0  0  0  0  0  0  0  0  0  0
    6.6881   -5.6649   21.6169 C   0  0  0  0  0  0  0  0  0  0  0  0
    8.8810   -1.1900   22.4510 C   0  0  2  0  0  0  0  0  0  0  0  0
    7.9194   -1.0821   23.6998 C   0  0  2  0  0  0  0  0  0  0  0  0
    6.3631   -0.0826   17.2027 N   0  0  0  0  0  0  0  0  0  0  0  0
    7.2820   -0.7860   20.6970 N   0  0  0  0  0  0  0  0  0  0  0  0
    6.7166   -3.2518   23.3039 N   0  3  0  0  0  0  0  0  0  0  0  0
    8.9170    0.7530   21.0260 O   0  0  0  0  0  0  0  0  0  0  0  0
    6.9441   -7.0564   21.4857 O   0  0  0  0  0  0  0  0  0  0  0  0
   13.8840   -1.8490   21.2740 Cl  0  0  0  0  0  0  0  0  0  0  0  0
    2.6801    3.3223   20.1631 H   0  0  0  0  0  0  0  0  0  0  0  0
    3.7912    2.3956   22.1744 H   0  0  0  0  0  0  0  0  0  0  0  0
   12.2249    1.2198   24.6546 H   0  0  0  0  0  0  0  0  0  0  0  0
    3.3884    2.6092   17.9112 H   0  0  0  0  0  0  0  0  0  0  0  0
    5.6035    0.7643   21.9554 H   0  0  0  0  0  0  0  0  0  0  0  0
    9.8763    0.5350   24.3454 H   0  0  0  0  0  0  0  0  0  0  0  0
   14.0077    0.1988   23.2842 H   0  0  0  0  0  0  0  0  0  0  0  0
   11.0892   -2.3009   21.3624 H   0  0  0  0  0  0  0  0  0  0  0  0
    4.9229    1.1830   16.4670 H   0  0  0  0  0  0  0  0  0  0  0  0
    7.7413   -1.2873   18.1342 H   0  0  0  0  0  0  0  0  0  0  0  0
    8.8480   -2.6812   24.8598 H   0  0  0  0  0  0  0  0  0  0  0  0
    9.5063   -1.0860   25.2058 H   0  0  0  0  0  0  0  0  0  0  0  0
    7.9204   -1.5358   25.8458 H   0  0  0  0  0  0  0  0  0  0  0  0
    4.8215   -6.0075   22.6290 H   0  0  0  0  0  0  0  0  0  0  0  0
    6.1978   -5.8737   23.7005 H   0  0  0  0  0  0  0  0  0  0  0  0
    4.7751   -3.8005   23.8409 H   0  0  0  0  0  0  0  0  0  0  0  0
    5.0342   -3.5096   22.0949 H   0  0  0  0  0  0  0  0  0  0  0  0
    5.8690   -1.6315   24.2888 H   0  0  0  0  0  0  0  0  0  0  0  0
    6.0919   -1.4227   22.5440 H   0  0  0  0  0  0  0  0  0  0  0  0
    7.6404   -5.1489   21.7751 H   0  0  0  0  0  0  0  0  0  0  0  0
    6.2376   -5.3046   20.6865 H   0  0  0  0  0  0  0  0  0  0  0  0
    8.8227   -2.2553   22.1299 H   0  0  0  0  0  0  0  0  0  0  0  0
    7.6814   -0.0268   23.8899 H   0  0  0  0  0  0  0  0  0  0  0  0
    6.8771   -1.6492   21.0526 H   0  0  0  0  0  0  0  0  0  0  0  0
    7.1244   -3.6479   24.1637 H   0  0  0  0  0  0  0  0  0  0  0  0
    7.4006   -3.4475   22.5580 H   0  0  0  0  0  0  0  0  0  0  0  0
    7.5431   -7.1612   20.7288 H   0  0  0  0  0  0  0  0  0  0  0  0
  1  2  1  0  0  0  0
  1  4  2  0  0  0  0
  2  5  2  0  0  0  0
  3  6  2  0  0  0  0
  3  7  1  0  0  0  0
  4 11  1  0  0  0  0
  5 12  1  0  0  0  0
  6 13  1  0  0  0  0
  7 15  2  0  0  0  0
  8 13  2  0  0  0  0
  8 15  1  0  0  0  0
  9 11  2  0  0  0  0
  9 24  1  0  0  0  0
 10 14  1  0  0  0  0
 10 24  2  0  0  0  0
 11 12  1  0  0  0  0
 12 14  2  0  0  0  0
 13 22  1  0  0  0  0
 14 25  1  0  0  0  0
 15 29  1  0  0  0  0
 16 22  1  6  0  0  0
 16 25  1  0  0  0  0
 16 27  2  0  0  0  0
 17 23  1  6  0  0  0
 18 19  1  0  0  0  0
 18 21  1  0  0  0  0
 19 26  1  0  0  0  0
 20 23  1  0  0  0  0
 20 26  1  0  0  0  0
 21 28  1  0  0  0  0
 22 23  1  0  0  0  0
  1 30  1  0  0  0  0
  2 31  1  0  0  0  0
  3 32  1  0  0  0  0
  4 33  1  0  0  0  0
  5 34  1  0  0  0  0
  6 35  1  0  0  0  0
  7 36  1  0  0  0  0
  8 37  1  0  0  0  0
  9 38  1  0  0  0  0
 10 39  1  0  0  0  0
 17 40  1  0  0  0  0
 17 41  1  0  0  0  0
 17 42  1  0  0  0  0
 18 43  1  0  0  0  0
 18 44  1  0  0  0  0
 19 45  1  0  0  0  0
 19 46  1  0  0  0  0
 20 47  1  0  0  0  0
 20 48  1  0  0  0  0
 21 49  1  0  0  0  0
 21 50  1  0  0  0  0
 22 51  1  0  0  0  0
 23 52  1  0  0  0  0
 25 53  1  0  0  0  0
 26 54  1  0  0  0  0
 26 55  1  0  0  0  0
 28 56  1  0  0  0  0
M  CHG  1  26   1
M  END
> <compound>
MAK-UNK-c749d764-6

> <compound_smiles>
CC(CNCCCO)C(c1cccc(c1)Cl)C(=O)Nc2cncc3c2cccc3

> <enantiomer_smiles>
C[C@H](CNCCCO)[C@H](c1cccc(c1)Cl)C(=O)Nc2cncc3c2cccc3

> <scaffold>
chlorobenzene-linker

> <clash_score>
0

> <docking_score>
-9.988710403442383

> <overlap_score>
0.9808577299118042

> <MMFF_internal_energy>
145.6415923902243

> <docked_smiles>
C[C@H](C[NH2+]CCCO)[C@H](c1cccc(c1)Cl)C(=O)Nc2cncc3c2cccc3

$$$$
DAR-DIA-076fb6ea-15_1
  -OEChem-07262101023D

 36 38  0     0  0  0  0  0  0999 V2000
    6.2238   -2.6835   20.4667 C   0  0  0  0  0  0  0  0  0  0  0  0
    3.6794    2.7922   20.0727 C   0  0  0  0  0  0  0  0  0  0  0  0
    4.2250    2.1859   21.2018 C   0  0  0  0  0  0  0  0  0  0  0  0
   11.9780    0.4600   23.9150 C   0  0  0  0  0  0  0  0  0  0  0  0
    4.1266    2.4321   18.8017 C   0  0  0  0  0  0  0  0  0  0  0  0
    5.2204    1.2168   21.0651 C   0  0  0  0  0  0  0  0  0  0  0  0
   10.6560    0.0720   23.7350 C   0  0  0  0  0  0  0  0  0  0  0  0
   12.9840   -0.1200   23.1530 C   0  0  0  0  0  0  0  0  0  0  0  0
   11.3360   -1.5050   22.0650 C   0  0  0  0  0  0  0  0  0  0  0  0
    5.6122    1.0599   17.4048 C   0  0  0  0  0  0  0  0  0  0  0  0
    7.0814   -0.4413   18.3338 C   0  0  0  0  0  0  0  0  0  0  0  0
    5.1276    1.4581   18.6522 C   0  0  0  0  0  0  0  0  0  0  0  0
    5.6826    0.8419   19.7929 C   0  0  0  0  0  0  0  0  0  0  0  0
   10.3220   -0.8940   22.7910 C   0  0  0  0  0  0  0  0  0  0  0  0
    6.6790   -0.1262   19.6227 C   0  0  0  0  0  0  0  0  0  0  0  0
   12.6400   -1.1000   22.2390 C   0  0  0  0  0  0  0  0  0  0  0  0
    8.3880   -0.3240   21.3070 C   0  0  0  0  0  0  0  0  0  0  0  0
    8.8810   -1.1900   22.4510 C   0  0  0  0  0  0  0  0  0  0  0  0
    6.5735    0.1272   17.2195 N   0  0  0  0  0  0  0  0  0  0  0  0
    6.7846   -1.9829   21.2274 N   0  0  0  0  0  0  0  0  0  0  0  0
    7.2820   -0.7860   20.6970 N   0  0  0  0  0  0  0  0  0  0  0  0
    8.9170    0.7530   21.0260 O   0  0  0  0  0  0  0  0  0  0  0  0
    5.4566   -3.6640   19.4719 S   0  0  0  0  0  0  0  0  0  0  0  0
   13.8840   -1.8490   21.2740 Cl  0  0  0  0  0  0  0  0  0  0  0  0
    2.9050    3.5458   20.1820 H   0  0  0  0  0  0  0  0  0  0  0  0
    3.8751    2.4677   22.1908 H   0  0  0  0  0  0  0  0  0  0  0  0
   12.2249    1.2198   24.6546 H   0  0  0  0  0  0  0  0  0  0  0  0
    3.6897    2.9154   17.9308 H   0  0  0  0  0  0  0  0  0  0  0  0
    5.6220    0.7668   21.9701 H   0  0  0  0  0  0  0  0  0  0  0  0
    9.8763    0.5350   24.3454 H   0  0  0  0  0  0  0  0  0  0  0  0
   14.0077    0.1988   23.2842 H   0  0  0  0  0  0  0  0  0  0  0  0
   11.0892   -2.3009   21.3624 H   0  0  0  0  0  0  0  0  0  0  0  0
    5.2281    1.4941   16.4858 H   0  0  0  0  0  0  0  0  0  0  0  0
    7.8503   -1.1860   18.1488 H   0  0  0  0  0  0  0  0  0  0  0  0
    8.7836   -2.2408   22.1749 H   0  0  0  0  0  0  0  0  0  0  0  0
    8.2710   -1.0146   23.3381 H   0  0  0  0  0  0  0  0  0  0  0  0
  1 20  2  0  0  0  0
  1 23  2  0  0  0  0
  2  3  1  0  0  0  0
  2  5  2  0  0  0  0
  3  6  2  0  0  0  0
  4  7  2  0  0  0  0
  4  8  1  0  0  0  0
  5 12  1  0  0  0  0
  6 13  1  0  0  0  0
  7 14  1  0  0  0  0
  8 16  2  0  0  0  0
  9 14  2  0  0  0  0
  9 16  1  0  0  0  0
 10 12  2  0  0  0  0
 10 19  1  0  0  0  0
 11 15  1  0  0  0  0
 11 19  2  0  0  0  0
 12 13  1  0  0  0  0
 13 15  2  0  0  0  0
 14 18  1  0  0  0  0
 15 21  1  0  0  0  0
 16 24  1  0  0  0  0
 17 18  1  0  0  0  0
 17 21  1  0  0  0  0
 17 22  2  0  0  0  0
 20 21  1  0  0  0  0
  2 25  1  0  0  0  0
  3 26  1  0  0  0  0
  4 27  1  0  0  0  0
  5 28  1  0  0  0  0
  6 29  1  0  0  0  0
  7 30  1  0  0  0  0
  8 31  1  0  0  0  0
  9 32  1  0  0  0  0
 10 33  1  0  0  0  0
 11 34  1  0  0  0  0
 18 35  1  0  0  0  0
 18 36  1  0  0  0  0
M  END
> <compound>
DAR-DIA-076fb6ea-15

> <compound_smiles>
c1ccc2c(c1)cncc2N(C(=O)Cc3cccc(c3)Cl)N=C=S

> <enantiomer_smiles>
c1ccc2c(c1)cncc2N(C(=O)Cc3cccc(c3)Cl)N=C=S

> <scaffold>
chlorobenzene-linker

> <clash_score>
0

> <docking_score>
-10.98669147491455

> <overlap_score>
0.9849069714546204

> <MMFF_internal_energy>
145.58366595832595

> <docked_smiles>
c1ccc2c(c1)cncc2N(C(=O)Cc3cccc(c3)Cl)N=C=S

$$$$
MAK-UNK-c749d764-6_3
  -OEChem-07262101023D

 56 58  0     1  0  0  0  0  0999 V2000
    3.4829    2.5990   20.0546 C   0  0  0  0  0  0  0  0  0  0  0  0
    4.1078    2.0778   21.1851 C   0  0  0  0  0  0  0  0  0  0  0  0
   11.9780    0.4600   23.9150 C   0  0  0  0  0  0  0  0  0  0  0  0
    3.8872    2.1924   18.7832 C   0  0  0  0  0  0  0  0  0  0  0  0
    5.1399    1.1477   21.0494 C   0  0  0  0  0  0  0  0  0  0  0  0
   10.6560    0.0720   23.7350 C   0  0  0  0  0  0  0  0  0  0  0  0
   12.9840   -0.1200   23.1530 C   0  0  0  0  0  0  0  0  0  0  0  0
   11.3360   -1.5050   22.0650 C   0  0  0  0  0  0  0  0  0  0  0  0
    5.3690    0.8152   17.3870 C   0  0  0  0  0  0  0  0  0  0  0  0
    6.9479   -0.5684   18.3184 C   0  0  0  0  0  0  0  0  0  0  0  0
    4.9246    1.2569   18.6348 C   0  0  0  0  0  0  0  0  0  0  0  0
    5.5597    0.7270   19.7769 C   0  0  0  0  0  0  0  0  0  0  0  0
   10.3220   -0.8940   22.7910 C   0  0  0  0  0  0  0  0  0  0  0  0
    6.5912   -0.2039   19.6077 C   0  0  0  0  0  0  0  0  0  0  0  0
   12.6400   -1.1000   22.2390 C   0  0  0  0  0  0  0  0  0  0  0  0
    8.3880   -0.3240   21.3070 C   0  0  0  0  0  0  0  0  0  0  0  0
    6.5796   -1.7853   23.4224 C   0  0  0  0  0  0  0  0  0  0  0  0
    9.4652   -5.1406   26.0885 C   0  0  0  0  0  0  0  0  0  0  0  0
    9.3080   -3.6378   26.2450 C   0  0  0  0  0  0  0  0  0  0  0  0
    8.5303   -1.6074   25.0155 C   0  0  0  0  0  0  0  0  0  0  0  0
    8.1287   -5.8119   25.8074 C   0  0  0  0  0  0  0  0  0  0  0  0
    8.8810   -1.1900   22.4510 C   0  0  2  0  0  0  0  0  0  0  0  0
    7.9194   -1.0821   23.6998 C   0  0  1  0  0  0  0  0  0  0  0  0
    6.3631   -0.0826   17.2027 N   0  0  0  0  0  0  0  0  0  0  0  0
    7.2820   -0.7860   20.6970 N   0  0  0  0  0  0  0  0  0  0  0  0
    8.7880   -3.0665   24.9722 N   0  3  0  0  0  0  0  0  0  0  0  0
    8.9170    0.7530   21.0260 O   0  0  0  0  0  0  0  0  0  0  0  0
    8.3385   -7.2091   25.6567 O   0  0  0  0  0  0  0  0  0  0  0  0
   13.8840   -1.8490   21.2740 Cl  0  0  0  0  0  0  0  0  0  0  0  0
    2.6801    3.3223   20.1631 H   0  0  0  0  0  0  0  0  0  0  0  0
    3.7912    2.3956   22.1744 H   0  0  0  0  0  0  0  0  0  0  0  0
   12.2249    1.2198   24.6546 H   0  0  0  0  0  0  0  0  0  0  0  0
    3.3884    2.6092   17.9112 H   0  0  0  0  0  0  0  0  0  0  0  0
    5.6035    0.7643   21.9554 H   0  0  0  0  0  0  0  0  0  0  0  0
    9.8763    0.5350   24.3454 H   0  0  0  0  0  0  0  0  0  0  0  0
   14.0077    0.1988   23.2842 H   0  0  0  0  0  0  0  0  0  0  0  0
   11.0892   -2.3009   21.3624 H   0  0  0  0  0  0  0  0  0  0  0  0
    4.9229    1.1830   16.4670 H   0  0  0  0  0  0  0  0  0  0  0  0
    7.7413   -1.2873   18.1342 H   0  0  0  0  0  0  0  0  0  0  0  0
    6.7318   -2.8538   23.2353 H   0  0  0  0  0  0  0  0  0  0  0  0
    5.9036   -1.7042   24.2796 H   0  0  0  0  0  0  0  0  0  0  0  0
    6.0695   -1.3566   22.5537 H   0  0  0  0  0  0  0  0  0  0  0  0
    9.9074   -5.5769   26.9934 H   0  0  0  0  0  0  0  0  0  0  0  0
   10.1653   -5.3712   25.2755 H   0  0  0  0  0  0  0  0  0  0  0  0
   10.2631   -3.1444   26.4475 H   0  0  0  0  0  0  0  0  0  0  0  0
    8.5869   -3.3802   27.0264 H   0  0  0  0  0  0  0  0  0  0  0  0
    9.4863   -1.1299   25.2475 H   0  0  0  0  0  0  0  0  0  0  0  0
    7.8526   -1.4378   25.8587 H   0  0  0  0  0  0  0  0  0  0  0  0
    7.6838   -5.4250   24.8851 H   0  0  0  0  0  0  0  0  0  0  0  0
    7.4299   -5.6521   26.6347 H   0  0  0  0  0  0  0  0  0  0  0  0
    8.8227   -2.2553   22.1299 H   0  0  0  0  0  0  0  0  0  0  0  0
    7.6908   -0.0225   23.8771 H   0  0  0  0  0  0  0  0  0  0  0  0
    6.8771   -1.6492   21.0526 H   0  0  0  0  0  0  0  0  0  0  0  0
    9.4572   -3.2728   24.2158 H   0  0  0  0  0  0  0  0  0  0  0  0
    7.9199   -3.5594   24.7153 H   0  0  0  0  0  0  0  0  0  0  0  0
    7.4701   -7.6056   25.4791 H   0  0  0  0  0  0  0  0  0  0  0  0
  1  2  1  0  0  0  0
  1  4  2  0  0  0  0
  2  5  2  0  0  0  0
  3  6  2  0  0  0  0
  3  7  1  0  0  0  0
  4 11  1  0  0  0  0
  5 12  1  0  0  0  0
  6 13  1  0  0  0  0
  7 15  2  0  0  0  0
  8 13  2  0  0  0  0
  8 15  1  0  0  0  0
  9 11  2  0  0  0  0
  9 24  1  0  0  0  0
 10 14  1  0  0  0  0
 10 24  2  0  0  0  0
 11 12  1  0  0  0  0
 12 14  2  0  0  0  0
 13 22  1  0  0  0  0
 14 25  1  0  0  0  0
 15 29  1  0  0  0  0
 16 22  1  6  0  0  0
 16 25  1  0  0  0  0
 16 27  2  0  0  0  0
 17 23  1  1  0  0  0
 18 19  1  0  0  0  0
 18 21  1  0  0  0  0
 19 26  1  0  0  0  0
 20 23  1  0  0  0  0
 20 26  1  0  0  0  0
 21 28  1  0  0  0  0
 22 23  1  0  0  0  0
  1 30  1  0  0  0  0
  2 31  1  0  0  0  0
  3 32  1  0  0  0  0
  4 33  1  0  0  0  0
  5 34  1  0  0  0  0
  6 35  1  0  0  0  0
  7 36  1  0  0  0  0
  8 37  1  0  0  0  0
  9 38  1  0  0  0  0
 10 39  1  0  0  0  0
 17 40  1  0  0  0  0
 17 41  1  0  0  0  0
 17 42  1  0  0  0  0
 18 43  1  0  0  0  0
 18 44  1  0  0  0  0
 19 45  1  0  0  0  0
 19 46  1  0  0  0  0
 20 47  1  0  0  0  0
 20 48  1  0  0  0  0
 21 49  1  0  0  0  0
 21 50  1  0  0  0  0
 22 51  1  0  0  0  0
 23 52  1  0  0  0  0
 25 53  1  0  0  0  0
 26 54  1  0  0  0  0
 26 55  1  0  0  0  0
 28 56  1  0  0  0  0
M  CHG  1  26   1
M  END
> <compound>
MAK-UNK-c749d764-6

> <compound_smiles>
CC(CNCCCO)C(c1cccc(c1)Cl)C(=O)Nc2cncc3c2cccc3

> <enantiomer_smiles>
C[C@@H](CNCCCO)[C@H](c1cccc(c1)Cl)C(=O)Nc2cncc3c2cccc3

> <scaffold>
chlorobenzene-linker

> <clash_score>
0

> <docking_score>
-11.648707389831543

> <overlap_score>
0.9808102250099182

> <MMFF_internal_energy>
132.19058591537475

> <docked_smiles>
C[C@@H](C[NH2+]CCCO)[C@H](c1cccc(c1)Cl)C(=O)Nc2cncc3c2cccc3

$$$$
JOH-UNI-a38a7bdd-9_1
  -OEChem-07262101023D

 41 43  0     1  0  0  0  0  0999 V2000
   11.9780    0.4600   23.9150 C   0  0  0  0  0  0  0  0  0  0  0  0
   10.6560    0.0720   23.7350 C   0  0  0  0  0  0  0  0  0  0  0  0
   12.9840   -0.1200   23.1530 C   0  0  0  0  0  0  0  0  0  0  0  0
    5.1343    1.7026   18.8987 C   0  0  0  0  0  0  0  0  0  0  0  0
   11.3360   -1.5050   22.0650 C   0  0  0  0  0  0  0  0  0  0  0  0
    5.5896    1.4647   17.6119 C   0  0  0  0  0  0  0  0  0  0  0  0
    7.0577   -0.1484   18.3336 C   0  0  0  0  0  0  0  0  0  0  0  0
   10.3220   -0.8940   22.7910 C   0  0  0  0  0  0  0  0  0  0  0  0
    5.6907    0.9593   19.9338 C   0  0  0  0  0  0  0  0  0  0  0  0
    6.6714    0.0141   19.6543 C   0  0  0  0  0  0  0  0  0  0  0  0
   12.6400   -1.1000   22.2390 C   0  0  0  0  0  0  0  0  0  0  0  0
    8.3880   -0.3240   21.3070 C   0  0  0  0  0  0  0  0  0  0  0  0
    5.2310   -3.0973   22.9600 C   0  0  0  0  0  0  0  0  0  0  0  0
    5.6575   -1.9119   22.1335 C   0  0  2  0  0  0  0  0  0  0  0  0
    4.2806   -2.4827   21.9784 C   0  0  2  0  0  0  0  0  0  0  0  0
    5.2189    1.1956   21.3310 C   0  0  0  0  0  0  0  0  0  0  0  0
    8.8810   -1.1900   22.4510 C   0  0  0  0  0  0  0  0  0  0  0  0
    6.6710   -2.0764   21.0526 C   0  0  0  0  0  0  0  0  0  0  0  0
    6.5404    0.5551   17.3015 N   0  0  0  0  0  0  0  0  0  0  0  0
    7.2820   -0.7860   20.6970 N   0  0  0  0  0  0  0  0  0  0  0  0
    8.9170    0.7530   21.0260 O   0  0  0  0  0  0  0  0  0  0  0  0
    3.9933   -3.2023   20.8321 F   0  0  0  0  0  0  0  0  0  0  0  0
   13.8840   -1.8490   21.2740 Cl  0  0  0  0  0  0  0  0  0  0  0  0
   12.2249    1.2198   24.6546 H   0  0  0  0  0  0  0  0  0  0  0  0
    9.8763    0.5350   24.3454 H   0  0  0  0  0  0  0  0  0  0  0  0
   14.0077    0.1988   23.2842 H   0  0  0  0  0  0  0  0  0  0  0  0
    4.3678    2.4475   19.0832 H   0  0  0  0  0  0  0  0  0  0  0  0
   11.0892   -2.3009   21.3624 H   0  0  0  0  0  0  0  0  0  0  0  0
    5.1879    2.0181   16.7695 H   0  0  0  0  0  0  0  0  0  0  0  0
    7.8183   -0.8707   18.0520 H   0  0  0  0  0  0  0  0  0  0  0  0
    5.6411   -4.0705   22.7213 H   0  0  0  0  0  0  0  0  0  0  0  0
    5.0432   -2.9337   24.0139 H   0  0  0  0  0  0  0  0  0  0  0  0
    5.7511   -0.9568   22.6360 H   0  0  0  0  0  0  0  0  0  0  0  0
    3.4195   -1.9341   22.3255 H   0  0  0  0  0  0  0  0  0  0  0  0
    4.3723    0.5389   21.5622 H   0  0  0  0  0  0  0  0  0  0  0  0
    6.0185    1.0039   22.0570 H   0  0  0  0  0  0  0  0  0  0  0  0
    4.9027    2.2367   21.4717 H   0  0  0  0  0  0  0  0  0  0  0  0
    8.7925   -2.2408   22.1686 H   0  0  0  0  0  0  0  0  0  0  0  0
    8.2587   -1.0122   23.3300 H   0  0  0  0  0  0  0  0  0  0  0  0
    7.4576   -2.7626   21.3995 H   0  0  0  0  0  0  0  0  0  0  0  0
    6.1816   -2.4993   20.1629 H   0  0  0  0  0  0  0  0  0  0  0  0
  1  2  2  0  0  0  0
  1  3  1  0  0  0  0
  2  8  1  0  0  0  0
  3 11  2  0  0  0  0
  4  6  2  0  0  0  0
  4  9  1  0  0  0  0
  5  8  2  0  0  0  0
  5 11  1  0  0  0  0
  6 19  1  0  0  0  0
  7 10  1  0  0  0  0
  7 19  2  0  0  0  0
  8 17  1  0  0  0  0
  9 10  2  0  0  0  0
  9 16  1  0  0  0  0
 10 20  1  0  0  0  0
 11 23  1  0  0  0  0
 12 17  1  0  0  0  0
 12 20  1  0  0  0  0
 12 21  2  0  0  0  0
 13 14  1  0  0  0  0
 13 15  1  0  0  0  0
 14 15  1  0  0  0  0
 14 18  1  1  0  0  0
 15 22  1  1  0  0  0
 18 20  1  0  0  0  0
  1 24  1  0  0  0  0
  2 25  1  0  0  0  0
  3 26  1  0  0  0  0
  4 27  1  0  0  0  0
  5 28  1  0  0  0  0
  6 29  1  0  0  0  0
  7 30  1  0  0  0  0
 13 31  1  0  0  0  0
 13 32  1  0  0  0  0
 14 33  1  0  0  0  0
 15 34  1  0  0  0  0
 16 35  1  0  0  0  0
 16 36  1  0  0  0  0
 16 37  1  0  0  0  0
 17 38  1  0  0  0  0
 17 39  1  0  0  0  0
 18 40  1  0  0  0  0
 18 41  1  0  0  0  0
M  END
> <compound>
JOH-UNI-a38a7bdd-9

> <compound_smiles>
Cc1ccncc1N(CC2CC2F)C(=O)Cc3cccc(c3)Cl

> <enantiomer_smiles>
Cc1ccncc1N(C[C@@H]2C[C@@H]2F)C(=O)Cc3cccc(c3)Cl

> <scaffold>
chlorobenzene-linker

> <clash_score>
4.215597151937947

> <docking_score>
-7.114605903625488

> <overlap_score>
0.8624778389930725

> <MMFF_internal_energy>
100.3315810554016

> <docked_smiles>
Cc1ccncc1N(C[C@@H]2C[C@@H]2F)C(=O)Cc3cccc(c3)Cl

$$$$
JOH-UNI-a38a7bdd-8_4
  -OEChem-07262101023D

 44 46  0     1  0  0  0  0  0999 V2000
   11.9780    0.4600   23.9150 C   0  0  0  0  0  0  0  0  0  0  0  0
   10.6560    0.0720   23.7350 C   0  0  0  0  0  0  0  0  0  0  0  0
   12.9840   -0.1200   23.1530 C   0  0  0  0  0  0  0  0  0  0  0  0
    6.2597    0.8796   17.4828 C   0  0  0  0  0  0  0  0  0  0  0  0
   11.3360   -1.5050   22.0650 C   0  0  0  0  0  0  0  0  0  0  0  0
    5.2772    1.7131   17.9927 C   0  0  0  0  0  0  0  0  0  0  0  0
    5.6067    0.9411   20.1313 C   0  0  0  0  0  0  0  0  0  0  0  0
   10.3220   -0.8940   22.7910 C   0  0  0  0  0  0  0  0  0  0  0  0
    6.9312    0.0462   18.3704 C   0  0  0  0  0  0  0  0  0  0  0  0
    6.6044    0.0714   19.7216 C   0  0  0  0  0  0  0  0  0  0  0  0
   12.6400   -1.1000   22.2390 C   0  0  0  0  0  0  0  0  0  0  0  0
    8.3880   -0.3240   21.3070 C   0  0  0  0  0  0  0  0  0  0  0  0
    5.1911   -3.0590   22.9083 C   0  0  0  0  0  0  0  0  0  0  0  0
    6.2372   -2.0760   22.4512 C   0  0  1  0  0  0  0  0  0  0  0  0
    6.6134   -3.2043   23.3832 C   0  0  1  0  0  0  0  0  0  0  0  0
    7.9946   -0.8630   17.8477 C   0  0  0  0  0  0  0  0  0  0  0  0
    8.8810   -1.1900   22.4510 C   0  0  0  0  0  0  0  0  0  0  0  0
    6.6647   -2.0419   21.0243 C   0  0  0  0  0  0  0  0  0  0  0  0
    7.4387   -4.3636   22.9423 C   0  0  0  0  0  0  0  0  0  0  0  0
    4.9322    1.7655   19.2988 N   0  0  0  0  0  0  0  0  0  0  0  0
    7.2820   -0.7860   20.6970 N   0  0  0  0  0  0  0  0  0  0  0  0
    8.9170    0.7530   21.0260 O   0  0  0  0  0  0  0  0  0  0  0  0
    7.2062   -5.4585   23.7058 F   0  0  0  0  0  0  0  0  0  0  0  0
    7.1730   -4.7031   21.6578 F   0  0  0  0  0  0  0  0  0  0  0  0
    8.7632   -4.0897   23.0219 F   0  0  0  0  0  0  0  0  0  0  0  0
   13.8840   -1.8490   21.2740 Cl  0  0  0  0  0  0  0  0  0  0  0  0
   12.2249    1.2198   24.6546 H   0  0  0  0  0  0  0  0  0  0  0  0
    9.8763    0.5350   24.3454 H   0  0  0  0  0  0  0  0  0  0  0  0
   14.0077    0.1988   23.2842 H   0  0  0  0  0  0  0  0  0  0  0  0
    6.4905    0.8840   16.4230 H   0  0  0  0  0  0  0  0  0  0  0  0
   11.0892   -2.3009   21.3624 H   0  0  0  0  0  0  0  0  0  0  0  0
    4.7240    2.3822   17.3420 H   0  0  0  0  0  0  0  0  0  0  0  0
    5.3070    1.0069   21.1731 H   0  0  0  0  0  0  0  0  0  0  0  0
    4.4551   -2.7128   23.6242 H   0  0  0  0  0  0  0  0  0  0  0  0
    4.8085   -3.7769   22.1929 H   0  0  0  0  0  0  0  0  0  0  0  0
    6.2097   -1.0796   22.8784 H   0  0  0  0  0  0  0  0  0  0  0  0
    6.8289   -2.9354   24.4115 H   0  0  0  0  0  0  0  0  0  0  0  0
    8.9687   -0.3609   17.8709 H   0  0  0  0  0  0  0  0  0  0  0  0
    8.0600   -1.7808   18.4449 H   0  0  0  0  0  0  0  0  0  0  0  0
    7.7829   -1.1681   16.8154 H   0  0  0  0  0  0  0  0  0  0  0  0
    8.8006   -2.2403   22.1717 H   0  0  0  0  0  0  0  0  0  0  0  0
    8.2668   -1.0117   23.3332 H   0  0  0  0  0  0  0  0  0  0  0  0
    7.3860   -2.8532   20.8452 H   0  0  0  0  0  0  0  0  0  0  0  0
    5.7838   -2.1867   20.3811 H   0  0  0  0  0  0  0  0  0  0  0  0
  1  2  2  0  0  0  0
  1  3  1  0  0  0  0
  2  8  1  0  0  0  0
  3 11  2  0  0  0  0
  4  6  2  0  0  0  0
  4  9  1  0  0  0  0
  5  8  2  0  0  0  0
  5 11  1  0  0  0  0
  6 20  1  0  0  0  0
  7 10  1  0  0  0  0
  7 20  2  0  0  0  0
  8 17  1  0  0  0  0
  9 10  2  0  0  0  0
  9 16  1  0  0  0  0
 10 21  1  0  0  0  0
 11 26  1  0  0  0  0
 12 17  1  0  0  0  0
 12 21  1  0  0  0  0
 12 22  2  0  0  0  0
 13 14  1  0  0  0  0
 13 15  1  0  0  0  0
 14 15  1  0  0  0  0
 14 18  1  6  0  0  0
 15 19  1  6  0  0  0
 18 21  1  0  0  0  0
 19 23  1  0  0  0  0
 19 24  1  0  0  0  0
 19 25  1  0  0  0  0
  1 27  1  0  0  0  0
  2 28  1  0  0  0  0
  3 29  1  0  0  0  0
  4 30  1  0  0  0  0
  5 31  1  0  0  0  0
  6 32  1  0  0  0  0
  7 33  1  0  0  0  0
 13 34  1  0  0  0  0
 13 35  1  0  0  0  0
 14 36  1  0  0  0  0
 15 37  1  0  0  0  0
 16 38  1  0  0  0  0
 16 39  1  0  0  0  0
 16 40  1  0  0  0  0
 17 41  1  0  0  0  0
 17 42  1  0  0  0  0
 18 43  1  0  0  0  0
 18 44  1  0  0  0  0
M  END
> <compound>
JOH-UNI-a38a7bdd-8

> <compound_smiles>
Cc1ccncc1N(CC2CC2C(F)(F)F)C(=O)Cc3cccc(c3)Cl

> <enantiomer_smiles>
Cc1ccncc1N(C[C@H]2C[C@H]2C(F)(F)F)C(=O)Cc3cccc(c3)Cl

> <scaffold>
chlorobenzene-linker

> <clash_score>
0.769615606767447

> <docking_score>
-4.535658836364746

> <overlap_score>
0.8387032747268677

> <MMFF_internal_energy>
131.8179426253707

> <docked_smiles>
Cc1ccncc1N(C[C@H]2C[C@H]2C(F)(F)F)C(=O)Cc3cccc(c3)Cl

$$$$
JOH-UNI-a38a7bdd-1_1
  -OEChem-07262101023D

 39 41  0     0  0  0  0  0  0999 V2000
    3.0747    1.5476   22.4364 C   0  0  0  0  0  0  0  0  0  0  0  0
    3.9728    0.6573   23.0204 C   0  0  0  0  0  0  0  0  0  0  0  0
   11.9780    0.4600   23.9150 C   0  0  0  0  0  0  0  0  0  0  0  0
    3.2570    1.9578   21.1159 C   0  0  0  0  0  0  0  0  0  0  0  0
    5.0572    0.1732   22.2866 C   0  0  0  0  0  0  0  0  0  0  0  0
   10.6560    0.0720   23.7350 C   0  0  0  0  0  0  0  0  0  0  0  0
   12.9840   -0.1200   23.1530 C   0  0  0  0  0  0  0  0  0  0  0  0
   11.3360   -1.5050   22.0650 C   0  0  0  0  0  0  0  0  0  0  0  0
    4.5748    1.8543   19.0436 C   0  0  0  0  0  0  0  0  0  0  0  0
    6.4605    0.5527   18.8868 C   0  0  0  0  0  0  0  0  0  0  0  0
    4.3446    1.4771   20.3681 C   0  0  0  0  0  0  0  0  0  0  0  0
    5.2560    0.5756   20.9558 C   0  0  0  0  0  0  0  0  0  0  0  0
   10.3220   -0.8940   22.7910 C   0  0  0  0  0  0  0  0  0  0  0  0
    6.3331    0.1082   20.1940 C   0  0  0  0  0  0  0  0  0  0  0  0
   12.6400   -1.1000   22.2390 C   0  0  0  0  0  0  0  0  0  0  0  0
    8.3880   -0.3240   21.3070 C   0  0  0  0  0  0  0  0  0  0  0  0
    7.0799   -2.1993   20.5646 C   0  0  0  0  0  0  0  0  0  0  0  0
    8.8810   -1.1900   22.4510 C   0  0  0  0  0  0  0  0  0  0  0  0
    5.6576   -2.7009   20.5782 C   0  0  0  0  0  0  0  0  0  0  0  0
    5.6087    1.4144   18.2914 N   0  0  0  0  0  0  0  0  0  0  0  0
    7.2820   -0.7860   20.6970 N   0  0  0  0  0  0  0  0  0  0  0  0
    8.9170    0.7530   21.0260 O   0  0  0  0  0  0  0  0  0  0  0  0
    8.0079   -3.0062   20.4692 O   0  0  0  0  0  0  0  0  0  0  0  0
    4.7286   -1.7223   20.7177 F   0  0  0  0  0  0  0  0  0  0  0  0
    5.4478   -3.6018   21.5709 F   0  0  0  0  0  0  0  0  0  0  0  0
    5.3619   -3.3422   19.4159 F   0  0  0  0  0  0  0  0  0  0  0  0
   13.8840   -1.8490   21.2740 Cl  0  0  0  0  0  0  0  0  0  0  0  0
    2.2318    1.9225   23.0095 H   0  0  0  0  0  0  0  0  0  0  0  0
    3.8289    0.3389   24.0489 H   0  0  0  0  0  0  0  0  0  0  0  0
   12.2249    1.2198   24.6546 H   0  0  0  0  0  0  0  0  0  0  0  0
    2.5463    2.6533   20.6754 H   0  0  0  0  0  0  0  0  0  0  0  0
    5.7367   -0.5196   22.7776 H   0  0  0  0  0  0  0  0  0  0  0  0
    9.8763    0.5350   24.3454 H   0  0  0  0  0  0  0  0  0  0  0  0
   14.0077    0.1988   23.2842 H   0  0  0  0  0  0  0  0  0  0  0  0
   11.0892   -2.3009   21.3624 H   0  0  0  0  0  0  0  0  0  0  0  0
    3.9112    2.5452   18.5307 H   0  0  0  0  0  0  0  0  0  0  0  0
    7.2784    0.2191   18.2545 H   0  0  0  0  0  0  0  0  0  0  0  0
    8.2413   -1.0055   23.3220 H   0  0  0  0  0  0  0  0  0  0  0  0
    8.7996   -2.2566   22.2120 H   0  0  0  0  0  0  0  0  0  0  0  0
  1  2  1  0  0  0  0
  1  4  2  0  0  0  0
  2  5  2  0  0  0  0
  3  6  2  0  0  0  0
  3  7  1  0  0  0  0
  4 11  1  0  0  0  0
  5 12  1  0  0  0  0
  6 13  1  0  0  0  0
  7 15  2  0  0  0  0
  8 13  2  0  0  0  0
  8 15  1  0  0  0  0
  9 11  2  0  0  0  0
  9 20  1  0  0  0  0
 10 14  1  0  0  0  0
 10 20  2  0  0  0  0
 11 12  1  0  0  0  0
 12 14  2  0  0  0  0
 13 18  1  0  0  0  0
 14 21  1  0  0  0  0
 15 27  1  0  0  0  0
 16 18  1  0  0  0  0
 16 21  1  0  0  0  0
 16 22  2  0  0  0  0
 17 19  1  0  0  0  0
 17 21  1  0  0  0  0
 17 23  2  0  0  0  0
 19 24  1  0  0  0  0
 19 25  1  0  0  0  0
 19 26  1  0  0  0  0
  1 28  1  0  0  0  0
  2 29  1  0  0  0  0
  3 30  1  0  0  0  0
  4 31  1  0  0  0  0
  5 32  1  0  0  0  0
  6 33  1  0  0  0  0
  7 34  1  0  0  0  0
  8 35  1  0  0  0  0
  9 36  1  0  0  0  0
 10 37  1  0  0  0  0
 18 38  1  0  0  0  0
 18 39  1  0  0  0  0
M  END
> <compound>
JOH-UNI-a38a7bdd-1

> <compound_smiles>
c1ccc2c(c1)cncc2N(C(=O)Cc3cccc(c3)Cl)C(=O)C(F)(F)F

> <enantiomer_smiles>
c1ccc2c(c1)cncc2N(C(=O)Cc3cccc(c3)Cl)C(=O)C(F)(F)F

> <scaffold>
chlorobenzene-linker

> <clash_score>
0.7155954454394243

> <docking_score>
-1.8231257200241089

> <overlap_score>
0.937214195728302

> <MMFF_internal_energy>
169.49386472813373

> <docked_smiles>
c1ccc2c(c1)cncc2N(C(=O)Cc3cccc(c3)Cl)C(=O)C(F)(F)F

$$$$
JOH-UNI-a38a7bdd-8_3
  -OEChem-07262101023D

 44 46  0     1  0  0  0  0  0999 V2000
   11.9780    0.4600   23.9150 C   0  0  0  0  0  0  0  0  0  0  0  0
   10.6560    0.0720   23.7350 C   0  0  0  0  0  0  0  0  0  0  0  0
   12.9840   -0.1200   23.1530 C   0  0  0  0  0  0  0  0  0  0  0  0
    5.0161   -2.3403   23.2660 C   0  0  0  0  0  0  0  0  0  0  0  0
   11.3360   -1.5050   22.0650 C   0  0  0  0  0  0  0  0  0  0  0  0
    4.8471   -3.5761   22.6627 C   0  0  0  0  0  0  0  0  0  0  0  0
    6.1929   -2.9961   20.8933 C   0  0  0  0  0  0  0  0  0  0  0  0
   10.3220   -0.8940   22.7910 C   0  0  0  0  0  0  0  0  0  0  0  0
    5.8215   -1.4068   22.6231 C   0  0  0  0  0  0  0  0  0  0  0  0
    6.4247   -1.7331   21.4136 C   0  0  0  0  0  0  0  0  0  0  0  0
   12.6400   -1.1000   22.2390 C   0  0  0  0  0  0  0  0  0  0  0  0
    8.3880   -0.3240   21.3070 C   0  0  0  0  0  0  0  0  0  0  0  0
    5.2865    1.0316   18.0265 C   0  0  0  0  0  0  0  0  0  0  0  0
    5.6333    0.2218   19.2482 C   0  0  2  0  0  0  0  0  0  0  0  0
    5.5730    1.7251   19.3325 C   0  0  1  0  0  0  0  0  0  0  0  0
    6.0205   -0.0663   23.2509 C   0  0  0  0  0  0  0  0  0  0  0  0
    8.8810   -1.1900   22.4510 C   0  0  0  0  0  0  0  0  0  0  0  0
    6.9445   -0.4796   19.3339 C   0  0  0  0  0  0  0  0  0  0  0  0
    4.4718    2.3879   20.0853 C   0  0  0  0  0  0  0  0  0  0  0  0
    5.4168   -3.9293   21.4886 N   0  0  0  0  0  0  0  0  0  0  0  0
    7.2820   -0.7860   20.6970 N   0  0  0  0  0  0  0  0  0  0  0  0
    8.9170    0.7530   21.0260 O   0  0  0  0  0  0  0  0  0  0  0  0
    4.2383    3.6408   19.6252 F   0  0  0  0  0  0  0  0  0  0  0  0
    3.3112    1.6966   19.9806 F   0  0  0  0  0  0  0  0  0  0  0  0
    4.7629    2.4904   21.4048 F   0  0  0  0  0  0  0  0  0  0  0  0
   13.8840   -1.8490   21.2740 Cl  0  0  0  0  0  0  0  0  0  0  0  0
   12.2249    1.2198   24.6546 H   0  0  0  0  0  0  0  0  0  0  0  0
    9.8763    0.5350   24.3454 H   0  0  0  0  0  0  0  0  0  0  0  0
   14.0077    0.1988   23.2842 H   0  0  0  0  0  0  0  0  0  0  0  0
    4.5311   -2.1171   24.2102 H   0  0  0  0  0  0  0  0  0  0  0  0
   11.0892   -2.3009   21.3624 H   0  0  0  0  0  0  0  0  0  0  0  0
    4.2285   -4.3391   23.1235 H   0  0  0  0  0  0  0  0  0  0  0  0
    6.6361   -3.3100   19.9528 H   0  0  0  0  0  0  0  0  0  0  0  0
    6.0244    1.1216   17.2383 H   0  0  0  0  0  0  0  0  0  0  0  0
    4.2628    0.9943   17.6737 H   0  0  0  0  0  0  0  0  0  0  0  0
    4.8382   -0.3526   19.7087 H   0  0  0  0  0  0  0  0  0  0  0  0
    6.5036    2.2743   19.4134 H   0  0  0  0  0  0  0  0  0  0  0  0
    6.8910   -0.0842   23.9168 H   0  0  0  0  0  0  0  0  0  0  0  0
    6.1780    0.7081   22.4902 H   0  0  0  0  0  0  0  0  0  0  0  0
    5.1405    0.2328   23.8337 H   0  0  0  0  0  0  0  0  0  0  0  0
    8.8006   -2.2403   22.1717 H   0  0  0  0  0  0  0  0  0  0  0  0
    8.2668   -1.0117   23.3332 H   0  0  0  0  0  0  0  0  0  0  0  0
    6.8902   -1.4165   18.7592 H   0  0  0  0  0  0  0  0  0  0  0  0
    7.7271    0.1660   18.9076 H   0  0  0  0  0  0  0  0  0  0  0  0
  1  2  2  0  0  0  0
  1  3  1  0  0  0  0
  2  8  1  0  0  0  0
  3 11  2  0  0  0  0
  4  6  2  0  0  0  0
  4  9  1  0  0  0  0
  5  8  2  0  0  0  0
  5 11  1  0  0  0  0
  6 20  1  0  0  0  0
  7 10  1  0  0  0  0
  7 20  2  0  0  0  0
  8 17  1  0  0  0  0
  9 10  2  0  0  0  0
  9 16  1  0  0  0  0
 10 21  1  0  0  0  0
 11 26  1  0  0  0  0
 12 17  1  0  0  0  0
 12 21  1  0  0  0  0
 12 22  2  0  0  0  0
 13 14  1  0  0  0  0
 13 15  1  0  0  0  0
 14 15  1  0  0  0  0
 14 18  1  1  0  0  0
 15 19  1  6  0  0  0
 18 21  1  0  0  0  0
 19 23  1  0  0  0  0
 19 24  1  0  0  0  0
 19 25  1  0  0  0  0
  1 27  1  0  0  0  0
  2 28  1  0  0  0  0
  3 29  1  0  0  0  0
  4 30  1  0  0  0  0
  5 31  1  0  0  0  0
  6 32  1  0  0  0  0
  7 33  1  0  0  0  0
 13 34  1  0  0  0  0
 13 35  1  0  0  0  0
 14 36  1  0  0  0  0
 15 37  1  0  0  0  0
 16 38  1  0  0  0  0
 16 39  1  0  0  0  0
 16 40  1  0  0  0  0
 17 41  1  0  0  0  0
 17 42  1  0  0  0  0
 18 43  1  0  0  0  0
 18 44  1  0  0  0  0
M  END
> <compound>
JOH-UNI-a38a7bdd-8

> <compound_smiles>
Cc1ccncc1N(CC2CC2C(F)(F)F)C(=O)Cc3cccc(c3)Cl

> <enantiomer_smiles>
Cc1ccncc1N(C[C@@H]2C[C@H]2C(F)(F)F)C(=O)Cc3cccc(c3)Cl

> <scaffold>
chlorobenzene-linker

> <clash_score>
2.2130873711774575

> <docking_score>
-3.0018529891967773

> <overlap_score>
0.8629909157752991

> <MMFF_internal_energy>
120.30325879760662

> <docked_smiles>
Cc1ccncc1N(C[C@@H]2C[C@H]2C(F)(F)F)C(=O)Cc3cccc(c3)Cl

$$$$
JOH-UNI-a38a7bdd-9_2
  -OEChem-07262101023D

 41 43  0     1  0  0  0  0  0999 V2000
   11.9780    0.4600   23.9150 C   0  0  0  0  0  0  0  0  0  0  0  0
   10.6560    0.0720   23.7350 C   0  0  0  0  0  0  0  0  0  0  0  0
   12.9840   -0.1200   23.1530 C   0  0  0  0  0  0  0  0  0  0  0  0
    5.1343    1.7026   18.8987 C   0  0  0  0  0  0  0  0  0  0  0  0
   11.3360   -1.5050   22.0650 C   0  0  0  0  0  0  0  0  0  0  0  0
    5.5896    1.4647   17.6119 C   0  0  0  0  0  0  0  0  0  0  0  0
    7.0577   -0.1484   18.3336 C   0  0  0  0  0  0  0  0  0  0  0  0
   10.3220   -0.8940   22.7910 C   0  0  0  0  0  0  0  0  0  0  0  0
    5.6907    0.9593   19.9338 C   0  0  0  0  0  0  0  0  0  0  0  0
    6.6714    0.0141   19.6543 C   0  0  0  0  0  0  0  0  0  0  0  0
   12.6400   -1.1000   22.2390 C   0  0  0  0  0  0  0  0  0  0  0  0
    8.3880   -0.3240   21.3070 C   0  0  0  0  0  0  0  0  0  0  0  0
    5.2287   -3.0915   22.9617 C   0  0  0  0  0  0  0  0  0  0  0  0
    6.2572   -2.0991   22.4847 C   0  0  1  0  0  0  0  0  0  0  0  0
    6.6635   -3.2399   23.3671 C   0  0  2  0  0  0  0  0  0  0  0  0
    5.2189    1.1956   21.3310 C   0  0  0  0  0  0  0  0  0  0  0  0
    8.8810   -1.1900   22.4510 C   0  0  0  0  0  0  0  0  0  0  0  0
    6.6710   -2.0764   21.0526 C   0  0  0  0  0  0  0  0  0  0  0  0
    6.5404    0.5551   17.3015 N   0  0  0  0  0  0  0  0  0  0  0  0
    7.2820   -0.7860   20.6970 N   0  0  0  0  0  0  0  0  0  0  0  0
    8.9170    0.7530   21.0260 O   0  0  0  0  0  0  0  0  0  0  0  0
    6.9891   -2.9477   24.6797 F   0  0  0  0  0  0  0  0  0  0  0  0
   13.8840   -1.8490   21.2740 Cl  0  0  0  0  0  0  0  0  0  0  0  0
   12.2249    1.2198   24.6546 H   0  0  0  0  0  0  0  0  0  0  0  0
    9.8763    0.5350   24.3454 H   0  0  0  0  0  0  0  0  0  0  0  0
   14.0077    0.1988   23.2842 H   0  0  0  0  0  0  0  0  0  0  0  0
    4.3678    2.4475   19.0832 H   0  0  0  0  0  0  0  0  0  0  0  0
   11.0892   -2.3009   21.3624 H   0  0  0  0  0  0  0  0  0  0  0  0
    5.1879    2.0181   16.7695 H   0  0  0  0  0  0  0  0  0  0  0  0
    7.8183   -0.8707   18.0520 H   0  0  0  0  0  0  0  0  0  0  0  0
    4.5234   -2.7633   23.7150 H   0  0  0  0  0  0  0  0  0  0  0  0
    4.8296   -3.8057   22.2521 H   0  0  0  0  0  0  0  0  0  0  0  0
    6.2388   -1.1073   22.9198 H   0  0  0  0  0  0  0  0  0  0  0  0
    7.2540   -4.0580   22.9869 H   0  0  0  0  0  0  0  0  0  0  0  0
    4.3723    0.5389   21.5622 H   0  0  0  0  0  0  0  0  0  0  0  0
    6.0185    1.0039   22.0570 H   0  0  0  0  0  0  0  0  0  0  0  0
    4.9027    2.2367   21.4717 H   0  0  0  0  0  0  0  0  0  0  0  0
    8.7925   -2.2408   22.1686 H   0  0  0  0  0  0  0  0  0  0  0  0
    8.2587   -1.0122   23.3300 H   0  0  0  0  0  0  0  0  0  0  0  0
    7.4014   -2.8800   20.8772 H   0  0  0  0  0  0  0  0  0  0  0  0
    5.7860   -2.2409   20.4205 H   0  0  0  0  0  0  0  0  0  0  0  0
  1  2  2  0  0  0  0
  1  3  1  0  0  0  0
  2  8  1  0  0  0  0
  3 11  2  0  0  0  0
  4  6  2  0  0  0  0
  4  9  1  0  0  0  0
  5  8  2  0  0  0  0
  5 11  1  0  0  0  0
  6 19  1  0  0  0  0
  7 10  1  0  0  0  0
  7 19  2  0  0  0  0
  8 17  1  0  0  0  0
  9 10  2  0  0  0  0
  9 16  1  0  0  0  0
 10 20  1  0  0  0  0
 11 23  1  0  0  0  0
 12 17  1  0  0  0  0
 12 20  1  0  0  0  0
 12 21  2  0  0  0  0
 13 14  1  0  0  0  0
 13 15  1  0  0  0  0
 14 15  1  0  0  0  0
 14 18  1  6  0  0  0
 15 22  1  1  0  0  0
 18 20  1  0  0  0  0
  1 24  1  0  0  0  0
  2 25  1  0  0  0  0
  3 26  1  0  0  0  0
  4 27  1  0  0  0  0
  5 28  1  0  0  0  0
  6 29  1  0  0  0  0
  7 30  1  0  0  0  0
 13 31  1  0  0  0  0
 13 32  1  0  0  0  0
 14 33  1  0  0  0  0
 15 34  1  0  0  0  0
 16 35  1  0  0  0  0
 16 36  1  0  0  0  0
 16 37  1  0  0  0  0
 17 38  1  0  0  0  0
 17 39  1  0  0  0  0
 18 40  1  0  0  0  0
 18 41  1  0  0  0  0
M  END
> <compound>
JOH-UNI-a38a7bdd-9

> <compound_smiles>
Cc1ccncc1N(CC2CC2F)C(=O)Cc3cccc(c3)Cl

> <enantiomer_smiles>
Cc1ccncc1N(C[C@H]2C[C@@H]2F)C(=O)Cc3cccc(c3)Cl

> <scaffold>
chlorobenzene-linker

> <clash_score>
0.7590448424506225

> <docking_score>
-9.171120643615723

> <overlap_score>
0.8627888560295105

> <MMFF_internal_energy>
99.81573737401403

> <docked_smiles>
Cc1ccncc1N(C[C@H]2C[C@@H]2F)C(=O)Cc3cccc(c3)Cl

$$$$
JOH-UNI-a38a7bdd-9_3
  -OEChem-07262101023D

 41 43  0     1  0  0  0  0  0999 V2000
   11.9780    0.4600   23.9150 C   0  0  0  0  0  0  0  0  0  0  0  0
   10.6560    0.0720   23.7350 C   0  0  0  0  0  0  0  0  0  0  0  0
   12.9840   -0.1200   23.1530 C   0  0  0  0  0  0  0  0  0  0  0  0
    5.1343    1.7026   18.8987 C   0  0  0  0  0  0  0  0  0  0  0  0
   11.3360   -1.5050   22.0650 C   0  0  0  0  0  0  0  0  0  0  0  0
    5.5896    1.4647   17.6119 C   0  0  0  0  0  0  0  0  0  0  0  0
    7.0577   -0.1484   18.3336 C   0  0  0  0  0  0  0  0  0  0  0  0
   10.3220   -0.8940   22.7910 C   0  0  0  0  0  0  0  0  0  0  0  0
    5.6907    0.9593   19.9338 C   0  0  0  0  0  0  0  0  0  0  0  0
    6.6714    0.0141   19.6543 C   0  0  0  0  0  0  0  0  0  0  0  0
   12.6400   -1.1000   22.2390 C   0  0  0  0  0  0  0  0  0  0  0  0
    8.3880   -0.3240   21.3070 C   0  0  0  0  0  0  0  0  0  0  0  0
    5.2309   -3.0971   22.9601 C   0  0  0  0  0  0  0  0  0  0  0  0
    5.6575   -1.9119   22.1335 C   0  0  2  0  0  0  0  0  0  0  0  0
    4.2839   -2.4883   21.9714 C   0  0  1  0  0  0  0  0  0  0  0  0
    5.2189    1.1956   21.3310 C   0  0  0  0  0  0  0  0  0  0  0  0
    8.8810   -1.1900   22.4510 C   0  0  0  0  0  0  0  0  0  0  0  0
    6.6710   -2.0764   21.0526 C   0  0  0  0  0  0  0  0  0  0  0  0
    6.5404    0.5551   17.3015 N   0  0  0  0  0  0  0  0  0  0  0  0
    7.2820   -0.7860   20.6970 N   0  0  0  0  0  0  0  0  0  0  0  0
    8.9170    0.7530   21.0260 O   0  0  0  0  0  0  0  0  0  0  0  0
    3.2211   -1.7576   22.4723 F   0  0  0  0  0  0  0  0  0  0  0  0
   13.8840   -1.8490   21.2740 Cl  0  0  0  0  0  0  0  0  0  0  0  0
   12.2249    1.2198   24.6546 H   0  0  0  0  0  0  0  0  0  0  0  0
    9.8763    0.5350   24.3454 H   0  0  0  0  0  0  0  0  0  0  0  0
   14.0077    0.1988   23.2842 H   0  0  0  0  0  0  0  0  0  0  0  0
    4.3678    2.4475   19.0832 H   0  0  0  0  0  0  0  0  0  0  0  0
   11.0892   -2.3009   21.3624 H   0  0  0  0  0  0  0  0  0  0  0  0
    5.1879    2.0181   16.7695 H   0  0  0  0  0  0  0  0  0  0  0  0
    7.8183   -0.8707   18.0520 H   0  0  0  0  0  0  0  0  0  0  0  0
    5.6470   -4.0690   22.7259 H   0  0  0  0  0  0  0  0  0  0  0  0
    5.0355   -2.9328   24.0125 H   0  0  0  0  0  0  0  0  0  0  0  0
    5.7462   -0.9554   22.6340 H   0  0  0  0  0  0  0  0  0  0  0  0
    4.0060   -3.0287   21.0806 H   0  0  0  0  0  0  0  0  0  0  0  0
    4.3723    0.5389   21.5622 H   0  0  0  0  0  0  0  0  0  0  0  0
    6.0185    1.0039   22.0570 H   0  0  0  0  0  0  0  0  0  0  0  0
    4.9027    2.2367   21.4717 H   0  0  0  0  0  0  0  0  0  0  0  0
    8.7925   -2.2408   22.1686 H   0  0  0  0  0  0  0  0  0  0  0  0
    8.2587   -1.0122   23.3300 H   0  0  0  0  0  0  0  0  0  0  0  0
    7.4576   -2.7626   21.3995 H   0  0  0  0  0  0  0  0  0  0  0  0
    6.1816   -2.4993   20.1629 H   0  0  0  0  0  0  0  0  0  0  0  0
  1  2  2  0  0  0  0
  1  3  1  0  0  0  0
  2  8  1  0  0  0  0
  3 11  2  0  0  0  0
  4  6  2  0  0  0  0
  4  9  1  0  0  0  0
  5  8  2  0  0  0  0
  5 11  1  0  0  0  0
  6 19  1  0  0  0  0
  7 10  1  0  0  0  0
  7 19  2  0  0  0  0
  8 17  1  0  0  0  0
  9 10  2  0  0  0  0
  9 16  1  0  0  0  0
 10 20  1  0  0  0  0
 11 23  1  0  0  0  0
 12 17  1  0  0  0  0
 12 20  1  0  0  0  0
 12 21  2  0  0  0  0
 13 14  1  0  0  0  0
 13 15  1  0  0  0  0
 14 15  1  0  0  0  0
 14 18  1  1  0  0  0
 15 22  1  6  0  0  0
 18 20  1  0  0  0  0
  1 24  1  0  0  0  0
  2 25  1  0  0  0  0
  3 26  1  0  0  0  0
  4 27  1  0  0  0  0
  5 28  1  0  0  0  0
  6 29  1  0  0  0  0
  7 30  1  0  0  0  0
 13 31  1  0  0  0  0
 13 32  1  0  0  0  0
 14 33  1  0  0  0  0
 15 34  1  0  0  0  0
 16 35  1  0  0  0  0
 16 36  1  0  0  0  0
 16 37  1  0  0  0  0
 17 38  1  0  0  0  0
 17 39  1  0  0  0  0
 18 40  1  0  0  0  0
 18 41  1  0  0  0  0
M  END
> <compound>
JOH-UNI-a38a7bdd-9

> <compound_smiles>
Cc1ccncc1N(CC2CC2F)C(=O)Cc3cccc(c3)Cl

> <enantiomer_smiles>
Cc1ccncc1N(C[C@@H]2C[C@H]2F)C(=O)Cc3cccc(c3)Cl

> <scaffold>
chlorobenzene-linker

> <clash_score>
4.673031845106477

> <docking_score>
-7.7241106033325195

> <overlap_score>
0.8628666996955872

> <MMFF_internal_energy>
100.38044901586657

> <docked_smiles>
Cc1ccncc1N(C[C@@H]2C[C@H]2F)C(=O)Cc3cccc(c3)Cl

$$$$
JOH-UNI-a38a7bdd-8_1
  -OEChem-07262101023D

 44 46  0     1  0  0  0  0  0999 V2000
   11.9780    0.4600   23.9150 C   0  0  0  0  0  0  0  0  0  0  0  0
   10.6560    0.0720   23.7350 C   0  0  0  0  0  0  0  0  0  0  0  0
   12.9840   -0.1200   23.1530 C   0  0  0  0  0  0  0  0  0  0  0  0
    4.6390    1.8904   20.7437 C   0  0  0  0  0  0  0  0  0  0  0  0
   11.3360   -1.5050   22.0650 C   0  0  0  0  0  0  0  0  0  0  0  0
    4.3581    1.9182   19.3872 C   0  0  0  0  0  0  0  0  0  0  0  0
    5.9021    0.2761   18.9427 C   0  0  0  0  0  0  0  0  0  0  0  0
   10.3220   -0.8940   22.7910 C   0  0  0  0  0  0  0  0  0  0  0  0
    5.6071    0.9975   21.1897 C   0  0  0  0  0  0  0  0  0  0  0  0
    6.2555    0.1715   20.2784 C   0  0  0  0  0  0  0  0  0  0  0  0
   12.6400   -1.1000   22.2390 C   0  0  0  0  0  0  0  0  0  0  0  0
    8.3880   -0.3240   21.3070 C   0  0  0  0  0  0  0  0  0  0  0  0
    5.5635   -2.3828   22.6778 C   0  0  0  0  0  0  0  0  0  0  0  0
    5.7258   -2.5656   21.1913 C   0  0  2  0  0  0  0  0  0  0  0  0
    5.6126   -3.7712   22.0953 C   0  0  2  0  0  0  0  0  0  0  0  0
    5.9303    0.9469   22.6470 C   0  0  0  0  0  0  0  0  0  0  0  0
    8.8810   -1.1900   22.4510 C   0  0  0  0  0  0  0  0  0  0  0  0
    7.0013   -2.1846   20.5221 C   0  0  0  0  0  0  0  0  0  0  0  0
    6.7682   -4.6664   22.3824 C   0  0  0  0  0  0  0  0  0  0  0  0
    4.9669    1.1313   18.4720 N   0  0  0  0  0  0  0  0  0  0  0  0
    7.2820   -0.7860   20.6970 N   0  0  0  0  0  0  0  0  0  0  0  0
    8.9170    0.7530   21.0260 O   0  0  0  0  0  0  0  0  0  0  0  0
    6.9109   -5.6163   21.4268 F   0  0  0  0  0  0  0  0  0  0  0  0
    7.9314   -3.9740   22.4404 F   0  0  0  0  0  0  0  0  0  0  0  0
    6.6193   -5.3056   23.5679 F   0  0  0  0  0  0  0  0  0  0  0  0
   13.8840   -1.8490   21.2740 Cl  0  0  0  0  0  0  0  0  0  0  0  0
   12.2249    1.2198   24.6546 H   0  0  0  0  0  0  0  0  0  0  0  0
    9.8763    0.5350   24.3454 H   0  0  0  0  0  0  0  0  0  0  0  0
   14.0077    0.1988   23.2842 H   0  0  0  0  0  0  0  0  0  0  0  0
    4.1151    2.5485   21.4286 H   0  0  0  0  0  0  0  0  0  0  0  0
   11.0892   -2.3009   21.3624 H   0  0  0  0  0  0  0  0  0  0  0  0
    3.6113    2.5970   18.9886 H   0  0  0  0  0  0  0  0  0  0  0  0
    6.3723   -0.3421   18.1837 H   0  0  0  0  0  0  0  0  0  0  0  0
    6.4128   -2.0325   23.2519 H   0  0  0  0  0  0  0  0  0  0  0  0
    4.6072   -2.0225   23.0381 H   0  0  0  0  0  0  0  0  0  0  0  0
    4.8700   -2.3463   20.5624 H   0  0  0  0  0  0  0  0  0  0  0  0
    4.6837   -4.3289   22.0499 H   0  0  0  0  0  0  0  0  0  0  0  0
    5.2885    0.2167   23.1532 H   0  0  0  0  0  0  0  0  0  0  0  0
    6.9777    0.6649   22.8110 H   0  0  0  0  0  0  0  0  0  0  0  0
    5.7857    1.9265   23.1192 H   0  0  0  0  0  0  0  0  0  0  0  0
    8.8006   -2.2403   22.1717 H   0  0  0  0  0  0  0  0  0  0  0  0
    8.2668   -1.0117   23.3332 H   0  0  0  0  0  0  0  0  0  0  0  0
    7.8246   -2.7722   20.9552 H   0  0  0  0  0  0  0  0  0  0  0  0
    6.9225   -2.4025   19.4464 H   0  0  0  0  0  0  0  0  0  0  0  0
  1  2  2  0  0  0  0
  1  3  1  0  0  0  0
  2  8  1  0  0  0  0
  3 11  2  0  0  0  0
  4  6  2  0  0  0  0
  4  9  1  0  0  0  0
  5  8  2  0  0  0  0
  5 11  1  0  0  0  0
  6 20  1  0  0  0  0
  7 10  1  0  0  0  0
  7 20  2  0  0  0  0
  8 17  1  0  0  0  0
  9 10  2  0  0  0  0
  9 16  1  0  0  0  0
 10 21  1  0  0  0  0
 11 26  1  0  0  0  0
 12 17  1  0  0  0  0
 12 21  1  0  0  0  0
 12 22  2  0  0  0  0
 13 14  1  0  0  0  0
 13 15  1  0  0  0  0
 14 15  1  0  0  0  0
 14 18  1  1  0  0  0
 15 19  1  1  0  0  0
 18 21  1  0  0  0  0
 19 23  1  0  0  0  0
 19 24  1  0  0  0  0
 19 25  1  0  0  0  0
  1 27  1  0  0  0  0
  2 28  1  0  0  0  0
  3 29  1  0  0  0  0
  4 30  1  0  0  0  0
  5 31  1  0  0  0  0
  6 32  1  0  0  0  0
  7 33  1  0  0  0  0
 13 34  1  0  0  0  0
 13 35  1  0  0  0  0
 14 36  1  0  0  0  0
 15 37  1  0  0  0  0
 16 38  1  0  0  0  0
 16 39  1  0  0  0  0
 16 40  1  0  0  0  0
 17 41  1  0  0  0  0
 17 42  1  0  0  0  0
 18 43  1  0  0  0  0
 18 44  1  0  0  0  0
M  END
> <compound>
JOH-UNI-a38a7bdd-8

> <compound_smiles>
Cc1ccncc1N(CC2CC2C(F)(F)F)C(=O)Cc3cccc(c3)Cl

> <enantiomer_smiles>
Cc1ccncc1N(C[C@@H]2C[C@@H]2C(F)(F)F)C(=O)Cc3cccc(c3)Cl

> <scaffold>
chlorobenzene-linker

> <clash_score>
0.6716694699190292

> <docking_score>
-3.7998714447021484

> <overlap_score>
0.8418841361999512

> <MMFF_internal_energy>
138.07652014883442

> <docked_smiles>
Cc1ccncc1N(C[C@@H]2C[C@@H]2C(F)(F)F)C(=O)Cc3cccc(c3)Cl

$$$$
JOH-UNI-a38a7bdd-3_1
  -OEChem-07262101023D

 36 37  0     0  0  0  0  0  0999 V2000
   11.9780    0.4600   23.9150 C   0  0  0  0  0  0  0  0  0  0  0  0
   10.6560    0.0720   23.7350 C   0  0  0  0  0  0  0  0  0  0  0  0
   12.9840   -0.1200   23.1530 C   0  0  0  0  0  0  0  0  0  0  0  0
    5.1601    1.7275   18.9035 C   0  0  0  0  0  0  0  0  0  0  0  0
   11.3360   -1.5050   22.0650 C   0  0  0  0  0  0  0  0  0  0  0  0
    5.6197    1.4938   17.6174 C   0  0  0  0  0  0  0  0  0  0  0  0
    7.0733   -0.1335   18.3365 C   0  0  0  0  0  0  0  0  0  0  0  0
   10.3220   -0.8940   22.7910 C   0  0  0  0  0  0  0  0  0  0  0  0
    5.7065    0.9744   19.9367 C   0  0  0  0  0  0  0  0  0  0  0  0
    6.6820    0.0241   19.6563 C   0  0  0  0  0  0  0  0  0  0  0  0
   12.6400   -1.1000   22.2390 C   0  0  0  0  0  0  0  0  0  0  0  0
    8.3880   -0.3240   21.3070 C   0  0  0  0  0  0  0  0  0  0  0  0
    6.6769   -2.0169   21.0178 C   0  0  0  0  0  0  0  0  0  0  0  0
    5.2299    1.2060   21.3331 C   0  0  0  0  0  0  0  0  0  0  0  0
    8.8810   -1.1900   22.4510 C   0  0  0  0  0  0  0  0  0  0  0  0
    5.8991   -2.6791   19.9081 C   0  0  0  0  0  0  0  0  0  0  0  0
    6.5656    0.5795   17.3062 N   0  0  0  0  0  0  0  0  0  0  0  0
    7.2820   -0.7860   20.6970 N   0  0  0  0  0  0  0  0  0  0  0  0
    8.9170    0.7530   21.0260 O   0  0  0  0  0  0  0  0  0  0  0  0
    6.7061   -2.5391   22.1348 O   0  0  0  0  0  0  0  0  0  0  0  0
    5.8955   -1.9817   18.7445 F   0  0  0  0  0  0  0  0  0  0  0  0
    4.6049   -2.8933   20.2549 F   0  0  0  0  0  0  0  0  0  0  0  0
    6.4206   -3.9009   19.6170 F   0  0  0  0  0  0  0  0  0  0  0  0
   13.8840   -1.8490   21.2740 Cl  0  0  0  0  0  0  0  0  0  0  0  0
   12.2249    1.2198   24.6546 H   0  0  0  0  0  0  0  0  0  0  0  0
    9.8763    0.5350   24.3454 H   0  0  0  0  0  0  0  0  0  0  0  0
   14.0077    0.1988   23.2842 H   0  0  0  0  0  0  0  0  0  0  0  0
    4.3979    2.4767   19.0886 H   0  0  0  0  0  0  0  0  0  0  0  0
   11.0892   -2.3009   21.3624 H   0  0  0  0  0  0  0  0  0  0  0  0
    5.2257    2.0549   16.7764 H   0  0  0  0  0  0  0  0  0  0  0  0
    7.8301   -0.8594   18.0543 H   0  0  0  0  0  0  0  0  0  0  0  0
    4.3776    0.5539   21.5566 H   0  0  0  0  0  0  0  0  0  0  0  0
    6.0248    1.0046   22.0617 H   0  0  0  0  0  0  0  0  0  0  0  0
    4.9202    2.2484   21.4783 H   0  0  0  0  0  0  0  0  0  0  0  0
    8.2413   -1.0055   23.3220 H   0  0  0  0  0  0  0  0  0  0  0  0
    8.7996   -2.2566   22.2120 H   0  0  0  0  0  0  0  0  0  0  0  0
  1  2  2  0  0  0  0
  1  3  1  0  0  0  0
  2  8  1  0  0  0  0
  3 11  2  0  0  0  0
  4  6  2  0  0  0  0
  4  9  1  0  0  0  0
  5  8  2  0  0  0  0
  5 11  1  0  0  0  0
  6 17  1  0  0  0  0
  7 10  1  0  0  0  0
  7 17  2  0  0  0  0
  8 15  1  0  0  0  0
  9 10  2  0  0  0  0
  9 14  1  0  0  0  0
 10 18  1  0  0  0  0
 11 24  1  0  0  0  0
 12 15  1  0  0  0  0
 12 18  1  0  0  0  0
 12 19  2  0  0  0  0
 13 16  1  0  0  0  0
 13 18  1  0  0  0  0
 13 20  2  0  0  0  0
 16 21  1  0  0  0  0
 16 22  1  0  0  0  0
 16 23  1  0  0  0  0
  1 25  1  0  0  0  0
  2 26  1  0  0  0  0
  3 27  1  0  0  0  0
  4 28  1  0  0  0  0
  5 29  1  0  0  0  0
  6 30  1  0  0  0  0
  7 31  1  0  0  0  0
 14 32  1  0  0  0  0
 14 33  1  0  0  0  0
 14 34  1  0  0  0  0
 15 35  1  0  0  0  0
 15 36  1  0  0  0  0
M  END
> <compound>
JOH-UNI-a38a7bdd-3

> <compound_smiles>
Cc1ccncc1N(C(=O)Cc2cccc(c2)Cl)C(=O)C(F)(F)F

> <enantiomer_smiles>
Cc1ccncc1N(C(=O)Cc2cccc(c2)Cl)C(=O)C(F)(F)F

> <scaffold>
chlorobenzene-linker

> <clash_score>
1.3133755624940133

> <docking_score>
-6.3796844482421875

> <overlap_score>
0.8720149397850037

> <MMFF_internal_energy>
149.41179735648612

> <docked_smiles>
Cc1ccncc1N(C(=O)Cc2cccc(c2)Cl)C(=O)C(F)(F)F

$$$$
JOH-UNI-a38a7bdd-5_1
  -OEChem-07262101023D

 43 46  0     1  0  0  0  0  0999 V2000
    3.6674    2.8217   20.3936 C   0  0  0  0  0  0  0  0  0  0  0  0
    4.2148    2.1184   21.4642 C   0  0  0  0  0  0  0  0  0  0  0  0
   11.9780    0.4600   23.9150 C   0  0  0  0  0  0  0  0  0  0  0  0
    4.1163    2.5784   19.0957 C   0  0  0  0  0  0  0  0  0  0  0  0
    5.2135    1.1688   21.2418 C   0  0  0  0  0  0  0  0  0  0  0  0
   10.6560    0.0720   23.7350 C   0  0  0  0  0  0  0  0  0  0  0  0
   12.9840   -0.1200   23.1530 C   0  0  0  0  0  0  0  0  0  0  0  0
   11.3360   -1.5050   22.0650 C   0  0  0  0  0  0  0  0  0  0  0  0
    5.6070    1.3418   17.5824 C   0  0  0  0  0  0  0  0  0  0  0  0
    7.0810   -0.2316   18.3741 C   0  0  0  0  0  0  0  0  0  0  0  0
    5.1207    1.6250   18.8602 C   0  0  0  0  0  0  0  0  0  0  0  0
    5.6773    0.9110   19.9414 C   0  0  0  0  0  0  0  0  0  0  0  0
   10.3220   -0.8940   22.7910 C   0  0  0  0  0  0  0  0  0  0  0  0
    6.6771   -0.0347   19.6858 C   0  0  0  0  0  0  0  0  0  0  0  0
   12.6400   -1.1000   22.2390 C   0  0  0  0  0  0  0  0  0  0  0  0
    6.7331   -2.0551   21.0900 C   0  0  0  0  0  0  0  0  0  0  0  0
    8.3880   -0.3240   21.3070 C   0  0  0  0  0  0  0  0  0  0  0  0
    6.5091   -4.2616   19.7976 C   0  0  0  0  0  0  0  0  0  0  0  0
    6.0317   -2.8693   20.0464 C   0  0  2  0  0  0  0  0  0  0  0  0
    6.7532   -3.1865   18.7890 C   0  0  2  0  0  0  0  0  0  0  0  0
    8.8810   -1.1900   22.4510 C   0  0  0  0  0  0  0  0  0  0  0  0
    6.5715    0.4327   17.3149 N   0  0  0  0  0  0  0  0  0  0  0  0
    7.2820   -0.7860   20.6970 N   0  0  0  0  0  0  0  0  0  0  0  0
    6.8243   -2.5215   22.2224 O   0  0  0  0  0  0  0  0  0  0  0  0
    8.9170    0.7530   21.0260 O   0  0  0  0  0  0  0  0  0  0  0  0
    8.0556   -2.7486   18.6254 F   0  0  0  0  0  0  0  0  0  0  0  0
   13.8840   -1.8490   21.2740 Cl  0  0  0  0  0  0  0  0  0  0  0  0
    2.8904    3.5597   20.5695 H   0  0  0  0  0  0  0  0  0  0  0  0
    3.8635    2.3092   22.4743 H   0  0  0  0  0  0  0  0  0  0  0  0
   12.2249    1.2198   24.6546 H   0  0  0  0  0  0  0  0  0  0  0  0
    3.6780    3.1362   18.2714 H   0  0  0  0  0  0  0  0  0  0  0  0
    5.6163    0.6409   22.1031 H   0  0  0  0  0  0  0  0  0  0  0  0
    9.8763    0.5350   24.3454 H   0  0  0  0  0  0  0  0  0  0  0  0
   14.0077    0.1988   23.2842 H   0  0  0  0  0  0  0  0  0  0  0  0
   11.0892   -2.3009   21.3624 H   0  0  0  0  0  0  0  0  0  0  0  0
    5.2216    1.8554   16.7058 H   0  0  0  0  0  0  0  0  0  0  0  0
    7.8525   -0.9542   18.1236 H   0  0  0  0  0  0  0  0  0  0  0  0
    7.3632   -4.6420   20.3442 H   0  0  0  0  0  0  0  0  0  0  0  0
    5.7537   -5.0042   19.5716 H   0  0  0  0  0  0  0  0  0  0  0  0
    4.9788   -2.6719   19.9987 H   0  0  0  0  0  0  0  0  0  0  0  0
    6.2171   -3.1857   17.8532 H   0  0  0  0  0  0  0  0  0  0  0  0
    8.7694   -2.2417   22.1619 H   0  0  0  0  0  0  0  0  0  0  0  0
    8.2806   -1.0404   23.3560 H   0  0  0  0  0  0  0  0  0  0  0  0
  1  2  1  0  0  0  0
  1  4  2  0  0  0  0
  2  5  2  0  0  0  0
  3  6  2  0  0  0  0
  3  7  1  0  0  0  0
  4 11  1  0  0  0  0
  5 12  1  0  0  0  0
  6 13  1  0  0  0  0
  7 15  2  0  0  0  0
  8 13  2  0  0  0  0
  8 15  1  0  0  0  0
  9 11  2  0  0  0  0
  9 22  1  0  0  0  0
 10 14  1  0  0  0  0
 10 22  2  0  0  0  0
 11 12  1  0  0  0  0
 12 14  2  0  0  0  0
 13 21  1  0  0  0  0
 14 23  1  0  0  0  0
 15 27  1  0  0  0  0
 16 19  1  1  0  0  0
 16 23  1  0  0  0  0
 16 24  2  0  0  0  0
 17 21  1  0  0  0  0
 17 23  1  0  0  0  0
 17 25  2  0  0  0  0
 18 19  1  0  0  0  0
 18 20  1  0  0  0  0
 19 20  1  0  0  0  0
 20 26  1  1  0  0  0
  1 28  1  0  0  0  0
  2 29  1  0  0  0  0
  3 30  1  0  0  0  0
  4 31  1  0  0  0  0
  5 32  1  0  0  0  0
  6 33  1  0  0  0  0
  7 34  1  0  0  0  0
  8 35  1  0  0  0  0
  9 36  1  0  0  0  0
 10 37  1  0  0  0  0
 18 38  1  0  0  0  0
 18 39  1  0  0  0  0
 19 40  1  0  0  0  0
 20 41  1  0  0  0  0
 21 42  1  0  0  0  0
 21 43  1  0  0  0  0
M  END
> <compound>
JOH-UNI-a38a7bdd-5

> <compound_smiles>
c1ccc2c(c1)cncc2N(C(=O)Cc3cccc(c3)Cl)C(=O)C4CC4F

> <enantiomer_smiles>
c1ccc2c(c1)cncc2N(C(=O)Cc3cccc(c3)Cl)C(=O)[C@@H]4C[C@@H]4F

> <scaffold>
chlorobenzene-linker

> <clash_score>
2.2134007464092953

> <docking_score>
-7.24171257019043

> <overlap_score>
0.9809675216674805

> <MMFF_internal_energy>
106.05243023776625

> <docked_smiles>
c1ccc2c(c1)cncc2N(C(=O)Cc3cccc(c3)Cl)C(=O)[C@@H]4C[C@@H]4F

$$$$
JOH-UNI-a38a7bdd-6_1
  -OEChem-07262101023D

 46 49  0     1  0  0  0  0  0999 V2000
    3.6674    2.8217   20.3936 C   0  0  0  0  0  0  0  0  0  0  0  0
    4.2148    2.1184   21.4642 C   0  0  0  0  0  0  0  0  0  0  0  0
   11.9780    0.4600   23.9150 C   0  0  0  0  0  0  0  0  0  0  0  0
    4.1163    2.5784   19.0957 C   0  0  0  0  0  0  0  0  0  0  0  0
    5.2135    1.1688   21.2418 C   0  0  0  0  0  0  0  0  0  0  0  0
   10.6560    0.0720   23.7350 C   0  0  0  0  0  0  0  0  0  0  0  0
   12.9840   -0.1200   23.1530 C   0  0  0  0  0  0  0  0  0  0  0  0
   11.3360   -1.5050   22.0650 C   0  0  0  0  0  0  0  0  0  0  0  0
    5.6070    1.3418   17.5824 C   0  0  0  0  0  0  0  0  0  0  0  0
    7.0810   -0.2316   18.3741 C   0  0  0  0  0  0  0  0  0  0  0  0
    5.1207    1.6250   18.8602 C   0  0  0  0  0  0  0  0  0  0  0  0
    5.6773    0.9110   19.9414 C   0  0  0  0  0  0  0  0  0  0  0  0
   10.3220   -0.8940   22.7910 C   0  0  0  0  0  0  0  0  0  0  0  0
    6.6771   -0.0347   19.6858 C   0  0  0  0  0  0  0  0  0  0  0  0
   12.6400   -1.1000   22.2390 C   0  0  0  0  0  0  0  0  0  0  0  0
    6.7331   -2.0551   21.0900 C   0  0  0  0  0  0  0  0  0  0  0  0
    8.3880   -0.3240   21.3070 C   0  0  0  0  0  0  0  0  0  0  0  0
    4.9097   -2.2378   19.2901 C   0  0  0  0  0  0  0  0  0  0  0  0
    6.0317   -2.8693   20.0464 C   0  0  2  0  0  0  0  0  0  0  0  0
    4.6304   -3.3337   20.2792 C   0  0  2  0  0  0  0  0  0  0  0  0
    8.8810   -1.1900   22.4510 C   0  0  0  0  0  0  0  0  0  0  0  0
    3.8689   -3.0365   21.5258 C   0  0  0  0  0  0  0  0  0  0  0  0
    6.5715    0.4327   17.3149 N   0  0  0  0  0  0  0  0  0  0  0  0
    7.2820   -0.7860   20.6970 N   0  0  0  0  0  0  0  0  0  0  0  0
    6.8243   -2.5215   22.2224 O   0  0  0  0  0  0  0  0  0  0  0  0
    8.9170    0.7530   21.0260 O   0  0  0  0  0  0  0  0  0  0  0  0
    4.1332   -3.9431   22.4970 F   0  0  0  0  0  0  0  0  0  0  0  0
    4.1806   -1.8136   22.0181 F   0  0  0  0  0  0  0  0  0  0  0  0
    2.5322   -3.0559   21.3072 F   0  0  0  0  0  0  0  0  0  0  0  0
   13.8840   -1.8490   21.2740 Cl  0  0  0  0  0  0  0  0  0  0  0  0
    2.8904    3.5597   20.5695 H   0  0  0  0  0  0  0  0  0  0  0  0
    3.8635    2.3092   22.4743 H   0  0  0  0  0  0  0  0  0  0  0  0
   12.2249    1.2198   24.6546 H   0  0  0  0  0  0  0  0  0  0  0  0
    3.6780    3.1362   18.2714 H   0  0  0  0  0  0  0  0  0  0  0  0
    5.6163    0.6409   22.1031 H   0  0  0  0  0  0  0  0  0  0  0  0
    9.8763    0.5350   24.3454 H   0  0  0  0  0  0  0  0  0  0  0  0
   14.0077    0.1988   23.2842 H   0  0  0  0  0  0  0  0  0  0  0  0
   11.0892   -2.3009   21.3624 H   0  0  0  0  0  0  0  0  0  0  0  0
    5.2216    1.8554   16.7058 H   0  0  0  0  0  0  0  0  0  0  0  0
    7.8525   -0.9542   18.1236 H   0  0  0  0  0  0  0  0  0  0  0  0
    4.6019   -1.2283   19.5353 H   0  0  0  0  0  0  0  0  0  0  0  0
    4.8328   -2.4795   18.2366 H   0  0  0  0  0  0  0  0  0  0  0  0
    6.7001   -3.5198   19.5149 H   0  0  0  0  0  0  0  0  0  0  0  0
    4.3800   -4.3127   19.8859 H   0  0  0  0  0  0  0  0  0  0  0  0
    8.7694   -2.2417   22.1619 H   0  0  0  0  0  0  0  0  0  0  0  0
    8.2806   -1.0404   23.3560 H   0  0  0  0  0  0  0  0  0  0  0  0
  1  2  1  0  0  0  0
  1  4  2  0  0  0  0
  2  5  2  0  0  0  0
  3  6  2  0  0  0  0
  3  7  1  0  0  0  0
  4 11  1  0  0  0  0
  5 12  1  0  0  0  0
  6 13  1  0  0  0  0
  7 15  2  0  0  0  0
  8 13  2  0  0  0  0
  8 15  1  0  0  0  0
  9 11  2  0  0  0  0
  9 23  1  0  0  0  0
 10 14  1  0  0  0  0
 10 23  2  0  0  0  0
 11 12  1  0  0  0  0
 12 14  2  0  0  0  0
 13 21  1  0  0  0  0
 14 24  1  0  0  0  0
 15 30  1  0  0  0  0
 16 19  1  1  0  0  0
 16 24  1  0  0  0  0
 16 25  2  0  0  0  0
 17 21  1  0  0  0  0
 17 24  1  0  0  0  0
 17 26  2  0  0  0  0
 18 19  1  0  0  0  0
 18 20  1  0  0  0  0
 19 20  1  0  0  0  0
 20 22  1  1  0  0  0
 22 27  1  0  0  0  0
 22 28  1  0  0  0  0
 22 29  1  0  0  0  0
  1 31  1  0  0  0  0
  2 32  1  0  0  0  0
  3 33  1  0  0  0  0
  4 34  1  0  0  0  0
  5 35  1  0  0  0  0
  6 36  1  0  0  0  0
  7 37  1  0  0  0  0
  8 38  1  0  0  0  0
  9 39  1  0  0  0  0
 10 40  1  0  0  0  0
 18 41  1  0  0  0  0
 18 42  1  0  0  0  0
 19 43  1  0  0  0  0
 20 44  1  0  0  0  0
 21 45  1  0  0  0  0
 21 46  1  0  0  0  0
M  END
> <compound>
JOH-UNI-a38a7bdd-6

> <compound_smiles>
c1ccc2c(c1)cncc2N(C(=O)Cc3cccc(c3)Cl)C(=O)C4CC4C(F)(F)F

> <enantiomer_smiles>
c1ccc2c(c1)cncc2N(C(=O)Cc3cccc(c3)Cl)C(=O)[C@@H]4C[C@@H]4C(F)(F)F

> <scaffold>
chlorobenzene-linker

> <clash_score>
7.822044161937899

> <docking_score>
-4.436890602111816

> <overlap_score>
0.9746121764183044

> <MMFF_internal_energy>
128.34996664694077

> <docked_smiles>
c1ccc2c(c1)cncc2N(C(=O)Cc3cccc(c3)Cl)C(=O)[C@@H]4C[C@@H]4C(F)(F)F

$$$$
JOH-UNI-a38a7bdd-8_2
  -OEChem-07262101023D

 44 46  0     1  0  0  0  0  0999 V2000
   11.9780    0.4600   23.9150 C   0  0  0  0  0  0  0  0  0  0  0  0
   10.6560    0.0720   23.7350 C   0  0  0  0  0  0  0  0  0  0  0  0
   12.9840   -0.1200   23.1530 C   0  0  0  0  0  0  0  0  0  0  0  0
    6.2592    0.8791   17.4828 C   0  0  0  0  0  0  0  0  0  0  0  0
   11.3360   -1.5050   22.0650 C   0  0  0  0  0  0  0  0  0  0  0  0
    5.2767    1.7125   17.9927 C   0  0  0  0  0  0  0  0  0  0  0  0
    5.6064    0.9408   20.1314 C   0  0  0  0  0  0  0  0  0  0  0  0
   10.3220   -0.8940   22.7910 C   0  0  0  0  0  0  0  0  0  0  0  0
    6.9309    0.0459   18.3704 C   0  0  0  0  0  0  0  0  0  0  0  0
    6.6042    0.0711   19.7216 C   0  0  0  0  0  0  0  0  0  0  0  0
   12.6400   -1.1000   22.2390 C   0  0  0  0  0  0  0  0  0  0  0  0
    8.3880   -0.3240   21.3070 C   0  0  0  0  0  0  0  0  0  0  0  0
    5.1912   -3.0609   22.9041 C   0  0  0  0  0  0  0  0  0  0  0  0
    6.2373   -2.0765   22.4509 C   0  0  1  0  0  0  0  0  0  0  0  0
    6.6254   -3.2382   23.3285 C   0  0  2  0  0  0  0  0  0  0  0  0
    7.9945   -0.8632   17.8477 C   0  0  0  0  0  0  0  0  0  0  0  0
    8.8810   -1.1900   22.4510 C   0  0  0  0  0  0  0  0  0  0  0  0
    6.6647   -2.0421   21.0245 C   0  0  0  0  0  0  0  0  0  0  0  0
    7.0212   -3.0049   24.7454 C   0  0  0  0  0  0  0  0  0  0  0  0
    4.9317    1.7649   19.2988 N   0  0  0  0  0  0  0  0  0  0  0  0
    7.2820   -0.7860   20.6970 N   0  0  0  0  0  0  0  0  0  0  0  0
    8.9170    0.7530   21.0260 O   0  0  0  0  0  0  0  0  0  0  0  0
    8.3371   -2.6989   24.8505 F   0  0  0  0  0  0  0  0  0  0  0  0
    6.3236   -1.9814   25.2947 F   0  0  0  0  0  0  0  0  0  0  0  0
    6.7995   -4.1010   25.5106 F   0  0  0  0  0  0  0  0  0  0  0  0
   13.8840   -1.8490   21.2740 Cl  0  0  0  0  0  0  0  0  0  0  0  0
   12.2249    1.2198   24.6546 H   0  0  0  0  0  0  0  0  0  0  0  0
    9.8763    0.5350   24.3454 H   0  0  0  0  0  0  0  0  0  0  0  0
   14.0077    0.1988   23.2842 H   0  0  0  0  0  0  0  0  0  0  0  0
    6.4899    0.8835   16.4229 H   0  0  0  0  0  0  0  0  0  0  0  0
   11.0892   -2.3009   21.3624 H   0  0  0  0  0  0  0  0  0  0  0  0
    4.7233    2.3815   17.3420 H   0  0  0  0  0  0  0  0  0  0  0  0
    5.3068    1.0066   21.1732 H   0  0  0  0  0  0  0  0  0  0  0  0
    4.4712   -2.7245   23.6404 H   0  0  0  0  0  0  0  0  0  0  0  0
    4.7918   -3.7615   22.1807 H   0  0  0  0  0  0  0  0  0  0  0  0
    6.2139   -1.0855   22.8884 H   0  0  0  0  0  0  0  0  0  0  0  0
    7.1806   -4.0561   22.8848 H   0  0  0  0  0  0  0  0  0  0  0  0
    8.9685   -0.3609   17.8708 H   0  0  0  0  0  0  0  0  0  0  0  0
    8.0600   -1.7810   18.4450 H   0  0  0  0  0  0  0  0  0  0  0  0
    7.7827   -1.1684   16.8155 H   0  0  0  0  0  0  0  0  0  0  0  0
    8.8006   -2.2403   22.1717 H   0  0  0  0  0  0  0  0  0  0  0  0
    8.2668   -1.0117   23.3332 H   0  0  0  0  0  0  0  0  0  0  0  0
    7.3863   -2.8533   20.8448 H   0  0  0  0  0  0  0  0  0  0  0  0
    5.7841   -2.1868   20.3807 H   0  0  0  0  0  0  0  0  0  0  0  0
  1  2  2  0  0  0  0
  1  3  1  0  0  0  0
  2  8  1  0  0  0  0
  3 11  2  0  0  0  0
  4  6  2  0  0  0  0
  4  9  1  0  0  0  0
  5  8  2  0  0  0  0
  5 11  1  0  0  0  0
  6 20  1  0  0  0  0
  7 10  1  0  0  0  0
  7 20  2  0  0  0  0
  8 17  1  0  0  0  0
  9 10  2  0  0  0  0
  9 16  1  0  0  0  0
 10 21  1  0  0  0  0
 11 26  1  0  0  0  0
 12 17  1  0  0  0  0
 12 21  1  0  0  0  0
 12 22  2  0  0  0  0
 13 14  1  0  0  0  0
 13 15  1  0  0  0  0
 14 15  1  0  0  0  0
 14 18  1  6  0  0  0
 15 19  1  1  0  0  0
 18 21  1  0  0  0  0
 19 23  1  0  0  0  0
 19 24  1  0  0  0  0
 19 25  1  0  0  0  0
  1 27  1  0  0  0  0
  2 28  1  0  0  0  0
  3 29  1  0  0  0  0
  4 30  1  0  0  0  0
  5 31  1  0  0  0  0
  6 32  1  0  0  0  0
  7 33  1  0  0  0  0
 13 34  1  0  0  0  0
 13 35  1  0  0  0  0
 14 36  1  0  0  0  0
 15 37  1  0  0  0  0
 16 38  1  0  0  0  0
 16 39  1  0  0  0  0
 16 40  1  0  0  0  0
 17 41  1  0  0  0  0
 17 42  1  0  0  0  0
 18 43  1  0  0  0  0
 18 44  1  0  0  0  0
M  END
> <compound>
JOH-UNI-a38a7bdd-8

> <compound_smiles>
Cc1ccncc1N(CC2CC2C(F)(F)F)C(=O)Cc3cccc(c3)Cl

> <enantiomer_smiles>
Cc1ccncc1N(C[C@H]2C[C@@H]2C(F)(F)F)C(=O)Cc3cccc(c3)Cl

> <scaffold>
chlorobenzene-linker

> <clash_score>
0.7691996372859711

> <docking_score>
-5.15549373626709

> <overlap_score>
0.8389949798583984

> <MMFF_internal_energy>
129.56885333310532

> <docked_smiles>
Cc1ccncc1N(C[C@H]2C[C@@H]2C(F)(F)F)C(=O)Cc3cccc(c3)Cl

$$$$
JOH-UNI-a38a7bdd-5_2
  -OEChem-07262101023D

 43 46  0     1  0  0  0  0  0999 V2000
    3.6674    2.8217   20.3936 C   0  0  0  0  0  0  0  0  0  0  0  0
    4.2148    2.1184   21.4642 C   0  0  0  0  0  0  0  0  0  0  0  0
   11.9780    0.4600   23.9150 C   0  0  0  0  0  0  0  0  0  0  0  0
    4.1163    2.5784   19.0957 C   0  0  0  0  0  0  0  0  0  0  0  0
    5.2135    1.1688   21.2418 C   0  0  0  0  0  0  0  0  0  0  0  0
   10.6560    0.0720   23.7350 C   0  0  0  0  0  0  0  0  0  0  0  0
   12.9840   -0.1200   23.1530 C   0  0  0  0  0  0  0  0  0  0  0  0
   11.3360   -1.5050   22.0650 C   0  0  0  0  0  0  0  0  0  0  0  0
    5.6070    1.3418   17.5824 C   0  0  0  0  0  0  0  0  0  0  0  0
    7.0810   -0.2316   18.3741 C   0  0  0  0  0  0  0  0  0  0  0  0
    5.1207    1.6250   18.8602 C   0  0  0  0  0  0  0  0  0  0  0  0
    5.6773    0.9110   19.9414 C   0  0  0  0  0  0  0  0  0  0  0  0
   10.3220   -0.8940   22.7910 C   0  0  0  0  0  0  0  0  0  0  0  0
    6.6771   -0.0347   19.6858 C   0  0  0  0  0  0  0  0  0  0  0  0
   12.6400   -1.1000   22.2390 C   0  0  0  0  0  0  0  0  0  0  0  0
    6.7331   -2.0551   21.0900 C   0  0  0  0  0  0  0  0  0  0  0  0
    8.3880   -0.3240   21.3070 C   0  0  0  0  0  0  0  0  0  0  0  0
    6.7625   -3.1775   18.7817 C   0  0  0  0  0  0  0  0  0  0  0  0
    6.0317   -2.8693   20.0464 C   0  0  1  0  0  0  0  0  0  0  0  0
    6.5121   -4.2503   19.7914 C   0  0  2  0  0  0  0  0  0  0  0  0
    8.8810   -1.1900   22.4510 C   0  0  0  0  0  0  0  0  0  0  0  0
    6.5715    0.4327   17.3149 N   0  0  0  0  0  0  0  0  0  0  0  0
    7.2820   -0.7860   20.6970 N   0  0  0  0  0  0  0  0  0  0  0  0
    6.8243   -2.5215   22.2224 O   0  0  0  0  0  0  0  0  0  0  0  0
    8.9170    0.7530   21.0260 O   0  0  0  0  0  0  0  0  0  0  0  0
    5.5482   -5.1970   19.4926 F   0  0  0  0  0  0  0  0  0  0  0  0
   13.8840   -1.8490   21.2740 Cl  0  0  0  0  0  0  0  0  0  0  0  0
    2.8904    3.5597   20.5695 H   0  0  0  0  0  0  0  0  0  0  0  0
    3.8635    2.3092   22.4743 H   0  0  0  0  0  0  0  0  0  0  0  0
   12.2249    1.2198   24.6546 H   0  0  0  0  0  0  0  0  0  0  0  0
    3.6780    3.1362   18.2714 H   0  0  0  0  0  0  0  0  0  0  0  0
    5.6163    0.6409   22.1031 H   0  0  0  0  0  0  0  0  0  0  0  0
    9.8763    0.5350   24.3454 H   0  0  0  0  0  0  0  0  0  0  0  0
   14.0077    0.1988   23.2842 H   0  0  0  0  0  0  0  0  0  0  0  0
   11.0892   -2.3009   21.3624 H   0  0  0  0  0  0  0  0  0  0  0  0
    5.2216    1.8554   16.7058 H   0  0  0  0  0  0  0  0  0  0  0  0
    7.8525   -0.9542   18.1236 H   0  0  0  0  0  0  0  0  0  0  0  0
    6.1776   -3.1954   17.8704 H   0  0  0  0  0  0  0  0  0  0  0  0
    7.7817   -2.8338   18.6543 H   0  0  0  0  0  0  0  0  0  0  0  0
    4.9788   -2.6732   19.9973 H   0  0  0  0  0  0  0  0  0  0  0  0
    7.3340   -4.6847   20.3382 H   0  0  0  0  0  0  0  0  0  0  0  0
    8.7694   -2.2417   22.1619 H   0  0  0  0  0  0  0  0  0  0  0  0
    8.2806   -1.0404   23.3560 H   0  0  0  0  0  0  0  0  0  0  0  0
  1  2  1  0  0  0  0
  1  4  2  0  0  0  0
  2  5  2  0  0  0  0
  3  6  2  0  0  0  0
  3  7  1  0  0  0  0
  4 11  1  0  0  0  0
  5 12  1  0  0  0  0
  6 13  1  0  0  0  0
  7 15  2  0  0  0  0
  8 13  2  0  0  0  0
  8 15  1  0  0  0  0
  9 11  2  0  0  0  0
  9 22  1  0  0  0  0
 10 14  1  0  0  0  0
 10 22  2  0  0  0  0
 11 12  1  0  0  0  0
 12 14  2  0  0  0  0
 13 21  1  0  0  0  0
 14 23  1  0  0  0  0
 15 27  1  0  0  0  0
 16 19  1  6  0  0  0
 16 23  1  0  0  0  0
 16 24  2  0  0  0  0
 17 21  1  0  0  0  0
 17 23  1  0  0  0  0
 17 25  2  0  0  0  0
 18 19  1  0  0  0  0
 18 20  1  0  0  0  0
 19 20  1  0  0  0  0
 20 26  1  1  0  0  0
  1 28  1  0  0  0  0
  2 29  1  0  0  0  0
  3 30  1  0  0  0  0
  4 31  1  0  0  0  0
  5 32  1  0  0  0  0
  6 33  1  0  0  0  0
  7 34  1  0  0  0  0
  8 35  1  0  0  0  0
  9 36  1  0  0  0  0
 10 37  1  0  0  0  0
 18 38  1  0  0  0  0
 18 39  1  0  0  0  0
 19 40  1  0  0  0  0
 20 41  1  0  0  0  0
 21 42  1  0  0  0  0
 21 43  1  0  0  0  0
M  END
> <compound>
JOH-UNI-a38a7bdd-5

> <compound_smiles>
c1ccc2c(c1)cncc2N(C(=O)Cc3cccc(c3)Cl)C(=O)C4CC4F

> <enantiomer_smiles>
c1ccc2c(c1)cncc2N(C(=O)Cc3cccc(c3)Cl)C(=O)[C@H]4C[C@@H]4F

> <scaffold>
chlorobenzene-linker

> <clash_score>
1.3759695605554063

> <docking_score>
-6.696463584899902

> <overlap_score>
0.9793476462364197

> <MMFF_internal_energy>
105.69551104135145

> <docked_smiles>
c1ccc2c(c1)cncc2N(C(=O)Cc3cccc(c3)Cl)C(=O)[C@H]4C[C@@H]4F

$$$$
JOH-UNI-a38a7bdd-5_3
  -OEChem-07262101023D

 43 46  0     1  0  0  0  0  0999 V2000
    3.6674    2.8217   20.3936 C   0  0  0  0  0  0  0  0  0  0  0  0
    4.2148    2.1184   21.4642 C   0  0  0  0  0  0  0  0  0  0  0  0
   11.9780    0.4600   23.9150 C   0  0  0  0  0  0  0  0  0  0  0  0
    4.1163    2.5784   19.0957 C   0  0  0  0  0  0  0  0  0  0  0  0
    5.2135    1.1688   21.2418 C   0  0  0  0  0  0  0  0  0  0  0  0
   10.6560    0.0720   23.7350 C   0  0  0  0  0  0  0  0  0  0  0  0
   12.9840   -0.1200   23.1530 C   0  0  0  0  0  0  0  0  0  0  0  0
   11.3360   -1.5050   22.0650 C   0  0  0  0  0  0  0  0  0  0  0  0
    5.6070    1.3418   17.5824 C   0  0  0  0  0  0  0  0  0  0  0  0
    7.0810   -0.2316   18.3741 C   0  0  0  0  0  0  0  0  0  0  0  0
    5.1207    1.6250   18.8602 C   0  0  0  0  0  0  0  0  0  0  0  0
    5.6773    0.9110   19.9414 C   0  0  0  0  0  0  0  0  0  0  0  0
   10.3220   -0.8940   22.7910 C   0  0  0  0  0  0  0  0  0  0  0  0
    6.6771   -0.0347   19.6858 C   0  0  0  0  0  0  0  0  0  0  0  0
   12.6400   -1.1000   22.2390 C   0  0  0  0  0  0  0  0  0  0  0  0
    6.7331   -2.0551   21.0900 C   0  0  0  0  0  0  0  0  0  0  0  0
    8.3880   -0.3240   21.3070 C   0  0  0  0  0  0  0  0  0  0  0  0
    6.5138   -4.2592   19.7927 C   0  0  0  0  0  0  0  0  0  0  0  0
    6.0317   -2.8693   20.0464 C   0  0  2  0  0  0  0  0  0  0  0  0
    6.7580   -3.1788   18.7895 C   0  0  1  0  0  0  0  0  0  0  0  0
    8.8810   -1.1900   22.4510 C   0  0  0  0  0  0  0  0  0  0  0  0
    6.5715    0.4327   17.3149 N   0  0  0  0  0  0  0  0  0  0  0  0
    7.2820   -0.7860   20.6970 N   0  0  0  0  0  0  0  0  0  0  0  0
    6.8243   -2.5215   22.2224 O   0  0  0  0  0  0  0  0  0  0  0  0
    8.9170    0.7530   21.0260 O   0  0  0  0  0  0  0  0  0  0  0  0
    6.0058   -3.2027   17.6284 F   0  0  0  0  0  0  0  0  0  0  0  0
   13.8840   -1.8490   21.2740 Cl  0  0  0  0  0  0  0  0  0  0  0  0
    2.8904    3.5597   20.5695 H   0  0  0  0  0  0  0  0  0  0  0  0
    3.8635    2.3092   22.4743 H   0  0  0  0  0  0  0  0  0  0  0  0
   12.2249    1.2198   24.6546 H   0  0  0  0  0  0  0  0  0  0  0  0
    3.6780    3.1362   18.2714 H   0  0  0  0  0  0  0  0  0  0  0  0
    5.6163    0.6409   22.1031 H   0  0  0  0  0  0  0  0  0  0  0  0
    9.8763    0.5350   24.3454 H   0  0  0  0  0  0  0  0  0  0  0  0
   14.0077    0.1988   23.2842 H   0  0  0  0  0  0  0  0  0  0  0  0
   11.0892   -2.3009   21.3624 H   0  0  0  0  0  0  0  0  0  0  0  0
    5.2216    1.8554   16.7058 H   0  0  0  0  0  0  0  0  0  0  0  0
    7.8525   -0.9542   18.1236 H   0  0  0  0  0  0  0  0  0  0  0  0
    7.3668   -4.6389   20.3416 H   0  0  0  0  0  0  0  0  0  0  0  0
    5.7619   -5.0032   19.5605 H   0  0  0  0  0  0  0  0  0  0  0  0
    4.9788   -2.6731   19.9974 H   0  0  0  0  0  0  0  0  0  0  0  0
    7.7605   -2.8280   18.6015 H   0  0  0  0  0  0  0  0  0  0  0  0
    8.7694   -2.2417   22.1619 H   0  0  0  0  0  0  0  0  0  0  0  0
    8.2806   -1.0404   23.3560 H   0  0  0  0  0  0  0  0  0  0  0  0
  1  2  1  0  0  0  0
  1  4  2  0  0  0  0
  2  5  2  0  0  0  0
  3  6  2  0  0  0  0
  3  7  1  0  0  0  0
  4 11  1  0  0  0  0
  5 12  1  0  0  0  0
  6 13  1  0  0  0  0
  7 15  2  0  0  0  0
  8 13  2  0  0  0  0
  8 15  1  0  0  0  0
  9 11  2  0  0  0  0
  9 22  1  0  0  0  0
 10 14  1  0  0  0  0
 10 22  2  0  0  0  0
 11 12  1  0  0  0  0
 12 14  2  0  0  0  0
 13 21  1  0  0  0  0
 14 23  1  0  0  0  0
 15 27  1  0  0  0  0
 16 19  1  1  0  0  0
 16 23  1  0  0  0  0
 16 24  2  0  0  0  0
 17 21  1  0  0  0  0
 17 23  1  0  0  0  0
 17 25  2  0  0  0  0
 18 19  1  0  0  0  0
 18 20  1  0  0  0  0
 19 20  1  0  0  0  0
 20 26  1  6  0  0  0
  1 28  1  0  0  0  0
  2 29  1  0  0  0  0
  3 30  1  0  0  0  0
  4 31  1  0  0  0  0
  5 32  1  0  0  0  0
  6 33  1  0  0  0  0
  7 34  1  0  0  0  0
  8 35  1  0  0  0  0
  9 36  1  0  0  0  0
 10 37  1  0  0  0  0
 18 38  1  0  0  0  0
 18 39  1  0  0  0  0
 19 40  1  0  0  0  0
 20 41  1  0  0  0  0
 21 42  1  0  0  0  0
 21 43  1  0  0  0  0
M  END
> <compound>
JOH-UNI-a38a7bdd-5

> <compound_smiles>
c1ccc2c(c1)cncc2N(C(=O)Cc3cccc(c3)Cl)C(=O)C4CC4F

> <enantiomer_smiles>
c1ccc2c(c1)cncc2N(C(=O)Cc3cccc(c3)Cl)C(=O)[C@@H]4C[C@H]4F

> <scaffold>
chlorobenzene-linker

> <clash_score>
1.3750603995648154

> <docking_score>
-6.9852142333984375

> <overlap_score>
0.9797736406326294

> <MMFF_internal_energy>
107.213642226256

> <docked_smiles>
c1ccc2c(c1)cncc2N(C(=O)Cc3cccc(c3)Cl)C(=O)[C@@H]4C[C@H]4F

$$$$
JOH-UNI-ee5ed7c8-5_1
  -OEChem-07262101023D

 41 43  0     0  0  0  0  0  0999 V2000
    8.7423    2.5851   23.5528 C   0  0  0  0  0  0  0  0  0  0  0  0
    7.8353    1.9861   23.0424 C   0  0  0  0  0  0  0  0  0  0  0  0
    4.7669    3.6966   20.4509 C   0  0  0  0  0  0  0  0  0  0  0  0
   11.9780    0.4600   23.9150 C   0  0  0  0  0  0  0  0  0  0  0  0
    4.6822    3.0977   19.1942 C   0  0  0  0  0  0  0  0  0  0  0  0
    5.4504    3.0582   21.4831 C   0  0  0  0  0  0  0  0  0  0  0  0
   10.6560    0.0720   23.7350 C   0  0  0  0  0  0  0  0  0  0  0  0
   12.9840   -0.1200   23.1530 C   0  0  0  0  0  0  0  0  0  0  0  0
   11.3360   -1.5050   22.0650 C   0  0  0  0  0  0  0  0  0  0  0  0
    5.2305    1.2056   17.7242 C   0  0  0  0  0  0  0  0  0  0  0  0
    6.4509   -0.5862   18.4825 C   0  0  0  0  0  0  0  0  0  0  0  0
    5.2841    1.8499   18.9617 C   0  0  0  0  0  0  0  0  0  0  0  0
    5.9770    1.2004   20.0042 C   0  0  0  0  0  0  0  0  0  0  0  0
    6.0523    1.8180   21.2633 C   0  0  0  0  0  0  0  0  0  0  0  0
   10.3220   -0.8940   22.7910 C   0  0  0  0  0  0  0  0  0  0  0  0
    6.5697   -0.0423   19.7523 C   0  0  0  0  0  0  0  0  0  0  0  0
   12.6400   -1.1000   22.2390 C   0  0  0  0  0  0  0  0  0  0  0  0
    6.7360    1.2572   22.4259 C   0  0  0  0  0  0  0  0  0  0  0  0
    8.3880   -0.3240   21.3070 C   0  0  0  0  0  0  0  0  0  0  0  0
    6.7276   -2.1083   21.1210 C   0  0  0  0  0  0  0  0  0  0  0  0
    8.8810   -1.1900   22.4510 C   0  0  0  0  0  0  0  0  0  0  0  0
    5.7962    0.0060   17.4611 N   0  0  0  0  0  0  0  0  0  0  0  0
    7.2820   -0.7860   20.6970 N   0  0  0  0  0  0  0  0  0  0  0  0
    6.4287    0.1714   22.9291 O   0  0  0  0  0  0  0  0  0  0  0  0
    8.9170    0.7530   21.0260 O   0  0  0  0  0  0  0  0  0  0  0  0
   13.8840   -1.8490   21.2740 Cl  0  0  0  0  0  0  0  0  0  0  0  0
    9.5464    3.1173   24.0047 H   0  0  0  0  0  0  0  0  0  0  0  0
    4.3005    4.6623   20.6242 H   0  0  0  0  0  0  0  0  0  0  0  0
   12.2249    1.2198   24.6546 H   0  0  0  0  0  0  0  0  0  0  0  0
    4.1449    3.6101   18.3992 H   0  0  0  0  0  0  0  0  0  0  0  0
    5.5062    3.5416   22.4557 H   0  0  0  0  0  0  0  0  0  0  0  0
    9.8763    0.5350   24.3454 H   0  0  0  0  0  0  0  0  0  0  0  0
   14.0077    0.1988   23.2842 H   0  0  0  0  0  0  0  0  0  0  0  0
   11.0892   -2.3009   21.3624 H   0  0  0  0  0  0  0  0  0  0  0  0
    4.7127    1.6511   16.8790 H   0  0  0  0  0  0  0  0  0  0  0  0
    6.8927   -1.5475   18.2345 H   0  0  0  0  0  0  0  0  0  0  0  0
    7.1176   -2.8982   20.4623 H   0  0  0  0  0  0  0  0  0  0  0  0
    7.0273   -2.3155   22.1589 H   0  0  0  0  0  0  0  0  0  0  0  0
    5.6299   -2.0839   21.0542 H   0  0  0  0  0  0  0  0  0  0  0  0
    8.8006   -2.2403   22.1717 H   0  0  0  0  0  0  0  0  0  0  0  0
    8.2668   -1.0117   23.3332 H   0  0  0  0  0  0  0  0  0  0  0  0
  1  2  3  0  0  0  0
  2 18  1  0  0  0  0
  3  5  2  0  0  0  0
  3  6  1  0  0  0  0
  4  7  2  0  0  0  0
  4  8  1  0  0  0  0
  5 12  1  0  0  0  0
  6 14  2  0  0  0  0
  7 15  1  0  0  0  0
  8 17  2  0  0  0  0
  9 15  2  0  0  0  0
  9 17  1  0  0  0  0
 10 12  2  0  0  0  0
 10 22  1  0  0  0  0
 11 16  1  0  0  0  0
 11 22  2  0  0  0  0
 12 13  1  0  0  0  0
 13 14  1  0  0  0  0
 13 16  2  0  0  0  0
 14 18  1  0  0  0  0
 15 21  1  0  0  0  0
 16 23  1  0  0  0  0
 17 26  1  0  0  0  0
 18 24  2  0  0  0  0
 19 21  1  0  0  0  0
 19 23  1  0  0  0  0
 19 25  2  0  0  0  0
 20 23  1  0  0  0  0
  1 27  1  0  0  0  0
  3 28  1  0  0  0  0
  4 29  1  0  0  0  0
  5 30  1  0  0  0  0
  6 31  1  0  0  0  0
  7 32  1  0  0  0  0
  8 33  1  0  0  0  0
  9 34  1  0  0  0  0
 10 35  1  0  0  0  0
 11 36  1  0  0  0  0
 20 37  1  0  0  0  0
 20 38  1  0  0  0  0
 20 39  1  0  0  0  0
 21 40  1  0  0  0  0
 21 41  1  0  0  0  0
M  END
> <compound>
JOH-UNI-ee5ed7c8-5

> <compound_smiles>
CN(c1cncc2c1c(ccc2)C(=O)C#C)C(=O)Cc3cccc(c3)Cl

> <enantiomer_smiles>
CN(c1cncc2c1c(ccc2)C(=O)C#C)C(=O)Cc3cccc(c3)Cl

> <scaffold>
chlorobenzene-linker

> <clash_score>
0

> <docking_score>
-5.170976161956787

> <overlap_score>
0.8764673471450806

> <MMFF_internal_energy>
160.00164070059844

> <docked_smiles>
CN(c1cncc2c1c(ccc2)C(=O)C#C)C(=O)Cc3cccc(c3)Cl

$$$$
JOH-UNI-a38a7bdd-5_4
  -OEChem-07262101023D

 43 46  0     1  0  0  0  0  0999 V2000
    3.6674    2.8217   20.3936 C   0  0  0  0  0  0  0  0  0  0  0  0
    4.2148    2.1184   21.4642 C   0  0  0  0  0  0  0  0  0  0  0  0
   11.9780    0.4600   23.9150 C   0  0  0  0  0  0  0  0  0  0  0  0
    4.1163    2.5784   19.0957 C   0  0  0  0  0  0  0  0  0  0  0  0
    5.2135    1.1688   21.2418 C   0  0  0  0  0  0  0  0  0  0  0  0
   10.6560    0.0720   23.7350 C   0  0  0  0  0  0  0  0  0  0  0  0
   12.9840   -0.1200   23.1530 C   0  0  0  0  0  0  0  0  0  0  0  0
   11.3360   -1.5050   22.0650 C   0  0  0  0  0  0  0  0  0  0  0  0
    5.6070    1.3418   17.5824 C   0  0  0  0  0  0  0  0  0  0  0  0
    7.0810   -0.2316   18.3741 C   0  0  0  0  0  0  0  0  0  0  0  0
    5.1207    1.6250   18.8602 C   0  0  0  0  0  0  0  0  0  0  0  0
    5.6773    0.9110   19.9414 C   0  0  0  0  0  0  0  0  0  0  0  0
   10.3220   -0.8940   22.7910 C   0  0  0  0  0  0  0  0  0  0  0  0
    6.6771   -0.0347   19.6858 C   0  0  0  0  0  0  0  0  0  0  0  0
   12.6400   -1.1000   22.2390 C   0  0  0  0  0  0  0  0  0  0  0  0
    6.7331   -2.0551   21.0900 C   0  0  0  0  0  0  0  0  0  0  0  0
    8.3880   -0.3240   21.3070 C   0  0  0  0  0  0  0  0  0  0  0  0
    6.7597   -3.1721   18.7786 C   0  0  0  0  0  0  0  0  0  0  0  0
    6.0317   -2.8693   20.0464 C   0  0  1  0  0  0  0  0  0  0  0  0
    6.5092   -4.2496   19.7834 C   0  0  1  0  0  0  0  0  0  0  0  0
    8.8810   -1.1900   22.4510 C   0  0  0  0  0  0  0  0  0  0  0  0
    6.5715    0.4327   17.3149 N   0  0  0  0  0  0  0  0  0  0  0  0
    7.2820   -0.7860   20.6970 N   0  0  0  0  0  0  0  0  0  0  0  0
    6.8243   -2.5215   22.2224 O   0  0  0  0  0  0  0  0  0  0  0  0
    8.9170    0.7530   21.0260 O   0  0  0  0  0  0  0  0  0  0  0  0
    7.5995   -4.7350   20.4836 F   0  0  0  0  0  0  0  0  0  0  0  0
   13.8840   -1.8490   21.2740 Cl  0  0  0  0  0  0  0  0  0  0  0  0
    2.8904    3.5597   20.5695 H   0  0  0  0  0  0  0  0  0  0  0  0
    3.8635    2.3092   22.4743 H   0  0  0  0  0  0  0  0  0  0  0  0
   12.2249    1.2198   24.6546 H   0  0  0  0  0  0  0  0  0  0  0  0
    3.6780    3.1362   18.2714 H   0  0  0  0  0  0  0  0  0  0  0  0
    5.6163    0.6409   22.1031 H   0  0  0  0  0  0  0  0  0  0  0  0
    9.8763    0.5350   24.3454 H   0  0  0  0  0  0  0  0  0  0  0  0
   14.0077    0.1988   23.2842 H   0  0  0  0  0  0  0  0  0  0  0  0
   11.0892   -2.3009   21.3624 H   0  0  0  0  0  0  0  0  0  0  0  0
    5.2216    1.8554   16.7058 H   0  0  0  0  0  0  0  0  0  0  0  0
    7.8525   -0.9542   18.1236 H   0  0  0  0  0  0  0  0  0  0  0  0
    6.1725   -3.1835   17.8687 H   0  0  0  0  0  0  0  0  0  0  0  0
    7.7795   -2.8306   18.6507 H   0  0  0  0  0  0  0  0  0  0  0  0
    4.9788   -2.6720   19.9985 H   0  0  0  0  0  0  0  0  0  0  0  0
    5.7938   -5.0301   19.5781 H   0  0  0  0  0  0  0  0  0  0  0  0
    8.7694   -2.2417   22.1619 H   0  0  0  0  0  0  0  0  0  0  0  0
    8.2806   -1.0404   23.3560 H   0  0  0  0  0  0  0  0  0  0  0  0
  1  2  1  0  0  0  0
  1  4  2  0  0  0  0
  2  5  2  0  0  0  0
  3  6  2  0  0  0  0
  3  7  1  0  0  0  0
  4 11  1  0  0  0  0
  5 12  1  0  0  0  0
  6 13  1  0  0  0  0
  7 15  2  0  0  0  0
  8 13  2  0  0  0  0
  8 15  1  0  0  0  0
  9 11  2  0  0  0  0
  9 22  1  0  0  0  0
 10 14  1  0  0  0  0
 10 22  2  0  0  0  0
 11 12  1  0  0  0  0
 12 14  2  0  0  0  0
 13 21  1  0  0  0  0
 14 23  1  0  0  0  0
 15 27  1  0  0  0  0
 16 19  1  6  0  0  0
 16 23  1  0  0  0  0
 16 24  2  0  0  0  0
 17 21  1  0  0  0  0
 17 23  1  0  0  0  0
 17 25  2  0  0  0  0
 18 19  1  0  0  0  0
 18 20  1  0  0  0  0
 19 20  1  0  0  0  0
 20 26  1  6  0  0  0
  1 28  1  0  0  0  0
  2 29  1  0  0  0  0
  3 30  1  0  0  0  0
  4 31  1  0  0  0  0
  5 32  1  0  0  0  0
  6 33  1  0  0  0  0
  7 34  1  0  0  0  0
  8 35  1  0  0  0  0
  9 36  1  0  0  0  0
 10 37  1  0  0  0  0
 18 38  1  0  0  0  0
 18 39  1  0  0  0  0
 19 40  1  0  0  0  0
 20 41  1  0  0  0  0
 21 42  1  0  0  0  0
 21 43  1  0  0  0  0
M  END
> <compound>
JOH-UNI-a38a7bdd-5

> <compound_smiles>
c1ccc2c(c1)cncc2N(C(=O)Cc3cccc(c3)Cl)C(=O)C4CC4F

> <enantiomer_smiles>
c1ccc2c(c1)cncc2N(C(=O)Cc3cccc(c3)Cl)C(=O)[C@H]4C[C@H]4F

> <scaffold>
chlorobenzene-linker

> <clash_score>
2.048571766881464

> <docking_score>
-6.879359245300293

> <overlap_score>
0.9793002605438232

> <MMFF_internal_energy>
106.7676571109494

> <docked_smiles>
c1ccc2c(c1)cncc2N(C(=O)Cc3cccc(c3)Cl)C(=O)[C@H]4C[C@H]4F

$$$$
JOH-UNI-a38a7bdd-7_1
  -OEChem-07262101023D

 43 45  0     1  0  0  0  0  0999 V2000
   11.9780    0.4600   23.9150 C   0  0  0  0  0  0  0  0  0  0  0  0
   10.6560    0.0720   23.7350 C   0  0  0  0  0  0  0  0  0  0  0  0
   12.9840   -0.1200   23.1530 C   0  0  0  0  0  0  0  0  0  0  0  0
    5.1698    1.7288   18.8947 C   0  0  0  0  0  0  0  0  0  0  0  0
   11.3360   -1.5050   22.0650 C   0  0  0  0  0  0  0  0  0  0  0  0
    5.6345    1.4946   17.6106 C   0  0  0  0  0  0  0  0  0  0  0  0
    7.0838   -0.1338   18.3359 C   0  0  0  0  0  0  0  0  0  0  0  0
   10.3220   -0.8940   22.7910 C   0  0  0  0  0  0  0  0  0  0  0  0
    5.7113    0.9754   19.9303 C   0  0  0  0  0  0  0  0  0  0  0  0
    6.6871    0.0242   19.6541 C   0  0  0  0  0  0  0  0  0  0  0  0
   12.6400   -1.1000   22.2390 C   0  0  0  0  0  0  0  0  0  0  0  0
    6.6796   -2.0211   21.0228 C   0  0  0  0  0  0  0  0  0  0  0  0
    8.3880   -0.3240   21.3070 C   0  0  0  0  0  0  0  0  0  0  0  0
    4.1432   -1.9183   20.6304 C   0  0  0  0  0  0  0  0  0  0  0  0
    5.4861   -2.4167   20.2086 C   0  0  2  0  0  0  0  0  0  0  0  0
    4.4849   -3.3748   20.7683 C   0  0  2  0  0  0  0  0  0  0  0  0
    5.2291    1.2076   21.3247 C   0  0  0  0  0  0  0  0  0  0  0  0
    8.8810   -1.1900   22.4510 C   0  0  0  0  0  0  0  0  0  0  0  0
    4.6093   -3.9864   22.1220 C   0  0  0  0  0  0  0  0  0  0  0  0
    6.5809    0.5794   17.3034 N   0  0  0  0  0  0  0  0  0  0  0  0
    7.2820   -0.7860   20.6970 N   0  0  0  0  0  0  0  0  0  0  0  0
    7.0801   -2.8044   21.8797 O   0  0  0  0  0  0  0  0  0  0  0  0
    8.9170    0.7530   21.0260 O   0  0  0  0  0  0  0  0  0  0  0  0
    5.3821   -5.0986   22.0952 F   0  0  0  0  0  0  0  0  0  0  0  0
    5.1690   -3.1259   23.0059 F   0  0  0  0  0  0  0  0  0  0  0  0
    3.4006   -4.3456   22.6171 F   0  0  0  0  0  0  0  0  0  0  0  0
   13.8840   -1.8490   21.2740 Cl  0  0  0  0  0  0  0  0  0  0  0  0
   12.2249    1.2198   24.6546 H   0  0  0  0  0  0  0  0  0  0  0  0
    9.8763    0.5350   24.3454 H   0  0  0  0  0  0  0  0  0  0  0  0
   14.0077    0.1988   23.2842 H   0  0  0  0  0  0  0  0  0  0  0  0
    4.4074    2.4786   19.0767 H   0  0  0  0  0  0  0  0  0  0  0  0
   11.0892   -2.3009   21.3624 H   0  0  0  0  0  0  0  0  0  0  0  0
    5.2445    2.0558   16.7679 H   0  0  0  0  0  0  0  0  0  0  0  0
    7.8412   -0.8604   18.0569 H   0  0  0  0  0  0  0  0  0  0  0  0
    4.0538   -1.3201   21.5294 H   0  0  0  0  0  0  0  0  0  0  0  0
    3.4565   -1.6352   19.8414 H   0  0  0  0  0  0  0  0  0  0  0  0
    5.7031   -2.4655   19.1583 H   0  0  0  0  0  0  0  0  0  0  0  0
    4.0366   -4.0643   20.0617 H   0  0  0  0  0  0  0  0  0  0  0  0
    4.3754    0.5562   21.5447 H   0  0  0  0  0  0  0  0  0  0  0  0
    6.0208    1.0056   22.0566 H   0  0  0  0  0  0  0  0  0  0  0  0
    4.9197    2.2502   21.4685 H   0  0  0  0  0  0  0  0  0  0  0  0
    8.7694   -2.2417   22.1619 H   0  0  0  0  0  0  0  0  0  0  0  0
    8.2806   -1.0404   23.3560 H   0  0  0  0  0  0  0  0  0  0  0  0
  1  2  2  0  0  0  0
  1  3  1  0  0  0  0
  2  8  1  0  0  0  0
  3 11  2  0  0  0  0
  4  6  2  0  0  0  0
  4  9  1  0  0  0  0
  5  8  2  0  0  0  0
  5 11  1  0  0  0  0
  6 20  1  0  0  0  0
  7 10  1  0  0  0  0
  7 20  2  0  0  0  0
  8 18  1  0  0  0  0
  9 10  2  0  0  0  0
  9 17  1  0  0  0  0
 10 21  1  0  0  0  0
 11 27  1  0  0  0  0
 12 15  1  1  0  0  0
 12 21  1  0  0  0  0
 12 22  2  0  0  0  0
 13 18  1  0  0  0  0
 13 21  1  0  0  0  0
 13 23  2  0  0  0  0
 14 15  1  0  0  0  0
 14 16  1  0  0  0  0
 15 16  1  0  0  0  0
 16 19  1  1  0  0  0
 19 24  1  0  0  0  0
 19 25  1  0  0  0  0
 19 26  1  0  0  0  0
  1 28  1  0  0  0  0
  2 29  1  0  0  0  0
  3 30  1  0  0  0  0
  4 31  1  0  0  0  0
  5 32  1  0  0  0  0
  6 33  1  0  0  0  0
  7 34  1  0  0  0  0
 14 35  1  0  0  0  0
 14 36  1  0  0  0  0
 15 37  1  0  0  0  0
 16 38  1  0  0  0  0
 17 39  1  0  0  0  0
 17 40  1  0  0  0  0
 17 41  1  0  0  0  0
 18 42  1  0  0  0  0
 18 43  1  0  0  0  0
M  END
> <compound>
JOH-UNI-a38a7bdd-7

> <compound_smiles>
Cc1ccncc1N(C(=O)Cc2cccc(c2)Cl)C(=O)C3CC3C(F)(F)F

> <enantiomer_smiles>
Cc1ccncc1N(C(=O)Cc2cccc(c2)Cl)C(=O)[C@@H]3C[C@@H]3C(F)(F)F

> <scaffold>
chlorobenzene-linker

> <clash_score>
4.7562512421267975

> <docking_score>
-4.192937850952148

> <overlap_score>
0.8581100702285767

> <MMFF_internal_energy>
111.34226553392227

> <docked_smiles>
Cc1ccncc1N(C(=O)Cc2cccc(c2)Cl)C(=O)[C@@H]3C[C@@H]3C(F)(F)F

$$$$
JOH-UNI-a38a7bdd-7_2
  -OEChem-07262101023D

 43 45  0     1  0  0  0  0  0999 V2000
   11.9780    0.4600   23.9150 C   0  0  0  0  0  0  0  0  0  0  0  0
   10.6560    0.0720   23.7350 C   0  0  0  0  0  0  0  0  0  0  0  0
   12.9840   -0.1200   23.1530 C   0  0  0  0  0  0  0  0  0  0  0  0
    5.7452    0.6296   17.5876 C   0  0  0  0  0  0  0  0  0  0  0  0
   11.3360   -1.5050   22.0650 C   0  0  0  0  0  0  0  0  0  0  0  0
    6.7276    0.2468   16.6886 C   0  0  0  0  0  0  0  0  0  0  0  0
    7.9780   -0.7461   18.3405 C   0  0  0  0  0  0  0  0  0  0  0  0
   10.3220   -0.8940   22.7910 C   0  0  0  0  0  0  0  0  0  0  0  0
    5.9193    0.2912   18.9250 C   0  0  0  0  0  0  0  0  0  0  0  0
    7.0544   -0.4097   19.3169 C   0  0  0  0  0  0  0  0  0  0  0  0
   12.6400   -1.1000   22.2390 C   0  0  0  0  0  0  0  0  0  0  0  0
    6.3392   -1.6206   21.3367 C   0  0  0  0  0  0  0  0  0  0  0  0
    8.3880   -0.3240   21.3070 C   0  0  0  0  0  0  0  0  0  0  0  0
    5.0359   -2.1343   23.4877 C   0  0  0  0  0  0  0  0  0  0  0  0
    6.1465   -1.4054   22.8065 C   0  0  1  0  0  0  0  0  0  0  0  0
    6.4632   -2.5349   23.7314 C   0  0  2  0  0  0  0  0  0  0  0  0
    4.8760    0.6918   19.9159 C   0  0  0  0  0  0  0  0  0  0  0  0
    8.8810   -1.1900   22.4510 C   0  0  0  0  0  0  0  0  0  0  0  0
    7.1089   -2.2461   25.0425 C   0  0  0  0  0  0  0  0  0  0  0  0
    7.8435   -0.4348   17.0318 N   0  0  0  0  0  0  0  0  0  0  0  0
    7.2820   -0.7860   20.6970 N   0  0  0  0  0  0  0  0  0  0  0  0
    5.6436   -2.4660   20.7801 O   0  0  0  0  0  0  0  0  0  0  0  0
    8.9170    0.7530   21.0260 O   0  0  0  0  0  0  0  0  0  0  0  0
    8.4578   -2.1863   24.9301 F   0  0  0  0  0  0  0  0  0  0  0  0
    6.6931   -1.0612   25.5513 F   0  0  0  0  0  0  0  0  0  0  0  0
    6.8222   -3.2020   25.9591 F   0  0  0  0  0  0  0  0  0  0  0  0
   13.8840   -1.8490   21.2740 Cl  0  0  0  0  0  0  0  0  0  0  0  0
   12.2249    1.2198   24.6546 H   0  0  0  0  0  0  0  0  0  0  0  0
    9.8763    0.5350   24.3454 H   0  0  0  0  0  0  0  0  0  0  0  0
   14.0077    0.1988   23.2842 H   0  0  0  0  0  0  0  0  0  0  0  0
    4.8714    1.1760   17.2494 H   0  0  0  0  0  0  0  0  0  0  0  0
   11.0892   -2.3009   21.3624 H   0  0  0  0  0  0  0  0  0  0  0  0
    6.6393    0.4866   15.6341 H   0  0  0  0  0  0  0  0  0  0  0  0
    8.8839   -1.2935   18.5840 H   0  0  0  0  0  0  0  0  0  0  0  0
    4.5072   -1.5994   24.2676 H   0  0  0  0  0  0  0  0  0  0  0  0
    4.4139   -2.8148   22.9182 H   0  0  0  0  0  0  0  0  0  0  0  0
    6.3594   -0.3991   23.1116 H   0  0  0  0  0  0  0  0  0  0  0  0
    6.7931   -3.4823   23.3210 H   0  0  0  0  0  0  0  0  0  0  0  0
    4.1175   -0.0941   20.0074 H   0  0  0  0  0  0  0  0  0  0  0  0
    5.3162    0.8698   20.9047 H   0  0  0  0  0  0  0  0  0  0  0  0
    4.3803    1.6230   19.6147 H   0  0  0  0  0  0  0  0  0  0  0  0
    8.7694   -2.2417   22.1619 H   0  0  0  0  0  0  0  0  0  0  0  0
    8.2806   -1.0404   23.3560 H   0  0  0  0  0  0  0  0  0  0  0  0
  1  2  2  0  0  0  0
  1  3  1  0  0  0  0
  2  8  1  0  0  0  0
  3 11  2  0  0  0  0
  4  6  2  0  0  0  0
  4  9  1  0  0  0  0
  5  8  2  0  0  0  0
  5 11  1  0  0  0  0
  6 20  1  0  0  0  0
  7 10  1  0  0  0  0
  7 20  2  0  0  0  0
  8 18  1  0  0  0  0
  9 10  2  0  0  0  0
  9 17  1  0  0  0  0
 10 21  1  0  0  0  0
 11 27  1  0  0  0  0
 12 15  1  6  0  0  0
 12 21  1  0  0  0  0
 12 22  2  0  0  0  0
 13 18  1  0  0  0  0
 13 21  1  0  0  0  0
 13 23  2  0  0  0  0
 14 15  1  0  0  0  0
 14 16  1  0  0  0  0
 15 16  1  0  0  0  0
 16 19  1  1  0  0  0
 19 24  1  0  0  0  0
 19 25  1  0  0  0  0
 19 26  1  0  0  0  0
  1 28  1  0  0  0  0
  2 29  1  0  0  0  0
  3 30  1  0  0  0  0
  4 31  1  0  0  0  0
  5 32  1  0  0  0  0
  6 33  1  0  0  0  0
  7 34  1  0  0  0  0
 14 35  1  0  0  0  0
 14 36  1  0  0  0  0
 15 37  1  0  0  0  0
 16 38  1  0  0  0  0
 17 39  1  0  0  0  0
 17 40  1  0  0  0  0
 17 41  1  0  0  0  0
 18 42  1  0  0  0  0
 18 43  1  0  0  0  0
M  END
> <compound>
JOH-UNI-a38a7bdd-7

> <compound_smiles>
Cc1ccncc1N(C(=O)Cc2cccc(c2)Cl)C(=O)C3CC3C(F)(F)F

> <enantiomer_smiles>
Cc1ccncc1N(C(=O)Cc2cccc(c2)Cl)C(=O)[C@H]3C[C@@H]3C(F)(F)F

> <scaffold>
chlorobenzene-linker

> <clash_score>
1.4847131555000566

> <docking_score>
-4.309848785400391

> <overlap_score>
0.7987371683120728

> <MMFF_internal_energy>
111.64124964291214

> <docked_smiles>
Cc1ccncc1N(C(=O)Cc2cccc(c2)Cl)C(=O)[C@H]3C[C@@H]3C(F)(F)F

$$$$
JOH-UNI-a38a7bdd-6_4
  -OEChem-07262101023D

 46 49  0     1  0  0  0  0  0999 V2000
    3.6674    2.8217   20.3936 C   0  0  0  0  0  0  0  0  0  0  0  0
    4.2148    2.1184   21.4642 C   0  0  0  0  0  0  0  0  0  0  0  0
   11.9780    0.4600   23.9150 C   0  0  0  0  0  0  0  0  0  0  0  0
    4.1163    2.5784   19.0957 C   0  0  0  0  0  0  0  0  0  0  0  0
    5.2135    1.1688   21.2418 C   0  0  0  0  0  0  0  0  0  0  0  0
   10.6560    0.0720   23.7350 C   0  0  0  0  0  0  0  0  0  0  0  0
   12.9840   -0.1200   23.1530 C   0  0  0  0  0  0  0  0  0  0  0  0
   11.3360   -1.5050   22.0650 C   0  0  0  0  0  0  0  0  0  0  0  0
    5.6070    1.3418   17.5824 C   0  0  0  0  0  0  0  0  0  0  0  0
    7.0810   -0.2316   18.3741 C   0  0  0  0  0  0  0  0  0  0  0  0
    5.1207    1.6250   18.8602 C   0  0  0  0  0  0  0  0  0  0  0  0
    5.6773    0.9110   19.9414 C   0  0  0  0  0  0  0  0  0  0  0  0
   10.3220   -0.8940   22.7910 C   0  0  0  0  0  0  0  0  0  0  0  0
    6.6771   -0.0347   19.6858 C   0  0  0  0  0  0  0  0  0  0  0  0
   12.6400   -1.1000   22.2390 C   0  0  0  0  0  0  0  0  0  0  0  0
    6.7331   -2.0551   21.0900 C   0  0  0  0  0  0  0  0  0  0  0  0
    8.3880   -0.3240   21.3070 C   0  0  0  0  0  0  0  0  0  0  0  0
    6.7472   -3.1505   18.7666 C   0  0  0  0  0  0  0  0  0  0  0  0
    6.0317   -2.8693   20.0464 C   0  0  1  0  0  0  0  0  0  0  0  0
    6.4942   -4.2587   19.7489 C   0  0  1  0  0  0  0  0  0  0  0  0
    8.8810   -1.1900   22.4510 C   0  0  0  0  0  0  0  0  0  0  0  0
    7.6372   -4.9060   20.4537 C   0  0  0  0  0  0  0  0  0  0  0  0
    6.5715    0.4327   17.3149 N   0  0  0  0  0  0  0  0  0  0  0  0
    7.2820   -0.7860   20.6970 N   0  0  0  0  0  0  0  0  0  0  0  0
    6.8243   -2.5215   22.2224 O   0  0  0  0  0  0  0  0  0  0  0  0
    8.9170    0.7530   21.0260 O   0  0  0  0  0  0  0  0  0  0  0  0
    8.2066   -5.8717   19.6933 F   0  0  0  0  0  0  0  0  0  0  0  0
    8.6046   -4.0083   20.7590 F   0  0  0  0  0  0  0  0  0  0  0  0
    7.2418   -5.4847   21.6129 F   0  0  0  0  0  0  0  0  0  0  0  0
   13.8840   -1.8490   21.2740 Cl  0  0  0  0  0  0  0  0  0  0  0  0
    2.8904    3.5597   20.5695 H   0  0  0  0  0  0  0  0  0  0  0  0
    3.8635    2.3092   22.4743 H   0  0  0  0  0  0  0  0  0  0  0  0
   12.2249    1.2198   24.6546 H   0  0  0  0  0  0  0  0  0  0  0  0
    3.6780    3.1362   18.2714 H   0  0  0  0  0  0  0  0  0  0  0  0
    5.6163    0.6409   22.1031 H   0  0  0  0  0  0  0  0  0  0  0  0
    9.8763    0.5350   24.3454 H   0  0  0  0  0  0  0  0  0  0  0  0
   14.0077    0.1988   23.2842 H   0  0  0  0  0  0  0  0  0  0  0  0
   11.0892   -2.3009   21.3624 H   0  0  0  0  0  0  0  0  0  0  0  0
    5.2216    1.8554   16.7058 H   0  0  0  0  0  0  0  0  0  0  0  0
    7.8525   -0.9542   18.1236 H   0  0  0  0  0  0  0  0  0  0  0  0
    6.1530   -3.1360   17.8605 H   0  0  0  0  0  0  0  0  0  0  0  0
    7.7632   -2.7981   18.6341 H   0  0  0  0  0  0  0  0  0  0  0  0
    4.9784   -2.6653   20.0056 H   0  0  0  0  0  0  0  0  0  0  0  0
    5.7203   -4.9781   19.5051 H   0  0  0  0  0  0  0  0  0  0  0  0
    8.7694   -2.2417   22.1619 H   0  0  0  0  0  0  0  0  0  0  0  0
    8.2806   -1.0404   23.3560 H   0  0  0  0  0  0  0  0  0  0  0  0
  1  2  1  0  0  0  0
  1  4  2  0  0  0  0
  2  5  2  0  0  0  0
  3  6  2  0  0  0  0
  3  7  1  0  0  0  0
  4 11  1  0  0  0  0
  5 12  1  0  0  0  0
  6 13  1  0  0  0  0
  7 15  2  0  0  0  0
  8 13  2  0  0  0  0
  8 15  1  0  0  0  0
  9 11  2  0  0  0  0
  9 23  1  0  0  0  0
 10 14  1  0  0  0  0
 10 23  2  0  0  0  0
 11 12  1  0  0  0  0
 12 14  2  0  0  0  0
 13 21  1  0  0  0  0
 14 24  1  0  0  0  0
 15 30  1  0  0  0  0
 16 19  1  6  0  0  0
 16 24  1  0  0  0  0
 16 25  2  0  0  0  0
 17 21  1  0  0  0  0
 17 24  1  0  0  0  0
 17 26  2  0  0  0  0
 18 19  1  0  0  0  0
 18 20  1  0  0  0  0
 19 20  1  0  0  0  0
 20 22  1  6  0  0  0
 22 27  1  0  0  0  0
 22 28  1  0  0  0  0
 22 29  1  0  0  0  0
  1 31  1  0  0  0  0
  2 32  1  0  0  0  0
  3 33  1  0  0  0  0
  4 34  1  0  0  0  0
  5 35  1  0  0  0  0
  6 36  1  0  0  0  0
  7 37  1  0  0  0  0
  8 38  1  0  0  0  0
  9 39  1  0  0  0  0
 10 40  1  0  0  0  0
 18 41  1  0  0  0  0
 18 42  1  0  0  0  0
 19 43  1  0  0  0  0
 20 44  1  0  0  0  0
 21 45  1  0  0  0  0
 21 46  1  0  0  0  0
M  END
> <compound>
JOH-UNI-a38a7bdd-6

> <compound_smiles>
c1ccc2c(c1)cncc2N(C(=O)Cc3cccc(c3)Cl)C(=O)C4CC4C(F)(F)F

> <enantiomer_smiles>
c1ccc2c(c1)cncc2N(C(=O)Cc3cccc(c3)Cl)C(=O)[C@H]4C[C@H]4C(F)(F)F

> <scaffold>
chlorobenzene-linker

> <clash_score>
3.422893155779018

> <docking_score>
-4.858240127563477

> <overlap_score>
0.9723606705665588

> <MMFF_internal_energy>
125.86821345400232

> <docked_smiles>
c1ccc2c(c1)cncc2N(C(=O)Cc3cccc(c3)Cl)C(=O)[C@H]4C[C@H]4C(F)(F)F

$$$$
JOH-UNI-ee5ed7c8-1_1
  -OEChem-07262101023D

 38 40  0     0  0  0  0  0  0999 V2000
    6.6891    2.4949   23.9431 C   0  0  0  0  0  0  0  0  0  0  0  0
    6.2123    1.6883   23.1921 C   0  0  0  0  0  0  0  0  0  0  0  0
    3.4323    2.5429   19.9366 C   0  0  0  0  0  0  0  0  0  0  0  0
   11.9780    0.4600   23.9150 C   0  0  0  0  0  0  0  0  0  0  0  0
    3.8711    2.1147   18.6839 C   0  0  0  0  0  0  0  0  0  0  0  0
    4.0389    2.0561   21.0921 C   0  0  0  0  0  0  0  0  0  0  0  0
   10.6560    0.0720   23.7350 C   0  0  0  0  0  0  0  0  0  0  0  0
   12.9840   -0.1200   23.1530 C   0  0  0  0  0  0  0  0  0  0  0  0
   11.3360   -1.5050   22.0650 C   0  0  0  0  0  0  0  0  0  0  0  0
    5.4039    0.7296   17.3521 C   0  0  0  0  0  0  0  0  0  0  0  0
    6.9812   -0.6095   18.3490 C   0  0  0  0  0  0  0  0  0  0  0  0
    4.9250    1.1918   18.5795 C   0  0  0  0  0  0  0  0  0  0  0  0
    5.5418    0.6966   19.7470 C   0  0  0  0  0  0  0  0  0  0  0  0
    5.0872    1.1388   21.0002 C   0  0  0  0  0  0  0  0  0  0  0  0
   10.3220   -0.8940   22.7910 C   0  0  0  0  0  0  0  0  0  0  0  0
    6.5902   -0.2222   19.6216 C   0  0  0  0  0  0  0  0  0  0  0  0
   12.6400   -1.1000   22.2390 C   0  0  0  0  0  0  0  0  0  0  0  0
    5.6349    0.7078   22.2837 C   0  0  0  0  0  0  0  0  0  0  0  0
    8.3880   -0.3240   21.3070 C   0  0  0  0  0  0  0  0  0  0  0  0
    8.8810   -1.1900   22.4510 C   0  0  0  0  0  0  0  0  0  0  0  0
    6.4149   -0.1570   17.2101 N   0  0  0  0  0  0  0  0  0  0  0  0
    7.2820   -0.7860   20.6970 N   0  0  0  0  0  0  0  0  0  0  0  0
    5.6381   -0.4714   22.6529 O   0  0  0  0  0  0  0  0  0  0  0  0
    8.9170    0.7530   21.0260 O   0  0  0  0  0  0  0  0  0  0  0  0
   13.8840   -1.8490   21.2740 Cl  0  0  0  0  0  0  0  0  0  0  0  0
    7.1116    3.2111   24.6083 H   0  0  0  0  0  0  0  0  0  0  0  0
    2.6176    3.2577   20.0109 H   0  0  0  0  0  0  0  0  0  0  0  0
   12.2249    1.2198   24.6546 H   0  0  0  0  0  0  0  0  0  0  0  0
    3.3864    2.5050   17.7918 H   0  0  0  0  0  0  0  0  0  0  0  0
    3.6833    2.4026   22.0596 H   0  0  0  0  0  0  0  0  0  0  0  0
    9.8763    0.5350   24.3454 H   0  0  0  0  0  0  0  0  0  0  0  0
   14.0077    0.1988   23.2842 H   0  0  0  0  0  0  0  0  0  0  0  0
   11.0892   -2.3008   21.3624 H   0  0  0  0  0  0  0  0  0  0  0  0
    4.9732    1.0710   16.4146 H   0  0  0  0  0  0  0  0  0  0  0  0
    7.7897   -1.3193   18.1964 H   0  0  0  0  0  0  0  0  0  0  0  0
    8.7774   -2.2383   22.1732 H   0  0  0  0  0  0  0  0  0  0  0  0
    8.2557   -1.0153   23.3257 H   0  0  0  0  0  0  0  0  0  0  0  0
    6.8982   -1.6620   21.0675 H   0  0  0  0  0  0  0  0  0  0  0  0
  1  2  3  0  0  0  0
  2 18  1  0  0  0  0
  3  5  1  0  0  0  0
  3  6  2  0  0  0  0
  4  7  2  0  0  0  0
  4  8  1  0  0  0  0
  5 12  2  0  0  0  0
  6 14  1  0  0  0  0
  7 15  1  0  0  0  0
  8 17  2  0  0  0  0
  9 15  2  0  0  0  0
  9 17  1  0  0  0  0
 10 12  1  0  0  0  0
 10 21  2  0  0  0  0
 11 16  2  0  0  0  0
 11 21  1  0  0  0  0
 12 13  1  0  0  0  0
 13 14  2  0  0  0  0
 13 16  1  0  0  0  0
 14 18  1  0  0  0  0
 15 20  1  0  0  0  0
 16 22  1  0  0  0  0
 17 25  1  0  0  0  0
 18 23  2  0  0  0  0
 19 20  1  0  0  0  0
 19 22  1  0  0  0  0
 19 24  2  0  0  0  0
  1 26  1  0  0  0  0
  3 27  1  0  0  0  0
  4 28  1  0  0  0  0
  5 29  1  0  0  0  0
  6 30  1  0  0  0  0
  7 31  1  0  0  0  0
  8 32  1  0  0  0  0
  9 33  1  0  0  0  0
 10 34  1  0  0  0  0
 11 35  1  0  0  0  0
 20 36  1  0  0  0  0
 20 37  1  0  0  0  0
 22 38  1  0  0  0  0
M  END
> <compound>
JOH-UNI-ee5ed7c8-1

> <compound_smiles>
C#CC(=O)c1cccc2c1c(cnc2)NC(=O)Cc3cccc(c3)Cl

> <enantiomer_smiles>
C#CC(=O)c1cccc2c1c(cnc2)NC(=O)Cc3cccc(c3)Cl

> <scaffold>
chlorobenzene-linker

> <clash_score>
0

> <docking_score>
-11.401322364807129

> <overlap_score>
1.0

> <MMFF_internal_energy>
123.29573303551784

> <docked_smiles>
C#CC(=O)c1cccc2c1c(cnc2)NC(=O)Cc3cccc(c3)Cl

$$$$
JOH-UNI-a38a7bdd-9_4
  -OEChem-07262101023D

 41 43  0     1  0  0  0  0  0999 V2000
   11.9780    0.4600   23.9150 C   0  0  0  0  0  0  0  0  0  0  0  0
   10.6560    0.0720   23.7350 C   0  0  0  0  0  0  0  0  0  0  0  0
   12.9840   -0.1200   23.1530 C   0  0  0  0  0  0  0  0  0  0  0  0
    5.1343    1.7026   18.8987 C   0  0  0  0  0  0  0  0  0  0  0  0
   11.3360   -1.5050   22.0650 C   0  0  0  0  0  0  0  0  0  0  0  0
    5.5896    1.4647   17.6119 C   0  0  0  0  0  0  0  0  0  0  0  0
    7.0577   -0.1484   18.3336 C   0  0  0  0  0  0  0  0  0  0  0  0
   10.3220   -0.8940   22.7910 C   0  0  0  0  0  0  0  0  0  0  0  0
    5.6907    0.9593   19.9338 C   0  0  0  0  0  0  0  0  0  0  0  0
    6.6714    0.0141   19.6543 C   0  0  0  0  0  0  0  0  0  0  0  0
   12.6400   -1.1000   22.2390 C   0  0  0  0  0  0  0  0  0  0  0  0
    8.3880   -0.3240   21.3070 C   0  0  0  0  0  0  0  0  0  0  0  0
    5.2287   -3.0914   22.9618 C   0  0  0  0  0  0  0  0  0  0  0  0
    6.2572   -2.0991   22.4847 C   0  0  1  0  0  0  0  0  0  0  0  0
    6.6616   -3.2343   23.3754 C   0  0  1  0  0  0  0  0  0  0  0  0
    5.2189    1.1956   21.3310 C   0  0  0  0  0  0  0  0  0  0  0  0
    8.8810   -1.1900   22.4510 C   0  0  0  0  0  0  0  0  0  0  0  0
    6.6710   -2.0764   21.0526 C   0  0  0  0  0  0  0  0  0  0  0  0
    6.5404    0.5551   17.3015 N   0  0  0  0  0  0  0  0  0  0  0  0
    7.2820   -0.7860   20.6970 N   0  0  0  0  0  0  0  0  0  0  0  0
    8.9170    0.7530   21.0260 O   0  0  0  0  0  0  0  0  0  0  0  0
    7.3845   -4.2766   22.8229 F   0  0  0  0  0  0  0  0  0  0  0  0
   13.8840   -1.8490   21.2740 Cl  0  0  0  0  0  0  0  0  0  0  0  0
   12.2249    1.2198   24.6546 H   0  0  0  0  0  0  0  0  0  0  0  0
    9.8763    0.5350   24.3454 H   0  0  0  0  0  0  0  0  0  0  0  0
   14.0077    0.1988   23.2842 H   0  0  0  0  0  0  0  0  0  0  0  0
    4.3678    2.4475   19.0832 H   0  0  0  0  0  0  0  0  0  0  0  0
   11.0892   -2.3009   21.3624 H   0  0  0  0  0  0  0  0  0  0  0  0
    5.1879    2.0181   16.7695 H   0  0  0  0  0  0  0  0  0  0  0  0
    7.8183   -0.8707   18.0520 H   0  0  0  0  0  0  0  0  0  0  0  0
    4.5187   -2.7596   23.7092 H   0  0  0  0  0  0  0  0  0  0  0  0
    4.8347   -3.8107   22.2548 H   0  0  0  0  0  0  0  0  0  0  0  0
    6.2350   -1.1059   22.9168 H   0  0  0  0  0  0  0  0  0  0  0  0
    6.9541   -3.0494   24.3968 H   0  0  0  0  0  0  0  0  0  0  0  0
    4.3723    0.5389   21.5622 H   0  0  0  0  0  0  0  0  0  0  0  0
    6.0185    1.0039   22.0570 H   0  0  0  0  0  0  0  0  0  0  0  0
    4.9027    2.2367   21.4717 H   0  0  0  0  0  0  0  0  0  0  0  0
    8.7925   -2.2408   22.1686 H   0  0  0  0  0  0  0  0  0  0  0  0
    8.2587   -1.0122   23.3300 H   0  0  0  0  0  0  0  0  0  0  0  0
    7.4014   -2.8800   20.8772 H   0  0  0  0  0  0  0  0  0  0  0  0
    5.7860   -2.2409   20.4205 H   0  0  0  0  0  0  0  0  0  0  0  0
  1  2  2  0  0  0  0
  1  3  1  0  0  0  0
  2  8  1  0  0  0  0
  3 11  2  0  0  0  0
  4  6  2  0  0  0  0
  4  9  1  0  0  0  0
  5  8  2  0  0  0  0
  5 11  1  0  0  0  0
  6 19  1  0  0  0  0
  7 10  1  0  0  0  0
  7 19  2  0  0  0  0
  8 17  1  0  0  0  0
  9 10  2  0  0  0  0
  9 16  1  0  0  0  0
 10 20  1  0  0  0  0
 11 23  1  0  0  0  0
 12 17  1  0  0  0  0
 12 20  1  0  0  0  0
 12 21  2  0  0  0  0
 13 14  1  0  0  0  0
 13 15  1  0  0  0  0
 14 15  1  0  0  0  0
 14 18  1  6  0  0  0
 15 22  1  6  0  0  0
 18 20  1  0  0  0  0
  1 24  1  0  0  0  0
  2 25  1  0  0  0  0
  3 26  1  0  0  0  0
  4 27  1  0  0  0  0
  5 28  1  0  0  0  0
  6 29  1  0  0  0  0
  7 30  1  0  0  0  0
 13 31  1  0  0  0  0
 13 32  1  0  0  0  0
 14 33  1  0  0  0  0
 15 34  1  0  0  0  0
 16 35  1  0  0  0  0
 16 36  1  0  0  0  0
 16 37  1  0  0  0  0
 17 38  1  0  0  0  0
 17 39  1  0  0  0  0
 18 40  1  0  0  0  0
 18 41  1  0  0  0  0
M  END
> <compound>
JOH-UNI-a38a7bdd-9

> <compound_smiles>
Cc1ccncc1N(CC2CC2F)C(=O)Cc3cccc(c3)Cl

> <enantiomer_smiles>
Cc1ccncc1N(C[C@H]2C[C@H]2F)C(=O)Cc3cccc(c3)Cl

> <scaffold>
chlorobenzene-linker

> <clash_score>
0.7590523385504485

> <docking_score>
-9.192480087280273

> <overlap_score>
0.8627414107322693

> <MMFF_internal_energy>
99.07328335846931

> <docked_smiles>
Cc1ccncc1N(C[C@H]2C[C@H]2F)C(=O)Cc3cccc(c3)Cl

$$$$
DAR-DIA-076fb6ea-4_1
  -OEChem-07262101023D

 43 44  0     0  0  0  0  0  0999 V2000
   11.9780    0.4600   23.9150 C   0  0  0  0  0  0  0  0  0  0  0  0
   10.6560    0.0720   23.7350 C   0  0  0  0  0  0  0  0  0  0  0  0
   12.9840   -0.1200   23.1530 C   0  0  0  0  0  0  0  0  0  0  0  0
    5.1827    1.7073   18.8490 C   0  0  0  0  0  0  0  0  0  0  0  0
   11.3360   -1.5050   22.0650 C   0  0  0  0  0  0  0  0  0  0  0  0
    5.6650    1.4659   17.5727 C   0  0  0  0  0  0  0  0  0  0  0  0
    7.1114   -0.1512   18.3284 C   0  0  0  0  0  0  0  0  0  0  0  0
   10.3220   -0.8940   22.7910 C   0  0  0  0  0  0  0  0  0  0  0  0
    5.7138    0.9637   19.8969 C   0  0  0  0  0  0  0  0  0  0  0  0
    6.6971    0.0146   19.6401 C   0  0  0  0  0  0  0  0  0  0  0  0
   12.6400   -1.1000   22.2390 C   0  0  0  0  0  0  0  0  0  0  0  0
    5.9426   -2.6540   19.8793 C   0  0  0  0  0  0  0  0  0  0  0  0
    4.8787   -3.4290   20.1210 C   0  0  0  0  0  0  0  0  0  0  0  0
    6.6749   -2.0204   21.0184 C   0  0  0  0  0  0  0  0  0  0  0  0
    4.1682   -4.0579   18.9857 C   0  0  0  0  0  0  0  0  0  0  0  0
    8.3880   -0.3240   21.3070 C   0  0  0  0  0  0  0  0  0  0  0  0
    5.2127    1.2038   21.2832 C   0  0  0  0  0  0  0  0  0  0  0  0
    2.3303   -5.4681   18.5322 C   0  0  0  0  0  0  0  0  0  0  0  0
    8.8810   -1.1900   22.4510 C   0  0  0  0  0  0  0  0  0  0  0  0
    6.6191    0.5525   17.2843 N   0  0  0  0  0  0  0  0  0  0  0  0
    7.2820   -0.7860   20.6970 N   0  0  0  0  0  0  0  0  0  0  0  0
    6.6998   -2.5470   22.1299 O   0  0  0  0  0  0  0  0  0  0  0  0
    4.4672   -3.9354   17.8084 O   0  0  0  0  0  0  0  0  0  0  0  0
    8.9170    0.7530   21.0260 O   0  0  0  0  0  0  0  0  0  0  0  0
    3.1371   -4.7836   19.4964 O   0  0  0  0  0  0  0  0  0  0  0  0
   13.8840   -1.8490   21.2740 Cl  0  0  0  0  0  0  0  0  0  0  0  0
   12.2249    1.2198   24.6546 H   0  0  0  0  0  0  0  0  0  0  0  0
    9.8763    0.5350   24.3454 H   0  0  0  0  0  0  0  0  0  0  0  0
   14.0077    0.1988   23.2842 H   0  0  0  0  0  0  0  0  0  0  0  0
    4.4150    2.4553   19.0156 H   0  0  0  0  0  0  0  0  0  0  0  0
   11.0892   -2.3009   21.3624 H   0  0  0  0  0  0  0  0  0  0  0  0
    5.2836    2.0195   16.7210 H   0  0  0  0  0  0  0  0  0  0  0  0
    7.8753   -0.8766   18.0645 H   0  0  0  0  0  0  0  0  0  0  0  0
    6.3111   -2.4825   18.8737 H   0  0  0  0  0  0  0  0  0  0  0  0
    4.5073   -3.6126   21.1233 H   0  0  0  0  0  0  0  0  0  0  0  0
    4.3589    0.5504   21.4969 H   0  0  0  0  0  0  0  0  0  0  0  0
    5.9956    1.0104   22.0267 H   0  0  0  0  0  0  0  0  0  0  0  0
    4.8972    2.2461   21.4155 H   0  0  0  0  0  0  0  0  0  0  0  0
    1.5361   -6.0169   19.0443 H   0  0  0  0  0  0  0  0  0  0  0  0
    2.9536   -6.1586   17.9585 H   0  0  0  0  0  0  0  0  0  0  0  0
    1.8853   -4.7343   17.8559 H   0  0  0  0  0  0  0  0  0  0  0  0
    8.8011   -2.2572   22.2121 H   0  0  0  0  0  0  0  0  0  0  0  0
    8.2426   -1.0087   23.3240 H   0  0  0  0  0  0  0  0  0  0  0  0
  1  2  2  0  0  0  0
  1  3  1  0  0  0  0
  2  8  1  0  0  0  0
  3 11  2  0  0  0  0
  4  6  2  0  0  0  0
  4  9  1  0  0  0  0
  5  8  2  0  0  0  0
  5 11  1  0  0  0  0
  6 20  1  0  0  0  0
  7 10  1  0  0  0  0
  7 20  2  0  0  0  0
  8 19  1  0  0  0  0
  9 10  2  0  0  0  0
  9 17  1  0  0  0  0
 10 21  1  0  0  0  0
 11 26  1  0  0  0  0
 12 13  2  0  0  0  0
 12 14  1  0  0  0  0
 13 15  1  0  0  0  0
 14 21  1  0  0  0  0
 14 22  2  0  0  0  0
 15 23  2  0  0  0  0
 15 25  1  0  0  0  0
 16 19  1  0  0  0  0
 16 21  1  0  0  0  0
 16 24  2  0  0  0  0
 18 25  1  0  0  0  0
  1 27  1  0  0  0  0
  2 28  1  0  0  0  0
  3 29  1  0  0  0  0
  4 30  1  0  0  0  0
  5 31  1  0  0  0  0
  6 32  1  0  0  0  0
  7 33  1  0  0  0  0
 12 34  1  0  0  0  0
 13 35  1  0  0  0  0
 17 36  1  0  0  0  0
 17 37  1  0  0  0  0
 17 38  1  0  0  0  0
 18 39  1  0  0  0  0
 18 40  1  0  0  0  0
 18 41  1  0  0  0  0
 19 42  1  0  0  0  0
 19 43  1  0  0  0  0
M  END
> <compound>
DAR-DIA-076fb6ea-4

> <compound_smiles>
Cc1ccncc1N(C(=O)Cc2cccc(c2)Cl)C(=O)/C=C/C(=O)OC

> <enantiomer_smiles>
Cc1ccncc1N(C(=O)Cc2cccc(c2)Cl)C(=O)/C=C/C(=O)OC

> <scaffold>
chlorobenzene-linker

> <clash_score>
9.772288678066843

> <docking_score>
-4.34079647064209

> <overlap_score>
0.8589010834693909

> <MMFF_internal_energy>
60.91717938156049

> <docked_smiles>
Cc1ccncc1N(C(=O)Cc2cccc(c2)Cl)C(=O)/C=C/C(=O)OC

$$$$
JOH-UNI-ee5ed7c8-3_1
  -OEChem-07262101023D

 40 42  0     0  0  0  0  0  0999 V2000
    3.4304    2.5406   19.9380 C   0  0  0  0  0  0  0  0  0  0  0  0
   11.9780    0.4600   23.9150 C   0  0  0  0  0  0  0  0  0  0  0  0
    3.8690    2.1126   18.6851 C   0  0  0  0  0  0  0  0  0  0  0  0
    4.0380    2.0542   21.0932 C   0  0  0  0  0  0  0  0  0  0  0  0
   10.6560    0.0720   23.7350 C   0  0  0  0  0  0  0  0  0  0  0  0
   12.9840   -0.1200   23.1530 C   0  0  0  0  0  0  0  0  0  0  0  0
   11.3360   -1.5050   22.0650 C   0  0  0  0  0  0  0  0  0  0  0  0
    5.4022    0.7285   17.3527 C   0  0  0  0  0  0  0  0  0  0  0  0
    6.9809   -0.6094   18.3489 C   0  0  0  0  0  0  0  0  0  0  0  0
    4.9235    1.1905   18.5803 C   0  0  0  0  0  0  0  0  0  0  0  0
    5.5412    0.6958   19.7475 C   0  0  0  0  0  0  0  0  0  0  0  0
   10.3220   -0.8940   22.7910 C   0  0  0  0  0  0  0  0  0  0  0  0
    5.0868    1.1377   21.0009 C   0  0  0  0  0  0  0  0  0  0  0  0
    6.5902   -0.2223   19.6217 C   0  0  0  0  0  0  0  0  0  0  0  0
   12.6400   -1.1000   22.2390 C   0  0  0  0  0  0  0  0  0  0  0  0
    8.3880   -0.3240   21.3070 C   0  0  0  0  0  0  0  0  0  0  0  0
    8.8810   -1.1900   22.4510 C   0  0  0  0  0  0  0  0  0  0  0  0
    5.6590    0.6877   22.3099 C   0  0  0  0  0  0  0  0  0  0  0  0
    6.1760    1.8415   23.1501 C   0  0  0  0  0  0  0  0  0  0  0  0
    6.4137   -0.1574   17.2102 N   0  0  0  0  0  0  0  0  0  0  0  0
    7.2820   -0.7860   20.6970 N   0  0  0  0  0  0  0  0  0  0  0  0
    8.9170    0.7530   21.0260 O   0  0  0  0  0  0  0  0  0  0  0  0
    7.1904    2.4726   22.5160 F   0  0  0  0  0  0  0  0  0  0  0  0
    6.6460    1.4154   24.3416 F   0  0  0  0  0  0  0  0  0  0  0  0
    5.2115    2.7570   23.3825 F   0  0  0  0  0  0  0  0  0  0  0  0
   13.8840   -1.8490   21.2740 Cl  0  0  0  0  0  0  0  0  0  0  0  0
    2.6145    3.2536   20.0124 H   0  0  0  0  0  0  0  0  0  0  0  0
   12.2249    1.2198   24.6546 H   0  0  0  0  0  0  0  0  0  0  0  0
    3.3839    2.5026   17.7933 H   0  0  0  0  0  0  0  0  0  0  0  0
    3.6839    2.3969   22.0624 H   0  0  0  0  0  0  0  0  0  0  0  0
    9.8763    0.5350   24.3454 H   0  0  0  0  0  0  0  0  0  0  0  0
   14.0077    0.1988   23.2842 H   0  0  0  0  0  0  0  0  0  0  0  0
   11.0892   -2.3009   21.3624 H   0  0  0  0  0  0  0  0  0  0  0  0
    4.9706    1.0693   16.4155 H   0  0  0  0  0  0  0  0  0  0  0  0
    7.7890   -1.3194   18.1960 H   0  0  0  0  0  0  0  0  0  0  0  0
    8.7774   -2.2383   22.1732 H   0  0  0  0  0  0  0  0  0  0  0  0
    8.2557   -1.0153   23.3257 H   0  0  0  0  0  0  0  0  0  0  0  0
    6.4748   -0.0289   22.1364 H   0  0  0  0  0  0  0  0  0  0  0  0
    4.8992    0.1350   22.8812 H   0  0  0  0  0  0  0  0  0  0  0  0
    6.8982   -1.6620   21.0675 H   0  0  0  0  0  0  0  0  0  0  0  0
  1  3  2  0  0  0  0
  1  4  1  0  0  0  0
  2  5  1  0  0  0  0
  2  6  2  0  0  0  0
  3 10  1  0  0  0  0
  4 13  2  0  0  0  0
  5 12  2  0  0  0  0
  6 15  1  0  0  0  0
  7 12  1  0  0  0  0
  7 15  2  0  0  0  0
  8 10  2  0  0  0  0
  8 20  1  0  0  0  0
  9 14  1  0  0  0  0
  9 20  2  0  0  0  0
 10 11  1  0  0  0  0
 11 13  1  0  0  0  0
 11 14  2  0  0  0  0
 12 17  1  0  0  0  0
 13 18  1  0  0  0  0
 14 21  1  0  0  0  0
 15 26  1  0  0  0  0
 16 17  1  0  0  0  0
 16 21  1  0  0  0  0
 16 22  2  0  0  0  0
 18 19  1  0  0  0  0
 19 23  1  0  0  0  0
 19 24  1  0  0  0  0
 19 25  1  0  0  0  0
  1 27  1  0  0  0  0
  2 28  1  0  0  0  0
  3 29  1  0  0  0  0
  4 30  1  0  0  0  0
  5 31  1  0  0  0  0
  6 32  1  0  0  0  0
  7 33  1  0  0  0  0
  8 34  1  0  0  0  0
  9 35  1  0  0  0  0
 17 36  1  0  0  0  0
 17 37  1  0  0  0  0
 18 38  1  0  0  0  0
 18 39  1  0  0  0  0
 21 40  1  0  0  0  0
M  END
> <compound>
JOH-UNI-ee5ed7c8-3

> <compound_smiles>
c1cc(cc(c1)Cl)CC(=O)Nc2cncc3c2c(ccc3)CC(F)(F)F

> <enantiomer_smiles>
c1cc(cc(c1)Cl)CC(=O)Nc2cncc3c2c(ccc3)CC(F)(F)F

> <scaffold>
chlorobenzene-linker

> <clash_score>
0

> <docking_score>
-10.636716842651367

> <overlap_score>
1.0

> <MMFF_internal_energy>
153.07784823948802

> <docked_smiles>
c1cc(cc(c1)Cl)CC(=O)Nc2cncc3c2c(ccc3)CC(F)(F)F

$$$$
JOH-UNI-a38a7bdd-6_3
  -OEChem-07262101023D

 46 49  0     1  0  0  0  0  0999 V2000
    3.6674    2.8217   20.3936 C   0  0  0  0  0  0  0  0  0  0  0  0
    4.2148    2.1184   21.4642 C   0  0  0  0  0  0  0  0  0  0  0  0
   11.9780    0.4600   23.9150 C   0  0  0  0  0  0  0  0  0  0  0  0
    4.1163    2.5784   19.0957 C   0  0  0  0  0  0  0  0  0  0  0  0
    5.2135    1.1688   21.2418 C   0  0  0  0  0  0  0  0  0  0  0  0
   10.6560    0.0720   23.7350 C   0  0  0  0  0  0  0  0  0  0  0  0
   12.9840   -0.1200   23.1530 C   0  0  0  0  0  0  0  0  0  0  0  0
   11.3360   -1.5050   22.0650 C   0  0  0  0  0  0  0  0  0  0  0  0
    5.6070    1.3418   17.5824 C   0  0  0  0  0  0  0  0  0  0  0  0
    7.0810   -0.2316   18.3741 C   0  0  0  0  0  0  0  0  0  0  0  0
    5.1207    1.6250   18.8602 C   0  0  0  0  0  0  0  0  0  0  0  0
    5.6773    0.9110   19.9414 C   0  0  0  0  0  0  0  0  0  0  0  0
   10.3220   -0.8940   22.7910 C   0  0  0  0  0  0  0  0  0  0  0  0
    6.6771   -0.0347   19.6858 C   0  0  0  0  0  0  0  0  0  0  0  0
   12.6400   -1.1000   22.2390 C   0  0  0  0  0  0  0  0  0  0  0  0
    6.7331   -2.0551   21.0900 C   0  0  0  0  0  0  0  0  0  0  0  0
    8.3880   -0.3240   21.3070 C   0  0  0  0  0  0  0  0  0  0  0  0
    6.5012   -4.2657   19.8051 C   0  0  0  0  0  0  0  0  0  0  0  0
    6.0317   -2.8693   20.0464 C   0  0  2  0  0  0  0  0  0  0  0  0
    6.7724   -3.1919   18.7899 C   0  0  1  0  0  0  0  0  0  0  0  0
    8.8810   -1.1900   22.4510 C   0  0  0  0  0  0  0  0  0  0  0  0
    6.0434   -3.1879   17.4908 C   0  0  0  0  0  0  0  0  0  0  0  0
    6.5715    0.4327   17.3149 N   0  0  0  0  0  0  0  0  0  0  0  0
    7.2820   -0.7860   20.6970 N   0  0  0  0  0  0  0  0  0  0  0  0
    6.8243   -2.5215   22.2224 O   0  0  0  0  0  0  0  0  0  0  0  0
    8.9170    0.7530   21.0260 O   0  0  0  0  0  0  0  0  0  0  0  0
    6.6329   -4.0077   16.5872 F   0  0  0  0  0  0  0  0  0  0  0  0
    4.7624   -3.6039   17.6380 F   0  0  0  0  0  0  0  0  0  0  0  0
    6.0052   -1.9478   16.9460 F   0  0  0  0  0  0  0  0  0  0  0  0
   13.8840   -1.8490   21.2740 Cl  0  0  0  0  0  0  0  0  0  0  0  0
    2.8904    3.5597   20.5695 H   0  0  0  0  0  0  0  0  0  0  0  0
    3.8635    2.3092   22.4743 H   0  0  0  0  0  0  0  0  0  0  0  0
   12.2249    1.2198   24.6546 H   0  0  0  0  0  0  0  0  0  0  0  0
    3.6780    3.1362   18.2714 H   0  0  0  0  0  0  0  0  0  0  0  0
    5.6163    0.6409   22.1031 H   0  0  0  0  0  0  0  0  0  0  0  0
    9.8763    0.5350   24.3454 H   0  0  0  0  0  0  0  0  0  0  0  0
   14.0077    0.1988   23.2842 H   0  0  0  0  0  0  0  0  0  0  0  0
   11.0892   -2.3009   21.3624 H   0  0  0  0  0  0  0  0  0  0  0  0
    5.2216    1.8554   16.7058 H   0  0  0  0  0  0  0  0  0  0  0  0
    7.8525   -0.9542   18.1236 H   0  0  0  0  0  0  0  0  0  0  0  0
    7.3449   -4.6509   20.3654 H   0  0  0  0  0  0  0  0  0  0  0  0
    5.7404   -5.0056   19.5865 H   0  0  0  0  0  0  0  0  0  0  0  0
    4.9785   -2.6699   20.0007 H   0  0  0  0  0  0  0  0  0  0  0  0
    7.7977   -2.8595   18.6763 H   0  0  0  0  0  0  0  0  0  0  0  0
    8.7694   -2.2417   22.1619 H   0  0  0  0  0  0  0  0  0  0  0  0
    8.2806   -1.0404   23.3560 H   0  0  0  0  0  0  0  0  0  0  0  0
  1  2  1  0  0  0  0
  1  4  2  0  0  0  0
  2  5  2  0  0  0  0
  3  6  2  0  0  0  0
  3  7  1  0  0  0  0
  4 11  1  0  0  0  0
  5 12  1  0  0  0  0
  6 13  1  0  0  0  0
  7 15  2  0  0  0  0
  8 13  2  0  0  0  0
  8 15  1  0  0  0  0
  9 11  2  0  0  0  0
  9 23  1  0  0  0  0
 10 14  1  0  0  0  0
 10 23  2  0  0  0  0
 11 12  1  0  0  0  0
 12 14  2  0  0  0  0
 13 21  1  0  0  0  0
 14 24  1  0  0  0  0
 15 30  1  0  0  0  0
 16 19  1  1  0  0  0
 16 24  1  0  0  0  0
 16 25  2  0  0  0  0
 17 21  1  0  0  0  0
 17 24  1  0  0  0  0
 17 26  2  0  0  0  0
 18 19  1  0  0  0  0
 18 20  1  0  0  0  0
 19 20  1  0  0  0  0
 20 22  1  6  0  0  0
 22 27  1  0  0  0  0
 22 28  1  0  0  0  0
 22 29  1  0  0  0  0
  1 31  1  0  0  0  0
  2 32  1  0  0  0  0
  3 33  1  0  0  0  0
  4 34  1  0  0  0  0
  5 35  1  0  0  0  0
  6 36  1  0  0  0  0
  7 37  1  0  0  0  0
  8 38  1  0  0  0  0
  9 39  1  0  0  0  0
 10 40  1  0  0  0  0
 18 41  1  0  0  0  0
 18 42  1  0  0  0  0
 19 43  1  0  0  0  0
 20 44  1  0  0  0  0
 21 45  1  0  0  0  0
 21 46  1  0  0  0  0
M  END
> <compound>
JOH-UNI-a38a7bdd-6

> <compound_smiles>
c1ccc2c(c1)cncc2N(C(=O)Cc3cccc(c3)Cl)C(=O)C4CC4C(F)(F)F

> <enantiomer_smiles>
c1ccc2c(c1)cncc2N(C(=O)Cc3cccc(c3)Cl)C(=O)[C@@H]4C[C@H]4C(F)(F)F

> <scaffold>
chlorobenzene-linker

> <clash_score>
5.762769793060439

> <docking_score>
-3.6461191177368164

> <overlap_score>
0.9760709404945374

> <MMFF_internal_energy>
135.6681657217702

> <docked_smiles>
c1ccc2c(c1)cncc2N(C(=O)Cc3cccc(c3)Cl)C(=O)[C@@H]4C[C@H]4C(F)(F)F

$$$$
JOH-UNI-a38a7bdd-6_2
  -OEChem-07262101023D

 46 49  0     1  0  0  0  0  0999 V2000
    3.6674    2.8217   20.3936 C   0  0  0  0  0  0  0  0  0  0  0  0
    4.2148    2.1184   21.4642 C   0  0  0  0  0  0  0  0  0  0  0  0
   11.9780    0.4600   23.9150 C   0  0  0  0  0  0  0  0  0  0  0  0
    4.1163    2.5784   19.0957 C   0  0  0  0  0  0  0  0  0  0  0  0
    5.2135    1.1688   21.2418 C   0  0  0  0  0  0  0  0  0  0  0  0
   10.6560    0.0720   23.7350 C   0  0  0  0  0  0  0  0  0  0  0  0
   12.9840   -0.1200   23.1530 C   0  0  0  0  0  0  0  0  0  0  0  0
   11.3360   -1.5050   22.0650 C   0  0  0  0  0  0  0  0  0  0  0  0
    5.6070    1.3418   17.5824 C   0  0  0  0  0  0  0  0  0  0  0  0
    7.0810   -0.2316   18.3741 C   0  0  0  0  0  0  0  0  0  0  0  0
    5.1207    1.6250   18.8602 C   0  0  0  0  0  0  0  0  0  0  0  0
    5.6773    0.9110   19.9414 C   0  0  0  0  0  0  0  0  0  0  0  0
   10.3220   -0.8940   22.7910 C   0  0  0  0  0  0  0  0  0  0  0  0
    6.6771   -0.0347   19.6858 C   0  0  0  0  0  0  0  0  0  0  0  0
   12.6400   -1.1000   22.2390 C   0  0  0  0  0  0  0  0  0  0  0  0
    6.7331   -2.0551   21.0900 C   0  0  0  0  0  0  0  0  0  0  0  0
    8.3880   -0.3240   21.3070 C   0  0  0  0  0  0  0  0  0  0  0  0
    6.7552   -3.1610   18.7736 C   0  0  0  0  0  0  0  0  0  0  0  0
    6.0317   -2.8693   20.0464 C   0  0  1  0  0  0  0  0  0  0  0  0
    6.5285   -4.2527   19.7805 C   0  0  2  0  0  0  0  0  0  0  0  0
    8.8810   -1.1900   22.4510 C   0  0  0  0  0  0  0  0  0  0  0  0
    5.5486   -5.3391   19.4997 C   0  0  0  0  0  0  0  0  0  0  0  0
    6.5715    0.4327   17.3149 N   0  0  0  0  0  0  0  0  0  0  0  0
    7.2820   -0.7860   20.6970 N   0  0  0  0  0  0  0  0  0  0  0  0
    6.8243   -2.5215   22.2224 O   0  0  0  0  0  0  0  0  0  0  0  0
    8.9170    0.7530   21.0260 O   0  0  0  0  0  0  0  0  0  0  0  0
    5.0944   -5.9069   20.6431 F   0  0  0  0  0  0  0  0  0  0  0  0
    4.4705   -4.8739   18.8237 F   0  0  0  0  0  0  0  0  0  0  0  0
    6.1002   -6.3247   18.7511 F   0  0  0  0  0  0  0  0  0  0  0  0
   13.8840   -1.8490   21.2740 Cl  0  0  0  0  0  0  0  0  0  0  0  0
    2.8904    3.5597   20.5695 H   0  0  0  0  0  0  0  0  0  0  0  0
    3.8635    2.3092   22.4743 H   0  0  0  0  0  0  0  0  0  0  0  0
   12.2249    1.2198   24.6546 H   0  0  0  0  0  0  0  0  0  0  0  0
    3.6780    3.1362   18.2714 H   0  0  0  0  0  0  0  0  0  0  0  0
    5.6163    0.6409   22.1031 H   0  0  0  0  0  0  0  0  0  0  0  0
    9.8763    0.5350   24.3454 H   0  0  0  0  0  0  0  0  0  0  0  0
   14.0077    0.1988   23.2842 H   0  0  0  0  0  0  0  0  0  0  0  0
   11.0892   -2.3009   21.3624 H   0  0  0  0  0  0  0  0  0  0  0  0
    5.2216    1.8554   16.7058 H   0  0  0  0  0  0  0  0  0  0  0  0
    7.8525   -0.9542   18.1236 H   0  0  0  0  0  0  0  0  0  0  0  0
    6.1641   -3.1624   17.8655 H   0  0  0  0  0  0  0  0  0  0  0  0
    7.7695   -2.8037   18.6406 H   0  0  0  0  0  0  0  0  0  0  0  0
    4.9785   -2.6698   20.0008 H   0  0  0  0  0  0  0  0  0  0  0  0
    7.3927   -4.6208   20.3211 H   0  0  0  0  0  0  0  0  0  0  0  0
    8.7694   -2.2417   22.1619 H   0  0  0  0  0  0  0  0  0  0  0  0
    8.2806   -1.0404   23.3560 H   0  0  0  0  0  0  0  0  0  0  0  0
  1  2  1  0  0  0  0
  1  4  2  0  0  0  0
  2  5  2  0  0  0  0
  3  6  2  0  0  0  0
  3  7  1  0  0  0  0
  4 11  1  0  0  0  0
  5 12  1  0  0  0  0
  6 13  1  0  0  0  0
  7 15  2  0  0  0  0
  8 13  2  0  0  0  0
  8 15  1  0  0  0  0
  9 11  2  0  0  0  0
  9 23  1  0  0  0  0
 10 14  1  0  0  0  0
 10 23  2  0  0  0  0
 11 12  1  0  0  0  0
 12 14  2  0  0  0  0
 13 21  1  0  0  0  0
 14 24  1  0  0  0  0
 15 30  1  0  0  0  0
 16 19  1  6  0  0  0
 16 24  1  0  0  0  0
 16 25  2  0  0  0  0
 17 21  1  0  0  0  0
 17 24  1  0  0  0  0
 17 26  2  0  0  0  0
 18 19  1  0  0  0  0
 18 20  1  0  0  0  0
 19 20  1  0  0  0  0
 20 22  1  1  0  0  0
 22 27  1  0  0  0  0
 22 28  1  0  0  0  0
 22 29  1  0  0  0  0
  1 31  1  0  0  0  0
  2 32  1  0  0  0  0
  3 33  1  0  0  0  0
  4 34  1  0  0  0  0
  5 35  1  0  0  0  0
  6 36  1  0  0  0  0
  7 37  1  0  0  0  0
  8 38  1  0  0  0  0
  9 39  1  0  0  0  0
 10 40  1  0  0  0  0
 18 41  1  0  0  0  0
 18 42  1  0  0  0  0
 19 43  1  0  0  0  0
 20 44  1  0  0  0  0
 21 45  1  0  0  0  0
 21 46  1  0  0  0  0
M  END
> <compound>
JOH-UNI-a38a7bdd-6

> <compound_smiles>
c1ccc2c(c1)cncc2N(C(=O)Cc3cccc(c3)Cl)C(=O)C4CC4C(F)(F)F

> <enantiomer_smiles>
c1ccc2c(c1)cncc2N(C(=O)Cc3cccc(c3)Cl)C(=O)[C@H]4C[C@@H]4C(F)(F)F

> <scaffold>
chlorobenzene-linker

> <clash_score>
4.240830578722382

> <docking_score>
-3.3142480850219727

> <overlap_score>
0.9721118211746216

> <MMFF_internal_energy>
127.59442027657425

> <docked_smiles>
c1ccc2c(c1)cncc2N(C(=O)Cc3cccc(c3)Cl)C(=O)[C@H]4C[C@@H]4C(F)(F)F

$$$$
DAR-DIA-56cf811e-1_1
  -OEChem-07262101023D

 38 40  0     0  0  0  0  0  0999 V2000
    9.2016   -3.7931   20.3879 C   0  0  0  0  0  0  0  0  0  0  0  0
    8.2493   -3.0673   20.4774 C   0  0  0  0  0  0  0  0  0  0  0  0
    4.2598    2.9281   22.4981 C   0  0  0  0  0  0  0  0  0  0  0  0
    5.1674    2.0668   23.1100 C   0  0  0  0  0  0  0  0  0  0  0  0
   11.9780    0.4600   23.9150 C   0  0  0  0  0  0  0  0  0  0  0  0
    4.0486    2.8568   21.1213 C   0  0  0  0  0  0  0  0  0  0  0  0
    5.8680    1.1302   22.3480 C   0  0  0  0  0  0  0  0  0  0  0  0
   10.6560    0.0720   23.7350 C   0  0  0  0  0  0  0  0  0  0  0  0
   12.9840   -0.1200   23.1530 C   0  0  0  0  0  0  0  0  0  0  0  0
   11.3360   -1.5050   22.0650 C   0  0  0  0  0  0  0  0  0  0  0  0
    4.5755    1.8034   18.9639 C   0  0  0  0  0  0  0  0  0  0  0  0
    6.1012    0.0940   18.8062 C   0  0  0  0  0  0  0  0  0  0  0  0
    4.7479    1.9181   20.3447 C   0  0  0  0  0  0  0  0  0  0  0  0
    5.6677    1.0443   20.9605 C   0  0  0  0  0  0  0  0  0  0  0  0
   10.3220   -0.8940   22.7910 C   0  0  0  0  0  0  0  0  0  0  0  0
    6.3544    0.1163   20.1692 C   0  0  0  0  0  0  0  0  0  0  0  0
   12.6400   -1.1000   22.2390 C   0  0  0  0  0  0  0  0  0  0  0  0
    7.0861   -2.2051   20.5679 C   0  0  0  0  0  0  0  0  0  0  0  0
    8.3880   -0.3240   21.3070 C   0  0  0  0  0  0  0  0  0  0  0  0
    8.8810   -1.1900   22.4510 C   0  0  0  0  0  0  0  0  0  0  0  0
    5.2289    0.9142   18.1825 N   0  0  0  0  0  0  0  0  0  0  0  0
    7.2820   -0.7860   20.6970 N   0  0  0  0  0  0  0  0  0  0  0  0
    5.9869   -2.7505   20.5382 O   0  0  0  0  0  0  0  0  0  0  0  0
    8.9170    0.7530   21.0260 O   0  0  0  0  0  0  0  0  0  0  0  0
   13.8840   -1.8490   21.2740 Cl  0  0  0  0  0  0  0  0  0  0  0  0
   10.0464   -4.4368   20.3090 H   0  0  0  0  0  0  0  0  0  0  0  0
    3.7160    3.6557   23.0934 H   0  0  0  0  0  0  0  0  0  0  0  0
    5.3303    2.1238   24.1825 H   0  0  0  0  0  0  0  0  0  0  0  0
   12.2249    1.2198   24.6546 H   0  0  0  0  0  0  0  0  0  0  0  0
    3.3363    3.5367   20.6597 H   0  0  0  0  0  0  0  0  0  0  0  0
    6.5684    0.4757   22.8618 H   0  0  0  0  0  0  0  0  0  0  0  0
    9.8763    0.5350   24.3454 H   0  0  0  0  0  0  0  0  0  0  0  0
   14.0077    0.1988   23.2842 H   0  0  0  0  0  0  0  0  0  0  0  0
   11.0892   -2.3009   21.3624 H   0  0  0  0  0  0  0  0  0  0  0  0
    3.8825    2.4454   18.4270 H   0  0  0  0  0  0  0  0  0  0  0  0
    6.6078   -0.6076   18.1495 H   0  0  0  0  0  0  0  0  0  0  0  0
    8.7715   -2.2422   22.1612 H   0  0  0  0  0  0  0  0  0  0  0  0
    8.2805   -1.0430   23.3570 H   0  0  0  0  0  0  0  0  0  0  0  0
  1  2  3  0  0  0  0
  2 18  1  0  0  0  0
  3  4  1  0  0  0  0
  3  6  2  0  0  0  0
  4  7  2  0  0  0  0
  5  8  2  0  0  0  0
  5  9  1  0  0  0  0
  6 13  1  0  0  0  0
  7 14  1  0  0  0  0
  8 15  1  0  0  0  0
  9 17  2  0  0  0  0
 10 15  2  0  0  0  0
 10 17  1  0  0  0  0
 11 13  2  0  0  0  0
 11 21  1  0  0  0  0
 12 16  1  0  0  0  0
 12 21  2  0  0  0  0
 13 14  1  0  0  0  0
 14 16  2  0  0  0  0
 15 20  1  0  0  0  0
 16 22  1  0  0  0  0
 17 25  1  0  0  0  0
 18 22  1  0  0  0  0
 18 23  2  0  0  0  0
 19 20  1  0  0  0  0
 19 22  1  0  0  0  0
 19 24  2  0  0  0  0
  1 26  1  0  0  0  0
  3 27  1  0  0  0  0
  4 28  1  0  0  0  0
  5 29  1  0  0  0  0
  6 30  1  0  0  0  0
  7 31  1  0  0  0  0
  8 32  1  0  0  0  0
  9 33  1  0  0  0  0
 10 34  1  0  0  0  0
 11 35  1  0  0  0  0
 12 36  1  0  0  0  0
 20 37  1  0  0  0  0
 20 38  1  0  0  0  0
M  END
> <compound>
DAR-DIA-56cf811e-1

> <compound_smiles>
C#CC(=O)N(c1cncc2c1cccc2)C(=O)Cc3cccc(c3)Cl

> <enantiomer_smiles>
C#CC(=O)N(c1cncc2c1cccc2)C(=O)Cc3cccc(c3)Cl

> <scaffold>
chlorobenzene-linker

> <clash_score>
1.4307484375727286

> <docking_score>
-5.585180282592773

> <overlap_score>
0.9001955389976501

> <MMFF_internal_energy>
110.17907233258451

> <docked_smiles>
C#CC(=O)N(c1cncc2c1cccc2)C(=O)Cc3cccc(c3)Cl

$$$$
PET-UNK-12d8d43f-1_1
  -OEChem-07262101023D

 36 38  0     0  0  0  0  0  0999 V2000
    3.6299    2.7845   20.4028 C   0  0  0  0  0  0  0  0  0  0  0  0
    4.1946    2.0947   21.4731 C   0  0  0  0  0  0  0  0  0  0  0  0
   11.9780    0.4600   23.9150 C   0  0  0  0  0  0  0  0  0  0  0  0
    4.0682    2.5357   19.1023 C   0  0  0  0  0  0  0  0  0  0  0  0
    5.2002    1.1530   21.2478 C   0  0  0  0  0  0  0  0  0  0  0  0
   10.6560    0.0720   23.7350 C   0  0  0  0  0  0  0  0  0  0  0  0
   12.9840   -0.1200   23.1530 C   0  0  0  0  0  0  0  0  0  0  0  0
   11.3360   -1.5050   22.0650 C   0  0  0  0  0  0  0  0  0  0  0  0
    5.5558    1.3021   17.5834 C   0  0  0  0  0  0  0  0  0  0  0  0
    7.0526   -0.2511   18.3721 C   0  0  0  0  0  0  0  0  0  0  0  0
    5.0794    1.5902   18.8639 C   0  0  0  0  0  0  0  0  0  0  0  0
    5.6536    0.8898   19.9448 C   0  0  0  0  0  0  0  0  0  0  0  0
   10.3220   -0.8940   22.7910 C   0  0  0  0  0  0  0  0  0  0  0  0
    6.6598   -0.0482   19.6863 C   0  0  0  0  0  0  0  0  0  0  0  0
   12.6400   -1.1000   22.2390 C   0  0  0  0  0  0  0  0  0  0  0  0
    6.7599   -2.0492   21.1083 C   0  0  0  0  0  0  0  0  0  0  0  0
    8.3880   -0.3240   21.3070 C   0  0  0  0  0  0  0  0  0  0  0  0
    8.8810   -1.1900   22.4510 C   0  0  0  0  0  0  0  0  0  0  0  0
    6.5263    0.4002   17.3132 N   0  0  0  0  0  0  0  0  0  0  0  0
    7.2820   -0.7860   20.6970 N   0  0  0  0  0  0  0  0  0  0  0  0
    6.8338   -2.5563   22.2227 O   0  0  0  0  0  0  0  0  0  0  0  0
    8.9170    0.7530   21.0260 O   0  0  0  0  0  0  0  0  0  0  0  0
   13.8840   -1.8490   21.2740 Cl  0  0  0  0  0  0  0  0  0  0  0  0
    2.8476    3.5164   20.5809 H   0  0  0  0  0  0  0  0  0  0  0  0
    3.8516    2.2897   22.4852 H   0  0  0  0  0  0  0  0  0  0  0  0
   12.2249    1.2198   24.6546 H   0  0  0  0  0  0  0  0  0  0  0  0
    3.6164    3.0831   18.2783 H   0  0  0  0  0  0  0  0  0  0  0  0
    5.6167    0.6355   22.1090 H   0  0  0  0  0  0  0  0  0  0  0  0
    9.8763    0.5350   24.3454 H   0  0  0  0  0  0  0  0  0  0  0  0
   14.0077    0.1988   23.2842 H   0  0  0  0  0  0  0  0  0  0  0  0
   11.0892   -2.3009   21.3624 H   0  0  0  0  0  0  0  0  0  0  0  0
    5.1568    1.8053   16.7070 H   0  0  0  0  0  0  0  0  0  0  0  0
    7.8285   -0.9682   18.1193 H   0  0  0  0  0  0  0  0  0  0  0  0
    6.2086   -2.5742   20.3123 H   0  0  0  0  0  0  0  0  0  0  0  0
    8.8037   -2.2517   22.1978 H   0  0  0  0  0  0  0  0  0  0  0  0
    8.2439   -1.0103   23.3220 H   0  0  0  0  0  0  0  0  0  0  0  0
  1  2  1  0  0  0  0
  1  4  2  0  0  0  0
  2  5  2  0  0  0  0
  3  6  2  0  0  0  0
  3  7  1  0  0  0  0
  4 11  1  0  0  0  0
  5 12  1  0  0  0  0
  6 13  1  0  0  0  0
  7 15  2  0  0  0  0
  8 13  2  0  0  0  0
  8 15  1  0  0  0  0
  9 11  2  0  0  0  0
  9 19  1  0  0  0  0
 10 14  1  0  0  0  0
 10 19  2  0  0  0  0
 11 12  1  0  0  0  0
 12 14  2  0  0  0  0
 13 18  1  0  0  0  0
 14 20  1  0  0  0  0
 15 23  1  0  0  0  0
 16 20  1  0  0  0  0
 16 21  2  0  0  0  0
 17 18  1  0  0  0  0
 17 20  1  0  0  0  0
 17 22  2  0  0  0  0
  1 24  1  0  0  0  0
  2 25  1  0  0  0  0
  3 26  1  0  0  0  0
  4 27  1  0  0  0  0
  5 28  1  0  0  0  0
  6 29  1  0  0  0  0
  7 30  1  0  0  0  0
  8 31  1  0  0  0  0
  9 32  1  0  0  0  0
 10 33  1  0  0  0  0
 16 34  1  0  0  0  0
 18 35  1  0  0  0  0
 18 36  1  0  0  0  0
M  END
> <compound>
PET-UNK-12d8d43f-1

> <compound_smiles>
c1ccc2c(c1)cncc2N(C=O)C(=O)Cc3cccc(c3)Cl

> <enantiomer_smiles>
c1ccc2c(c1)cncc2N(C=O)C(=O)Cc3cccc(c3)Cl

> <scaffold>
chlorobenzene-linker

> <clash_score>
0

> <docking_score>
-12.587307929992676

> <overlap_score>
0.9896077513694763

> <MMFF_internal_energy>
97.69781202892298

> <docked_smiles>
c1ccc2c(c1)cncc2N(C=O)C(=O)Cc3cccc(c3)Cl

$$$$
DAR-DIA-56cf811e-2_1
  -OEChem-07262101023D

 35 36  0     0  0  0  0  0  0999 V2000
    5.4411   -3.3408   19.0869 C   0  0  0  0  0  0  0  0  0  0  0  0
    6.0109   -2.7401   19.9565 C   0  0  0  0  0  0  0  0  0  0  0  0
   11.9780    0.4600   23.9150 C   0  0  0  0  0  0  0  0  0  0  0  0
   10.6560    0.0720   23.7350 C   0  0  0  0  0  0  0  0  0  0  0  0
   12.9840   -0.1200   23.1530 C   0  0  0  0  0  0  0  0  0  0  0  0
    5.2073    1.7098   18.8251 C   0  0  0  0  0  0  0  0  0  0  0  0
   11.3360   -1.5050   22.0650 C   0  0  0  0  0  0  0  0  0  0  0  0
    5.7031    1.4669   17.5543 C   0  0  0  0  0  0  0  0  0  0  0  0
    7.1385   -0.1522   18.3265 C   0  0  0  0  0  0  0  0  0  0  0  0
   10.3220   -0.8940   22.7910 C   0  0  0  0  0  0  0  0  0  0  0  0
    5.7257    0.9658   19.8791 C   0  0  0  0  0  0  0  0  0  0  0  0
    6.7101    0.0150   19.6336 C   0  0  0  0  0  0  0  0  0  0  0  0
   12.6400   -1.1000   22.2390 C   0  0  0  0  0  0  0  0  0  0  0  0
    6.6808   -2.0217   21.0242 C   0  0  0  0  0  0  0  0  0  0  0  0
    8.3880   -0.3240   21.3070 C   0  0  0  0  0  0  0  0  0  0  0  0
    5.2098    1.2074   21.2597 C   0  0  0  0  0  0  0  0  0  0  0  0
    8.8810   -1.1900   22.4510 C   0  0  0  0  0  0  0  0  0  0  0  0
    6.6588    0.5519   17.2768 N   0  0  0  0  0  0  0  0  0  0  0  0
    7.2820   -0.7860   20.6970 N   0  0  0  0  0  0  0  0  0  0  0  0
    6.7001   -2.5586   22.1278 O   0  0  0  0  0  0  0  0  0  0  0  0
    8.9170    0.7530   21.0260 O   0  0  0  0  0  0  0  0  0  0  0  0
   13.8840   -1.8490   21.2740 Cl  0  0  0  0  0  0  0  0  0  0  0  0
    4.9363   -3.8737   18.3153 H   0  0  0  0  0  0  0  0  0  0  0  0
   12.2249    1.2198   24.6546 H   0  0  0  0  0  0  0  0  0  0  0  0
    9.8763    0.5350   24.3454 H   0  0  0  0  0  0  0  0  0  0  0  0
   14.0077    0.1988   23.2842 H   0  0  0  0  0  0  0  0  0  0  0  0
    4.4391    2.4591   18.9830 H   0  0  0  0  0  0  0  0  0  0  0  0
   11.0892   -2.3009   21.3624 H   0  0  0  0  0  0  0  0  0  0  0  0
    5.3320    2.0208   16.6982 H   0  0  0  0  0  0  0  0  0  0  0  0
    7.9040   -0.8790   18.0713 H   0  0  0  0  0  0  0  0  0  0  0  0
    4.3526    0.5556   21.4643 H   0  0  0  0  0  0  0  0  0  0  0  0
    5.9843    1.0130   22.0119 H   0  0  0  0  0  0  0  0  0  0  0  0
    4.8946    2.2503   21.3881 H   0  0  0  0  0  0  0  0  0  0  0  0
    8.7715   -2.2422   22.1612 H   0  0  0  0  0  0  0  0  0  0  0  0
    8.2805   -1.0430   23.3570 H   0  0  0  0  0  0  0  0  0  0  0  0
  1  2  3  0  0  0  0
  2 14  1  0  0  0  0
  3  4  2  0  0  0  0
  3  5  1  0  0  0  0
  4 10  1  0  0  0  0
  5 13  2  0  0  0  0
  6  8  2  0  0  0  0
  6 11  1  0  0  0  0
  7 10  2  0  0  0  0
  7 13  1  0  0  0  0
  8 18  1  0  0  0  0
  9 12  1  0  0  0  0
  9 18  2  0  0  0  0
 10 17  1  0  0  0  0
 11 12  2  0  0  0  0
 11 16  1  0  0  0  0
 12 19  1  0  0  0  0
 13 22  1  0  0  0  0
 14 19  1  0  0  0  0
 14 20  2  0  0  0  0
 15 17  1  0  0  0  0
 15 19  1  0  0  0  0
 15 21  2  0  0  0  0
  1 23  1  0  0  0  0
  3 24  1  0  0  0  0
  4 25  1  0  0  0  0
  5 26  1  0  0  0  0
  6 27  1  0  0  0  0
  7 28  1  0  0  0  0
  8 29  1  0  0  0  0
  9 30  1  0  0  0  0
 16 31  1  0  0  0  0
 16 32  1  0  0  0  0
 16 33  1  0  0  0  0
 17 34  1  0  0  0  0
 17 35  1  0  0  0  0
M  END
> <compound>
DAR-DIA-56cf811e-2

> <compound_smiles>
Cc1ccncc1N(C(=O)Cc2cccc(c2)Cl)C(=O)C#C

> <enantiomer_smiles>
Cc1ccncc1N(C(=O)Cc2cccc(c2)Cl)C(=O)C#C

> <scaffold>
chlorobenzene-linker

> <clash_score>
0

> <docking_score>
-8.642562866210938

> <overlap_score>
0.8648087978363037

> <MMFF_internal_energy>
77.07833855546734

> <docked_smiles>
Cc1ccncc1N(C(=O)Cc2cccc(c2)Cl)C(=O)C#C

$$$$
JOH-UNI-ee5ed7c8-9_1
  -OEChem-07262101023D

 38 40  0     0  0  0  0  0  0999 V2000
    7.3367    0.3045   18.0590 C   0  0  0  0  0  0  0  0  0  0  0  0
    2.9861    1.0732   22.7174 C   0  0  0  0  0  0  0  0  0  0  0  0
    3.9820    0.2325   23.2090 C   0  0  0  0  0  0  0  0  0  0  0  0
   11.9780    0.4600   23.9150 C   0  0  0  0  0  0  0  0  0  0  0  0
    3.0727    1.5731   21.4182 C   0  0  0  0  0  0  0  0  0  0  0  0
    5.0689   -0.1121   22.4037 C   0  0  0  0  0  0  0  0  0  0  0  0
   10.6560    0.0720   23.7350 C   0  0  0  0  0  0  0  0  0  0  0  0
   12.9840   -0.1200   23.1530 C   0  0  0  0  0  0  0  0  0  0  0  0
   11.3360   -1.5050   22.0650 C   0  0  0  0  0  0  0  0  0  0  0  0
    4.2988    1.7043   19.2919 C   0  0  0  0  0  0  0  0  0  0  0  0
    6.2789    0.5834   18.9796 C   0  0  0  0  0  0  0  0  0  0  0  0
    4.1619    1.2328   20.5990 C   0  0  0  0  0  0  0  0  0  0  0  0
    5.1722    0.3820   21.0931 C   0  0  0  0  0  0  0  0  0  0  0  0
   10.3220   -0.8940   22.7910 C   0  0  0  0  0  0  0  0  0  0  0  0
    6.2492    0.0550   20.2611 C   0  0  0  0  0  0  0  0  0  0  0  0
   12.6400   -1.1000   22.2390 C   0  0  0  0  0  0  0  0  0  0  0  0
    8.3880   -0.3240   21.3070 C   0  0  0  0  0  0  0  0  0  0  0  0
    7.0898   -2.2613   20.5690 C   0  0  0  0  0  0  0  0  0  0  0  0
    8.8810   -1.1900   22.4510 C   0  0  0  0  0  0  0  0  0  0  0  0
    8.1953    0.0783   17.3118 N   0  0  0  0  0  0  0  0  0  0  0  0
    5.3309    1.4003   18.4730 N   0  0  0  0  0  0  0  0  0  0  0  0
    7.2820   -0.7860   20.6970 N   0  0  0  0  0  0  0  0  0  0  0  0
    8.9170    0.7530   21.0260 O   0  0  0  0  0  0  0  0  0  0  0  0
   13.8840   -1.8490   21.2740 Cl  0  0  0  0  0  0  0  0  0  0  0  0
    2.1421    1.3403   23.3462 H   0  0  0  0  0  0  0  0  0  0  0  0
    3.9128   -0.1554   24.2213 H   0  0  0  0  0  0  0  0  0  0  0  0
   12.2249    1.2198   24.6546 H   0  0  0  0  0  0  0  0  0  0  0  0
    2.2870    2.2285   21.0499 H   0  0  0  0  0  0  0  0  0  0  0  0
    5.8241   -0.7720   22.8244 H   0  0  0  0  0  0  0  0  0  0  0  0
    9.8763    0.5350   24.3454 H   0  0  0  0  0  0  0  0  0  0  0  0
   14.0077    0.1988   23.2842 H   0  0  0  0  0  0  0  0  0  0  0  0
   11.0892   -2.3009   21.3624 H   0  0  0  0  0  0  0  0  0  0  0  0
    3.5561    2.3632   18.8503 H   0  0  0  0  0  0  0  0  0  0  0  0
    7.4642   -2.5969   19.5907 H   0  0  0  0  0  0  0  0  0  0  0  0
    7.6440   -2.7739   21.3691 H   0  0  0  0  0  0  0  0  0  0  0  0
    6.0193   -2.5002   20.6534 H   0  0  0  0  0  0  0  0  0  0  0  0
    8.8006   -2.2403   22.1717 H   0  0  0  0  0  0  0  0  0  0  0  0
    8.2668   -1.0117   23.3332 H   0  0  0  0  0  0  0  0  0  0  0  0
  1 11  1  0  0  0  0
  1 20  3  0  0  0  0
  2  3  1  0  0  0  0
  2  5  2  0  0  0  0
  3  6  2  0  0  0  0
  4  7  2  0  0  0  0
  4  8  1  0  0  0  0
  5 12  1  0  0  0  0
  6 13  1  0  0  0  0
  7 14  1  0  0  0  0
  8 16  2  0  0  0  0
  9 14  2  0  0  0  0
  9 16  1  0  0  0  0
 10 12  1  0  0  0  0
 10 21  2  0  0  0  0
 11 15  2  0  0  0  0
 11 21  1  0  0  0  0
 12 13  2  0  0  0  0
 13 15  1  0  0  0  0
 14 19  1  0  0  0  0
 15 22  1  0  0  0  0
 16 24  1  0  0  0  0
 17 19  1  0  0  0  0
 17 22  1  0  0  0  0
 17 23  2  0  0  0  0
 18 22  1  0  0  0  0
  2 25  1  0  0  0  0
  3 26  1  0  0  0  0
  4 27  1  0  0  0  0
  5 28  1  0  0  0  0
  6 29  1  0  0  0  0
  7 30  1  0  0  0  0
  8 31  1  0  0  0  0
  9 32  1  0  0  0  0
 10 33  1  0  0  0  0
 18 34  1  0  0  0  0
 18 35  1  0  0  0  0
 18 36  1  0  0  0  0
 19 37  1  0  0  0  0
 19 38  1  0  0  0  0
M  END
> <compound>
JOH-UNI-ee5ed7c8-9

> <compound_smiles>
CN(c1c2ccccc2cnc1C#N)C(=O)Cc3cccc(c3)Cl

> <enantiomer_smiles>
CN(c1c2ccccc2cnc1C#N)C(=O)Cc3cccc(c3)Cl

> <scaffold>
chlorobenzene-linker

> <clash_score>
0

> <docking_score>
-5.302643775939941

> <overlap_score>
0.9565509557723999

> <MMFF_internal_energy>
158.70582354540647

> <docked_smiles>
CN(c1c2ccccc2cnc1C#N)C(=O)Cc3cccc(c3)Cl

$$$$
JOH-UNI-a38a7bdd-7_3
  -OEChem-07262101023D

 43 45  0     1  0  0  0  0  0999 V2000
   11.9780    0.4600   23.9150 C   0  0  0  0  0  0  0  0  0  0  0  0
   10.6560    0.0720   23.7350 C   0  0  0  0  0  0  0  0  0  0  0  0
   12.9840   -0.1200   23.1530 C   0  0  0  0  0  0  0  0  0  0  0  0
    5.7452    0.6296   17.5876 C   0  0  0  0  0  0  0  0  0  0  0  0
   11.3360   -1.5050   22.0650 C   0  0  0  0  0  0  0  0  0  0  0  0
    6.7276    0.2468   16.6886 C   0  0  0  0  0  0  0  0  0  0  0  0
    7.9780   -0.7461   18.3405 C   0  0  0  0  0  0  0  0  0  0  0  0
   10.3220   -0.8940   22.7910 C   0  0  0  0  0  0  0  0  0  0  0  0
    5.9193    0.2912   18.9250 C   0  0  0  0  0  0  0  0  0  0  0  0
    7.0544   -0.4097   19.3169 C   0  0  0  0  0  0  0  0  0  0  0  0
   12.6400   -1.1000   22.2390 C   0  0  0  0  0  0  0  0  0  0  0  0
    6.3392   -1.6206   21.3367 C   0  0  0  0  0  0  0  0  0  0  0  0
    8.3880   -0.3240   21.3070 C   0  0  0  0  0  0  0  0  0  0  0  0
    4.7722   -1.0988   23.3023 C   0  0  0  0  0  0  0  0  0  0  0  0
    6.1465   -1.4054   22.8065 C   0  0  2  0  0  0  0  0  0  0  0  0
    5.8234   -0.0258   23.2795 C   0  0  1  0  0  0  0  0  0  0  0  0
    4.8760    0.6918   19.9159 C   0  0  0  0  0  0  0  0  0  0  0  0
    8.8810   -1.1900   22.4510 C   0  0  0  0  0  0  0  0  0  0  0  0
    6.4179    0.4677   24.5532 C   0  0  0  0  0  0  0  0  0  0  0  0
    7.8435   -0.4348   17.0318 N   0  0  0  0  0  0  0  0  0  0  0  0
    7.2820   -0.7860   20.6970 N   0  0  0  0  0  0  0  0  0  0  0  0
    5.6436   -2.4660   20.7801 O   0  0  0  0  0  0  0  0  0  0  0  0
    8.9170    0.7530   21.0260 O   0  0  0  0  0  0  0  0  0  0  0  0
    5.6444    1.4211   25.1265 F   0  0  0  0  0  0  0  0  0  0  0  0
    6.5611   -0.5327   25.4556 F   0  0  0  0  0  0  0  0  0  0  0  0
    7.6437    1.0092   24.3527 F   0  0  0  0  0  0  0  0  0  0  0  0
   13.8840   -1.8490   21.2740 Cl  0  0  0  0  0  0  0  0  0  0  0  0
   12.2249    1.2198   24.6546 H   0  0  0  0  0  0  0  0  0  0  0  0
    9.8763    0.5350   24.3454 H   0  0  0  0  0  0  0  0  0  0  0  0
   14.0077    0.1988   23.2842 H   0  0  0  0  0  0  0  0  0  0  0  0
    4.8714    1.1760   17.2494 H   0  0  0  0  0  0  0  0  0  0  0  0
   11.0892   -2.3009   21.3624 H   0  0  0  0  0  0  0  0  0  0  0  0
    6.6393    0.4866   15.6341 H   0  0  0  0  0  0  0  0  0  0  0  0
    8.8839   -1.2935   18.5840 H   0  0  0  0  0  0  0  0  0  0  0  0
    3.9547   -1.0153   22.5958 H   0  0  0  0  0  0  0  0  0  0  0  0
    4.4902   -1.5283   24.2562 H   0  0  0  0  0  0  0  0  0  0  0  0
    6.7769   -2.0336   23.4057 H   0  0  0  0  0  0  0  0  0  0  0  0
    5.7074    0.7717   22.5548 H   0  0  0  0  0  0  0  0  0  0  0  0
    4.1175   -0.0941   20.0074 H   0  0  0  0  0  0  0  0  0  0  0  0
    5.3162    0.8698   20.9047 H   0  0  0  0  0  0  0  0  0  0  0  0
    4.3803    1.6230   19.6147 H   0  0  0  0  0  0  0  0  0  0  0  0
    8.7694   -2.2417   22.1619 H   0  0  0  0  0  0  0  0  0  0  0  0
    8.2806   -1.0404   23.3560 H   0  0  0  0  0  0  0  0  0  0  0  0
  1  2  2  0  0  0  0
  1  3  1  0  0  0  0
  2  8  1  0  0  0  0
  3 11  2  0  0  0  0
  4  6  2  0  0  0  0
  4  9  1  0  0  0  0
  5  8  2  0  0  0  0
  5 11  1  0  0  0  0
  6 20  1  0  0  0  0
  7 10  1  0  0  0  0
  7 20  2  0  0  0  0
  8 18  1  0  0  0  0
  9 10  2  0  0  0  0
  9 17  1  0  0  0  0
 10 21  1  0  0  0  0
 11 27  1  0  0  0  0
 12 15  1  1  0  0  0
 12 21  1  0  0  0  0
 12 22  2  0  0  0  0
 13 18  1  0  0  0  0
 13 21  1  0  0  0  0
 13 23  2  0  0  0  0
 14 15  1  0  0  0  0
 14 16  1  0  0  0  0
 15 16  1  0  0  0  0
 16 19  1  6  0  0  0
 19 24  1  0  0  0  0
 19 25  1  0  0  0  0
 19 26  1  0  0  0  0
  1 28  1  0  0  0  0
  2 29  1  0  0  0  0
  3 30  1  0  0  0  0
  4 31  1  0  0  0  0
  5 32  1  0  0  0  0
  6 33  1  0  0  0  0
  7 34  1  0  0  0  0
 14 35  1  0  0  0  0
 14 36  1  0  0  0  0
 15 37  1  0  0  0  0
 16 38  1  0  0  0  0
 17 39  1  0  0  0  0
 17 40  1  0  0  0  0
 17 41  1  0  0  0  0
 18 42  1  0  0  0  0
 18 43  1  0  0  0  0
M  END
> <compound>
JOH-UNI-a38a7bdd-7

> <compound_smiles>
Cc1ccncc1N(C(=O)Cc2cccc(c2)Cl)C(=O)C3CC3C(F)(F)F

> <enantiomer_smiles>
Cc1ccncc1N(C(=O)Cc2cccc(c2)Cl)C(=O)[C@@H]3C[C@H]3C(F)(F)F

> <scaffold>
chlorobenzene-linker

> <clash_score>
1.361447048013677

> <docking_score>
-4.185694694519043

> <overlap_score>
0.8032505512237549

> <MMFF_internal_energy>
113.06981319483135

> <docked_smiles>
Cc1ccncc1N(C(=O)Cc2cccc(c2)Cl)C(=O)[C@@H]3C[C@H]3C(F)(F)F

$$$$
DAR-DIA-076fb6ea-11_1
  -OEChem-07262101023D

 52 54  0     0  0  0  0  0  0999 V2000
    3.7171    2.9139   20.2947 C   0  0  0  0  0  0  0  0  0  0  0  0
    4.2228    2.1907   21.3725 C   0  0  0  0  0  0  0  0  0  0  0  0
   11.9780    0.4600   23.9150 C   0  0  0  0  0  0  0  0  0  0  0  0
    4.1976    2.6762   19.0072 C   0  0  0  0  0  0  0  0  0  0  0  0
    5.2112    1.2266   21.1676 C   0  0  0  0  0  0  0  0  0  0  0  0
   10.6560    0.0720   23.7350 C   0  0  0  0  0  0  0  0  0  0  0  0
   12.9840   -0.1200   23.1530 C   0  0  0  0  0  0  0  0  0  0  0  0
   11.3360   -1.5050   22.0650 C   0  0  0  0  0  0  0  0  0  0  0  0
    5.7088    1.4298   17.5224 C   0  0  0  0  0  0  0  0  0  0  0  0
    7.1338   -0.1763   18.3377 C   0  0  0  0  0  0  0  0  0  0  0  0
    5.1921    1.7083   18.7893 C   0  0  0  0  0  0  0  0  0  0  0  0
    5.7066    0.9741   19.8778 C   0  0  0  0  0  0  0  0  0  0  0  0
   10.3220   -0.8940   22.7910 C   0  0  0  0  0  0  0  0  0  0  0  0
    6.6971    0.0142   19.6398 C   0  0  0  0  0  0  0  0  0  0  0  0
   12.6400   -1.1000   22.2390 C   0  0  0  0  0  0  0  0  0  0  0  0
    5.9438   -2.6539   19.8800 C   0  0  0  0  0  0  0  0  0  0  0  0
    4.8773   -3.4322   20.1072 C   0  0  0  0  0  0  0  0  0  0  0  0
    6.6751   -2.0203   21.0186 C   0  0  0  0  0  0  0  0  0  0  0  0
    8.3880   -0.3240   21.3070 C   0  0  0  0  0  0  0  0  0  0  0  0
    1.9098   -4.1510   20.1885 C   0  0  0  0  0  0  0  0  0  0  0  0
    2.5162   -2.2011   18.7634 C   0  0  0  0  0  0  0  0  0  0  0  0
    8.8810   -1.1900   22.4510 C   0  0  0  0  0  0  0  0  0  0  0  0
    4.1059   -4.1012   19.0152 C   0  0  0  0  0  0  0  0  0  0  0  0
    6.6651    0.5072   17.2720 N   0  0  0  0  0  0  0  0  0  0  0  0
    7.2820   -0.7860   20.6970 N   0  0  0  0  0  0  0  0  0  0  0  0
    2.6798   -3.6849   18.9784 N   0  3  0  0  0  0  0  0  0  0  0  0
    6.7003   -2.5468   22.1302 O   0  0  0  0  0  0  0  0  0  0  0  0
    8.9170    0.7530   21.0260 O   0  0  0  0  0  0  0  0  0  0  0  0
   13.8840   -1.8490   21.2740 Cl  0  0  0  0  0  0  0  0  0  0  0  0
    2.9480    3.6633   20.4570 H   0  0  0  0  0  0  0  0  0  0  0  0
    3.8470    2.3773   22.3744 H   0  0  0  0  0  0  0  0  0  0  0  0
   12.2249    1.2198   24.6546 H   0  0  0  0  0  0  0  0  0  0  0  0
    3.7917    3.2497   18.1770 H   0  0  0  0  0  0  0  0  0  0  0  0
    5.5813    0.6833   22.0340 H   0  0  0  0  0  0  0  0  0  0  0  0
    9.8763    0.5350   24.3454 H   0  0  0  0  0  0  0  0  0  0  0  0
   14.0077    0.1988   23.2842 H   0  0  0  0  0  0  0  0  0  0  0  0
   11.0892   -2.3009   21.3624 H   0  0  0  0  0  0  0  0  0  0  0  0
    5.3565    1.9587   16.6411 H   0  0  0  0  0  0  0  0  0  0  0  0
    7.8998   -0.9093   18.1009 H   0  0  0  0  0  0  0  0  0  0  0  0
    6.3082   -2.4892   18.8717 H   0  0  0  0  0  0  0  0  0  0  0  0
    4.5194   -3.5966   21.1203 H   0  0  0  0  0  0  0  0  0  0  0  0
    2.3536   -3.6810   21.0680 H   0  0  0  0  0  0  0  0  0  0  0  0
    0.8700   -3.8436   20.0617 H   0  0  0  0  0  0  0  0  0  0  0  0
    1.9943   -5.2382   20.2399 H   0  0  0  0  0  0  0  0  0  0  0  0
    2.9733   -1.6884   19.6118 H   0  0  0  0  0  0  0  0  0  0  0  0
    3.0193   -1.9412   17.8301 H   0  0  0  0  0  0  0  0  0  0  0  0
    1.4471   -1.9877   18.7057 H   0  0  0  0  0  0  0  0  0  0  0  0
    8.2424   -1.0087   23.3237 H   0  0  0  0  0  0  0  0  0  0  0  0
    8.8015   -2.2572   22.2121 H   0  0  0  0  0  0  0  0  0  0  0  0
    4.1032   -5.1914   19.1129 H   0  0  0  0  0  0  0  0  0  0  0  0
    4.5289   -3.8401   18.0403 H   0  0  0  0  0  0  0  0  0  0  0  0
    2.2396   -4.1437   18.1633 H   0  0  0  0  0  0  0  0  0  0  0  0
  1  2  1  0  0  0  0
  1  4  2  0  0  0  0
  2  5  2  0  0  0  0
  3  6  2  0  0  0  0
  3  7  1  0  0  0  0
  4 11  1  0  0  0  0
  5 12  1  0  0  0  0
  6 13  1  0  0  0  0
  7 15  2  0  0  0  0
  8 13  2  0  0  0  0
  8 15  1  0  0  0  0
  9 11  2  0  0  0  0
  9 24  1  0  0  0  0
 10 14  1  0  0  0  0
 10 24  2  0  0  0  0
 11 12  1  0  0  0  0
 12 14  2  0  0  0  0
 13 22  1  0  0  0  0
 14 25  1  0  0  0  0
 15 29  1  0  0  0  0
 16 17  2  0  0  0  0
 16 18  1  0  0  0  0
 17 23  1  0  0  0  0
 18 25  1  0  0  0  0
 18 27  2  0  0  0  0
 19 22  1  0  0  0  0
 19 25  1  0  0  0  0
 19 28  2  0  0  0  0
 20 26  1  0  0  0  0
 21 26  1  0  0  0  0
 23 26  1  0  0  0  0
  1 30  1  0  0  0  0
  2 31  1  0  0  0  0
  3 32  1  0  0  0  0
  4 33  1  0  0  0  0
  5 34  1  0  0  0  0
  6 35  1  0  0  0  0
  7 36  1  0  0  0  0
  8 37  1  0  0  0  0
  9 38  1  0  0  0  0
 10 39  1  0  0  0  0
 16 40  1  0  0  0  0
 17 41  1  0  0  0  0
 20 42  1  0  0  0  0
 20 43  1  0  0  0  0
 20 44  1  0  0  0  0
 21 45  1  0  0  0  0
 21 46  1  0  0  0  0
 21 47  1  0  0  0  0
 22 48  1  0  0  0  0
 22 49  1  0  0  0  0
 23 50  1  0  0  0  0
 23 51  1  0  0  0  0
 26 52  1  0  0  0  0
M  CHG  1  26   1
M  END
> <compound>
DAR-DIA-076fb6ea-11

> <compound_smiles>
CN(C)C/C=C/C(=O)N(c1cncc2c1cccc2)C(=O)Cc3cccc(c3)Cl

> <enantiomer_smiles>
CN(C)C/C=C/C(=O)N(c1cncc2c1cccc2)C(=O)Cc3cccc(c3)Cl

> <scaffold>
chlorobenzene-linker

> <clash_score>
13.995361353909184

> <docking_score>
-3.7079427242279053

> <overlap_score>
0.9629742503166199

> <MMFF_internal_energy>
95.2784941298619

> <docked_smiles>
C[NH+](C)C/C=C/C(=O)N(c1cncc2c1cccc2)C(=O)Cc3cccc(c3)Cl

$$$$
JOH-UNI-a38a7bdd-7_4
  -OEChem-07262101023D

 43 45  0     1  0  0  0  0  0999 V2000
   11.9780    0.4600   23.9150 C   0  0  0  0  0  0  0  0  0  0  0  0
   10.6560    0.0720   23.7350 C   0  0  0  0  0  0  0  0  0  0  0  0
   12.9840   -0.1200   23.1530 C   0  0  0  0  0  0  0  0  0  0  0  0
    5.7452    0.6296   17.5876 C   0  0  0  0  0  0  0  0  0  0  0  0
   11.3360   -1.5050   22.0650 C   0  0  0  0  0  0  0  0  0  0  0  0
    6.7276    0.2468   16.6886 C   0  0  0  0  0  0  0  0  0  0  0  0
    7.9780   -0.7461   18.3405 C   0  0  0  0  0  0  0  0  0  0  0  0
   10.3220   -0.8940   22.7910 C   0  0  0  0  0  0  0  0  0  0  0  0
    5.9193    0.2912   18.9250 C   0  0  0  0  0  0  0  0  0  0  0  0
    7.0544   -0.4097   19.3169 C   0  0  0  0  0  0  0  0  0  0  0  0
   12.6400   -1.1000   22.2390 C   0  0  0  0  0  0  0  0  0  0  0  0
    6.3392   -1.6206   21.3367 C   0  0  0  0  0  0  0  0  0  0  0  0
    8.3880   -0.3240   21.3070 C   0  0  0  0  0  0  0  0  0  0  0  0
    5.0277   -2.1218   23.4877 C   0  0  0  0  0  0  0  0  0  0  0  0
    6.1465   -1.4054   22.8065 C   0  0  1  0  0  0  0  0  0  0  0  0
    6.4524   -2.5076   23.7682 C   0  0  1  0  0  0  0  0  0  0  0  0
    4.8760    0.6918   19.9159 C   0  0  0  0  0  0  0  0  0  0  0  0
    8.8810   -1.1900   22.4510 C   0  0  0  0  0  0  0  0  0  0  0  0
    6.9610   -3.8428   23.3430 C   0  0  0  0  0  0  0  0  0  0  0  0
    7.8435   -0.4348   17.0318 N   0  0  0  0  0  0  0  0  0  0  0  0
    7.2820   -0.7860   20.6970 N   0  0  0  0  0  0  0  0  0  0  0  0
    5.6436   -2.4660   20.7801 O   0  0  0  0  0  0  0  0  0  0  0  0
    8.9170    0.7530   21.0260 O   0  0  0  0  0  0  0  0  0  0  0  0
    6.6489   -4.8033   24.2457 F   0  0  0  0  0  0  0  0  0  0  0  0
    6.4337   -4.2189   22.1533 F   0  0  0  0  0  0  0  0  0  0  0  0
    8.3086   -3.8396   23.2053 F   0  0  0  0  0  0  0  0  0  0  0  0
   13.8840   -1.8490   21.2740 Cl  0  0  0  0  0  0  0  0  0  0  0  0
   12.2249    1.2198   24.6546 H   0  0  0  0  0  0  0  0  0  0  0  0
    9.8763    0.5350   24.3454 H   0  0  0  0  0  0  0  0  0  0  0  0
   14.0077    0.1988   23.2842 H   0  0  0  0  0  0  0  0  0  0  0  0
    4.8714    1.1760   17.2494 H   0  0  0  0  0  0  0  0  0  0  0  0
   11.0892   -2.3009   21.3624 H   0  0  0  0  0  0  0  0  0  0  0  0
    6.6393    0.4866   15.6341 H   0  0  0  0  0  0  0  0  0  0  0  0
    8.8839   -1.2935   18.5840 H   0  0  0  0  0  0  0  0  0  0  0  0
    4.4936   -1.5762   24.2567 H   0  0  0  0  0  0  0  0  0  0  0  0
    4.4080   -2.8063   22.9207 H   0  0  0  0  0  0  0  0  0  0  0  0
    6.3610   -0.3969   23.1056 H   0  0  0  0  0  0  0  0  0  0  0  0
    6.8751   -2.2074   24.7204 H   0  0  0  0  0  0  0  0  0  0  0  0
    4.1175   -0.0941   20.0074 H   0  0  0  0  0  0  0  0  0  0  0  0
    5.3162    0.8698   20.9047 H   0  0  0  0  0  0  0  0  0  0  0  0
    4.3803    1.6230   19.6147 H   0  0  0  0  0  0  0  0  0  0  0  0
    8.7694   -2.2417   22.1619 H   0  0  0  0  0  0  0  0  0  0  0  0
    8.2806   -1.0404   23.3560 H   0  0  0  0  0  0  0  0  0  0  0  0
  1  2  2  0  0  0  0
  1  3  1  0  0  0  0
  2  8  1  0  0  0  0
  3 11  2  0  0  0  0
  4  6  2  0  0  0  0
  4  9  1  0  0  0  0
  5  8  2  0  0  0  0
  5 11  1  0  0  0  0
  6 20  1  0  0  0  0
  7 10  1  0  0  0  0
  7 20  2  0  0  0  0
  8 18  1  0  0  0  0
  9 10  2  0  0  0  0
  9 17  1  0  0  0  0
 10 21  1  0  0  0  0
 11 27  1  0  0  0  0
 12 15  1  6  0  0  0
 12 21  1  0  0  0  0
 12 22  2  0  0  0  0
 13 18  1  0  0  0  0
 13 21  1  0  0  0  0
 13 23  2  0  0  0  0
 14 15  1  0  0  0  0
 14 16  1  0  0  0  0
 15 16  1  0  0  0  0
 16 19  1  6  0  0  0
 19 24  1  0  0  0  0
 19 25  1  0  0  0  0
 19 26  1  0  0  0  0
  1 28  1  0  0  0  0
  2 29  1  0  0  0  0
  3 30  1  0  0  0  0
  4 31  1  0  0  0  0
  5 32  1  0  0  0  0
  6 33  1  0  0  0  0
  7 34  1  0  0  0  0
 14 35  1  0  0  0  0
 14 36  1  0  0  0  0
 15 37  1  0  0  0  0
 16 38  1  0  0  0  0
 17 39  1  0  0  0  0
 17 40  1  0  0  0  0
 17 41  1  0  0  0  0
 18 42  1  0  0  0  0
 18 43  1  0  0  0  0
M  END
> <compound>
JOH-UNI-a38a7bdd-7

> <compound_smiles>
Cc1ccncc1N(C(=O)Cc2cccc(c2)Cl)C(=O)C3CC3C(F)(F)F

> <enantiomer_smiles>
Cc1ccncc1N(C(=O)Cc2cccc(c2)Cl)C(=O)[C@H]3C[C@H]3C(F)(F)F

> <scaffold>
chlorobenzene-linker

> <clash_score>
1.4855797382237599

> <docking_score>
-4.351296424865723

> <overlap_score>
0.7977970838546753

> <MMFF_internal_energy>
112.28355556310719

> <docked_smiles>
Cc1ccncc1N(C(=O)Cc2cccc(c2)Cl)C(=O)[C@H]3C[C@H]3C(F)(F)F

$$$$
JOH-UNI-ee5ed7c8-8_1
  -OEChem-07262101023D

 35 37  0     0  0  0  0  0  0999 V2000
    7.9772   -1.4868   18.0181 C   0  0  0  0  0  0  0  0  0  0  0  0
    3.4553    2.5389   20.1545 C   0  0  0  0  0  0  0  0  0  0  0  0
    4.1047    2.0099   21.2674 C   0  0  0  0  0  0  0  0  0  0  0  0
   11.9780    0.4600   23.9150 C   0  0  0  0  0  0  0  0  0  0  0  0
    3.8440    2.1552   18.8712 C   0  0  0  0  0  0  0  0  0  0  0  0
    5.1459    1.0948   21.1021 C   0  0  0  0  0  0  0  0  0  0  0  0
   10.6560    0.0720   23.7350 C   0  0  0  0  0  0  0  0  0  0  0  0
   12.9840   -0.1200   23.1530 C   0  0  0  0  0  0  0  0  0  0  0  0
   11.3360   -1.5050   22.0650 C   0  0  0  0  0  0  0  0  0  0  0  0
    5.3199    0.8163   17.4322 C   0  0  0  0  0  0  0  0  0  0  0  0
    6.9306   -0.5603   18.3186 C   0  0  0  0  0  0  0  0  0  0  0  0
    4.8903    1.2349   18.6931 C   0  0  0  0  0  0  0  0  0  0  0  0
    5.5503    0.6972   19.8173 C   0  0  0  0  0  0  0  0  0  0  0  0
   10.3220   -0.8940   22.7910 C   0  0  0  0  0  0  0  0  0  0  0  0
    6.5903   -0.2182   19.6185 C   0  0  0  0  0  0  0  0  0  0  0  0
   12.6400   -1.1000   22.2390 C   0  0  0  0  0  0  0  0  0  0  0  0
    8.3880   -0.3240   21.3070 C   0  0  0  0  0  0  0  0  0  0  0  0
    8.8810   -1.1900   22.4510 C   0  0  0  0  0  0  0  0  0  0  0  0
    8.8267   -2.2388   17.7740 N   0  0  0  0  0  0  0  0  0  0  0  0
    6.3219   -0.0663   17.2195 N   0  0  0  0  0  0  0  0  0  0  0  0
    7.2820   -0.7860   20.6970 N   0  0  0  0  0  0  0  0  0  0  0  0
    8.9170    0.7530   21.0260 O   0  0  0  0  0  0  0  0  0  0  0  0
   13.8840   -1.8490   21.2740 Cl  0  0  0  0  0  0  0  0  0  0  0  0
    2.6463    3.2512   20.2859 H   0  0  0  0  0  0  0  0  0  0  0  0
    3.8007    2.3105   22.2660 H   0  0  0  0  0  0  0  0  0  0  0  0
   12.2249    1.2198   24.6546 H   0  0  0  0  0  0  0  0  0  0  0  0
    3.3269    2.5778   18.0130 H   0  0  0  0  0  0  0  0  0  0  0  0
    5.6260    0.7042   21.9964 H   0  0  0  0  0  0  0  0  0  0  0  0
    9.8763    0.5350   24.3454 H   0  0  0  0  0  0  0  0  0  0  0  0
   14.0077    0.1988   23.2842 H   0  0  0  0  0  0  0  0  0  0  0  0
   11.0892   -2.3009   21.3624 H   0  0  0  0  0  0  0  0  0  0  0  0
    4.8542    1.1918   16.5252 H   0  0  0  0  0  0  0  0  0  0  0  0
    8.7774   -2.2383   22.1732 H   0  0  0  0  0  0  0  0  0  0  0  0
    8.2557   -1.0153   23.3257 H   0  0  0  0  0  0  0  0  0  0  0  0
    6.8980   -1.6604   21.0661 H   0  0  0  0  0  0  0  0  0  0  0  0
  1 11  1  0  0  0  0
  1 19  3  0  0  0  0
  2  3  1  0  0  0  0
  2  5  2  0  0  0  0
  3  6  2  0  0  0  0
  4  7  2  0  0  0  0
  4  8  1  0  0  0  0
  5 12  1  0  0  0  0
  6 13  1  0  0  0  0
  7 14  1  0  0  0  0
  8 16  2  0  0  0  0
  9 14  2  0  0  0  0
  9 16  1  0  0  0  0
 10 12  2  0  0  0  0
 10 20  1  0  0  0  0
 11 15  1  0  0  0  0
 11 20  2  0  0  0  0
 12 13  1  0  0  0  0
 13 15  2  0  0  0  0
 14 18  1  0  0  0  0
 15 21  1  0  0  0  0
 16 23  1  0  0  0  0
 17 18  1  0  0  0  0
 17 21  1  0  0  0  0
 17 22  2  0  0  0  0
  2 24  1  0  0  0  0
  3 25  1  0  0  0  0
  4 26  1  0  0  0  0
  5 27  1  0  0  0  0
  6 28  1  0  0  0  0
  7 29  1  0  0  0  0
  8 30  1  0  0  0  0
  9 31  1  0  0  0  0
 10 32  1  0  0  0  0
 18 33  1  0  0  0  0
 18 34  1  0  0  0  0
 21 35  1  0  0  0  0
M  END
> <compound>
JOH-UNI-ee5ed7c8-8

> <compound_smiles>
c1ccc2c(c1)cnc(c2NC(=O)Cc3cccc(c3)Cl)C#N

> <enantiomer_smiles>
c1ccc2c(c1)cnc(c2NC(=O)Cc3cccc(c3)Cl)C#N

> <scaffold>
chlorobenzene-linker

> <clash_score>
0

> <docking_score>
-9.622289657592773

> <overlap_score>
0.9898960590362549

> <MMFF_internal_energy>
131.57944718520503

> <docked_smiles>
c1ccc2c(c1)cnc(c2NC(=O)Cc3cccc(c3)Cl)C#N

$$$$
DAR-DIA-076fb6ea-13_1
  -OEChem-07262101023D

 49 50  0     0  0  0  0  0  0999 V2000
   11.9780    0.4600   23.9150 C   0  0  0  0  0  0  0  0  0  0  0  0
   10.6560    0.0720   23.7350 C   0  0  0  0  0  0  0  0  0  0  0  0
   12.9840   -0.1200   23.1530 C   0  0  0  0  0  0  0  0  0  0  0  0
    5.1824    1.7063   18.8479 C   0  0  0  0  0  0  0  0  0  0  0  0
   11.3360   -1.5050   22.0650 C   0  0  0  0  0  0  0  0  0  0  0  0
    5.6650    1.4646   17.5718 C   0  0  0  0  0  0  0  0  0  0  0  0
    7.1117   -0.1519   18.3282 C   0  0  0  0  0  0  0  0  0  0  0  0
   10.3220   -0.8940   22.7910 C   0  0  0  0  0  0  0  0  0  0  0  0
    5.7136    0.9630   19.8962 C   0  0  0  0  0  0  0  0  0  0  0  0
    6.6971    0.0142   19.6398 C   0  0  0  0  0  0  0  0  0  0  0  0
   12.6400   -1.1000   22.2390 C   0  0  0  0  0  0  0  0  0  0  0  0
    5.9438   -2.6539   19.8800 C   0  0  0  0  0  0  0  0  0  0  0  0
    4.8773   -3.4322   20.1072 C   0  0  0  0  0  0  0  0  0  0  0  0
    6.6751   -2.0203   21.0186 C   0  0  0  0  0  0  0  0  0  0  0  0
    8.3880   -0.3240   21.3070 C   0  0  0  0  0  0  0  0  0  0  0  0
    5.2121    1.2034   21.2823 C   0  0  0  0  0  0  0  0  0  0  0  0
    5.4592   -6.1900   18.9304 C   0  0  0  0  0  0  0  0  0  0  0  0
    3.4821   -6.0476   20.4375 C   0  0  0  0  0  0  0  0  0  0  0  0
    8.8810   -1.1900   22.4510 C   0  0  0  0  0  0  0  0  0  0  0  0
    4.1059   -4.1012   19.0152 C   0  0  0  0  0  0  0  0  0  0  0  0
    6.6193    0.5514   17.2839 N   0  0  0  0  0  0  0  0  0  0  0  0
    7.2820   -0.7860   20.6970 N   0  0  0  0  0  0  0  0  0  0  0  0
    4.0951   -5.5818   19.1406 N   0  3  0  0  0  0  0  0  0  0  0  0
    6.7003   -2.5468   22.1302 O   0  0  0  0  0  0  0  0  0  0  0  0
    8.9170    0.7530   21.0260 O   0  0  0  0  0  0  0  0  0  0  0  0
   13.8840   -1.8490   21.2740 Cl  0  0  0  0  0  0  0  0  0  0  0  0
   12.2249    1.2198   24.6546 H   0  0  0  0  0  0  0  0  0  0  0  0
    9.8763    0.5350   24.3454 H   0  0  0  0  0  0  0  0  0  0  0  0
   14.0077    0.1988   23.2842 H   0  0  0  0  0  0  0  0  0  0  0  0
    4.4145    2.4541   19.0143 H   0  0  0  0  0  0  0  0  0  0  0  0
   11.0892   -2.3009   21.3624 H   0  0  0  0  0  0  0  0  0  0  0  0
    5.2836    2.0179   16.7199 H   0  0  0  0  0  0  0  0  0  0  0  0
    7.8758   -0.8772   18.0646 H   0  0  0  0  0  0  0  0  0  0  0  0
    6.3082   -2.4892   18.8717 H   0  0  0  0  0  0  0  0  0  0  0  0
    4.5194   -3.5966   21.1203 H   0  0  0  0  0  0  0  0  0  0  0  0
    4.3584    0.5499   21.4960 H   0  0  0  0  0  0  0  0  0  0  0  0
    5.9950    1.0104   22.0260 H   0  0  0  0  0  0  0  0  0  0  0  0
    4.8963    2.2457   21.4143 H   0  0  0  0  0  0  0  0  0  0  0  0
    6.1180   -5.8112   19.7138 H   0  0  0  0  0  0  0  0  0  0  0  0
    5.3550   -7.2747   18.9954 H   0  0  0  0  0  0  0  0  0  0  0  0
    5.8108   -5.8880   17.9420 H   0  0  0  0  0  0  0  0  0  0  0  0
    4.0977   -5.6656   21.2540 H   0  0  0  0  0  0  0  0  0  0  0  0
    2.4677   -5.6475   20.4903 H   0  0  0  0  0  0  0  0  0  0  0  0
    3.4736   -7.1392   20.4300 H   0  0  0  0  0  0  0  0  0  0  0  0
    8.2424   -1.0087   23.3237 H   0  0  0  0  0  0  0  0  0  0  0  0
    8.8015   -2.2572   22.2121 H   0  0  0  0  0  0  0  0  0  0  0  0
    4.5113   -3.8819   18.0224 H   0  0  0  0  0  0  0  0  0  0  0  0
    3.0596   -3.7815   19.0423 H   0  0  0  0  0  0  0  0  0  0  0  0
    3.4941   -5.9565   18.3876 H   0  0  0  0  0  0  0  0  0  0  0  0
  1  2  2  0  0  0  0
  1  3  1  0  0  0  0
  2  8  1  0  0  0  0
  3 11  2  0  0  0  0
  4  6  2  0  0  0  0
  4  9  1  0  0  0  0
  5  8  2  0  0  0  0
  5 11  1  0  0  0  0
  6 21  1  0  0  0  0
  7 10  1  0  0  0  0
  7 21  2  0  0  0  0
  8 19  1  0  0  0  0
  9 10  2  0  0  0  0
  9 16  1  0  0  0  0
 10 22  1  0  0  0  0
 11 26  1  0  0  0  0
 12 13  2  0  0  0  0
 12 14  1  0  0  0  0
 13 20  1  0  0  0  0
 14 22  1  0  0  0  0
 14 24  2  0  0  0  0
 15 19  1  0  0  0  0
 15 22  1  0  0  0  0
 15 25  2  0  0  0  0
 17 23  1  0  0  0  0
 18 23  1  0  0  0  0
 20 23  1  0  0  0  0
  1 27  1  0  0  0  0
  2 28  1  0  0  0  0
  3 29  1  0  0  0  0
  4 30  1  0  0  0  0
  5 31  1  0  0  0  0
  6 32  1  0  0  0  0
  7 33  1  0  0  0  0
 12 34  1  0  0  0  0
 13 35  1  0  0  0  0
 16 36  1  0  0  0  0
 16 37  1  0  0  0  0
 16 38  1  0  0  0  0
 17 39  1  0  0  0  0
 17 40  1  0  0  0  0
 17 41  1  0  0  0  0
 18 42  1  0  0  0  0
 18 43  1  0  0  0  0
 18 44  1  0  0  0  0
 19 45  1  0  0  0  0
 19 46  1  0  0  0  0
 20 47  1  0  0  0  0
 20 48  1  0  0  0  0
 23 49  1  0  0  0  0
M  CHG  1  23   1
M  END
> <compound>
DAR-DIA-076fb6ea-13

> <compound_smiles>
Cc1ccncc1N(C(=O)Cc2cccc(c2)Cl)C(=O)/C=C/CN(C)C

> <enantiomer_smiles>
Cc1ccncc1N(C(=O)Cc2cccc(c2)Cl)C(=O)/C=C/CN(C)C

> <scaffold>
chlorobenzene-linker

> <clash_score>
7.282385908624234

> <docking_score>
-4.169826507568359

> <overlap_score>
0.8596783876419067

> <MMFF_internal_energy>
78.53589454689384

> <docked_smiles>
Cc1ccncc1N(C(=O)Cc2cccc(c2)Cl)C(=O)/C=C/C[NH+](C)C

$$$$
PET-UNK-12d8d43f-2_1
  -OEChem-07262101023D

 40 42  0     0  0  0  0  0  0999 V2000
    4.2649    2.8226   22.7088 C   0  0  0  0  0  0  0  0  0  0  0  0
    5.2091    1.9616   23.2633 C   0  0  0  0  0  0  0  0  0  0  0  0
   11.9780    0.4600   23.9150 C   0  0  0  0  0  0  0  0  0  0  0  0
    4.0044    2.7847   21.3393 C   0  0  0  0  0  0  0  0  0  0  0  0
    5.8971    1.0588   22.4507 C   0  0  0  0  0  0  0  0  0  0  0  0
   10.6560    0.0720   23.7350 C   0  0  0  0  0  0  0  0  0  0  0  0
   12.9840   -0.1200   23.1530 C   0  0  0  0  0  0  0  0  0  0  0  0
   11.3360   -1.5050   22.0650 C   0  0  0  0  0  0  0  0  0  0  0  0
    4.4695    1.7998   19.1357 C   0  0  0  0  0  0  0  0  0  0  0  0
    6.0175    0.1233   18.8754 C   0  0  0  0  0  0  0  0  0  0  0  0
    4.6906    1.8802   20.5120 C   0  0  0  0  0  0  0  0  0  0  0  0
    5.6473    1.0069   21.0696 C   0  0  0  0  0  0  0  0  0  0  0  0
   10.3220   -0.8940   22.7910 C   0  0  0  0  0  0  0  0  0  0  0  0
    6.3203    0.1132   20.2285 C   0  0  0  0  0  0  0  0  0  0  0  0
   12.6400   -1.1000   22.2390 C   0  0  0  0  0  0  0  0  0  0  0  0
    8.3880   -0.3240   21.3070 C   0  0  0  0  0  0  0  0  0  0  0  0
    7.0886   -2.2067   20.5693 C   0  0  0  0  0  0  0  0  0  0  0  0
    8.1326   -4.3299   20.3144 C   0  0  0  0  0  0  0  0  0  0  0  0
    8.8810   -1.1900   22.4510 C   0  0  0  0  0  0  0  0  0  0  0  0
    5.1089    0.9440   18.3068 N   0  0  0  0  0  0  0  0  0  0  0  0
    7.2820   -0.7860   20.6970 N   0  0  0  0  0  0  0  0  0  0  0  0
    8.9170    0.7530   21.0260 O   0  0  0  0  0  0  0  0  0  0  0  0
    5.9820   -2.7423   20.5414 O   0  0  0  0  0  0  0  0  0  0  0  0
    8.2609   -2.9114   20.4627 O   0  0  0  0  0  0  0  0  0  0  0  0
   13.8840   -1.8490   21.2740 Cl  0  0  0  0  0  0  0  0  0  0  0  0
    3.7310    3.5238   23.3434 H   0  0  0  0  0  0  0  0  0  0  0  0
    5.4103    1.9926   24.3304 H   0  0  0  0  0  0  0  0  0  0  0  0
   12.2249    1.2198   24.6546 H   0  0  0  0  0  0  0  0  0  0  0  0
    3.2640    3.4638   20.9228 H   0  0  0  0  0  0  0  0  0  0  0  0
    6.6270    0.4035   22.9204 H   0  0  0  0  0  0  0  0  0  0  0  0
    9.8763    0.5350   24.3454 H   0  0  0  0  0  0  0  0  0  0  0  0
   14.0077    0.1988   23.2842 H   0  0  0  0  0  0  0  0  0  0  0  0
   11.0892   -2.3009   21.3624 H   0  0  0  0  0  0  0  0  0  0  0  0
    3.7463    2.4434   18.6424 H   0  0  0  0  0  0  0  0  0  0  0  0
    6.5115   -0.5510   18.1816 H   0  0  0  0  0  0  0  0  0  0  0  0
    9.1254   -4.7805   20.2398 H   0  0  0  0  0  0  0  0  0  0  0  0
    7.5515   -4.5521   19.4159 H   0  0  0  0  0  0  0  0  0  0  0  0
    7.6166   -4.7335   21.1888 H   0  0  0  0  0  0  0  0  0  0  0  0
    8.2419   -1.0082   23.3227 H   0  0  0  0  0  0  0  0  0  0  0  0
    8.8018   -2.2560   22.2088 H   0  0  0  0  0  0  0  0  0  0  0  0
  1  2  1  0  0  0  0
  1  4  2  0  0  0  0
  2  5  2  0  0  0  0
  3  6  2  0  0  0  0
  3  7  1  0  0  0  0
  4 11  1  0  0  0  0
  5 12  1  0  0  0  0
  6 13  1  0  0  0  0
  7 15  2  0  0  0  0
  8 13  2  0  0  0  0
  8 15  1  0  0  0  0
  9 11  2  0  0  0  0
  9 20  1  0  0  0  0
 10 14  1  0  0  0  0
 10 20  2  0  0  0  0
 11 12  1  0  0  0  0
 12 14  2  0  0  0  0
 13 19  1  0  0  0  0
 14 21  1  0  0  0  0
 15 25  1  0  0  0  0
 16 19  1  0  0  0  0
 16 21  1  0  0  0  0
 16 22  2  0  0  0  0
 17 21  1  0  0  0  0
 17 23  2  0  0  0  0
 17 24  1  0  0  0  0
 18 24  1  0  0  0  0
  1 26  1  0  0  0  0
  2 27  1  0  0  0  0
  3 28  1  0  0  0  0
  4 29  1  0  0  0  0
  5 30  1  0  0  0  0
  6 31  1  0  0  0  0
  7 32  1  0  0  0  0
  8 33  1  0  0  0  0
  9 34  1  0  0  0  0
 10 35  1  0  0  0  0
 18 36  1  0  0  0  0
 18 37  1  0  0  0  0
 18 38  1  0  0  0  0
 19 39  1  0  0  0  0
 19 40  1  0  0  0  0
M  END
> <compound>
PET-UNK-12d8d43f-2

> <compound_smiles>
COC(=O)N(c1cncc2c1cccc2)C(=O)Cc3cccc(c3)Cl

> <enantiomer_smiles>
COC(=O)N(c1cncc2c1cccc2)C(=O)Cc3cccc(c3)Cl

> <scaffold>
chlorobenzene-linker

> <clash_score>
1.5028364374931082

> <docking_score>
-5.19242000579834

> <overlap_score>
0.8970650434494019

> <MMFF_internal_energy>
77.35599207171218

> <docked_smiles>
COC(=O)N(c1cncc2c1cccc2)C(=O)Cc3cccc(c3)Cl

$$$$
DAR-DIA-076fb6ea-3_1
  -OEChem-07262101023D

 46 48  0     0  0  0  0  0  0999 V2000
    3.7179    2.9149   20.2963 C   0  0  0  0  0  0  0  0  0  0  0  0
    4.2236    2.1913   21.3738 C   0  0  0  0  0  0  0  0  0  0  0  0
   11.9780    0.4600   23.9150 C   0  0  0  0  0  0  0  0  0  0  0  0
    4.1982    2.6774   19.0086 C   0  0  0  0  0  0  0  0  0  0  0  0
    5.2118    1.2269   21.1685 C   0  0  0  0  0  0  0  0  0  0  0  0
   10.6560    0.0720   23.7350 C   0  0  0  0  0  0  0  0  0  0  0  0
   12.9840   -0.1200   23.1530 C   0  0  0  0  0  0  0  0  0  0  0  0
   11.3360   -1.5050   22.0650 C   0  0  0  0  0  0  0  0  0  0  0  0
    5.7088    1.4311   17.5233 C   0  0  0  0  0  0  0  0  0  0  0  0
    7.1336   -0.1756   18.3379 C   0  0  0  0  0  0  0  0  0  0  0  0
    5.1924    1.7094   18.7903 C   0  0  0  0  0  0  0  0  0  0  0  0
    5.7069    0.9747   19.8786 C   0  0  0  0  0  0  0  0  0  0  0  0
   10.3220   -0.8940   22.7910 C   0  0  0  0  0  0  0  0  0  0  0  0
    6.6971    0.0146   19.6401 C   0  0  0  0  0  0  0  0  0  0  0  0
   12.6400   -1.1000   22.2390 C   0  0  0  0  0  0  0  0  0  0  0  0
    5.9426   -2.6540   19.8793 C   0  0  0  0  0  0  0  0  0  0  0  0
    5.3240   -3.8274   20.0563 C   0  0  0  0  0  0  0  0  0  0  0  0
    6.6749   -2.0204   21.0184 C   0  0  0  0  0  0  0  0  0  0  0  0
    4.6106   -4.4487   18.9187 C   0  0  0  0  0  0  0  0  0  0  0  0
    8.3880   -0.3240   21.3070 C   0  0  0  0  0  0  0  0  0  0  0  0
    3.3391   -6.3637   18.3818 C   0  0  0  0  0  0  0  0  0  0  0  0
    8.8810   -1.1900   22.4510 C   0  0  0  0  0  0  0  0  0  0  0  0
    6.6648    0.5083   17.2725 N   0  0  0  0  0  0  0  0  0  0  0  0
    7.2820   -0.7860   20.6970 N   0  0  0  0  0  0  0  0  0  0  0  0
    6.6998   -2.5470   22.1299 O   0  0  0  0  0  0  0  0  0  0  0  0
    4.5276   -3.9801   17.7944 O   0  0  0  0  0  0  0  0  0  0  0  0
    8.9170    0.7530   21.0260 O   0  0  0  0  0  0  0  0  0  0  0  0
    4.0746   -5.6191   19.3584 O   0  0  0  0  0  0  0  0  0  0  0  0
   13.8840   -1.8490   21.2740 Cl  0  0  0  0  0  0  0  0  0  0  0  0
    2.9490    3.6644   20.4589 H   0  0  0  0  0  0  0  0  0  0  0  0
    3.8480    2.3776   22.3759 H   0  0  0  0  0  0  0  0  0  0  0  0
   12.2249    1.2198   24.6546 H   0  0  0  0  0  0  0  0  0  0  0  0
    3.7923    3.2513   18.1787 H   0  0  0  0  0  0  0  0  0  0  0  0
    5.5818    0.6833   22.0347 H   0  0  0  0  0  0  0  0  0  0  0  0
    9.8763    0.5350   24.3454 H   0  0  0  0  0  0  0  0  0  0  0  0
   14.0077    0.1988   23.2842 H   0  0  0  0  0  0  0  0  0  0  0  0
   11.0892   -2.3009   21.3624 H   0  0  0  0  0  0  0  0  0  0  0  0
    5.3565    1.9603   16.6422 H   0  0  0  0  0  0  0  0  0  0  0  0
    7.8993   -0.9087   18.1008 H   0  0  0  0  0  0  0  0  0  0  0  0
    5.9496   -2.1479   18.9200 H   0  0  0  0  0  0  0  0  0  0  0  0
    5.3177   -4.3448   21.0095 H   0  0  0  0  0  0  0  0  0  0  0  0
    2.9537   -7.2801   18.8356 H   0  0  0  0  0  0  0  0  0  0  0  0
    3.9925   -6.6079   17.5405 H   0  0  0  0  0  0  0  0  0  0  0  0
    2.5032   -5.7561   18.0270 H   0  0  0  0  0  0  0  0  0  0  0  0
    8.8011   -2.2572   22.2121 H   0  0  0  0  0  0  0  0  0  0  0  0
    8.2426   -1.0087   23.3240 H   0  0  0  0  0  0  0  0  0  0  0  0
  1  2  1  0  0  0  0
  1  4  2  0  0  0  0
  2  5  2  0  0  0  0
  3  6  2  0  0  0  0
  3  7  1  0  0  0  0
  4 11  1  0  0  0  0
  5 12  1  0  0  0  0
  6 13  1  0  0  0  0
  7 15  2  0  0  0  0
  8 13  2  0  0  0  0
  8 15  1  0  0  0  0
  9 11  2  0  0  0  0
  9 23  1  0  0  0  0
 10 14  1  0  0  0  0
 10 23  2  0  0  0  0
 11 12  1  0  0  0  0
 12 14  2  0  0  0  0
 13 22  1  0  0  0  0
 14 24  1  0  0  0  0
 15 29  1  0  0  0  0
 16 17  2  0  0  0  0
 16 18  1  0  0  0  0
 17 19  1  0  0  0  0
 18 24  1  0  0  0  0
 18 25  2  0  0  0  0
 19 26  2  0  0  0  0
 19 28  1  0  0  0  0
 20 22  1  0  0  0  0
 20 24  1  0  0  0  0
 20 27  2  0  0  0  0
 21 28  1  0  0  0  0
  1 30  1  0  0  0  0
  2 31  1  0  0  0  0
  3 32  1  0  0  0  0
  4 33  1  0  0  0  0
  5 34  1  0  0  0  0
  6 35  1  0  0  0  0
  7 36  1  0  0  0  0
  8 37  1  0  0  0  0
  9 38  1  0  0  0  0
 10 39  1  0  0  0  0
 16 40  1  0  0  0  0
 17 41  1  0  0  0  0
 21 42  1  0  0  0  0
 21 43  1  0  0  0  0
 21 44  1  0  0  0  0
 22 45  1  0  0  0  0
 22 46  1  0  0  0  0
M  END
> <compound>
DAR-DIA-076fb6ea-3

> <compound_smiles>
COC(=O)/C=C/C(=O)N(c1cncc2c1cccc2)C(=O)Cc3cccc(c3)Cl

> <enantiomer_smiles>
COC(=O)/C=C/C(=O)N(c1cncc2c1cccc2)C(=O)Cc3cccc(c3)Cl

> <scaffold>
chlorobenzene-linker

> <clash_score>
9.066126896983516

> <docking_score>
-4.540963649749756

> <overlap_score>
0.9619091153144836

> <MMFF_internal_energy>
79.48680524403794

> <docked_smiles>
COC(=O)/C=C/C(=O)N(c1cncc2c1cccc2)C(=O)Cc3cccc(c3)Cl

$$$$
JOH-UNI-ee5ed7c8-2_1
  -OEChem-07262101023D

 41 43  0     0  0  0  0  0  0999 V2000
    8.3225    3.3238   22.7996 C   0  0  0  0  0  0  0  0  0  0  0  0
    3.4323    2.5429   19.9366 C   0  0  0  0  0  0  0  0  0  0  0  0
   11.9780    0.4600   23.9150 C   0  0  0  0  0  0  0  0  0  0  0  0
    3.8711    2.1147   18.6839 C   0  0  0  0  0  0  0  0  0  0  0  0
    4.0389    2.0561   21.0921 C   0  0  0  0  0  0  0  0  0  0  0  0
   10.6560    0.0720   23.7350 C   0  0  0  0  0  0  0  0  0  0  0  0
   12.9840   -0.1200   23.1530 C   0  0  0  0  0  0  0  0  0  0  0  0
   11.3360   -1.5050   22.0650 C   0  0  0  0  0  0  0  0  0  0  0  0
    5.4039    0.7296   17.3521 C   0  0  0  0  0  0  0  0  0  0  0  0
    6.9812   -0.6095   18.3490 C   0  0  0  0  0  0  0  0  0  0  0  0
    4.9250    1.1918   18.5795 C   0  0  0  0  0  0  0  0  0  0  0  0
    5.5418    0.6966   19.7470 C   0  0  0  0  0  0  0  0  0  0  0  0
    5.0872    1.1388   21.0002 C   0  0  0  0  0  0  0  0  0  0  0  0
   10.3220   -0.8940   22.7910 C   0  0  0  0  0  0  0  0  0  0  0  0
    6.5902   -0.2222   19.6216 C   0  0  0  0  0  0  0  0  0  0  0  0
   12.6400   -1.1000   22.2390 C   0  0  0  0  0  0  0  0  0  0  0  0
    7.2536    2.5677   22.2467 C   0  0  0  0  0  0  0  0  0  0  0  0
    6.7686    1.4897   22.8759 C   0  0  0  0  0  0  0  0  0  0  0  0
    5.6349    0.7078   22.2837 C   0  0  0  0  0  0  0  0  0  0  0  0
    8.3880   -0.3240   21.3070 C   0  0  0  0  0  0  0  0  0  0  0  0
    8.8810   -1.1900   22.4510 C   0  0  0  0  0  0  0  0  0  0  0  0
    9.1949    3.9439   23.2478 N   0  0  0  0  0  0  0  0  0  0  0  0
    6.4149   -0.1570   17.2101 N   0  0  0  0  0  0  0  0  0  0  0  0
    7.2820   -0.7860   20.6970 N   0  0  0  0  0  0  0  0  0  0  0  0
    5.1891   -0.2955   22.8543 O   0  0  0  0  0  0  0  0  0  0  0  0
    8.9170    0.7530   21.0260 O   0  0  0  0  0  0  0  0  0  0  0  0
   13.8840   -1.8490   21.2740 Cl  0  0  0  0  0  0  0  0  0  0  0  0
    2.6176    3.2577   20.0109 H   0  0  0  0  0  0  0  0  0  0  0  0
   12.2249    1.2198   24.6546 H   0  0  0  0  0  0  0  0  0  0  0  0
    3.3864    2.5050   17.7918 H   0  0  0  0  0  0  0  0  0  0  0  0
    3.6833    2.4026   22.0596 H   0  0  0  0  0  0  0  0  0  0  0  0
    9.8763    0.5350   24.3454 H   0  0  0  0  0  0  0  0  0  0  0  0
   14.0077    0.1988   23.2842 H   0  0  0  0  0  0  0  0  0  0  0  0
   11.0892   -2.3008   21.3624 H   0  0  0  0  0  0  0  0  0  0  0  0
    4.9732    1.0710   16.4146 H   0  0  0  0  0  0  0  0  0  0  0  0
    7.7897   -1.3193   18.1964 H   0  0  0  0  0  0  0  0  0  0  0  0
    6.8509    2.8991   21.2954 H   0  0  0  0  0  0  0  0  0  0  0  0
    7.1744    1.1685   23.8291 H   0  0  0  0  0  0  0  0  0  0  0  0
    8.7774   -2.2383   22.1732 H   0  0  0  0  0  0  0  0  0  0  0  0
    8.2557   -1.0153   23.3257 H   0  0  0  0  0  0  0  0  0  0  0  0
    6.8982   -1.6620   21.0675 H   0  0  0  0  0  0  0  0  0  0  0  0
  1 17  1  0  0  0  0
  1 22  3  0  0  0  0
  2  4  2  0  0  0  0
  2  5  1  0  0  0  0
  3  6  1  0  0  0  0
  3  7  2  0  0  0  0
  4 11  1  0  0  0  0
  5 13  2  0  0  0  0
  6 14  2  0  0  0  0
  7 16  1  0  0  0  0
  8 14  1  0  0  0  0
  8 16  2  0  0  0  0
  9 11  2  0  0  0  0
  9 23  1  0  0  0  0
 10 15  1  0  0  0  0
 10 23  2  0  0  0  0
 11 12  1  0  0  0  0
 12 13  1  0  0  0  0
 12 15  2  0  0  0  0
 13 19  1  0  0  0  0
 14 21  1  0  0  0  0
 15 24  1  0  0  0  0
 16 27  1  0  0  0  0
 17 18  2  0  0  0  0
 18 19  1  0  0  0  0
 19 25  2  0  0  0  0
 20 21  1  0  0  0  0
 20 24  1  0  0  0  0
 20 26  2  0  0  0  0
  2 28  1  0  0  0  0
  3 29  1  0  0  0  0
  4 30  1  0  0  0  0
  5 31  1  0  0  0  0
  6 32  1  0  0  0  0
  7 33  1  0  0  0  0
  8 34  1  0  0  0  0
  9 35  1  0  0  0  0
 10 36  1  0  0  0  0
 17 37  1  0  0  0  0
 18 38  1  0  0  0  0
 21 39  1  0  0  0  0
 21 40  1  0  0  0  0
 24 41  1  0  0  0  0
M  END
> <compound>
JOH-UNI-ee5ed7c8-2

> <compound_smiles>
c1cc(cc(c1)Cl)CC(=O)Nc2cncc3c2c(ccc3)C(=O)/C=C/C#N

> <enantiomer_smiles>
c1cc(cc(c1)Cl)CC(=O)Nc2cncc3c2c(ccc3)C(=O)/C=C/C#N

> <scaffold>
chlorobenzene-linker

> <clash_score>
0

> <docking_score>
-10.784256935119629

> <overlap_score>
1.0

> <MMFF_internal_energy>
118.83700775772073

> <docked_smiles>
c1cc(cc(c1)Cl)CC(=O)Nc2cncc3c2c(ccc3)C(=O)/C=C/C#N

$$$$
DAR-DIA-56cf811e-3_1
  -OEChem-07262101023D

 41 43  0     0  0  0  0  0  0999 V2000
    3.9965   -3.3250   18.8073 C   0  0  0  0  0  0  0  0  0  0  0  0
    3.6536    2.8012   20.3241 C   0  0  0  0  0  0  0  0  0  0  0  0
    4.1908    2.1078   21.4061 C   0  0  0  0  0  0  0  0  0  0  0  0
   11.9780    0.4600   23.9150 C   0  0  0  0  0  0  0  0  0  0  0  0
    4.1200    2.5517   19.0336 C   0  0  0  0  0  0  0  0  0  0  0  0
    5.1970    1.1618   21.2026 C   0  0  0  0  0  0  0  0  0  0  0  0
   10.6560    0.0720   23.7350 C   0  0  0  0  0  0  0  0  0  0  0  0
   12.9840   -0.1200   23.1530 C   0  0  0  0  0  0  0  0  0  0  0  0
   11.3360   -1.5050   22.0650 C   0  0  0  0  0  0  0  0  0  0  0  0
    5.6359    1.3127   17.5474 C   0  0  0  0  0  0  0  0  0  0  0  0
    7.1076   -0.2479   18.3681 C   0  0  0  0  0  0  0  0  0  0  0  0
    5.1321    1.6018   18.8171 C   0  0  0  0  0  0  0  0  0  0  0  0
    5.6786    0.8978   19.9100 C   0  0  0  0  0  0  0  0  0  0  0  0
   10.3220   -0.8940   22.7910 C   0  0  0  0  0  0  0  0  0  0  0  0
    6.6861   -0.0444   19.6732 C   0  0  0  0  0  0  0  0  0  0  0  0
   12.6400   -1.1000   22.2390 C   0  0  0  0  0  0  0  0  0  0  0  0
    4.7008   -2.6168   19.8182 C   0  0  0  0  0  0  0  0  0  0  0  0
    6.0130   -2.8025   20.0080 C   0  0  0  0  0  0  0  0  0  0  0  0
    6.7291   -2.0548   21.0865 C   0  0  0  0  0  0  0  0  0  0  0  0
    8.3880   -0.3240   21.3070 C   0  0  0  0  0  0  0  0  0  0  0  0
    8.8810   -1.1900   22.4510 C   0  0  0  0  0  0  0  0  0  0  0  0
    3.4182   -3.8998   17.9817 N   0  0  0  0  0  0  0  0  0  0  0  0
    6.6083    0.4068   17.2982 N   0  0  0  0  0  0  0  0  0  0  0  0
    7.2820   -0.7860   20.6970 N   0  0  0  0  0  0  0  0  0  0  0  0
    6.8239   -2.5143   22.2237 O   0  0  0  0  0  0  0  0  0  0  0  0
    8.9170    0.7530   21.0260 O   0  0  0  0  0  0  0  0  0  0  0  0
   13.8840   -1.8490   21.2740 Cl  0  0  0  0  0  0  0  0  0  0  0  0
    2.8707    3.5365   20.4853 H   0  0  0  0  0  0  0  0  0  0  0  0
    3.8259    2.3035   22.4104 H   0  0  0  0  0  0  0  0  0  0  0  0
   12.2249    1.2198   24.6546 H   0  0  0  0  0  0  0  0  0  0  0  0
    3.6894    3.1018   18.2001 H   0  0  0  0  0  0  0  0  0  0  0  0
    5.5916    0.6417   22.0725 H   0  0  0  0  0  0  0  0  0  0  0  0
    9.8763    0.5350   24.3454 H   0  0  0  0  0  0  0  0  0  0  0  0
   14.0077    0.1988   23.2842 H   0  0  0  0  0  0  0  0  0  0  0  0
   11.0892   -2.3009   21.3624 H   0  0  0  0  0  0  0  0  0  0  0  0
    5.2591    1.8186   16.6627 H   0  0  0  0  0  0  0  0  0  0  0  0
    7.8858   -0.9682   18.1322 H   0  0  0  0  0  0  0  0  0  0  0  0
    4.1329   -1.9180   20.4233 H   0  0  0  0  0  0  0  0  0  0  0  0
    6.5759   -3.5088   19.4059 H   0  0  0  0  0  0  0  0  0  0  0  0
    8.8016   -2.2575   22.2127 H   0  0  0  0  0  0  0  0  0  0  0  0
    8.2416   -1.0087   23.3236 H   0  0  0  0  0  0  0  0  0  0  0  0
  1 17  1  0  0  0  0
  1 22  3  0  0  0  0
  2  3  1  0  0  0  0
  2  5  2  0  0  0  0
  3  6  2  0  0  0  0
  4  7  2  0  0  0  0
  4  8  1  0  0  0  0
  5 12  1  0  0  0  0
  6 13  1  0  0  0  0
  7 14  1  0  0  0  0
  8 16  2  0  0  0  0
  9 14  2  0  0  0  0
  9 16  1  0  0  0  0
 10 12  2  0  0  0  0
 10 23  1  0  0  0  0
 11 15  1  0  0  0  0
 11 23  2  0  0  0  0
 12 13  1  0  0  0  0
 13 15  2  0  0  0  0
 14 21  1  0  0  0  0
 15 24  1  0  0  0  0
 16 27  1  0  0  0  0
 17 18  2  0  0  0  0
 18 19  1  0  0  0  0
 19 24  1  0  0  0  0
 19 25  2  0  0  0  0
 20 21  1  0  0  0  0
 20 24  1  0  0  0  0
 20 26  2  0  0  0  0
  2 28  1  0  0  0  0
  3 29  1  0  0  0  0
  4 30  1  0  0  0  0
  5 31  1  0  0  0  0
  6 32  1  0  0  0  0
  7 33  1  0  0  0  0
  8 34  1  0  0  0  0
  9 35  1  0  0  0  0
 10 36  1  0  0  0  0
 11 37  1  0  0  0  0
 17 38  1  0  0  0  0
 18 39  1  0  0  0  0
 21 40  1  0  0  0  0
 21 41  1  0  0  0  0
M  END
> <compound>
DAR-DIA-56cf811e-3

> <compound_smiles>
c1ccc2c(c1)cncc2N(C(=O)Cc3cccc(c3)Cl)C(=O)/C=C/C#N

> <enantiomer_smiles>
c1ccc2c(c1)cncc2N(C(=O)Cc3cccc(c3)Cl)C(=O)/C=C/C#N

> <scaffold>
chlorobenzene-linker

> <clash_score>
3.5393985320292156

> <docking_score>
-7.0119733810424805

> <overlap_score>
0.9814930558204651

> <MMFF_internal_energy>
97.97573014323663

> <docked_smiles>
c1ccc2c(c1)cncc2N(C(=O)Cc3cccc(c3)Cl)C(=O)/C=C/C#N

$$$$
JOH-UNI-ee5ed7c8-12_1
  -OEChem-07262101023D

 42 44  0     0  0  0  0  0  0999 V2000
    4.1800   -0.1964   24.6503 C   0  0  0  0  0  0  0  0  0  0  0  0
    4.7894    0.2168   23.7025 C   0  0  0  0  0  0  0  0  0  0  0  0
   11.9780    0.4600   23.9150 C   0  0  0  0  0  0  0  0  0  0  0  0
   10.6560    0.0720   23.7350 C   0  0  0  0  0  0  0  0  0  0  0  0
   12.9840   -0.1200   23.1530 C   0  0  0  0  0  0  0  0  0  0  0  0
   11.3360   -1.5050   22.0650 C   0  0  0  0  0  0  0  0  0  0  0  0
    6.9760   -0.2172   18.4351 C   0  0  0  0  0  0  0  0  0  0  0  0
    5.1884    0.9568   17.6309 C   0  0  0  0  0  0  0  0  0  0  0  0
   10.3220   -0.8940   22.7910 C   0  0  0  0  0  0  0  0  0  0  0  0
    5.4119    0.6904   20.0164 C   0  0  0  0  0  0  0  0  0  0  0  0
    6.5701   -0.0460   19.7542 C   0  0  0  0  0  0  0  0  0  0  0  0
    4.7037    1.1918   18.9123 C   0  0  0  0  0  0  0  0  0  0  0  0
   12.6400   -1.1000   22.2390 C   0  0  0  0  0  0  0  0  0  0  0  0
    5.5243    0.7133   22.5620 C   0  0  0  0  0  0  0  0  0  0  0  0
    8.3880   -0.3240   21.3070 C   0  0  0  0  0  0  0  0  0  0  0  0
    3.4742    1.3227   21.3493 C   0  0  0  0  0  0  0  0  0  0  0  0
    3.2492    2.3888   20.2971 C   0  0  0  0  0  0  0  0  0  0  0  0
    6.7311   -2.1101   21.1251 C   0  0  0  0  0  0  0  0  0  0  0  0
    8.8810   -1.1900   22.4510 C   0  0  0  0  0  0  0  0  0  0  0  0
    6.3174    0.2709   17.3652 N   0  0  0  0  0  0  0  0  0  0  0  0
    4.8759    0.8955   21.3304 N   0  0  0  0  0  0  0  0  0  0  0  0
    7.2820   -0.7860   20.6970 N   0  0  0  0  0  0  0  0  0  0  0  0
    6.7295    0.8810   22.7356 O   0  0  0  0  0  0  0  0  0  0  0  0
    8.9170    0.7530   21.0260 O   0  0  0  0  0  0  0  0  0  0  0  0
    3.5313    1.8931   18.9908 O   0  0  0  0  0  0  0  0  0  0  0  0
   13.8840   -1.8490   21.2740 Cl  0  0  0  0  0  0  0  0  0  0  0  0
    3.6403   -0.5633   25.4920 H   0  0  0  0  0  0  0  0  0  0  0  0
   12.2249    1.2198   24.6546 H   0  0  0  0  0  0  0  0  0  0  0  0
    9.8763    0.5350   24.3454 H   0  0  0  0  0  0  0  0  0  0  0  0
   14.0077    0.1988   23.2842 H   0  0  0  0  0  0  0  0  0  0  0  0
   11.0892   -2.3009   21.3624 H   0  0  0  0  0  0  0  0  0  0  0  0
    7.8583   -0.8008   18.1869 H   0  0  0  0  0  0  0  0  0  0  0  0
    4.6680    1.3343   16.7557 H   0  0  0  0  0  0  0  0  0  0  0  0
    3.1880    1.7224   22.3213 H   0  0  0  0  0  0  0  0  0  0  0  0
    2.8712    0.4373   21.1361 H   0  0  0  0  0  0  0  0  0  0  0  0
    2.1982    2.7012   20.3073 H   0  0  0  0  0  0  0  0  0  0  0  0
    3.8523    3.2872   20.4903 H   0  0  0  0  0  0  0  0  0  0  0  0
    7.1221   -2.9004   20.4675 H   0  0  0  0  0  0  0  0  0  0  0  0
    7.0328   -2.3143   22.1631 H   0  0  0  0  0  0  0  0  0  0  0  0
    5.6333   -2.0887   21.0599 H   0  0  0  0  0  0  0  0  0  0  0  0
    8.8006   -2.2403   22.1717 H   0  0  0  0  0  0  0  0  0  0  0  0
    8.2668   -1.0117   23.3332 H   0  0  0  0  0  0  0  0  0  0  0  0
  1  2  3  0  0  0  0
  2 14  1  0  0  0  0
  3  4  2  0  0  0  0
  3  5  1  0  0  0  0
  4  9  1  0  0  0  0
  5 13  2  0  0  0  0
  6  9  2  0  0  0  0
  6 13  1  0  0  0  0
  7 11  1  0  0  0  0
  7 20  2  0  0  0  0
  8 12  2  0  0  0  0
  8 20  1  0  0  0  0
  9 19  1  0  0  0  0
 10 11  2  0  0  0  0
 10 12  1  0  0  0  0
 10 21  1  0  0  0  0
 11 22  1  0  0  0  0
 12 25  1  0  0  0  0
 13 26  1  0  0  0  0
 14 21  1  0  0  0  0
 14 23  2  0  0  0  0
 15 19  1  0  0  0  0
 15 22  1  0  0  0  0
 15 24  2  0  0  0  0
 16 17  1  0  0  0  0
 16 21  1  0  0  0  0
 17 25  1  0  0  0  0
 18 22  1  0  0  0  0
  1 27  1  0  0  0  0
  3 28  1  0  0  0  0
  4 29  1  0  0  0  0
  5 30  1  0  0  0  0
  6 31  1  0  0  0  0
  7 32  1  0  0  0  0
  8 33  1  0  0  0  0
 16 34  1  0  0  0  0
 16 35  1  0  0  0  0
 17 36  1  0  0  0  0
 17 37  1  0  0  0  0
 18 38  1  0  0  0  0
 18 39  1  0  0  0  0
 18 40  1  0  0  0  0
 19 41  1  0  0  0  0
 19 42  1  0  0  0  0
M  END
> <compound>
JOH-UNI-ee5ed7c8-12

> <compound_smiles>
CN(c1cncc2c1N(CCO2)C(=O)C#C)C(=O)Cc3cccc(c3)Cl

> <enantiomer_smiles>
CN(c1cncc2c1N(CCO2)C(=O)C#C)C(=O)Cc3cccc(c3)Cl

> <scaffold>
chlorobenzene-linker

> <clash_score>
0

> <docking_score>
-11.258933067321777

> <overlap_score>
1.02254056930542

> <MMFF_internal_energy>
141.5618719386507

> <docked_smiles>
CN(c1cncc2c1N(CCO2)C(=O)C#C)C(=O)Cc3cccc(c3)Cl

$$$$
JOH-UNI-3fc3434e-1_1
  -OEChem-07262101023D

 38 40  0     0  0  0  0  0  0999 V2000
    6.6891    2.4949   23.9431 C   0  0  0  0  0  0  0  0  0  0  0  0
    6.2123    1.6883   23.1921 C   0  0  0  0  0  0  0  0  0  0  0  0
    3.4323    2.5429   19.9366 C   0  0  0  0  0  0  0  0  0  0  0  0
   11.9780    0.4600   23.9150 C   0  0  0  0  0  0  0  0  0  0  0  0
    3.8711    2.1147   18.6839 C   0  0  0  0  0  0  0  0  0  0  0  0
    4.0389    2.0561   21.0921 C   0  0  0  0  0  0  0  0  0  0  0  0
   10.6560    0.0720   23.7350 C   0  0  0  0  0  0  0  0  0  0  0  0
   12.9840   -0.1200   23.1530 C   0  0  0  0  0  0  0  0  0  0  0  0
   11.3360   -1.5050   22.0650 C   0  0  0  0  0  0  0  0  0  0  0  0
    5.4039    0.7296   17.3521 C   0  0  0  0  0  0  0  0  0  0  0  0
    6.9812   -0.6095   18.3490 C   0  0  0  0  0  0  0  0  0  0  0  0
    4.9250    1.1918   18.5795 C   0  0  0  0  0  0  0  0  0  0  0  0
    5.5418    0.6966   19.7470 C   0  0  0  0  0  0  0  0  0  0  0  0
    5.0872    1.1388   21.0002 C   0  0  0  0  0  0  0  0  0  0  0  0
   10.3220   -0.8940   22.7910 C   0  0  0  0  0  0  0  0  0  0  0  0
    6.5902   -0.2222   19.6216 C   0  0  0  0  0  0  0  0  0  0  0  0
   12.6400   -1.1000   22.2390 C   0  0  0  0  0  0  0  0  0  0  0  0
    5.6349    0.7078   22.2837 C   0  0  0  0  0  0  0  0  0  0  0  0
    8.3880   -0.3240   21.3070 C   0  0  0  0  0  0  0  0  0  0  0  0
    8.8810   -1.1900   22.4510 C   0  0  0  0  0  0  0  0  0  0  0  0
    6.4149   -0.1570   17.2101 N   0  0  0  0  0  0  0  0  0  0  0  0
    7.2820   -0.7860   20.6970 N   0  0  0  0  0  0  0  0  0  0  0  0
    5.6381   -0.4714   22.6529 O   0  0  0  0  0  0  0  0  0  0  0  0
    8.9170    0.7530   21.0260 O   0  0  0  0  0  0  0  0  0  0  0  0
   13.8840   -1.8490   21.2740 Cl  0  0  0  0  0  0  0  0  0  0  0  0
    7.1116    3.2111   24.6083 H   0  0  0  0  0  0  0  0  0  0  0  0
    2.6176    3.2577   20.0109 H   0  0  0  0  0  0  0  0  0  0  0  0
   12.2249    1.2198   24.6546 H   0  0  0  0  0  0  0  0  0  0  0  0
    3.3864    2.5050   17.7918 H   0  0  0  0  0  0  0  0  0  0  0  0
    3.6833    2.4026   22.0596 H   0  0  0  0  0  0  0  0  0  0  0  0
    9.8763    0.5350   24.3454 H   0  0  0  0  0  0  0  0  0  0  0  0
   14.0077    0.1988   23.2842 H   0  0  0  0  0  0  0  0  0  0  0  0
   11.0892   -2.3008   21.3624 H   0  0  0  0  0  0  0  0  0  0  0  0
    4.9732    1.0710   16.4146 H   0  0  0  0  0  0  0  0  0  0  0  0
    7.7897   -1.3193   18.1964 H   0  0  0  0  0  0  0  0  0  0  0  0
    8.7774   -2.2383   22.1732 H   0  0  0  0  0  0  0  0  0  0  0  0
    8.2557   -1.0153   23.3257 H   0  0  0  0  0  0  0  0  0  0  0  0
    6.8982   -1.6620   21.0675 H   0  0  0  0  0  0  0  0  0  0  0  0
  1  2  3  0  0  0  0
  2 18  1  0  0  0  0
  3  5  1  0  0  0  0
  3  6  2  0  0  0  0
  4  7  2  0  0  0  0
  4  8  1  0  0  0  0
  5 12  2  0  0  0  0
  6 14  1  0  0  0  0
  7 15  1  0  0  0  0
  8 17  2  0  0  0  0
  9 15  2  0  0  0  0
  9 17  1  0  0  0  0
 10 12  1  0  0  0  0
 10 21  2  0  0  0  0
 11 16  2  0  0  0  0
 11 21  1  0  0  0  0
 12 13  1  0  0  0  0
 13 14  2  0  0  0  0
 13 16  1  0  0  0  0
 14 18  1  0  0  0  0
 15 20  1  0  0  0  0
 16 22  1  0  0  0  0
 17 25  1  0  0  0  0
 18 23  2  0  0  0  0
 19 20  1  0  0  0  0
 19 22  1  0  0  0  0
 19 24  2  0  0  0  0
  1 26  1  0  0  0  0
  3 27  1  0  0  0  0
  4 28  1  0  0  0  0
  5 29  1  0  0  0  0
  6 30  1  0  0  0  0
  7 31  1  0  0  0  0
  8 32  1  0  0  0  0
  9 33  1  0  0  0  0
 10 34  1  0  0  0  0
 11 35  1  0  0  0  0
 20 36  1  0  0  0  0
 20 37  1  0  0  0  0
 22 38  1  0  0  0  0
M  END
> <compound>
JOH-UNI-3fc3434e-1

> <compound_smiles>
C#CC(=O)c1cccc2c1c(cnc2)NC(=O)Cc3cccc(c3)Cl

> <enantiomer_smiles>
C#CC(=O)c1cccc2c1c(cnc2)NC(=O)Cc3cccc(c3)Cl

> <scaffold>
chlorobenzene-linker

> <clash_score>
0

> <docking_score>
-11.401322364807129

> <overlap_score>
1.0

> <MMFF_internal_energy>
123.29573303551784

> <docked_smiles>
C#CC(=O)c1cccc2c1c(cnc2)NC(=O)Cc3cccc(c3)Cl

$$$$
DAR-DIA-56cf811e-4_1
  -OEChem-07262101023D

 38 39  0     0  0  0  0  0  0999 V2000
    3.0160   -2.8614   21.4421 C   0  0  0  0  0  0  0  0  0  0  0  0
   11.9780    0.4600   23.9150 C   0  0  0  0  0  0  0  0  0  0  0  0
   10.6560    0.0720   23.7350 C   0  0  0  0  0  0  0  0  0  0  0  0
   12.9840   -0.1200   23.1530 C   0  0  0  0  0  0  0  0  0  0  0  0
    5.1831    1.7063   18.8473 C   0  0  0  0  0  0  0  0  0  0  0  0
   11.3360   -1.5050   22.0650 C   0  0  0  0  0  0  0  0  0  0  0  0
    5.6660    1.4646   17.5713 C   0  0  0  0  0  0  0  0  0  0  0  0
    7.1124   -0.1520   18.3281 C   0  0  0  0  0  0  0  0  0  0  0  0
   10.3220   -0.8940   22.7910 C   0  0  0  0  0  0  0  0  0  0  0  0
    5.7139    0.9631   19.8956 C   0  0  0  0  0  0  0  0  0  0  0  0
    6.6974    0.0142   19.6396 C   0  0  0  0  0  0  0  0  0  0  0  0
   12.6400   -1.1000   22.2390 C   0  0  0  0  0  0  0  0  0  0  0  0
    4.4272   -2.8210   21.6052 C   0  0  0  0  0  0  0  0  0  0  0  0
    5.1913   -2.0357   20.8359 C   0  0  0  0  0  0  0  0  0  0  0  0
    6.6750   -2.0203   21.0184 C   0  0  0  0  0  0  0  0  0  0  0  0
    8.3880   -0.3240   21.3070 C   0  0  0  0  0  0  0  0  0  0  0  0
    5.2120    1.2035   21.2817 C   0  0  0  0  0  0  0  0  0  0  0  0
    8.8810   -1.1900   22.4510 C   0  0  0  0  0  0  0  0  0  0  0  0
    1.8633   -2.8957   21.3135 N   0  0  0  0  0  0  0  0  0  0  0  0
    6.6204    0.5513   17.2837 N   0  0  0  0  0  0  0  0  0  0  0  0
    7.2820   -0.7860   20.6970 N   0  0  0  0  0  0  0  0  0  0  0  0
    7.2744   -3.0088   21.4392 O   0  0  0  0  0  0  0  0  0  0  0  0
    8.9170    0.7530   21.0260 O   0  0  0  0  0  0  0  0  0  0  0  0
   13.8840   -1.8490   21.2740 Cl  0  0  0  0  0  0  0  0  0  0  0  0
   12.2249    1.2198   24.6546 H   0  0  0  0  0  0  0  0  0  0  0  0
    9.8763    0.5350   24.3454 H   0  0  0  0  0  0  0  0  0  0  0  0
   14.0077    0.1988   23.2842 H   0  0  0  0  0  0  0  0  0  0  0  0
    4.4152    2.4542   19.0133 H   0  0  0  0  0  0  0  0  0  0  0  0
   11.0892   -2.3009   21.3624 H   0  0  0  0  0  0  0  0  0  0  0  0
    5.2849    2.0178   16.7192 H   0  0  0  0  0  0  0  0  0  0  0  0
    7.8766   -0.8773   18.0648 H   0  0  0  0  0  0  0  0  0  0  0  0
    4.8562   -3.4472   22.3803 H   0  0  0  0  0  0  0  0  0  0  0  0
    4.7589   -1.4170   20.0558 H   0  0  0  0  0  0  0  0  0  0  0  0
    4.3582    0.5500   21.4951 H   0  0  0  0  0  0  0  0  0  0  0  0
    5.9947    1.0105   22.0256 H   0  0  0  0  0  0  0  0  0  0  0  0
    4.8962    2.2459   21.4135 H   0  0  0  0  0  0  0  0  0  0  0  0
    8.8016   -2.2575   22.2127 H   0  0  0  0  0  0  0  0  0  0  0  0
    8.2416   -1.0087   23.3236 H   0  0  0  0  0  0  0  0  0  0  0  0
  1 13  1  0  0  0  0
  1 19  3  0  0  0  0
  2  3  2  0  0  0  0
  2  4  1  0  0  0  0
  3  9  1  0  0  0  0
  4 12  2  0  0  0  0
  5  7  2  0  0  0  0
  5 10  1  0  0  0  0
  6  9  2  0  0  0  0
  6 12  1  0  0  0  0
  7 20  1  0  0  0  0
  8 11  1  0  0  0  0
  8 20  2  0  0  0  0
  9 18  1  0  0  0  0
 10 11  2  0  0  0  0
 10 17  1  0  0  0  0
 11 21  1  0  0  0  0
 12 24  1  0  0  0  0
 13 14  2  0  0  0  0
 14 15  1  0  0  0  0
 15 21  1  0  0  0  0
 15 22  2  0  0  0  0
 16 18  1  0  0  0  0
 16 21  1  0  0  0  0
 16 23  2  0  0  0  0
  2 25  1  0  0  0  0
  3 26  1  0  0  0  0
  4 27  1  0  0  0  0
  5 28  1  0  0  0  0
  6 29  1  0  0  0  0
  7 30  1  0  0  0  0
  8 31  1  0  0  0  0
 13 32  1  0  0  0  0
 14 33  1  0  0  0  0
 17 34  1  0  0  0  0
 17 35  1  0  0  0  0
 17 36  1  0  0  0  0
 18 37  1  0  0  0  0
 18 38  1  0  0  0  0
M  END
> <compound>
DAR-DIA-56cf811e-4

> <compound_smiles>
Cc1ccncc1N(C(=O)Cc2cccc(c2)Cl)C(=O)/C=C/C#N

> <enantiomer_smiles>
Cc1ccncc1N(C(=O)Cc2cccc(c2)Cl)C(=O)/C=C/C#N

> <scaffold>
chlorobenzene-linker

> <clash_score>
7.241587015558422

> <docking_score>
-6.664497375488281

> <overlap_score>
0.8637595176696777

> <MMFF_internal_energy>
79.14200383538594

> <docked_smiles>
Cc1ccncc1N(C(=O)Cc2cccc(c2)Cl)C(=O)/C=C/C#N

$$$$
JOH-UNI-ee5ed7c8-10_1
  -OEChem-07262101023D

 43 45  0     0  0  0  0  0  0999 V2000
    3.4157    2.5414   20.8049 C   0  0  0  0  0  0  0  0  0  0  0  0
    4.0823    1.8274   21.7980 C   0  0  0  0  0  0  0  0  0  0  0  0
   11.9780    0.4600   23.9150 C   0  0  0  0  0  0  0  0  0  0  0  0
    3.7937    2.3998   19.4699 C   0  0  0  0  0  0  0  0  0  0  0  0
    5.1298    0.9686   21.4606 C   0  0  0  0  0  0  0  0  0  0  0  0
   10.6560    0.0720   23.7350 C   0  0  0  0  0  0  0  0  0  0  0  0
   12.9840   -0.1200   23.1530 C   0  0  0  0  0  0  0  0  0  0  0  0
   11.3360   -1.5050   22.0650 C   0  0  0  0  0  0  0  0  0  0  0  0
    5.2658    1.3588   17.7993 C   0  0  0  0  0  0  0  0  0  0  0  0
    4.8463    1.5384   19.1189 C   0  0  0  0  0  0  0  0  0  0  0  0
    5.5236    0.8138   20.1214 C   0  0  0  0  0  0  0  0  0  0  0  0
   10.3220   -0.8940   22.7910 C   0  0  0  0  0  0  0  0  0  0  0  0
    6.5697   -0.0392   19.7510 C   0  0  0  0  0  0  0  0  0  0  0  0
   12.6400   -1.1000   22.2390 C   0  0  0  0  0  0  0  0  0  0  0  0
    6.8987   -0.1373   18.4076 C   0  0  0  0  0  0  0  0  0  0  0  0
    8.3880   -0.3240   21.3070 C   0  0  0  0  0  0  0  0  0  0  0  0
    6.7248   -2.1068   21.1177 C   0  0  0  0  0  0  0  0  0  0  0  0
    8.8810   -1.1900   22.4510 C   0  0  0  0  0  0  0  0  0  0  0  0
    8.0080   -1.0345   17.9607 C   0  0  0  0  0  0  0  0  0  0  0  0
    8.0201   -1.2503   16.4571 C   0  0  0  0  0  0  0  0  0  0  0  0
    6.2734    0.5402   17.4214 N   0  0  0  0  0  0  0  0  0  0  0  0
    7.2820   -0.7860   20.6970 N   0  0  0  0  0  0  0  0  0  0  0  0
    8.9170    0.7530   21.0260 O   0  0  0  0  0  0  0  0  0  0  0  0
    6.8856   -1.8675   16.0554 F   0  0  0  0  0  0  0  0  0  0  0  0
    9.0586   -2.0243   16.0768 F   0  0  0  0  0  0  0  0  0  0  0  0
    8.1026   -0.0797   15.7897 F   0  0  0  0  0  0  0  0  0  0  0  0
   13.8840   -1.8490   21.2740 Cl  0  0  0  0  0  0  0  0  0  0  0  0
    2.6011    3.2090   21.0702 H   0  0  0  0  0  0  0  0  0  0  0  0
    3.7865    1.9390   22.8372 H   0  0  0  0  0  0  0  0  0  0  0  0
   12.2249    1.2198   24.6546 H   0  0  0  0  0  0  0  0  0  0  0  0
    3.2627    2.9647   18.7072 H   0  0  0  0  0  0  0  0  0  0  0  0
    5.6248    0.4292   22.2648 H   0  0  0  0  0  0  0  0  0  0  0  0
    9.8763    0.5350   24.3454 H   0  0  0  0  0  0  0  0  0  0  0  0
   14.0077    0.1988   23.2842 H   0  0  0  0  0  0  0  0  0  0  0  0
   11.0892   -2.3009   21.3624 H   0  0  0  0  0  0  0  0  0  0  0  0
    4.7869    1.8867   16.9791 H   0  0  0  0  0  0  0  0  0  0  0  0
    7.1139   -2.8964   20.4580 H   0  0  0  0  0  0  0  0  0  0  0  0
    7.0228   -2.3165   22.1556 H   0  0  0  0  0  0  0  0  0  0  0  0
    5.6272   -2.0800   21.0496 H   0  0  0  0  0  0  0  0  0  0  0  0
    8.8006   -2.2403   22.1717 H   0  0  0  0  0  0  0  0  0  0  0  0
    8.2668   -1.0117   23.3332 H   0  0  0  0  0  0  0  0  0  0  0  0
    7.9317   -2.0099   18.4648 H   0  0  0  0  0  0  0  0  0  0  0  0
    8.9784   -0.6199   18.2733 H   0  0  0  0  0  0  0  0  0  0  0  0
  1  2  1  0  0  0  0
  1  4  2  0  0  0  0
  2  5  2  0  0  0  0
  3  6  2  0  0  0  0
  3  7  1  0  0  0  0
  4 10  1  0  0  0  0
  5 11  1  0  0  0  0
  6 12  1  0  0  0  0
  7 14  2  0  0  0  0
  8 12  2  0  0  0  0
  8 14  1  0  0  0  0
  9 10  1  0  0  0  0
  9 21  2  0  0  0  0
 10 11  2  0  0  0  0
 11 13  1  0  0  0  0
 12 18  1  0  0  0  0
 13 15  2  0  0  0  0
 13 22  1  0  0  0  0
 14 27  1  0  0  0  0
 15 19  1  0  0  0  0
 15 21  1  0  0  0  0
 16 18  1  0  0  0  0
 16 22  1  0  0  0  0
 16 23  2  0  0  0  0
 17 22  1  0  0  0  0
 19 20  1  0  0  0  0
 20 24  1  0  0  0  0
 20 25  1  0  0  0  0
 20 26  1  0  0  0  0
  1 28  1  0  0  0  0
  2 29  1  0  0  0  0
  3 30  1  0  0  0  0
  4 31  1  0  0  0  0
  5 32  1  0  0  0  0
  6 33  1  0  0  0  0
  7 34  1  0  0  0  0
  8 35  1  0  0  0  0
  9 36  1  0  0  0  0
 17 37  1  0  0  0  0
 17 38  1  0  0  0  0
 17 39  1  0  0  0  0
 18 40  1  0  0  0  0
 18 41  1  0  0  0  0
 19 42  1  0  0  0  0
 19 43  1  0  0  0  0
M  END
> <compound>
JOH-UNI-ee5ed7c8-10

> <compound_smiles>
CN(c1c2ccccc2cnc1CC(F)(F)F)C(=O)Cc3cccc(c3)Cl

> <enantiomer_smiles>
CN(c1c2ccccc2cnc1CC(F)(F)F)C(=O)Cc3cccc(c3)Cl

> <scaffold>
chlorobenzene-linker

> <clash_score>
5.223179631007765

> <docking_score>
-7.842466354370117

> <overlap_score>
1.0132611989974976

> <MMFF_internal_energy>
123.31564986660594

> <docked_smiles>
CN(c1c2ccccc2cnc1CC(F)(F)F)C(=O)Cc3cccc(c3)Cl

$$$$
JOH-UNI-ee5ed7c8-11_1
  -OEChem-07262101023D

 40 42  0     0  0  0  0  0  0999 V2000
    3.4528    2.5386   20.1354 C   0  0  0  0  0  0  0  0  0  0  0  0
    4.0985    2.0135   21.2523 C   0  0  0  0  0  0  0  0  0  0  0  0
   11.9780    0.4600   23.9150 C   0  0  0  0  0  0  0  0  0  0  0  0
    3.8461    2.1507   18.8548 C   0  0  0  0  0  0  0  0  0  0  0  0
    5.1404    1.0981   21.0938 C   0  0  0  0  0  0  0  0  0  0  0  0
   10.6560    0.0720   23.7350 C   0  0  0  0  0  0  0  0  0  0  0  0
   12.9840   -0.1200   23.1530 C   0  0  0  0  0  0  0  0  0  0  0  0
   11.3360   -1.5050   22.0650 C   0  0  0  0  0  0  0  0  0  0  0  0
    5.3273    0.8073   17.4254 C   0  0  0  0  0  0  0  0  0  0  0  0
    4.8932    1.2301   18.6834 C   0  0  0  0  0  0  0  0  0  0  0  0
    5.5494    0.6962   19.8117 C   0  0  0  0  0  0  0  0  0  0  0  0
   10.3220   -0.8940   22.7910 C   0  0  0  0  0  0  0  0  0  0  0  0
    6.5903   -0.2196   19.6196 C   0  0  0  0  0  0  0  0  0  0  0  0
   12.6400   -1.1000   22.2390 C   0  0  0  0  0  0  0  0  0  0  0  0
    6.9352   -0.5659   18.3221 C   0  0  0  0  0  0  0  0  0  0  0  0
    8.3880   -0.3240   21.3070 C   0  0  0  0  0  0  0  0  0  0  0  0
    8.8810   -1.1900   22.4510 C   0  0  0  0  0  0  0  0  0  0  0  0
    8.0399   -1.5398   18.0638 C   0  0  0  0  0  0  0  0  0  0  0  0
    8.0685   -2.0285   16.6258 C   0  0  0  0  0  0  0  0  0  0  0  0
    6.3303   -0.0758   17.2191 N   0  0  0  0  0  0  0  0  0  0  0  0
    7.2820   -0.7860   20.6970 N   0  0  0  0  0  0  0  0  0  0  0  0
    8.9170    0.7530   21.0260 O   0  0  0  0  0  0  0  0  0  0  0  0
    6.9323   -2.6989   16.3278 F   0  0  0  0  0  0  0  0  0  0  0  0
    9.1029   -2.8684   16.4094 F   0  0  0  0  0  0  0  0  0  0  0  0
    8.1729   -1.0013   15.7559 F   0  0  0  0  0  0  0  0  0  0  0  0
   13.8840   -1.8490   21.2740 Cl  0  0  0  0  0  0  0  0  0  0  0  0
    2.6426    3.2508   20.2616 H   0  0  0  0  0  0  0  0  0  0  0  0
    3.7909    2.3170   22.2489 H   0  0  0  0  0  0  0  0  0  0  0  0
   12.2249    1.2198   24.6546 H   0  0  0  0  0  0  0  0  0  0  0  0
    3.3313    2.5704   17.9936 H   0  0  0  0  0  0  0  0  0  0  0  0
    5.6190    0.7114   21.9905 H   0  0  0  0  0  0  0  0  0  0  0  0
    9.8763    0.5350   24.3454 H   0  0  0  0  0  0  0  0  0  0  0  0
   14.0077    0.1988   23.2842 H   0  0  0  0  0  0  0  0  0  0  0  0
   11.0892   -2.3008   21.3624 H   0  0  0  0  0  0  0  0  0  0  0  0
    4.8649    1.1795   16.5153 H   0  0  0  0  0  0  0  0  0  0  0  0
    8.7774   -2.2383   22.1732 H   0  0  0  0  0  0  0  0  0  0  0  0
    8.2557   -1.0153   23.3257 H   0  0  0  0  0  0  0  0  0  0  0  0
    7.9460   -2.4052   18.7373 H   0  0  0  0  0  0  0  0  0  0  0  0
    9.0108   -1.0834   18.3091 H   0  0  0  0  0  0  0  0  0  0  0  0
    6.8980   -1.6610   21.0666 H   0  0  0  0  0  0  0  0  0  0  0  0
  1  2  1  0  0  0  0
  1  4  2  0  0  0  0
  2  5  2  0  0  0  0
  3  6  2  0  0  0  0
  3  7  1  0  0  0  0
  4 10  1  0  0  0  0
  5 11  1  0  0  0  0
  6 12  1  0  0  0  0
  7 14  2  0  0  0  0
  8 12  2  0  0  0  0
  8 14  1  0  0  0  0
  9 10  2  0  0  0  0
  9 20  1  0  0  0  0
 10 11  1  0  0  0  0
 11 13  2  0  0  0  0
 12 17  1  0  0  0  0
 13 15  1  0  0  0  0
 13 21  1  0  0  0  0
 14 26  1  0  0  0  0
 15 18  1  0  0  0  0
 15 20  2  0  0  0  0
 16 17  1  0  0  0  0
 16 21  1  0  0  0  0
 16 22  2  0  0  0  0
 18 19  1  0  0  0  0
 19 23  1  0  0  0  0
 19 24  1  0  0  0  0
 19 25  1  0  0  0  0
  1 27  1  0  0  0  0
  2 28  1  0  0  0  0
  3 29  1  0  0  0  0
  4 30  1  0  0  0  0
  5 31  1  0  0  0  0
  6 32  1  0  0  0  0
  7 33  1  0  0  0  0
  8 34  1  0  0  0  0
  9 35  1  0  0  0  0
 17 36  1  0  0  0  0
 17 37  1  0  0  0  0
 18 38  1  0  0  0  0
 18 39  1  0  0  0  0
 21 40  1  0  0  0  0
M  END
> <compound>
JOH-UNI-ee5ed7c8-11

> <compound_smiles>
c1ccc2c(c1)cnc(c2NC(=O)Cc3cccc(c3)Cl)CC(F)(F)F

> <enantiomer_smiles>
c1ccc2c(c1)cnc(c2NC(=O)Cc3cccc(c3)Cl)CC(F)(F)F

> <scaffold>
chlorobenzene-linker

> <clash_score>
3.070890762057512

> <docking_score>
-7.650376319885254

> <overlap_score>
0.9834569692611694

> <MMFF_internal_energy>
105.82656988571013

> <docked_smiles>
c1ccc2c(c1)cnc(c2NC(=O)Cc3cccc(c3)Cl)CC(F)(F)F

$$$$
DAR-DIA-076fb6ea-12_1
  -OEChem-07262101023D

 59 62  0     0  0  0  0  0  0999 V2000
    4.3232    3.0050   22.5500 C   0  0  0  0  0  0  0  0  0  0  0  0
    5.2163    2.1161   23.1438 C   0  0  0  0  0  0  0  0  0  0  0  0
   11.9780    0.4600   23.9150 C   0  0  0  0  0  0  0  0  0  0  0  0
    4.0997    2.9558   21.1742 C   0  0  0  0  0  0  0  0  0  0  0  0
    5.8900    1.1740   22.3644 C   0  0  0  0  0  0  0  0  0  0  0  0
   10.6560    0.0720   23.7350 C   0  0  0  0  0  0  0  0  0  0  0  0
   12.9840   -0.1200   23.1530 C   0  0  0  0  0  0  0  0  0  0  0  0
   11.3360   -1.5050   22.0650 C   0  0  0  0  0  0  0  0  0  0  0  0
    4.5863    1.9186   18.9996 C   0  0  0  0  0  0  0  0  0  0  0  0
    6.0726    0.1781   18.8082 C   0  0  0  0  0  0  0  0  0  0  0  0
    4.7720    2.0119   20.3803 C   0  0  0  0  0  0  0  0  0  0  0  0
    5.6770    1.1103   20.9777 C   0  0  0  0  0  0  0  0  0  0  0  0
   10.3220   -0.8940   22.7910 C   0  0  0  0  0  0  0  0  0  0  0  0
    6.3369    0.1775   20.1693 C   0  0  0  0  0  0  0  0  0  0  0  0
   12.6400   -1.1000   22.2390 C   0  0  0  0  0  0  0  0  0  0  0  0
    5.5498   -2.4950   20.5363 C   0  0  0  0  0  0  0  0  0  0  0  0
    5.0869   -3.5369   19.8326 C   0  0  0  0  0  0  0  0  0  0  0  0
    7.0060   -2.1606   20.5250 C   0  0  0  0  0  0  0  0  0  0  0  0
    8.3880   -0.3240   21.3070 C   0  0  0  0  0  0  0  0  0  0  0  0
    2.2216   -7.9704   20.4407 C   0  0  0  0  0  0  0  0  0  0  0  0
    1.8146   -6.8659   21.4102 C   0  0  0  0  0  0  0  0  0  0  0  0
    3.6311   -7.7433   19.9050 C   0  0  0  0  0  0  0  0  0  0  0  0
    1.9745   -5.4850   20.7906 C   0  0  0  0  0  0  0  0  0  0  0  0
    3.7848   -6.3592   19.2911 C   0  0  0  0  0  0  0  0  0  0  0  0
    8.8810   -1.1900   22.4510 C   0  0  0  0  0  0  0  0  0  0  0  0
    3.6426   -3.9211   19.7948 C   0  0  0  0  0  0  0  0  0  0  0  0
    5.2138    1.0252   18.2019 N   0  0  0  0  0  0  0  0  0  0  0  0
    7.2820   -0.7860   20.6970 N   0  0  0  0  0  0  0  0  0  0  0  0
    3.3955   -5.3128   20.3084 N   0  3  0  0  0  0  0  0  0  0  0  0
    7.8592   -3.0381   20.4010 O   0  0  0  0  0  0  0  0  0  0  0  0
    8.9170    0.7530   21.0260 O   0  0  0  0  0  0  0  0  0  0  0  0
   13.8840   -1.8490   21.2740 Cl  0  0  0  0  0  0  0  0  0  0  0  0
    3.8003    3.7367   23.1588 H   0  0  0  0  0  0  0  0  0  0  0  0
    5.3887    2.1559   24.2155 H   0  0  0  0  0  0  0  0  0  0  0  0
   12.2249    1.2198   24.6546 H   0  0  0  0  0  0  0  0  0  0  0  0
    3.3990    3.6571   20.7269 H   0  0  0  0  0  0  0  0  0  0  0  0
    6.5797    0.4978   22.8644 H   0  0  0  0  0  0  0  0  0  0  0  0
    9.8763    0.5350   24.3454 H   0  0  0  0  0  0  0  0  0  0  0  0
   14.0077    0.1988   23.2842 H   0  0  0  0  0  0  0  0  0  0  0  0
   11.0892   -2.3009   21.3624 H   0  0  0  0  0  0  0  0  0  0  0  0
    3.9035    2.5824   18.4764 H   0  0  0  0  0  0  0  0  0  0  0  0
    6.5583   -0.5261   18.1386 H   0  0  0  0  0  0  0  0  0  0  0  0
    4.8756   -1.8642   21.1056 H   0  0  0  0  0  0  0  0  0  0  0  0
    5.7671   -4.1629   19.2607 H   0  0  0  0  0  0  0  0  0  0  0  0
    2.1672   -8.9432   20.9419 H   0  0  0  0  0  0  0  0  0  0  0  0
    1.5133   -8.0006   19.6035 H   0  0  0  0  0  0  0  0  0  0  0  0
    0.7720   -7.0119   21.7143 H   0  0  0  0  0  0  0  0  0  0  0  0
    2.4224   -6.9333   22.3212 H   0  0  0  0  0  0  0  0  0  0  0  0
    4.3581   -7.8685   20.7172 H   0  0  0  0  0  0  0  0  0  0  0  0
    3.8637   -8.5051   19.1524 H   0  0  0  0  0  0  0  0  0  0  0  0
    1.3133   -5.3461   19.9306 H   0  0  0  0  0  0  0  0  0  0  0  0
    1.7855   -4.7062   21.5338 H   0  0  0  0  0  0  0  0  0  0  0  0
    4.8262   -6.1745   19.0152 H   0  0  0  0  0  0  0  0  0  0  0  0
    3.1400   -6.2282   18.4174 H   0  0  0  0  0  0  0  0  0  0  0  0
    8.2424   -1.0087   23.3237 H   0  0  0  0  0  0  0  0  0  0  0  0
    8.8015   -2.2572   22.2121 H   0  0  0  0  0  0  0  0  0  0  0  0
    3.2287   -3.8916   18.7819 H   0  0  0  0  0  0  0  0  0  0  0  0
    3.0571   -3.2492   20.4298 H   0  0  0  0  0  0  0  0  0  0  0  0
    4.0104   -5.4416   21.1256 H   0  0  0  0  0  0  0  0  0  0  0  0
  1  2  1  0  0  0  0
  1  4  2  0  0  0  0
  2  5  2  0  0  0  0
  3  6  2  0  0  0  0
  3  7  1  0  0  0  0
  4 11  1  0  0  0  0
  5 12  1  0  0  0  0
  6 13  1  0  0  0  0
  7 15  2  0  0  0  0
  8 13  2  0  0  0  0
  8 15  1  0  0  0  0
  9 11  2  0  0  0  0
  9 27  1  0  0  0  0
 10 14  1  0  0  0  0
 10 27  2  0  0  0  0
 11 12  1  0  0  0  0
 12 14  2  0  0  0  0
 13 25  1  0  0  0  0
 14 28  1  0  0  0  0
 15 32  1  0  0  0  0
 16 17  2  0  0  0  0
 16 18  1  0  0  0  0
 17 26  1  0  0  0  0
 18 28  1  0  0  0  0
 18 30  2  0  0  0  0
 19 25  1  0  0  0  0
 19 28  1  0  0  0  0
 19 31  2  0  0  0  0
 20 21  1  0  0  0  0
 20 22  1  0  0  0  0
 21 23  1  0  0  0  0
 22 24  1  0  0  0  0
 23 29  1  0  0  0  0
 24 29  1  0  0  0  0
 26 29  1  0  0  0  0
  1 33  1  0  0  0  0
  2 34  1  0  0  0  0
  3 35  1  0  0  0  0
  4 36  1  0  0  0  0
  5 37  1  0  0  0  0
  6 38  1  0  0  0  0
  7 39  1  0  0  0  0
  8 40  1  0  0  0  0
  9 41  1  0  0  0  0
 10 42  1  0  0  0  0
 16 43  1  0  0  0  0
 17 44  1  0  0  0  0
 20 45  1  0  0  0  0
 20 46  1  0  0  0  0
 21 47  1  0  0  0  0
 21 48  1  0  0  0  0
 22 49  1  0  0  0  0
 22 50  1  0  0  0  0
 23 51  1  0  0  0  0
 23 52  1  0  0  0  0
 24 53  1  0  0  0  0
 24 54  1  0  0  0  0
 25 55  1  0  0  0  0
 25 56  1  0  0  0  0
 26 57  1  0  0  0  0
 26 58  1  0  0  0  0
 29 59  1  0  0  0  0
M  CHG  1  29   1
M  END
> <compound>
DAR-DIA-076fb6ea-12

> <compound_smiles>
c1ccc2c(c1)cncc2N(C(=O)Cc3cccc(c3)Cl)C(=O)/C=C/CN4CCCCC4

> <enantiomer_smiles>
c1ccc2c(c1)cncc2N(C(=O)Cc3cccc(c3)Cl)C(=O)/C=C/CN4CCCCC4

> <scaffold>
chlorobenzene-linker

> <clash_score>
8.446353885000036

> <docking_score>
2.0543770790100098

> <overlap_score>
0.8767158389091492

> <MMFF_internal_energy>
89.42320993253915

> <docked_smiles>
c1ccc2c(c1)cncc2N(C(=O)Cc3cccc(c3)Cl)C(=O)/C=C/C[NH+]4CCCCC4

$$$$
PET-UNK-6c2be958-1_1
  -OEChem-07262101023D

 39 41  0     0  0  0  0  0  0999 V2000
    3.6593    2.8146   20.4070 C   0  0  0  0  0  0  0  0  0  0  0  0
    4.2130    2.1135   21.4757 C   0  0  0  0  0  0  0  0  0  0  0  0
   11.9780    0.4600   23.9150 C   0  0  0  0  0  0  0  0  0  0  0  0
    4.1024    2.5708   19.1073 C   0  0  0  0  0  0  0  0  0  0  0  0
    5.2124    1.1655   21.2495 C   0  0  0  0  0  0  0  0  0  0  0  0
   10.6560    0.0720   23.7350 C   0  0  0  0  0  0  0  0  0  0  0  0
   12.9840   -0.1200   23.1530 C   0  0  0  0  0  0  0  0  0  0  0  0
   11.3360   -1.5050   22.0650 C   0  0  0  0  0  0  0  0  0  0  0  0
    5.5882    1.3354   17.5881 C   0  0  0  0  0  0  0  0  0  0  0  0
    7.0689   -0.2344   18.3745 C   0  0  0  0  0  0  0  0  0  0  0  0
    5.1074    1.6190   18.8680 C   0  0  0  0  0  0  0  0  0  0  0  0
    5.6706    0.9072   19.9473 C   0  0  0  0  0  0  0  0  0  0  0  0
   10.3220   -0.8940   22.7910 C   0  0  0  0  0  0  0  0  0  0  0  0
    6.6708   -0.0369   19.6879 C   0  0  0  0  0  0  0  0  0  0  0  0
   12.6400   -1.1000   22.2390 C   0  0  0  0  0  0  0  0  0  0  0  0
    8.3880   -0.3240   21.3070 C   0  0  0  0  0  0  0  0  0  0  0  0
    6.7325   -2.0545   21.0891 C   0  0  0  0  0  0  0  0  0  0  0  0
    8.8810   -1.1900   22.4510 C   0  0  0  0  0  0  0  0  0  0  0  0
    5.9885   -2.8202   20.0138 C   0  0  0  0  0  0  0  0  0  0  0  0
    6.5532    0.4278   17.3170 N   0  0  0  0  0  0  0  0  0  0  0  0
    7.2820   -0.7860   20.6970 N   0  0  0  0  0  0  0  0  0  0  0  0
    8.9170    0.7530   21.0260 O   0  0  0  0  0  0  0  0  0  0  0  0
    6.8359   -2.5035   22.2329 O   0  0  0  0  0  0  0  0  0  0  0  0
   13.8840   -1.8490   21.2740 Cl  0  0  0  0  0  0  0  0  0  0  0  0
    7.1558   -3.8279   19.1348 Cl  0  0  0  0  0  0  0  0  0  0  0  0
    2.8817    3.5514   20.5859 H   0  0  0  0  0  0  0  0  0  0  0  0
    3.8662    2.3047   22.4873 H   0  0  0  0  0  0  0  0  0  0  0  0
   12.2249    1.2198   24.6546 H   0  0  0  0  0  0  0  0  0  0  0  0
    3.6592    3.1269   18.2844 H   0  0  0  0  0  0  0  0  0  0  0  0
    5.6204    0.6393   22.1095 H   0  0  0  0  0  0  0  0  0  0  0  0
    9.8763    0.5350   24.3454 H   0  0  0  0  0  0  0  0  0  0  0  0
   14.0077    0.1988   23.2842 H   0  0  0  0  0  0  0  0  0  0  0  0
   11.0892   -2.3009   21.3624 H   0  0  0  0  0  0  0  0  0  0  0  0
    5.1977    1.8473   16.7129 H   0  0  0  0  0  0  0  0  0  0  0  0
    7.8406   -0.9559   18.1211 H   0  0  0  0  0  0  0  0  0  0  0  0
    8.8004   -2.2568   22.2122 H   0  0  0  0  0  0  0  0  0  0  0  0
    8.2415   -1.0076   23.3228 H   0  0  0  0  0  0  0  0  0  0  0  0
    5.5158   -2.1612   19.2828 H   0  0  0  0  0  0  0  0  0  0  0  0
    5.2402   -3.4707   20.4730 H   0  0  0  0  0  0  0  0  0  0  0  0
  1  2  1  0  0  0  0
  1  4  2  0  0  0  0
  2  5  2  0  0  0  0
  3  6  2  0  0  0  0
  3  7  1  0  0  0  0
  4 11  1  0  0  0  0
  5 12  1  0  0  0  0
  6 13  1  0  0  0  0
  7 15  2  0  0  0  0
  8 13  2  0  0  0  0
  8 15  1  0  0  0  0
  9 11  2  0  0  0  0
  9 20  1  0  0  0  0
 10 14  1  0  0  0  0
 10 20  2  0  0  0  0
 11 12  1  0  0  0  0
 12 14  2  0  0  0  0
 13 18  1  0  0  0  0
 14 21  1  0  0  0  0
 15 24  1  0  0  0  0
 16 18  1  0  0  0  0
 16 21  1  0  0  0  0
 16 22  2  0  0  0  0
 17 19  1  0  0  0  0
 17 21  1  0  0  0  0
 17 23  2  0  0  0  0
 19 25  1  0  0  0  0
  1 26  1  0  0  0  0
  2 27  1  0  0  0  0
  3 28  1  0  0  0  0
  4 29  1  0  0  0  0
  5 30  1  0  0  0  0
  6 31  1  0  0  0  0
  7 32  1  0  0  0  0
  8 33  1  0  0  0  0
  9 34  1  0  0  0  0
 10 35  1  0  0  0  0
 18 36  1  0  0  0  0
 18 37  1  0  0  0  0
 19 38  1  0  0  0  0
 19 39  1  0  0  0  0
M  END
> <compound>
PET-UNK-6c2be958-1

> <compound_smiles>
c1ccc2c(c1)cncc2N(C(=O)Cc3cccc(c3)Cl)C(=O)CCl

> <enantiomer_smiles>
c1ccc2c(c1)cncc2N(C(=O)Cc3cccc(c3)Cl)C(=O)CCl

> <scaffold>
chlorobenzene-linker

> <clash_score>
0.8761788775586729

> <docking_score>
-9.50965690612793

> <overlap_score>
0.985256552696228

> <MMFF_internal_energy>
119.32385945632365

> <docked_smiles>
c1ccc2c(c1)cncc2N(C(=O)Cc3cccc(c3)Cl)C(=O)CCl

$$$$
DAR-DIA-076fb6ea-14_1
  -OEChem-07262101023D

 56 58  0     0  0  0  0  0  0999 V2000
   11.9780    0.4600   23.9150 C   0  0  0  0  0  0  0  0  0  0  0  0
   10.6560    0.0720   23.7350 C   0  0  0  0  0  0  0  0  0  0  0  0
   12.9840   -0.1200   23.1530 C   0  0  0  0  0  0  0  0  0  0  0  0
    5.7606    0.5836   17.5588 C   0  0  0  0  0  0  0  0  0  0  0  0
   11.3360   -1.5050   22.0650 C   0  0  0  0  0  0  0  0  0  0  0  0
    6.7532    0.1982   16.6722 C   0  0  0  0  0  0  0  0  0  0  0  0
    7.9971   -0.7670   18.3453 C   0  0  0  0  0  0  0  0  0  0  0  0
   10.3220   -0.8940   22.7910 C   0  0  0  0  0  0  0  0  0  0  0  0
    5.9260    0.2614   18.9012 C   0  0  0  0  0  0  0  0  0  0  0  0
    7.0630   -0.4266   19.3103 C   0  0  0  0  0  0  0  0  0  0  0  0
   12.6400   -1.1000   22.2390 C   0  0  0  0  0  0  0  0  0  0  0  0
    5.6071   -2.5333   20.3993 C   0  0  0  0  0  0  0  0  0  0  0  0
    4.3531   -2.9200   20.6696 C   0  0  0  0  0  0  0  0  0  0  0  0
    6.3357   -1.6209   21.3316 C   0  0  0  0  0  0  0  0  0  0  0  0
    8.3880   -0.3240   21.3070 C   0  0  0  0  0  0  0  0  0  0  0  0
    1.4243   -7.3181   21.2328 C   0  0  0  0  0  0  0  0  0  0  0  0
    1.6729   -6.1423   22.1715 C   0  0  0  0  0  0  0  0  0  0  0  0
    2.5813   -7.4991   20.2561 C   0  0  0  0  0  0  0  0  0  0  0  0
    1.9782   -4.8636   21.4045 C   0  0  0  0  0  0  0  0  0  0  0  0
    2.8837   -6.2157   19.4962 C   0  0  0  0  0  0  0  0  0  0  0  0
    4.8717    0.6653   19.8790 C   0  0  0  0  0  0  0  0  0  0  0  0
    8.8810   -1.1900   22.4510 C   0  0  0  0  0  0  0  0  0  0  0  0
    3.5711   -3.8360   19.7838 C   0  0  0  0  0  0  0  0  0  0  0  0
    7.8712   -0.4712   17.0322 N   0  0  0  0  0  0  0  0  0  0  0  0
    7.2820   -0.7860   20.6970 N   0  0  0  0  0  0  0  0  0  0  0  0
    3.1488   -5.1005   20.4798 N   0  3  0  0  0  0  0  0  0  0  0  0
    6.0850   -1.6096   22.5359 O   0  0  0  0  0  0  0  0  0  0  0  0
    8.9170    0.7530   21.0260 O   0  0  0  0  0  0  0  0  0  0  0  0
   13.8840   -1.8490   21.2740 Cl  0  0  0  0  0  0  0  0  0  0  0  0
   12.2249    1.2198   24.6546 H   0  0  0  0  0  0  0  0  0  0  0  0
    9.8763    0.5350   24.3454 H   0  0  0  0  0  0  0  0  0  0  0  0
   14.0077    0.1988   23.2842 H   0  0  0  0  0  0  0  0  0  0  0  0
    4.8856    1.1198   17.2074 H   0  0  0  0  0  0  0  0  0  0  0  0
   11.0892   -2.3009   21.3624 H   0  0  0  0  0  0  0  0  0  0  0  0
    6.6718    0.4257   15.6144 H   0  0  0  0  0  0  0  0  0  0  0  0
    8.9049   -1.3048   18.6024 H   0  0  0  0  0  0  0  0  0  0  0  0
    6.1220   -2.8925   19.5148 H   0  0  0  0  0  0  0  0  0  0  0  0
    3.8439   -2.5597   21.5597 H   0  0  0  0  0  0  0  0  0  0  0  0
    1.2835   -8.2352   21.8156 H   0  0  0  0  0  0  0  0  0  0  0  0
    0.4967   -7.1481   20.6724 H   0  0  0  0  0  0  0  0  0  0  0  0
    0.7922   -5.9874   22.8050 H   0  0  0  0  0  0  0  0  0  0  0  0
    2.5083   -6.3773   22.8427 H   0  0  0  0  0  0  0  0  0  0  0  0
    3.4762   -7.8234   20.8017 H   0  0  0  0  0  0  0  0  0  0  0  0
    2.3384   -8.2967   19.5449 H   0  0  0  0  0  0  0  0  0  0  0  0
    1.1304   -4.5448   20.7915 H   0  0  0  0  0  0  0  0  0  0  0  0
    2.2619   -4.0620   22.0912 H   0  0  0  0  0  0  0  0  0  0  0  0
    3.7829   -6.3331   18.8859 H   0  0  0  0  0  0  0  0  0  0  0  0
    2.0442   -5.9091   18.8657 H   0  0  0  0  0  0  0  0  0  0  0  0
    4.1182   -0.1252   19.9731 H   0  0  0  0  0  0  0  0  0  0  0  0
    5.3024    0.8575   20.8694 H   0  0  0  0  0  0  0  0  0  0  0  0
    4.3717    1.5894   19.5634 H   0  0  0  0  0  0  0  0  0  0  0  0
    8.2424   -1.0087   23.3237 H   0  0  0  0  0  0  0  0  0  0  0  0
    8.8015   -2.2572   22.2121 H   0  0  0  0  0  0  0  0  0  0  0  0
    4.1379   -4.1481   18.9010 H   0  0  0  0  0  0  0  0  0  0  0  0
    2.6516   -3.3447   19.4513 H   0  0  0  0  0  0  0  0  0  0  0  0
    3.9430   -5.3965   21.0662 H   0  0  0  0  0  0  0  0  0  0  0  0
  1  2  2  0  0  0  0
  1  3  1  0  0  0  0
  2  8  1  0  0  0  0
  3 11  2  0  0  0  0
  4  6  2  0  0  0  0
  4  9  1  0  0  0  0
  5  8  2  0  0  0  0
  5 11  1  0  0  0  0
  6 24  1  0  0  0  0
  7 10  1  0  0  0  0
  7 24  2  0  0  0  0
  8 22  1  0  0  0  0
  9 10  2  0  0  0  0
  9 21  1  0  0  0  0
 10 25  1  0  0  0  0
 11 29  1  0  0  0  0
 12 13  2  0  0  0  0
 12 14  1  0  0  0  0
 13 23  1  0  0  0  0
 14 25  1  0  0  0  0
 14 27  2  0  0  0  0
 15 22  1  0  0  0  0
 15 25  1  0  0  0  0
 15 28  2  0  0  0  0
 16 17  1  0  0  0  0
 16 18  1  0  0  0  0
 17 19  1  0  0  0  0
 18 20  1  0  0  0  0
 19 26  1  0  0  0  0
 20 26  1  0  0  0  0
 23 26  1  0  0  0  0
  1 30  1  0  0  0  0
  2 31  1  0  0  0  0
  3 32  1  0  0  0  0
  4 33  1  0  0  0  0
  5 34  1  0  0  0  0
  6 35  1  0  0  0  0
  7 36  1  0  0  0  0
 12 37  1  0  0  0  0
 13 38  1  0  0  0  0
 16 39  1  0  0  0  0
 16 40  1  0  0  0  0
 17 41  1  0  0  0  0
 17 42  1  0  0  0  0
 18 43  1  0  0  0  0
 18 44  1  0  0  0  0
 19 45  1  0  0  0  0
 19 46  1  0  0  0  0
 20 47  1  0  0  0  0
 20 48  1  0  0  0  0
 21 49  1  0  0  0  0
 21 50  1  0  0  0  0
 21 51  1  0  0  0  0
 22 52  1  0  0  0  0
 22 53  1  0  0  0  0
 23 54  1  0  0  0  0
 23 55  1  0  0  0  0
 26 56  1  0  0  0  0
M  CHG  1  26   1
M  END
> <compound>
DAR-DIA-076fb6ea-14

> <compound_smiles>
Cc1ccncc1N(C(=O)Cc2cccc(c2)Cl)C(=O)/C=C/CN3CCCCC3

> <enantiomer_smiles>
Cc1ccncc1N(C(=O)Cc2cccc(c2)Cl)C(=O)/C=C/CN3CCCCC3

> <scaffold>
chlorobenzene-linker

> <clash_score>
7.105530265321501

> <docking_score>
1.5608782768249512

> <overlap_score>
0.7907187342643738

> <MMFF_internal_energy>
69.36265924050313

> <docked_smiles>
Cc1ccncc1N(C(=O)Cc2cccc(c2)Cl)C(=O)/C=C/C[NH+]3CCCCC3

$$$$
JOH-UNI-ee5ed7c8-4_1
  -OEChem-07262101023D

 39 41  0     0  0  0  0  0  0999 V2000
    4.8114    2.1399   24.3726 C   0  0  0  0  0  0  0  0  0  0  0  0
    4.9721    1.4256   23.4215 C   0  0  0  0  0  0  0  0  0  0  0  0
   11.9780    0.4600   23.9150 C   0  0  0  0  0  0  0  0  0  0  0  0
   10.6560    0.0720   23.7350 C   0  0  0  0  0  0  0  0  0  0  0  0
   12.9840   -0.1200   23.1530 C   0  0  0  0  0  0  0  0  0  0  0  0
   11.3360   -1.5050   22.0650 C   0  0  0  0  0  0  0  0  0  0  0  0
    7.0143   -0.6406   18.3639 C   0  0  0  0  0  0  0  0  0  0  0  0
    5.3099    0.4567   17.3174 C   0  0  0  0  0  0  0  0  0  0  0  0
   10.3220   -0.8940   22.7910 C   0  0  0  0  0  0  0  0  0  0  0  0
    5.4385    0.5587   19.7310 C   0  0  0  0  0  0  0  0  0  0  0  0
    6.5901   -0.2240   19.6230 C   0  0  0  0  0  0  0  0  0  0  0  0
    4.8240    0.9407   18.5263 C   0  0  0  0  0  0  0  0  0  0  0  0
   12.6400   -1.1000   22.2390 C   0  0  0  0  0  0  0  0  0  0  0  0
    5.1661    0.5660   22.2794 C   0  0  0  0  0  0  0  0  0  0  0  0
    8.3880   -0.3240   21.3070 C   0  0  0  0  0  0  0  0  0  0  0  0
    3.7323    1.9308   20.8565 C   0  0  0  0  0  0  0  0  0  0  0  0
    3.7312    2.6865   19.5468 C   0  0  0  0  0  0  0  0  0  0  0  0
    8.8810   -1.1900   22.4510 C   0  0  0  0  0  0  0  0  0  0  0  0
    6.3929   -0.3351   17.2079 N   0  0  0  0  0  0  0  0  0  0  0  0
    4.8635    1.0026   20.9733 N   0  0  0  0  0  0  0  0  0  0  0  0
    7.2820   -0.7860   20.6970 N   0  0  0  0  0  0  0  0  0  0  0  0
    5.6604   -0.5321   22.5304 O   0  0  0  0  0  0  0  0  0  0  0  0
    8.9170    0.7530   21.0260 O   0  0  0  0  0  0  0  0  0  0  0  0
    3.7406    1.7741   18.4538 O   0  0  0  0  0  0  0  0  0  0  0  0
   13.8840   -1.8490   21.2740 Cl  0  0  0  0  0  0  0  0  0  0  0  0
    4.6697    2.7731   25.2172 H   0  0  0  0  0  0  0  0  0  0  0  0
   12.2249    1.2198   24.6546 H   0  0  0  0  0  0  0  0  0  0  0  0
    9.8763    0.5350   24.3454 H   0  0  0  0  0  0  0  0  0  0  0  0
   14.0077    0.1988   23.2842 H   0  0  0  0  0  0  0  0  0  0  0  0
   11.0892   -2.3009   21.3624 H   0  0  0  0  0  0  0  0  0  0  0  0
    7.8826   -1.2841   18.2464 H   0  0  0  0  0  0  0  0  0  0  0  0
    4.8305    0.7086   16.3776 H   0  0  0  0  0  0  0  0  0  0  0  0
    3.7277    2.6598   21.6825 H   0  0  0  0  0  0  0  0  0  0  0  0
    2.8172    1.3206   20.9520 H   0  0  0  0  0  0  0  0  0  0  0  0
    2.8202    3.2845   19.4658 H   0  0  0  0  0  0  0  0  0  0  0  0
    4.5825    3.3704   19.4675 H   0  0  0  0  0  0  0  0  0  0  0  0
    8.7774   -2.2383   22.1732 H   0  0  0  0  0  0  0  0  0  0  0  0
    8.2557   -1.0153   23.3257 H   0  0  0  0  0  0  0  0  0  0  0  0
    6.8983   -1.6632   21.0686 H   0  0  0  0  0  0  0  0  0  0  0  0
  1  2  3  0  0  0  0
  2 14  1  0  0  0  0
  3  4  2  0  0  0  0
  3  5  1  0  0  0  0
  4  9  1  0  0  0  0
  5 13  2  0  0  0  0
  6  9  2  0  0  0  0
  6 13  1  0  0  0  0
  7 11  1  0  0  0  0
  7 19  2  0  0  0  0
  8 12  2  0  0  0  0
  8 19  1  0  0  0  0
  9 18  1  0  0  0  0
 10 11  2  0  0  0  0
 10 12  1  0  0  0  0
 10 20  1  0  0  0  0
 11 21  1  0  0  0  0
 12 24  1  0  0  0  0
 13 25  1  0  0  0  0
 14 20  1  0  0  0  0
 14 22  2  0  0  0  0
 15 18  1  0  0  0  0
 15 21  1  0  0  0  0
 15 23  2  0  0  0  0
 16 17  1  0  0  0  0
 16 20  1  0  0  0  0
 17 24  1  0  0  0  0
  1 26  1  0  0  0  0
  3 27  1  0  0  0  0
  4 28  1  0  0  0  0
  5 29  1  0  0  0  0
  6 30  1  0  0  0  0
  7 31  1  0  0  0  0
  8 32  1  0  0  0  0
 16 33  1  0  0  0  0
 16 34  1  0  0  0  0
 17 35  1  0  0  0  0
 17 36  1  0  0  0  0
 18 37  1  0  0  0  0
 18 38  1  0  0  0  0
 21 39  1  0  0  0  0
M  END
> <compound>
JOH-UNI-ee5ed7c8-4

> <compound_smiles>
C#CC(=O)N1CCOc2c1c(cnc2)NC(=O)Cc3cccc(c3)Cl

> <enantiomer_smiles>
C#CC(=O)N1CCOc2c1c(cnc2)NC(=O)Cc3cccc(c3)Cl

> <scaffold>
chlorobenzene-linker

> <clash_score>
0

> <docking_score>
-9.622583389282227

> <overlap_score>
1.0

> <MMFF_internal_energy>
114.81131542196549

> <docked_smiles>
C#CC(=O)N1CCOc2c1c(cnc2)NC(=O)Cc3cccc(c3)Cl

$$$$
JOH-UNI-ee5ed7c8-7_1
  -OEChem-07262101023D

 41 43  0     1  0  0  0  0  0999 V2000
    9.5956   -3.5258   23.0151 C   0  0  0  0  0  0  0  0  0  0  0  0
    3.5626    1.6204   18.1381 C   0  0  0  0  0  0  0  0  0  0  0  0
    3.7444    1.3243   19.4870 C   0  0  0  0  0  0  0  0  0  0  0  0
   11.9780    0.4600   23.9150 C   0  0  0  0  0  0  0  0  0  0  0  0
    4.5217    1.2327   17.2027 C   0  0  0  0  0  0  0  0  0  0  0  0
    4.8860    0.6392   19.9066 C   0  0  0  0  0  0  0  0  0  0  0  0
   10.6560    0.0720   23.7350 C   0  0  0  0  0  0  0  0  0  0  0  0
   12.9840   -0.1200   23.1530 C   0  0  0  0  0  0  0  0  0  0  0  0
   11.3360   -1.5050   22.0650 C   0  0  0  0  0  0  0  0  0  0  0  0
    6.6656    0.1314   16.7205 C   0  0  0  0  0  0  0  0  0  0  0  0
    7.9336   -0.8053   18.3907 C   0  0  0  0  0  0  0  0  0  0  0  0
    5.6742    0.5428   17.6136 C   0  0  0  0  0  0  0  0  0  0  0  0
    5.8619    0.2412   18.9783 C   0  0  0  0  0  0  0  0  0  0  0  0
   10.3220   -0.8940   22.7910 C   0  0  0  0  0  0  0  0  0  0  0  0
    7.0170   -0.4469   19.3674 C   0  0  0  0  0  0  0  0  0  0  0  0
   12.6400   -1.1000   22.2390 C   0  0  0  0  0  0  0  0  0  0  0  0
    8.3880   -0.3240   21.3070 C   0  0  0  0  0  0  0  0  0  0  0  0
    6.3399   -1.6639   21.4516 C   0  0  0  0  0  0  0  0  0  0  0  0
    8.7467   -2.7046   22.1359 C   0  0  0  0  0  0  0  0  0  0  0  0
    8.8810   -1.1900   22.4510 C   0  0  1  0  0  0  0  0  0  0  0  0
   10.2651   -4.1732   23.7071 N   0  0  0  0  0  0  0  0  0  0  0  0
    7.7877   -0.5338   17.0763 N   0  0  0  0  0  0  0  0  0  0  0  0
    7.2820   -0.7860   20.6970 N   0  0  0  0  0  0  0  0  0  0  0  0
    8.9170    0.7530   21.0260 O   0  0  0  0  0  0  0  0  0  0  0  0
   13.8840   -1.8490   21.2740 Cl  0  0  0  0  0  0  0  0  0  0  0  0
    2.6734    2.1533   17.8144 H   0  0  0  0  0  0  0  0  0  0  0  0
    2.9961    1.6269   20.2139 H   0  0  0  0  0  0  0  0  0  0  0  0
   12.2249    1.2198   24.6546 H   0  0  0  0  0  0  0  0  0  0  0  0
    4.3639    1.4718   16.1535 H   0  0  0  0  0  0  0  0  0  0  0  0
    4.9923    0.4271   20.9680 H   0  0  0  0  0  0  0  0  0  0  0  0
    9.8763    0.5350   24.3454 H   0  0  0  0  0  0  0  0  0  0  0  0
   14.0077    0.1988   23.2842 H   0  0  0  0  0  0  0  0  0  0  0  0
   11.0892   -2.3009   21.3624 H   0  0  0  0  0  0  0  0  0  0  0  0
    6.5834    0.3313   15.6557 H   0  0  0  0  0  0  0  0  0  0  0  0
    8.8449   -1.3408   18.6414 H   0  0  0  0  0  0  0  0  0  0  0  0
    6.6327   -2.7159   21.3195 H   0  0  0  0  0  0  0  0  0  0  0  0
    6.3743   -1.4053   22.5203 H   0  0  0  0  0  0  0  0  0  0  0  0
    5.3181   -1.5172   21.0716 H   0  0  0  0  0  0  0  0  0  0  0  0
    7.7036   -3.0169   22.2756 H   0  0  0  0  0  0  0  0  0  0  0  0
    8.9939   -2.9152   21.0880 H   0  0  0  0  0  0  0  0  0  0  0  0
    8.2452   -1.0065   23.3332 H   0  0  0  0  0  0  0  0  0  0  0  0
  1 19  1  0  0  0  0
  1 21  3  0  0  0  0
  2  3  1  0  0  0  0
  2  5  2  0  0  0  0
  3  6  2  0  0  0  0
  4  7  2  0  0  0  0
  4  8  1  0  0  0  0
  5 12  1  0  0  0  0
  6 13  1  0  0  0  0
  7 14  1  0  0  0  0
  8 16  2  0  0  0  0
  9 14  2  0  0  0  0
  9 16  1  0  0  0  0
 10 12  2  0  0  0  0
 10 22  1  0  0  0  0
 11 15  1  0  0  0  0
 11 22  2  0  0  0  0
 12 13  1  0  0  0  0
 13 15  2  0  0  0  0
 14 20  1  0  0  0  0
 15 23  1  0  0  0  0
 16 25  1  0  0  0  0
 17 20  1  1  0  0  0
 17 23  1  0  0  0  0
 17 24  2  0  0  0  0
 18 23  1  0  0  0  0
 19 20  1  0  0  0  0
  2 26  1  0  0  0  0
  3 27  1  0  0  0  0
  4 28  1  0  0  0  0
  5 29  1  0  0  0  0
  6 30  1  0  0  0  0
  7 31  1  0  0  0  0
  8 32  1  0  0  0  0
  9 33  1  0  0  0  0
 10 34  1  0  0  0  0
 11 35  1  0  0  0  0
 18 36  1  0  0  0  0
 18 37  1  0  0  0  0
 18 38  1  0  0  0  0
 19 39  1  0  0  0  0
 19 40  1  0  0  0  0
 20 41  1  0  0  0  0
M  END
> <compound>
JOH-UNI-ee5ed7c8-7

> <compound_smiles>
CN(c1cncc2c1cccc2)C(=O)C(CC#N)c3cccc(c3)Cl

> <enantiomer_smiles>
CN(c1cncc2c1cccc2)C(=O)[C@@H](CC#N)c3cccc(c3)Cl

> <scaffold>
chlorobenzene-linker

> <clash_score>
1.27837630914257

> <docking_score>
-1.3291598558425903

> <overlap_score>
0.9083735942840576

> <MMFF_internal_energy>
142.72375644232562

> <docked_smiles>
CN(c1cncc2c1cccc2)C(=O)[C@@H](CC#N)c3cccc(c3)Cl

$$$$
JOH-UNI-ee5ed7c8-6_1
  -OEChem-07262101023D

 38 40  0     1  0  0  0  0  0999 V2000
    7.2413   -3.0879   22.2989 C   0  0  0  0  0  0  0  0  0  0  0  0
    3.4520    2.5471   20.0694 C   0  0  0  0  0  0  0  0  0  0  0  0
    4.0866    2.0370   21.1996 C   0  0  0  0  0  0  0  0  0  0  0  0
   11.9780    0.4600   23.9150 C   0  0  0  0  0  0  0  0  0  0  0  0
    3.8563    2.1404   18.7981 C   0  0  0  0  0  0  0  0  0  0  0  0
    5.1285    1.1179   21.0636 C   0  0  0  0  0  0  0  0  0  0  0  0
   10.6560    0.0720   23.7350 C   0  0  0  0  0  0  0  0  0  0  0  0
   12.9840   -0.1200   23.1530 C   0  0  0  0  0  0  0  0  0  0  0  0
   11.3360   -1.5050   22.0650 C   0  0  0  0  0  0  0  0  0  0  0  0
    5.3484    0.7747   17.4016 C   0  0  0  0  0  0  0  0  0  0  0  0
    6.9459   -0.5879   18.3323 C   0  0  0  0  0  0  0  0  0  0  0  0
    4.9035    1.2160   18.6494 C   0  0  0  0  0  0  0  0  0  0  0  0
    5.5485    0.6973   19.7911 C   0  0  0  0  0  0  0  0  0  0  0  0
   10.3220   -0.8940   22.7910 C   0  0  0  0  0  0  0  0  0  0  0  0
    6.5897   -0.2227   19.6216 C   0  0  0  0  0  0  0  0  0  0  0  0
   12.6400   -1.1000   22.2390 C   0  0  0  0  0  0  0  0  0  0  0  0
    8.3880   -0.3240   21.3070 C   0  0  0  0  0  0  0  0  0  0  0  0
    8.6506   -2.6937   22.1424 C   0  0  0  0  0  0  0  0  0  0  0  0
    8.8810   -1.1900   22.4510 C   0  0  1  0  0  0  0  0  0  0  0  0
    6.1305   -3.3993   22.4231 N   0  0  0  0  0  0  0  0  0  0  0  0
    6.3518   -0.1127   17.2171 N   0  0  0  0  0  0  0  0  0  0  0  0
    7.2820   -0.7860   20.6970 N   0  0  0  0  0  0  0  0  0  0  0  0
    8.9170    0.7530   21.0260 O   0  0  0  0  0  0  0  0  0  0  0  0
   13.8840   -1.8490   21.2740 Cl  0  0  0  0  0  0  0  0  0  0  0  0
    2.6416    3.2618   20.1782 H   0  0  0  0  0  0  0  0  0  0  0  0
    3.7700    2.3549   22.1889 H   0  0  0  0  0  0  0  0  0  0  0  0
   12.2249    1.2198   24.6546 H   0  0  0  0  0  0  0  0  0  0  0  0
    3.3499    2.5485   17.9264 H   0  0  0  0  0  0  0  0  0  0  0  0
    5.5995    0.7430   21.9693 H   0  0  0  0  0  0  0  0  0  0  0  0
    9.8763    0.5350   24.3454 H   0  0  0  0  0  0  0  0  0  0  0  0
   14.0077    0.1988   23.2842 H   0  0  0  0  0  0  0  0  0  0  0  0
   11.0892   -2.3009   21.3624 H   0  0  0  0  0  0  0  0  0  0  0  0
    4.8951    1.1342   16.4819 H   0  0  0  0  0  0  0  0  0  0  0  0
    7.7466   -1.2985   18.1480 H   0  0  0  0  0  0  0  0  0  0  0  0
    9.2798   -3.3236   22.7827 H   0  0  0  0  0  0  0  0  0  0  0  0
    8.9582   -2.9048   21.1102 H   0  0  0  0  0  0  0  0  0  0  0  0
    8.2485   -0.9526   23.3299 H   0  0  0  0  0  0  0  0  0  0  0  0
    6.8977   -1.6596   21.0716 H   0  0  0  0  0  0  0  0  0  0  0  0
  1 18  1  0  0  0  0
  1 20  3  0  0  0  0
  2  3  1  0  0  0  0
  2  5  2  0  0  0  0
  3  6  2  0  0  0  0
  4  7  2  0  0  0  0
  4  8  1  0  0  0  0
  5 12  1  0  0  0  0
  6 13  1  0  0  0  0
  7 14  1  0  0  0  0
  8 16  2  0  0  0  0
  9 14  2  0  0  0  0
  9 16  1  0  0  0  0
 10 12  2  0  0  0  0
 10 21  1  0  0  0  0
 11 15  1  0  0  0  0
 11 21  2  0  0  0  0
 12 13  1  0  0  0  0
 13 15  2  0  0  0  0
 14 19  1  0  0  0  0
 15 22  1  0  0  0  0
 16 24  1  0  0  0  0
 17 19  1  1  0  0  0
 17 22  1  0  0  0  0
 17 23  2  0  0  0  0
 18 19  1  0  0  0  0
  2 25  1  0  0  0  0
  3 26  1  0  0  0  0
  4 27  1  0  0  0  0
  5 28  1  0  0  0  0
  6 29  1  0  0  0  0
  7 30  1  0  0  0  0
  8 31  1  0  0  0  0
  9 32  1  0  0  0  0
 10 33  1  0  0  0  0
 11 34  1  0  0  0  0
 18 35  1  0  0  0  0
 18 36  1  0  0  0  0
 19 37  1  0  0  0  0
 22 38  1  0  0  0  0
M  END
> <compound>
JOH-UNI-ee5ed7c8-6

> <compound_smiles>
c1ccc2c(c1)cncc2NC(=O)C(CC#N)c3cccc(c3)Cl

> <enantiomer_smiles>
c1ccc2c(c1)cncc2NC(=O)[C@@H](CC#N)c3cccc(c3)Cl

> <scaffold>
chlorobenzene-linker

> <clash_score>
0

> <docking_score>
-10.929441452026367

> <overlap_score>
0.9907922148704529

> <MMFF_internal_energy>
104.13124520199865

> <docked_smiles>
c1ccc2c(c1)cncc2NC(=O)[C@@H](CC#N)c3cccc(c3)Cl

$$$$
JOH-UNI-ee5ed7c8-13_1
  -OEChem-07262101023D

 43 45  0     0  0  0  0  0  0999 V2000
    3.3906    2.5795   20.6106 C   0  0  0  0  0  0  0  0  0  0  0  0
   11.9780    0.4600   23.9150 C   0  0  0  0  0  0  0  0  0  0  0  0
    3.8147    2.3937   19.2950 C   0  0  0  0  0  0  0  0  0  0  0  0
    4.0191    1.8963   21.6491 C   0  0  0  0  0  0  0  0  0  0  0  0
   10.6560    0.0720   23.7350 C   0  0  0  0  0  0  0  0  0  0  0  0
   12.9840   -0.1200   23.1530 C   0  0  0  0  0  0  0  0  0  0  0  0
   11.3360   -1.5050   22.0650 C   0  0  0  0  0  0  0  0  0  0  0  0
    5.3406    1.2951   17.7118 C   0  0  0  0  0  0  0  0  0  0  0  0
    6.9453   -0.1849   18.4253 C   0  0  0  0  0  0  0  0  0  0  0  0
    4.8757    1.5185   19.0093 C   0  0  0  0  0  0  0  0  0  0  0  0
    5.5146    0.8250   20.0579 C   0  0  0  0  0  0  0  0  0  0  0  0
   10.3220   -0.8940   22.7910 C   0  0  0  0  0  0  0  0  0  0  0  0
    5.0746    1.0242   21.3767 C   0  0  0  0  0  0  0  0  0  0  0  0
    6.5697   -0.0424   19.7524 C   0  0  0  0  0  0  0  0  0  0  0  0
   12.6400   -1.1000   22.2390 C   0  0  0  0  0  0  0  0  0  0  0  0
    8.3880   -0.3240   21.3070 C   0  0  0  0  0  0  0  0  0  0  0  0
    6.7278   -2.1083   21.1212 C   0  0  0  0  0  0  0  0  0  0  0  0
    8.8810   -1.1900   22.4510 C   0  0  0  0  0  0  0  0  0  0  0  0
    5.6697    0.3482   22.5735 C   0  0  0  0  0  0  0  0  0  0  0  0
    6.1886    1.3340   23.6047 C   0  0  0  0  0  0  0  0  0  0  0  0
    6.3577    0.4619   17.3963 N   0  0  0  0  0  0  0  0  0  0  0  0
    7.2820   -0.7860   20.6970 N   0  0  0  0  0  0  0  0  0  0  0  0
    8.9170    0.7530   21.0260 O   0  0  0  0  0  0  0  0  0  0  0  0
    7.1881    2.0822   23.0845 F   0  0  0  0  0  0  0  0  0  0  0  0
    6.6796    0.7018   24.6917 F   0  0  0  0  0  0  0  0  0  0  0  0
    5.2195    2.1803   24.0135 F   0  0  0  0  0  0  0  0  0  0  0  0
   13.8840   -1.8490   21.2740 Cl  0  0  0  0  0  0  0  0  0  0  0  0
    2.5696    3.2574   20.8250 H   0  0  0  0  0  0  0  0  0  0  0  0
   12.2249    1.2198   24.6546 H   0  0  0  0  0  0  0  0  0  0  0  0
    3.3133    2.9352   18.4962 H   0  0  0  0  0  0  0  0  0  0  0  0
    3.6761    2.0513   22.6691 H   0  0  0  0  0  0  0  0  0  0  0  0
    9.8763    0.5350   24.3454 H   0  0  0  0  0  0  0  0  0  0  0  0
   14.0077    0.1988   23.2842 H   0  0  0  0  0  0  0  0  0  0  0  0
   11.0892   -2.3009   21.3624 H   0  0  0  0  0  0  0  0  0  0  0  0
    4.8924    1.7972   16.8587 H   0  0  0  0  0  0  0  0  0  0  0  0
    7.7573   -0.8456   18.1344 H   0  0  0  0  0  0  0  0  0  0  0  0
    7.1177   -2.8983   20.4624 H   0  0  0  0  0  0  0  0  0  0  0  0
    7.0275   -2.3155   22.1591 H   0  0  0  0  0  0  0  0  0  0  0  0
    5.6301   -2.0841   21.0544 H   0  0  0  0  0  0  0  0  0  0  0  0
    8.8006   -2.2403   22.1717 H   0  0  0  0  0  0  0  0  0  0  0  0
    8.2668   -1.0117   23.3332 H   0  0  0  0  0  0  0  0  0  0  0  0
    6.4892   -0.3152   22.2610 H   0  0  0  0  0  0  0  0  0  0  0  0
    4.9232   -0.3085   23.0432 H   0  0  0  0  0  0  0  0  0  0  0  0
  1  3  2  0  0  0  0
  1  4  1  0  0  0  0
  2  5  2  0  0  0  0
  2  6  1  0  0  0  0
  3 10  1  0  0  0  0
  4 13  2  0  0  0  0
  5 12  1  0  0  0  0
  6 15  2  0  0  0  0
  7 12  2  0  0  0  0
  7 15  1  0  0  0  0
  8 10  2  0  0  0  0
  8 21  1  0  0  0  0
  9 14  1  0  0  0  0
  9 21  2  0  0  0  0
 10 11  1  0  0  0  0
 11 13  1  0  0  0  0
 11 14  2  0  0  0  0
 12 18  1  0  0  0  0
 13 19  1  0  0  0  0
 14 22  1  0  0  0  0
 15 27  1  0  0  0  0
 16 18  1  0  0  0  0
 16 22  1  0  0  0  0
 16 23  2  0  0  0  0
 17 22  1  0  0  0  0
 19 20  1  0  0  0  0
 20 24  1  0  0  0  0
 20 25  1  0  0  0  0
 20 26  1  0  0  0  0
  1 28  1  0  0  0  0
  2 29  1  0  0  0  0
  3 30  1  0  0  0  0
  4 31  1  0  0  0  0
  5 32  1  0  0  0  0
  6 33  1  0  0  0  0
  7 34  1  0  0  0  0
  8 35  1  0  0  0  0
  9 36  1  0  0  0  0
 17 37  1  0  0  0  0
 17 38  1  0  0  0  0
 17 39  1  0  0  0  0
 18 40  1  0  0  0  0
 18 41  1  0  0  0  0
 19 42  1  0  0  0  0
 19 43  1  0  0  0  0
M  END
> <compound>
JOH-UNI-ee5ed7c8-13

> <compound_smiles>
CN(c1cncc2c1c(ccc2)CC(F)(F)F)C(=O)Cc3cccc(c3)Cl

> <enantiomer_smiles>
CN(c1cncc2c1c(ccc2)CC(F)(F)F)C(=O)Cc3cccc(c3)Cl

> <scaffold>
chlorobenzene-linker

> <clash_score>
0

> <docking_score>
-11.867849349975586

> <overlap_score>
1.0112842321395874

> <MMFF_internal_energy>
176.68309194862832

> <docked_smiles>
CN(c1cncc2c1c(ccc2)CC(F)(F)F)C(=O)Cc3cccc(c3)Cl

$$$$
JOH-UNI-3fc3434e-2_1
  -OEChem-07262101023D

 41 43  0     0  0  0  0  0  0999 V2000
    8.3225    3.3238   22.7996 C   0  0  0  0  0  0  0  0  0  0  0  0
    3.4323    2.5429   19.9366 C   0  0  0  0  0  0  0  0  0  0  0  0
   11.9780    0.4600   23.9150 C   0  0  0  0  0  0  0  0  0  0  0  0
    3.8711    2.1147   18.6839 C   0  0  0  0  0  0  0  0  0  0  0  0
    4.0389    2.0561   21.0921 C   0  0  0  0  0  0  0  0  0  0  0  0
   10.6560    0.0720   23.7350 C   0  0  0  0  0  0  0  0  0  0  0  0
   12.9840   -0.1200   23.1530 C   0  0  0  0  0  0  0  0  0  0  0  0
   11.3360   -1.5050   22.0650 C   0  0  0  0  0  0  0  0  0  0  0  0
    5.4039    0.7296   17.3521 C   0  0  0  0  0  0  0  0  0  0  0  0
    6.9812   -0.6095   18.3490 C   0  0  0  0  0  0  0  0  0  0  0  0
    4.9250    1.1918   18.5795 C   0  0  0  0  0  0  0  0  0  0  0  0
    5.5418    0.6966   19.7470 C   0  0  0  0  0  0  0  0  0  0  0  0
    5.0872    1.1388   21.0002 C   0  0  0  0  0  0  0  0  0  0  0  0
   10.3220   -0.8940   22.7910 C   0  0  0  0  0  0  0  0  0  0  0  0
    6.5902   -0.2222   19.6216 C   0  0  0  0  0  0  0  0  0  0  0  0
   12.6400   -1.1000   22.2390 C   0  0  0  0  0  0  0  0  0  0  0  0
    7.2536    2.5677   22.2467 C   0  0  0  0  0  0  0  0  0  0  0  0
    6.7686    1.4897   22.8759 C   0  0  0  0  0  0  0  0  0  0  0  0
    5.6349    0.7078   22.2837 C   0  0  0  0  0  0  0  0  0  0  0  0
    8.3880   -0.3240   21.3070 C   0  0  0  0  0  0  0  0  0  0  0  0
    8.8810   -1.1900   22.4510 C   0  0  0  0  0  0  0  0  0  0  0  0
    9.1949    3.9439   23.2478 N   0  0  0  0  0  0  0  0  0  0  0  0
    6.4149   -0.1570   17.2101 N   0  0  0  0  0  0  0  0  0  0  0  0
    7.2820   -0.7860   20.6970 N   0  0  0  0  0  0  0  0  0  0  0  0
    5.1891   -0.2955   22.8543 O   0  0  0  0  0  0  0  0  0  0  0  0
    8.9170    0.7530   21.0260 O   0  0  0  0  0  0  0  0  0  0  0  0
   13.8840   -1.8490   21.2740 Cl  0  0  0  0  0  0  0  0  0  0  0  0
    2.6176    3.2577   20.0109 H   0  0  0  0  0  0  0  0  0  0  0  0
   12.2249    1.2198   24.6546 H   0  0  0  0  0  0  0  0  0  0  0  0
    3.3864    2.5050   17.7918 H   0  0  0  0  0  0  0  0  0  0  0  0
    3.6833    2.4026   22.0596 H   0  0  0  0  0  0  0  0  0  0  0  0
    9.8763    0.5350   24.3454 H   0  0  0  0  0  0  0  0  0  0  0  0
   14.0077    0.1988   23.2842 H   0  0  0  0  0  0  0  0  0  0  0  0
   11.0892   -2.3008   21.3624 H   0  0  0  0  0  0  0  0  0  0  0  0
    4.9732    1.0710   16.4146 H   0  0  0  0  0  0  0  0  0  0  0  0
    7.7897   -1.3193   18.1964 H   0  0  0  0  0  0  0  0  0  0  0  0
    6.8509    2.8991   21.2954 H   0  0  0  0  0  0  0  0  0  0  0  0
    7.1744    1.1685   23.8291 H   0  0  0  0  0  0  0  0  0  0  0  0
    8.7774   -2.2383   22.1732 H   0  0  0  0  0  0  0  0  0  0  0  0
    8.2557   -1.0153   23.3257 H   0  0  0  0  0  0  0  0  0  0  0  0
    6.8982   -1.6620   21.0675 H   0  0  0  0  0  0  0  0  0  0  0  0
  1 17  1  0  0  0  0
  1 22  3  0  0  0  0
  2  4  2  0  0  0  0
  2  5  1  0  0  0  0
  3  6  1  0  0  0  0
  3  7  2  0  0  0  0
  4 11  1  0  0  0  0
  5 13  2  0  0  0  0
  6 14  2  0  0  0  0
  7 16  1  0  0  0  0
  8 14  1  0  0  0  0
  8 16  2  0  0  0  0
  9 11  2  0  0  0  0
  9 23  1  0  0  0  0
 10 15  1  0  0  0  0
 10 23  2  0  0  0  0
 11 12  1  0  0  0  0
 12 13  1  0  0  0  0
 12 15  2  0  0  0  0
 13 19  1  0  0  0  0
 14 21  1  0  0  0  0
 15 24  1  0  0  0  0
 16 27  1  0  0  0  0
 17 18  2  0  0  0  0
 18 19  1  0  0  0  0
 19 25  2  0  0  0  0
 20 21  1  0  0  0  0
 20 24  1  0  0  0  0
 20 26  2  0  0  0  0
  2 28  1  0  0  0  0
  3 29  1  0  0  0  0
  4 30  1  0  0  0  0
  5 31  1  0  0  0  0
  6 32  1  0  0  0  0
  7 33  1  0  0  0  0
  8 34  1  0  0  0  0
  9 35  1  0  0  0  0
 10 36  1  0  0  0  0
 17 37  1  0  0  0  0
 18 38  1  0  0  0  0
 21 39  1  0  0  0  0
 21 40  1  0  0  0  0
 24 41  1  0  0  0  0
M  END
> <compound>
JOH-UNI-3fc3434e-2

> <compound_smiles>
c1cc(cc(c1)Cl)CC(=O)Nc2cncc3c2c(ccc3)C(=O)/C=C/C#N

> <enantiomer_smiles>
c1cc(cc(c1)Cl)CC(=O)Nc2cncc3c2c(ccc3)C(=O)/C=C/C#N

> <scaffold>
chlorobenzene-linker

> <clash_score>
0

> <docking_score>
-10.784256935119629

> <overlap_score>
1.0

> <MMFF_internal_energy>
118.83700775772073

> <docked_smiles>
c1cc(cc(c1)Cl)CC(=O)Nc2cncc3c2c(ccc3)C(=O)/C=C/C#N

$$$$
JOH-UNI-ee5ed7c8-6_2
  -OEChem-07262101023D

 38 40  0     1  0  0  0  0  0999 V2000
    7.5900    0.3576   23.9358 C   0  0  0  0  0  0  0  0  0  0  0  0
    3.4520    2.5471   20.0694 C   0  0  0  0  0  0  0  0  0  0  0  0
    4.0866    2.0370   21.1996 C   0  0  0  0  0  0  0  0  0  0  0  0
   11.9780    0.4600   23.9150 C   0  0  0  0  0  0  0  0  0  0  0  0
    3.8563    2.1404   18.7981 C   0  0  0  0  0  0  0  0  0  0  0  0
    5.1285    1.1179   21.0636 C   0  0  0  0  0  0  0  0  0  0  0  0
   10.6560    0.0720   23.7350 C   0  0  0  0  0  0  0  0  0  0  0  0
   12.9840   -0.1200   23.1530 C   0  0  0  0  0  0  0  0  0  0  0  0
   11.3360   -1.5050   22.0650 C   0  0  0  0  0  0  0  0  0  0  0  0
    5.3484    0.7747   17.4016 C   0  0  0  0  0  0  0  0  0  0  0  0
    6.9459   -0.5879   18.3323 C   0  0  0  0  0  0  0  0  0  0  0  0
    4.9035    1.2160   18.6494 C   0  0  0  0  0  0  0  0  0  0  0  0
    5.5485    0.6973   19.7911 C   0  0  0  0  0  0  0  0  0  0  0  0
   10.3220   -0.8940   22.7910 C   0  0  0  0  0  0  0  0  0  0  0  0
    6.5897   -0.2227   19.6216 C   0  0  0  0  0  0  0  0  0  0  0  0
   12.6400   -1.1000   22.2390 C   0  0  0  0  0  0  0  0  0  0  0  0
    8.3880   -0.3240   21.3070 C   0  0  0  0  0  0  0  0  0  0  0  0
    7.9464   -1.0476   23.6817 C   0  0  0  0  0  0  0  0  0  0  0  0
    8.8810   -1.1900   22.4510 C   0  0  2  0  0  0  0  0  0  0  0  0
    7.3094    1.4654   24.1369 N   0  0  0  0  0  0  0  0  0  0  0  0
    6.3518   -0.1127   17.2171 N   0  0  0  0  0  0  0  0  0  0  0  0
    7.2820   -0.7860   20.6970 N   0  0  0  0  0  0  0  0  0  0  0  0
    8.9170    0.7530   21.0260 O   0  0  0  0  0  0  0  0  0  0  0  0
   13.8840   -1.8490   21.2740 Cl  0  0  0  0  0  0  0  0  0  0  0  0
    2.6415    3.2618   20.1782 H   0  0  0  0  0  0  0  0  0  0  0  0
    3.7700    2.3549   22.1889 H   0  0  0  0  0  0  0  0  0  0  0  0
   12.2249    1.2198   24.6546 H   0  0  0  0  0  0  0  0  0  0  0  0
    3.3499    2.5485   17.9264 H   0  0  0  0  0  0  0  0  0  0  0  0
    5.5995    0.7430   21.9694 H   0  0  0  0  0  0  0  0  0  0  0  0
    9.8763    0.5350   24.3454 H   0  0  0  0  0  0  0  0  0  0  0  0
   14.0077    0.1988   23.2842 H   0  0  0  0  0  0  0  0  0  0  0  0
   11.0892   -2.3009   21.3624 H   0  0  0  0  0  0  0  0  0  0  0  0
    4.8951    1.1342   16.4819 H   0  0  0  0  0  0  0  0  0  0  0  0
    7.7466   -1.2985   18.1480 H   0  0  0  0  0  0  0  0  0  0  0  0
    8.4082   -1.4757   24.5795 H   0  0  0  0  0  0  0  0  0  0  0  0
    7.0226   -1.6158   23.5134 H   0  0  0  0  0  0  0  0  0  0  0  0
    8.8000   -2.2435   22.1165 H   0  0  0  0  0  0  0  0  0  0  0  0
    6.8977   -1.6596   21.0716 H   0  0  0  0  0  0  0  0  0  0  0  0
  1 18  1  0  0  0  0
  1 20  3  0  0  0  0
  2  3  1  0  0  0  0
  2  5  2  0  0  0  0
  3  6  2  0  0  0  0
  4  7  2  0  0  0  0
  4  8  1  0  0  0  0
  5 12  1  0  0  0  0
  6 13  1  0  0  0  0
  7 14  1  0  0  0  0
  8 16  2  0  0  0  0
  9 14  2  0  0  0  0
  9 16  1  0  0  0  0
 10 12  2  0  0  0  0
 10 21  1  0  0  0  0
 11 15  1  0  0  0  0
 11 21  2  0  0  0  0
 12 13  1  0  0  0  0
 13 15  2  0  0  0  0
 14 19  1  0  0  0  0
 15 22  1  0  0  0  0
 16 24  1  0  0  0  0
 17 19  1  6  0  0  0
 17 22  1  0  0  0  0
 17 23  2  0  0  0  0
 18 19  1  0  0  0  0
  2 25  1  0  0  0  0
  3 26  1  0  0  0  0
  4 27  1  0  0  0  0
  5 28  1  0  0  0  0
  6 29  1  0  0  0  0
  7 30  1  0  0  0  0
  8 31  1  0  0  0  0
  9 32  1  0  0  0  0
 10 33  1  0  0  0  0
 11 34  1  0  0  0  0
 18 35  1  0  0  0  0
 18 36  1  0  0  0  0
 19 37  1  0  0  0  0
 22 38  1  0  0  0  0
M  END
> <compound>
JOH-UNI-ee5ed7c8-6

> <compound_smiles>
c1ccc2c(c1)cncc2NC(=O)C(CC#N)c3cccc(c3)Cl

> <enantiomer_smiles>
c1ccc2c(c1)cncc2NC(=O)[C@H](CC#N)c3cccc(c3)Cl

> <scaffold>
chlorobenzene-linker

> <clash_score>
0

> <docking_score>
-11.534462928771973

> <overlap_score>
1.0

> <MMFF_internal_energy>
99.45302362589366

> <docked_smiles>
c1ccc2c(c1)cncc2NC(=O)[C@H](CC#N)c3cccc(c3)Cl

$$$$
JOH-UNI-3fc3434e-5_1
  -OEChem-07262101023D

 41 43  0     0  0  0  0  0  0999 V2000
    8.7423    2.5851   23.5528 C   0  0  0  0  0  0  0  0  0  0  0  0
    7.8353    1.9861   23.0424 C   0  0  0  0  0  0  0  0  0  0  0  0
    4.7669    3.6966   20.4509 C   0  0  0  0  0  0  0  0  0  0  0  0
   11.9780    0.4600   23.9150 C   0  0  0  0  0  0  0  0  0  0  0  0
    4.6822    3.0977   19.1942 C   0  0  0  0  0  0  0  0  0  0  0  0
    5.4504    3.0582   21.4831 C   0  0  0  0  0  0  0  0  0  0  0  0
   10.6560    0.0720   23.7350 C   0  0  0  0  0  0  0  0  0  0  0  0
   12.9840   -0.1200   23.1530 C   0  0  0  0  0  0  0  0  0  0  0  0
   11.3360   -1.5050   22.0650 C   0  0  0  0  0  0  0  0  0  0  0  0
    5.2305    1.2056   17.7242 C   0  0  0  0  0  0  0  0  0  0  0  0
    6.4509   -0.5862   18.4825 C   0  0  0  0  0  0  0  0  0  0  0  0
    5.2841    1.8499   18.9617 C   0  0  0  0  0  0  0  0  0  0  0  0
    5.9770    1.2004   20.0042 C   0  0  0  0  0  0  0  0  0  0  0  0
    6.0523    1.8180   21.2633 C   0  0  0  0  0  0  0  0  0  0  0  0
   10.3220   -0.8940   22.7910 C   0  0  0  0  0  0  0  0  0  0  0  0
    6.5697   -0.0423   19.7523 C   0  0  0  0  0  0  0  0  0  0  0  0
   12.6400   -1.1000   22.2390 C   0  0  0  0  0  0  0  0  0  0  0  0
    6.7360    1.2572   22.4259 C   0  0  0  0  0  0  0  0  0  0  0  0
    8.3880   -0.3240   21.3070 C   0  0  0  0  0  0  0  0  0  0  0  0
    6.7276   -2.1083   21.1210 C   0  0  0  0  0  0  0  0  0  0  0  0
    8.8810   -1.1900   22.4510 C   0  0  0  0  0  0  0  0  0  0  0  0
    5.7962    0.0060   17.4611 N   0  0  0  0  0  0  0  0  0  0  0  0
    7.2820   -0.7860   20.6970 N   0  0  0  0  0  0  0  0  0  0  0  0
    6.4287    0.1714   22.9291 O   0  0  0  0  0  0  0  0  0  0  0  0
    8.9170    0.7530   21.0260 O   0  0  0  0  0  0  0  0  0  0  0  0
   13.8840   -1.8490   21.2740 Cl  0  0  0  0  0  0  0  0  0  0  0  0
    9.5464    3.1173   24.0047 H   0  0  0  0  0  0  0  0  0  0  0  0
    4.3005    4.6623   20.6242 H   0  0  0  0  0  0  0  0  0  0  0  0
   12.2249    1.2198   24.6546 H   0  0  0  0  0  0  0  0  0  0  0  0
    4.1449    3.6101   18.3992 H   0  0  0  0  0  0  0  0  0  0  0  0
    5.5062    3.5416   22.4557 H   0  0  0  0  0  0  0  0  0  0  0  0
    9.8763    0.5350   24.3454 H   0  0  0  0  0  0  0  0  0  0  0  0
   14.0077    0.1988   23.2842 H   0  0  0  0  0  0  0  0  0  0  0  0
   11.0892   -2.3009   21.3624 H   0  0  0  0  0  0  0  0  0  0  0  0
    4.7127    1.6511   16.8790 H   0  0  0  0  0  0  0  0  0  0  0  0
    6.8927   -1.5475   18.2345 H   0  0  0  0  0  0  0  0  0  0  0  0
    7.1176   -2.8982   20.4623 H   0  0  0  0  0  0  0  0  0  0  0  0
    7.0273   -2.3155   22.1589 H   0  0  0  0  0  0  0  0  0  0  0  0
    5.6299   -2.0839   21.0542 H   0  0  0  0  0  0  0  0  0  0  0  0
    8.8006   -2.2403   22.1717 H   0  0  0  0  0  0  0  0  0  0  0  0
    8.2668   -1.0117   23.3332 H   0  0  0  0  0  0  0  0  0  0  0  0
  1  2  3  0  0  0  0
  2 18  1  0  0  0  0
  3  5  2  0  0  0  0
  3  6  1  0  0  0  0
  4  7  2  0  0  0  0
  4  8  1  0  0  0  0
  5 12  1  0  0  0  0
  6 14  2  0  0  0  0
  7 15  1  0  0  0  0
  8 17  2  0  0  0  0
  9 15  2  0  0  0  0
  9 17  1  0  0  0  0
 10 12  2  0  0  0  0
 10 22  1  0  0  0  0
 11 16  1  0  0  0  0
 11 22  2  0  0  0  0
 12 13  1  0  0  0  0
 13 14  1  0  0  0  0
 13 16  2  0  0  0  0
 14 18  1  0  0  0  0
 15 21  1  0  0  0  0
 16 23  1  0  0  0  0
 17 26  1  0  0  0  0
 18 24  2  0  0  0  0
 19 21  1  0  0  0  0
 19 23  1  0  0  0  0
 19 25  2  0  0  0  0
 20 23  1  0  0  0  0
  1 27  1  0  0  0  0
  3 28  1  0  0  0  0
  4 29  1  0  0  0  0
  5 30  1  0  0  0  0
  6 31  1  0  0  0  0
  7 32  1  0  0  0  0
  8 33  1  0  0  0  0
  9 34  1  0  0  0  0
 10 35  1  0  0  0  0
 11 36  1  0  0  0  0
 20 37  1  0  0  0  0
 20 38  1  0  0  0  0
 20 39  1  0  0  0  0
 21 40  1  0  0  0  0
 21 41  1  0  0  0  0
M  END
> <compound>
JOH-UNI-3fc3434e-5

> <compound_smiles>
CN(c1cncc2c1c(ccc2)C(=O)C#C)C(=O)Cc3cccc(c3)Cl

> <enantiomer_smiles>
CN(c1cncc2c1c(ccc2)C(=O)C#C)C(=O)Cc3cccc(c3)Cl

> <scaffold>
chlorobenzene-linker

> <clash_score>
0

> <docking_score>
-5.170976161956787

> <overlap_score>
0.8764673471450806

> <MMFF_internal_energy>
160.00164070059844

> <docked_smiles>
CN(c1cncc2c1c(ccc2)C(=O)C#C)C(=O)Cc3cccc(c3)Cl

$$$$
JOH-UNI-3fc3434e-3_1
  -OEChem-07262101023D

 40 42  0     0  0  0  0  0  0999 V2000
    3.4304    2.5406   19.9380 C   0  0  0  0  0  0  0  0  0  0  0  0
   11.9780    0.4600   23.9150 C   0  0  0  0  0  0  0  0  0  0  0  0
    3.8690    2.1126   18.6851 C   0  0  0  0  0  0  0  0  0  0  0  0
    4.0380    2.0542   21.0932 C   0  0  0  0  0  0  0  0  0  0  0  0
   10.6560    0.0720   23.7350 C   0  0  0  0  0  0  0  0  0  0  0  0
   12.9840   -0.1200   23.1530 C   0  0  0  0  0  0  0  0  0  0  0  0
   11.3360   -1.5050   22.0650 C   0  0  0  0  0  0  0  0  0  0  0  0
    5.4022    0.7285   17.3527 C   0  0  0  0  0  0  0  0  0  0  0  0
    6.9809   -0.6094   18.3489 C   0  0  0  0  0  0  0  0  0  0  0  0
    4.9235    1.1905   18.5803 C   0  0  0  0  0  0  0  0  0  0  0  0
    5.5412    0.6958   19.7475 C   0  0  0  0  0  0  0  0  0  0  0  0
   10.3220   -0.8940   22.7910 C   0  0  0  0  0  0  0  0  0  0  0  0
    5.0868    1.1377   21.0009 C   0  0  0  0  0  0  0  0  0  0  0  0
    6.5902   -0.2223   19.6217 C   0  0  0  0  0  0  0  0  0  0  0  0
   12.6400   -1.1000   22.2390 C   0  0  0  0  0  0  0  0  0  0  0  0
    8.3880   -0.3240   21.3070 C   0  0  0  0  0  0  0  0  0  0  0  0
    8.8810   -1.1900   22.4510 C   0  0  0  0  0  0  0  0  0  0  0  0
    5.6590    0.6877   22.3099 C   0  0  0  0  0  0  0  0  0  0  0  0
    6.1760    1.8415   23.1501 C   0  0  0  0  0  0  0  0  0  0  0  0
    6.4137   -0.1574   17.2102 N   0  0  0  0  0  0  0  0  0  0  0  0
    7.2820   -0.7860   20.6970 N   0  0  0  0  0  0  0  0  0  0  0  0
    8.9170    0.7530   21.0260 O   0  0  0  0  0  0  0  0  0  0  0  0
    7.1904    2.4726   22.5160 F   0  0  0  0  0  0  0  0  0  0  0  0
    6.6460    1.4154   24.3416 F   0  0  0  0  0  0  0  0  0  0  0  0
    5.2115    2.7570   23.3825 F   0  0  0  0  0  0  0  0  0  0  0  0
   13.8840   -1.8490   21.2740 Cl  0  0  0  0  0  0  0  0  0  0  0  0
    2.6145    3.2536   20.0124 H   0  0  0  0  0  0  0  0  0  0  0  0
   12.2249    1.2198   24.6546 H   0  0  0  0  0  0  0  0  0  0  0  0
    3.3839    2.5026   17.7933 H   0  0  0  0  0  0  0  0  0  0  0  0
    3.6839    2.3969   22.0624 H   0  0  0  0  0  0  0  0  0  0  0  0
    9.8763    0.5350   24.3454 H   0  0  0  0  0  0  0  0  0  0  0  0
   14.0077    0.1988   23.2842 H   0  0  0  0  0  0  0  0  0  0  0  0
   11.0892   -2.3009   21.3624 H   0  0  0  0  0  0  0  0  0  0  0  0
    4.9706    1.0693   16.4155 H   0  0  0  0  0  0  0  0  0  0  0  0
    7.7890   -1.3194   18.1960 H   0  0  0  0  0  0  0  0  0  0  0  0
    8.7774   -2.2383   22.1732 H   0  0  0  0  0  0  0  0  0  0  0  0
    8.2557   -1.0153   23.3257 H   0  0  0  0  0  0  0  0  0  0  0  0
    6.4748   -0.0289   22.1364 H   0  0  0  0  0  0  0  0  0  0  0  0
    4.8992    0.1350   22.8812 H   0  0  0  0  0  0  0  0  0  0  0  0
    6.8982   -1.6620   21.0675 H   0  0  0  0  0  0  0  0  0  0  0  0
  1  3  2  0  0  0  0
  1  4  1  0  0  0  0
  2  5  1  0  0  0  0
  2  6  2  0  0  0  0
  3 10  1  0  0  0  0
  4 13  2  0  0  0  0
  5 12  2  0  0  0  0
  6 15  1  0  0  0  0
  7 12  1  0  0  0  0
  7 15  2  0  0  0  0
  8 10  2  0  0  0  0
  8 20  1  0  0  0  0
  9 14  1  0  0  0  0
  9 20  2  0  0  0  0
 10 11  1  0  0  0  0
 11 13  1  0  0  0  0
 11 14  2  0  0  0  0
 12 17  1  0  0  0  0
 13 18  1  0  0  0  0
 14 21  1  0  0  0  0
 15 26  1  0  0  0  0
 16 17  1  0  0  0  0
 16 21  1  0  0  0  0
 16 22  2  0  0  0  0
 18 19  1  0  0  0  0
 19 23  1  0  0  0  0
 19 24  1  0  0  0  0
 19 25  1  0  0  0  0
  1 27  1  0  0  0  0
  2 28  1  0  0  0  0
  3 29  1  0  0  0  0
  4 30  1  0  0  0  0
  5 31  1  0  0  0  0
  6 32  1  0  0  0  0
  7 33  1  0  0  0  0
  8 34  1  0  0  0  0
  9 35  1  0  0  0  0
 17 36  1  0  0  0  0
 17 37  1  0  0  0  0
 18 38  1  0  0  0  0
 18 39  1  0  0  0  0
 21 40  1  0  0  0  0
M  END
> <compound>
JOH-UNI-3fc3434e-3

> <compound_smiles>
c1cc(cc(c1)Cl)CC(=O)Nc2cncc3c2c(ccc3)CC(F)(F)F

> <enantiomer_smiles>
c1cc(cc(c1)Cl)CC(=O)Nc2cncc3c2c(ccc3)CC(F)(F)F

> <scaffold>
chlorobenzene-linker

> <clash_score>
0

> <docking_score>
-10.636716842651367

> <overlap_score>
1.0

> <MMFF_internal_energy>
153.07784823948802

> <docked_smiles>
c1cc(cc(c1)Cl)CC(=O)Nc2cncc3c2c(ccc3)CC(F)(F)F

$$$$
DAR-DIA-56cf811e-6_1
  -OEChem-07262101023D

 40 41  0     0  0  0  0  0  0999 V2000
   11.9780    0.4600   23.9150 C   0  0  0  0  0  0  0  0  0  0  0  0
   10.6560    0.0720   23.7350 C   0  0  0  0  0  0  0  0  0  0  0  0
   12.9840   -0.1200   23.1530 C   0  0  0  0  0  0  0  0  0  0  0  0
    5.1604    1.7281   18.9034 C   0  0  0  0  0  0  0  0  0  0  0  0
   11.3360   -1.5050   22.0650 C   0  0  0  0  0  0  0  0  0  0  0  0
    5.6201    1.4945   17.6173 C   0  0  0  0  0  0  0  0  0  0  0  0
    7.0734   -0.1330   18.3364 C   0  0  0  0  0  0  0  0  0  0  0  0
   10.3220   -0.8940   22.7910 C   0  0  0  0  0  0  0  0  0  0  0  0
    5.7066    0.9749   19.9366 C   0  0  0  0  0  0  0  0  0  0  0  0
    6.6820    0.0244   19.6562 C   0  0  0  0  0  0  0  0  0  0  0  0
   12.6400   -1.1000   22.2390 C   0  0  0  0  0  0  0  0  0  0  0  0
    6.0001   -2.6858   19.8629 C   0  0  0  0  0  0  0  0  0  0  0  0
    6.7005   -3.0262   18.7732 C   0  0  0  0  0  0  0  0  0  0  0  0
    6.6748   -2.0203   21.0183 C   0  0  0  0  0  0  0  0  0  0  0  0
    8.3880   -0.3240   21.3070 C   0  0  0  0  0  0  0  0  0  0  0  0
    5.2299    1.2064   21.3330 C   0  0  0  0  0  0  0  0  0  0  0  0
    8.8810   -1.1900   22.4510 C   0  0  0  0  0  0  0  0  0  0  0  0
    6.1106   -3.7013   17.5842 C   0  0  0  0  0  0  0  0  0  0  0  0
    6.5659    0.5801   17.3061 N   0  0  0  0  0  0  0  0  0  0  0  0
    7.2820   -0.7860   20.6970 N   0  0  0  0  0  0  0  0  0  0  0  0
    6.6996   -2.5471   22.1297 O   0  0  0  0  0  0  0  0  0  0  0  0
    8.9170    0.7530   21.0260 O   0  0  0  0  0  0  0  0  0  0  0  0
    7.0113   -3.9414   16.5978 F   0  0  0  0  0  0  0  0  0  0  0  0
    5.5649   -4.8988   17.9163 F   0  0  0  0  0  0  0  0  0  0  0  0
    5.1175   -2.9568   17.0353 F   0  0  0  0  0  0  0  0  0  0  0  0
   13.8840   -1.8490   21.2740 Cl  0  0  0  0  0  0  0  0  0  0  0  0
   12.2249    1.2198   24.6546 H   0  0  0  0  0  0  0  0  0  0  0  0
    9.8763    0.5350   24.3454 H   0  0  0  0  0  0  0  0  0  0  0  0
   14.0077    0.1988   23.2842 H   0  0  0  0  0  0  0  0  0  0  0  0
    4.3983    2.4774   19.0885 H   0  0  0  0  0  0  0  0  0  0  0  0
   11.0892   -2.3009   21.3624 H   0  0  0  0  0  0  0  0  0  0  0  0
    5.2263    2.0557   16.7763 H   0  0  0  0  0  0  0  0  0  0  0  0
    7.8302   -0.8591   18.0542 H   0  0  0  0  0  0  0  0  0  0  0  0
    4.9406   -2.9045   19.9376 H   0  0  0  0  0  0  0  0  0  0  0  0
    7.7635   -2.8095   18.7118 H   0  0  0  0  0  0  0  0  0  0  0  0
    4.3776    0.5543   21.5563 H   0  0  0  0  0  0  0  0  0  0  0  0
    6.0248    1.0048   22.0616 H   0  0  0  0  0  0  0  0  0  0  0  0
    4.9204    2.2488   21.4783 H   0  0  0  0  0  0  0  0  0  0  0  0
    8.7699   -2.2422   22.1627 H   0  0  0  0  0  0  0  0  0  0  0  0
    8.2814   -1.0409   23.3568 H   0  0  0  0  0  0  0  0  0  0  0  0
  1  2  2  0  0  0  0
  1  3  1  0  0  0  0
  2  8  1  0  0  0  0
  3 11  2  0  0  0  0
  4  6  2  0  0  0  0
  4  9  1  0  0  0  0
  5  8  2  0  0  0  0
  5 11  1  0  0  0  0
  6 19  1  0  0  0  0
  7 10  1  0  0  0  0
  7 19  2  0  0  0  0
  8 17  1  0  0  0  0
  9 10  2  0  0  0  0
  9 16  1  0  0  0  0
 10 20  1  0  0  0  0
 11 26  1  0  0  0  0
 12 13  2  0  0  0  0
 12 14  1  0  0  0  0
 13 18  1  0  0  0  0
 14 20  1  0  0  0  0
 14 21  2  0  0  0  0
 15 17  1  0  0  0  0
 15 20  1  0  0  0  0
 15 22  2  0  0  0  0
 18 23  1  0  0  0  0
 18 24  1  0  0  0  0
 18 25  1  0  0  0  0
  1 27  1  0  0  0  0
  2 28  1  0  0  0  0
  3 29  1  0  0  0  0
  4 30  1  0  0  0  0
  5 31  1  0  0  0  0
  6 32  1  0  0  0  0
  7 33  1  0  0  0  0
 12 34  1  0  0  0  0
 13 35  1  0  0  0  0
 16 36  1  0  0  0  0
 16 37  1  0  0  0  0
 16 38  1  0  0  0  0
 17 39  1  0  0  0  0
 17 40  1  0  0  0  0
M  END
> <compound>
DAR-DIA-56cf811e-6

> <compound_smiles>
Cc1ccncc1N(C(=O)Cc2cccc(c2)Cl)C(=O)/C=C/C(F)(F)F

> <enantiomer_smiles>
Cc1ccncc1N(C(=O)Cc2cccc(c2)Cl)C(=O)/C=C/C(F)(F)F

> <scaffold>
chlorobenzene-linker

> <clash_score>
5.813474033722649

> <docking_score>
-4.129781246185303

> <overlap_score>
0.8611365556716919

> <MMFF_internal_energy>
84.10718577026017

> <docked_smiles>
Cc1ccncc1N(C(=O)Cc2cccc(c2)Cl)C(=O)/C=C/C(F)(F)F

$$$$
DAR-DIA-56cf811e-5_1
  -OEChem-07262101023D

 43 45  0     0  0  0  0  0  0999 V2000
    3.7247    2.9299   20.3843 C   0  0  0  0  0  0  0  0  0  0  0  0
    4.2460    2.1966   21.4476 C   0  0  0  0  0  0  0  0  0  0  0  0
   11.9780    0.4600   23.9150 C   0  0  0  0  0  0  0  0  0  0  0  0
    4.1821    2.7003   19.0869 C   0  0  0  0  0  0  0  0  0  0  0  0
    5.2272    1.2304   21.2184 C   0  0  0  0  0  0  0  0  0  0  0  0
   10.6560    0.0720   23.7350 C   0  0  0  0  0  0  0  0  0  0  0  0
   12.9840   -0.1200   23.1530 C   0  0  0  0  0  0  0  0  0  0  0  0
   11.3360   -1.5050   22.0650 C   0  0  0  0  0  0  0  0  0  0  0  0
    5.6630    1.4599   17.5669 C   0  0  0  0  0  0  0  0  0  0  0  0
    7.0957   -0.1576   18.3453 C   0  0  0  0  0  0  0  0  0  0  0  0
    5.1691    1.7305   18.8446 C   0  0  0  0  0  0  0  0  0  0  0  0
    5.6994    0.9861   19.9185 C   0  0  0  0  0  0  0  0  0  0  0  0
   10.3220   -0.8940   22.7910 C   0  0  0  0  0  0  0  0  0  0  0  0
    6.6820    0.0244   19.6562 C   0  0  0  0  0  0  0  0  0  0  0  0
   12.6400   -1.1000   22.2390 C   0  0  0  0  0  0  0  0  0  0  0  0
    5.4749   -2.3428   20.1880 C   0  0  0  0  0  0  0  0  0  0  0  0
    4.4800   -3.0834   20.6935 C   0  0  0  0  0  0  0  0  0  0  0  0
    6.6748   -2.0203   21.0183 C   0  0  0  0  0  0  0  0  0  0  0  0
    8.3880   -0.3240   21.3070 C   0  0  0  0  0  0  0  0  0  0  0  0
    8.8810   -1.1900   22.4510 C   0  0  0  0  0  0  0  0  0  0  0  0
    3.2460   -3.4414   19.9408 C   0  0  0  0  0  0  0  0  0  0  0  0
    6.6113    0.5358   17.2931 N   0  0  0  0  0  0  0  0  0  0  0  0
    7.2820   -0.7860   20.6970 N   0  0  0  0  0  0  0  0  0  0  0  0
    7.0815   -2.8004   21.8782 O   0  0  0  0  0  0  0  0  0  0  0  0
    8.9170    0.7530   21.0260 O   0  0  0  0  0  0  0  0  0  0  0  0
    2.3810   -4.2056   20.6546 F   0  0  0  0  0  0  0  0  0  0  0  0
    2.5636   -2.3333   19.5556 F   0  0  0  0  0  0  0  0  0  0  0  0
    3.5398   -4.1333   18.8108 F   0  0  0  0  0  0  0  0  0  0  0  0
   13.8840   -1.8490   21.2740 Cl  0  0  0  0  0  0  0  0  0  0  0  0
    2.9613    3.6807   20.5654 H   0  0  0  0  0  0  0  0  0  0  0  0
    3.8882    2.3767   22.4573 H   0  0  0  0  0  0  0  0  0  0  0  0
   12.2249    1.2198   24.6546 H   0  0  0  0  0  0  0  0  0  0  0  0
    3.7642    3.2817   18.2682 H   0  0  0  0  0  0  0  0  0  0  0  0
    5.6100    0.6791   22.0742 H   0  0  0  0  0  0  0  0  0  0  0  0
    9.8763    0.5350   24.3454 H   0  0  0  0  0  0  0  0  0  0  0  0
   14.0077    0.1988   23.2842 H   0  0  0  0  0  0  0  0  0  0  0  0
   11.0892   -2.3009   21.3624 H   0  0  0  0  0  0  0  0  0  0  0  0
    5.2976    1.9969   16.6958 H   0  0  0  0  0  0  0  0  0  0  0  0
    7.8547   -0.8916   18.0898 H   0  0  0  0  0  0  0  0  0  0  0  0
    5.4205   -1.9462   19.1803 H   0  0  0  0  0  0  0  0  0  0  0  0
    4.5411   -3.4696   21.7074 H   0  0  0  0  0  0  0  0  0  0  0  0
    8.7699   -2.2422   22.1627 H   0  0  0  0  0  0  0  0  0  0  0  0
    8.2814   -1.0409   23.3568 H   0  0  0  0  0  0  0  0  0  0  0  0
  1  2  1  0  0  0  0
  1  4  2  0  0  0  0
  2  5  2  0  0  0  0
  3  6  2  0  0  0  0
  3  7  1  0  0  0  0
  4 11  1  0  0  0  0
  5 12  1  0  0  0  0
  6 13  1  0  0  0  0
  7 15  2  0  0  0  0
  8 13  2  0  0  0  0
  8 15  1  0  0  0  0
  9 11  2  0  0  0  0
  9 22  1  0  0  0  0
 10 14  1  0  0  0  0
 10 22  2  0  0  0  0
 11 12  1  0  0  0  0
 12 14  2  0  0  0  0
 13 20  1  0  0  0  0
 14 23  1  0  0  0  0
 15 29  1  0  0  0  0
 16 17  2  0  0  0  0
 16 18  1  0  0  0  0
 17 21  1  0  0  0  0
 18 23  1  0  0  0  0
 18 24  2  0  0  0  0
 19 20  1  0  0  0  0
 19 23  1  0  0  0  0
 19 25  2  0  0  0  0
 21 26  1  0  0  0  0
 21 27  1  0  0  0  0
 21 28  1  0  0  0  0
  1 30  1  0  0  0  0
  2 31  1  0  0  0  0
  3 32  1  0  0  0  0
  4 33  1  0  0  0  0
  5 34  1  0  0  0  0
  6 35  1  0  0  0  0
  7 36  1  0  0  0  0
  8 37  1  0  0  0  0
  9 38  1  0  0  0  0
 10 39  1  0  0  0  0
 16 40  1  0  0  0  0
 17 41  1  0  0  0  0
 20 42  1  0  0  0  0
 20 43  1  0  0  0  0
M  END
> <compound>
DAR-DIA-56cf811e-5

> <compound_smiles>
c1ccc2c(c1)cncc2N(C(=O)Cc3cccc(c3)Cl)C(=O)/C=C/C(F)(F)F

> <enantiomer_smiles>
c1ccc2c(c1)cncc2N(C(=O)Cc3cccc(c3)Cl)C(=O)/C=C/C(F)(F)F

> <scaffold>
chlorobenzene-linker

> <clash_score>
13.566116889615358

> <docking_score>
-4.555953025817871

> <overlap_score>
0.9618322253227234

> <MMFF_internal_energy>
99.81400632353885

> <docked_smiles>
c1ccc2c(c1)cncc2N(C(=O)Cc3cccc(c3)Cl)C(=O)/C=C/C(F)(F)F

$$$$
JOH-UNI-3fc3434e-9_1
  -OEChem-07262101023D

 38 40  0     0  0  0  0  0  0999 V2000
    7.3367    0.3045   18.0590 C   0  0  0  0  0  0  0  0  0  0  0  0
    2.9861    1.0732   22.7174 C   0  0  0  0  0  0  0  0  0  0  0  0
    3.9820    0.2325   23.2090 C   0  0  0  0  0  0  0  0  0  0  0  0
   11.9780    0.4600   23.9150 C   0  0  0  0  0  0  0  0  0  0  0  0
    3.0727    1.5731   21.4182 C   0  0  0  0  0  0  0  0  0  0  0  0
    5.0689   -0.1121   22.4037 C   0  0  0  0  0  0  0  0  0  0  0  0
   10.6560    0.0720   23.7350 C   0  0  0  0  0  0  0  0  0  0  0  0
   12.9840   -0.1200   23.1530 C   0  0  0  0  0  0  0  0  0  0  0  0
   11.3360   -1.5050   22.0650 C   0  0  0  0  0  0  0  0  0  0  0  0
    4.2988    1.7043   19.2919 C   0  0  0  0  0  0  0  0  0  0  0  0
    6.2789    0.5834   18.9796 C   0  0  0  0  0  0  0  0  0  0  0  0
    4.1619    1.2328   20.5990 C   0  0  0  0  0  0  0  0  0  0  0  0
    5.1722    0.3820   21.0931 C   0  0  0  0  0  0  0  0  0  0  0  0
   10.3220   -0.8940   22.7910 C   0  0  0  0  0  0  0  0  0  0  0  0
    6.2492    0.0550   20.2611 C   0  0  0  0  0  0  0  0  0  0  0  0
   12.6400   -1.1000   22.2390 C   0  0  0  0  0  0  0  0  0  0  0  0
    8.3880   -0.3240   21.3070 C   0  0  0  0  0  0  0  0  0  0  0  0
    7.0898   -2.2613   20.5690 C   0  0  0  0  0  0  0  0  0  0  0  0
    8.8810   -1.1900   22.4510 C   0  0  0  0  0  0  0  0  0  0  0  0
    8.1953    0.0783   17.3118 N   0  0  0  0  0  0  0  0  0  0  0  0
    5.3309    1.4003   18.4730 N   0  0  0  0  0  0  0  0  0  0  0  0
    7.2820   -0.7860   20.6970 N   0  0  0  0  0  0  0  0  0  0  0  0
    8.9170    0.7530   21.0260 O   0  0  0  0  0  0  0  0  0  0  0  0
   13.8840   -1.8490   21.2740 Cl  0  0  0  0  0  0  0  0  0  0  0  0
    2.1421    1.3403   23.3462 H   0  0  0  0  0  0  0  0  0  0  0  0
    3.9128   -0.1554   24.2213 H   0  0  0  0  0  0  0  0  0  0  0  0
   12.2249    1.2198   24.6546 H   0  0  0  0  0  0  0  0  0  0  0  0
    2.2870    2.2285   21.0499 H   0  0  0  0  0  0  0  0  0  0  0  0
    5.8241   -0.7720   22.8244 H   0  0  0  0  0  0  0  0  0  0  0  0
    9.8763    0.5350   24.3454 H   0  0  0  0  0  0  0  0  0  0  0  0
   14.0077    0.1988   23.2842 H   0  0  0  0  0  0  0  0  0  0  0  0
   11.0892   -2.3009   21.3624 H   0  0  0  0  0  0  0  0  0  0  0  0
    3.5561    2.3632   18.8503 H   0  0  0  0  0  0  0  0  0  0  0  0
    7.4642   -2.5969   19.5907 H   0  0  0  0  0  0  0  0  0  0  0  0
    7.6440   -2.7739   21.3691 H   0  0  0  0  0  0  0  0  0  0  0  0
    6.0193   -2.5002   20.6534 H   0  0  0  0  0  0  0  0  0  0  0  0
    8.8006   -2.2403   22.1717 H   0  0  0  0  0  0  0  0  0  0  0  0
    8.2668   -1.0117   23.3332 H   0  0  0  0  0  0  0  0  0  0  0  0
  1 11  1  0  0  0  0
  1 20  3  0  0  0  0
  2  3  1  0  0  0  0
  2  5  2  0  0  0  0
  3  6  2  0  0  0  0
  4  7  2  0  0  0  0
  4  8  1  0  0  0  0
  5 12  1  0  0  0  0
  6 13  1  0  0  0  0
  7 14  1  0  0  0  0
  8 16  2  0  0  0  0
  9 14  2  0  0  0  0
  9 16  1  0  0  0  0
 10 12  1  0  0  0  0
 10 21  2  0  0  0  0
 11 15  2  0  0  0  0
 11 21  1  0  0  0  0
 12 13  2  0  0  0  0
 13 15  1  0  0  0  0
 14 19  1  0  0  0  0
 15 22  1  0  0  0  0
 16 24  1  0  0  0  0
 17 19  1  0  0  0  0
 17 22  1  0  0  0  0
 17 23  2  0  0  0  0
 18 22  1  0  0  0  0
  2 25  1  0  0  0  0
  3 26  1  0  0  0  0
  4 27  1  0  0  0  0
  5 28  1  0  0  0  0
  6 29  1  0  0  0  0
  7 30  1  0  0  0  0
  8 31  1  0  0  0  0
  9 32  1  0  0  0  0
 10 33  1  0  0  0  0
 18 34  1  0  0  0  0
 18 35  1  0  0  0  0
 18 36  1  0  0  0  0
 19 37  1  0  0  0  0
 19 38  1  0  0  0  0
M  END
> <compound>
JOH-UNI-3fc3434e-9

> <compound_smiles>
CN(c1c2ccccc2cnc1C#N)C(=O)Cc3cccc(c3)Cl

> <enantiomer_smiles>
CN(c1c2ccccc2cnc1C#N)C(=O)Cc3cccc(c3)Cl

> <scaffold>
chlorobenzene-linker

> <clash_score>
0

> <docking_score>
-5.302643775939941

> <overlap_score>
0.9565509557723999

> <MMFF_internal_energy>
158.70582354540647

> <docked_smiles>
CN(c1c2ccccc2cnc1C#N)C(=O)Cc3cccc(c3)Cl

$$$$
JOH-UNI-3fc3434e-8_1
  -OEChem-07262101023D

 35 37  0     0  0  0  0  0  0999 V2000
    7.9772   -1.4868   18.0181 C   0  0  0  0  0  0  0  0  0  0  0  0
    3.4553    2.5389   20.1545 C   0  0  0  0  0  0  0  0  0  0  0  0
    4.1047    2.0099   21.2674 C   0  0  0  0  0  0  0  0  0  0  0  0
   11.9780    0.4600   23.9150 C   0  0  0  0  0  0  0  0  0  0  0  0
    3.8440    2.1552   18.8712 C   0  0  0  0  0  0  0  0  0  0  0  0
    5.1459    1.0948   21.1021 C   0  0  0  0  0  0  0  0  0  0  0  0
   10.6560    0.0720   23.7350 C   0  0  0  0  0  0  0  0  0  0  0  0
   12.9840   -0.1200   23.1530 C   0  0  0  0  0  0  0  0  0  0  0  0
   11.3360   -1.5050   22.0650 C   0  0  0  0  0  0  0  0  0  0  0  0
    5.3199    0.8163   17.4322 C   0  0  0  0  0  0  0  0  0  0  0  0
    6.9306   -0.5603   18.3186 C   0  0  0  0  0  0  0  0  0  0  0  0
    4.8903    1.2349   18.6931 C   0  0  0  0  0  0  0  0  0  0  0  0
    5.5503    0.6972   19.8173 C   0  0  0  0  0  0  0  0  0  0  0  0
   10.3220   -0.8940   22.7910 C   0  0  0  0  0  0  0  0  0  0  0  0
    6.5903   -0.2182   19.6185 C   0  0  0  0  0  0  0  0  0  0  0  0
   12.6400   -1.1000   22.2390 C   0  0  0  0  0  0  0  0  0  0  0  0
    8.3880   -0.3240   21.3070 C   0  0  0  0  0  0  0  0  0  0  0  0
    8.8810   -1.1900   22.4510 C   0  0  0  0  0  0  0  0  0  0  0  0
    8.8267   -2.2388   17.7740 N   0  0  0  0  0  0  0  0  0  0  0  0
    6.3219   -0.0663   17.2195 N   0  0  0  0  0  0  0  0  0  0  0  0
    7.2820   -0.7860   20.6970 N   0  0  0  0  0  0  0  0  0  0  0  0
    8.9170    0.7530   21.0260 O   0  0  0  0  0  0  0  0  0  0  0  0
   13.8840   -1.8490   21.2740 Cl  0  0  0  0  0  0  0  0  0  0  0  0
    2.6463    3.2512   20.2859 H   0  0  0  0  0  0  0  0  0  0  0  0
    3.8007    2.3105   22.2660 H   0  0  0  0  0  0  0  0  0  0  0  0
   12.2249    1.2198   24.6546 H   0  0  0  0  0  0  0  0  0  0  0  0
    3.3269    2.5778   18.0130 H   0  0  0  0  0  0  0  0  0  0  0  0
    5.6260    0.7042   21.9964 H   0  0  0  0  0  0  0  0  0  0  0  0
    9.8763    0.5350   24.3454 H   0  0  0  0  0  0  0  0  0  0  0  0
   14.0077    0.1988   23.2842 H   0  0  0  0  0  0  0  0  0  0  0  0
   11.0892   -2.3009   21.3624 H   0  0  0  0  0  0  0  0  0  0  0  0
    4.8542    1.1918   16.5252 H   0  0  0  0  0  0  0  0  0  0  0  0
    8.7774   -2.2383   22.1732 H   0  0  0  0  0  0  0  0  0  0  0  0
    8.2557   -1.0153   23.3257 H   0  0  0  0  0  0  0  0  0  0  0  0
    6.8980   -1.6604   21.0661 H   0  0  0  0  0  0  0  0  0  0  0  0
  1 11  1  0  0  0  0
  1 19  3  0  0  0  0
  2  3  1  0  0  0  0
  2  5  2  0  0  0  0
  3  6  2  0  0  0  0
  4  7  2  0  0  0  0
  4  8  1  0  0  0  0
  5 12  1  0  0  0  0
  6 13  1  0  0  0  0
  7 14  1  0  0  0  0
  8 16  2  0  0  0  0
  9 14  2  0  0  0  0
  9 16  1  0  0  0  0
 10 12  2  0  0  0  0
 10 20  1  0  0  0  0
 11 15  1  0  0  0  0
 11 20  2  0  0  0  0
 12 13  1  0  0  0  0
 13 15  2  0  0  0  0
 14 18  1  0  0  0  0
 15 21  1  0  0  0  0
 16 23  1  0  0  0  0
 17 18  1  0  0  0  0
 17 21  1  0  0  0  0
 17 22  2  0  0  0  0
  2 24  1  0  0  0  0
  3 25  1  0  0  0  0
  4 26  1  0  0  0  0
  5 27  1  0  0  0  0
  6 28  1  0  0  0  0
  7 29  1  0  0  0  0
  8 30  1  0  0  0  0
  9 31  1  0  0  0  0
 10 32  1  0  0  0  0
 18 33  1  0  0  0  0
 18 34  1  0  0  0  0
 21 35  1  0  0  0  0
M  END
> <compound>
JOH-UNI-3fc3434e-8

> <compound_smiles>
c1ccc2c(c1)cnc(c2NC(=O)Cc3cccc(c3)Cl)C#N

> <enantiomer_smiles>
c1ccc2c(c1)cnc(c2NC(=O)Cc3cccc(c3)Cl)C#N

> <scaffold>
chlorobenzene-linker

> <clash_score>
0

> <docking_score>
-9.622289657592773

> <overlap_score>
0.9898960590362549

> <MMFF_internal_energy>
131.57944718520503

> <docked_smiles>
c1ccc2c(c1)cnc(c2NC(=O)Cc3cccc(c3)Cl)C#N

$$$$
JOH-UNI-ee5ed7c8-7_2
  -OEChem-07262101023D

 41 43  0     1  0  0  0  0  0999 V2000
    7.6797    0.4012   23.9659 C   0  0  0  0  0  0  0  0  0  0  0  0
    3.6560    2.8112   20.4065 C   0  0  0  0  0  0  0  0  0  0  0  0
    4.2110    2.1114   21.4754 C   0  0  0  0  0  0  0  0  0  0  0  0
   11.9780    0.4600   23.9150 C   0  0  0  0  0  0  0  0  0  0  0  0
    4.0986    2.5669   19.1067 C   0  0  0  0  0  0  0  0  0  0  0  0
    5.2111    1.1641   21.2493 C   0  0  0  0  0  0  0  0  0  0  0  0
   10.6560    0.0720   23.7350 C   0  0  0  0  0  0  0  0  0  0  0  0
   12.9840   -0.1200   23.1530 C   0  0  0  0  0  0  0  0  0  0  0  0
   11.3360   -1.5050   22.0650 C   0  0  0  0  0  0  0  0  0  0  0  0
    5.5846    1.3317   17.5876 C   0  0  0  0  0  0  0  0  0  0  0  0
    7.0671   -0.2362   18.3742 C   0  0  0  0  0  0  0  0  0  0  0  0
    5.1043    1.6158   18.8675 C   0  0  0  0  0  0  0  0  0  0  0  0
    5.6687    0.9053   19.9470 C   0  0  0  0  0  0  0  0  0  0  0  0
   10.3220   -0.8940   22.7910 C   0  0  0  0  0  0  0  0  0  0  0  0
    6.6696   -0.0381   19.6877 C   0  0  0  0  0  0  0  0  0  0  0  0
   12.6400   -1.1000   22.2390 C   0  0  0  0  0  0  0  0  0  0  0  0
    8.3880   -0.3240   21.3070 C   0  0  0  0  0  0  0  0  0  0  0  0
    6.7140   -2.1040   21.1068 C   0  0  0  0  0  0  0  0  0  0  0  0
    8.0228   -1.0115   23.7330 C   0  0  0  0  0  0  0  0  0  0  0  0
    8.8810   -1.1900   22.4510 C   0  0  2  0  0  0  0  0  0  0  0  0
    7.4100    1.5146   24.1502 N   0  0  0  0  0  0  0  0  0  0  0  0
    6.5502    0.4247   17.3166 N   0  0  0  0  0  0  0  0  0  0  0  0
    7.2820   -0.7860   20.6970 N   0  0  0  0  0  0  0  0  0  0  0  0
    8.9170    0.7530   21.0260 O   0  0  0  0  0  0  0  0  0  0  0  0
   13.8840   -1.8490   21.2740 Cl  0  0  0  0  0  0  0  0  0  0  0  0
    2.8779    3.5475   20.5853 H   0  0  0  0  0  0  0  0  0  0  0  0
    3.8646    2.3031   22.4870 H   0  0  0  0  0  0  0  0  0  0  0  0
   12.2249    1.2198   24.6546 H   0  0  0  0  0  0  0  0  0  0  0  0
    3.6544    3.1221   18.2837 H   0  0  0  0  0  0  0  0  0  0  0  0
    5.6200    0.6389   22.1094 H   0  0  0  0  0  0  0  0  0  0  0  0
    9.8763    0.5350   24.3454 H   0  0  0  0  0  0  0  0  0  0  0  0
   14.0077    0.1988   23.2842 H   0  0  0  0  0  0  0  0  0  0  0  0
   11.0892   -2.3009   21.3624 H   0  0  0  0  0  0  0  0  0  0  0  0
    5.1932    1.8427   16.7122 H   0  0  0  0  0  0  0  0  0  0  0  0
    7.8392   -0.9572   18.1209 H   0  0  0  0  0  0  0  0  0  0  0  0
    7.1635   -2.9027   20.4985 H   0  0  0  0  0  0  0  0  0  0  0  0
    6.9349   -2.2839   22.1692 H   0  0  0  0  0  0  0  0  0  0  0  0
    5.6245   -2.0967   20.9550 H   0  0  0  0  0  0  0  0  0  0  0  0
    7.0891   -1.5821   23.6450 H   0  0  0  0  0  0  0  0  0  0  0  0
    8.5462   -1.4103   24.6109 H   0  0  0  0  0  0  0  0  0  0  0  0
    8.7768   -2.2494   22.1624 H   0  0  0  0  0  0  0  0  0  0  0  0
  1 19  1  0  0  0  0
  1 21  3  0  0  0  0
  2  3  1  0  0  0  0
  2  5  2  0  0  0  0
  3  6  2  0  0  0  0
  4  7  2  0  0  0  0
  4  8  1  0  0  0  0
  5 12  1  0  0  0  0
  6 13  1  0  0  0  0
  7 14  1  0  0  0  0
  8 16  2  0  0  0  0
  9 14  2  0  0  0  0
  9 16  1  0  0  0  0
 10 12  2  0  0  0  0
 10 22  1  0  0  0  0
 11 15  1  0  0  0  0
 11 22  2  0  0  0  0
 12 13  1  0  0  0  0
 13 15  2  0  0  0  0
 14 20  1  0  0  0  0
 15 23  1  0  0  0  0
 16 25  1  0  0  0  0
 17 20  1  6  0  0  0
 17 23  1  0  0  0  0
 17 24  2  0  0  0  0
 18 23  1  0  0  0  0
 19 20  1  0  0  0  0
  2 26  1  0  0  0  0
  3 27  1  0  0  0  0
  4 28  1  0  0  0  0
  5 29  1  0  0  0  0
  6 30  1  0  0  0  0
  7 31  1  0  0  0  0
  8 32  1  0  0  0  0
  9 33  1  0  0  0  0
 10 34  1  0  0  0  0
 11 35  1  0  0  0  0
 18 36  1  0  0  0  0
 18 37  1  0  0  0  0
 18 38  1  0  0  0  0
 19 39  1  0  0  0  0
 19 40  1  0  0  0  0
 20 41  1  0  0  0  0
M  END
> <compound>
JOH-UNI-ee5ed7c8-7

> <compound_smiles>
CN(c1cncc2c1cccc2)C(=O)C(CC#N)c3cccc(c3)Cl

> <enantiomer_smiles>
CN(c1cncc2c1cccc2)C(=O)[C@H](CC#N)c3cccc(c3)Cl

> <scaffold>
chlorobenzene-linker

> <clash_score>
0

> <docking_score>
-12.231719017028809

> <overlap_score>
1.0

> <MMFF_internal_energy>
127.08269808313752

> <docked_smiles>
CN(c1cncc2c1cccc2)C(=O)[C@H](CC#N)c3cccc(c3)Cl

$$$$
JOH-UNI-3fc3434e-4_1
  -OEChem-07262101023D

 39 41  0     0  0  0  0  0  0999 V2000
    4.8114    2.1399   24.3726 C   0  0  0  0  0  0  0  0  0  0  0  0
    4.9721    1.4256   23.4215 C   0  0  0  0  0  0  0  0  0  0  0  0
   11.9780    0.4600   23.9150 C   0  0  0  0  0  0  0  0  0  0  0  0
   10.6560    0.0720   23.7350 C   0  0  0  0  0  0  0  0  0  0  0  0
   12.9840   -0.1200   23.1530 C   0  0  0  0  0  0  0  0  0  0  0  0
   11.3360   -1.5050   22.0650 C   0  0  0  0  0  0  0  0  0  0  0  0
    7.0143   -0.6406   18.3639 C   0  0  0  0  0  0  0  0  0  0  0  0
    5.3099    0.4567   17.3174 C   0  0  0  0  0  0  0  0  0  0  0  0
   10.3220   -0.8940   22.7910 C   0  0  0  0  0  0  0  0  0  0  0  0
    5.4385    0.5587   19.7310 C   0  0  0  0  0  0  0  0  0  0  0  0
    6.5901   -0.2240   19.6230 C   0  0  0  0  0  0  0  0  0  0  0  0
    4.8240    0.9407   18.5263 C   0  0  0  0  0  0  0  0  0  0  0  0
   12.6400   -1.1000   22.2390 C   0  0  0  0  0  0  0  0  0  0  0  0
    5.1661    0.5660   22.2794 C   0  0  0  0  0  0  0  0  0  0  0  0
    8.3880   -0.3240   21.3070 C   0  0  0  0  0  0  0  0  0  0  0  0
    3.7323    1.9308   20.8565 C   0  0  0  0  0  0  0  0  0  0  0  0
    3.7312    2.6865   19.5468 C   0  0  0  0  0  0  0  0  0  0  0  0
    8.8810   -1.1900   22.4510 C   0  0  0  0  0  0  0  0  0  0  0  0
    6.3929   -0.3351   17.2079 N   0  0  0  0  0  0  0  0  0  0  0  0
    4.8635    1.0026   20.9733 N   0  0  0  0  0  0  0  0  0  0  0  0
    7.2820   -0.7860   20.6970 N   0  0  0  0  0  0  0  0  0  0  0  0
    5.6604   -0.5321   22.5304 O   0  0  0  0  0  0  0  0  0  0  0  0
    8.9170    0.7530   21.0260 O   0  0  0  0  0  0  0  0  0  0  0  0
    3.7406    1.7741   18.4538 O   0  0  0  0  0  0  0  0  0  0  0  0
   13.8840   -1.8490   21.2740 Cl  0  0  0  0  0  0  0  0  0  0  0  0
    4.6697    2.7731   25.2172 H   0  0  0  0  0  0  0  0  0  0  0  0
   12.2249    1.2198   24.6546 H   0  0  0  0  0  0  0  0  0  0  0  0
    9.8763    0.5350   24.3454 H   0  0  0  0  0  0  0  0  0  0  0  0
   14.0077    0.1988   23.2842 H   0  0  0  0  0  0  0  0  0  0  0  0
   11.0892   -2.3009   21.3624 H   0  0  0  0  0  0  0  0  0  0  0  0
    7.8826   -1.2841   18.2464 H   0  0  0  0  0  0  0  0  0  0  0  0
    4.8305    0.7086   16.3776 H   0  0  0  0  0  0  0  0  0  0  0  0
    3.7277    2.6598   21.6825 H   0  0  0  0  0  0  0  0  0  0  0  0
    2.8172    1.3206   20.9520 H   0  0  0  0  0  0  0  0  0  0  0  0
    2.8202    3.2845   19.4658 H   0  0  0  0  0  0  0  0  0  0  0  0
    4.5825    3.3704   19.4675 H   0  0  0  0  0  0  0  0  0  0  0  0
    8.7774   -2.2383   22.1732 H   0  0  0  0  0  0  0  0  0  0  0  0
    8.2557   -1.0153   23.3257 H   0  0  0  0  0  0  0  0  0  0  0  0
    6.8983   -1.6632   21.0686 H   0  0  0  0  0  0  0  0  0  0  0  0
  1  2  3  0  0  0  0
  2 14  1  0  0  0  0
  3  4  2  0  0  0  0
  3  5  1  0  0  0  0
  4  9  1  0  0  0  0
  5 13  2  0  0  0  0
  6  9  2  0  0  0  0
  6 13  1  0  0  0  0
  7 11  1  0  0  0  0
  7 19  2  0  0  0  0
  8 12  2  0  0  0  0
  8 19  1  0  0  0  0
  9 18  1  0  0  0  0
 10 11  2  0  0  0  0
 10 12  1  0  0  0  0
 10 20  1  0  0  0  0
 11 21  1  0  0  0  0
 12 24  1  0  0  0  0
 13 25  1  0  0  0  0
 14 20  1  0  0  0  0
 14 22  2  0  0  0  0
 15 18  1  0  0  0  0
 15 21  1  0  0  0  0
 15 23  2  0  0  0  0
 16 17  1  0  0  0  0
 16 20  1  0  0  0  0
 17 24  1  0  0  0  0
  1 26  1  0  0  0  0
  3 27  1  0  0  0  0
  4 28  1  0  0  0  0
  5 29  1  0  0  0  0
  6 30  1  0  0  0  0
  7 31  1  0  0  0  0
  8 32  1  0  0  0  0
 16 33  1  0  0  0  0
 16 34  1  0  0  0  0
 17 35  1  0  0  0  0
 17 36  1  0  0  0  0
 18 37  1  0  0  0  0
 18 38  1  0  0  0  0
 21 39  1  0  0  0  0
M  END
> <compound>
JOH-UNI-3fc3434e-4

> <compound_smiles>
C#CC(=O)N1CCOc2c1c(cnc2)NC(=O)Cc3cccc(c3)Cl

> <enantiomer_smiles>
C#CC(=O)N1CCOc2c1c(cnc2)NC(=O)Cc3cccc(c3)Cl

> <scaffold>
chlorobenzene-linker

> <clash_score>
0

> <docking_score>
-9.622583389282227

> <overlap_score>
1.0

> <MMFF_internal_energy>
114.81131542196549

> <docked_smiles>
C#CC(=O)N1CCOc2c1c(cnc2)NC(=O)Cc3cccc(c3)Cl

$$$$
JOH-UNI-3fc3434e-12_1
  -OEChem-07262101023D

 42 44  0     0  0  0  0  0  0999 V2000
    4.1800   -0.1964   24.6503 C   0  0  0  0  0  0  0  0  0  0  0  0
    4.7894    0.2168   23.7025 C   0  0  0  0  0  0  0  0  0  0  0  0
   11.9780    0.4600   23.9150 C   0  0  0  0  0  0  0  0  0  0  0  0
   10.6560    0.0720   23.7350 C   0  0  0  0  0  0  0  0  0  0  0  0
   12.9840   -0.1200   23.1530 C   0  0  0  0  0  0  0  0  0  0  0  0
   11.3360   -1.5050   22.0650 C   0  0  0  0  0  0  0  0  0  0  0  0
    6.9760   -0.2172   18.4351 C   0  0  0  0  0  0  0  0  0  0  0  0
    5.1884    0.9568   17.6309 C   0  0  0  0  0  0  0  0  0  0  0  0
   10.3220   -0.8940   22.7910 C   0  0  0  0  0  0  0  0  0  0  0  0
    5.4119    0.6904   20.0164 C   0  0  0  0  0  0  0  0  0  0  0  0
    6.5701   -0.0460   19.7542 C   0  0  0  0  0  0  0  0  0  0  0  0
    4.7037    1.1918   18.9123 C   0  0  0  0  0  0  0  0  0  0  0  0
   12.6400   -1.1000   22.2390 C   0  0  0  0  0  0  0  0  0  0  0  0
    5.5243    0.7133   22.5620 C   0  0  0  0  0  0  0  0  0  0  0  0
    8.3880   -0.3240   21.3070 C   0  0  0  0  0  0  0  0  0  0  0  0
    3.4742    1.3227   21.3493 C   0  0  0  0  0  0  0  0  0  0  0  0
    3.2492    2.3888   20.2971 C   0  0  0  0  0  0  0  0  0  0  0  0
    6.7311   -2.1101   21.1251 C   0  0  0  0  0  0  0  0  0  0  0  0
    8.8810   -1.1900   22.4510 C   0  0  0  0  0  0  0  0  0  0  0  0
    6.3174    0.2709   17.3652 N   0  0  0  0  0  0  0  0  0  0  0  0
    4.8759    0.8955   21.3304 N   0  0  0  0  0  0  0  0  0  0  0  0
    7.2820   -0.7860   20.6970 N   0  0  0  0  0  0  0  0  0  0  0  0
    6.7295    0.8810   22.7356 O   0  0  0  0  0  0  0  0  0  0  0  0
    8.9170    0.7530   21.0260 O   0  0  0  0  0  0  0  0  0  0  0  0
    3.5313    1.8931   18.9908 O   0  0  0  0  0  0  0  0  0  0  0  0
   13.8840   -1.8490   21.2740 Cl  0  0  0  0  0  0  0  0  0  0  0  0
    3.6403   -0.5633   25.4920 H   0  0  0  0  0  0  0  0  0  0  0  0
   12.2249    1.2198   24.6546 H   0  0  0  0  0  0  0  0  0  0  0  0
    9.8763    0.5350   24.3454 H   0  0  0  0  0  0  0  0  0  0  0  0
   14.0077    0.1988   23.2842 H   0  0  0  0  0  0  0  0  0  0  0  0
   11.0892   -2.3009   21.3624 H   0  0  0  0  0  0  0  0  0  0  0  0
    7.8583   -0.8008   18.1869 H   0  0  0  0  0  0  0  0  0  0  0  0
    4.6680    1.3343   16.7557 H   0  0  0  0  0  0  0  0  0  0  0  0
    3.1880    1.7224   22.3213 H   0  0  0  0  0  0  0  0  0  0  0  0
    2.8712    0.4373   21.1361 H   0  0  0  0  0  0  0  0  0  0  0  0
    2.1982    2.7012   20.3073 H   0  0  0  0  0  0  0  0  0  0  0  0
    3.8523    3.2872   20.4903 H   0  0  0  0  0  0  0  0  0  0  0  0
    7.1221   -2.9004   20.4675 H   0  0  0  0  0  0  0  0  0  0  0  0
    7.0328   -2.3143   22.1631 H   0  0  0  0  0  0  0  0  0  0  0  0
    5.6333   -2.0887   21.0599 H   0  0  0  0  0  0  0  0  0  0  0  0
    8.8006   -2.2403   22.1717 H   0  0  0  0  0  0  0  0  0  0  0  0
    8.2668   -1.0117   23.3332 H   0  0  0  0  0  0  0  0  0  0  0  0
  1  2  3  0  0  0  0
  2 14  1  0  0  0  0
  3  4  2  0  0  0  0
  3  5  1  0  0  0  0
  4  9  1  0  0  0  0
  5 13  2  0  0  0  0
  6  9  2  0  0  0  0
  6 13  1  0  0  0  0
  7 11  1  0  0  0  0
  7 20  2  0  0  0  0
  8 12  2  0  0  0  0
  8 20  1  0  0  0  0
  9 19  1  0  0  0  0
 10 11  2  0  0  0  0
 10 12  1  0  0  0  0
 10 21  1  0  0  0  0
 11 22  1  0  0  0  0
 12 25  1  0  0  0  0
 13 26  1  0  0  0  0
 14 21  1  0  0  0  0
 14 23  2  0  0  0  0
 15 19  1  0  0  0  0
 15 22  1  0  0  0  0
 15 24  2  0  0  0  0
 16 17  1  0  0  0  0
 16 21  1  0  0  0  0
 17 25  1  0  0  0  0
 18 22  1  0  0  0  0
  1 27  1  0  0  0  0
  3 28  1  0  0  0  0
  4 29  1  0  0  0  0
  5 30  1  0  0  0  0
  6 31  1  0  0  0  0
  7 32  1  0  0  0  0
  8 33  1  0  0  0  0
 16 34  1  0  0  0  0
 16 35  1  0  0  0  0
 17 36  1  0  0  0  0
 17 37  1  0  0  0  0
 18 38  1  0  0  0  0
 18 39  1  0  0  0  0
 18 40  1  0  0  0  0
 19 41  1  0  0  0  0
 19 42  1  0  0  0  0
M  END
> <compound>
JOH-UNI-3fc3434e-12

> <compound_smiles>
CN(c1cncc2c1N(CCO2)C(=O)C#C)C(=O)Cc3cccc(c3)Cl

> <enantiomer_smiles>
CN(c1cncc2c1N(CCO2)C(=O)C#C)C(=O)Cc3cccc(c3)Cl

> <scaffold>
chlorobenzene-linker

> <clash_score>
0

> <docking_score>
-11.258933067321777

> <overlap_score>
1.02254056930542

> <MMFF_internal_energy>
141.5618719386507

> <docked_smiles>
CN(c1cncc2c1N(CCO2)C(=O)C#C)C(=O)Cc3cccc(c3)Cl

$$$$
JOH-UNI-3fc3434e-13_1
  -OEChem-07262101023D

 43 45  0     0  0  0  0  0  0999 V2000
    3.3906    2.5795   20.6106 C   0  0  0  0  0  0  0  0  0  0  0  0
   11.9780    0.4600   23.9150 C   0  0  0  0  0  0  0  0  0  0  0  0
    3.8147    2.3937   19.2950 C   0  0  0  0  0  0  0  0  0  0  0  0
    4.0191    1.8963   21.6491 C   0  0  0  0  0  0  0  0  0  0  0  0
   10.6560    0.0720   23.7350 C   0  0  0  0  0  0  0  0  0  0  0  0
   12.9840   -0.1200   23.1530 C   0  0  0  0  0  0  0  0  0  0  0  0
   11.3360   -1.5050   22.0650 C   0  0  0  0  0  0  0  0  0  0  0  0
    5.3406    1.2951   17.7118 C   0  0  0  0  0  0  0  0  0  0  0  0
    6.9453   -0.1849   18.4253 C   0  0  0  0  0  0  0  0  0  0  0  0
    4.8757    1.5185   19.0093 C   0  0  0  0  0  0  0  0  0  0  0  0
    5.5146    0.8250   20.0579 C   0  0  0  0  0  0  0  0  0  0  0  0
   10.3220   -0.8940   22.7910 C   0  0  0  0  0  0  0  0  0  0  0  0
    5.0746    1.0242   21.3767 C   0  0  0  0  0  0  0  0  0  0  0  0
    6.5697   -0.0424   19.7524 C   0  0  0  0  0  0  0  0  0  0  0  0
   12.6400   -1.1000   22.2390 C   0  0  0  0  0  0  0  0  0  0  0  0
    8.3880   -0.3240   21.3070 C   0  0  0  0  0  0  0  0  0  0  0  0
    6.7278   -2.1083   21.1212 C   0  0  0  0  0  0  0  0  0  0  0  0
    8.8810   -1.1900   22.4510 C   0  0  0  0  0  0  0  0  0  0  0  0
    5.6697    0.3482   22.5735 C   0  0  0  0  0  0  0  0  0  0  0  0
    6.1886    1.3340   23.6047 C   0  0  0  0  0  0  0  0  0  0  0  0
    6.3577    0.4619   17.3963 N   0  0  0  0  0  0  0  0  0  0  0  0
    7.2820   -0.7860   20.6970 N   0  0  0  0  0  0  0  0  0  0  0  0
    8.9170    0.7530   21.0260 O   0  0  0  0  0  0  0  0  0  0  0  0
    7.1881    2.0822   23.0845 F   0  0  0  0  0  0  0  0  0  0  0  0
    6.6796    0.7018   24.6917 F   0  0  0  0  0  0  0  0  0  0  0  0
    5.2195    2.1803   24.0135 F   0  0  0  0  0  0  0  0  0  0  0  0
   13.8840   -1.8490   21.2740 Cl  0  0  0  0  0  0  0  0  0  0  0  0
    2.5696    3.2574   20.8250 H   0  0  0  0  0  0  0  0  0  0  0  0
   12.2249    1.2198   24.6546 H   0  0  0  0  0  0  0  0  0  0  0  0
    3.3133    2.9352   18.4962 H   0  0  0  0  0  0  0  0  0  0  0  0
    3.6761    2.0513   22.6691 H   0  0  0  0  0  0  0  0  0  0  0  0
    9.8763    0.5350   24.3454 H   0  0  0  0  0  0  0  0  0  0  0  0
   14.0077    0.1988   23.2842 H   0  0  0  0  0  0  0  0  0  0  0  0
   11.0892   -2.3009   21.3624 H   0  0  0  0  0  0  0  0  0  0  0  0
    4.8924    1.7972   16.8587 H   0  0  0  0  0  0  0  0  0  0  0  0
    7.7573   -0.8456   18.1344 H   0  0  0  0  0  0  0  0  0  0  0  0
    7.1177   -2.8983   20.4624 H   0  0  0  0  0  0  0  0  0  0  0  0
    7.0275   -2.3155   22.1591 H   0  0  0  0  0  0  0  0  0  0  0  0
    5.6301   -2.0841   21.0544 H   0  0  0  0  0  0  0  0  0  0  0  0
    8.8006   -2.2403   22.1717 H   0  0  0  0  0  0  0  0  0  0  0  0
    8.2668   -1.0117   23.3332 H   0  0  0  0  0  0  0  0  0  0  0  0
    6.4892   -0.3152   22.2610 H   0  0  0  0  0  0  0  0  0  0  0  0
    4.9232   -0.3085   23.0432 H   0  0  0  0  0  0  0  0  0  0  0  0
  1  3  2  0  0  0  0
  1  4  1  0  0  0  0
  2  5  2  0  0  0  0
  2  6  1  0  0  0  0
  3 10  1  0  0  0  0
  4 13  2  0  0  0  0
  5 12  1  0  0  0  0
  6 15  2  0  0  0  0
  7 12  2  0  0  0  0
  7 15  1  0  0  0  0
  8 10  2  0  0  0  0
  8 21  1  0  0  0  0
  9 14  1  0  0  0  0
  9 21  2  0  0  0  0
 10 11  1  0  0  0  0
 11 13  1  0  0  0  0
 11 14  2  0  0  0  0
 12 18  1  0  0  0  0
 13 19  1  0  0  0  0
 14 22  1  0  0  0  0
 15 27  1  0  0  0  0
 16 18  1  0  0  0  0
 16 22  1  0  0  0  0
 16 23  2  0  0  0  0
 17 22  1  0  0  0  0
 19 20  1  0  0  0  0
 20 24  1  0  0  0  0
 20 25  1  0  0  0  0
 20 26  1  0  0  0  0
  1 28  1  0  0  0  0
  2 29  1  0  0  0  0
  3 30  1  0  0  0  0
  4 31  1  0  0  0  0
  5 32  1  0  0  0  0
  6 33  1  0  0  0  0
  7 34  1  0  0  0  0
  8 35  1  0  0  0  0
  9 36  1  0  0  0  0
 17 37  1  0  0  0  0
 17 38  1  0  0  0  0
 17 39  1  0  0  0  0
 18 40  1  0  0  0  0
 18 41  1  0  0  0  0
 19 42  1  0  0  0  0
 19 43  1  0  0  0  0
M  END
> <compound>
JOH-UNI-3fc3434e-13

> <compound_smiles>
CN(c1cncc2c1c(ccc2)CC(F)(F)F)C(=O)Cc3cccc(c3)Cl

> <enantiomer_smiles>
CN(c1cncc2c1c(ccc2)CC(F)(F)F)C(=O)Cc3cccc(c3)Cl

> <scaffold>
chlorobenzene-linker

> <clash_score>
0

> <docking_score>
-11.867849349975586

> <overlap_score>
1.0112842321395874

> <MMFF_internal_energy>
176.68309194862832

> <docked_smiles>
CN(c1cncc2c1c(ccc2)CC(F)(F)F)C(=O)Cc3cccc(c3)Cl

$$$$
JOH-UNI-3fc3434e-10_1
  -OEChem-07262101023D

 43 45  0     0  0  0  0  0  0999 V2000
    3.4157    2.5414   20.8049 C   0  0  0  0  0  0  0  0  0  0  0  0
    4.0823    1.8274   21.7980 C   0  0  0  0  0  0  0  0  0  0  0  0
   11.9780    0.4600   23.9150 C   0  0  0  0  0  0  0  0  0  0  0  0
    3.7937    2.3998   19.4699 C   0  0  0  0  0  0  0  0  0  0  0  0
    5.1298    0.9686   21.4606 C   0  0  0  0  0  0  0  0  0  0  0  0
   10.6560    0.0720   23.7350 C   0  0  0  0  0  0  0  0  0  0  0  0
   12.9840   -0.1200   23.1530 C   0  0  0  0  0  0  0  0  0  0  0  0
   11.3360   -1.5050   22.0650 C   0  0  0  0  0  0  0  0  0  0  0  0
    5.2658    1.3588   17.7993 C   0  0  0  0  0  0  0  0  0  0  0  0
    4.8463    1.5384   19.1189 C   0  0  0  0  0  0  0  0  0  0  0  0
    5.5236    0.8138   20.1214 C   0  0  0  0  0  0  0  0  0  0  0  0
   10.3220   -0.8940   22.7910 C   0  0  0  0  0  0  0  0  0  0  0  0
    6.5697   -0.0392   19.7510 C   0  0  0  0  0  0  0  0  0  0  0  0
   12.6400   -1.1000   22.2390 C   0  0  0  0  0  0  0  0  0  0  0  0
    6.8987   -0.1373   18.4076 C   0  0  0  0  0  0  0  0  0  0  0  0
    8.3880   -0.3240   21.3070 C   0  0  0  0  0  0  0  0  0  0  0  0
    6.7248   -2.1068   21.1177 C   0  0  0  0  0  0  0  0  0  0  0  0
    8.8810   -1.1900   22.4510 C   0  0  0  0  0  0  0  0  0  0  0  0
    8.0080   -1.0345   17.9607 C   0  0  0  0  0  0  0  0  0  0  0  0
    8.0201   -1.2503   16.4571 C   0  0  0  0  0  0  0  0  0  0  0  0
    6.2734    0.5402   17.4214 N   0  0  0  0  0  0  0  0  0  0  0  0
    7.2820   -0.7860   20.6970 N   0  0  0  0  0  0  0  0  0  0  0  0
    8.9170    0.7530   21.0260 O   0  0  0  0  0  0  0  0  0  0  0  0
    6.8856   -1.8675   16.0554 F   0  0  0  0  0  0  0  0  0  0  0  0
    9.0586   -2.0243   16.0768 F   0  0  0  0  0  0  0  0  0  0  0  0
    8.1026   -0.0797   15.7897 F   0  0  0  0  0  0  0  0  0  0  0  0
   13.8840   -1.8490   21.2740 Cl  0  0  0  0  0  0  0  0  0  0  0  0
    2.6011    3.2090   21.0702 H   0  0  0  0  0  0  0  0  0  0  0  0
    3.7865    1.9390   22.8372 H   0  0  0  0  0  0  0  0  0  0  0  0
   12.2249    1.2198   24.6546 H   0  0  0  0  0  0  0  0  0  0  0  0
    3.2627    2.9647   18.7072 H   0  0  0  0  0  0  0  0  0  0  0  0
    5.6248    0.4292   22.2648 H   0  0  0  0  0  0  0  0  0  0  0  0
    9.8763    0.5350   24.3454 H   0  0  0  0  0  0  0  0  0  0  0  0
   14.0077    0.1988   23.2842 H   0  0  0  0  0  0  0  0  0  0  0  0
   11.0892   -2.3009   21.3624 H   0  0  0  0  0  0  0  0  0  0  0  0
    4.7869    1.8867   16.9791 H   0  0  0  0  0  0  0  0  0  0  0  0
    7.1139   -2.8964   20.4580 H   0  0  0  0  0  0  0  0  0  0  0  0
    7.0228   -2.3165   22.1556 H   0  0  0  0  0  0  0  0  0  0  0  0
    5.6272   -2.0800   21.0496 H   0  0  0  0  0  0  0  0  0  0  0  0
    8.8006   -2.2403   22.1717 H   0  0  0  0  0  0  0  0  0  0  0  0
    8.2668   -1.0117   23.3332 H   0  0  0  0  0  0  0  0  0  0  0  0
    7.9317   -2.0099   18.4648 H   0  0  0  0  0  0  0  0  0  0  0  0
    8.9784   -0.6199   18.2733 H   0  0  0  0  0  0  0  0  0  0  0  0
  1  2  1  0  0  0  0
  1  4  2  0  0  0  0
  2  5  2  0  0  0  0
  3  6  2  0  0  0  0
  3  7  1  0  0  0  0
  4 10  1  0  0  0  0
  5 11  1  0  0  0  0
  6 12  1  0  0  0  0
  7 14  2  0  0  0  0
  8 12  2  0  0  0  0
  8 14  1  0  0  0  0
  9 10  1  0  0  0  0
  9 21  2  0  0  0  0
 10 11  2  0  0  0  0
 11 13  1  0  0  0  0
 12 18  1  0  0  0  0
 13 15  2  0  0  0  0
 13 22  1  0  0  0  0
 14 27  1  0  0  0  0
 15 19  1  0  0  0  0
 15 21  1  0  0  0  0
 16 18  1  0  0  0  0
 16 22  1  0  0  0  0
 16 23  2  0  0  0  0
 17 22  1  0  0  0  0
 19 20  1  0  0  0  0
 20 24  1  0  0  0  0
 20 25  1  0  0  0  0
 20 26  1  0  0  0  0
  1 28  1  0  0  0  0
  2 29  1  0  0  0  0
  3 30  1  0  0  0  0
  4 31  1  0  0  0  0
  5 32  1  0  0  0  0
  6 33  1  0  0  0  0
  7 34  1  0  0  0  0
  8 35  1  0  0  0  0
  9 36  1  0  0  0  0
 17 37  1  0  0  0  0
 17 38  1  0  0  0  0
 17 39  1  0  0  0  0
 18 40  1  0  0  0  0
 18 41  1  0  0  0  0
 19 42  1  0  0  0  0
 19 43  1  0  0  0  0
M  END
> <compound>
JOH-UNI-3fc3434e-10

> <compound_smiles>
CN(c1c2ccccc2cnc1CC(F)(F)F)C(=O)Cc3cccc(c3)Cl

> <enantiomer_smiles>
CN(c1c2ccccc2cnc1CC(F)(F)F)C(=O)Cc3cccc(c3)Cl

> <scaffold>
chlorobenzene-linker

> <clash_score>
5.223179631007765

> <docking_score>
-7.842466354370117

> <overlap_score>
1.0132611989974976

> <MMFF_internal_energy>
123.31564986660594

> <docked_smiles>
CN(c1c2ccccc2cnc1CC(F)(F)F)C(=O)Cc3cccc(c3)Cl

$$$$
JOH-UNI-3fc3434e-6_2
  -OEChem-07262101023D

 38 40  0     1  0  0  0  0  0999 V2000
    7.5900    0.3576   23.9358 C   0  0  0  0  0  0  0  0  0  0  0  0
    3.4520    2.5471   20.0694 C   0  0  0  0  0  0  0  0  0  0  0  0
    4.0866    2.0370   21.1996 C   0  0  0  0  0  0  0  0  0  0  0  0
   11.9780    0.4600   23.9150 C   0  0  0  0  0  0  0  0  0  0  0  0
    3.8563    2.1404   18.7981 C   0  0  0  0  0  0  0  0  0  0  0  0
    5.1285    1.1179   21.0636 C   0  0  0  0  0  0  0  0  0  0  0  0
   10.6560    0.0720   23.7350 C   0  0  0  0  0  0  0  0  0  0  0  0
   12.9840   -0.1200   23.1530 C   0  0  0  0  0  0  0  0  0  0  0  0
   11.3360   -1.5050   22.0650 C   0  0  0  0  0  0  0  0  0  0  0  0
    5.3484    0.7747   17.4016 C   0  0  0  0  0  0  0  0  0  0  0  0
    6.9459   -0.5879   18.3323 C   0  0  0  0  0  0  0  0  0  0  0  0
    4.9035    1.2160   18.6494 C   0  0  0  0  0  0  0  0  0  0  0  0
    5.5485    0.6973   19.7911 C   0  0  0  0  0  0  0  0  0  0  0  0
   10.3220   -0.8940   22.7910 C   0  0  0  0  0  0  0  0  0  0  0  0
    6.5897   -0.2227   19.6216 C   0  0  0  0  0  0  0  0  0  0  0  0
   12.6400   -1.1000   22.2390 C   0  0  0  0  0  0  0  0  0  0  0  0
    8.3880   -0.3240   21.3070 C   0  0  0  0  0  0  0  0  0  0  0  0
    7.9464   -1.0476   23.6817 C   0  0  0  0  0  0  0  0  0  0  0  0
    8.8810   -1.1900   22.4510 C   0  0  2  0  0  0  0  0  0  0  0  0
    7.3094    1.4654   24.1369 N   0  0  0  0  0  0  0  0  0  0  0  0
    6.3518   -0.1127   17.2171 N   0  0  0  0  0  0  0  0  0  0  0  0
    7.2820   -0.7860   20.6970 N   0  0  0  0  0  0  0  0  0  0  0  0
    8.9170    0.7530   21.0260 O   0  0  0  0  0  0  0  0  0  0  0  0
   13.8840   -1.8490   21.2740 Cl  0  0  0  0  0  0  0  0  0  0  0  0
    2.6415    3.2618   20.1782 H   0  0  0  0  0  0  0  0  0  0  0  0
    3.7700    2.3549   22.1889 H   0  0  0  0  0  0  0  0  0  0  0  0
   12.2249    1.2198   24.6546 H   0  0  0  0  0  0  0  0  0  0  0  0
    3.3499    2.5485   17.9264 H   0  0  0  0  0  0  0  0  0  0  0  0
    5.5995    0.7430   21.9694 H   0  0  0  0  0  0  0  0  0  0  0  0
    9.8763    0.5350   24.3454 H   0  0  0  0  0  0  0  0  0  0  0  0
   14.0077    0.1988   23.2842 H   0  0  0  0  0  0  0  0  0  0  0  0
   11.0892   -2.3009   21.3624 H   0  0  0  0  0  0  0  0  0  0  0  0
    4.8951    1.1342   16.4819 H   0  0  0  0  0  0  0  0  0  0  0  0
    7.7466   -1.2985   18.1480 H   0  0  0  0  0  0  0  0  0  0  0  0
    8.4082   -1.4757   24.5795 H   0  0  0  0  0  0  0  0  0  0  0  0
    7.0226   -1.6158   23.5134 H   0  0  0  0  0  0  0  0  0  0  0  0
    8.8000   -2.2435   22.1165 H   0  0  0  0  0  0  0  0  0  0  0  0
    6.8977   -1.6596   21.0716 H   0  0  0  0  0  0  0  0  0  0  0  0
  1 18  1  0  0  0  0
  1 20  3  0  0  0  0
  2  3  1  0  0  0  0
  2  5  2  0  0  0  0
  3  6  2  0  0  0  0
  4  7  2  0  0  0  0
  4  8  1  0  0  0  0
  5 12  1  0  0  0  0
  6 13  1  0  0  0  0
  7 14  1  0  0  0  0
  8 16  2  0  0  0  0
  9 14  2  0  0  0  0
  9 16  1  0  0  0  0
 10 12  2  0  0  0  0
 10 21  1  0  0  0  0
 11 15  1  0  0  0  0
 11 21  2  0  0  0  0
 12 13  1  0  0  0  0
 13 15  2  0  0  0  0
 14 19  1  0  0  0  0
 15 22  1  0  0  0  0
 16 24  1  0  0  0  0
 17 19  1  6  0  0  0
 17 22  1  0  0  0  0
 17 23  2  0  0  0  0
 18 19  1  0  0  0  0
  2 25  1  0  0  0  0
  3 26  1  0  0  0  0
  4 27  1  0  0  0  0
  5 28  1  0  0  0  0
  6 29  1  0  0  0  0
  7 30  1  0  0  0  0
  8 31  1  0  0  0  0
  9 32  1  0  0  0  0
 10 33  1  0  0  0  0
 11 34  1  0  0  0  0
 18 35  1  0  0  0  0
 18 36  1  0  0  0  0
 19 37  1  0  0  0  0
 22 38  1  0  0  0  0
M  END
> <compound>
JOH-UNI-3fc3434e-6

> <compound_smiles>
c1ccc2c(c1)cncc2NC(=O)C(CC#N)c3cccc(c3)Cl

> <enantiomer_smiles>
c1ccc2c(c1)cncc2NC(=O)[C@H](CC#N)c3cccc(c3)Cl

> <scaffold>
chlorobenzene-linker

> <clash_score>
0

> <docking_score>
-11.534462928771973

> <overlap_score>
1.0

> <MMFF_internal_energy>
99.45302362589366

> <docked_smiles>
c1ccc2c(c1)cncc2NC(=O)[C@H](CC#N)c3cccc(c3)Cl

$$$$
JOH-UNI-3fc3434e-7_1
  -OEChem-07262101023D

 41 43  0     1  0  0  0  0  0999 V2000
    9.5956   -3.5258   23.0151 C   0  0  0  0  0  0  0  0  0  0  0  0
    3.5626    1.6204   18.1381 C   0  0  0  0  0  0  0  0  0  0  0  0
    3.7444    1.3243   19.4870 C   0  0  0  0  0  0  0  0  0  0  0  0
   11.9780    0.4600   23.9150 C   0  0  0  0  0  0  0  0  0  0  0  0
    4.5217    1.2327   17.2027 C   0  0  0  0  0  0  0  0  0  0  0  0
    4.8860    0.6392   19.9066 C   0  0  0  0  0  0  0  0  0  0  0  0
   10.6560    0.0720   23.7350 C   0  0  0  0  0  0  0  0  0  0  0  0
   12.9840   -0.1200   23.1530 C   0  0  0  0  0  0  0  0  0  0  0  0
   11.3360   -1.5050   22.0650 C   0  0  0  0  0  0  0  0  0  0  0  0
    6.6656    0.1314   16.7205 C   0  0  0  0  0  0  0  0  0  0  0  0
    7.9336   -0.8053   18.3907 C   0  0  0  0  0  0  0  0  0  0  0  0
    5.6742    0.5428   17.6136 C   0  0  0  0  0  0  0  0  0  0  0  0
    5.8619    0.2412   18.9783 C   0  0  0  0  0  0  0  0  0  0  0  0
   10.3220   -0.8940   22.7910 C   0  0  0  0  0  0  0  0  0  0  0  0
    7.0170   -0.4469   19.3674 C   0  0  0  0  0  0  0  0  0  0  0  0
   12.6400   -1.1000   22.2390 C   0  0  0  0  0  0  0  0  0  0  0  0
    8.3880   -0.3240   21.3070 C   0  0  0  0  0  0  0  0  0  0  0  0
    6.3399   -1.6639   21.4516 C   0  0  0  0  0  0  0  0  0  0  0  0
    8.7467   -2.7046   22.1359 C   0  0  0  0  0  0  0  0  0  0  0  0
    8.8810   -1.1900   22.4510 C   0  0  1  0  0  0  0  0  0  0  0  0
   10.2651   -4.1732   23.7071 N   0  0  0  0  0  0  0  0  0  0  0  0
    7.7877   -0.5338   17.0763 N   0  0  0  0  0  0  0  0  0  0  0  0
    7.2820   -0.7860   20.6970 N   0  0  0  0  0  0  0  0  0  0  0  0
    8.9170    0.7530   21.0260 O   0  0  0  0  0  0  0  0  0  0  0  0
   13.8840   -1.8490   21.2740 Cl  0  0  0  0  0  0  0  0  0  0  0  0
    2.6734    2.1533   17.8144 H   0  0  0  0  0  0  0  0  0  0  0  0
    2.9961    1.6269   20.2139 H   0  0  0  0  0  0  0  0  0  0  0  0
   12.2249    1.2198   24.6546 H   0  0  0  0  0  0  0  0  0  0  0  0
    4.3639    1.4718   16.1535 H   0  0  0  0  0  0  0  0  0  0  0  0
    4.9923    0.4271   20.9680 H   0  0  0  0  0  0  0  0  0  0  0  0
    9.8763    0.5350   24.3454 H   0  0  0  0  0  0  0  0  0  0  0  0
   14.0077    0.1988   23.2842 H   0  0  0  0  0  0  0  0  0  0  0  0
   11.0892   -2.3009   21.3624 H   0  0  0  0  0  0  0  0  0  0  0  0
    6.5834    0.3313   15.6557 H   0  0  0  0  0  0  0  0  0  0  0  0
    8.8449   -1.3408   18.6414 H   0  0  0  0  0  0  0  0  0  0  0  0
    6.6327   -2.7159   21.3195 H   0  0  0  0  0  0  0  0  0  0  0  0
    6.3743   -1.4053   22.5203 H   0  0  0  0  0  0  0  0  0  0  0  0
    5.3181   -1.5172   21.0716 H   0  0  0  0  0  0  0  0  0  0  0  0
    7.7036   -3.0169   22.2756 H   0  0  0  0  0  0  0  0  0  0  0  0
    8.9939   -2.9152   21.0880 H   0  0  0  0  0  0  0  0  0  0  0  0
    8.2452   -1.0065   23.3332 H   0  0  0  0  0  0  0  0  0  0  0  0
  1 19  1  0  0  0  0
  1 21  3  0  0  0  0
  2  3  1  0  0  0  0
  2  5  2  0  0  0  0
  3  6  2  0  0  0  0
  4  7  2  0  0  0  0
  4  8  1  0  0  0  0
  5 12  1  0  0  0  0
  6 13  1  0  0  0  0
  7 14  1  0  0  0  0
  8 16  2  0  0  0  0
  9 14  2  0  0  0  0
  9 16  1  0  0  0  0
 10 12  2  0  0  0  0
 10 22  1  0  0  0  0
 11 15  1  0  0  0  0
 11 22  2  0  0  0  0
 12 13  1  0  0  0  0
 13 15  2  0  0  0  0
 14 20  1  0  0  0  0
 15 23  1  0  0  0  0
 16 25  1  0  0  0  0
 17 20  1  1  0  0  0
 17 23  1  0  0  0  0
 17 24  2  0  0  0  0
 18 23  1  0  0  0  0
 19 20  1  0  0  0  0
  2 26  1  0  0  0  0
  3 27  1  0  0  0  0
  4 28  1  0  0  0  0
  5 29  1  0  0  0  0
  6 30  1  0  0  0  0
  7 31  1  0  0  0  0
  8 32  1  0  0  0  0
  9 33  1  0  0  0  0
 10 34  1  0  0  0  0
 11 35  1  0  0  0  0
 18 36  1  0  0  0  0
 18 37  1  0  0  0  0
 18 38  1  0  0  0  0
 19 39  1  0  0  0  0
 19 40  1  0  0  0  0
 20 41  1  0  0  0  0
M  END
> <compound>
JOH-UNI-3fc3434e-7

> <compound_smiles>
CN(c1cncc2c1cccc2)C(=O)C(CC#N)c3cccc(c3)Cl

> <enantiomer_smiles>
CN(c1cncc2c1cccc2)C(=O)[C@@H](CC#N)c3cccc(c3)Cl

> <scaffold>
chlorobenzene-linker

> <clash_score>
1.27837630914257

> <docking_score>
-1.3291598558425903

> <overlap_score>
0.9083735942840576

> <MMFF_internal_energy>
142.72375644232562

> <docked_smiles>
CN(c1cncc2c1cccc2)C(=O)[C@@H](CC#N)c3cccc(c3)Cl

$$$$
JOH-UNI-3fc3434e-6_1
  -OEChem-07262101023D

 38 40  0     1  0  0  0  0  0999 V2000
    7.2413   -3.0879   22.2989 C   0  0  0  0  0  0  0  0  0  0  0  0
    3.4520    2.5471   20.0694 C   0  0  0  0  0  0  0  0  0  0  0  0
    4.0866    2.0370   21.1996 C   0  0  0  0  0  0  0  0  0  0  0  0
   11.9780    0.4600   23.9150 C   0  0  0  0  0  0  0  0  0  0  0  0
    3.8563    2.1404   18.7981 C   0  0  0  0  0  0  0  0  0  0  0  0
    5.1285    1.1179   21.0636 C   0  0  0  0  0  0  0  0  0  0  0  0
   10.6560    0.0720   23.7350 C   0  0  0  0  0  0  0  0  0  0  0  0
   12.9840   -0.1200   23.1530 C   0  0  0  0  0  0  0  0  0  0  0  0
   11.3360   -1.5050   22.0650 C   0  0  0  0  0  0  0  0  0  0  0  0
    5.3484    0.7747   17.4016 C   0  0  0  0  0  0  0  0  0  0  0  0
    6.9459   -0.5879   18.3323 C   0  0  0  0  0  0  0  0  0  0  0  0
    4.9035    1.2160   18.6494 C   0  0  0  0  0  0  0  0  0  0  0  0
    5.5485    0.6973   19.7911 C   0  0  0  0  0  0  0  0  0  0  0  0
   10.3220   -0.8940   22.7910 C   0  0  0  0  0  0  0  0  0  0  0  0
    6.5897   -0.2227   19.6216 C   0  0  0  0  0  0  0  0  0  0  0  0
   12.6400   -1.1000   22.2390 C   0  0  0  0  0  0  0  0  0  0  0  0
    8.3880   -0.3240   21.3070 C   0  0  0  0  0  0  0  0  0  0  0  0
    8.6506   -2.6937   22.1424 C   0  0  0  0  0  0  0  0  0  0  0  0
    8.8810   -1.1900   22.4510 C   0  0  1  0  0  0  0  0  0  0  0  0
    6.1305   -3.3993   22.4231 N   0  0  0  0  0  0  0  0  0  0  0  0
    6.3518   -0.1127   17.2171 N   0  0  0  0  0  0  0  0  0  0  0  0
    7.2820   -0.7860   20.6970 N   0  0  0  0  0  0  0  0  0  0  0  0
    8.9170    0.7530   21.0260 O   0  0  0  0  0  0  0  0  0  0  0  0
   13.8840   -1.8490   21.2740 Cl  0  0  0  0  0  0  0  0  0  0  0  0
    2.6416    3.2618   20.1782 H   0  0  0  0  0  0  0  0  0  0  0  0
    3.7700    2.3549   22.1889 H   0  0  0  0  0  0  0  0  0  0  0  0
   12.2249    1.2198   24.6546 H   0  0  0  0  0  0  0  0  0  0  0  0
    3.3499    2.5485   17.9264 H   0  0  0  0  0  0  0  0  0  0  0  0
    5.5995    0.7430   21.9693 H   0  0  0  0  0  0  0  0  0  0  0  0
    9.8763    0.5350   24.3454 H   0  0  0  0  0  0  0  0  0  0  0  0
   14.0077    0.1988   23.2842 H   0  0  0  0  0  0  0  0  0  0  0  0
   11.0892   -2.3009   21.3624 H   0  0  0  0  0  0  0  0  0  0  0  0
    4.8951    1.1342   16.4819 H   0  0  0  0  0  0  0  0  0  0  0  0
    7.7466   -1.2985   18.1480 H   0  0  0  0  0  0  0  0  0  0  0  0
    9.2798   -3.3236   22.7827 H   0  0  0  0  0  0  0  0  0  0  0  0
    8.9582   -2.9048   21.1102 H   0  0  0  0  0  0  0  0  0  0  0  0
    8.2485   -0.9526   23.3299 H   0  0  0  0  0  0  0  0  0  0  0  0
    6.8977   -1.6596   21.0716 H   0  0  0  0  0  0  0  0  0  0  0  0
  1 18  1  0  0  0  0
  1 20  3  0  0  0  0
  2  3  1  0  0  0  0
  2  5  2  0  0  0  0
  3  6  2  0  0  0  0
  4  7  2  0  0  0  0
  4  8  1  0  0  0  0
  5 12  1  0  0  0  0
  6 13  1  0  0  0  0
  7 14  1  0  0  0  0
  8 16  2  0  0  0  0
  9 14  2  0  0  0  0
  9 16  1  0  0  0  0
 10 12  2  0  0  0  0
 10 21  1  0  0  0  0
 11 15  1  0  0  0  0
 11 21  2  0  0  0  0
 12 13  1  0  0  0  0
 13 15  2  0  0  0  0
 14 19  1  0  0  0  0
 15 22  1  0  0  0  0
 16 24  1  0  0  0  0
 17 19  1  1  0  0  0
 17 22  1  0  0  0  0
 17 23  2  0  0  0  0
 18 19  1  0  0  0  0
  2 25  1  0  0  0  0
  3 26  1  0  0  0  0
  4 27  1  0  0  0  0
  5 28  1  0  0  0  0
  6 29  1  0  0  0  0
  7 30  1  0  0  0  0
  8 31  1  0  0  0  0
  9 32  1  0  0  0  0
 10 33  1  0  0  0  0
 11 34  1  0  0  0  0
 18 35  1  0  0  0  0
 18 36  1  0  0  0  0
 19 37  1  0  0  0  0
 22 38  1  0  0  0  0
M  END
> <compound>
JOH-UNI-3fc3434e-6

> <compound_smiles>
c1ccc2c(c1)cncc2NC(=O)C(CC#N)c3cccc(c3)Cl

> <enantiomer_smiles>
c1ccc2c(c1)cncc2NC(=O)[C@@H](CC#N)c3cccc(c3)Cl

> <scaffold>
chlorobenzene-linker

> <clash_score>
0

> <docking_score>
-10.929441452026367

> <overlap_score>
0.9907922148704529

> <MMFF_internal_energy>
104.13124520199865

> <docked_smiles>
c1ccc2c(c1)cncc2NC(=O)[C@@H](CC#N)c3cccc(c3)Cl

$$$$
JOH-UNI-3fc3434e-11_1
  -OEChem-07262101023D

 40 42  0     0  0  0  0  0  0999 V2000
    3.4528    2.5386   20.1354 C   0  0  0  0  0  0  0  0  0  0  0  0
    4.0985    2.0135   21.2523 C   0  0  0  0  0  0  0  0  0  0  0  0
   11.9780    0.4600   23.9150 C   0  0  0  0  0  0  0  0  0  0  0  0
    3.8461    2.1507   18.8548 C   0  0  0  0  0  0  0  0  0  0  0  0
    5.1404    1.0981   21.0938 C   0  0  0  0  0  0  0  0  0  0  0  0
   10.6560    0.0720   23.7350 C   0  0  0  0  0  0  0  0  0  0  0  0
   12.9840   -0.1200   23.1530 C   0  0  0  0  0  0  0  0  0  0  0  0
   11.3360   -1.5050   22.0650 C   0  0  0  0  0  0  0  0  0  0  0  0
    5.3273    0.8073   17.4254 C   0  0  0  0  0  0  0  0  0  0  0  0
    4.8932    1.2301   18.6834 C   0  0  0  0  0  0  0  0  0  0  0  0
    5.5494    0.6962   19.8117 C   0  0  0  0  0  0  0  0  0  0  0  0
   10.3220   -0.8940   22.7910 C   0  0  0  0  0  0  0  0  0  0  0  0
    6.5903   -0.2196   19.6196 C   0  0  0  0  0  0  0  0  0  0  0  0
   12.6400   -1.1000   22.2390 C   0  0  0  0  0  0  0  0  0  0  0  0
    6.9352   -0.5659   18.3221 C   0  0  0  0  0  0  0  0  0  0  0  0
    8.3880   -0.3240   21.3070 C   0  0  0  0  0  0  0  0  0  0  0  0
    8.8810   -1.1900   22.4510 C   0  0  0  0  0  0  0  0  0  0  0  0
    8.0399   -1.5398   18.0638 C   0  0  0  0  0  0  0  0  0  0  0  0
    8.0685   -2.0285   16.6258 C   0  0  0  0  0  0  0  0  0  0  0  0
    6.3303   -0.0758   17.2191 N   0  0  0  0  0  0  0  0  0  0  0  0
    7.2820   -0.7860   20.6970 N   0  0  0  0  0  0  0  0  0  0  0  0
    8.9170    0.7530   21.0260 O   0  0  0  0  0  0  0  0  0  0  0  0
    6.9323   -2.6989   16.3278 F   0  0  0  0  0  0  0  0  0  0  0  0
    9.1029   -2.8684   16.4094 F   0  0  0  0  0  0  0  0  0  0  0  0
    8.1729   -1.0013   15.7559 F   0  0  0  0  0  0  0  0  0  0  0  0
   13.8840   -1.8490   21.2740 Cl  0  0  0  0  0  0  0  0  0  0  0  0
    2.6426    3.2508   20.2616 H   0  0  0  0  0  0  0  0  0  0  0  0
    3.7909    2.3170   22.2489 H   0  0  0  0  0  0  0  0  0  0  0  0
   12.2249    1.2198   24.6546 H   0  0  0  0  0  0  0  0  0  0  0  0
    3.3313    2.5704   17.9936 H   0  0  0  0  0  0  0  0  0  0  0  0
    5.6190    0.7114   21.9905 H   0  0  0  0  0  0  0  0  0  0  0  0
    9.8763    0.5350   24.3454 H   0  0  0  0  0  0  0  0  0  0  0  0
   14.0077    0.1988   23.2842 H   0  0  0  0  0  0  0  0  0  0  0  0
   11.0892   -2.3008   21.3624 H   0  0  0  0  0  0  0  0  0  0  0  0
    4.8649    1.1795   16.5153 H   0  0  0  0  0  0  0  0  0  0  0  0
    8.7774   -2.2383   22.1732 H   0  0  0  0  0  0  0  0  0  0  0  0
    8.2557   -1.0153   23.3257 H   0  0  0  0  0  0  0  0  0  0  0  0
    7.9460   -2.4052   18.7373 H   0  0  0  0  0  0  0  0  0  0  0  0
    9.0108   -1.0834   18.3091 H   0  0  0  0  0  0  0  0  0  0  0  0
    6.8980   -1.6610   21.0666 H   0  0  0  0  0  0  0  0  0  0  0  0
  1  2  1  0  0  0  0
  1  4  2  0  0  0  0
  2  5  2  0  0  0  0
  3  6  2  0  0  0  0
  3  7  1  0  0  0  0
  4 10  1  0  0  0  0
  5 11  1  0  0  0  0
  6 12  1  0  0  0  0
  7 14  2  0  0  0  0
  8 12  2  0  0  0  0
  8 14  1  0  0  0  0
  9 10  2  0  0  0  0
  9 20  1  0  0  0  0
 10 11  1  0  0  0  0
 11 13  2  0  0  0  0
 12 17  1  0  0  0  0
 13 15  1  0  0  0  0
 13 21  1  0  0  0  0
 14 26  1  0  0  0  0
 15 18  1  0  0  0  0
 15 20  2  0  0  0  0
 16 17  1  0  0  0  0
 16 21  1  0  0  0  0
 16 22  2  0  0  0  0
 18 19  1  0  0  0  0
 19 23  1  0  0  0  0
 19 24  1  0  0  0  0
 19 25  1  0  0  0  0
  1 27  1  0  0  0  0
  2 28  1  0  0  0  0
  3 29  1  0  0  0  0
  4 30  1  0  0  0  0
  5 31  1  0  0  0  0
  6 32  1  0  0  0  0
  7 33  1  0  0  0  0
  8 34  1  0  0  0  0
  9 35  1  0  0  0  0
 17 36  1  0  0  0  0
 17 37  1  0  0  0  0
 18 38  1  0  0  0  0
 18 39  1  0  0  0  0
 21 40  1  0  0  0  0
M  END
> <compound>
JOH-UNI-3fc3434e-11

> <compound_smiles>
c1ccc2c(c1)cnc(c2NC(=O)Cc3cccc(c3)Cl)CC(F)(F)F

> <enantiomer_smiles>
c1ccc2c(c1)cnc(c2NC(=O)Cc3cccc(c3)Cl)CC(F)(F)F

> <scaffold>
chlorobenzene-linker

> <clash_score>
3.070890762057512

> <docking_score>
-7.650376319885254

> <overlap_score>
0.9834569692611694

> <MMFF_internal_energy>
105.82656988571013

> <docked_smiles>
c1ccc2c(c1)cnc(c2NC(=O)Cc3cccc(c3)Cl)CC(F)(F)F

$$$$
RAL-THA-2d450e86-20_1
  -OEChem-07262101023D

 37 39  0     0  0  0  0  0  0999 V2000
    4.8624    3.6148   19.7221 C   0  0  0  0  0  0  0  0  0  0  0  0
    5.5348    3.1330   20.8427 C   0  0  0  0  0  0  0  0  0  0  0  0
   11.9780    0.4600   23.9150 C   0  0  0  0  0  0  0  0  0  0  0  0
    4.7639    2.8279   18.5748 C   0  0  0  0  0  0  0  0  0  0  0  0
    6.1120    1.8621   20.8212 C   0  0  0  0  0  0  0  0  0  0  0  0
   10.6560    0.0720   23.7350 C   0  0  0  0  0  0  0  0  0  0  0  0
   12.9840   -0.1200   23.1530 C   0  0  0  0  0  0  0  0  0  0  0  0
    5.2724    0.7181   17.4208 C   0  0  0  0  0  0  0  0  0  0  0  0
    6.4587   -0.9561   18.4527 C   0  0  0  0  0  0  0  0  0  0  0  0
    5.3407    1.5475   18.5420 C   0  0  0  0  0  0  0  0  0  0  0  0
    6.0224    1.0562   19.6745 C   0  0  0  0  0  0  0  0  0  0  0  0
   10.3220   -0.8940   22.7910 C   0  0  0  0  0  0  0  0  0  0  0  0
   11.3360   -1.5050   22.0650 C   0  0  0  0  0  0  0  0  0  0  0  0
    6.5902   -0.2221   19.6216 C   0  0  0  0  0  0  0  0  0  0  0  0
   12.6400   -1.1000   22.2390 C   0  0  0  0  0  0  0  0  0  0  0  0
    8.3880   -0.3240   21.3070 C   0  0  0  0  0  0  0  0  0  0  0  0
   10.9880   -2.5995   21.1010 C   0  0  0  0  0  0  0  0  0  0  0  0
    8.8810   -1.1900   22.4510 C   0  0  0  0  0  0  0  0  0  0  0  0
    5.8141   -0.5188   17.3500 N   0  0  0  0  0  0  0  0  0  0  0  0
    7.2820   -0.7860   20.6970 N   0  0  0  0  0  0  0  0  0  0  0  0
    8.9170    0.7530   21.0260 O   0  0  0  0  0  0  0  0  0  0  0  0
   13.8840   -1.8490   21.2740 Cl  0  0  0  0  0  0  0  0  0  0  0  0
    4.4141    4.6038   19.7417 H   0  0  0  0  0  0  0  0  0  0  0  0
    5.6102    3.7474   21.7354 H   0  0  0  0  0  0  0  0  0  0  0  0
   12.2253    1.2198   24.6544 H   0  0  0  0  0  0  0  0  0  0  0  0
    4.2352    3.2195   17.7088 H   0  0  0  0  0  0  0  0  0  0  0  0
    6.6291    1.5215   21.7152 H   0  0  0  0  0  0  0  0  0  0  0  0
    9.8773    0.5359   24.3459 H   0  0  0  0  0  0  0  0  0  0  0  0
   14.0068    0.2005   23.2856 H   0  0  0  0  0  0  0  0  0  0  0  0
    4.7622    1.0349   16.5153 H   0  0  0  0  0  0  0  0  0  0  0  0
    6.8808   -1.9530   18.3618 H   0  0  0  0  0  0  0  0  0  0  0  0
   10.7854   -2.1785   20.1108 H   0  0  0  0  0  0  0  0  0  0  0  0
   11.8087   -3.3206   21.0163 H   0  0  0  0  0  0  0  0  0  0  0  0
   10.1045   -3.1548   21.4356 H   0  0  0  0  0  0  0  0  0  0  0  0
    8.7775   -2.2383   22.1732 H   0  0  0  0  0  0  0  0  0  0  0  0
    8.2557   -1.0153   23.3257 H   0  0  0  0  0  0  0  0  0  0  0  0
    6.8981   -1.6619   21.0675 H   0  0  0  0  0  0  0  0  0  0  0  0
  1  2  1  0  0  0  0
  1  4  2  0  0  0  0
  2  5  2  0  0  0  0
  3  6  1  0  0  0  0
  3  7  2  0  0  0  0
  4 10  1  0  0  0  0
  5 11  1  0  0  0  0
  6 12  2  0  0  0  0
  7 15  1  0  0  0  0
  8 10  2  0  0  0  0
  8 19  1  0  0  0  0
  9 14  1  0  0  0  0
  9 19  2  0  0  0  0
 10 11  1  0  0  0  0
 11 14  2  0  0  0  0
 12 13  1  0  0  0  0
 12 18  1  0  0  0  0
 13 15  2  0  0  0  0
 13 17  1  0  0  0  0
 14 20  1  0  0  0  0
 15 22  1  0  0  0  0
 16 18  1  0  0  0  0
 16 20  1  0  0  0  0
 16 21  2  0  0  0  0
  1 23  1  0  0  0  0
  2 24  1  0  0  0  0
  3 25  1  0  0  0  0
  4 26  1  0  0  0  0
  5 27  1  0  0  0  0
  6 28  1  0  0  0  0
  7 29  1  0  0  0  0
  8 30  1  0  0  0  0
  9 31  1  0  0  0  0
 17 32  1  0  0  0  0
 17 33  1  0  0  0  0
 17 34  1  0  0  0  0
 18 35  1  0  0  0  0
 18 36  1  0  0  0  0
 20 37  1  0  0  0  0
M  END
> <compound>
RAL-THA-2d450e86-20

> <compound_smiles>
Cc1c(cccc1Cl)CC(=O)Nc2cncc3c2cccc3

> <enantiomer_smiles>
Cc1c(cccc1Cl)CC(=O)Nc2cncc3c2cccc3

> <scaffold>
chlorobenzene-linker

> <clash_score>
0.6448568279069334

> <docking_score>
-5.070708751678467

> <overlap_score>
0.8517707586288452

> <MMFF_internal_energy>
109.06488207443546

> <docked_smiles>
Cc1c(cccc1Cl)CC(=O)Nc2cncc3c2cccc3

$$$$
NIR-THE-590dedc7-1_1
  -OEChem-07262101023D

 54 57  0     1  0  0  0  0  0999 V2000
    3.4588    2.5718   20.0554 C   0  0  0  0  0  0  0  0  0  0  0  0
    4.0835    2.0505   21.1859 C   0  0  0  0  0  0  0  0  0  0  0  0
   11.9780    0.4600   23.9150 C   0  0  0  0  0  0  0  0  0  0  0  0
    3.8711    2.1742   18.7837 C   0  0  0  0  0  0  0  0  0  0  0  0
    5.1234    1.1291   21.0499 C   0  0  0  0  0  0  0  0  0  0  0  0
   10.6560    0.0720   23.7350 C   0  0  0  0  0  0  0  0  0  0  0  0
   12.9840   -0.1200   23.1530 C   0  0  0  0  0  0  0  0  0  0  0  0
   11.3360   -1.5050   22.0650 C   0  0  0  0  0  0  0  0  0  0  0  0
    5.3689    0.8151   17.3870 C   0  0  0  0  0  0  0  0  0  0  0  0
    6.9552   -0.5603   18.3181 C   0  0  0  0  0  0  0  0  0  0  0  0
    4.9163    1.2476   18.6351 C   0  0  0  0  0  0  0  0  0  0  0  0
    5.5514    0.7175   19.7772 C   0  0  0  0  0  0  0  0  0  0  0  0
   10.3220   -0.8940   22.7910 C   0  0  0  0  0  0  0  0  0  0  0  0
    6.5908   -0.2044   19.6077 C   0  0  0  0  0  0  0  0  0  0  0  0
   12.6400   -1.1000   22.2390 C   0  0  0  0  0  0  0  0  0  0  0  0
   10.0549   -6.3970   20.9567 C   0  0  0  0  0  0  0  0  0  0  0  0
    8.3880   -0.3240   21.3070 C   0  0  0  0  0  0  0  0  0  0  0  0
    9.0070   -5.0039   22.7124 C   0  0  0  0  0  0  0  0  0  0  0  0
    8.6216   -4.3830   20.3588 C   0  0  0  0  0  0  0  0  0  0  0  0
    9.3715   -3.5664   23.0534 C   0  0  0  0  0  0  0  0  0  0  0  0
    8.9788   -2.9348   20.6651 C   0  0  0  0  0  0  0  0  0  0  0  0
   10.8601   -6.2818   19.6870 C   0  0  0  0  0  0  0  0  0  0  0  0
    8.8810   -1.1900   22.4510 C   0  0  1  0  0  0  0  0  0  0  0  0
    6.3708   -0.0740   17.2025 N   0  0  0  0  0  0  0  0  0  0  0  0
    9.2756   -5.2944   21.3040 N   0  0  0  0  0  0  0  0  0  0  0  0
    7.2820   -0.7860   20.6970 N   0  0  0  0  0  0  0  0  0  0  0  0
    8.6433   -2.6361   22.1092 N   0  3  0  0  0  0  0  0  0  0  0  0
   10.1200   -7.4353   21.6198 O   0  0  0  0  0  0  0  0  0  0  0  0
    8.9170    0.7530   21.0260 O   0  0  0  0  0  0  0  0  0  0  0  0
   13.8840   -1.8490   21.2740 Cl  0  0  0  0  0  0  0  0  0  0  0  0
    2.6499    3.2883   20.1641 H   0  0  0  0  0  0  0  0  0  0  0  0
    3.7607    2.3613   22.1754 H   0  0  0  0  0  0  0  0  0  0  0  0
   12.2249    1.2198   24.6546 H   0  0  0  0  0  0  0  0  0  0  0  0
    3.3723    2.5910   17.9118 H   0  0  0  0  0  0  0  0  0  0  0  0
    5.5866    0.7453   21.9560 H   0  0  0  0  0  0  0  0  0  0  0  0
    9.8763    0.5350   24.3454 H   0  0  0  0  0  0  0  0  0  0  0  0
   14.0077    0.1988   23.2842 H   0  0  0  0  0  0  0  0  0  0  0  0
   11.0892   -2.3009   21.3624 H   0  0  0  0  0  0  0  0  0  0  0  0
    4.9234    1.1835   16.4670 H   0  0  0  0  0  0  0  0  0  0  0  0
    7.7549   -1.2720   18.1337 H   0  0  0  0  0  0  0  0  0  0  0  0
    9.5635   -5.6862   23.3626 H   0  0  0  0  0  0  0  0  0  0  0  0
    7.9398   -5.1861   22.8884 H   0  0  0  0  0  0  0  0  0  0  0  0
    7.5401   -4.5410   20.4502 H   0  0  0  0  0  0  0  0  0  0  0  0
    8.8907   -4.6064   19.3251 H   0  0  0  0  0  0  0  0  0  0  0  0
    9.0502   -3.3169   24.0698 H   0  0  0  0  0  0  0  0  0  0  0  0
   10.4461   -3.3790   22.9490 H   0  0  0  0  0  0  0  0  0  0  0  0
   10.0464   -2.7357   20.5193 H   0  0  0  0  0  0  0  0  0  0  0  0
    8.3881   -2.2524   20.0453 H   0  0  0  0  0  0  0  0  0  0  0  0
   11.8351   -5.8674   19.9214 H   0  0  0  0  0  0  0  0  0  0  0  0
   10.3379   -5.6313   18.9927 H   0  0  0  0  0  0  0  0  0  0  0  0
   10.9720   -7.2674   19.2469 H   0  0  0  0  0  0  0  0  0  0  0  0
    8.2445   -1.0188   23.3300 H   0  0  0  0  0  0  0  0  0  0  0  0
    6.8974   -1.6551   21.0612 H   0  0  0  0  0  0  0  0  0  0  0  0
    7.6346   -2.8016   22.2306 H   0  0  0  0  0  0  0  0  0  0  0  0
  1  2  1  0  0  0  0
  1  4  2  0  0  0  0
  2  5  2  0  0  0  0
  3  6  2  0  0  0  0
  3  7  1  0  0  0  0
  4 11  1  0  0  0  0
  5 12  1  0  0  0  0
  6 13  1  0  0  0  0
  7 15  2  0  0  0  0
  8 13  2  0  0  0  0
  8 15  1  0  0  0  0
  9 11  2  0  0  0  0
  9 24  1  0  0  0  0
 10 14  1  0  0  0  0
 10 24  2  0  0  0  0
 11 12  1  0  0  0  0
 12 14  2  0  0  0  0
 13 23  1  0  0  0  0
 14 26  1  0  0  0  0
 15 30  1  0  0  0  0
 16 22  1  0  0  0  0
 16 25  1  0  0  0  0
 16 28  2  0  0  0  0
 17 23  1  1  0  0  0
 17 26  1  0  0  0  0
 17 29  2  0  0  0  0
 18 20  1  0  0  0  0
 18 25  1  0  0  0  0
 19 21  1  0  0  0  0
 19 25  1  0  0  0  0
 20 27  1  0  0  0  0
 21 27  1  0  0  0  0
 23 27  1  0  0  0  0
  1 31  1  0  0  0  0
  2 32  1  0  0  0  0
  3 33  1  0  0  0  0
  4 34  1  0  0  0  0
  5 35  1  0  0  0  0
  6 36  1  0  0  0  0
  7 37  1  0  0  0  0
  8 38  1  0  0  0  0
  9 39  1  0  0  0  0
 10 40  1  0  0  0  0
 18 41  1  0  0  0  0
 18 42  1  0  0  0  0
 19 43  1  0  0  0  0
 19 44  1  0  0  0  0
 20 45  1  0  0  0  0
 20 46  1  0  0  0  0
 21 47  1  0  0  0  0
 21 48  1  0  0  0  0
 22 49  1  0  0  0  0
 22 50  1  0  0  0  0
 22 51  1  0  0  0  0
 23 52  1  0  0  0  0
 26 53  1  0  0  0  0
 27 54  1  0  0  0  0
M  CHG  1  27   1
M  END
> <compound>
NIR-THE-590dedc7-1

> <compound_smiles>
CC(=O)N1CCN(CC1)C(c2cccc(c2)Cl)C(=O)Nc3cncc4c3cccc4

> <enantiomer_smiles>
CC(=O)N1CCN(CC1)[C@@H](c2cccc(c2)Cl)C(=O)Nc3cncc4c3cccc4

> <scaffold>
chlorobenzene-linker

> <clash_score>
4.8796285249287905

> <docking_score>
-3.913654327392578

> <overlap_score>
0.9816785454750061

> <MMFF_internal_energy>
263.5182084982723

> <docked_smiles>
CC(=O)N1CC[NH+](CC1)[C@@H](c2cccc(c2)Cl)C(=O)Nc3cncc4c3cccc4

$$$$
NIR-THE-590dedc7-1_2
  -OEChem-07262101023D

 54 57  0     1  0  0  0  0  0999 V2000
    4.8867    3.6427   19.7211 C   0  0  0  0  0  0  0  0  0  0  0  0
    5.5503    3.1504   20.8424 C   0  0  0  0  0  0  0  0  0  0  0  0
   11.9780    0.4600   23.9150 C   0  0  0  0  0  0  0  0  0  0  0  0
    4.7892    2.8630   18.5689 C   0  0  0  0  0  0  0  0  0  0  0  0
    6.1195    1.8760   20.8166 C   0  0  0  0  0  0  0  0  0  0  0  0
   10.6560    0.0720   23.7350 C   0  0  0  0  0  0  0  0  0  0  0  0
   12.9840   -0.1200   23.1530 C   0  0  0  0  0  0  0  0  0  0  0  0
   11.3360   -1.5050   22.0650 C   0  0  0  0  0  0  0  0  0  0  0  0
    5.2903    0.7565   17.4056 C   0  0  0  0  0  0  0  0  0  0  0  0
    6.4606   -0.9310   18.4340 C   0  0  0  0  0  0  0  0  0  0  0  0
    5.3581    1.5791   18.5317 C   0  0  0  0  0  0  0  0  0  0  0  0
    6.0308    1.0771   19.6649 C   0  0  0  0  0  0  0  0  0  0  0  0
   10.3220   -0.8940   22.7910 C   0  0  0  0  0  0  0  0  0  0  0  0
    6.5908   -0.2044   19.6077 C   0  0  0  0  0  0  0  0  0  0  0  0
   12.6400   -1.1000   22.2390 C   0  0  0  0  0  0  0  0  0  0  0  0
    5.7962   -4.3865   24.9643 C   0  0  0  0  0  0  0  0  0  0  0  0
    8.3880   -0.3240   21.3070 C   0  0  0  0  0  0  0  0  0  0  0  0
    8.0052   -3.3291   24.6209 C   0  0  0  0  0  0  0  0  0  0  0  0
    6.1613   -2.6840   23.1117 C   0  0  0  0  0  0  0  0  0  0  0  0
    8.3675   -1.8667   24.8344 C   0  0  0  0  0  0  0  0  0  0  0  0
    6.5005   -1.2117   23.3026 C   0  0  0  0  0  0  0  0  0  0  0  0
    6.4871   -5.6065   25.5195 C   0  0  0  0  0  0  0  0  0  0  0  0
    8.8810   -1.1900   22.4510 C   0  0  2  0  0  0  0  0  0  0  0  0
    5.8245   -0.4834   17.3305 N   0  0  0  0  0  0  0  0  0  0  0  0
    6.5936   -3.4798   24.2660 N   0  0  0  0  0  0  0  0  0  0  0  0
    7.2820   -0.7860   20.6970 N   0  0  0  0  0  0  0  0  0  0  0  0
    7.9638   -1.0391   23.6364 N   0  3  0  0  0  0  0  0  0  0  0  0
    4.5838   -4.2466   25.1446 O   0  0  0  0  0  0  0  0  0  0  0  0
    8.9170    0.7530   21.0260 O   0  0  0  0  0  0  0  0  0  0  0  0
   13.8840   -1.8490   21.2740 Cl  0  0  0  0  0  0  0  0  0  0  0  0
    4.4446    4.6344   19.7440 H   0  0  0  0  0  0  0  0  0  0  0  0
    5.6249    3.7592   21.7389 H   0  0  0  0  0  0  0  0  0  0  0  0
   12.2249    1.2198   24.6546 H   0  0  0  0  0  0  0  0  0  0  0  0
    4.2674    3.2627   17.7024 H   0  0  0  0  0  0  0  0  0  0  0  0
    6.6299    1.5271   21.7114 H   0  0  0  0  0  0  0  0  0  0  0  0
    9.8763    0.5350   24.3454 H   0  0  0  0  0  0  0  0  0  0  0  0
   14.0077    0.1988   23.2842 H   0  0  0  0  0  0  0  0  0  0  0  0
   11.0892   -2.3009   21.3624 H   0  0  0  0  0  0  0  0  0  0  0  0
    4.7868    1.0816   16.4993 H   0  0  0  0  0  0  0  0  0  0  0  0
    6.8769   -1.9300   18.3396 H   0  0  0  0  0  0  0  0  0  0  0  0
    8.6483   -3.7552   23.8433 H   0  0  0  0  0  0  0  0  0  0  0  0
    8.1780   -3.9096   25.5363 H   0  0  0  0  0  0  0  0  0  0  0  0
    5.0769   -2.8200   23.0112 H   0  0  0  0  0  0  0  0  0  0  0  0
    6.6130   -3.0369   22.1820 H   0  0  0  0  0  0  0  0  0  0  0  0
    7.8330   -1.4598   25.7071 H   0  0  0  0  0  0  0  0  0  0  0  0
    9.4509   -1.7304   24.9876 H   0  0  0  0  0  0  0  0  0  0  0  0
    6.2909   -0.6221   22.3947 H   0  0  0  0  0  0  0  0  0  0  0  0
    5.9231   -0.7887   24.1397 H   0  0  0  0  0  0  0  0  0  0  0  0
    6.8398   -5.3891   26.5223 H   0  0  0  0  0  0  0  0  0  0  0  0
    7.3250   -5.8628   24.8791 H   0  0  0  0  0  0  0  0  0  0  0  0
    5.7835   -6.4324   25.5445 H   0  0  0  0  0  0  0  0  0  0  0  0
    8.7698   -2.2472   22.1731 H   0  0  0  0  0  0  0  0  0  0  0  0
    6.8974   -1.6551   21.0612 H   0  0  0  0  0  0  0  0  0  0  0  0
    8.0693   -0.0280   23.9392 H   0  0  0  0  0  0  0  0  0  0  0  0
  1  2  1  0  0  0  0
  1  4  2  0  0  0  0
  2  5  2  0  0  0  0
  3  6  2  0  0  0  0
  3  7  1  0  0  0  0
  4 11  1  0  0  0  0
  5 12  1  0  0  0  0
  6 13  1  0  0  0  0
  7 15  2  0  0  0  0
  8 13  2  0  0  0  0
  8 15  1  0  0  0  0
  9 11  2  0  0  0  0
  9 24  1  0  0  0  0
 10 14  1  0  0  0  0
 10 24  2  0  0  0  0
 11 12  1  0  0  0  0
 12 14  2  0  0  0  0
 13 23  1  0  0  0  0
 14 26  1  0  0  0  0
 15 30  1  0  0  0  0
 16 22  1  0  0  0  0
 16 25  1  0  0  0  0
 16 28  2  0  0  0  0
 17 23  1  6  0  0  0
 17 26  1  0  0  0  0
 17 29  2  0  0  0  0
 18 20  1  0  0  0  0
 18 25  1  0  0  0  0
 19 21  1  0  0  0  0
 19 25  1  0  0  0  0
 20 27  1  0  0  0  0
 21 27  1  0  0  0  0
 23 27  1  0  0  0  0
  1 31  1  0  0  0  0
  2 32  1  0  0  0  0
  3 33  1  0  0  0  0
  4 34  1  0  0  0  0
  5 35  1  0  0  0  0
  6 36  1  0  0  0  0
  7 37  1  0  0  0  0
  8 38  1  0  0  0  0
  9 39  1  0  0  0  0
 10 40  1  0  0  0  0
 18 41  1  0  0  0  0
 18 42  1  0  0  0  0
 19 43  1  0  0  0  0
 19 44  1  0  0  0  0
 20 45  1  0  0  0  0
 20 46  1  0  0  0  0
 21 47  1  0  0  0  0
 21 48  1  0  0  0  0
 22 49  1  0  0  0  0
 22 50  1  0  0  0  0
 22 51  1  0  0  0  0
 23 52  1  0  0  0  0
 26 53  1  0  0  0  0
 27 54  1  0  0  0  0
M  CHG  1  27   1
M  END
> <compound>
NIR-THE-590dedc7-1

> <compound_smiles>
CC(=O)N1CCN(CC1)C(c2cccc(c2)Cl)C(=O)Nc3cncc4c3cccc4

> <enantiomer_smiles>
CC(=O)N1CCN(CC1)[C@H](c2cccc(c2)Cl)C(=O)Nc3cncc4c3cccc4

> <scaffold>
chlorobenzene-linker

> <clash_score>
0.6532360200676584

> <docking_score>
-5.196829319000244

> <overlap_score>
0.8409225344657898

> <MMFF_internal_energy>
230.78253658986426

> <docked_smiles>
CC(=O)N1CC[NH+](CC1)[C@H](c2cccc(c2)Cl)C(=O)Nc3cncc4c3cccc4

$$$$
RAL-THA-2d450e86-22_1
  -OEChem-07262101023D

 38 40  0     0  0  0  0  0  0999 V2000
    2.5585    0.9711   19.8178 C   0  0  0  0  0  0  0  0  0  0  0  0
    3.1681    0.4176   20.9412 C   0  0  0  0  0  0  0  0  0  0  0  0
   11.9780    0.4600   23.9150 C   0  0  0  0  0  0  0  0  0  0  0  0
    3.2826    1.1278   18.6361 C   0  0  0  0  0  0  0  0  0  0  0  0
    4.5047    0.0183   20.8882 C   0  0  0  0  0  0  0  0  0  0  0  0
   10.6560    0.0720   23.7350 C   0  0  0  0  0  0  0  0  0  0  0  0
   12.9840   -0.1200   23.1530 C   0  0  0  0  0  0  0  0  0  0  0  0
    5.3994    0.8631   17.4152 C   0  0  0  0  0  0  0  0  0  0  0  0
    7.2567   -0.0408   18.4193 C   0  0  0  0  0  0  0  0  0  0  0  0
    4.6280    0.7293   18.5713 C   0  0  0  0  0  0  0  0  0  0  0  0
    5.2489    0.1685   19.7066 C   0  0  0  0  0  0  0  0  0  0  0  0
   10.3220   -0.8940   22.7910 C   0  0  0  0  0  0  0  0  0  0  0  0
    6.5902   -0.2221   19.6216 C   0  0  0  0  0  0  0  0  0  0  0  0
   11.3360   -1.5050   22.0650 C   0  0  0  0  0  0  0  0  0  0  0  0
   12.6400   -1.1000   22.2390 C   0  0  0  0  0  0  0  0  0  0  0  0
    8.3880   -0.3240   21.3070 C   0  0  0  0  0  0  0  0  0  0  0  0
   10.7305   -2.1144   19.8466 C   0  0  0  0  0  0  0  0  0  0  0  0
    8.8810   -1.1900   22.4510 C   0  0  0  0  0  0  0  0  0  0  0  0
    6.6956    0.4921   17.3130 N   0  0  0  0  0  0  0  0  0  0  0  0
    7.2820   -0.7860   20.6970 N   0  0  0  0  0  0  0  0  0  0  0  0
    8.9170    0.7530   21.0260 O   0  0  0  0  0  0  0  0  0  0  0  0
   11.0227   -2.5039   21.1861 O   0  0  0  0  0  0  0  0  0  0  0  0
   13.8840   -1.8490   21.2740 Cl  0  0  0  0  0  0  0  0  0  0  0  0
    1.5184    1.2808   19.8618 H   0  0  0  0  0  0  0  0  0  0  0  0
    2.6023    0.2963   21.8605 H   0  0  0  0  0  0  0  0  0  0  0  0
   12.2258    1.2199   24.6540 H   0  0  0  0  0  0  0  0  0  0  0  0
    2.7911    1.5616   17.7683 H   0  0  0  0  0  0  0  0  0  0  0  0
    4.9455   -0.4089   21.7860 H   0  0  0  0  0  0  0  0  0  0  0  0
    9.8767    0.5347   24.3460 H   0  0  0  0  0  0  0  0  0  0  0  0
   14.0072    0.1991   23.2856 H   0  0  0  0  0  0  0  0  0  0  0  0
    4.9829    1.2869   16.5055 H   0  0  0  0  0  0  0  0  0  0  0  0
    8.2978   -0.3282   18.3022 H   0  0  0  0  0  0  0  0  0  0  0  0
   10.5007   -3.0009   19.2505 H   0  0  0  0  0  0  0  0  0  0  0  0
   11.5908   -1.5901   19.4228 H   0  0  0  0  0  0  0  0  0  0  0  0
    9.8656   -1.4469   19.8512 H   0  0  0  0  0  0  0  0  0  0  0  0
    8.7775   -2.2383   22.1732 H   0  0  0  0  0  0  0  0  0  0  0  0
    8.2557   -1.0153   23.3257 H   0  0  0  0  0  0  0  0  0  0  0  0
    6.8981   -1.6619   21.0675 H   0  0  0  0  0  0  0  0  0  0  0  0
  1  2  1  0  0  0  0
  1  4  2  0  0  0  0
  2  5  2  0  0  0  0
  3  6  1  0  0  0  0
  3  7  2  0  0  0  0
  4 10  1  0  0  0  0
  5 11  1  0  0  0  0
  6 12  2  0  0  0  0
  7 15  1  0  0  0  0
  8 10  2  0  0  0  0
  8 19  1  0  0  0  0
  9 13  1  0  0  0  0
  9 19  2  0  0  0  0
 10 11  1  0  0  0  0
 11 13  2  0  0  0  0
 12 14  1  0  0  0  0
 12 18  1  0  0  0  0
 13 20  1  0  0  0  0
 14 15  2  0  0  0  0
 14 22  1  0  0  0  0
 15 23  1  0  0  0  0
 16 18  1  0  0  0  0
 16 20  1  0  0  0  0
 16 21  2  0  0  0  0
 17 22  1  0  0  0  0
  1 24  1  0  0  0  0
  2 25  1  0  0  0  0
  3 26  1  0  0  0  0
  4 27  1  0  0  0  0
  5 28  1  0  0  0  0
  6 29  1  0  0  0  0
  7 30  1  0  0  0  0
  8 31  1  0  0  0  0
  9 32  1  0  0  0  0
 17 33  1  0  0  0  0
 17 34  1  0  0  0  0
 17 35  1  0  0  0  0
 18 36  1  0  0  0  0
 18 37  1  0  0  0  0
 20 38  1  0  0  0  0
M  END
> <compound>
RAL-THA-2d450e86-22

> <compound_smiles>
COc1c(cccc1Cl)CC(=O)Nc2cncc3c2cccc3

> <enantiomer_smiles>
COc1c(cccc1Cl)CC(=O)Nc2cncc3c2cccc3

> <scaffold>
chlorobenzene-linker

> <clash_score>
1.481886147422598

> <docking_score>
-5.013383865356445

> <overlap_score>
0.907819926738739

> <MMFF_internal_energy>
114.72646939222788

> <docked_smiles>
COc1c(cccc1Cl)CC(=O)Nc2cncc3c2cccc3

$$$$
RAL-THA-2d450e86-21_1
  -OEChem-07262101023D

 35 37  0     0  0  0  0  0  0999 V2000
   11.0008   -2.5544   21.1414 C   0  0  0  0  0  0  0  0  0  0  0  0
    4.8624    3.6148   19.7221 C   0  0  0  0  0  0  0  0  0  0  0  0
    5.5348    3.1330   20.8427 C   0  0  0  0  0  0  0  0  0  0  0  0
   11.9780    0.4600   23.9150 C   0  0  0  0  0  0  0  0  0  0  0  0
    4.7639    2.8279   18.5748 C   0  0  0  0  0  0  0  0  0  0  0  0
    6.1120    1.8621   20.8212 C   0  0  0  0  0  0  0  0  0  0  0  0
   10.6560    0.0720   23.7350 C   0  0  0  0  0  0  0  0  0  0  0  0
   12.9840   -0.1200   23.1530 C   0  0  0  0  0  0  0  0  0  0  0  0
    5.2724    0.7181   17.4208 C   0  0  0  0  0  0  0  0  0  0  0  0
    6.4587   -0.9561   18.4527 C   0  0  0  0  0  0  0  0  0  0  0  0
   11.3360   -1.5050   22.0650 C   0  0  0  0  0  0  0  0  0  0  0  0
    5.3407    1.5475   18.5420 C   0  0  0  0  0  0  0  0  0  0  0  0
    6.0224    1.0562   19.6745 C   0  0  0  0  0  0  0  0  0  0  0  0
   10.3220   -0.8940   22.7910 C   0  0  0  0  0  0  0  0  0  0  0  0
    6.5902   -0.2221   19.6216 C   0  0  0  0  0  0  0  0  0  0  0  0
   12.6400   -1.1000   22.2390 C   0  0  0  0  0  0  0  0  0  0  0  0
    8.3880   -0.3240   21.3070 C   0  0  0  0  0  0  0  0  0  0  0  0
    8.8810   -1.1900   22.4510 C   0  0  0  0  0  0  0  0  0  0  0  0
   10.7334   -3.4018   20.3949 N   0  0  0  0  0  0  0  0  0  0  0  0
    5.8141   -0.5188   17.3500 N   0  0  0  0  0  0  0  0  0  0  0  0
    7.2820   -0.7860   20.6970 N   0  0  0  0  0  0  0  0  0  0  0  0
    8.9170    0.7530   21.0260 O   0  0  0  0  0  0  0  0  0  0  0  0
   13.8840   -1.8490   21.2740 Cl  0  0  0  0  0  0  0  0  0  0  0  0
    4.4141    4.6038   19.7417 H   0  0  0  0  0  0  0  0  0  0  0  0
    5.6102    3.7474   21.7354 H   0  0  0  0  0  0  0  0  0  0  0  0
   12.2252    1.2202   24.6541 H   0  0  0  0  0  0  0  0  0  0  0  0
    4.2352    3.2195   17.7088 H   0  0  0  0  0  0  0  0  0  0  0  0
    6.6291    1.5215   21.7152 H   0  0  0  0  0  0  0  0  0  0  0  0
    9.8778    0.5364   24.3462 H   0  0  0  0  0  0  0  0  0  0  0  0
   14.0067    0.2012   23.2863 H   0  0  0  0  0  0  0  0  0  0  0  0
    4.7622    1.0349   16.5153 H   0  0  0  0  0  0  0  0  0  0  0  0
    6.8808   -1.9530   18.3618 H   0  0  0  0  0  0  0  0  0  0  0  0
    8.7775   -2.2383   22.1732 H   0  0  0  0  0  0  0  0  0  0  0  0
    8.2557   -1.0153   23.3257 H   0  0  0  0  0  0  0  0  0  0  0  0
    6.8981   -1.6619   21.0675 H   0  0  0  0  0  0  0  0  0  0  0  0
  1 11  1  0  0  0  0
  1 19  3  0  0  0  0
  2  3  1  0  0  0  0
  2  5  2  0  0  0  0
  3  6  2  0  0  0  0
  4  7  2  0  0  0  0
  4  8  1  0  0  0  0
  5 12  1  0  0  0  0
  6 13  1  0  0  0  0
  7 14  1  0  0  0  0
  8 16  2  0  0  0  0
  9 12  2  0  0  0  0
  9 20  1  0  0  0  0
 10 15  1  0  0  0  0
 10 20  2  0  0  0  0
 11 14  2  0  0  0  0
 11 16  1  0  0  0  0
 12 13  1  0  0  0  0
 13 15  2  0  0  0  0
 14 18  1  0  0  0  0
 15 21  1  0  0  0  0
 16 23  1  0  0  0  0
 17 18  1  0  0  0  0
 17 21  1  0  0  0  0
 17 22  2  0  0  0  0
  2 24  1  0  0  0  0
  3 25  1  0  0  0  0
  4 26  1  0  0  0  0
  5 27  1  0  0  0  0
  6 28  1  0  0  0  0
  7 29  1  0  0  0  0
  8 30  1  0  0  0  0
  9 31  1  0  0  0  0
 10 32  1  0  0  0  0
 18 33  1  0  0  0  0
 18 34  1  0  0  0  0
 21 35  1  0  0  0  0
M  END
> <compound>
RAL-THA-2d450e86-21

> <compound_smiles>
c1ccc2c(c1)cncc2NC(=O)Cc3cccc(c3C#N)Cl

> <enantiomer_smiles>
c1ccc2c(c1)cncc2NC(=O)Cc3cccc(c3C#N)Cl

> <scaffold>
chlorobenzene-linker

> <clash_score>
1.9882756022991206

> <docking_score>
-3.8188014030456543

> <overlap_score>
0.8526511192321777

> <MMFF_internal_energy>
103.95856278206266

> <docked_smiles>
c1ccc2c(c1)cncc2NC(=O)Cc3cccc(c3C#N)Cl

$$$$
JOH-UNI-3fc3434e-7_2
  -OEChem-07262101023D

 41 43  0     1  0  0  0  0  0999 V2000
    7.6797    0.4012   23.9659 C   0  0  0  0  0  0  0  0  0  0  0  0
    3.6560    2.8112   20.4065 C   0  0  0  0  0  0  0  0  0  0  0  0
    4.2110    2.1114   21.4754 C   0  0  0  0  0  0  0  0  0  0  0  0
   11.9780    0.4600   23.9150 C   0  0  0  0  0  0  0  0  0  0  0  0
    4.0986    2.5669   19.1067 C   0  0  0  0  0  0  0  0  0  0  0  0
    5.2111    1.1641   21.2493 C   0  0  0  0  0  0  0  0  0  0  0  0
   10.6560    0.0720   23.7350 C   0  0  0  0  0  0  0  0  0  0  0  0
   12.9840   -0.1200   23.1530 C   0  0  0  0  0  0  0  0  0  0  0  0
   11.3360   -1.5050   22.0650 C   0  0  0  0  0  0  0  0  0  0  0  0
    5.5846    1.3317   17.5876 C   0  0  0  0  0  0  0  0  0  0  0  0
    7.0671   -0.2362   18.3742 C   0  0  0  0  0  0  0  0  0  0  0  0
    5.1043    1.6158   18.8675 C   0  0  0  0  0  0  0  0  0  0  0  0
    5.6687    0.9053   19.9470 C   0  0  0  0  0  0  0  0  0  0  0  0
   10.3220   -0.8940   22.7910 C   0  0  0  0  0  0  0  0  0  0  0  0
    6.6696   -0.0381   19.6877 C   0  0  0  0  0  0  0  0  0  0  0  0
   12.6400   -1.1000   22.2390 C   0  0  0  0  0  0  0  0  0  0  0  0
    8.3880   -0.3240   21.3070 C   0  0  0  0  0  0  0  0  0  0  0  0
    6.7140   -2.1040   21.1068 C   0  0  0  0  0  0  0  0  0  0  0  0
    8.0228   -1.0115   23.7330 C   0  0  0  0  0  0  0  0  0  0  0  0
    8.8810   -1.1900   22.4510 C   0  0  2  0  0  0  0  0  0  0  0  0
    7.4100    1.5146   24.1502 N   0  0  0  0  0  0  0  0  0  0  0  0
    6.5502    0.4247   17.3166 N   0  0  0  0  0  0  0  0  0  0  0  0
    7.2820   -0.7860   20.6970 N   0  0  0  0  0  0  0  0  0  0  0  0
    8.9170    0.7530   21.0260 O   0  0  0  0  0  0  0  0  0  0  0  0
   13.8840   -1.8490   21.2740 Cl  0  0  0  0  0  0  0  0  0  0  0  0
    2.8779    3.5475   20.5853 H   0  0  0  0  0  0  0  0  0  0  0  0
    3.8646    2.3031   22.4870 H   0  0  0  0  0  0  0  0  0  0  0  0
   12.2249    1.2198   24.6546 H   0  0  0  0  0  0  0  0  0  0  0  0
    3.6544    3.1221   18.2837 H   0  0  0  0  0  0  0  0  0  0  0  0
    5.6200    0.6389   22.1094 H   0  0  0  0  0  0  0  0  0  0  0  0
    9.8763    0.5350   24.3454 H   0  0  0  0  0  0  0  0  0  0  0  0
   14.0077    0.1988   23.2842 H   0  0  0  0  0  0  0  0  0  0  0  0
   11.0892   -2.3009   21.3624 H   0  0  0  0  0  0  0  0  0  0  0  0
    5.1932    1.8427   16.7122 H   0  0  0  0  0  0  0  0  0  0  0  0
    7.8392   -0.9572   18.1209 H   0  0  0  0  0  0  0  0  0  0  0  0
    7.1635   -2.9027   20.4985 H   0  0  0  0  0  0  0  0  0  0  0  0
    6.9349   -2.2839   22.1692 H   0  0  0  0  0  0  0  0  0  0  0  0
    5.6245   -2.0967   20.9550 H   0  0  0  0  0  0  0  0  0  0  0  0
    7.0891   -1.5821   23.6450 H   0  0  0  0  0  0  0  0  0  0  0  0
    8.5462   -1.4103   24.6109 H   0  0  0  0  0  0  0  0  0  0  0  0
    8.7768   -2.2494   22.1624 H   0  0  0  0  0  0  0  0  0  0  0  0
  1 19  1  0  0  0  0
  1 21  3  0  0  0  0
  2  3  1  0  0  0  0
  2  5  2  0  0  0  0
  3  6  2  0  0  0  0
  4  7  2  0  0  0  0
  4  8  1  0  0  0  0
  5 12  1  0  0  0  0
  6 13  1  0  0  0  0
  7 14  1  0  0  0  0
  8 16  2  0  0  0  0
  9 14  2  0  0  0  0
  9 16  1  0  0  0  0
 10 12  2  0  0  0  0
 10 22  1  0  0  0  0
 11 15  1  0  0  0  0
 11 22  2  0  0  0  0
 12 13  1  0  0  0  0
 13 15  2  0  0  0  0
 14 20  1  0  0  0  0
 15 23  1  0  0  0  0
 16 25  1  0  0  0  0
 17 20  1  6  0  0  0
 17 23  1  0  0  0  0
 17 24  2  0  0  0  0
 18 23  1  0  0  0  0
 19 20  1  0  0  0  0
  2 26  1  0  0  0  0
  3 27  1  0  0  0  0
  4 28  1  0  0  0  0
  5 29  1  0  0  0  0
  6 30  1  0  0  0  0
  7 31  1  0  0  0  0
  8 32  1  0  0  0  0
  9 33  1  0  0  0  0
 10 34  1  0  0  0  0
 11 35  1  0  0  0  0
 18 36  1  0  0  0  0
 18 37  1  0  0  0  0
 18 38  1  0  0  0  0
 19 39  1  0  0  0  0
 19 40  1  0  0  0  0
 20 41  1  0  0  0  0
M  END
> <compound>
JOH-UNI-3fc3434e-7

> <compound_smiles>
CN(c1cncc2c1cccc2)C(=O)C(CC#N)c3cccc(c3)Cl

> <enantiomer_smiles>
CN(c1cncc2c1cccc2)C(=O)[C@H](CC#N)c3cccc(c3)Cl

> <scaffold>
chlorobenzene-linker

> <clash_score>
0

> <docking_score>
-12.231719017028809

> <overlap_score>
1.0

> <MMFF_internal_energy>
127.08269808313752

> <docked_smiles>
CN(c1cncc2c1cccc2)C(=O)[C@H](CC#N)c3cccc(c3)Cl

$$$$
RAL-THA-2d450e86-19_1
  -OEChem-07262101023D

 34 36  0     0  0  0  0  0  0999 V2000
    4.8624    3.6148   19.7221 C   0  0  0  0  0  0  0  0  0  0  0  0
    5.5348    3.1330   20.8427 C   0  0  0  0  0  0  0  0  0  0  0  0
   11.9780    0.4600   23.9150 C   0  0  0  0  0  0  0  0  0  0  0  0
    4.7639    2.8279   18.5748 C   0  0  0  0  0  0  0  0  0  0  0  0
    6.1120    1.8621   20.8212 C   0  0  0  0  0  0  0  0  0  0  0  0
   10.6560    0.0720   23.7350 C   0  0  0  0  0  0  0  0  0  0  0  0
   12.9840   -0.1200   23.1530 C   0  0  0  0  0  0  0  0  0  0  0  0
    5.2724    0.7181   17.4208 C   0  0  0  0  0  0  0  0  0  0  0  0
    6.4587   -0.9561   18.4527 C   0  0  0  0  0  0  0  0  0  0  0  0
    5.3407    1.5475   18.5420 C   0  0  0  0  0  0  0  0  0  0  0  0
    6.0224    1.0562   19.6745 C   0  0  0  0  0  0  0  0  0  0  0  0
   10.3220   -0.8940   22.7910 C   0  0  0  0  0  0  0  0  0  0  0  0
    6.5902   -0.2221   19.6216 C   0  0  0  0  0  0  0  0  0  0  0  0
   11.3360   -1.5050   22.0650 C   0  0  0  0  0  0  0  0  0  0  0  0
   12.6400   -1.1000   22.2390 C   0  0  0  0  0  0  0  0  0  0  0  0
    8.3880   -0.3240   21.3070 C   0  0  0  0  0  0  0  0  0  0  0  0
    8.8810   -1.1900   22.4510 C   0  0  0  0  0  0  0  0  0  0  0  0
    5.8141   -0.5188   17.3500 N   0  0  0  0  0  0  0  0  0  0  0  0
    7.2820   -0.7860   20.6970 N   0  0  0  0  0  0  0  0  0  0  0  0
    8.9170    0.7530   21.0260 O   0  0  0  0  0  0  0  0  0  0  0  0
   11.0339   -2.4881   21.1996 F   0  0  0  0  0  0  0  0  0  0  0  0
   13.8840   -1.8490   21.2740 Cl  0  0  0  0  0  0  0  0  0  0  0  0
    4.4141    4.6038   19.7417 H   0  0  0  0  0  0  0  0  0  0  0  0
    5.6102    3.7474   21.7354 H   0  0  0  0  0  0  0  0  0  0  0  0
   12.2252    1.2198   24.6545 H   0  0  0  0  0  0  0  0  0  0  0  0
    4.2352    3.2195   17.7088 H   0  0  0  0  0  0  0  0  0  0  0  0
    6.6291    1.5215   21.7152 H   0  0  0  0  0  0  0  0  0  0  0  0
    9.8771    0.5358   24.3458 H   0  0  0  0  0  0  0  0  0  0  0  0
   14.0073    0.1994   23.2846 H   0  0  0  0  0  0  0  0  0  0  0  0
    4.7622    1.0349   16.5153 H   0  0  0  0  0  0  0  0  0  0  0  0
    6.8808   -1.9530   18.3618 H   0  0  0  0  0  0  0  0  0  0  0  0
    8.7775   -2.2383   22.1732 H   0  0  0  0  0  0  0  0  0  0  0  0
    8.2557   -1.0153   23.3257 H   0  0  0  0  0  0  0  0  0  0  0  0
    6.8981   -1.6619   21.0675 H   0  0  0  0  0  0  0  0  0  0  0  0
  1  2  1  0  0  0  0
  1  4  2  0  0  0  0
  2  5  2  0  0  0  0
  3  6  2  0  0  0  0
  3  7  1  0  0  0  0
  4 10  1  0  0  0  0
  5 11  1  0  0  0  0
  6 12  1  0  0  0  0
  7 15  2  0  0  0  0
  8 10  2  0  0  0  0
  8 18  1  0  0  0  0
  9 13  1  0  0  0  0
  9 18  2  0  0  0  0
 10 11  1  0  0  0  0
 11 13  2  0  0  0  0
 12 14  2  0  0  0  0
 12 17  1  0  0  0  0
 13 19  1  0  0  0  0
 14 15  1  0  0  0  0
 14 21  1  0  0  0  0
 15 22  1  0  0  0  0
 16 17  1  0  0  0  0
 16 19  1  0  0  0  0
 16 20  2  0  0  0  0
  1 23  1  0  0  0  0
  2 24  1  0  0  0  0
  3 25  1  0  0  0  0
  4 26  1  0  0  0  0
  5 27  1  0  0  0  0
  6 28  1  0  0  0  0
  7 29  1  0  0  0  0
  8 30  1  0  0  0  0
  9 31  1  0  0  0  0
 17 32  1  0  0  0  0
 17 33  1  0  0  0  0
 19 34  1  0  0  0  0
M  END
> <compound>
RAL-THA-2d450e86-19

> <compound_smiles>
c1ccc2c(c1)cncc2NC(=O)Cc3cccc(c3F)Cl

> <enantiomer_smiles>
c1ccc2c(c1)cncc2NC(=O)Cc3cccc(c3F)Cl

> <scaffold>
chlorobenzene-linker

> <canonical_CID>
RAL-THA-2d450e86-19

> <r_inhibition_at_20_uM>

> <r_inhibition_at_50_uM>

> <r_avg_IC50>

> <f_inhibition_at_20_uM>

> <f_inhibition_at_50_uM>

> <f_avg_IC50>
23.5559554363504

> <f_avg_pIC50>

> <relative_solubility_at_20_uM>

> <relative_solubility_at_100_uM>

> <trypsin_IC50>

> <NMR_std_ratio>

> <acrylamide>
False

> <chloroacetamide>
False

> <series>
3-aminopyridine-like

> <frag_id>

> <clash_score>
0.6448568279069334

> <docking_score>
-5.181055545806885

> <overlap_score>
0.8544653058052063

> <MMFF_internal_energy>
97.99178419188715

> <docked_smiles>
c1ccc2c(c1)cncc2NC(=O)Cc3cccc(c3F)Cl

$$$$
JOH-UNI-abfda500-5_1
  -OEChem-07262101023D

 32 33  0     0  0  0  0  0  0999 V2000
   11.9780    0.4600   23.9150 C   0  0  0  0  0  0  0  0  0  0  0  0
   10.6560    0.0720   23.7350 C   0  0  0  0  0  0  0  0  0  0  0  0
   12.9840   -0.1200   23.1530 C   0  0  0  0  0  0  0  0  0  0  0  0
    4.6257    0.7526   18.6041 C   0  0  0  0  0  0  0  0  0  0  0  0
   11.3360   -1.5050   22.0650 C   0  0  0  0  0  0  0  0  0  0  0  0
    5.3609    0.9061   17.4397 C   0  0  0  0  0  0  0  0  0  0  0  0
    7.2380   -0.0081   18.3983 C   0  0  0  0  0  0  0  0  0  0  0  0
    5.2598    0.1860   19.7041 C   0  0  0  0  0  0  0  0  0  0  0  0
   10.3220   -0.8940   22.7910 C   0  0  0  0  0  0  0  0  0  0  0  0
    6.5908   -0.2043   19.6076 C   0  0  0  0  0  0  0  0  0  0  0  0
   12.6400   -1.1000   22.2390 C   0  0  0  0  0  0  0  0  0  0  0  0
    4.5057    0.0144   20.9390 C   0  0  0  0  0  0  0  0  0  0  0  0
    8.3880   -0.3240   21.3070 C   0  0  0  0  0  0  0  0  0  0  0  0
    8.8810   -1.1900   22.4510 C   0  0  0  0  0  0  0  0  0  0  0  0
    6.6553    0.5391   17.3080 N   0  0  0  0  0  0  0  0  0  0  0  0
    4.5267    1.0580   21.8578 N   0  0  0  0  0  0  0  0  0  0  0  0
    7.2820   -0.7860   20.6970 N   0  0  0  0  0  0  0  0  0  0  0  0
    3.8795   -1.0326   21.1728 O   0  0  0  0  0  0  0  0  0  0  0  0
    8.9170    0.7530   21.0260 O   0  0  0  0  0  0  0  0  0  0  0  0
   13.8840   -1.8490   21.2740 Cl  0  0  0  0  0  0  0  0  0  0  0  0
   12.2249    1.2198   24.6546 H   0  0  0  0  0  0  0  0  0  0  0  0
    9.8763    0.5350   24.3454 H   0  0  0  0  0  0  0  0  0  0  0  0
   14.0077    0.1988   23.2842 H   0  0  0  0  0  0  0  0  0  0  0  0
    3.5885    1.0683   18.6442 H   0  0  0  0  0  0  0  0  0  0  0  0
   11.0892   -2.3009   21.3624 H   0  0  0  0  0  0  0  0  0  0  0  0
    4.9125    1.3428   16.5533 H   0  0  0  0  0  0  0  0  0  0  0  0
    8.2770   -0.2924   18.2603 H   0  0  0  0  0  0  0  0  0  0  0  0
    8.7709   -2.2387   22.1706 H   0  0  0  0  0  0  0  0  0  0  0  0
    8.2491   -1.0157   23.3232 H   0  0  0  0  0  0  0  0  0  0  0  0
    5.0578    1.8957   21.6458 H   0  0  0  0  0  0  0  0  0  0  0  0
    4.0216    0.9988   22.7360 H   0  0  0  0  0  0  0  0  0  0  0  0
    6.8973   -1.6552   21.0612 H   0  0  0  0  0  0  0  0  0  0  0  0
  1  2  1  0  0  0  0
  1  3  2  0  0  0  0
  2  9  2  0  0  0  0
  3 11  1  0  0  0  0
  4  6  2  0  0  0  0
  4  8  1  0  0  0  0
  5  9  1  0  0  0  0
  5 11  2  0  0  0  0
  6 15  1  0  0  0  0
  7 10  1  0  0  0  0
  7 15  2  0  0  0  0
  8 10  2  0  0  0  0
  8 12  1  0  0  0  0
  9 14  1  0  0  0  0
 10 17  1  0  0  0  0
 11 20  1  0  0  0  0
 12 16  1  0  0  0  0
 12 18  2  0  0  0  0
 13 14  1  0  0  0  0
 13 17  1  0  0  0  0
 13 19  2  0  0  0  0
  1 21  1  0  0  0  0
  2 22  1  0  0  0  0
  3 23  1  0  0  0  0
  4 24  1  0  0  0  0
  5 25  1  0  0  0  0
  6 26  1  0  0  0  0
  7 27  1  0  0  0  0
 14 28  1  0  0  0  0
 14 29  1  0  0  0  0
 16 30  1  0  0  0  0
 16 31  1  0  0  0  0
 17 32  1  0  0  0  0
M  END
> <compound>
JOH-UNI-abfda500-5

> <compound_smiles>
c1cc(cc(c1)Cl)CC(=O)Nc2cnccc2C(=O)N

> <enantiomer_smiles>
c1cc(cc(c1)Cl)CC(=O)Nc2cnccc2C(=O)N

> <scaffold>
chlorobenzene-linker

> <clash_score>
0.700505258690793

> <docking_score>
-8.434250831604004

> <overlap_score>
0.8766795992851257

> <MMFF_internal_energy>
48.97230686086058

> <docked_smiles>
c1cc(cc(c1)Cl)CC(=O)Nc2cnccc2C(=O)N

$$$$
JOH-UNI-abfda500-4_1
  -OEChem-07262101023D

 30 31  0     0  0  0  0  0  0999 V2000
   11.9780    0.4600   23.9150 C   0  0  0  0  0  0  0  0  0  0  0  0
   10.6560    0.0720   23.7350 C   0  0  0  0  0  0  0  0  0  0  0  0
   12.9840   -0.1200   23.1530 C   0  0  0  0  0  0  0  0  0  0  0  0
    4.6270    0.7566   18.6054 C   0  0  0  0  0  0  0  0  0  0  0  0
   11.3360   -1.5050   22.0650 C   0  0  0  0  0  0  0  0  0  0  0  0
    5.3621    0.9100   17.4410 C   0  0  0  0  0  0  0  0  0  0  0  0
    7.2380   -0.0081   18.3983 C   0  0  0  0  0  0  0  0  0  0  0  0
    5.2604    0.1880   19.7048 C   0  0  0  0  0  0  0  0  0  0  0  0
   10.3220   -0.8940   22.7910 C   0  0  0  0  0  0  0  0  0  0  0  0
    6.5908   -0.2043   19.6076 C   0  0  0  0  0  0  0  0  0  0  0  0
   12.6400   -1.1000   22.2390 C   0  0  0  0  0  0  0  0  0  0  0  0
    4.5020    0.0124   20.9570 C   0  0  0  0  0  0  0  0  0  0  0  0
    8.3880   -0.3240   21.3070 C   0  0  0  0  0  0  0  0  0  0  0  0
    8.8810   -1.1900   22.4510 C   0  0  0  0  0  0  0  0  0  0  0  0
    6.6559    0.5409   17.3086 N   0  0  0  0  0  0  0  0  0  0  0  0
    7.2820   -0.7860   20.6970 N   0  0  0  0  0  0  0  0  0  0  0  0
    3.8571   -1.0860   21.1390 O   0  5  0  0  0  0  0  0  0  0  0  0
    4.5118    0.9638   21.8232 O   0  0  0  0  0  0  0  0  0  0  0  0
    8.9170    0.7530   21.0260 O   0  0  0  0  0  0  0  0  0  0  0  0
   13.8840   -1.8490   21.2740 Cl  0  0  0  0  0  0  0  0  0  0  0  0
   12.2249    1.2198   24.6546 H   0  0  0  0  0  0  0  0  0  0  0  0
    9.8763    0.5350   24.3454 H   0  0  0  0  0  0  0  0  0  0  0  0
   14.0077    0.1988   23.2842 H   0  0  0  0  0  0  0  0  0  0  0  0
    3.5904    1.0738   18.6471 H   0  0  0  0  0  0  0  0  0  0  0  0
   11.0892   -2.3009   21.3624 H   0  0  0  0  0  0  0  0  0  0  0  0
    4.9157    1.3505   16.5555 H   0  0  0  0  0  0  0  0  0  0  0  0
    8.2762   -0.2950   18.2597 H   0  0  0  0  0  0  0  0  0  0  0  0
    8.7709   -2.2387   22.1706 H   0  0  0  0  0  0  0  0  0  0  0  0
    8.2491   -1.0157   23.3232 H   0  0  0  0  0  0  0  0  0  0  0  0
    6.8973   -1.6552   21.0612 H   0  0  0  0  0  0  0  0  0  0  0  0
  1  2  1  0  0  0  0
  1  3  2  0  0  0  0
  2  9  2  0  0  0  0
  3 11  1  0  0  0  0
  4  6  2  0  0  0  0
  4  8  1  0  0  0  0
  5  9  1  0  0  0  0
  5 11  2  0  0  0  0
  6 15  1  0  0  0  0
  7 10  1  0  0  0  0
  7 15  2  0  0  0  0
  8 10  2  0  0  0  0
  8 12  1  0  0  0  0
  9 14  1  0  0  0  0
 10 16  1  0  0  0  0
 11 20  1  0  0  0  0
 12 17  1  0  0  0  0
 12 18  2  0  0  0  0
 13 14  1  0  0  0  0
 13 16  1  0  0  0  0
 13 19  2  0  0  0  0
  1 21  1  0  0  0  0
  2 22  1  0  0  0  0
  3 23  1  0  0  0  0
  4 24  1  0  0  0  0
  5 25  1  0  0  0  0
  6 26  1  0  0  0  0
  7 27  1  0  0  0  0
 14 28  1  0  0  0  0
 14 29  1  0  0  0  0
 16 30  1  0  0  0  0
M  CHG  1  17  -1
M  END
> <compound>
JOH-UNI-abfda500-4

> <compound_smiles>
c1cc(cc(c1)Cl)CC(=O)Nc2cnccc2C(=O)O

> <enantiomer_smiles>
c1cc(cc(c1)Cl)CC(=O)Nc2cnccc2C(=O)O

> <scaffold>
chlorobenzene-linker

> <canonical_CID>
JOH-UNI-abfda500-4

> <r_inhibition_at_20_uM>

> <r_inhibition_at_50_uM>

> <r_avg_IC50>

> <f_inhibition_at_20_uM>

> <f_inhibition_at_50_uM>

> <f_avg_IC50>
99.5

> <f_avg_pIC50>

> <relative_solubility_at_20_uM>

> <relative_solubility_at_100_uM>

> <trypsin_IC50>

> <NMR_std_ratio>

> <acrylamide>
False

> <chloroacetamide>
False

> <series>
3-aminopyridine-like

> <frag_id>

> <clash_score>
0.717450370885143

> <docking_score>
-8.544090270996094

> <overlap_score>
0.8761110901832581

> <MMFF_internal_energy>
75.6152280070297

> <docked_smiles>
c1cc(cc(c1)Cl)CC(=O)Nc2cnccc2C(=O)[O-]

$$$$
MAT-POS-fce787c2-1_1
  -OEChem-07262101023D

 41 43  0     0  0  0  0  0  0999 V2000
    3.4430    2.5368   20.0698 C   0  0  0  0  0  0  0  0  0  0  0  0
    4.0769    2.0258   21.2000 C   0  0  0  0  0  0  0  0  0  0  0  0
   11.9780    0.4600   23.9150 C   0  0  0  0  0  0  0  0  0  0  0  0
    3.8513    2.1346   18.7983 C   0  0  0  0  0  0  0  0  0  0  0  0
    5.1219    1.1103   21.0638 C   0  0  0  0  0  0  0  0  0  0  0  0
   10.6560    0.0720   23.7350 C   0  0  0  0  0  0  0  0  0  0  0  0
   12.9840   -0.1200   23.1530 C   0  0  0  0  0  0  0  0  0  0  0  0
    5.3505    0.7771   17.4015 C   0  0  0  0  0  0  0  0  0  0  0  0
    6.9502   -0.5829   18.3321 C   0  0  0  0  0  0  0  0  0  0  0  0
    4.9016    1.2138   18.6494 C   0  0  0  0  0  0  0  0  0  0  0  0
    5.5459    0.6942   19.7912 C   0  0  0  0  0  0  0  0  0  0  0  0
   10.3220   -0.8940   22.7910 C   0  0  0  0  0  0  0  0  0  0  0  0
    6.5902   -0.2221   19.6216 C   0  0  0  0  0  0  0  0  0  0  0  0
   11.3360   -1.5050   22.0650 C   0  0  0  0  0  0  0  0  0  0  0  0
   12.6400   -1.1000   22.2390 C   0  0  0  0  0  0  0  0  0  0  0  0
    8.3880   -0.3240   21.3070 C   0  0  0  0  0  0  0  0  0  0  0  0
    9.7593   -3.1076   19.2450 C   0  0  0  0  0  0  0  0  0  0  0  0
    8.8810   -1.1900   22.4510 C   0  0  0  0  0  0  0  0  0  0  0  0
   10.7305   -2.1144   19.8466 C   0  0  0  0  0  0  0  0  0  0  0  0
    6.3571   -0.1067   17.2168 N   0  0  0  0  0  0  0  0  0  0  0  0
    7.2820   -0.7860   20.6970 N   0  0  0  0  0  0  0  0  0  0  0  0
    8.9170    0.7530   21.0260 O   0  0  0  0  0  0  0  0  0  0  0  0
   11.0227   -2.5039   21.1861 O   0  0  0  0  0  0  0  0  0  0  0  0
   13.8840   -1.8490   21.2740 Cl  0  0  0  0  0  0  0  0  0  0  0  0
    2.6302    3.2488   20.1787 H   0  0  0  0  0  0  0  0  0  0  0  0
    3.7572    2.3402   22.1894 H   0  0  0  0  0  0  0  0  0  0  0  0
   12.2258    1.2199   24.6540 H   0  0  0  0  0  0  0  0  0  0  0  0
    3.3454    2.5434   17.9266 H   0  0  0  0  0  0  0  0  0  0  0  0
    5.5921    0.7346   21.9697 H   0  0  0  0  0  0  0  0  0  0  0  0
    9.8767    0.5347   24.3460 H   0  0  0  0  0  0  0  0  0  0  0  0
   14.0072    0.1991   23.2856 H   0  0  0  0  0  0  0  0  0  0  0  0
    4.8980    1.1375   16.4818 H   0  0  0  0  0  0  0  0  0  0  0  0
    7.7536   -1.2906   18.1476 H   0  0  0  0  0  0  0  0  0  0  0  0
   10.1887   -4.1132   19.2302 H   0  0  0  0  0  0  0  0  0  0  0  0
    8.8261   -3.1301   19.8172 H   0  0  0  0  0  0  0  0  0  0  0  0
    9.4980   -2.8200   18.2212 H   0  0  0  0  0  0  0  0  0  0  0  0
    8.7775   -2.2383   22.1732 H   0  0  0  0  0  0  0  0  0  0  0  0
    8.2557   -1.0153   23.3257 H   0  0  0  0  0  0  0  0  0  0  0  0
   10.2950   -1.1108   19.8585 H   0  0  0  0  0  0  0  0  0  0  0  0
   11.6627   -2.0938   19.2742 H   0  0  0  0  0  0  0  0  0  0  0  0
    6.8981   -1.6619   21.0675 H   0  0  0  0  0  0  0  0  0  0  0  0
  1  2  1  0  0  0  0
  1  4  2  0  0  0  0
  2  5  2  0  0  0  0
  3  6  1  0  0  0  0
  3  7  2  0  0  0  0
  4 10  1  0  0  0  0
  5 11  1  0  0  0  0
  6 12  2  0  0  0  0
  7 15  1  0  0  0  0
  8 10  2  0  0  0  0
  8 20  1  0  0  0  0
  9 13  1  0  0  0  0
  9 20  2  0  0  0  0
 10 11  1  0  0  0  0
 11 13  2  0  0  0  0
 12 14  1  0  0  0  0
 12 18  1  0  0  0  0
 13 21  1  0  0  0  0
 14 15  2  0  0  0  0
 14 23  1  0  0  0  0
 15 24  1  0  0  0  0
 16 18  1  0  0  0  0
 16 21  1  0  0  0  0
 16 22  2  0  0  0  0
 17 19  1  0  0  0  0
 19 23  1  0  0  0  0
  1 25  1  0  0  0  0
  2 26  1  0  0  0  0
  3 27  1  0  0  0  0
  4 28  1  0  0  0  0
  5 29  1  0  0  0  0
  6 30  1  0  0  0  0
  7 31  1  0  0  0  0
  8 32  1  0  0  0  0
  9 33  1  0  0  0  0
 17 34  1  0  0  0  0
 17 35  1  0  0  0  0
 17 36  1  0  0  0  0
 18 37  1  0  0  0  0
 18 38  1  0  0  0  0
 19 39  1  0  0  0  0
 19 40  1  0  0  0  0
 21 41  1  0  0  0  0
M  END
> <compound>
MAT-POS-fce787c2-1

> <compound_smiles>
CCOc1c(cccc1Cl)CC(=O)Nc2cncc3c2cccc3

> <enantiomer_smiles>
CCOc1c(cccc1Cl)CC(=O)Nc2cncc3c2cccc3

> <scaffold>
chlorobenzene-linker

> <canonical_CID>
MAT-POS-fce787c2-1

> <r_inhibition_at_20_uM>

> <r_inhibition_at_50_uM>

> <r_avg_IC50>

> <f_inhibition_at_20_uM>

> <f_inhibition_at_50_uM>

> <f_avg_IC50>
6.95899371078913

> <f_avg_pIC50>

> <relative_solubility_at_20_uM>

> <relative_solubility_at_100_uM>

> <trypsin_IC50>

> <NMR_std_ratio>

> <acrylamide>
False

> <chloroacetamide>
False

> <series>
3-aminopyridine-like

> <frag_id>

> <clash_score>
2.250268307914729

> <docking_score>
-9.089818954467773

> <overlap_score>
1.0

> <MMFF_internal_energy>
116.99661984168365

> <docked_smiles>
CCOc1c(cccc1Cl)CC(=O)Nc2cncc3c2cccc3

$$$$
JOH-UNI-50ce7ec3-2_1
  -OEChem-07262101023D

 37 39  0     0  0  0  0  0  0999 V2000
    4.4274    3.1798   22.2920 C   0  0  0  0  0  0  0  0  0  0  0  0
    5.2917    2.3061   22.9477 C   0  0  0  0  0  0  0  0  0  0  0  0
   11.9780    0.4600   23.9150 C   0  0  0  0  0  0  0  0  0  0  0  0
    4.2120    3.0504   20.9201 C   0  0  0  0  0  0  0  0  0  0  0  0
    5.9445    1.2992   22.2346 C   0  0  0  0  0  0  0  0  0  0  0  0
   10.6560    0.0720   23.7350 C   0  0  0  0  0  0  0  0  0  0  0  0
   12.9840   -0.1200   23.1530 C   0  0  0  0  0  0  0  0  0  0  0  0
   11.3360   -1.5050   22.0650 C   0  0  0  0  0  0  0  0  0  0  0  0
    4.6846    1.8660   18.8188 C   0  0  0  0  0  0  0  0  0  0  0  0
    6.1238    0.0775   18.7493 C   0  0  0  0  0  0  0  0  0  0  0  0
    4.8635    2.0407   20.1925 C   0  0  0  0  0  0  0  0  0  0  0  0
    5.7393    1.1543   20.8528 C   0  0  0  0  0  0  0  0  0  0  0  0
   10.3220   -0.8940   22.7910 C   0  0  0  0  0  0  0  0  0  0  0  0
    6.3788    0.1551   20.1100 C   0  0  0  0  0  0  0  0  0  0  0  0
   12.6400   -1.1000   22.2390 C   0  0  0  0  0  0  0  0  0  0  0  0
    8.3880   -0.3240   21.3070 C   0  0  0  0  0  0  0  0  0  0  0  0
    8.8810   -1.1900   22.4510 C   0  0  0  0  0  0  0  0  0  0  0  0
    5.2928    0.9077   18.0839 N   0  0  0  0  0  0  0  0  0  0  0  0
    7.2820   -0.7860   20.6970 N   0  0  0  0  0  0  0  0  0  0  0  0
    8.9170    0.7530   21.0260 O   0  0  0  0  0  0  0  0  0  0  0  0
    6.0020   -2.7110   19.4836 O   0  0  0  0  0  0  0  0  0  0  0  0
    8.1105   -3.2668   20.7474 O   0  0  0  0  0  0  0  0  0  0  0  0
    6.0485   -2.7847   21.8941 F   0  0  0  0  0  0  0  0  0  0  0  0
    6.9060   -2.4749   20.5929 S   0  0  0  0  0  0  0  0  0  0  0  0
   13.8840   -1.8490   21.2740 Cl  0  0  0  0  0  0  0  0  0  0  0  0
    3.9213    3.9631   22.8487 H   0  0  0  0  0  0  0  0  0  0  0  0
    5.4577    2.4090   24.0163 H   0  0  0  0  0  0  0  0  0  0  0  0
   12.2249    1.2198   24.6546 H   0  0  0  0  0  0  0  0  0  0  0  0
    3.5347    3.7415   20.4233 H   0  0  0  0  0  0  0  0  0  0  0  0
    6.6115    0.6366   22.7812 H   0  0  0  0  0  0  0  0  0  0  0  0
    9.8763    0.5350   24.3454 H   0  0  0  0  0  0  0  0  0  0  0  0
   14.0077    0.1988   23.2842 H   0  0  0  0  0  0  0  0  0  0  0  0
   11.0892   -2.3009   21.3624 H   0  0  0  0  0  0  0  0  0  0  0  0
    4.0232    2.5137   18.2500 H   0  0  0  0  0  0  0  0  0  0  0  0
    6.5962   -0.6796   18.1299 H   0  0  0  0  0  0  0  0  0  0  0  0
    8.2728   -1.0104   23.3383 H   0  0  0  0  0  0  0  0  0  0  0  0
    8.7847   -2.2404   22.1759 H   0  0  0  0  0  0  0  0  0  0  0  0
  1  2  1  0  0  0  0
  1  4  2  0  0  0  0
  2  5  2  0  0  0  0
  3  6  2  0  0  0  0
  3  7  1  0  0  0  0
  4 11  1  0  0  0  0
  5 12  1  0  0  0  0
  6 13  1  0  0  0  0
  7 15  2  0  0  0  0
  8 13  2  0  0  0  0
  8 15  1  0  0  0  0
  9 11  2  0  0  0  0
  9 18  1  0  0  0  0
 10 14  1  0  0  0  0
 10 18  2  0  0  0  0
 11 12  1  0  0  0  0
 12 14  2  0  0  0  0
 13 17  1  0  0  0  0
 14 19  1  0  0  0  0
 15 25  1  0  0  0  0
 16 17  1  0  0  0  0
 16 19  1  0  0  0  0
 16 20  2  0  0  0  0
 19 24  1  0  0  0  0
 21 24  2  0  0  0  0
 22 24  2  0  0  0  0
 23 24  1  0  0  0  0
  1 26  1  0  0  0  0
  2 27  1  0  0  0  0
  3 28  1  0  0  0  0
  4 29  1  0  0  0  0
  5 30  1  0  0  0  0
  6 31  1  0  0  0  0
  7 32  1  0  0  0  0
  8 33  1  0  0  0  0
  9 34  1  0  0  0  0
 10 35  1  0  0  0  0
 17 36  1  0  0  0  0
 17 37  1  0  0  0  0
M  END
> <compound>
JOH-UNI-50ce7ec3-2

> <compound_smiles>
c1ccc2c(c1)cncc2N(C(=O)Cc3cccc(c3)Cl)S(=O)(=O)F

> <enantiomer_smiles>
c1ccc2c(c1)cncc2N(C(=O)Cc3cccc(c3)Cl)S(=O)(=O)F

> <scaffold>
chlorobenzene-linker

> <clash_score>
0.6748464788365479

> <docking_score>
-5.107227325439453

> <overlap_score>
0.8826304078102112

> <MMFF_internal_energy>
23.824018668927902

> <docked_smiles>
c1ccc2c(c1)cncc2N(C(=O)Cc3cccc(c3)Cl)S(=O)(=O)F

$$$$
JOH-UNI-50ce7ec3-1_1
  -OEChem-07262101023D

 41 43  0     0  0  0  0  0  0999 V2000
    3.8606    2.9977   20.0665 C   0  0  0  0  0  0  0  0  0  0  0  0
    4.3339    2.3213   21.1885 C   0  0  0  0  0  0  0  0  0  0  0  0
   11.9780    0.4600   23.9150 C   0  0  0  0  0  0  0  0  0  0  0  0
    4.3397    2.6684   18.7988 C   0  0  0  0  0  0  0  0  0  0  0  0
    5.2884    1.3125   21.0478 C   0  0  0  0  0  0  0  0  0  0  0  0
   10.6560    0.0720   23.7350 C   0  0  0  0  0  0  0  0  0  0  0  0
   12.9840   -0.1200   23.1530 C   0  0  0  0  0  0  0  0  0  0  0  0
   11.3360   -1.5050   22.0650 C   0  0  0  0  0  0  0  0  0  0  0  0
    5.8140    1.2848   17.4010 C   0  0  0  0  0  0  0  0  0  0  0  0
    7.1760   -0.3202   18.3195 C   0  0  0  0  0  0  0  0  0  0  0  0
    5.3002    1.6549   18.6455 C   0  0  0  0  0  0  0  0  0  0  0  0
    5.7819    0.9678   19.7789 C   0  0  0  0  0  0  0  0  0  0  0  0
   10.3220   -0.8940   22.7910 C   0  0  0  0  0  0  0  0  0  0  0  0
    6.7388   -0.0387   19.6049 C   0  0  0  0  0  0  0  0  0  0  0  0
   12.6400   -1.1000   22.2390 C   0  0  0  0  0  0  0  0  0  0  0  0
    6.6973   -3.7841   19.0453 C   0  0  0  0  0  0  0  0  0  0  0  0
    7.2359   -3.5005   20.2326 C   0  0  0  0  0  0  0  0  0  0  0  0
    8.3880   -0.3240   21.3070 C   0  0  0  0  0  0  0  0  0  0  0  0
    8.8810   -1.1900   22.4510 C   0  0  0  0  0  0  0  0  0  0  0  0
    6.7381    0.3159   17.2122 N   0  0  0  0  0  0  0  0  0  0  0  0
    7.2820   -0.7860   20.6970 N   0  0  0  0  0  0  0  0  0  0  0  0
    8.9170    0.7530   21.0260 O   0  0  0  0  0  0  0  0  0  0  0  0
    5.0859   -2.1758   20.7872 O   0  0  0  0  0  0  0  0  0  0  0  0
    6.8054   -2.5222   22.5741 O   0  0  0  0  0  0  0  0  0  0  0  0
    6.4820   -2.2588   21.1821 S   0  0  0  0  0  0  0  0  0  0  0  0
   13.8840   -1.8490   21.2740 Cl  0  0  0  0  0  0  0  0  0  0  0  0
    3.1186    3.7829   20.1785 H   0  0  0  0  0  0  0  0  0  0  0  0
    3.9591    2.5797   22.1748 H   0  0  0  0  0  0  0  0  0  0  0  0
   12.2249    1.2198   24.6546 H   0  0  0  0  0  0  0  0  0  0  0  0
    3.9604    3.2070   17.9333 H   0  0  0  0  0  0  0  0  0  0  0  0
    5.6337    0.8072   21.9468 H   0  0  0  0  0  0  0  0  0  0  0  0
    9.8763    0.5350   24.3454 H   0  0  0  0  0  0  0  0  0  0  0  0
   14.0077    0.1988   23.2842 H   0  0  0  0  0  0  0  0  0  0  0  0
   11.0892   -2.3009   21.3624 H   0  0  0  0  0  0  0  0  0  0  0  0
    5.4849    1.7733   16.4879 H   0  0  0  0  0  0  0  0  0  0  0  0
    7.9177   -1.0915   18.1330 H   0  0  0  0  0  0  0  0  0  0  0  0
    7.1363   -4.5531   18.4185 H   0  0  0  0  0  0  0  0  0  0  0  0
    5.8199   -3.2690   18.6691 H   0  0  0  0  0  0  0  0  0  0  0  0
    8.1119   -4.0159   20.6058 H   0  0  0  0  0  0  0  0  0  0  0  0
    8.8004   -2.2437   22.1804 H   0  0  0  0  0  0  0  0  0  0  0  0
    8.2596   -1.0135   23.3294 H   0  0  0  0  0  0  0  0  0  0  0  0
  1  2  1  0  0  0  0
  1  4  2  0  0  0  0
  2  5  2  0  0  0  0
  3  6  2  0  0  0  0
  3  7  1  0  0  0  0
  4 11  1  0  0  0  0
  5 12  1  0  0  0  0
  6 13  1  0  0  0  0
  7 15  2  0  0  0  0
  8 13  2  0  0  0  0
  8 15  1  0  0  0  0
  9 11  2  0  0  0  0
  9 20  1  0  0  0  0
 10 14  1  0  0  0  0
 10 20  2  0  0  0  0
 11 12  1  0  0  0  0
 12 14  2  0  0  0  0
 13 19  1  0  0  0  0
 14 21  1  0  0  0  0
 15 26  1  0  0  0  0
 16 17  2  0  0  0  0
 17 25  1  0  0  0  0
 18 19  1  0  0  0  0
 18 21  1  0  0  0  0
 18 22  2  0  0  0  0
 21 25  1  0  0  0  0
 23 25  2  0  0  0  0
 24 25  2  0  0  0  0
  1 27  1  0  0  0  0
  2 28  1  0  0  0  0
  3 29  1  0  0  0  0
  4 30  1  0  0  0  0
  5 31  1  0  0  0  0
  6 32  1  0  0  0  0
  7 33  1  0  0  0  0
  8 34  1  0  0  0  0
  9 35  1  0  0  0  0
 10 36  1  0  0  0  0
 16 37  1  0  0  0  0
 16 38  1  0  0  0  0
 17 39  1  0  0  0  0
 19 40  1  0  0  0  0
 19 41  1  0  0  0  0
M  END
> <compound>
JOH-UNI-50ce7ec3-1

> <compound_smiles>
C=CS(=O)(=O)N(c1cncc2c1cccc2)C(=O)Cc3cccc(c3)Cl

> <enantiomer_smiles>
C=CS(=O)(=O)N(c1cncc2c1cccc2)C(=O)Cc3cccc(c3)Cl

> <scaffold>
chlorobenzene-linker

> <clash_score>
1.5032385852838641

> <docking_score>
-8.000810623168945

> <overlap_score>
0.9523372650146484

> <MMFF_internal_energy>
43.615630037047374

> <docked_smiles>
C=CS(=O)(=O)N(c1cncc2c1cccc2)C(=O)Cc3cccc(c3)Cl

$$$$
JOH-UNI-50ce7ec3-6_1
  -OEChem-07262101023D

 37 38  0     0  0  0  0  0  0999 V2000
   11.9780    0.4600   23.9150 C   0  0  0  0  0  0  0  0  0  0  0  0
   10.6560    0.0720   23.7350 C   0  0  0  0  0  0  0  0  0  0  0  0
   12.9840   -0.1200   23.1530 C   0  0  0  0  0  0  0  0  0  0  0  0
   11.3360   -1.5050   22.0650 C   0  0  0  0  0  0  0  0  0  0  0  0
    4.7084    1.7474   19.7199 C   0  0  0  0  0  0  0  0  0  0  0  0
    5.1773   -0.0494   21.7192 C   0  0  0  0  0  0  0  0  0  0  0  0
   10.3220   -0.8940   22.7910 C   0  0  0  0  0  0  0  0  0  0  0  0
    5.8577    0.9660   19.6790 C   0  0  0  0  0  0  0  0  0  0  0  0
    6.1041    0.0480   20.6938 C   0  0  0  0  0  0  0  0  0  0  0  0
   12.6400   -1.1000   22.2390 C   0  0  0  0  0  0  0  0  0  0  0  0
    3.8440    1.5738   20.7888 C   0  0  0  0  0  0  0  0  0  0  0  0
    8.3880   -0.3240   21.3070 C   0  0  0  0  0  0  0  0  0  0  0  0
    6.8085    1.1303   18.5391 C   0  0  0  0  0  0  0  0  0  0  0  0
    8.8810   -1.1900   22.4510 C   0  0  0  0  0  0  0  0  0  0  0  0
    2.6009    2.3958   20.8656 C   0  0  0  0  0  0  0  0  0  0  0  0
    4.0496    0.6924   21.7931 N   0  0  0  0  0  0  0  0  0  0  0  0
    7.2820   -0.7860   20.6970 N   0  0  0  0  0  0  0  0  0  0  0  0
    8.9170    0.7530   21.0260 O   0  0  0  0  0  0  0  0  0  0  0  0
    8.2148   -3.2119   20.4476 O   0  0  0  0  0  0  0  0  0  0  0  0
    5.8153   -2.7554   19.8263 O   0  0  0  0  0  0  0  0  0  0  0  0
    2.8217    3.5409   21.5626 F   0  0  0  0  0  0  0  0  0  0  0  0
    1.6199    1.7259   21.5249 F   0  0  0  0  0  0  0  0  0  0  0  0
    7.6346   -2.0516   18.4142 F   0  0  0  0  0  0  0  0  0  0  0  0
    7.1970   -2.3256   19.9168 S   0  0  0  0  0  0  0  0  0  0  0  0
   13.8840   -1.8490   21.2740 Cl  0  0  0  0  0  0  0  0  0  0  0  0
   12.2249    1.2198   24.6546 H   0  0  0  0  0  0  0  0  0  0  0  0
    9.8763    0.5350   24.3454 H   0  0  0  0  0  0  0  0  0  0  0  0
   14.0077    0.1988   23.2842 H   0  0  0  0  0  0  0  0  0  0  0  0
   11.0892   -2.3009   21.3624 H   0  0  0  0  0  0  0  0  0  0  0  0
    4.4952    2.4696   18.9381 H   0  0  0  0  0  0  0  0  0  0  0  0
    5.3152   -0.7469   22.5400 H   0  0  0  0  0  0  0  0  0  0  0  0
    7.5592    1.8928   18.7774 H   0  0  0  0  0  0  0  0  0  0  0  0
    7.3253    0.1890   18.3150 H   0  0  0  0  0  0  0  0  0  0  0  0
    6.2826    1.4313   17.6245 H   0  0  0  0  0  0  0  0  0  0  0  0
    8.2652   -1.0109   23.3354 H   0  0  0  0  0  0  0  0  0  0  0  0
    8.7771   -2.2409   22.1730 H   0  0  0  0  0  0  0  0  0  0  0  0
    2.2187    2.6692   19.8806 H   0  0  0  0  0  0  0  0  0  0  0  0
  1  2  2  0  0  0  0
  1  3  1  0  0  0  0
  2  7  1  0  0  0  0
  3 10  2  0  0  0  0
  4  7  2  0  0  0  0
  4 10  1  0  0  0  0
  5  8  1  0  0  0  0
  5 11  2  0  0  0  0
  6  9  1  0  0  0  0
  6 16  2  0  0  0  0
  7 14  1  0  0  0  0
  8  9  2  0  0  0  0
  8 13  1  0  0  0  0
  9 17  1  0  0  0  0
 10 25  1  0  0  0  0
 11 15  1  0  0  0  0
 11 16  1  0  0  0  0
 12 14  1  0  0  0  0
 12 17  1  0  0  0  0
 12 18  2  0  0  0  0
 15 21  1  0  0  0  0
 15 22  1  0  0  0  0
 17 24  1  0  0  0  0
 19 24  2  0  0  0  0
 20 24  2  0  0  0  0
 23 24  1  0  0  0  0
  1 26  1  0  0  0  0
  2 27  1  0  0  0  0
  3 28  1  0  0  0  0
  4 29  1  0  0  0  0
  5 30  1  0  0  0  0
  6 31  1  0  0  0  0
 13 32  1  0  0  0  0
 13 33  1  0  0  0  0
 13 34  1  0  0  0  0
 14 35  1  0  0  0  0
 14 36  1  0  0  0  0
 15 37  1  0  0  0  0
M  END
> <compound>
JOH-UNI-50ce7ec3-6

> <compound_smiles>
Cc1cc(ncc1N(C(=O)Cc2cccc(c2)Cl)S(=O)(=O)F)C(F)F

> <enantiomer_smiles>
Cc1cc(ncc1N(C(=O)Cc2cccc(c2)Cl)S(=O)(=O)F)C(F)F

> <scaffold>
chlorobenzene-linker

> <clash_score>
1.9745169433968441

> <docking_score>
-3.193575382232666

> <overlap_score>
0.8889032602310181

> <MMFF_internal_energy>
46.992921927947776

> <docked_smiles>
Cc1cc(ncc1N(C(=O)Cc2cccc(c2)Cl)S(=O)(=O)F)C(F)F

$$$$
EDJ-MED-ee07cf00-1_1
  -OEChem-07262101023D

 54 57  0     1  0  0  0  0  0999 V2000
    4.8854    3.6419   19.7205 C   0  0  0  0  0  0  0  0  0  0  0  0
    5.5494    3.1500   20.8419 C   0  0  0  0  0  0  0  0  0  0  0  0
   11.9780    0.4600   23.9150 C   0  0  0  0  0  0  0  0  0  0  0  0
    4.7878    2.8619   18.5685 C   0  0  0  0  0  0  0  0  0  0  0  0
    6.1189    1.8757   20.8162 C   0  0  0  0  0  0  0  0  0  0  0  0
   10.6560    0.0720   23.7350 C   0  0  0  0  0  0  0  0  0  0  0  0
   12.9840   -0.1200   23.1530 C   0  0  0  0  0  0  0  0  0  0  0  0
   11.3360   -1.5050   22.0650 C   0  0  0  0  0  0  0  0  0  0  0  0
    5.2893    0.7552   17.4056 C   0  0  0  0  0  0  0  0  0  0  0  0
    6.4602   -0.9317   18.4342 C   0  0  0  0  0  0  0  0  0  0  0  0
    5.3570    1.5782   18.5316 C   0  0  0  0  0  0  0  0  0  0  0  0
    6.0301    1.0765   19.6647 C   0  0  0  0  0  0  0  0  0  0  0  0
   10.3220   -0.8940   22.7910 C   0  0  0  0  0  0  0  0  0  0  0  0
    6.5904   -0.2048   19.6077 C   0  0  0  0  0  0  0  0  0  0  0  0
   12.6400   -1.1000   22.2390 C   0  0  0  0  0  0  0  0  0  0  0  0
    5.4719   -6.2093   24.2837 C   0  0  0  0  0  0  0  0  0  0  0  0
    6.6562   -5.7063   23.9406 C   0  0  0  0  0  0  0  0  0  0  0  0
    4.4942   -6.5619   23.2348 C   0  0  0  0  0  0  0  0  0  0  0  0
    6.1879   -5.7891   21.5533 C   0  0  0  0  0  0  0  0  0  0  0  0
    8.4768   -3.5815   23.0258 C   0  0  0  0  0  0  0  0  0  0  0  0
    8.3880   -0.3240   21.3070 C   0  0  0  0  0  0  0  0  0  0  0  0
    4.0048   -6.6750   20.8442 C   0  0  0  0  0  0  0  0  0  0  0  0
    8.3542   -4.9311   22.3657 C   0  0  0  0  0  0  0  0  0  0  0  0
    8.8810   -1.1900   22.4510 C   0  0  1  0  0  0  0  0  0  0  0  0
    5.8237   -0.4845   17.3308 N   0  0  0  0  0  0  0  0  0  0  0  0
    7.0329   -5.4900   22.6355 N   0  0  0  0  0  0  0  0  0  0  0  0
    4.9259   -6.3311   21.9218 N   0  0  0  0  0  0  0  0  0  0  0  0
    7.2820   -0.7860   20.6970 N   0  0  0  0  0  0  0  0  0  0  0  0
    8.7221   -2.5828   22.0943 N   0  0  0  0  0  0  0  0  0  0  0  0
    3.4019   -7.0173   23.5671 O   0  0  0  0  0  0  0  0  0  0  0  0
    6.5082   -5.5978   20.3761 O   0  0  0  0  0  0  0  0  0  0  0  0
    8.3674   -3.4091   24.2369 O   0  0  0  0  0  0  0  0  0  0  0  0
    8.9170    0.7530   21.0260 O   0  0  0  0  0  0  0  0  0  0  0  0
   13.8840   -1.8490   21.2740 Cl  0  0  0  0  0  0  0  0  0  0  0  0
    4.4431    4.6335   19.7433 H   0  0  0  0  0  0  0  0  0  0  0  0
    5.6240    3.7591   21.7382 H   0  0  0  0  0  0  0  0  0  0  0  0
   12.2249    1.2198   24.6546 H   0  0  0  0  0  0  0  0  0  0  0  0
    4.2658    3.2613   17.7021 H   0  0  0  0  0  0  0  0  0  0  0  0
    6.6295    1.5271   21.7110 H   0  0  0  0  0  0  0  0  0  0  0  0
    9.8763    0.5350   24.3454 H   0  0  0  0  0  0  0  0  0  0  0  0
   14.0077    0.1988   23.2842 H   0  0  0  0  0  0  0  0  0  0  0  0
   11.0892   -2.3009   21.3624 H   0  0  0  0  0  0  0  0  0  0  0  0
    4.7855    1.0801   16.4994 H   0  0  0  0  0  0  0  0  0  0  0  0
    6.8767   -1.9306   18.3399 H   0  0  0  0  0  0  0  0  0  0  0  0
    5.2000   -6.3685   25.3203 H   0  0  0  0  0  0  0  0  0  0  0  0
    7.3824   -5.4427   24.7024 H   0  0  0  0  0  0  0  0  0  0  0  0
    3.3731   -5.8056   20.6096 H   0  0  0  0  0  0  0  0  0  0  0  0
    4.5775   -6.9637   19.9506 H   0  0  0  0  0  0  0  0  0  0  0  0
    3.3691   -7.5155   21.1597 H   0  0  0  0  0  0  0  0  0  0  0  0
    8.4870   -4.8260   21.2849 H   0  0  0  0  0  0  0  0  0  0  0  0
    9.1178   -5.6077   22.7603 H   0  0  0  0  0  0  0  0  0  0  0  0
    8.2436   -1.0112   23.3272 H   0  0  0  0  0  0  0  0  0  0  0  0
    6.8975   -1.6551   21.0614 H   0  0  0  0  0  0  0  0  0  0  0  0
    8.7930   -2.8431   21.1149 H   0  0  0  0  0  0  0  0  0  0  0  0
  1  2  1  0  0  0  0
  1  4  2  0  0  0  0
  2  5  2  0  0  0  0
  3  6  2  0  0  0  0
  3  7  1  0  0  0  0
  4 11  1  0  0  0  0
  5 12  1  0  0  0  0
  6 13  1  0  0  0  0
  7 15  2  0  0  0  0
  8 13  2  0  0  0  0
  8 15  1  0  0  0  0
  9 11  2  0  0  0  0
  9 25  1  0  0  0  0
 10 14  1  0  0  0  0
 10 25  2  0  0  0  0
 11 12  1  0  0  0  0
 12 14  2  0  0  0  0
 13 24  1  0  0  0  0
 14 28  1  0  0  0  0
 15 34  1  0  0  0  0
 16 17  2  0  0  0  0
 16 18  1  0  0  0  0
 17 26  1  0  0  0  0
 18 27  1  0  0  0  0
 18 30  2  0  0  0  0
 19 26  1  0  0  0  0
 19 27  1  0  0  0  0
 19 31  2  0  0  0  0
 20 23  1  0  0  0  0
 20 29  1  0  0  0  0
 20 32  2  0  0  0  0
 21 24  1  1  0  0  0
 21 28  1  0  0  0  0
 21 33  2  0  0  0  0
 22 27  1  0  0  0  0
 23 26  1  0  0  0  0
 24 29  1  0  0  0  0
  1 35  1  0  0  0  0
  2 36  1  0  0  0  0
  3 37  1  0  0  0  0
  4 38  1  0  0  0  0
  5 39  1  0  0  0  0
  6 40  1  0  0  0  0
  7 41  1  0  0  0  0
  8 42  1  0  0  0  0
  9 43  1  0  0  0  0
 10 44  1  0  0  0  0
 16 45  1  0  0  0  0
 17 46  1  0  0  0  0
 22 47  1  0  0  0  0
 22 48  1  0  0  0  0
 22 49  1  0  0  0  0
 23 50  1  0  0  0  0
 23 51  1  0  0  0  0
 24 52  1  0  0  0  0
 28 53  1  0  0  0  0
 29 54  1  0  0  0  0
M  END
> <compound>
EDJ-MED-ee07cf00-1

> <compound_smiles>
Cn1c(=O)ccn(c1=O)CC(=O)NC(c2cccc(c2)Cl)C(=O)Nc3cncc4c3cccc4

> <enantiomer_smiles>
Cn1c(=O)ccn(c1=O)CC(=O)N[C@@H](c2cccc(c2)Cl)C(=O)Nc3cncc4c3cccc4

> <scaffold>
chlorobenzene-linker

> <canonical_CID>
EDJ-MED-ee07cf00-1

> <r_inhibition_at_20_uM>

> <r_inhibition_at_50_uM>

> <r_avg_IC50>
15.7719230180264

> <f_inhibition_at_20_uM>

> <f_inhibition_at_50_uM>

> <f_avg_IC50>
11.3094104721024

> <f_avg_pIC50>

> <relative_solubility_at_20_uM>

> <relative_solubility_at_100_uM>

> <trypsin_IC50>

> <NMR_std_ratio>

> <acrylamide>
False

> <chloroacetamide>
False

> <series>
Ugi

> <frag_id>

> <clash_score>
0.6530424337886008

> <docking_score>
-4.0588459968566895

> <overlap_score>
0.8298407793045044

> <MMFF_internal_energy>
60.368747981936565

> <docked_smiles>
Cn1c(=O)ccn(c1=O)CC(=O)N[C@@H](c2cccc(c2)Cl)C(=O)Nc3cncc4c3cccc4

$$$$
JOH-UNI-50ce7ec3-4_1
  -OEChem-07262101023D

 40 42  0     0  0  0  0  0  0999 V2000
    5.3932    0.6060   17.0806 C   0  0  0  0  0  0  0  0  0  0  0  0
    4.2533    1.4017   17.1678 C   0  0  0  0  0  0  0  0  0  0  0  0
   11.9780    0.4600   23.9150 C   0  0  0  0  0  0  0  0  0  0  0  0
    6.0176    0.1464   18.2415 C   0  0  0  0  0  0  0  0  0  0  0  0
    3.7326    1.7415   18.4162 C   0  0  0  0  0  0  0  0  0  0  0  0
   10.6560    0.0720   23.7350 C   0  0  0  0  0  0  0  0  0  0  0  0
   12.9840   -0.1200   23.1530 C   0  0  0  0  0  0  0  0  0  0  0  0
   11.3360   -1.5050   22.0650 C   0  0  0  0  0  0  0  0  0  0  0  0
    5.5453    0.4052   21.8996 C   0  0  0  0  0  0  0  0  0  0  0  0
    5.5070    0.4788   19.5069 C   0  0  0  0  0  0  0  0  0  0  0  0
    4.3528    1.2847   19.5909 C   0  0  0  0  0  0  0  0  0  0  0  0
   10.3220   -0.8940   22.7910 C   0  0  0  0  0  0  0  0  0  0  0  0
    6.1100    0.0338   20.6890 C   0  0  0  0  0  0  0  0  0  0  0  0
   12.6400   -1.1000   22.2390 C   0  0  0  0  0  0  0  0  0  0  0  0
    3.8744    1.5943   20.8657 C   0  0  0  0  0  0  0  0  0  0  0  0
    8.3880   -0.3240   21.3070 C   0  0  0  0  0  0  0  0  0  0  0  0
    8.8810   -1.1900   22.4510 C   0  0  0  0  0  0  0  0  0  0  0  0
    2.6565    2.4425   21.0520 C   0  0  0  0  0  0  0  0  0  0  0  0
    4.4422    1.1744   22.0188 N   0  0  0  0  0  0  0  0  0  0  0  0
    7.2820   -0.7860   20.6970 N   0  0  0  0  0  0  0  0  0  0  0  0
    8.9170    0.7530   21.0260 O   0  0  0  0  0  0  0  0  0  0  0  0
    8.2486   -3.1998   20.4616 O   0  0  0  0  0  0  0  0  0  0  0  0
    5.8456   -2.7897   19.8216 O   0  0  0  0  0  0  0  0  0  0  0  0
    2.3714    2.5884   22.3711 F   0  0  0  0  0  0  0  0  0  0  0  0
    1.5730    1.8557   20.4827 F   0  0  0  0  0  0  0  0  0  0  0  0
    7.6617   -2.0582   18.4195 F   0  0  0  0  0  0  0  0  0  0  0  0
    7.2186   -2.3343   19.9201 S   0  0  0  0  0  0  0  0  0  0  0  0
   13.8840   -1.8490   21.2740 Cl  0  0  0  0  0  0  0  0  0  0  0  0
    5.7973    0.3424   16.1074 H   0  0  0  0  0  0  0  0  0  0  0  0
    3.7696    1.7579   16.2628 H   0  0  0  0  0  0  0  0  0  0  0  0
   12.2249    1.2198   24.6546 H   0  0  0  0  0  0  0  0  0  0  0  0
    6.9053   -0.4726   18.1331 H   0  0  0  0  0  0  0  0  0  0  0  0
    2.8419    2.3640   18.4488 H   0  0  0  0  0  0  0  0  0  0  0  0
    9.8763    0.5350   24.3454 H   0  0  0  0  0  0  0  0  0  0  0  0
   14.0077    0.1988   23.2842 H   0  0  0  0  0  0  0  0  0  0  0  0
   11.0892   -2.3009   21.3624 H   0  0  0  0  0  0  0  0  0  0  0  0
    5.9762    0.0853   22.8439 H   0  0  0  0  0  0  0  0  0  0  0  0
    8.2728   -1.0104   23.3383 H   0  0  0  0  0  0  0  0  0  0  0  0
    8.7847   -2.2404   22.1759 H   0  0  0  0  0  0  0  0  0  0  0  0
    2.7722    3.4355   20.6178 H   0  0  0  0  0  0  0  0  0  0  0  0
  1  2  1  0  0  0  0
  1  4  2  0  0  0  0
  2  5  2  0  0  0  0
  3  6  2  0  0  0  0
  3  7  1  0  0  0  0
  4 10  1  0  0  0  0
  5 11  1  0  0  0  0
  6 12  1  0  0  0  0
  7 14  2  0  0  0  0
  8 12  2  0  0  0  0
  8 14  1  0  0  0  0
  9 13  1  0  0  0  0
  9 19  2  0  0  0  0
 10 11  1  0  0  0  0
 10 13  2  0  0  0  0
 11 15  2  0  0  0  0
 12 17  1  0  0  0  0
 13 20  1  0  0  0  0
 14 28  1  0  0  0  0
 15 18  1  0  0  0  0
 15 19  1  0  0  0  0
 16 17  1  0  0  0  0
 16 20  1  0  0  0  0
 16 21  2  0  0  0  0
 18 24  1  0  0  0  0
 18 25  1  0  0  0  0
 20 27  1  0  0  0  0
 22 27  2  0  0  0  0
 23 27  2  0  0  0  0
 26 27  1  0  0  0  0
  1 29  1  0  0  0  0
  2 30  1  0  0  0  0
  3 31  1  0  0  0  0
  4 32  1  0  0  0  0
  5 33  1  0  0  0  0
  6 34  1  0  0  0  0
  7 35  1  0  0  0  0
  8 36  1  0  0  0  0
  9 37  1  0  0  0  0
 17 38  1  0  0  0  0
 17 39  1  0  0  0  0
 18 40  1  0  0  0  0
M  END
> <compound>
JOH-UNI-50ce7ec3-4

> <compound_smiles>
c1ccc2c(c1)c(cnc2C(F)F)N(C(=O)Cc3cccc(c3)Cl)S(=O)(=O)F

> <enantiomer_smiles>
c1ccc2c(c1)c(cnc2C(F)F)N(C(=O)Cc3cccc(c3)Cl)S(=O)(=O)F

> <scaffold>
chlorobenzene-linker

> <clash_score>
1.9785212426165204

> <docking_score>
-2.896505355834961

> <overlap_score>
1.0

> <MMFF_internal_energy>
71.44592809163012

> <docked_smiles>
c1ccc2c(c1)c(cnc2C(F)F)N(C(=O)Cc3cccc(c3)Cl)S(=O)(=O)F

$$$$
EDJ-MED-ee07cf00-1_2
  -OEChem-07262101023D

 54 57  0     1  0  0  0  0  0999 V2000
    4.8854    3.6419   19.7205 C   0  0  0  0  0  0  0  0  0  0  0  0
    5.5494    3.1500   20.8419 C   0  0  0  0  0  0  0  0  0  0  0  0
   11.9780    0.4600   23.9150 C   0  0  0  0  0  0  0  0  0  0  0  0
    4.7878    2.8619   18.5685 C   0  0  0  0  0  0  0  0  0  0  0  0
    6.1189    1.8757   20.8162 C   0  0  0  0  0  0  0  0  0  0  0  0
   10.6560    0.0720   23.7350 C   0  0  0  0  0  0  0  0  0  0  0  0
   12.9840   -0.1200   23.1530 C   0  0  0  0  0  0  0  0  0  0  0  0
   11.3360   -1.5050   22.0650 C   0  0  0  0  0  0  0  0  0  0  0  0
    5.2893    0.7552   17.4056 C   0  0  0  0  0  0  0  0  0  0  0  0
    6.4602   -0.9317   18.4342 C   0  0  0  0  0  0  0  0  0  0  0  0
    5.3570    1.5782   18.5316 C   0  0  0  0  0  0  0  0  0  0  0  0
    6.0301    1.0765   19.6647 C   0  0  0  0  0  0  0  0  0  0  0  0
   10.3220   -0.8940   22.7910 C   0  0  0  0  0  0  0  0  0  0  0  0
    6.5904   -0.2048   19.6077 C   0  0  0  0  0  0  0  0  0  0  0  0
   12.6400   -1.1000   22.2390 C   0  0  0  0  0  0  0  0  0  0  0  0
    3.9571   -3.6264   26.2588 C   0  0  0  0  0  0  0  0  0  0  0  0
    4.7571   -2.6540   25.8256 C   0  0  0  0  0  0  0  0  0  0  0  0
    4.4904   -4.6658   27.1618 C   0  0  0  0  0  0  0  0  0  0  0  0
    6.7006   -3.4863   27.0321 C   0  0  0  0  0  0  0  0  0  0  0  0
    7.7852   -1.9619   24.5559 C   0  0  0  0  0  0  0  0  0  0  0  0
    8.3880   -0.3240   21.3070 C   0  0  0  0  0  0  0  0  0  0  0  0
    6.4190   -5.5125   28.3990 C   0  0  0  0  0  0  0  0  0  0  0  0
    6.8759   -1.4529   25.6451 C   0  0  0  0  0  0  0  0  0  0  0  0
    8.8810   -1.1900   22.4510 C   0  0  2  0  0  0  0  0  0  0  0  0
    5.8237   -0.4845   17.3308 N   0  0  0  0  0  0  0  0  0  0  0  0
    6.0834   -2.5572   26.1773 N   0  0  0  0  0  0  0  0  0  0  0  0
    5.8431   -4.5207   27.4976 N   0  0  0  0  0  0  0  0  0  0  0  0
    7.2820   -0.7860   20.6970 N   0  0  0  0  0  0  0  0  0  0  0  0
    8.0375   -0.9810   23.6075 N   0  0  0  0  0  0  0  0  0  0  0  0
    3.7421   -5.5620   27.5467 O   0  0  0  0  0  0  0  0  0  0  0  0
    7.8905   -3.4170   27.3550 O   0  0  0  0  0  0  0  0  0  0  0  0
    8.2368   -3.1038   24.5313 O   0  0  0  0  0  0  0  0  0  0  0  0
    8.9170    0.7530   21.0260 O   0  0  0  0  0  0  0  0  0  0  0  0
   13.8840   -1.8490   21.2740 Cl  0  0  0  0  0  0  0  0  0  0  0  0
    4.4431    4.6335   19.7433 H   0  0  0  0  0  0  0  0  0  0  0  0
    5.6240    3.7591   21.7382 H   0  0  0  0  0  0  0  0  0  0  0  0
   12.2249    1.2198   24.6546 H   0  0  0  0  0  0  0  0  0  0  0  0
    4.2658    3.2613   17.7021 H   0  0  0  0  0  0  0  0  0  0  0  0
    6.6295    1.5271   21.7110 H   0  0  0  0  0  0  0  0  0  0  0  0
    9.8763    0.5350   24.3454 H   0  0  0  0  0  0  0  0  0  0  0  0
   14.0077    0.1988   23.2842 H   0  0  0  0  0  0  0  0  0  0  0  0
   11.0892   -2.3009   21.3624 H   0  0  0  0  0  0  0  0  0  0  0  0
    4.7855    1.0801   16.4994 H   0  0  0  0  0  0  0  0  0  0  0  0
    6.8767   -1.9306   18.3399 H   0  0  0  0  0  0  0  0  0  0  0  0
    2.9156   -3.6797   25.9650 H   0  0  0  0  0  0  0  0  0  0  0  0
    4.3769   -1.8851   25.1611 H   0  0  0  0  0  0  0  0  0  0  0  0
    6.8288   -6.3479   27.8123 H   0  0  0  0  0  0  0  0  0  0  0  0
    7.2239   -5.0488   28.9882 H   0  0  0  0  0  0  0  0  0  0  0  0
    5.6386   -5.8888   29.0769 H   0  0  0  0  0  0  0  0  0  0  0  0
    7.4742   -1.0177   26.4510 H   0  0  0  0  0  0  0  0  0  0  0  0
    6.2037   -0.6904   25.2408 H   0  0  0  0  0  0  0  0  0  0  0  0
    8.7711   -2.2448   22.1651 H   0  0  0  0  0  0  0  0  0  0  0  0
    6.8975   -1.6551   21.0614 H   0  0  0  0  0  0  0  0  0  0  0  0
    7.6082   -0.0685   23.7309 H   0  0  0  0  0  0  0  0  0  0  0  0
  1  2  1  0  0  0  0
  1  4  2  0  0  0  0
  2  5  2  0  0  0  0
  3  6  2  0  0  0  0
  3  7  1  0  0  0  0
  4 11  1  0  0  0  0
  5 12  1  0  0  0  0
  6 13  1  0  0  0  0
  7 15  2  0  0  0  0
  8 13  2  0  0  0  0
  8 15  1  0  0  0  0
  9 11  2  0  0  0  0
  9 25  1  0  0  0  0
 10 14  1  0  0  0  0
 10 25  2  0  0  0  0
 11 12  1  0  0  0  0
 12 14  2  0  0  0  0
 13 24  1  0  0  0  0
 14 28  1  0  0  0  0
 15 34  1  0  0  0  0
 16 17  2  0  0  0  0
 16 18  1  0  0  0  0
 17 26  1  0  0  0  0
 18 27  1  0  0  0  0
 18 30  2  0  0  0  0
 19 26  1  0  0  0  0
 19 27  1  0  0  0  0
 19 31  2  0  0  0  0
 20 23  1  0  0  0  0
 20 29  1  0  0  0  0
 20 32  2  0  0  0  0
 21 24  1  6  0  0  0
 21 28  1  0  0  0  0
 21 33  2  0  0  0  0
 22 27  1  0  0  0  0
 23 26  1  0  0  0  0
 24 29  1  0  0  0  0
  1 35  1  0  0  0  0
  2 36  1  0  0  0  0
  3 37  1  0  0  0  0
  4 38  1  0  0  0  0
  5 39  1  0  0  0  0
  6 40  1  0  0  0  0
  7 41  1  0  0  0  0
  8 42  1  0  0  0  0
  9 43  1  0  0  0  0
 10 44  1  0  0  0  0
 16 45  1  0  0  0  0
 17 46  1  0  0  0  0
 22 47  1  0  0  0  0
 22 48  1  0  0  0  0
 22 49  1  0  0  0  0
 23 50  1  0  0  0  0
 23 51  1  0  0  0  0
 24 52  1  0  0  0  0
 28 53  1  0  0  0  0
 29 54  1  0  0  0  0
M  END
> <compound>
EDJ-MED-ee07cf00-1

> <compound_smiles>
Cn1c(=O)ccn(c1=O)CC(=O)NC(c2cccc(c2)Cl)C(=O)Nc3cncc4c3cccc4

> <enantiomer_smiles>
Cn1c(=O)ccn(c1=O)CC(=O)N[C@H](c2cccc(c2)Cl)C(=O)Nc3cncc4c3cccc4

> <scaffold>
chlorobenzene-linker

> <canonical_CID>
EDJ-MED-ee07cf00-1

> <r_inhibition_at_20_uM>

> <r_inhibition_at_50_uM>

> <r_avg_IC50>
15.7719230180264

> <f_inhibition_at_20_uM>

> <f_inhibition_at_50_uM>

> <f_avg_IC50>
11.3094104721024

> <f_avg_pIC50>

> <relative_solubility_at_20_uM>

> <relative_solubility_at_100_uM>

> <trypsin_IC50>

> <NMR_std_ratio>

> <acrylamide>
False

> <chloroacetamide>
False

> <series>
Ugi

> <frag_id>

> <clash_score>
0.6530409271114618

> <docking_score>
-4.062012672424316

> <overlap_score>
0.829351007938385

> <MMFF_internal_energy>
65.12092633486749

> <docked_smiles>
Cn1c(=O)ccn(c1=O)CC(=O)N[C@H](c2cccc(c2)Cl)C(=O)Nc3cncc4c3cccc4

$$$$
EDJ-MED-ee07cf00-2_2
  -OEChem-07262101023D

 57 61  0     1  0  0  0  0  0999 V2000
    4.8854    3.6419   19.7205 C   0  0  0  0  0  0  0  0  0  0  0  0
    5.5494    3.1500   20.8419 C   0  0  0  0  0  0  0  0  0  0  0  0
   11.9780    0.4600   23.9150 C   0  0  0  0  0  0  0  0  0  0  0  0
    4.7878    2.8619   18.5685 C   0  0  0  0  0  0  0  0  0  0  0  0
    6.1189    1.8757   20.8162 C   0  0  0  0  0  0  0  0  0  0  0  0
   10.6560    0.0720   23.7350 C   0  0  0  0  0  0  0  0  0  0  0  0
   12.9840   -0.1200   23.1530 C   0  0  0  0  0  0  0  0  0  0  0  0
   11.3360   -1.5050   22.0650 C   0  0  0  0  0  0  0  0  0  0  0  0
    5.2893    0.7552   17.4056 C   0  0  0  0  0  0  0  0  0  0  0  0
    6.4602   -0.9317   18.4342 C   0  0  0  0  0  0  0  0  0  0  0  0
    5.3570    1.5782   18.5316 C   0  0  0  0  0  0  0  0  0  0  0  0
    6.0301    1.0765   19.6647 C   0  0  0  0  0  0  0  0  0  0  0  0
   10.3220   -0.8940   22.7910 C   0  0  0  0  0  0  0  0  0  0  0  0
    6.5904   -0.2048   19.6077 C   0  0  0  0  0  0  0  0  0  0  0  0
   12.6400   -1.1000   22.2390 C   0  0  0  0  0  0  0  0  0  0  0  0
    5.6774   -5.7156   29.2817 C   0  0  0  0  0  0  0  0  0  0  0  0
    4.4207   -5.8411   28.8318 C   0  0  0  0  0  0  0  0  0  0  0  0
    6.6981   -2.6173   26.6418 C   0  0  0  0  0  0  0  0  0  0  0  0
    7.6176   -3.0792   27.5298 C   0  0  0  0  0  0  0  0  0  0  0  0
    6.2323   -4.6269   28.4413 C   0  0  0  0  0  0  0  0  0  0  0  0
    5.3300   -3.2529   26.6214 C   0  0  0  0  0  0  0  0  0  0  0  0
    7.7918   -1.9674   24.5489 C   0  0  0  0  0  0  0  0  0  0  0  0
    8.3880   -0.3240   21.3070 C   0  0  0  0  0  0  0  0  0  0  0  0
    9.0214   -2.5330   27.5947 C   0  0  0  0  0  0  0  0  0  0  0  0
    6.8910   -1.4925   25.6665 C   0  0  0  0  0  0  0  0  0  0  0  0
    8.8810   -1.1900   22.4510 C   0  0  2  0  0  0  0  0  0  0  0  0
    5.8237   -0.4845   17.3308 N   0  0  0  0  0  0  0  0  0  0  0  0
    7.4039   -4.0979   28.4521 N   0  0  0  0  0  0  0  0  0  0  0  0
    4.1322   -4.9980   27.7982 N   0  0  0  0  0  0  0  0  0  0  0  0
    5.2293   -4.2268   27.5783 N   0  0  0  0  0  0  0  0  0  0  0  0
    7.2820   -0.7860   20.6970 N   0  0  0  0  0  0  0  0  0  0  0  0
    8.0374   -0.9809   23.6077 N   0  0  0  0  0  0  0  0  0  0  0  0
    4.4554   -2.9164   25.8323 O   0  0  0  0  0  0  0  0  0  0  0  0
    8.2494   -3.1085   24.5150 O   0  0  0  0  0  0  0  0  0  0  0  0
    8.9170    0.7530   21.0260 O   0  0  0  0  0  0  0  0  0  0  0  0
   13.8840   -1.8490   21.2740 Cl  0  0  0  0  0  0  0  0  0  0  0  0
    4.4431    4.6335   19.7433 H   0  0  0  0  0  0  0  0  0  0  0  0
    5.6240    3.7591   21.7382 H   0  0  0  0  0  0  0  0  0  0  0  0
   12.2249    1.2198   24.6546 H   0  0  0  0  0  0  0  0  0  0  0  0
    4.2658    3.2613   17.7021 H   0  0  0  0  0  0  0  0  0  0  0  0
    6.6295    1.5271   21.7110 H   0  0  0  0  0  0  0  0  0  0  0  0
    9.8763    0.5350   24.3454 H   0  0  0  0  0  0  0  0  0  0  0  0
   14.0077    0.1988   23.2842 H   0  0  0  0  0  0  0  0  0  0  0  0
   11.0892   -2.3009   21.3624 H   0  0  0  0  0  0  0  0  0  0  0  0
    4.7855    1.0801   16.4994 H   0  0  0  0  0  0  0  0  0  0  0  0
    6.8767   -1.9306   18.3399 H   0  0  0  0  0  0  0  0  0  0  0  0
    6.1757   -6.2324   30.0808 H   0  0  0  0  0  0  0  0  0  0  0  0
    3.6487   -6.4938   29.2078 H   0  0  0  0  0  0  0  0  0  0  0  0
    9.0471   -1.7015   28.2913 H   0  0  0  0  0  0  0  0  0  0  0  0
    9.3186   -2.1978   26.6061 H   0  0  0  0  0  0  0  0  0  0  0  0
    9.6928   -3.3176   27.9289 H   0  0  0  0  0  0  0  0  0  0  0  0
    7.3738   -0.6523   26.1655 H   0  0  0  0  0  0  0  0  0  0  0  0
    5.9155   -1.1689   25.3051 H   0  0  0  0  0  0  0  0  0  0  0  0
    8.7711   -2.2448   22.1651 H   0  0  0  0  0  0  0  0  0  0  0  0
    3.1961   -4.6497   27.6410 H   0  0  0  0  0  0  0  0  0  0  0  0
    6.8975   -1.6551   21.0614 H   0  0  0  0  0  0  0  0  0  0  0  0
    7.6046   -0.0714   23.7353 H   0  0  0  0  0  0  0  0  0  0  0  0
  1  2  1  0  0  0  0
  1  4  2  0  0  0  0
  2  5  2  0  0  0  0
  3  6  2  0  0  0  0
  3  7  1  0  0  0  0
  4 11  1  0  0  0  0
  5 12  1  0  0  0  0
  6 13  1  0  0  0  0
  7 15  2  0  0  0  0
  8 13  2  0  0  0  0
  8 15  1  0  0  0  0
  9 11  2  0  0  0  0
  9 27  1  0  0  0  0
 10 14  1  0  0  0  0
 10 27  2  0  0  0  0
 11 12  1  0  0  0  0
 12 14  2  0  0  0  0
 13 26  1  0  0  0  0
 14 31  1  0  0  0  0
 15 36  1  0  0  0  0
 16 17  2  0  0  0  0
 16 20  1  0  0  0  0
 17 29  1  0  0  0  0
 18 19  2  0  0  0  0
 18 21  1  0  0  0  0
 18 25  1  0  0  0  0
 19 24  1  0  0  0  0
 19 28  1  0  0  0  0
 20 28  2  0  0  0  0
 20 30  1  0  0  0  0
 21 30  1  0  0  0  0
 21 33  2  0  0  0  0
 22 25  1  0  0  0  0
 22 32  1  0  0  0  0
 22 34  2  0  0  0  0
 23 26  1  6  0  0  0
 23 31  1  0  0  0  0
 23 35  2  0  0  0  0
 26 32  1  0  0  0  0
 29 30  1  0  0  0  0
  1 37  1  0  0  0  0
  2 38  1  0  0  0  0
  3 39  1  0  0  0  0
  4 40  1  0  0  0  0
  5 41  1  0  0  0  0
  6 42  1  0  0  0  0
  7 43  1  0  0  0  0
  8 44  1  0  0  0  0
  9 45  1  0  0  0  0
 10 46  1  0  0  0  0
 16 47  1  0  0  0  0
 17 48  1  0  0  0  0
 24 49  1  0  0  0  0
 24 50  1  0  0  0  0
 24 51  1  0  0  0  0
 25 52  1  0  0  0  0
 25 53  1  0  0  0  0
 26 54  1  0  0  0  0
 29 55  1  0  0  0  0
 31 56  1  0  0  0  0
 32 57  1  0  0  0  0
M  END
> <compound>
EDJ-MED-ee07cf00-2

> <compound_smiles>
Cc1c(c(=O)n2c(n1)cc[nH]2)CC(=O)NC(c3cccc(c3)Cl)C(=O)Nc4cncc5c4cccc5

> <enantiomer_smiles>
Cc1c(c(=O)n2c(n1)cc[nH]2)CC(=O)N[C@H](c3cccc(c3)Cl)C(=O)Nc4cncc5c4cccc5

> <scaffold>
chlorobenzene-linker

> <clash_score>
0.6530438047660223

> <docking_score>
-4.375572681427002

> <overlap_score>
0.8246344923973083

> <MMFF_internal_energy>
146.44085790175245

> <docked_smiles>
Cc1c(c(=O)n2c(n1)cc[nH]2)CC(=O)N[C@H](c3cccc(c3)Cl)C(=O)Nc4cncc5c4cccc5

$$$$
JOH-UNI-50ce7ec3-3_1
  -OEChem-07262101023D

 44 46  0     0  0  0  0  0  0999 V2000
    3.9845    0.9863   22.8345 C   0  0  0  0  0  0  0  0  0  0  0  0
    3.1190    0.1675   23.5561 C   0  0  0  0  0  0  0  0  0  0  0  0
   11.9780    0.4600   23.9150 C   0  0  0  0  0  0  0  0  0  0  0  0
    5.0574    0.4293   22.1364 C   0  0  0  0  0  0  0  0  0  0  0  0
    3.3224   -1.2119   23.5829 C   0  0  0  0  0  0  0  0  0  0  0  0
   10.6560    0.0720   23.7350 C   0  0  0  0  0  0  0  0  0  0  0  0
   12.9840   -0.1200   23.1530 C   0  0  0  0  0  0  0  0  0  0  0  0
   11.3360   -1.5050   22.0650 C   0  0  0  0  0  0  0  0  0  0  0  0
    6.4933   -2.9234   21.5281 C   0  0  0  0  0  0  0  0  0  0  0  0
    5.2773   -0.9578   22.1525 C   0  0  0  0  0  0  0  0  0  0  0  0
    4.3988   -1.7833   22.8843 C   0  0  0  0  0  0  0  0  0  0  0  0
   10.3220   -0.8940   22.7910 C   0  0  0  0  0  0  0  0  0  0  0  0
    6.3437   -1.5465   21.4631 C   0  0  0  0  0  0  0  0  0  0  0  0
   12.6400   -1.1000   22.2390 C   0  0  0  0  0  0  0  0  0  0  0  0
    4.6490   -3.1570   22.8768 C   0  0  0  0  0  0  0  0  0  0  0  0
    4.8137    0.9597   18.4800 C   0  0  0  0  0  0  0  0  0  0  0  0
    6.0458    0.9885   18.9913 C   0  0  0  0  0  0  0  0  0  0  0  0
    8.3880   -0.3240   21.3070 C   0  0  0  0  0  0  0  0  0  0  0  0
    8.8810   -1.1900   22.4510 C   0  0  0  0  0  0  0  0  0  0  0  0
    3.7704   -4.1093   23.6243 C   0  0  0  0  0  0  0  0  0  0  0  0
    5.6730   -3.7446   22.2176 N   0  0  0  0  0  0  0  0  0  0  0  0
    7.2820   -0.7860   20.6970 N   0  0  0  0  0  0  0  0  0  0  0  0
    8.9170    0.7530   21.0260 O   0  0  0  0  0  0  0  0  0  0  0  0
    6.0736   -1.5547   18.5265 O   0  0  0  0  0  0  0  0  0  0  0  0
    8.2010   -0.2499   18.3235 O   0  0  0  0  0  0  0  0  0  0  0  0
    3.7841   -3.8317   24.9529 F   0  0  0  0  0  0  0  0  0  0  0  0
    4.2205   -5.3827   23.4886 F   0  0  0  0  0  0  0  0  0  0  0  0
    6.9441   -0.4963   19.0099 S   0  0  0  0  0  0  0  0  0  0  0  0
   13.8840   -1.8490   21.2740 Cl  0  0  0  0  0  0  0  0  0  0  0  0
    3.8245    2.0605   22.8148 H   0  0  0  0  0  0  0  0  0  0  0  0
    2.2850    0.6038   24.0983 H   0  0  0  0  0  0  0  0  0  0  0  0
   12.2249    1.2198   24.6546 H   0  0  0  0  0  0  0  0  0  0  0  0
    5.7114    1.1005   21.5846 H   0  0  0  0  0  0  0  0  0  0  0  0
    2.6284   -1.8221   24.1556 H   0  0  0  0  0  0  0  0  0  0  0  0
    9.8763    0.5350   24.3454 H   0  0  0  0  0  0  0  0  0  0  0  0
   14.0077    0.1988   23.2842 H   0  0  0  0  0  0  0  0  0  0  0  0
   11.0892   -2.3009   21.3624 H   0  0  0  0  0  0  0  0  0  0  0  0
    7.3047   -3.4269   21.0107 H   0  0  0  0  0  0  0  0  0  0  0  0
    4.2164    1.8647   18.4487 H   0  0  0  0  0  0  0  0  0  0  0  0
    4.3715    0.0514   18.0848 H   0  0  0  0  0  0  0  0  0  0  0  0
    6.4849    1.8963   19.3854 H   0  0  0  0  0  0  0  0  0  0  0  0
    8.8004   -2.2437   22.1804 H   0  0  0  0  0  0  0  0  0  0  0  0
    8.2596   -1.0135   23.3294 H   0  0  0  0  0  0  0  0  0  0  0  0
    2.7364   -4.0763   23.2811 H   0  0  0  0  0  0  0  0  0  0  0  0
  1  2  1  0  0  0  0
  1  4  2  0  0  0  0
  2  5  2  0  0  0  0
  3  6  2  0  0  0  0
  3  7  1  0  0  0  0
  4 10  1  0  0  0  0
  5 11  1  0  0  0  0
  6 12  1  0  0  0  0
  7 14  2  0  0  0  0
  8 12  2  0  0  0  0
  8 14  1  0  0  0  0
  9 13  1  0  0  0  0
  9 21  2  0  0  0  0
 10 11  1  0  0  0  0
 10 13  2  0  0  0  0
 11 15  2  0  0  0  0
 12 19  1  0  0  0  0
 13 22  1  0  0  0  0
 14 29  1  0  0  0  0
 15 20  1  0  0  0  0
 15 21  1  0  0  0  0
 16 17  2  0  0  0  0
 17 28  1  0  0  0  0
 18 19  1  0  0  0  0
 18 22  1  0  0  0  0
 18 23  2  0  0  0  0
 20 26  1  0  0  0  0
 20 27  1  0  0  0  0
 22 28  1  0  0  0  0
 24 28  2  0  0  0  0
 25 28  2  0  0  0  0
  1 30  1  0  0  0  0
  2 31  1  0  0  0  0
  3 32  1  0  0  0  0
  4 33  1  0  0  0  0
  5 34  1  0  0  0  0
  6 35  1  0  0  0  0
  7 36  1  0  0  0  0
  8 37  1  0  0  0  0
  9 38  1  0  0  0  0
 16 39  1  0  0  0  0
 16 40  1  0  0  0  0
 17 41  1  0  0  0  0
 19 42  1  0  0  0  0
 19 43  1  0  0  0  0
 20 44  1  0  0  0  0
M  END
> <compound>
JOH-UNI-50ce7ec3-3

> <compound_smiles>
C=CS(=O)(=O)N(c1cnc(c2c1cccc2)C(F)F)C(=O)Cc3cccc(c3)Cl

> <enantiomer_smiles>
C=CS(=O)(=O)N(c1cnc(c2c1cccc2)C(F)F)C(=O)Cc3cccc(c3)Cl

> <scaffold>
chlorobenzene-linker

> <clash_score>
3.9066724502432195

> <docking_score>
-1.5450186729431152

> <overlap_score>
0.7592633366584778

> <MMFF_internal_energy>
83.58862481691024

> <docked_smiles>
C=CS(=O)(=O)N(c1cnc(c2c1cccc2)C(F)F)C(=O)Cc3cccc(c3)Cl

$$$$
EDJ-MED-ee07cf00-3_2
  -OEChem-07262101023D

 56 60  0     1  0  0  0  0  0999 V2000
    2.5578    0.9697   19.8184 C   0  0  0  0  0  0  0  0  0  0  0  0
    3.1679    0.4166   20.9418 C   0  0  0  0  0  0  0  0  0  0  0  0
   11.9780    0.4600   23.9150 C   0  0  0  0  0  0  0  0  0  0  0  0
    3.2816    1.1263   18.6366 C   0  0  0  0  0  0  0  0  0  0  0  0
    4.5045    0.0176   20.8886 C   0  0  0  0  0  0  0  0  0  0  0  0
   10.6560    0.0720   23.7350 C   0  0  0  0  0  0  0  0  0  0  0  0
   12.9840   -0.1200   23.1530 C   0  0  0  0  0  0  0  0  0  0  0  0
   11.3360   -1.5050   22.0650 C   0  0  0  0  0  0  0  0  0  0  0  0
    5.3982    0.8618   17.4152 C   0  0  0  0  0  0  0  0  0  0  0  0
    2.1301   -4.0123   26.2981 C   0  0  0  0  0  0  0  0  0  0  0  0
    7.2560   -0.0413   18.4191 C   0  0  0  0  0  0  0  0  0  0  0  0
    4.6272    0.7281   18.5716 C   0  0  0  0  0  0  0  0  0  0  0  0
    5.2484    0.1678   19.7068 C   0  0  0  0  0  0  0  0  0  0  0  0
    3.4326   -3.5222   26.1288 C   0  0  0  0  0  0  0  0  0  0  0  0
   10.3220   -0.8940   22.7910 C   0  0  0  0  0  0  0  0  0  0  0  0
    6.5899   -0.2225   19.6216 C   0  0  0  0  0  0  0  0  0  0  0  0
   12.6400   -1.1000   22.2390 C   0  0  0  0  0  0  0  0  0  0  0  0
    4.2466   -4.4690   26.7014 C   0  0  0  0  0  0  0  0  0  0  0  0
    6.1263   -3.4139   26.2691 C   0  0  0  0  0  0  0  0  0  0  0  0
    4.0204   -2.3466   25.5359 C   0  0  0  0  0  0  0  0  0  0  0  0
    6.8496   -1.6676   23.8143 C   0  0  0  0  0  0  0  0  0  0  0  0
    8.3880   -0.3240   21.3070 C   0  0  0  0  0  0  0  0  0  0  0  0
    3.7947   -6.6569   27.8518 C   0  0  0  0  0  0  0  0  0  0  0  0
    6.1878   -1.2463   25.1014 C   0  0  0  0  0  0  0  0  0  0  0  0
    8.8810   -1.1900   22.4510 C   0  0  2  0  0  0  0  0  0  0  0  0
    6.6946    0.4912   17.3129 N   0  0  0  0  0  0  0  0  0  0  0  0
    2.1129   -5.1904   26.9345 N   0  0  0  0  0  0  0  0  0  0  0  0
    5.5944   -4.4754   26.8041 N   0  0  0  0  0  0  0  0  0  0  0  0
    3.4174   -5.4429   27.1673 N   0  0  0  0  0  0  0  0  0  0  0  0
    5.4219   -2.3730   25.6540 N   0  0  0  0  0  0  0  0  0  0  0  0
    7.2820   -0.7860   20.6970 N   0  0  0  0  0  0  0  0  0  0  0  0
    8.0352   -0.9804   23.6107 N   0  0  0  0  0  0  0  0  0  0  0  0
    3.3437   -1.4703   25.0100 O   0  0  0  0  0  0  0  0  0  0  0  0
    6.3810   -2.5155   23.0594 O   0  0  0  0  0  0  0  0  0  0  0  0
    8.9170    0.7530   21.0260 O   0  0  0  0  0  0  0  0  0  0  0  0
   13.8840   -1.8490   21.2740 Cl  0  0  0  0  0  0  0  0  0  0  0  0
    1.5177    1.2791   19.8626 H   0  0  0  0  0  0  0  0  0  0  0  0
    2.6022    0.2953   21.8613 H   0  0  0  0  0  0  0  0  0  0  0  0
   12.2249    1.2198   24.6546 H   0  0  0  0  0  0  0  0  0  0  0  0
    2.7899    1.5597   17.7688 H   0  0  0  0  0  0  0  0  0  0  0  0
    4.9456   -0.4092   21.7864 H   0  0  0  0  0  0  0  0  0  0  0  0
    9.8763    0.5350   24.3454 H   0  0  0  0  0  0  0  0  0  0  0  0
   14.0077    0.1988   23.2842 H   0  0  0  0  0  0  0  0  0  0  0  0
   11.0892   -2.3009   21.3624 H   0  0  0  0  0  0  0  0  0  0  0  0
    4.9815    1.2854   16.5055 H   0  0  0  0  0  0  0  0  0  0  0  0
    1.1923   -3.5716   25.9909 H   0  0  0  0  0  0  0  0  0  0  0  0
    8.2971   -0.3285   18.3019 H   0  0  0  0  0  0  0  0  0  0  0  0
    7.2198   -3.2765   26.2756 H   0  0  0  0  0  0  0  0  0  0  0  0
    3.8158   -6.4468   28.9243 H   0  0  0  0  0  0  0  0  0  0  0  0
    3.0657   -7.4414   27.6302 H   0  0  0  0  0  0  0  0  0  0  0  0
    4.7811   -6.9762   27.5040 H   0  0  0  0  0  0  0  0  0  0  0  0
    6.9496   -0.9397   25.8242 H   0  0  0  0  0  0  0  0  0  0  0  0
    5.5095   -0.4090   24.9129 H   0  0  0  0  0  0  0  0  0  0  0  0
    8.7711   -2.2448   22.1651 H   0  0  0  0  0  0  0  0  0  0  0  0
    6.8984   -1.6618   21.0676 H   0  0  0  0  0  0  0  0  0  0  0  0
    8.3242   -0.2999   24.3048 H   0  0  0  0  0  0  0  0  0  0  0  0
  1  2  1  0  0  0  0
  1  4  2  0  0  0  0
  2  5  2  0  0  0  0
  3  6  2  0  0  0  0
  3  7  1  0  0  0  0
  4 12  1  0  0  0  0
  5 13  1  0  0  0  0
  6 15  1  0  0  0  0
  7 17  2  0  0  0  0
  8 15  2  0  0  0  0
  8 17  1  0  0  0  0
  9 12  2  0  0  0  0
  9 26  1  0  0  0  0
 10 14  1  0  0  0  0
 10 27  2  0  0  0  0
 11 16  1  0  0  0  0
 11 26  2  0  0  0  0
 12 13  1  0  0  0  0
 13 16  2  0  0  0  0
 14 18  2  0  0  0  0
 14 20  1  0  0  0  0
 15 25  1  0  0  0  0
 16 31  1  0  0  0  0
 17 36  1  0  0  0  0
 18 28  1  0  0  0  0
 18 29  1  0  0  0  0
 19 28  2  0  0  0  0
 19 30  1  0  0  0  0
 20 30  1  0  0  0  0
 20 33  2  0  0  0  0
 21 24  1  0  0  0  0
 21 32  1  0  0  0  0
 21 34  2  0  0  0  0
 22 25  1  6  0  0  0
 22 31  1  0  0  0  0
 22 35  2  0  0  0  0
 23 29  1  0  0  0  0
 24 30  1  0  0  0  0
 25 32  1  0  0  0  0
 27 29  1  0  0  0  0
  1 37  1  0  0  0  0
  2 38  1  0  0  0  0
  3 39  1  0  0  0  0
  4 40  1  0  0  0  0
  5 41  1  0  0  0  0
  6 42  1  0  0  0  0
  7 43  1  0  0  0  0
  8 44  1  0  0  0  0
  9 45  1  0  0  0  0
 10 46  1  0  0  0  0
 11 47  1  0  0  0  0
 19 48  1  0  0  0  0
 23 49  1  0  0  0  0
 23 50  1  0  0  0  0
 23 51  1  0  0  0  0
 24 52  1  0  0  0  0
 24 53  1  0  0  0  0
 25 54  1  0  0  0  0
 31 55  1  0  0  0  0
 32 56  1  0  0  0  0
M  END
> <compound>
EDJ-MED-ee07cf00-3

> <compound_smiles>
Cn1c2c(cn1)c(=O)n(cn2)CC(=O)NC(c3cccc(c3)Cl)C(=O)Nc4cncc5c4cccc5

> <enantiomer_smiles>
Cn1c2c(cn1)c(=O)n(cn2)CC(=O)N[C@H](c3cccc(c3)Cl)C(=O)Nc4cncc5c4cccc5

> <scaffold>
chlorobenzene-linker

> <canonical_CID>
EDJ-MED-ee07cf00-3

> <r_inhibition_at_20_uM>

> <r_inhibition_at_50_uM>

> <r_avg_IC50>
99.0

> <f_inhibition_at_20_uM>

> <f_inhibition_at_50_uM>

> <f_avg_IC50>
23.7509200274471

> <f_avg_pIC50>

> <relative_solubility_at_20_uM>

> <relative_solubility_at_100_uM>

> <trypsin_IC50>

> <NMR_std_ratio>

> <acrylamide>
False

> <chloroacetamide>
False

> <series>
Ugi

> <frag_id>

> <clash_score>
0.6126678397062502

> <docking_score>
-2.728992462158203

> <overlap_score>
0.8773590922355652

> <MMFF_internal_energy>
93.74404943244572

> <docked_smiles>
Cn1c2c(cn1)c(=O)n(cn2)CC(=O)N[C@H](c3cccc(c3)Cl)C(=O)Nc4cncc5c4cccc5

$$$$
JOH-UNI-50ce7ec3-5_1
  -OEChem-07262101023D

 41 42  0     0  0  0  0  0  0999 V2000
   11.9780    0.4600   23.9150 C   0  0  0  0  0  0  0  0  0  0  0  0
   10.6560    0.0720   23.7350 C   0  0  0  0  0  0  0  0  0  0  0  0
   12.9840   -0.1200   23.1530 C   0  0  0  0  0  0  0  0  0  0  0  0
   11.3360   -1.5050   22.0650 C   0  0  0  0  0  0  0  0  0  0  0  0
    5.3037    1.6817   18.6966 C   0  0  0  0  0  0  0  0  0  0  0  0
    7.1607   -0.2778   18.2993 C   0  0  0  0  0  0  0  0  0  0  0  0
   10.3220   -0.8940   22.7910 C   0  0  0  0  0  0  0  0  0  0  0  0
    5.7948    0.9756   19.7892 C   0  0  0  0  0  0  0  0  0  0  0  0
    6.7412   -0.0244   19.5953 C   0  0  0  0  0  0  0  0  0  0  0  0
   12.6400   -1.1000   22.2390 C   0  0  0  0  0  0  0  0  0  0  0  0
    5.7878    1.3520   17.4409 C   0  0  0  0  0  0  0  0  0  0  0  0
    7.8212   -4.4894   20.8577 C   0  0  0  0  0  0  0  0  0  0  0  0
    7.2155   -3.4928   20.2093 C   0  0  0  0  0  0  0  0  0  0  0  0
    8.3880   -0.3240   21.3070 C   0  0  0  0  0  0  0  0  0  0  0  0
    5.2922    1.3084   21.1555 C   0  0  0  0  0  0  0  0  0  0  0  0
    8.8810   -1.1900   22.4510 C   0  0  0  0  0  0  0  0  0  0  0  0
    5.2827    2.0888   16.2455 C   0  0  0  0  0  0  0  0  0  0  0  0
    6.7068    0.3870   17.2132 N   0  0  0  0  0  0  0  0  0  0  0  0
    7.2820   -0.7860   20.6970 N   0  0  0  0  0  0  0  0  0  0  0  0
    8.9170    0.7530   21.0260 O   0  0  0  0  0  0  0  0  0  0  0  0
    5.0729   -2.1567   20.7647 O   0  0  0  0  0  0  0  0  0  0  0  0
    6.7863   -2.5213   22.5538 O   0  0  0  0  0  0  0  0  0  0  0  0
    4.9129    3.3531   16.5783 F   0  0  0  0  0  0  0  0  0  0  0  0
    4.1768    1.4843   15.7383 F   0  0  0  0  0  0  0  0  0  0  0  0
    6.4675   -2.2502   21.1622 S   0  0  0  0  0  0  0  0  0  0  0  0
   13.8840   -1.8490   21.2740 Cl  0  0  0  0  0  0  0  0  0  0  0  0
   12.2249    1.2198   24.6546 H   0  0  0  0  0  0  0  0  0  0  0  0
    9.8763    0.5350   24.3454 H   0  0  0  0  0  0  0  0  0  0  0  0
   14.0077    0.1988   23.2842 H   0  0  0  0  0  0  0  0  0  0  0  0
   11.0892   -2.3009   21.3624 H   0  0  0  0  0  0  0  0  0  0  0  0
    4.5654    2.4670   18.8245 H   0  0  0  0  0  0  0  0  0  0  0  0
    7.8966   -1.0470   18.0847 H   0  0  0  0  0  0  0  0  0  0  0  0
    8.3015   -5.2875   20.3018 H   0  0  0  0  0  0  0  0  0  0  0  0
    7.8562   -4.5391   21.9407 H   0  0  0  0  0  0  0  0  0  0  0  0
    7.1818   -3.4455   19.1281 H   0  0  0  0  0  0  0  0  0  0  0  0
    4.4113    0.7015   21.3946 H   0  0  0  0  0  0  0  0  0  0  0  0
    6.0606    1.1242   21.9164 H   0  0  0  0  0  0  0  0  0  0  0  0
    5.0173    2.3680   21.2296 H   0  0  0  0  0  0  0  0  0  0  0  0
    8.8004   -2.2437   22.1804 H   0  0  0  0  0  0  0  0  0  0  0  0
    8.2596   -1.0135   23.3294 H   0  0  0  0  0  0  0  0  0  0  0  0
    6.0261    2.1539   15.4492 H   0  0  0  0  0  0  0  0  0  0  0  0
  1  2  2  0  0  0  0
  1  3  1  0  0  0  0
  2  7  1  0  0  0  0
  3 10  2  0  0  0  0
  4  7  2  0  0  0  0
  4 10  1  0  0  0  0
  5  8  1  0  0  0  0
  5 11  2  0  0  0  0
  6  9  1  0  0  0  0
  6 18  2  0  0  0  0
  7 16  1  0  0  0  0
  8  9  2  0  0  0  0
  8 15  1  0  0  0  0
  9 19  1  0  0  0  0
 10 26  1  0  0  0  0
 11 17  1  0  0  0  0
 11 18  1  0  0  0  0
 12 13  2  0  0  0  0
 13 25  1  0  0  0  0
 14 16  1  0  0  0  0
 14 19  1  0  0  0  0
 14 20  2  0  0  0  0
 17 23  1  0  0  0  0
 17 24  1  0  0  0  0
 19 25  1  0  0  0  0
 21 25  2  0  0  0  0
 22 25  2  0  0  0  0
  1 27  1  0  0  0  0
  2 28  1  0  0  0  0
  3 29  1  0  0  0  0
  4 30  1  0  0  0  0
  5 31  1  0  0  0  0
  6 32  1  0  0  0  0
 12 33  1  0  0  0  0
 12 34  1  0  0  0  0
 13 35  1  0  0  0  0
 15 36  1  0  0  0  0
 15 37  1  0  0  0  0
 15 38  1  0  0  0  0
 16 39  1  0  0  0  0
 16 40  1  0  0  0  0
 17 41  1  0  0  0  0
M  END
> <compound>
JOH-UNI-50ce7ec3-5

> <compound_smiles>
Cc1cc(ncc1N(C(=O)Cc2cccc(c2)Cl)S(=O)(=O)C=C)C(F)F

> <enantiomer_smiles>
Cc1cc(ncc1N(C(=O)Cc2cccc(c2)Cl)S(=O)(=O)C=C)C(F)F

> <scaffold>
chlorobenzene-linker

> <clash_score>
4.216108261713874

> <docking_score>
-4.414361476898193

> <overlap_score>
0.8639916181564331

> <MMFF_internal_energy>
65.91534097095297

> <docked_smiles>
Cc1cc(ncc1N(C(=O)Cc2cccc(c2)Cl)S(=O)(=O)C=C)C(F)F

$$$$
EDJ-MED-ee07cf00-2_1
  -OEChem-07262101023D

 57 61  0     1  0  0  0  0  0999 V2000
    4.8854    3.6419   19.7205 C   0  0  0  0  0  0  0  0  0  0  0  0
    5.5494    3.1500   20.8419 C   0  0  0  0  0  0  0  0  0  0  0  0
   11.9780    0.4600   23.9150 C   0  0  0  0  0  0  0  0  0  0  0  0
    4.7878    2.8619   18.5686 C   0  0  0  0  0  0  0  0  0  0  0  0
    6.1189    1.8757   20.8162 C   0  0  0  0  0  0  0  0  0  0  0  0
   10.6560    0.0720   23.7350 C   0  0  0  0  0  0  0  0  0  0  0  0
   12.9840   -0.1200   23.1530 C   0  0  0  0  0  0  0  0  0  0  0  0
   11.3360   -1.5050   22.0650 C   0  0  0  0  0  0  0  0  0  0  0  0
    5.2893    0.7552   17.4056 C   0  0  0  0  0  0  0  0  0  0  0  0
    6.4602   -0.9317   18.4342 C   0  0  0  0  0  0  0  0  0  0  0  0
    5.3570    1.5782   18.5316 C   0  0  0  0  0  0  0  0  0  0  0  0
    6.0301    1.0765   19.6647 C   0  0  0  0  0  0  0  0  0  0  0  0
   10.3220   -0.8940   22.7910 C   0  0  0  0  0  0  0  0  0  0  0  0
    6.5904   -0.2048   19.6077 C   0  0  0  0  0  0  0  0  0  0  0  0
   12.6400   -1.1000   22.2390 C   0  0  0  0  0  0  0  0  0  0  0  0
    3.0176   -6.8475   23.0605 C   0  0  0  0  0  0  0  0  0  0  0  0
    2.7679   -6.8385   21.7433 C   0  0  0  0  0  0  0  0  0  0  0  0
    6.9670   -5.4784   22.6885 C   0  0  0  0  0  0  0  0  0  0  0  0
    6.4546   -5.7378   23.9204 C   0  0  0  0  0  0  0  0  0  0  0  0
    4.4219   -6.3779   23.1435 C   0  0  0  0  0  0  0  0  0  0  0  0
    6.0950   -5.7107   21.4794 C   0  0  0  0  0  0  0  0  0  0  0  0
    8.4772   -3.5797   23.0247 C   0  0  0  0  0  0  0  0  0  0  0  0
    8.3880   -0.3240   21.3070 C   0  0  0  0  0  0  0  0  0  0  0  0
    7.2645   -5.5740   25.1815 C   0  0  0  0  0  0  0  0  0  0  0  0
    8.3382   -4.9451   22.3902 C   0  0  0  0  0  0  0  0  0  0  0  0
    8.8810   -1.1900   22.4510 C   0  0  1  0  0  0  0  0  0  0  0  0
    5.8237   -0.4845   17.3308 N   0  0  0  0  0  0  0  0  0  0  0  0
    5.1663   -6.1951   24.1756 N   0  0  0  0  0  0  0  0  0  0  0  0
    3.8436   -6.4591   20.9940 N   0  0  0  0  0  0  0  0  0  0  0  0
    4.8497   -6.1418   21.8505 N   0  0  0  0  0  0  0  0  0  0  0  0
    7.2820   -0.7860   20.6970 N   0  0  0  0  0  0  0  0  0  0  0  0
    8.7221   -2.5829   22.0943 N   0  0  0  0  0  0  0  0  0  0  0  0
    6.4902   -5.5309   20.3338 O   0  0  0  0  0  0  0  0  0  0  0  0
    8.3679   -3.4055   24.2373 O   0  0  0  0  0  0  0  0  0  0  0  0
    8.9170    0.7530   21.0260 O   0  0  0  0  0  0  0  0  0  0  0  0
   13.8840   -1.8490   21.2740 Cl  0  0  0  0  0  0  0  0  0  0  0  0
    4.4431    4.6335   19.7433 H   0  0  0  0  0  0  0  0  0  0  0  0
    5.6240    3.7591   21.7382 H   0  0  0  0  0  0  0  0  0  0  0  0
   12.2249    1.2198   24.6546 H   0  0  0  0  0  0  0  0  0  0  0  0
    4.2658    3.2613   17.7021 H   0  0  0  0  0  0  0  0  0  0  0  0
    6.6295    1.5271   21.7110 H   0  0  0  0  0  0  0  0  0  0  0  0
    9.8763    0.5350   24.3454 H   0  0  0  0  0  0  0  0  0  0  0  0
   14.0077    0.1988   23.2842 H   0  0  0  0  0  0  0  0  0  0  0  0
   11.0892   -2.3009   21.3624 H   0  0  0  0  0  0  0  0  0  0  0  0
    4.7855    1.0801   16.4994 H   0  0  0  0  0  0  0  0  0  0  0  0
    6.8767   -1.9306   18.3399 H   0  0  0  0  0  0  0  0  0  0  0  0
    2.3680   -7.0895   23.8810 H   0  0  0  0  0  0  0  0  0  0  0  0
    1.8373   -7.0662   21.2478 H   0  0  0  0  0  0  0  0  0  0  0  0
    7.1421   -4.5620   25.5533 H   0  0  0  0  0  0  0  0  0  0  0  0
    8.3100   -5.7636   24.9599 H   0  0  0  0  0  0  0  0  0  0  0  0
    6.9158   -6.2861   25.9227 H   0  0  0  0  0  0  0  0  0  0  0  0
    8.4649   -4.8394   21.3128 H   0  0  0  0  0  0  0  0  0  0  0  0
    9.0792   -5.6527   22.7601 H   0  0  0  0  0  0  0  0  0  0  0  0
    8.2436   -1.0112   23.3272 H   0  0  0  0  0  0  0  0  0  0  0  0
    3.7339   -5.9913   20.1044 H   0  0  0  0  0  0  0  0  0  0  0  0
    6.8975   -1.6551   21.0614 H   0  0  0  0  0  0  0  0  0  0  0  0
    8.7929   -2.8414   21.1150 H   0  0  0  0  0  0  0  0  0  0  0  0
  1  2  1  0  0  0  0
  1  4  2  0  0  0  0
  2  5  2  0  0  0  0
  3  6  2  0  0  0  0
  3  7  1  0  0  0  0
  4 11  1  0  0  0  0
  5 12  1  0  0  0  0
  6 13  1  0  0  0  0
  7 15  2  0  0  0  0
  8 13  2  0  0  0  0
  8 15  1  0  0  0  0
  9 11  2  0  0  0  0
  9 27  1  0  0  0  0
 10 14  1  0  0  0  0
 10 27  2  0  0  0  0
 11 12  1  0  0  0  0
 12 14  2  0  0  0  0
 13 26  1  0  0  0  0
 14 31  1  0  0  0  0
 15 36  1  0  0  0  0
 16 17  2  0  0  0  0
 16 20  1  0  0  0  0
 17 29  1  0  0  0  0
 18 19  2  0  0  0  0
 18 21  1  0  0  0  0
 18 25  1  0  0  0  0
 19 24  1  0  0  0  0
 19 28  1  0  0  0  0
 20 28  2  0  0  0  0
 20 30  1  0  0  0  0
 21 30  1  0  0  0  0
 21 33  2  0  0  0  0
 22 25  1  0  0  0  0
 22 32  1  0  0  0  0
 22 34  2  0  0  0  0
 23 26  1  1  0  0  0
 23 31  1  0  0  0  0
 23 35  2  0  0  0  0
 26 32  1  0  0  0  0
 29 30  1  0  0  0  0
  1 37  1  0  0  0  0
  2 38  1  0  0  0  0
  3 39  1  0  0  0  0
  4 40  1  0  0  0  0
  5 41  1  0  0  0  0
  6 42  1  0  0  0  0
  7 43  1  0  0  0  0
  8 44  1  0  0  0  0
  9 45  1  0  0  0  0
 10 46  1  0  0  0  0
 16 47  1  0  0  0  0
 17 48  1  0  0  0  0
 24 49  1  0  0  0  0
 24 50  1  0  0  0  0
 24 51  1  0  0  0  0
 25 52  1  0  0  0  0
 25 53  1  0  0  0  0
 26 54  1  0  0  0  0
 29 55  1  0  0  0  0
 31 56  1  0  0  0  0
 32 57  1  0  0  0  0
M  END
> <compound>
EDJ-MED-ee07cf00-2

> <compound_smiles>
Cc1c(c(=O)n2c(n1)cc[nH]2)CC(=O)NC(c3cccc(c3)Cl)C(=O)Nc4cncc5c4cccc5

> <enantiomer_smiles>
Cc1c(c(=O)n2c(n1)cc[nH]2)CC(=O)N[C@@H](c3cccc(c3)Cl)C(=O)Nc4cncc5c4cccc5

> <scaffold>
chlorobenzene-linker

> <clash_score>
1.2658810854942153

> <docking_score>
-4.498377799987793

> <overlap_score>
0.824944257736206

> <MMFF_internal_energy>
148.47705153125534

> <docked_smiles>
Cc1c(c(=O)n2c(n1)cc[nH]2)CC(=O)N[C@@H](c3cccc(c3)Cl)C(=O)Nc4cncc5c4cccc5

$$$$
EDJ-MED-ee07cf00-3_1
  -OEChem-07262101023D

 56 60  0     1  0  0  0  0  0999 V2000
    4.8610    3.6140   19.7216 C   0  0  0  0  0  0  0  0  0  0  0  0
    5.5339    3.1326   20.8422 C   0  0  0  0  0  0  0  0  0  0  0  0
   11.9780    0.4600   23.9150 C   0  0  0  0  0  0  0  0  0  0  0  0
    4.7625    2.8268   18.5745 C   0  0  0  0  0  0  0  0  0  0  0  0
    6.1113    1.8618   20.8208 C   0  0  0  0  0  0  0  0  0  0  0  0
   10.6560    0.0720   23.7350 C   0  0  0  0  0  0  0  0  0  0  0  0
   12.9840   -0.1200   23.1530 C   0  0  0  0  0  0  0  0  0  0  0  0
   11.3360   -1.5050   22.0650 C   0  0  0  0  0  0  0  0  0  0  0  0
    5.2714    0.7168   17.4209 C   0  0  0  0  0  0  0  0  0  0  0  0
    4.8807   -7.9339   24.4700 C   0  0  0  0  0  0  0  0  0  0  0  0
    6.4583   -0.9568   18.4529 C   0  0  0  0  0  0  0  0  0  0  0  0
    5.3397    1.5465   18.5418 C   0  0  0  0  0  0  0  0  0  0  0  0
    6.0217    1.0556   19.6743 C   0  0  0  0  0  0  0  0  0  0  0  0
    5.5520   -6.9689   23.7061 C   0  0  0  0  0  0  0  0  0  0  0  0
   10.3220   -0.8940   22.7910 C   0  0  0  0  0  0  0  0  0  0  0  0
    6.5899   -0.2225   19.6216 C   0  0  0  0  0  0  0  0  0  0  0  0
   12.6400   -1.1000   22.2390 C   0  0  0  0  0  0  0  0  0  0  0  0
    4.5726   -6.3621   22.9582 C   0  0  0  0  0  0  0  0  0  0  0  0
    5.9296   -4.9708   21.9306 C   0  0  0  0  0  0  0  0  0  0  0  0
    6.9205   -6.5363   23.5673 C   0  0  0  0  0  0  0  0  0  0  0  0
    8.4768   -3.5851   23.0219 C   0  0  0  0  0  0  0  0  0  0  0  0
    8.3880   -0.3240   21.3070 C   0  0  0  0  0  0  0  0  0  0  0  0
    2.0870   -6.6906   22.7882 C   0  0  0  0  0  0  0  0  0  0  0  0
    8.3551   -4.9322   22.3566 C   0  0  0  0  0  0  0  0  0  0  0  0
    8.8810   -1.1900   22.4510 C   0  0  1  0  0  0  0  0  0  0  0  0
    5.8133   -0.5200   17.3503 N   0  0  0  0  0  0  0  0  0  0  0  0
    3.5639   -7.9432   24.2272 N   0  0  0  0  0  0  0  0  0  0  0  0
    4.6939   -5.3620   22.0570 N   0  0  0  0  0  0  0  0  0  0  0  0
    3.4063   -6.9745   23.3017 N   0  0  0  0  0  0  0  0  0  0  0  0
    7.0244   -5.4967   22.6254 N   0  0  0  0  0  0  0  0  0  0  0  0
    7.2820   -0.7860   20.6970 N   0  0  0  0  0  0  0  0  0  0  0  0
    8.7217   -2.5865   22.0933 N   0  0  0  0  0  0  0  0  0  0  0  0
    7.8349   -7.0402   24.2096 O   0  0  0  0  0  0  0  0  0  0  0  0
    8.3666   -3.4174   24.2336 O   0  0  0  0  0  0  0  0  0  0  0  0
    8.9170    0.7530   21.0260 O   0  0  0  0  0  0  0  0  0  0  0  0
   13.8840   -1.8490   21.2740 Cl  0  0  0  0  0  0  0  0  0  0  0  0
    4.4125    4.6029   19.7410 H   0  0  0  0  0  0  0  0  0  0  0  0
    5.6092    3.7472   21.7347 H   0  0  0  0  0  0  0  0  0  0  0  0
   12.2249    1.2198   24.6546 H   0  0  0  0  0  0  0  0  0  0  0  0
    4.2335    3.2180   17.7085 H   0  0  0  0  0  0  0  0  0  0  0  0
    6.6287    1.5216   21.7149 H   0  0  0  0  0  0  0  0  0  0  0  0
    9.8763    0.5350   24.3454 H   0  0  0  0  0  0  0  0  0  0  0  0
   14.0077    0.1988   23.2842 H   0  0  0  0  0  0  0  0  0  0  0  0
   11.0892   -2.3009   21.3624 H   0  0  0  0  0  0  0  0  0  0  0  0
    4.7608    1.0333   16.5155 H   0  0  0  0  0  0  0  0  0  0  0  0
    5.2831   -8.6313   25.1909 H   0  0  0  0  0  0  0  0  0  0  0  0
    6.8806   -1.9536   18.3621 H   0  0  0  0  0  0  0  0  0  0  0  0
    6.1872   -4.1600   21.2300 H   0  0  0  0  0  0  0  0  0  0  0  0
    1.9229   -7.3231   21.9118 H   0  0  0  0  0  0  0  0  0  0  0  0
    1.3421   -6.9053   23.5595 H   0  0  0  0  0  0  0  0  0  0  0  0
    2.0253   -5.6335   22.5151 H   0  0  0  0  0  0  0  0  0  0  0  0
    8.4884   -4.8230   21.2762 H   0  0  0  0  0  0  0  0  0  0  0  0
    9.1187   -5.6100   22.7491 H   0  0  0  0  0  0  0  0  0  0  0  0
    8.2436   -1.0112   23.3272 H   0  0  0  0  0  0  0  0  0  0  0  0
    6.8984   -1.6618   21.0676 H   0  0  0  0  0  0  0  0  0  0  0  0
    8.7939   -2.8440   21.1151 H   0  0  0  0  0  0  0  0  0  0  0  0
  1  2  1  0  0  0  0
  1  4  2  0  0  0  0
  2  5  2  0  0  0  0
  3  6  2  0  0  0  0
  3  7  1  0  0  0  0
  4 12  1  0  0  0  0
  5 13  1  0  0  0  0
  6 15  1  0  0  0  0
  7 17  2  0  0  0  0
  8 15  2  0  0  0  0
  8 17  1  0  0  0  0
  9 12  2  0  0  0  0
  9 26  1  0  0  0  0
 10 14  1  0  0  0  0
 10 27  2  0  0  0  0
 11 16  1  0  0  0  0
 11 26  2  0  0  0  0
 12 13  1  0  0  0  0
 13 16  2  0  0  0  0
 14 18  2  0  0  0  0
 14 20  1  0  0  0  0
 15 25  1  0  0  0  0
 16 31  1  0  0  0  0
 17 36  1  0  0  0  0
 18 28  1  0  0  0  0
 18 29  1  0  0  0  0
 19 28  2  0  0  0  0
 19 30  1  0  0  0  0
 20 30  1  0  0  0  0
 20 33  2  0  0  0  0
 21 24  1  0  0  0  0
 21 32  1  0  0  0  0
 21 34  2  0  0  0  0
 22 25  1  1  0  0  0
 22 31  1  0  0  0  0
 22 35  2  0  0  0  0
 23 29  1  0  0  0  0
 24 30  1  0  0  0  0
 25 32  1  0  0  0  0
 27 29  1  0  0  0  0
  1 37  1  0  0  0  0
  2 38  1  0  0  0  0
  3 39  1  0  0  0  0
  4 40  1  0  0  0  0
  5 41  1  0  0  0  0
  6 42  1  0  0  0  0
  7 43  1  0  0  0  0
  8 44  1  0  0  0  0
  9 45  1  0  0  0  0
 10 46  1  0  0  0  0
 11 47  1  0  0  0  0
 19 48  1  0  0  0  0
 23 49  1  0  0  0  0
 23 50  1  0  0  0  0
 23 51  1  0  0  0  0
 24 52  1  0  0  0  0
 24 53  1  0  0  0  0
 25 54  1  0  0  0  0
 31 55  1  0  0  0  0
 32 56  1  0  0  0  0
M  END
> <compound>
EDJ-MED-ee07cf00-3

> <compound_smiles>
Cn1c2c(cn1)c(=O)n(cn2)CC(=O)NC(c3cccc(c3)Cl)C(=O)Nc4cncc5c4cccc5

> <enantiomer_smiles>
Cn1c2c(cn1)c(=O)n(cn2)CC(=O)N[C@@H](c3cccc(c3)Cl)C(=O)Nc4cncc5c4cccc5

> <scaffold>
chlorobenzene-linker

> <canonical_CID>
EDJ-MED-ee07cf00-3

> <r_inhibition_at_20_uM>

> <r_inhibition_at_50_uM>

> <r_avg_IC50>
99.0

> <f_inhibition_at_20_uM>

> <f_inhibition_at_50_uM>

> <f_avg_IC50>
23.7509200274471

> <f_avg_pIC50>

> <relative_solubility_at_20_uM>

> <relative_solubility_at_100_uM>

> <trypsin_IC50>

> <NMR_std_ratio>

> <acrylamide>
False

> <chloroacetamide>
False

> <series>
Ugi

> <frag_id>

> <clash_score>
0.6446428802390256

> <docking_score>
-3.290013551712036

> <overlap_score>
0.8268008232116699

> <MMFF_internal_energy>
104.1135977365205

> <docked_smiles>
Cn1c2c(cn1)c(=O)n(cn2)CC(=O)N[C@@H](c3cccc(c3)Cl)C(=O)Nc4cncc5c4cccc5

$$$$
EDJ-MED-ee07cf00-7_1
  -OEChem-07262101023D

 54 57  0     1  0  0  0  0  0999 V2000
    4.8854    3.6419   19.7205 C   0  0  0  0  0  0  0  0  0  0  0  0
    5.5494    3.1500   20.8419 C   0  0  0  0  0  0  0  0  0  0  0  0
   11.9780    0.4600   23.9150 C   0  0  0  0  0  0  0  0  0  0  0  0
    4.7878    2.8619   18.5685 C   0  0  0  0  0  0  0  0  0  0  0  0
    6.1189    1.8757   20.8162 C   0  0  0  0  0  0  0  0  0  0  0  0
   10.6560    0.0720   23.7350 C   0  0  0  0  0  0  0  0  0  0  0  0
   12.9840   -0.1200   23.1530 C   0  0  0  0  0  0  0  0  0  0  0  0
   11.3360   -1.5050   22.0650 C   0  0  0  0  0  0  0  0  0  0  0  0
    5.2893    0.7552   17.4056 C   0  0  0  0  0  0  0  0  0  0  0  0
    6.4602   -0.9317   18.4342 C   0  0  0  0  0  0  0  0  0  0  0  0
    5.3570    1.5782   18.5316 C   0  0  0  0  0  0  0  0  0  0  0  0
    6.0301    1.0765   19.6647 C   0  0  0  0  0  0  0  0  0  0  0  0
   10.3220   -0.8940   22.7910 C   0  0  0  0  0  0  0  0  0  0  0  0
    6.5904   -0.2048   19.6077 C   0  0  0  0  0  0  0  0  0  0  0  0
   12.6400   -1.1000   22.2390 C   0  0  0  0  0  0  0  0  0  0  0  0
    4.6783   -5.4134   22.1065 C   0  0  0  0  0  0  0  0  0  0  0  0
    5.9321   -4.9907   21.9539 C   0  0  0  0  0  0  0  0  0  0  0  0
    5.6139   -7.0931   23.8407 C   0  0  0  0  0  0  0  0  0  0  0  0
    6.8297   -6.5384   23.5593 C   0  0  0  0  0  0  0  0  0  0  0  0
    4.4325   -6.5069   23.0727 C   0  0  0  0  0  0  0  0  0  0  0  0
    8.4768   -3.5837   23.0234 C   0  0  0  0  0  0  0  0  0  0  0  0
    8.3880   -0.3240   21.3070 C   0  0  0  0  0  0  0  0  0  0  0  0
    8.0730   -7.0508   24.2705 C   0  0  0  0  0  0  0  0  0  0  0  0
    8.3548   -4.9318   22.3601 C   0  0  0  0  0  0  0  0  0  0  0  0
    8.8810   -1.1900   22.4510 C   0  0  1  0  0  0  0  0  0  0  0  0
    5.8237   -0.4845   17.3308 N   0  0  0  0  0  0  0  0  0  0  0  0
    7.0274   -5.4942   22.6294 N   0  0  0  0  0  0  0  0  0  0  0  0
    7.2820   -0.7860   20.6970 N   0  0  0  0  0  0  0  0  0  0  0  0
    8.7221   -2.5828   22.0943 N   0  0  0  0  0  0  0  0  0  0  0  0
    5.2885   -8.0198   24.6363 O   0  5  0  0  0  0  0  0  0  0  0  0
    3.2794   -6.9087   23.2259 O   0  0  0  0  0  0  0  0  0  0  0  0
    8.3669   -3.4142   24.2348 O   0  0  0  0  0  0  0  0  0  0  0  0
    8.9170    0.7530   21.0260 O   0  0  0  0  0  0  0  0  0  0  0  0
   13.8840   -1.8490   21.2740 Cl  0  0  0  0  0  0  0  0  0  0  0  0
    4.4431    4.6335   19.7433 H   0  0  0  0  0  0  0  0  0  0  0  0
    5.6240    3.7591   21.7382 H   0  0  0  0  0  0  0  0  0  0  0  0
   12.2249    1.2198   24.6546 H   0  0  0  0  0  0  0  0  0  0  0  0
    4.2658    3.2613   17.7021 H   0  0  0  0  0  0  0  0  0  0  0  0
    6.6295    1.5271   21.7110 H   0  0  0  0  0  0  0  0  0  0  0  0
    9.8763    0.5350   24.3454 H   0  0  0  0  0  0  0  0  0  0  0  0
   14.0077    0.1988   23.2842 H   0  0  0  0  0  0  0  0  0  0  0  0
   11.0892   -2.3009   21.3624 H   0  0  0  0  0  0  0  0  0  0  0  0
    4.7855    1.0801   16.4994 H   0  0  0  0  0  0  0  0  0  0  0  0
    6.8767   -1.9306   18.3399 H   0  0  0  0  0  0  0  0  0  0  0  0
    3.8480   -4.9905   21.5563 H   0  0  0  0  0  0  0  0  0  0  0  0
    6.1553   -4.1913   21.2556 H   0  0  0  0  0  0  0  0  0  0  0  0
    8.4943   -7.8555   23.6849 H   0  0  0  0  0  0  0  0  0  0  0  0
    7.7853   -7.4034   25.2511 H   0  0  0  0  0  0  0  0  0  0  0  0
    8.7767   -6.2350   24.3590 H   0  0  0  0  0  0  0  0  0  0  0  0
    8.4878   -4.8241   21.2796 H   0  0  0  0  0  0  0  0  0  0  0  0
    9.1184   -5.6091   22.7534 H   0  0  0  0  0  0  0  0  0  0  0  0
    8.2436   -1.0112   23.3272 H   0  0  0  0  0  0  0  0  0  0  0  0
    6.8975   -1.6551   21.0614 H   0  0  0  0  0  0  0  0  0  0  0  0
    8.7917   -2.8406   21.1141 H   0  0  0  0  0  0  0  0  0  0  0  0
  1  2  1  0  0  0  0
  1  4  2  0  0  0  0
  2  5  2  0  0  0  0
  3  6  2  0  0  0  0
  3  7  1  0  0  0  0
  4 11  1  0  0  0  0
  5 12  1  0  0  0  0
  6 13  1  0  0  0  0
  7 15  2  0  0  0  0
  8 13  2  0  0  0  0
  8 15  1  0  0  0  0
  9 11  2  0  0  0  0
  9 26  1  0  0  0  0
 10 14  1  0  0  0  0
 10 26  2  0  0  0  0
 11 12  1  0  0  0  0
 12 14  2  0  0  0  0
 13 25  1  0  0  0  0
 14 28  1  0  0  0  0
 15 34  1  0  0  0  0
 16 17  2  0  0  0  0
 16 20  1  0  0  0  0
 17 27  1  0  0  0  0
 18 19  2  0  0  0  0
 18 20  1  0  0  0  0
 18 30  1  0  0  0  0
 19 23  1  0  0  0  0
 19 27  1  0  0  0  0
 20 31  2  0  0  0  0
 21 24  1  0  0  0  0
 21 29  1  0  0  0  0
 21 32  2  0  0  0  0
 22 25  1  1  0  0  0
 22 28  1  0  0  0  0
 22 33  2  0  0  0  0
 24 27  1  0  0  0  0
 25 29  1  0  0  0  0
  1 35  1  0  0  0  0
  2 36  1  0  0  0  0
  3 37  1  0  0  0  0
  4 38  1  0  0  0  0
  5 39  1  0  0  0  0
  6 40  1  0  0  0  0
  7 41  1  0  0  0  0
  8 42  1  0  0  0  0
  9 43  1  0  0  0  0
 10 44  1  0  0  0  0
 16 45  1  0  0  0  0
 17 46  1  0  0  0  0
 23 47  1  0  0  0  0
 23 48  1  0  0  0  0
 23 49  1  0  0  0  0
 24 50  1  0  0  0  0
 24 51  1  0  0  0  0
 25 52  1  0  0  0  0
 28 53  1  0  0  0  0
 29 54  1  0  0  0  0
M  CHG  1  30  -1
M  END
> <compound>
EDJ-MED-ee07cf00-7

> <compound_smiles>
Cc1c(c(=O)ccn1CC(=O)NC(c2cccc(c2)Cl)C(=O)Nc3cncc4c3cccc4)O

> <enantiomer_smiles>
Cc1c(c(=O)ccn1CC(=O)N[C@@H](c2cccc(c2)Cl)C(=O)Nc3cncc4c3cccc4)O

> <scaffold>
chlorobenzene-linker

> <clash_score>
0.6530435309952455

> <docking_score>
-3.351468563079834

> <overlap_score>
0.8302046060562134

> <MMFF_internal_energy>
221.93136726466852

> <docked_smiles>
Cc1c(c(=O)ccn1CC(=O)N[C@@H](c2cccc(c2)Cl)C(=O)Nc3cncc4c3cccc4)[O-]

$$$$
EDJ-MED-ee07cf00-8_1
  -OEChem-07262101023D

 52 55  0     1  0  0  0  0  0999 V2000
    6.7358   -5.4438   28.4007 C   0  0  0  0  0  0  0  0  0  0  0  0
    4.8610    3.6140   19.7216 C   0  0  0  0  0  0  0  0  0  0  0  0
    5.5339    3.1326   20.8422 C   0  0  0  0  0  0  0  0  0  0  0  0
   11.9780    0.4600   23.9150 C   0  0  0  0  0  0  0  0  0  0  0  0
    4.7625    2.8268   18.5745 C   0  0  0  0  0  0  0  0  0  0  0  0
    6.1113    1.8618   20.8208 C   0  0  0  0  0  0  0  0  0  0  0  0
   10.6560    0.0720   23.7350 C   0  0  0  0  0  0  0  0  0  0  0  0
   12.9840   -0.1200   23.1530 C   0  0  0  0  0  0  0  0  0  0  0  0
   11.3360   -1.5050   22.0650 C   0  0  0  0  0  0  0  0  0  0  0  0
    5.2713    0.7168   17.4209 C   0  0  0  0  0  0  0  0  0  0  0  0
    6.4583   -0.9568   18.4529 C   0  0  0  0  0  0  0  0  0  0  0  0
    5.3397    1.5465   18.5418 C   0  0  0  0  0  0  0  0  0  0  0  0
    6.0217    1.0556   19.6743 C   0  0  0  0  0  0  0  0  0  0  0  0
   10.3220   -0.8940   22.7910 C   0  0  0  0  0  0  0  0  0  0  0  0
    6.5899   -0.2225   19.6216 C   0  0  0  0  0  0  0  0  0  0  0  0
   12.6400   -1.1000   22.2390 C   0  0  0  0  0  0  0  0  0  0  0  0
    6.6960   -3.4857   27.0106 C   0  0  0  0  0  0  0  0  0  0  0  0
    6.0578   -4.5330   27.5458 C   0  0  0  0  0  0  0  0  0  0  0  0
    4.6193   -4.7273   27.2281 C   0  0  0  0  0  0  0  0  0  0  0  0
    4.7389   -2.6732   25.8199 C   0  0  0  0  0  0  0  0  0  0  0  0
    7.7885   -1.9656   24.5529 C   0  0  0  0  0  0  0  0  0  0  0  0
    8.3880   -0.3240   21.3070 C   0  0  0  0  0  0  0  0  0  0  0  0
    6.8795   -1.4621   25.6449 C   0  0  0  0  0  0  0  0  0  0  0  0
    8.8810   -1.1900   22.4510 C   0  0  1  0  0  0  0  0  0  0  0  0
    7.2895   -6.1871   29.0984 N   0  0  0  0  0  0  0  0  0  0  0  0
    5.8133   -0.5200   17.3503 N   0  0  0  0  0  0  0  0  0  0  0  0
    4.0773   -3.7702   26.3830 N   0  0  0  0  0  0  0  0  0  0  0  0
    6.0844   -2.5778   26.1784 N   0  0  0  0  0  0  0  0  0  0  0  0
    7.2820   -0.7860   20.6970 N   0  0  0  0  0  0  0  0  0  0  0  0
    8.0352   -0.9804   23.6107 N   0  0  0  0  0  0  0  0  0  0  0  0
    3.9781   -5.6688   27.6879 O   0  0  0  0  0  0  0  0  0  0  0  0
    4.1481   -1.8855   25.0779 O   0  0  0  0  0  0  0  0  0  0  0  0
    8.2425   -3.1063   24.5240 O   0  0  0  0  0  0  0  0  0  0  0  0
    8.9170    0.7530   21.0260 O   0  0  0  0  0  0  0  0  0  0  0  0
   13.8840   -1.8490   21.2740 Cl  0  0  0  0  0  0  0  0  0  0  0  0
    4.4125    4.6029   19.7411 H   0  0  0  0  0  0  0  0  0  0  0  0
    5.6092    3.7472   21.7347 H   0  0  0  0  0  0  0  0  0  0  0  0
   12.2249    1.2198   24.6546 H   0  0  0  0  0  0  0  0  0  0  0  0
    4.2335    3.2180   17.7085 H   0  0  0  0  0  0  0  0  0  0  0  0
    6.6287    1.5216   21.7149 H   0  0  0  0  0  0  0  0  0  0  0  0
    9.8763    0.5350   24.3454 H   0  0  0  0  0  0  0  0  0  0  0  0
   14.0077    0.1988   23.2842 H   0  0  0  0  0  0  0  0  0  0  0  0
   11.0892   -2.3009   21.3624 H   0  0  0  0  0  0  0  0  0  0  0  0
    4.7608    1.0333   16.5155 H   0  0  0  0  0  0  0  0  0  0  0  0
    6.8806   -1.9536   18.3621 H   0  0  0  0  0  0  0  0  0  0  0  0
    7.7478   -3.3050   27.2154 H   0  0  0  0  0  0  0  0  0  0  0  0
    7.4779   -1.0282   26.4516 H   0  0  0  0  0  0  0  0  0  0  0  0
    6.2051   -0.6998   25.2440 H   0  0  0  0  0  0  0  0  0  0  0  0
    8.7711   -2.2448   22.1651 H   0  0  0  0  0  0  0  0  0  0  0  0
    3.0945   -3.8771   26.1476 H   0  0  0  0  0  0  0  0  0  0  0  0
    6.8984   -1.6618   21.0676 H   0  0  0  0  0  0  0  0  0  0  0  0
    7.6043   -0.0713   23.7384 H   0  0  0  0  0  0  0  0  0  0  0  0
  1 18  1  0  0  0  0
  1 25  3  0  0  0  0
  2  3  1  0  0  0  0
  2  5  2  0  0  0  0
  3  6  2  0  0  0  0
  4  7  2  0  0  0  0
  4  8  1  0  0  0  0
  5 12  1  0  0  0  0
  6 13  1  0  0  0  0
  7 14  1  0  0  0  0
  8 16  2  0  0  0  0
  9 14  2  0  0  0  0
  9 16  1  0  0  0  0
 10 12  2  0  0  0  0
 10 26  1  0  0  0  0
 11 15  1  0  0  0  0
 11 26  2  0  0  0  0
 12 13  1  0  0  0  0
 13 15  2  0  0  0  0
 14 24  1  0  0  0  0
 15 29  1  0  0  0  0
 16 35  1  0  0  0  0
 17 18  2  0  0  0  0
 17 28  1  0  0  0  0
 18 19  1  0  0  0  0
 19 27  1  0  0  0  0
 19 31  2  0  0  0  0
 20 27  1  0  0  0  0
 20 28  1  0  0  0  0
 20 32  2  0  0  0  0
 21 23  1  0  0  0  0
 21 30  1  0  0  0  0
 21 33  2  0  0  0  0
 22 24  1  1  0  0  0
 22 29  1  0  0  0  0
 22 34  2  0  0  0  0
 23 28  1  0  0  0  0
 24 30  1  0  0  0  0
  2 36  1  0  0  0  0
  3 37  1  0  0  0  0
  4 38  1  0  0  0  0
  5 39  1  0  0  0  0
  6 40  1  0  0  0  0
  7 41  1  0  0  0  0
  8 42  1  0  0  0  0
  9 43  1  0  0  0  0
 10 44  1  0  0  0  0
 11 45  1  0  0  0  0
 17 46  1  0  0  0  0
 23 47  1  0  0  0  0
 23 48  1  0  0  0  0
 24 49  1  0  0  0  0
 27 50  1  0  0  0  0
 29 51  1  0  0  0  0
 30 52  1  0  0  0  0
M  END
> <compound>
EDJ-MED-ee07cf00-8

> <compound_smiles>
c1ccc2c(c1)cncc2NC(=O)C(c3cccc(c3)Cl)NC(=O)Cn4cc(c(=O)[nH]c4=O)C#N

> <enantiomer_smiles>
c1ccc2c(c1)cncc2NC(=O)[C@@H](c3cccc(c3)Cl)NC(=O)Cn4cc(c(=O)[nH]c4=O)C#N

> <scaffold>
chlorobenzene-linker

> <canonical_CID>
EDJ-MED-ee07cf00-8

> <r_inhibition_at_20_uM>

> <r_inhibition_at_50_uM>

> <r_avg_IC50>
24.6207321068964

> <f_inhibition_at_20_uM>

> <f_inhibition_at_50_uM>

> <f_avg_IC50>
21.239836906775

> <f_avg_pIC50>

> <relative_solubility_at_20_uM>

> <relative_solubility_at_100_uM>

> <trypsin_IC50>

> <NMR_std_ratio>

> <acrylamide>
False

> <chloroacetamide>
False

> <series>
Ugi

> <frag_id>

> <clash_score>
0.6446404982496339

> <docking_score>
-3.5913143157958984

> <overlap_score>
0.8295751214027405

> <MMFF_internal_energy>
54.33672008638486

> <docked_smiles>
c1ccc2c(c1)cncc2NC(=O)[C@@H](c3cccc(c3)Cl)NC(=O)Cn4cc(c(=O)[nH]c4=O)C#N

$$$$
EDJ-MED-ee07cf00-7_2
  -OEChem-07262101023D

 54 57  0     1  0  0  0  0  0999 V2000
    3.4578    2.5708   20.0554 C   0  0  0  0  0  0  0  0  0  0  0  0
    4.0829    2.0498   21.1859 C   0  0  0  0  0  0  0  0  0  0  0  0
   11.9780    0.4600   23.9150 C   0  0  0  0  0  0  0  0  0  0  0  0
    3.8699    2.1730   18.7838 C   0  0  0  0  0  0  0  0  0  0  0  0
    5.1230    1.1287   21.0499 C   0  0  0  0  0  0  0  0  0  0  0  0
   10.6560    0.0720   23.7350 C   0  0  0  0  0  0  0  0  0  0  0  0
   12.9840   -0.1200   23.1530 C   0  0  0  0  0  0  0  0  0  0  0  0
   11.3360   -1.5050   22.0650 C   0  0  0  0  0  0  0  0  0  0  0  0
    5.3678    0.8139   17.3870 C   0  0  0  0  0  0  0  0  0  0  0  0
    6.9546   -0.5609   18.3181 C   0  0  0  0  0  0  0  0  0  0  0  0
    4.9154    1.2466   18.6351 C   0  0  0  0  0  0  0  0  0  0  0  0
    5.5508    0.7169   19.7772 C   0  0  0  0  0  0  0  0  0  0  0  0
   10.3220   -0.8940   22.7910 C   0  0  0  0  0  0  0  0  0  0  0  0
    6.5904   -0.2048   19.6077 C   0  0  0  0  0  0  0  0  0  0  0  0
   12.6400   -1.1000   22.2390 C   0  0  0  0  0  0  0  0  0  0  0  0
    3.4165   -0.7560   24.4871 C   0  0  0  0  0  0  0  0  0  0  0  0
    4.6947   -0.6586   24.8487 C   0  0  0  0  0  0  0  0  0  0  0  0
    3.6146   -3.2828   25.0162 C   0  0  0  0  0  0  0  0  0  0  0  0
    4.9087   -3.0001   25.3484 C   0  0  0  0  0  0  0  0  0  0  0  0
    2.7830   -2.0920   24.5477 C   0  0  0  0  0  0  0  0  0  0  0  0
    7.7868   -1.9637   24.5545 C   0  0  0  0  0  0  0  0  0  0  0  0
    8.3880   -0.3240   21.3070 C   0  0  0  0  0  0  0  0  0  0  0  0
    5.8235   -4.1171   25.8278 C   0  0  0  0  0  0  0  0  0  0  0  0
    6.8777   -1.4573   25.6450 C   0  0  0  0  0  0  0  0  0  0  0  0
    8.8810   -1.1900   22.4510 C   0  0  2  0  0  0  0  0  0  0  0  0
    6.3699   -0.0750   17.2025 N   0  0  0  0  0  0  0  0  0  0  0  0
    5.4806   -1.7109   25.2782 N   0  0  0  0  0  0  0  0  0  0  0  0
    7.2820   -0.7860   20.6970 N   0  0  0  0  0  0  0  0  0  0  0  0
    8.0375   -0.9810   23.6075 N   0  0  0  0  0  0  0  0  0  0  0  0
    2.9737   -4.3722   25.0279 O   0  5  0  0  0  0  0  0  0  0  0  0
    1.6024   -2.1990   24.2175 O   0  0  0  0  0  0  0  0  0  0  0  0
    8.2396   -3.1050   24.5278 O   0  0  0  0  0  0  0  0  0  0  0  0
    8.9170    0.7530   21.0260 O   0  0  0  0  0  0  0  0  0  0  0  0
   13.8840   -1.8490   21.2740 Cl  0  0  0  0  0  0  0  0  0  0  0  0
    2.6488    3.2871   20.1641 H   0  0  0  0  0  0  0  0  0  0  0  0
    3.7603    2.3608   22.1755 H   0  0  0  0  0  0  0  0  0  0  0  0
   12.2249    1.2198   24.6546 H   0  0  0  0  0  0  0  0  0  0  0  0
    3.3709    2.5895   17.9118 H   0  0  0  0  0  0  0  0  0  0  0  0
    5.5865    0.7452   21.9560 H   0  0  0  0  0  0  0  0  0  0  0  0
    9.8763    0.5350   24.3454 H   0  0  0  0  0  0  0  0  0  0  0  0
   14.0077    0.1988   23.2842 H   0  0  0  0  0  0  0  0  0  0  0  0
   11.0892   -2.3009   21.3624 H   0  0  0  0  0  0  0  0  0  0  0  0
    4.9221    1.1820   16.4670 H   0  0  0  0  0  0  0  0  0  0  0  0
    7.7545   -1.2725   18.1337 H   0  0  0  0  0  0  0  0  0  0  0  0
    2.8362    0.0954   24.1561 H   0  0  0  0  0  0  0  0  0  0  0  0
    5.1965    0.3025   24.8186 H   0  0  0  0  0  0  0  0  0  0  0  0
    6.3165   -4.5475   24.9678 H   0  0  0  0  0  0  0  0  0  0  0  0
    5.2213   -4.8594   26.3328 H   0  0  0  0  0  0  0  0  0  0  0  0
    6.5475   -3.6962   26.5112 H   0  0  0  0  0  0  0  0  0  0  0  0
    7.1034   -1.9741   26.5824 H   0  0  0  0  0  0  0  0  0  0  0  0
    7.0240   -0.3816   25.7801 H   0  0  0  0  0  0  0  0  0  0  0  0
    8.7711   -2.2448   22.1651 H   0  0  0  0  0  0  0  0  0  0  0  0
    6.8975   -1.6551   21.0614 H   0  0  0  0  0  0  0  0  0  0  0  0
    7.6055   -0.0699   23.7314 H   0  0  0  0  0  0  0  0  0  0  0  0
  1  2  1  0  0  0  0
  1  4  2  0  0  0  0
  2  5  2  0  0  0  0
  3  6  2  0  0  0  0
  3  7  1  0  0  0  0
  4 11  1  0  0  0  0
  5 12  1  0  0  0  0
  6 13  1  0  0  0  0
  7 15  2  0  0  0  0
  8 13  2  0  0  0  0
  8 15  1  0  0  0  0
  9 11  2  0  0  0  0
  9 26  1  0  0  0  0
 10 14  1  0  0  0  0
 10 26  2  0  0  0  0
 11 12  1  0  0  0  0
 12 14  2  0  0  0  0
 13 25  1  0  0  0  0
 14 28  1  0  0  0  0
 15 34  1  0  0  0  0
 16 17  2  0  0  0  0
 16 20  1  0  0  0  0
 17 27  1  0  0  0  0
 18 19  2  0  0  0  0
 18 20  1  0  0  0  0
 18 30  1  0  0  0  0
 19 23  1  0  0  0  0
 19 27  1  0  0  0  0
 20 31  2  0  0  0  0
 21 24  1  0  0  0  0
 21 29  1  0  0  0  0
 21 32  2  0  0  0  0
 22 25  1  6  0  0  0
 22 28  1  0  0  0  0
 22 33  2  0  0  0  0
 24 27  1  0  0  0  0
 25 29  1  0  0  0  0
  1 35  1  0  0  0  0
  2 36  1  0  0  0  0
  3 37  1  0  0  0  0
  4 38  1  0  0  0  0
  5 39  1  0  0  0  0
  6 40  1  0  0  0  0
  7 41  1  0  0  0  0
  8 42  1  0  0  0  0
  9 43  1  0  0  0  0
 10 44  1  0  0  0  0
 16 45  1  0  0  0  0
 17 46  1  0  0  0  0
 23 47  1  0  0  0  0
 23 48  1  0  0  0  0
 23 49  1  0  0  0  0
 24 50  1  0  0  0  0
 24 51  1  0  0  0  0
 25 52  1  0  0  0  0
 28 53  1  0  0  0  0
 29 54  1  0  0  0  0
M  CHG  1  30  -1
M  END
> <compound>
EDJ-MED-ee07cf00-7

> <compound_smiles>
Cc1c(c(=O)ccn1CC(=O)NC(c2cccc(c2)Cl)C(=O)Nc3cncc4c3cccc4)O

> <enantiomer_smiles>
Cc1c(c(=O)ccn1CC(=O)N[C@H](c2cccc(c2)Cl)C(=O)Nc3cncc4c3cccc4)O

> <scaffold>
chlorobenzene-linker

> <clash_score>
2.753760921093161

> <docking_score>
-6.798562049865723

> <overlap_score>
0.9687028527259827

> <MMFF_internal_energy>
217.83435390677874

> <docked_smiles>
Cc1c(c(=O)ccn1CC(=O)N[C@H](c2cccc(c2)Cl)C(=O)Nc3cncc4c3cccc4)[O-]

$$$$
EDJ-MED-ee07cf00-8_2
  -OEChem-07262101023D

 52 55  0     1  0  0  0  0  0999 V2000
    5.6833   -8.1397   24.8147 C   0  0  0  0  0  0  0  0  0  0  0  0
    4.8610    3.6140   19.7216 C   0  0  0  0  0  0  0  0  0  0  0  0
    5.5339    3.1326   20.8422 C   0  0  0  0  0  0  0  0  0  0  0  0
   11.9780    0.4600   23.9150 C   0  0  0  0  0  0  0  0  0  0  0  0
    4.7625    2.8268   18.5745 C   0  0  0  0  0  0  0  0  0  0  0  0
    6.1113    1.8618   20.8208 C   0  0  0  0  0  0  0  0  0  0  0  0
   10.6560    0.0720   23.7350 C   0  0  0  0  0  0  0  0  0  0  0  0
   12.9840   -0.1200   23.1530 C   0  0  0  0  0  0  0  0  0  0  0  0
   11.3360   -1.5050   22.0650 C   0  0  0  0  0  0  0  0  0  0  0  0
    5.2714    0.7168   17.4209 C   0  0  0  0  0  0  0  0  0  0  0  0
    6.4583   -0.9568   18.4529 C   0  0  0  0  0  0  0  0  0  0  0  0
    5.3397    1.5465   18.5418 C   0  0  0  0  0  0  0  0  0  0  0  0
    6.0217    1.0556   19.6743 C   0  0  0  0  0  0  0  0  0  0  0  0
   10.3220   -0.8940   22.7910 C   0  0  0  0  0  0  0  0  0  0  0  0
    6.5899   -0.2225   19.6216 C   0  0  0  0  0  0  0  0  0  0  0  0
   12.6400   -1.1000   22.2390 C   0  0  0  0  0  0  0  0  0  0  0  0
    6.9120   -6.5135   23.5445 C   0  0  0  0  0  0  0  0  0  0  0  0
    5.7463   -7.0912   23.8573 C   0  0  0  0  0  0  0  0  0  0  0  0
    4.5120   -6.6137   23.1814 C   0  0  0  0  0  0  0  0  0  0  0  0
    5.9257   -4.9792   21.9377 C   0  0  0  0  0  0  0  0  0  0  0  0
    8.4768   -3.5851   23.0219 C   0  0  0  0  0  0  0  0  0  0  0  0
    8.3880   -0.3240   21.3070 C   0  0  0  0  0  0  0  0  0  0  0  0
    8.3551   -4.9322   22.3566 C   0  0  0  0  0  0  0  0  0  0  0  0
    8.8810   -1.1900   22.4510 C   0  0  2  0  0  0  0  0  0  0  0  0
    5.6322   -8.9956   25.5962 N   0  0  0  0  0  0  0  0  0  0  0  0
    5.8133   -0.5200   17.3502 N   0  0  0  0  0  0  0  0  0  0  0  0
    4.7098   -5.5875   22.2696 N   0  0  0  0  0  0  0  0  0  0  0  0
    7.0244   -5.4967   22.6254 N   0  0  0  0  0  0  0  0  0  0  0  0
    7.2820   -0.7860   20.6970 N   0  0  0  0  0  0  0  0  0  0  0  0
    8.7217   -2.5865   22.0933 N   0  0  0  0  0  0  0  0  0  0  0  0
    3.4121   -7.1032   23.4251 O   0  0  0  0  0  0  0  0  0  0  0  0
    5.9770   -4.0706   21.1061 O   0  0  0  0  0  0  0  0  0  0  0  0
    8.3666   -3.4174   24.2336 O   0  0  0  0  0  0  0  0  0  0  0  0
    8.9170    0.7530   21.0260 O   0  0  0  0  0  0  0  0  0  0  0  0
   13.8840   -1.8490   21.2740 Cl  0  0  0  0  0  0  0  0  0  0  0  0
    4.4125    4.6029   19.7410 H   0  0  0  0  0  0  0  0  0  0  0  0
    5.6092    3.7472   21.7347 H   0  0  0  0  0  0  0  0  0  0  0  0
   12.2249    1.2198   24.6546 H   0  0  0  0  0  0  0  0  0  0  0  0
    4.2335    3.2180   17.7085 H   0  0  0  0  0  0  0  0  0  0  0  0
    6.6287    1.5216   21.7149 H   0  0  0  0  0  0  0  0  0  0  0  0
    9.8763    0.5350   24.3454 H   0  0  0  0  0  0  0  0  0  0  0  0
   14.0077    0.1988   23.2842 H   0  0  0  0  0  0  0  0  0  0  0  0
   11.0892   -2.3009   21.3624 H   0  0  0  0  0  0  0  0  0  0  0  0
    4.7608    1.0333   16.5154 H   0  0  0  0  0  0  0  0  0  0  0  0
    6.8806   -1.9536   18.3621 H   0  0  0  0  0  0  0  0  0  0  0  0
    7.8393   -6.8308   24.0136 H   0  0  0  0  0  0  0  0  0  0  0  0
    8.4884   -4.8230   21.2762 H   0  0  0  0  0  0  0  0  0  0  0  0
    9.1187   -5.6100   22.7491 H   0  0  0  0  0  0  0  0  0  0  0  0
    8.2436   -1.0112   23.3272 H   0  0  0  0  0  0  0  0  0  0  0  0
    3.8833   -5.2400   21.7912 H   0  0  0  0  0  0  0  0  0  0  0  0
    6.8984   -1.6618   21.0676 H   0  0  0  0  0  0  0  0  0  0  0  0
    8.7939   -2.8440   21.1151 H   0  0  0  0  0  0  0  0  0  0  0  0
  1 18  1  0  0  0  0
  1 25  3  0  0  0  0
  2  3  1  0  0  0  0
  2  5  2  0  0  0  0
  3  6  2  0  0  0  0
  4  7  2  0  0  0  0
  4  8  1  0  0  0  0
  5 12  1  0  0  0  0
  6 13  1  0  0  0  0
  7 14  1  0  0  0  0
  8 16  2  0  0  0  0
  9 14  2  0  0  0  0
  9 16  1  0  0  0  0
 10 12  2  0  0  0  0
 10 26  1  0  0  0  0
 11 15  1  0  0  0  0
 11 26  2  0  0  0  0
 12 13  1  0  0  0  0
 13 15  2  0  0  0  0
 14 24  1  0  0  0  0
 15 29  1  0  0  0  0
 16 35  1  0  0  0  0
 17 18  2  0  0  0  0
 17 28  1  0  0  0  0
 18 19  1  0  0  0  0
 19 27  1  0  0  0  0
 19 31  2  0  0  0  0
 20 27  1  0  0  0  0
 20 28  1  0  0  0  0
 20 32  2  0  0  0  0
 21 23  1  0  0  0  0
 21 30  1  0  0  0  0
 21 33  2  0  0  0  0
 22 24  1  6  0  0  0
 22 29  1  0  0  0  0
 22 34  2  0  0  0  0
 23 28  1  0  0  0  0
 24 30  1  0  0  0  0
  2 36  1  0  0  0  0
  3 37  1  0  0  0  0
  4 38  1  0  0  0  0
  5 39  1  0  0  0  0
  6 40  1  0  0  0  0
  7 41  1  0  0  0  0
  8 42  1  0  0  0  0
  9 43  1  0  0  0  0
 10 44  1  0  0  0  0
 11 45  1  0  0  0  0
 17 46  1  0  0  0  0
 23 47  1  0  0  0  0
 23 48  1  0  0  0  0
 24 49  1  0  0  0  0
 27 50  1  0  0  0  0
 29 51  1  0  0  0  0
 30 52  1  0  0  0  0
M  END
> <compound>
EDJ-MED-ee07cf00-8

> <compound_smiles>
c1ccc2c(c1)cncc2NC(=O)C(c3cccc(c3)Cl)NC(=O)Cn4cc(c(=O)[nH]c4=O)C#N

> <enantiomer_smiles>
c1ccc2c(c1)cncc2NC(=O)[C@H](c3cccc(c3)Cl)NC(=O)Cn4cc(c(=O)[nH]c4=O)C#N

> <scaffold>
chlorobenzene-linker

> <canonical_CID>
EDJ-MED-ee07cf00-8

> <r_inhibition_at_20_uM>

> <r_inhibition_at_50_uM>

> <r_avg_IC50>
24.6207321068964

> <f_inhibition_at_20_uM>

> <f_inhibition_at_50_uM>

> <f_avg_IC50>
21.239836906775

> <f_avg_pIC50>

> <relative_solubility_at_20_uM>

> <relative_solubility_at_100_uM>

> <trypsin_IC50>

> <NMR_std_ratio>

> <acrylamide>
False

> <chloroacetamide>
False

> <series>
Ugi

> <frag_id>

> <clash_score>
1.3666392077973288

> <docking_score>
-1.593672513961792

> <overlap_score>
0.8300846815109253

> <MMFF_internal_energy>
49.4109672491236

> <docked_smiles>
c1ccc2c(c1)cncc2NC(=O)[C@H](c3cccc(c3)Cl)NC(=O)Cn4cc(c(=O)[nH]c4=O)C#N

$$$$
EDJ-MED-ee07cf00-9_1
  -OEChem-07262101023D

 56 60  0     1  0  0  0  0  0999 V2000
    1.9975   -6.5401   26.0566 C   0  0  0  0  0  0  0  0  0  0  0  0
    2.4453   -0.6644   19.0345 C   0  0  0  0  0  0  0  0  0  0  0  0
    3.0521   -1.2620   20.1368 C   0  0  0  0  0  0  0  0  0  0  0  0
    2.0093   -7.2119   24.8343 C   0  0  0  0  0  0  0  0  0  0  0  0
    3.0709   -5.7243   26.4144 C   0  0  0  0  0  0  0  0  0  0  0  0
   11.9780    0.4600   23.9150 C   0  0  0  0  0  0  0  0  0  0  0  0
    3.2094    0.0755   18.1324 C   0  0  0  0  0  0  0  0  0  0  0  0
    4.4258   -1.1223   20.3419 C   0  0  0  0  0  0  0  0  0  0  0  0
    3.0944   -7.0681   23.9697 C   0  0  0  0  0  0  0  0  0  0  0  0
    4.1560   -5.5804   25.5499 C   0  0  0  0  0  0  0  0  0  0  0  0
   10.6560    0.0720   23.7350 C   0  0  0  0  0  0  0  0  0  0  0  0
   12.9840   -0.1200   23.1530 C   0  0  0  0  0  0  0  0  0  0  0  0
   11.3360   -1.5050   22.0650 C   0  0  0  0  0  0  0  0  0  0  0  0
    5.4047    0.9517   17.4581 C   0  0  0  0  0  0  0  0  0  0  0  0
    7.2951    0.5246   18.6905 C   0  0  0  0  0  0  0  0  0  0  0  0
    4.5925    0.2225   18.3289 C   0  0  0  0  0  0  0  0  0  0  0  0
    5.2106   -0.3809   19.4436 C   0  0  0  0  0  0  0  0  0  0  0  0
    4.1678   -6.2523   24.3275 C   0  0  0  0  0  0  0  0  0  0  0  0
   10.3220   -0.8940   22.7910 C   0  0  0  0  0  0  0  0  0  0  0  0
    6.5899   -0.2225   19.6216 C   0  0  0  0  0  0  0  0  0  0  0  0
   12.6400   -1.1000   22.2390 C   0  0  0  0  0  0  0  0  0  0  0  0
    5.2828   -6.1044   23.4397 C   0  0  0  0  0  0  0  0  0  0  0  0
    8.4771   -3.5748   23.0322 C   0  0  0  0  0  0  0  0  0  0  0  0
    8.3880   -0.3240   21.3070 C   0  0  0  0  0  0  0  0  0  0  0  0
    8.3590   -4.9348   22.3783 C   0  0  0  0  0  0  0  0  0  0  0  0
    8.8810   -1.1900   22.4510 C   0  0  1  0  0  0  0  0  0  0  0  0
    6.7379    1.1163   17.6125 N   0  0  0  0  0  0  0  0  0  0  0  0
    5.3462   -6.7376   22.2341 N   0  0  0  0  0  0  0  0  0  0  0  0
    6.3454   -5.3427   23.7119 N   0  0  0  0  0  0  0  0  0  0  0  0
    6.5019   -6.3753   21.6912 N   0  0  0  0  0  0  0  0  0  0  0  0
    7.0559   -5.5555   22.5954 N   0  0  0  0  0  0  0  0  0  0  0  0
    7.2820   -0.7860   20.6970 N   0  0  0  0  0  0  0  0  0  0  0  0
    8.7217   -2.5865   22.0933 N   0  0  0  0  0  0  0  0  0  0  0  0
    8.3690   -3.3937   24.2420 O   0  0  0  0  0  0  0  0  0  0  0  0
    8.9170    0.7530   21.0260 O   0  0  0  0  0  0  0  0  0  0  0  0
   13.8840   -1.8490   21.2740 Cl  0  0  0  0  0  0  0  0  0  0  0  0
    1.1522   -6.6512   26.7294 H   0  0  0  0  0  0  0  0  0  0  0  0
    1.3764   -0.7749   18.8773 H   0  0  0  0  0  0  0  0  0  0  0  0
    2.4552   -1.8381   20.8380 H   0  0  0  0  0  0  0  0  0  0  0  0
    1.1731   -7.8462   24.5549 H   0  0  0  0  0  0  0  0  0  0  0  0
    3.0609   -5.2003   27.3656 H   0  0  0  0  0  0  0  0  0  0  0  0
   12.2249    1.2198   24.6546 H   0  0  0  0  0  0  0  0  0  0  0  0
    2.7196    0.5352   17.2771 H   0  0  0  0  0  0  0  0  0  0  0  0
    4.8628   -1.6030   21.2142 H   0  0  0  0  0  0  0  0  0  0  0  0
    3.0887   -7.5985   23.0203 H   0  0  0  0  0  0  0  0  0  0  0  0
    4.9851   -4.9407   25.8435 H   0  0  0  0  0  0  0  0  0  0  0  0
    9.8763    0.5350   24.3454 H   0  0  0  0  0  0  0  0  0  0  0  0
   14.0077    0.1988   23.2842 H   0  0  0  0  0  0  0  0  0  0  0  0
   11.0892   -2.3009   21.3624 H   0  0  0  0  0  0  0  0  0  0  0  0
    4.9927    1.4416   16.5801 H   0  0  0  0  0  0  0  0  0  0  0  0
    8.3668    0.6763   18.7836 H   0  0  0  0  0  0  0  0  0  0  0  0
    9.1270   -5.6063   22.7784 H   0  0  0  0  0  0  0  0  0  0  0  0
    8.5151   -4.8427   21.2975 H   0  0  0  0  0  0  0  0  0  0  0  0
    8.2436   -1.0112   23.3272 H   0  0  0  0  0  0  0  0  0  0  0  0
    6.8984   -1.6618   21.0676 H   0  0  0  0  0  0  0  0  0  0  0  0
    8.8283   -2.8367   21.1168 H   0  0  0  0  0  0  0  0  0  0  0  0
  1  4  1  0  0  0  0
  1  5  2  0  0  0  0
  2  3  1  0  0  0  0
  2  7  2  0  0  0  0
  3  8  2  0  0  0  0
  4  9  2  0  0  0  0
  5 10  1  0  0  0  0
  6 11  2  0  0  0  0
  6 12  1  0  0  0  0
  7 16  1  0  0  0  0
  8 17  1  0  0  0  0
  9 18  1  0  0  0  0
 10 18  2  0  0  0  0
 11 19  1  0  0  0  0
 12 21  2  0  0  0  0
 13 19  2  0  0  0  0
 13 21  1  0  0  0  0
 14 16  2  0  0  0  0
 14 27  1  0  0  0  0
 15 20  1  0  0  0  0
 15 27  2  0  0  0  0
 16 17  1  0  0  0  0
 17 20  2  0  0  0  0
 18 22  1  0  0  0  0
 19 26  1  0  0  0  0
 20 32  1  0  0  0  0
 21 36  1  0  0  0  0
 22 28  1  0  0  0  0
 22 29  2  0  0  0  0
 23 25  1  0  0  0  0
 23 33  1  0  0  0  0
 23 34  2  0  0  0  0
 24 26  1  1  0  0  0
 24 32  1  0  0  0  0
 24 35  2  0  0  0  0
 25 31  1  0  0  0  0
 26 33  1  0  0  0  0
 28 30  2  0  0  0  0
 29 31  1  0  0  0  0
 30 31  1  0  0  0  0
  1 37  1  0  0  0  0
  2 38  1  0  0  0  0
  3 39  1  0  0  0  0
  4 40  1  0  0  0  0
  5 41  1  0  0  0  0
  6 42  1  0  0  0  0
  7 43  1  0  0  0  0
  8 44  1  0  0  0  0
  9 45  1  0  0  0  0
 10 46  1  0  0  0  0
 11 47  1  0  0  0  0
 12 48  1  0  0  0  0
 13 49  1  0  0  0  0
 14 50  1  0  0  0  0
 15 51  1  0  0  0  0
 25 52  1  0  0  0  0
 25 53  1  0  0  0  0
 26 54  1  0  0  0  0
 32 55  1  0  0  0  0
 33 56  1  0  0  0  0
M  END
> <compound>
EDJ-MED-ee07cf00-9

> <compound_smiles>
c1ccc(cc1)c2nnn(n2)CC(=O)NC(c3cccc(c3)Cl)C(=O)Nc4cncc5c4cccc5

> <enantiomer_smiles>
c1ccc(cc1)c2nnn(n2)CC(=O)N[C@@H](c3cccc(c3)Cl)C(=O)Nc4cncc5c4cccc5

> <scaffold>
chlorobenzene-linker

> <canonical_CID>
EDJ-MED-ee07cf00-9

> <r_inhibition_at_20_uM>

> <r_inhibition_at_50_uM>

> <r_avg_IC50>
34.7923736610483

> <f_inhibition_at_20_uM>

> <f_inhibition_at_50_uM>

> <f_avg_IC50>
18.2857156246282

> <f_avg_pIC50>

> <relative_solubility_at_20_uM>

> <relative_solubility_at_100_uM>

> <trypsin_IC50>

> <NMR_std_ratio>

> <acrylamide>
False

> <chloroacetamide>
False

> <series>
Ugi

> <frag_id>

> <clash_score>
7.634436731753946

> <docking_score>
2.6029224395751953

> <overlap_score>
0.7680419087409973

> <MMFF_internal_energy>
144.13740327215208

> <docked_smiles>
c1ccc(cc1)c2nnn(n2)CC(=O)N[C@@H](c3cccc(c3)Cl)C(=O)Nc4cncc5c4cccc5

$$$$
EDJ-MED-ee07cf00-9_2
  -OEChem-07262101023D

 56 60  0     1  0  0  0  0  0999 V2000
    1.2455   -6.4433   26.0375 C   0  0  0  0  0  0  0  0  0  0  0  0
    2.4453   -0.6644   19.0345 C   0  0  0  0  0  0  0  0  0  0  0  0
    3.0521   -1.2620   20.1368 C   0  0  0  0  0  0  0  0  0  0  0  0
    2.0221   -6.5288   27.1930 C   0  0  0  0  0  0  0  0  0  0  0  0
    1.5791   -5.5282   25.0391 C   0  0  0  0  0  0  0  0  0  0  0  0
   11.9780    0.4600   23.9150 C   0  0  0  0  0  0  0  0  0  0  0  0
    3.2094    0.0755   18.1324 C   0  0  0  0  0  0  0  0  0  0  0  0
    4.4258   -1.1223   20.3419 C   0  0  0  0  0  0  0  0  0  0  0  0
    3.1323   -5.6991   27.3501 C   0  0  0  0  0  0  0  0  0  0  0  0
    2.6893   -4.6984   25.1962 C   0  0  0  0  0  0  0  0  0  0  0  0
   10.6560    0.0720   23.7350 C   0  0  0  0  0  0  0  0  0  0  0  0
   12.9840   -0.1200   23.1530 C   0  0  0  0  0  0  0  0  0  0  0  0
   11.3360   -1.5050   22.0650 C   0  0  0  0  0  0  0  0  0  0  0  0
    5.4047    0.9517   17.4581 C   0  0  0  0  0  0  0  0  0  0  0  0
    7.2951    0.5246   18.6905 C   0  0  0  0  0  0  0  0  0  0  0  0
    4.5925    0.2225   18.3289 C   0  0  0  0  0  0  0  0  0  0  0  0
    5.2106   -0.3809   19.4436 C   0  0  0  0  0  0  0  0  0  0  0  0
    3.4659   -4.7839   26.3517 C   0  0  0  0  0  0  0  0  0  0  0  0
   10.3220   -0.8940   22.7910 C   0  0  0  0  0  0  0  0  0  0  0  0
    6.5899   -0.2225   19.6216 C   0  0  0  0  0  0  0  0  0  0  0  0
   12.6400   -1.1000   22.2390 C   0  0  0  0  0  0  0  0  0  0  0  0
    4.6062   -3.9313   26.5129 C   0  0  0  0  0  0  0  0  0  0  0  0
    7.7915   -1.9683   24.5500 C   0  0  0  0  0  0  0  0  0  0  0  0
    8.3880   -0.3240   21.3070 C   0  0  0  0  0  0  0  0  0  0  0  0
    6.8736   -1.4689   25.6452 C   0  0  0  0  0  0  0  0  0  0  0  0
    8.8810   -1.1900   22.4510 C   0  0  2  0  0  0  0  0  0  0  0  0
    6.7379    1.1163   17.6125 N   0  0  0  0  0  0  0  0  0  0  0  0
    5.3991   -3.9727   27.6211 N   0  0  0  0  0  0  0  0  0  0  0  0
    4.9880   -3.0316   25.6029 N   0  0  0  0  0  0  0  0  0  0  0  0
    6.3430   -3.0595   27.4296 N   0  0  0  0  0  0  0  0  0  0  0  0
    6.0614   -2.5310   26.2306 N   0  0  0  0  0  0  0  0  0  0  0  0
    7.2820   -0.7860   20.6970 N   0  0  0  0  0  0  0  0  0  0  0  0
    8.0352   -0.9804   23.6107 N   0  0  0  0  0  0  0  0  0  0  0  0
    8.2479   -3.1079   24.5168 O   0  0  0  0  0  0  0  0  0  0  0  0
    8.9170    0.7530   21.0260 O   0  0  0  0  0  0  0  0  0  0  0  0
   13.8840   -1.8490   21.2740 Cl  0  0  0  0  0  0  0  0  0  0  0  0
    0.3816   -7.0900   25.9145 H   0  0  0  0  0  0  0  0  0  0  0  0
    1.3764   -0.7749   18.8773 H   0  0  0  0  0  0  0  0  0  0  0  0
    2.4552   -1.8381   20.8380 H   0  0  0  0  0  0  0  0  0  0  0  0
    1.7632   -7.2421   27.9699 H   0  0  0  0  0  0  0  0  0  0  0  0
    0.9750   -5.4627   24.1390 H   0  0  0  0  0  0  0  0  0  0  0  0
   12.2249    1.2198   24.6546 H   0  0  0  0  0  0  0  0  0  0  0  0
    2.7196    0.5352   17.2771 H   0  0  0  0  0  0  0  0  0  0  0  0
    4.8628   -1.6030   21.2142 H   0  0  0  0  0  0  0  0  0  0  0  0
    3.7278   -5.7777   28.2567 H   0  0  0  0  0  0  0  0  0  0  0  0
    2.9361   -3.9902   24.4086 H   0  0  0  0  0  0  0  0  0  0  0  0
    9.8763    0.5350   24.3454 H   0  0  0  0  0  0  0  0  0  0  0  0
   14.0077    0.1988   23.2842 H   0  0  0  0  0  0  0  0  0  0  0  0
   11.0892   -2.3009   21.3624 H   0  0  0  0  0  0  0  0  0  0  0  0
    4.9927    1.4416   16.5801 H   0  0  0  0  0  0  0  0  0  0  0  0
    8.3668    0.6763   18.7836 H   0  0  0  0  0  0  0  0  0  0  0  0
    6.1979   -0.7057   25.2431 H   0  0  0  0  0  0  0  0  0  0  0  0
    7.4653   -1.0130   26.4472 H   0  0  0  0  0  0  0  0  0  0  0  0
    8.7711   -2.2448   22.1651 H   0  0  0  0  0  0  0  0  0  0  0  0
    6.8984   -1.6618   21.0676 H   0  0  0  0  0  0  0  0  0  0  0  0
    7.5841   -0.0773   23.7028 H   0  0  0  0  0  0  0  0  0  0  0  0
  1  4  1  0  0  0  0
  1  5  2  0  0  0  0
  2  3  1  0  0  0  0
  2  7  2  0  0  0  0
  3  8  2  0  0  0  0
  4  9  2  0  0  0  0
  5 10  1  0  0  0  0
  6 11  2  0  0  0  0
  6 12  1  0  0  0  0
  7 16  1  0  0  0  0
  8 17  1  0  0  0  0
  9 18  1  0  0  0  0
 10 18  2  0  0  0  0
 11 19  1  0  0  0  0
 12 21  2  0  0  0  0
 13 19  2  0  0  0  0
 13 21  1  0  0  0  0
 14 16  2  0  0  0  0
 14 27  1  0  0  0  0
 15 20  1  0  0  0  0
 15 27  2  0  0  0  0
 16 17  1  0  0  0  0
 17 20  2  0  0  0  0
 18 22  1  0  0  0  0
 19 26  1  0  0  0  0
 20 32  1  0  0  0  0
 21 36  1  0  0  0  0
 22 28  1  0  0  0  0
 22 29  2  0  0  0  0
 23 25  1  0  0  0  0
 23 33  1  0  0  0  0
 23 34  2  0  0  0  0
 24 26  1  6  0  0  0
 24 32  1  0  0  0  0
 24 35  2  0  0  0  0
 25 31  1  0  0  0  0
 26 33  1  0  0  0  0
 28 30  2  0  0  0  0
 29 31  1  0  0  0  0
 30 31  1  0  0  0  0
  1 37  1  0  0  0  0
  2 38  1  0  0  0  0
  3 39  1  0  0  0  0
  4 40  1  0  0  0  0
  5 41  1  0  0  0  0
  6 42  1  0  0  0  0
  7 43  1  0  0  0  0
  8 44  1  0  0  0  0
  9 45  1  0  0  0  0
 10 46  1  0  0  0  0
 11 47  1  0  0  0  0
 12 48  1  0  0  0  0
 13 49  1  0  0  0  0
 14 50  1  0  0  0  0
 15 51  1  0  0  0  0
 25 52  1  0  0  0  0
 25 53  1  0  0  0  0
 26 54  1  0  0  0  0
 32 55  1  0  0  0  0
 33 56  1  0  0  0  0
M  END
> <compound>
EDJ-MED-ee07cf00-9

> <compound_smiles>
c1ccc(cc1)c2nnn(n2)CC(=O)NC(c3cccc(c3)Cl)C(=O)Nc4cncc5c4cccc5

> <enantiomer_smiles>
c1ccc(cc1)c2nnn(n2)CC(=O)N[C@H](c3cccc(c3)Cl)C(=O)Nc4cncc5c4cccc5

> <scaffold>
chlorobenzene-linker

> <canonical_CID>
EDJ-MED-ee07cf00-9

> <r_inhibition_at_20_uM>

> <r_inhibition_at_50_uM>

> <r_avg_IC50>
34.7923736610483

> <f_inhibition_at_20_uM>

> <f_inhibition_at_50_uM>

> <f_avg_IC50>
18.2857156246282

> <f_avg_pIC50>

> <relative_solubility_at_20_uM>

> <relative_solubility_at_100_uM>

> <trypsin_IC50>

> <NMR_std_ratio>

> <acrylamide>
False

> <chloroacetamide>
False

> <series>
Ugi

> <frag_id>

> <clash_score>
7.634434759413347

> <docking_score>
0.7627012729644775

> <overlap_score>
0.7676861882209778

> <MMFF_internal_energy>
140.41630957434162

> <docked_smiles>
c1ccc(cc1)c2nnn(n2)CC(=O)N[C@H](c3cccc(c3)Cl)C(=O)Nc4cncc5c4cccc5

$$$$
EDJ-MED-ee07cf00-6_1
  -OEChem-07262101023D

 56 60  0     1  0  0  0  0  0999 V2000
    2.5578    0.9697   19.8184 C   0  0  0  0  0  0  0  0  0  0  0  0
    3.1679    0.4166   20.9418 C   0  0  0  0  0  0  0  0  0  0  0  0
   11.9780    0.4600   23.9150 C   0  0  0  0  0  0  0  0  0  0  0  0
    3.2816    1.1263   18.6366 C   0  0  0  0  0  0  0  0  0  0  0  0
    4.5045    0.0176   20.8886 C   0  0  0  0  0  0  0  0  0  0  0  0
   10.6560    0.0720   23.7350 C   0  0  0  0  0  0  0  0  0  0  0  0
   12.9840   -0.1200   23.1530 C   0  0  0  0  0  0  0  0  0  0  0  0
   11.3360   -1.5050   22.0650 C   0  0  0  0  0  0  0  0  0  0  0  0
    5.3982    0.8618   17.4152 C   0  0  0  0  0  0  0  0  0  0  0  0
    3.9097   -6.9796   22.5088 C   0  0  0  0  0  0  0  0  0  0  0  0
    7.2560   -0.0413   18.4191 C   0  0  0  0  0  0  0  0  0  0  0  0
    4.0200   -5.1110   21.3550 C   0  0  0  0  0  0  0  0  0  0  0  0
    4.6272    0.7281   18.5716 C   0  0  0  0  0  0  0  0  0  0  0  0
    5.2484    0.1678   19.7068 C   0  0  0  0  0  0  0  0  0  0  0  0
    4.7897   -5.9510   22.1222 C   0  0  0  0  0  0  0  0  0  0  0  0
   10.3220   -0.8940   22.7910 C   0  0  0  0  0  0  0  0  0  0  0  0
    6.5899   -0.2225   19.6216 C   0  0  0  0  0  0  0  0  0  0  0  0
   12.6400   -1.1000   22.2390 C   0  0  0  0  0  0  0  0  0  0  0  0
    6.2220   -5.7667   22.4432 C   0  0  0  0  0  0  0  0  0  0  0  0
    8.4778   -3.5792   23.0201 C   0  0  0  0  0  0  0  0  0  0  0  0
    8.3880   -0.3240   21.3070 C   0  0  0  0  0  0  0  0  0  0  0  0
    7.1559   -5.0724   21.5114 C   0  0  0  0  0  0  0  0  0  0  0  0
    8.3471   -4.9454   22.4246 C   0  0  1  0  0  0  0  0  0  0  0  0
    1.6179   -5.1424   20.6434 C   0  0  0  0  0  0  0  0  0  0  0  0
    8.8810   -1.1900   22.4510 C   0  0  1  0  0  0  0  0  0  0  0  0
    6.6946    0.4912   17.3129 N   0  0  0  0  0  0  0  0  0  0  0  0
    2.6755   -6.8104   22.0271 N   0  0  0  0  0  0  0  0  0  0  0  0
    6.7672   -6.2028   23.5333 N   0  0  0  0  0  0  0  0  0  0  0  0
    2.7743   -5.6657   21.3300 N   0  0  0  0  0  0  0  0  0  0  0  0
    7.2820   -0.7860   20.6970 N   0  0  0  0  0  0  0  0  0  0  0  0
    8.7217   -2.5865   22.0933 N   0  0  0  0  0  0  0  0  0  0  0  0
    8.3643   -3.4348   24.2317 O   0  0  0  0  0  0  0  0  0  0  0  0
    8.9170    0.7530   21.0260 O   0  0  0  0  0  0  0  0  0  0  0  0
    8.1385   -5.8591   23.4953 O   0  0  0  0  0  0  0  0  0  0  0  0
   13.8840   -1.8490   21.2740 Cl  0  0  0  0  0  0  0  0  0  0  0  0
    1.5177    1.2791   19.8626 H   0  0  0  0  0  0  0  0  0  0  0  0
    2.6022    0.2953   21.8613 H   0  0  0  0  0  0  0  0  0  0  0  0
   12.2249    1.2198   24.6546 H   0  0  0  0  0  0  0  0  0  0  0  0
    2.7899    1.5597   17.7688 H   0  0  0  0  0  0  0  0  0  0  0  0
    4.9456   -0.4092   21.7865 H   0  0  0  0  0  0  0  0  0  0  0  0
    9.8763    0.5350   24.3454 H   0  0  0  0  0  0  0  0  0  0  0  0
   14.0077    0.1988   23.2842 H   0  0  0  0  0  0  0  0  0  0  0  0
   11.0892   -2.3009   21.3624 H   0  0  0  0  0  0  0  0  0  0  0  0
    4.9815    1.2854   16.5055 H   0  0  0  0  0  0  0  0  0  0  0  0
    4.1133   -7.8458   23.1227 H   0  0  0  0  0  0  0  0  0  0  0  0
    8.2971   -0.3285   18.3019 H   0  0  0  0  0  0  0  0  0  0  0  0
    4.2455   -4.1876   20.8387 H   0  0  0  0  0  0  0  0  0  0  0  0
    7.3583   -5.7345   20.6636 H   0  0  0  0  0  0  0  0  0  0  0  0
    6.7515   -4.1230   21.1523 H   0  0  0  0  0  0  0  0  0  0  0  0
    9.2842   -5.1889   21.9120 H   0  0  0  0  0  0  0  0  0  0  0  0
    1.6062   -5.5623   19.6342 H   0  0  0  0  0  0  0  0  0  0  0  0
    0.7123   -5.4269   21.1864 H   0  0  0  0  0  0  0  0  0  0  0  0
    1.6840   -4.0515   20.6040 H   0  0  0  0  0  0  0  0  0  0  0  0
    8.2436   -1.0112   23.3272 H   0  0  0  0  0  0  0  0  0  0  0  0
    6.8984   -1.6618   21.0676 H   0  0  0  0  0  0  0  0  0  0  0  0
    8.7928   -2.8447   21.1155 H   0  0  0  0  0  0  0  0  0  0  0  0
  1  2  1  0  0  0  0
  1  4  2  0  0  0  0
  2  5  2  0  0  0  0
  3  6  2  0  0  0  0
  3  7  1  0  0  0  0
  4 13  1  0  0  0  0
  5 14  1  0  0  0  0
  6 16  1  0  0  0  0
  7 18  2  0  0  0  0
  8 16  2  0  0  0  0
  8 18  1  0  0  0  0
  9 13  2  0  0  0  0
  9 26  1  0  0  0  0
 10 15  1  0  0  0  0
 10 27  2  0  0  0  0
 11 17  1  0  0  0  0
 11 26  2  0  0  0  0
 12 15  2  0  0  0  0
 12 29  1  0  0  0  0
 13 14  1  0  0  0  0
 14 17  2  0  0  0  0
 15 19  1  0  0  0  0
 16 25  1  0  0  0  0
 17 30  1  0  0  0  0
 18 35  1  0  0  0  0
 19 22  1  0  0  0  0
 19 28  2  0  0  0  0
 20 23  1  1  0  0  0
 20 31  1  0  0  0  0
 20 32  2  0  0  0  0
 21 25  1  1  0  0  0
 21 30  1  0  0  0  0
 21 33  2  0  0  0  0
 22 23  1  0  0  0  0
 23 34  1  0  0  0  0
 24 29  1  0  0  0  0
 25 31  1  0  0  0  0
 27 29  1  0  0  0  0
 28 34  1  0  0  0  0
  1 36  1  0  0  0  0
  2 37  1  0  0  0  0
  3 38  1  0  0  0  0
  4 39  1  0  0  0  0
  5 40  1  0  0  0  0
  6 41  1  0  0  0  0
  7 42  1  0  0  0  0
  8 43  1  0  0  0  0
  9 44  1  0  0  0  0
 10 45  1  0  0  0  0
 11 46  1  0  0  0  0
 12 47  1  0  0  0  0
 22 48  1  0  0  0  0
 22 49  1  0  0  0  0
 23 50  1  0  0  0  0
 24 51  1  0  0  0  0
 24 52  1  0  0  0  0
 24 53  1  0  0  0  0
 25 54  1  0  0  0  0
 30 55  1  0  0  0  0
 31 56  1  0  0  0  0
M  END
> <compound>
EDJ-MED-ee07cf00-6

> <compound_smiles>
Cn1cc(cn1)C2=NOC(C2)C(=O)NC(c3cccc(c3)Cl)C(=O)Nc4cncc5c4cccc5

> <enantiomer_smiles>
Cn1cc(cn1)C2=NO[C@@H](C2)C(=O)N[C@@H](c3cccc(c3)Cl)C(=O)Nc4cncc5c4cccc5

> <scaffold>
chlorobenzene-linker

> <canonical_CID>
EDJ-MED-ee07cf00-6

> <r_inhibition_at_20_uM>

> <r_inhibition_at_50_uM>

> <r_avg_IC50>

> <f_inhibition_at_20_uM>

> <f_inhibition_at_50_uM>

> <f_avg_IC50>
7.19030700780295

> <f_avg_pIC50>

> <relative_solubility_at_20_uM>

> <relative_solubility_at_100_uM>

> <trypsin_IC50>

> <NMR_std_ratio>

> <acrylamide>
False

> <chloroacetamide>
False

> <series>
Ugi

> <frag_id>

> <clash_score>
2.4834275319477426

> <docking_score>
-1.8854748010635376

> <overlap_score>
0.8796594738960266

> <MMFF_internal_energy>
156.55842843942563

> <docked_smiles>
Cn1cc(cn1)C2=NO[C@@H](C2)C(=O)N[C@@H](c3cccc(c3)Cl)C(=O)Nc4cncc5c4cccc5

$$$$
EDJ-MED-ee07cf00-6_2
  -OEChem-07262101023D

 56 60  0     1  0  0  0  0  0999 V2000
    2.4453   -0.6644   19.0345 C   0  0  0  0  0  0  0  0  0  0  0  0
    3.0521   -1.2620   20.1368 C   0  0  0  0  0  0  0  0  0  0  0  0
   11.9780    0.4600   23.9150 C   0  0  0  0  0  0  0  0  0  0  0  0
    3.2094    0.0755   18.1324 C   0  0  0  0  0  0  0  0  0  0  0  0
    4.4258   -1.1223   20.3419 C   0  0  0  0  0  0  0  0  0  0  0  0
   10.6560    0.0720   23.7350 C   0  0  0  0  0  0  0  0  0  0  0  0
   12.9840   -0.1200   23.1530 C   0  0  0  0  0  0  0  0  0  0  0  0
   11.3360   -1.5050   22.0650 C   0  0  0  0  0  0  0  0  0  0  0  0
    5.4047    0.9517   17.4581 C   0  0  0  0  0  0  0  0  0  0  0  0
    4.3744   -6.7369   23.7464 C   0  0  0  0  0  0  0  0  0  0  0  0
    7.2951    0.5246   18.6905 C   0  0  0  0  0  0  0  0  0  0  0  0
    3.7146   -6.0103   21.7787 C   0  0  0  0  0  0  0  0  0  0  0  0
    4.5925    0.2225   18.3289 C   0  0  0  0  0  0  0  0  0  0  0  0
    5.2106   -0.3809   19.4436 C   0  0  0  0  0  0  0  0  0  0  0  0
    4.8326   -6.1143   22.5698 C   0  0  0  0  0  0  0  0  0  0  0  0
   10.3220   -0.8940   22.7910 C   0  0  0  0  0  0  0  0  0  0  0  0
    6.5899   -0.2225   19.6216 C   0  0  0  0  0  0  0  0  0  0  0  0
   12.6400   -1.1000   22.2390 C   0  0  0  0  0  0  0  0  0  0  0  0
    6.1933   -5.6544   22.2164 C   0  0  0  0  0  0  0  0  0  0  0  0
    8.4778   -3.5792   23.0201 C   0  0  0  0  0  0  0  0  0  0  0  0
    8.3880   -0.3240   21.3070 C   0  0  0  0  0  0  0  0  0  0  0  0
    7.3463   -5.8096   23.1491 C   0  0  0  0  0  0  0  0  0  0  0  0
    8.3469   -4.9468   22.4240 C   0  0  2  0  0  0  0  0  0  0  0  0
    1.3186   -6.6763   22.0833 C   0  0  0  0  0  0  0  0  0  0  0  0
    8.8810   -1.1900   22.4510 C   0  0  1  0  0  0  0  0  0  0  0  0
    6.7379    1.1163   17.6125 N   0  0  0  0  0  0  0  0  0  0  0  0
    3.0673   -7.0090   23.7103 N   0  0  0  0  0  0  0  0  0  0  0  0
    6.4856   -5.1070   21.0802 N   0  0  0  0  0  0  0  0  0  0  0  0
    2.6945   -6.5552   22.5015 N   0  0  0  0  0  0  0  0  0  0  0  0
    7.2820   -0.7860   20.6970 N   0  0  0  0  0  0  0  0  0  0  0  0
    8.7217   -2.5865   22.0933 N   0  0  0  0  0  0  0  0  0  0  0  0
    8.3643   -3.4348   24.2317 O   0  0  0  0  0  0  0  0  0  0  0  0
    8.9170    0.7530   21.0260 O   0  0  0  0  0  0  0  0  0  0  0  0
    7.8683   -4.8103   21.0915 O   0  0  0  0  0  0  0  0  0  0  0  0
   13.8840   -1.8490   21.2740 Cl  0  0  0  0  0  0  0  0  0  0  0  0
    1.3764   -0.7749   18.8773 H   0  0  0  0  0  0  0  0  0  0  0  0
    2.4552   -1.8381   20.8381 H   0  0  0  0  0  0  0  0  0  0  0  0
   12.2249    1.2198   24.6546 H   0  0  0  0  0  0  0  0  0  0  0  0
    2.7196    0.5352   17.2771 H   0  0  0  0  0  0  0  0  0  0  0  0
    4.8628   -1.6030   21.2142 H   0  0  0  0  0  0  0  0  0  0  0  0
    9.8763    0.5350   24.3454 H   0  0  0  0  0  0  0  0  0  0  0  0
   14.0077    0.1988   23.2842 H   0  0  0  0  0  0  0  0  0  0  0  0
   11.0892   -2.3009   21.3624 H   0  0  0  0  0  0  0  0  0  0  0  0
    4.9927    1.4416   16.5801 H   0  0  0  0  0  0  0  0  0  0  0  0
    4.9360   -7.0035   24.6308 H   0  0  0  0  0  0  0  0  0  0  0  0
    8.3668    0.6763   18.7836 H   0  0  0  0  0  0  0  0  0  0  0  0
    3.5604   -5.6035   20.7883 H   0  0  0  0  0  0  0  0  0  0  0  0
    7.0680   -5.4350   24.1395 H   0  0  0  0  0  0  0  0  0  0  0  0
    7.6687   -6.8510   23.2317 H   0  0  0  0  0  0  0  0  0  0  0  0
    9.3512   -5.4268   22.3945 H   0  0  0  0  0  0  0  0  0  0  0  0
    1.2040   -7.6371   21.5746 H   0  0  0  0  0  0  0  0  0  0  0  0
    0.6661   -6.6274   22.9595 H   0  0  0  0  0  0  0  0  0  0  0  0
    1.0726   -5.8528   21.4072 H   0  0  0  0  0  0  0  0  0  0  0  0
    8.2436   -1.0112   23.3272 H   0  0  0  0  0  0  0  0  0  0  0  0
    6.8984   -1.6618   21.0676 H   0  0  0  0  0  0  0  0  0  0  0  0
    8.7928   -2.8447   21.1155 H   0  0  0  0  0  0  0  0  0  0  0  0
  1  2  1  0  0  0  0
  1  4  2  0  0  0  0
  2  5  2  0  0  0  0
  3  6  2  0  0  0  0
  3  7  1  0  0  0  0
  4 13  1  0  0  0  0
  5 14  1  0  0  0  0
  6 16  1  0  0  0  0
  7 18  2  0  0  0  0
  8 16  2  0  0  0  0
  8 18  1  0  0  0  0
  9 13  2  0  0  0  0
  9 26  1  0  0  0  0
 10 15  1  0  0  0  0
 10 27  2  0  0  0  0
 11 17  1  0  0  0  0
 11 26  2  0  0  0  0
 12 15  2  0  0  0  0
 12 29  1  0  0  0  0
 13 14  1  0  0  0  0
 14 17  2  0  0  0  0
 15 19  1  0  0  0  0
 16 25  1  0  0  0  0
 17 30  1  0  0  0  0
 18 35  1  0  0  0  0
 19 22  1  0  0  0  0
 19 28  2  0  0  0  0
 20 23  1  6  0  0  0
 20 31  1  0  0  0  0
 20 32  2  0  0  0  0
 21 25  1  1  0  0  0
 21 30  1  0  0  0  0
 21 33  2  0  0  0  0
 22 23  1  0  0  0  0
 23 34  1  0  0  0  0
 24 29  1  0  0  0  0
 25 31  1  0  0  0  0
 27 29  1  0  0  0  0
 28 34  1  0  0  0  0
  1 36  1  0  0  0  0
  2 37  1  0  0  0  0
  3 38  1  0  0  0  0
  4 39  1  0  0  0  0
  5 40  1  0  0  0  0
  6 41  1  0  0  0  0
  7 42  1  0  0  0  0
  8 43  1  0  0  0  0
  9 44  1  0  0  0  0
 10 45  1  0  0  0  0
 11 46  1  0  0  0  0
 12 47  1  0  0  0  0
 22 48  1  0  0  0  0
 22 49  1  0  0  0  0
 23 50  1  0  0  0  0
 24 51  1  0  0  0  0
 24 52  1  0  0  0  0
 24 53  1  0  0  0  0
 25 54  1  0  0  0  0
 30 55  1  0  0  0  0
 31 56  1  0  0  0  0
M  END
> <compound>
EDJ-MED-ee07cf00-6

> <compound_smiles>
Cn1cc(cn1)C2=NOC(C2)C(=O)NC(c3cccc(c3)Cl)C(=O)Nc4cncc5c4cccc5

> <enantiomer_smiles>
Cn1cc(cn1)C2=NO[C@H](C2)C(=O)N[C@@H](c3cccc(c3)Cl)C(=O)Nc4cncc5c4cccc5

> <scaffold>
chlorobenzene-linker

> <canonical_CID>
EDJ-MED-ee07cf00-6

> <r_inhibition_at_20_uM>

> <r_inhibition_at_50_uM>

> <r_avg_IC50>

> <f_inhibition_at_20_uM>

> <f_inhibition_at_50_uM>

> <f_avg_IC50>
7.19030700780295

> <f_avg_pIC50>

> <relative_solubility_at_20_uM>

> <relative_solubility_at_100_uM>

> <trypsin_IC50>

> <NMR_std_ratio>

> <acrylamide>
False

> <chloroacetamide>
False

> <series>
Ugi

> <frag_id>

> <clash_score>
7.634455133400333

> <docking_score>
1.2669540643692017

> <overlap_score>
0.7698670029640198

> <MMFF_internal_energy>
132.89063496623837

> <docked_smiles>
Cn1cc(cn1)C2=NO[C@H](C2)C(=O)N[C@@H](c3cccc(c3)Cl)C(=O)Nc4cncc5c4cccc5

$$$$
VLA-UNK-9a7dc93f-7_1
  -OEChem-07262101023D

 38 40  0     1  0  0  0  0  0999 V2000
    4.8732    3.6198   19.7177 C   0  0  0  0  0  0  0  0  0  0  0  0
    5.5460    3.1381   20.8382 C   0  0  0  0  0  0  0  0  0  0  0  0
   11.9780    0.4600   23.9150 C   0  0  0  0  0  0  0  0  0  0  0  0
    4.7708    2.8311   18.5720 C   0  0  0  0  0  0  0  0  0  0  0  0
    6.1195    1.8656   20.8181 C   0  0  0  0  0  0  0  0  0  0  0  0
   10.6560    0.0720   23.7350 C   0  0  0  0  0  0  0  0  0  0  0  0
   12.9840   -0.1200   23.1530 C   0  0  0  0  0  0  0  0  0  0  0  0
   11.3360   -1.5050   22.0650 C   0  0  0  0  0  0  0  0  0  0  0  0
    5.2718    0.7177   17.4211 C   0  0  0  0  0  0  0  0  0  0  0  0
    6.4549   -0.9579   18.4542 C   0  0  0  0  0  0  0  0  0  0  0  0
    5.3440    1.5490   18.5406 C   0  0  0  0  0  0  0  0  0  0  0  0
    6.0260    1.0578   19.6730 C   0  0  0  0  0  0  0  0  0  0  0  0
   10.3220   -0.8940   22.7910 C   0  0  0  0  0  0  0  0  0  0  0  0
    6.5902   -0.2221   19.6216 C   0  0  0  0  0  0  0  0  0  0  0  0
   12.6400   -1.1000   22.2390 C   0  0  0  0  0  0  0  0  0  0  0  0
    8.3880   -0.3240   21.3070 C   0  0  0  0  0  0  0  0  0  0  0  0
    8.7231   -3.3957   23.2469 C   0  0  0  0  0  0  0  0  0  0  0  0
    8.8810   -1.1900   22.4510 C   0  0  1  0  0  0  0  0  0  0  0  0
    5.8099   -0.5208   17.3517 N   0  0  0  0  0  0  0  0  0  0  0  0
    7.2820   -0.7860   20.6970 N   0  0  0  0  0  0  0  0  0  0  0  0
    8.9170    0.7530   21.0260 O   0  0  0  0  0  0  0  0  0  0  0  0
    8.7700   -2.5620   22.0964 O   0  0  0  0  0  0  0  0  0  0  0  0
   13.8840   -1.8490   21.2740 Cl  0  0  0  0  0  0  0  0  0  0  0  0
    4.4277    4.6101   19.7361 H   0  0  0  0  0  0  0  0  0  0  0  0
    5.6243    3.7539   21.7296 H   0  0  0  0  0  0  0  0  0  0  0  0
   12.2249    1.2198   24.6546 H   0  0  0  0  0  0  0  0  0  0  0  0
    4.2419    3.2225   17.7060 H   0  0  0  0  0  0  0  0  0  0  0  0
    6.6371    1.5251   21.7120 H   0  0  0  0  0  0  0  0  0  0  0  0
    9.8763    0.5350   24.3454 H   0  0  0  0  0  0  0  0  0  0  0  0
   14.0077    0.1988   23.2842 H   0  0  0  0  0  0  0  0  0  0  0  0
   11.0892   -2.3009   21.3624 H   0  0  0  0  0  0  0  0  0  0  0  0
    4.7611    1.0344   16.5158 H   0  0  0  0  0  0  0  0  0  0  0  0
    6.8740   -1.9561   18.3645 H   0  0  0  0  0  0  0  0  0  0  0  0
    8.6356   -4.4402   22.9376 H   0  0  0  0  0  0  0  0  0  0  0  0
    7.8676   -3.1152   23.8665 H   0  0  0  0  0  0  0  0  0  0  0  0
    9.6442   -3.2636   23.8195 H   0  0  0  0  0  0  0  0  0  0  0  0
    8.2397   -1.0344   23.3287 H   0  0  0  0  0  0  0  0  0  0  0  0
    6.8985   -1.6600   21.0715 H   0  0  0  0  0  0  0  0  0  0  0  0
  1  2  1  0  0  0  0
  1  4  2  0  0  0  0
  2  5  2  0  0  0  0
  3  6  2  0  0  0  0
  3  7  1  0  0  0  0
  4 11  1  0  0  0  0
  5 12  1  0  0  0  0
  6 13  1  0  0  0  0
  7 15  2  0  0  0  0
  8 13  2  0  0  0  0
  8 15  1  0  0  0  0
  9 11  2  0  0  0  0
  9 19  1  0  0  0  0
 10 14  1  0  0  0  0
 10 19  2  0  0  0  0
 11 12  1  0  0  0  0
 12 14  2  0  0  0  0
 13 18  1  0  0  0  0
 14 20  1  0  0  0  0
 15 23  1  0  0  0  0
 16 18  1  1  0  0  0
 16 20  1  0  0  0  0
 16 21  2  0  0  0  0
 17 22  1  0  0  0  0
 18 22  1  0  0  0  0
  1 24  1  0  0  0  0
  2 25  1  0  0  0  0
  3 26  1  0  0  0  0
  4 27  1  0  0  0  0
  5 28  1  0  0  0  0
  6 29  1  0  0  0  0
  7 30  1  0  0  0  0
  8 31  1  0  0  0  0
  9 32  1  0  0  0  0
 10 33  1  0  0  0  0
 17 34  1  0  0  0  0
 17 35  1  0  0  0  0
 17 36  1  0  0  0  0
 18 37  1  0  0  0  0
 20 38  1  0  0  0  0
M  END
> <compound>
VLA-UNK-9a7dc93f-7

> <compound_smiles>
COC(c1cccc(c1)Cl)C(=O)Nc2cncc3c2cccc3

> <enantiomer_smiles>
CO[C@@H](c1cccc(c1)Cl)C(=O)Nc2cncc3c2cccc3

> <scaffold>
chlorobenzene-linker

> <clash_score>
0.6468528208098562

> <docking_score>
-5.512276649475098

> <overlap_score>
0.8540516495704651

> <MMFF_internal_energy>
134.58431037410713

> <docked_smiles>
CO[C@@H](c1cccc(c1)Cl)C(=O)Nc2cncc3c2cccc3

$$$$
EDJ-MED-ee07cf00-10_1
  -OEChem-07262101023D

 50 53  0     1  0  0  0  0  0999 V2000
    2.4453   -0.6644   19.0345 C   0  0  0  0  0  0  0  0  0  0  0  0
    3.0521   -1.2620   20.1368 C   0  0  0  0  0  0  0  0  0  0  0  0
   11.9780    0.4600   23.9150 C   0  0  0  0  0  0  0  0  0  0  0  0
    3.2094    0.0755   18.1324 C   0  0  0  0  0  0  0  0  0  0  0  0
    4.4258   -1.1223   20.3419 C   0  0  0  0  0  0  0  0  0  0  0  0
   10.6560    0.0720   23.7350 C   0  0  0  0  0  0  0  0  0  0  0  0
   12.9840   -0.1200   23.1530 C   0  0  0  0  0  0  0  0  0  0  0  0
   11.3360   -1.5050   22.0650 C   0  0  0  0  0  0  0  0  0  0  0  0
    5.4047    0.9517   17.4581 C   0  0  0  0  0  0  0  0  0  0  0  0
    7.2951    0.5246   18.6905 C   0  0  0  0  0  0  0  0  0  0  0  0
    6.1137   -3.2219   27.3713 C   0  0  0  0  0  0  0  0  0  0  0  0
    4.5925    0.2225   18.3289 C   0  0  0  0  0  0  0  0  0  0  0  0
    5.2106   -0.3809   19.4436 C   0  0  0  0  0  0  0  0  0  0  0  0
   10.3220   -0.8940   22.7910 C   0  0  0  0  0  0  0  0  0  0  0  0
    6.5899   -0.2225   19.6216 C   0  0  0  0  0  0  0  0  0  0  0  0
   12.6400   -1.1000   22.2390 C   0  0  0  0  0  0  0  0  0  0  0  0
    4.4370   -4.0440   26.4386 C   0  0  0  0  0  0  0  0  0  0  0  0
    7.7915   -1.9683   24.5500 C   0  0  0  0  0  0  0  0  0  0  0  0
    8.3880   -0.3240   21.3070 C   0  0  0  0  0  0  0  0  0  0  0  0
    6.8736   -1.4689   25.6452 C   0  0  0  0  0  0  0  0  0  0  0  0
    8.8810   -1.1900   22.4510 C   0  0  1  0  0  0  0  0  0  0  0  0
    3.2537   -4.8232   26.0850 C   0  0  0  0  0  0  0  0  0  0  0  0
    6.7379    1.1163   17.6125 N   0  0  0  0  0  0  0  0  0  0  0  0
    5.1374   -4.1611   27.5428 N   0  0  0  0  0  0  0  0  0  0  0  0
    4.9802   -3.0761   25.6525 N   0  0  0  0  0  0  0  0  0  0  0  0
    6.0614   -2.5310   26.2306 N   0  0  0  0  0  0  0  0  0  0  0  0
    7.2820   -0.7860   20.6970 N   0  0  0  0  0  0  0  0  0  0  0  0
    8.0352   -0.9804   23.6107 N   0  0  0  0  0  0  0  0  0  0  0  0
    8.2479   -3.1079   24.5168 O   0  0  0  0  0  0  0  0  0  0  0  0
    8.9170    0.7530   21.0260 O   0  0  0  0  0  0  0  0  0  0  0  0
    2.8727   -5.7560   27.0261 F   0  0  0  0  0  0  0  0  0  0  0  0
    2.1114   -4.0789   25.8808 F   0  0  0  0  0  0  0  0  0  0  0  0
    3.3939   -5.5520   24.9248 F   0  0  0  0  0  0  0  0  0  0  0  0
   13.8840   -1.8490   21.2740 Cl  0  0  0  0  0  0  0  0  0  0  0  0
    1.3764   -0.7749   18.8773 H   0  0  0  0  0  0  0  0  0  0  0  0
    2.4552   -1.8381   20.8380 H   0  0  0  0  0  0  0  0  0  0  0  0
   12.2249    1.2198   24.6546 H   0  0  0  0  0  0  0  0  0  0  0  0
    2.7196    0.5352   17.2771 H   0  0  0  0  0  0  0  0  0  0  0  0
    4.8628   -1.6030   21.2142 H   0  0  0  0  0  0  0  0  0  0  0  0
    9.8763    0.5350   24.3454 H   0  0  0  0  0  0  0  0  0  0  0  0
   14.0077    0.1988   23.2842 H   0  0  0  0  0  0  0  0  0  0  0  0
   11.0892   -2.3009   21.3624 H   0  0  0  0  0  0  0  0  0  0  0  0
    4.9927    1.4416   16.5801 H   0  0  0  0  0  0  0  0  0  0  0  0
    8.3668    0.6763   18.7836 H   0  0  0  0  0  0  0  0  0  0  0  0
    6.8810   -3.0512   28.1161 H   0  0  0  0  0  0  0  0  0  0  0  0
    6.1979   -0.7057   25.2431 H   0  0  0  0  0  0  0  0  0  0  0  0
    7.4653   -1.0130   26.4472 H   0  0  0  0  0  0  0  0  0  0  0  0
    8.7711   -2.2448   22.1651 H   0  0  0  0  0  0  0  0  0  0  0  0
    6.8984   -1.6618   21.0676 H   0  0  0  0  0  0  0  0  0  0  0  0
    7.5841   -0.0773   23.7028 H   0  0  0  0  0  0  0  0  0  0  0  0
  1  2  1  0  0  0  0
  1  4  2  0  0  0  0
  2  5  2  0  0  0  0
  3  6  2  0  0  0  0
  3  7  1  0  0  0  0
  4 12  1  0  0  0  0
  5 13  1  0  0  0  0
  6 14  1  0  0  0  0
  7 16  2  0  0  0  0
  8 14  2  0  0  0  0
  8 16  1  0  0  0  0
  9 12  2  0  0  0  0
  9 23  1  0  0  0  0
 10 15  1  0  0  0  0
 10 23  2  0  0  0  0
 11 24  2  0  0  0  0
 11 26  1  0  0  0  0
 12 13  1  0  0  0  0
 13 15  2  0  0  0  0
 14 21  1  0  0  0  0
 15 27  1  0  0  0  0
 16 34  1  0  0  0  0
 17 22  1  0  0  0  0
 17 24  1  0  0  0  0
 17 25  2  0  0  0  0
 18 20  1  0  0  0  0
 18 28  1  0  0  0  0
 18 29  2  0  0  0  0
 19 21  1  1  0  0  0
 19 27  1  0  0  0  0
 19 30  2  0  0  0  0
 20 26  1  0  0  0  0
 21 28  1  0  0  0  0
 22 31  1  0  0  0  0
 22 32  1  0  0  0  0
 22 33  1  0  0  0  0
 25 26  1  0  0  0  0
  1 35  1  0  0  0  0
  2 36  1  0  0  0  0
  3 37  1  0  0  0  0
  4 38  1  0  0  0  0
  5 39  1  0  0  0  0
  6 40  1  0  0  0  0
  7 41  1  0  0  0  0
  8 42  1  0  0  0  0
  9 43  1  0  0  0  0
 10 44  1  0  0  0  0
 11 45  1  0  0  0  0
 20 46  1  0  0  0  0
 20 47  1  0  0  0  0
 21 48  1  0  0  0  0
 27 49  1  0  0  0  0
 28 50  1  0  0  0  0
M  END
> <compound>
EDJ-MED-ee07cf00-10

> <compound_smiles>
c1ccc2c(c1)cncc2NC(=O)C(c3cccc(c3)Cl)NC(=O)Cn4cnc(n4)C(F)(F)F

> <enantiomer_smiles>
c1ccc2c(c1)cncc2NC(=O)[C@@H](c3cccc(c3)Cl)NC(=O)Cn4cnc(n4)C(F)(F)F

> <scaffold>
chlorobenzene-linker

> <canonical_CID>
EDJ-MED-ee07cf00-10

> <r_inhibition_at_20_uM>

> <r_inhibition_at_50_uM>

> <r_avg_IC50>

> <f_inhibition_at_20_uM>

> <f_inhibition_at_50_uM>

> <f_avg_IC50>
13.6449983563873

> <f_avg_pIC50>

> <relative_solubility_at_20_uM>

> <relative_solubility_at_100_uM>

> <trypsin_IC50>

> <NMR_std_ratio>

> <acrylamide>
False

> <chloroacetamide>
False

> <series>
Ugi

> <frag_id>

> <clash_score>
7.634434759413347

> <docking_score>
-0.14934861660003662

> <overlap_score>
0.7715505957603455

> <MMFF_internal_energy>
227.49642181742303

> <docked_smiles>
c1ccc2c(c1)cncc2NC(=O)[C@@H](c3cccc(c3)Cl)NC(=O)Cn4cnc(n4)C(F)(F)F

$$$$
EDJ-MED-ee07cf00-6_4
  -OEChem-07262101023D

 56 60  0     1  0  0  0  0  0999 V2000
    2.4453   -0.6644   19.0345 C   0  0  0  0  0  0  0  0  0  0  0  0
    3.0521   -1.2620   20.1368 C   0  0  0  0  0  0  0  0  0  0  0  0
   11.9780    0.4600   23.9150 C   0  0  0  0  0  0  0  0  0  0  0  0
    3.2094    0.0755   18.1324 C   0  0  0  0  0  0  0  0  0  0  0  0
    4.4258   -1.1223   20.3419 C   0  0  0  0  0  0  0  0  0  0  0  0
   10.6560    0.0720   23.7350 C   0  0  0  0  0  0  0  0  0  0  0  0
   12.9840   -0.1200   23.1530 C   0  0  0  0  0  0  0  0  0  0  0  0
   11.3360   -1.5050   22.0650 C   0  0  0  0  0  0  0  0  0  0  0  0
    5.4047    0.9517   17.4581 C   0  0  0  0  0  0  0  0  0  0  0  0
    4.2791   -5.0518   26.8851 C   0  0  0  0  0  0  0  0  0  0  0  0
    7.2951    0.5246   18.6905 C   0  0  0  0  0  0  0  0  0  0  0  0
    5.8093   -5.2804   28.4475 C   0  0  0  0  0  0  0  0  0  0  0  0
    4.5925    0.2225   18.3289 C   0  0  0  0  0  0  0  0  0  0  0  0
    5.2106   -0.3809   19.4436 C   0  0  0  0  0  0  0  0  0  0  0  0
    5.4452   -4.4608   27.4072 C   0  0  0  0  0  0  0  0  0  0  0  0
   10.3220   -0.8940   22.7910 C   0  0  0  0  0  0  0  0  0  0  0  0
    6.5899   -0.2225   19.6216 C   0  0  0  0  0  0  0  0  0  0  0  0
   12.6400   -1.1000   22.2390 C   0  0  0  0  0  0  0  0  0  0  0  0
    6.1585   -3.2404   26.9716 C   0  0  0  0  0  0  0  0  0  0  0  0
    7.7910   -1.9632   24.5478 C   0  0  0  0  0  0  0  0  0  0  0  0
    8.3880   -0.3240   21.3070 C   0  0  0  0  0  0  0  0  0  0  0  0
    5.6840   -2.4160   25.8233 C   0  0  0  0  0  0  0  0  0  0  0  0
    6.8911   -1.5279   25.6629 C   0  0  2  0  0  0  0  0  0  0  0  0
    4.8345   -7.3764   29.4141 C   0  0  0  0  0  0  0  0  0  0  0  0
    8.8810   -1.1900   22.4510 C   0  0  2  0  0  0  0  0  0  0  0  0
    6.7379    1.1163   17.6125 N   0  0  0  0  0  0  0  0  0  0  0  0
    3.9259   -6.1613   27.5396 N   0  0  0  0  0  0  0  0  0  0  0  0
    7.2226   -2.7921   27.5571 N   0  0  0  0  0  0  0  0  0  0  0  0
    4.8757   -6.2740   28.4836 N   0  0  0  0  0  0  0  0  0  0  0  0
    7.2820   -0.7860   20.6970 N   0  0  0  0  0  0  0  0  0  0  0  0
    8.0352   -0.9804   23.6107 N   0  0  0  0  0  0  0  0  0  0  0  0
    8.2327   -3.1063   24.5389 O   0  0  0  0  0  0  0  0  0  0  0  0
    8.9170    0.7530   21.0260 O   0  0  0  0  0  0  0  0  0  0  0  0
    7.6170   -1.6130   26.8831 O   0  0  0  0  0  0  0  0  0  0  0  0
   13.8840   -1.8490   21.2740 Cl  0  0  0  0  0  0  0  0  0  0  0  0
    1.3764   -0.7749   18.8773 H   0  0  0  0  0  0  0  0  0  0  0  0
    2.4552   -1.8381   20.8381 H   0  0  0  0  0  0  0  0  0  0  0  0
   12.2249    1.2198   24.6546 H   0  0  0  0  0  0  0  0  0  0  0  0
    2.7196    0.5352   17.2771 H   0  0  0  0  0  0  0  0  0  0  0  0
    4.8628   -1.6030   21.2142 H   0  0  0  0  0  0  0  0  0  0  0  0
    9.8763    0.5350   24.3454 H   0  0  0  0  0  0  0  0  0  0  0  0
   14.0077    0.1988   23.2842 H   0  0  0  0  0  0  0  0  0  0  0  0
   11.0892   -2.3009   21.3624 H   0  0  0  0  0  0  0  0  0  0  0  0
    4.9927    1.4416   16.5801 H   0  0  0  0  0  0  0  0  0  0  0  0
    3.6707   -4.7233   26.0541 H   0  0  0  0  0  0  0  0  0  0  0  0
    8.3668    0.6763   18.7836 H   0  0  0  0  0  0  0  0  0  0  0  0
    6.6335   -5.2442   29.1472 H   0  0  0  0  0  0  0  0  0  0  0  0
    5.4893   -3.0651   24.9634 H   0  0  0  0  0  0  0  0  0  0  0  0
    4.7777   -1.8558   26.0684 H   0  0  0  0  0  0  0  0  0  0  0  0
    6.5958   -0.4672   25.4971 H   0  0  0  0  0  0  0  0  0  0  0  0
    4.2442   -7.0649   30.2799 H   0  0  0  0  0  0  0  0  0  0  0  0
    4.3761   -8.2437   28.9309 H   0  0  0  0  0  0  0  0  0  0  0  0
    5.8537   -7.6321   29.7168 H   0  0  0  0  0  0  0  0  0  0  0  0
    8.7711   -2.2448   22.1651 H   0  0  0  0  0  0  0  0  0  0  0  0
    6.8984   -1.6618   21.0676 H   0  0  0  0  0  0  0  0  0  0  0  0
    7.6033   -0.0721   23.7386 H   0  0  0  0  0  0  0  0  0  0  0  0
  1  2  1  0  0  0  0
  1  4  2  0  0  0  0
  2  5  2  0  0  0  0
  3  6  2  0  0  0  0
  3  7  1  0  0  0  0
  4 13  1  0  0  0  0
  5 14  1  0  0  0  0
  6 16  1  0  0  0  0
  7 18  2  0  0  0  0
  8 16  2  0  0  0  0
  8 18  1  0  0  0  0
  9 13  2  0  0  0  0
  9 26  1  0  0  0  0
 10 15  1  0  0  0  0
 10 27  2  0  0  0  0
 11 17  1  0  0  0  0
 11 26  2  0  0  0  0
 12 15  2  0  0  0  0
 12 29  1  0  0  0  0
 13 14  1  0  0  0  0
 14 17  2  0  0  0  0
 15 19  1  0  0  0  0
 16 25  1  0  0  0  0
 17 30  1  0  0  0  0
 18 35  1  0  0  0  0
 19 22  1  0  0  0  0
 19 28  2  0  0  0  0
 20 23  1  6  0  0  0
 20 31  1  0  0  0  0
 20 32  2  0  0  0  0
 21 25  1  6  0  0  0
 21 30  1  0  0  0  0
 21 33  2  0  0  0  0
 22 23  1  0  0  0  0
 23 34  1  0  0  0  0
 24 29  1  0  0  0  0
 25 31  1  0  0  0  0
 27 29  1  0  0  0  0
 28 34  1  0  0  0  0
  1 36  1  0  0  0  0
  2 37  1  0  0  0  0
  3 38  1  0  0  0  0
  4 39  1  0  0  0  0
  5 40  1  0  0  0  0
  6 41  1  0  0  0  0
  7 42  1  0  0  0  0
  8 43  1  0  0  0  0
  9 44  1  0  0  0  0
 10 45  1  0  0  0  0
 11 46  1  0  0  0  0
 12 47  1  0  0  0  0
 22 48  1  0  0  0  0
 22 49  1  0  0  0  0
 23 50  1  0  0  0  0
 24 51  1  0  0  0  0
 24 52  1  0  0  0  0
 24 53  1  0  0  0  0
 25 54  1  0  0  0  0
 30 55  1  0  0  0  0
 31 56  1  0  0  0  0
M  END
> <compound>
EDJ-MED-ee07cf00-6

> <compound_smiles>
Cn1cc(cn1)C2=NOC(C2)C(=O)NC(c3cccc(c3)Cl)C(=O)Nc4cncc5c4cccc5

> <enantiomer_smiles>
Cn1cc(cn1)C2=NO[C@H](C2)C(=O)N[C@H](c3cccc(c3)Cl)C(=O)Nc4cncc5c4cccc5

> <scaffold>
chlorobenzene-linker

> <canonical_CID>
EDJ-MED-ee07cf00-6

> <r_inhibition_at_20_uM>

> <r_inhibition_at_50_uM>

> <r_avg_IC50>

> <f_inhibition_at_20_uM>

> <f_inhibition_at_50_uM>

> <f_avg_IC50>
7.19030700780295

> <f_avg_pIC50>

> <relative_solubility_at_20_uM>

> <relative_solubility_at_100_uM>

> <trypsin_IC50>

> <NMR_std_ratio>

> <acrylamide>
False

> <chloroacetamide>
False

> <series>
Ugi

> <frag_id>

> <clash_score>
7.6344602265862616

> <docking_score>
0.5984505414962769

> <overlap_score>
0.7694713473320007

> <MMFF_internal_energy>
145.01524076336247

> <docked_smiles>
Cn1cc(cn1)C2=NO[C@H](C2)C(=O)N[C@H](c3cccc(c3)Cl)C(=O)Nc4cncc5c4cccc5

$$$$
EDJ-MED-ee07cf00-6_3
  -OEChem-07262101023D

 56 60  0     1  0  0  0  0  0999 V2000
    2.4453   -0.6644   19.0345 C   0  0  0  0  0  0  0  0  0  0  0  0
    3.0521   -1.2620   20.1368 C   0  0  0  0  0  0  0  0  0  0  0  0
   11.9780    0.4600   23.9150 C   0  0  0  0  0  0  0  0  0  0  0  0
    3.2094    0.0755   18.1324 C   0  0  0  0  0  0  0  0  0  0  0  0
    4.4258   -1.1223   20.3419 C   0  0  0  0  0  0  0  0  0  0  0  0
   10.6560    0.0720   23.7350 C   0  0  0  0  0  0  0  0  0  0  0  0
   12.9840   -0.1200   23.1530 C   0  0  0  0  0  0  0  0  0  0  0  0
   11.3360   -1.5050   22.0650 C   0  0  0  0  0  0  0  0  0  0  0  0
    5.4047    0.9517   17.4581 C   0  0  0  0  0  0  0  0  0  0  0  0
    3.1895   -4.6537   26.1873 C   0  0  0  0  0  0  0  0  0  0  0  0
    7.2951    0.5246   18.6905 C   0  0  0  0  0  0  0  0  0  0  0  0
    4.9263   -5.1209   27.4524 C   0  0  0  0  0  0  0  0  0  0  0  0
    4.5925    0.2225   18.3289 C   0  0  0  0  0  0  0  0  0  0  0  0
    5.2106   -0.3809   19.4436 C   0  0  0  0  0  0  0  0  0  0  0  0
    4.4663   -4.1885   26.5549 C   0  0  0  0  0  0  0  0  0  0  0  0
   10.3220   -0.8940   22.7910 C   0  0  0  0  0  0  0  0  0  0  0  0
    6.5899   -0.2225   19.6216 C   0  0  0  0  0  0  0  0  0  0  0  0
   12.6400   -1.1000   22.2390 C   0  0  0  0  0  0  0  0  0  0  0  0
    5.1943   -2.9815   26.1056 C   0  0  0  0  0  0  0  0  0  0  0  0
    7.7910   -1.9632   24.5478 C   0  0  0  0  0  0  0  0  0  0  0  0
    8.3880   -0.3240   21.3070 C   0  0  0  0  0  0  0  0  0  0  0  0
    6.5563   -2.6482   26.6117 C   0  0  0  0  0  0  0  0  0  0  0  0
    6.8920   -1.5284   25.6618 C   0  0  1  0  0  0  0  0  0  0  0  0
    3.9571   -7.2293   28.3975 C   0  0  0  0  0  0  0  0  0  0  0  0
    8.8810   -1.1900   22.4510 C   0  0  2  0  0  0  0  0  0  0  0  0
    6.7379    1.1163   17.6125 N   0  0  0  0  0  0  0  0  0  0  0  0
    2.8595   -5.7932   26.8011 N   0  0  0  0  0  0  0  0  0  0  0  0
    4.7037   -2.1283   25.2647 N   0  0  0  0  0  0  0  0  0  0  0  0
    3.9357   -6.0518   27.5633 N   0  0  0  0  0  0  0  0  0  0  0  0
    7.2820   -0.7860   20.6970 N   0  0  0  0  0  0  0  0  0  0  0  0
    8.0352   -0.9804   23.6107 N   0  0  0  0  0  0  0  0  0  0  0  0
    8.2327   -3.1063   24.5389 O   0  0  0  0  0  0  0  0  0  0  0  0
    8.9170    0.7530   21.0260 O   0  0  0  0  0  0  0  0  0  0  0  0
    5.6641   -1.1070   25.0790 O   0  0  0  0  0  0  0  0  0  0  0  0
   13.8840   -1.8490   21.2740 Cl  0  0  0  0  0  0  0  0  0  0  0  0
    1.3764   -0.7749   18.8773 H   0  0  0  0  0  0  0  0  0  0  0  0
    2.4552   -1.8381   20.8381 H   0  0  0  0  0  0  0  0  0  0  0  0
   12.2249    1.2198   24.6546 H   0  0  0  0  0  0  0  0  0  0  0  0
    2.7196    0.5352   17.2771 H   0  0  0  0  0  0  0  0  0  0  0  0
    4.8628   -1.6030   21.2142 H   0  0  0  0  0  0  0  0  0  0  0  0
    9.8763    0.5350   24.3454 H   0  0  0  0  0  0  0  0  0  0  0  0
   14.0077    0.1988   23.2842 H   0  0  0  0  0  0  0  0  0  0  0  0
   11.0892   -2.3009   21.3624 H   0  0  0  0  0  0  0  0  0  0  0  0
    4.9927    1.4416   16.5801 H   0  0  0  0  0  0  0  0  0  0  0  0
    2.4842   -4.2127   25.4970 H   0  0  0  0  0  0  0  0  0  0  0  0
    8.3668    0.6763   18.7836 H   0  0  0  0  0  0  0  0  0  0  0  0
    5.8515   -5.2012   28.0071 H   0  0  0  0  0  0  0  0  0  0  0  0
    6.4677   -2.2966   27.6445 H   0  0  0  0  0  0  0  0  0  0  0  0
    7.2344   -3.5038   26.5680 H   0  0  0  0  0  0  0  0  0  0  0  0
    7.3635   -0.6831   26.1750 H   0  0  0  0  0  0  0  0  0  0  0  0
    3.5382   -6.9607   29.3708 H   0  0  0  0  0  0  0  0  0  0  0  0
    3.3615   -8.0180   27.9294 H   0  0  0  0  0  0  0  0  0  0  0  0
    4.9885   -7.5762   28.5064 H   0  0  0  0  0  0  0  0  0  0  0  0
    8.7711   -2.2448   22.1651 H   0  0  0  0  0  0  0  0  0  0  0  0
    6.8984   -1.6618   21.0676 H   0  0  0  0  0  0  0  0  0  0  0  0
    7.6033   -0.0721   23.7386 H   0  0  0  0  0  0  0  0  0  0  0  0
  1  2  1  0  0  0  0
  1  4  2  0  0  0  0
  2  5  2  0  0  0  0
  3  6  2  0  0  0  0
  3  7  1  0  0  0  0
  4 13  1  0  0  0  0
  5 14  1  0  0  0  0
  6 16  1  0  0  0  0
  7 18  2  0  0  0  0
  8 16  2  0  0  0  0
  8 18  1  0  0  0  0
  9 13  2  0  0  0  0
  9 26  1  0  0  0  0
 10 15  1  0  0  0  0
 10 27  2  0  0  0  0
 11 17  1  0  0  0  0
 11 26  2  0  0  0  0
 12 15  2  0  0  0  0
 12 29  1  0  0  0  0
 13 14  1  0  0  0  0
 14 17  2  0  0  0  0
 15 19  1  0  0  0  0
 16 25  1  0  0  0  0
 17 30  1  0  0  0  0
 18 35  1  0  0  0  0
 19 22  1  0  0  0  0
 19 28  2  0  0  0  0
 20 23  1  1  0  0  0
 20 31  1  0  0  0  0
 20 32  2  0  0  0  0
 21 25  1  6  0  0  0
 21 30  1  0  0  0  0
 21 33  2  0  0  0  0
 22 23  1  0  0  0  0
 23 34  1  0  0  0  0
 24 29  1  0  0  0  0
 25 31  1  0  0  0  0
 27 29  1  0  0  0  0
 28 34  1  0  0  0  0
  1 36  1  0  0  0  0
  2 37  1  0  0  0  0
  3 38  1  0  0  0  0
  4 39  1  0  0  0  0
  5 40  1  0  0  0  0
  6 41  1  0  0  0  0
  7 42  1  0  0  0  0
  8 43  1  0  0  0  0
  9 44  1  0  0  0  0
 10 45  1  0  0  0  0
 11 46  1  0  0  0  0
 12 47  1  0  0  0  0
 22 48  1  0  0  0  0
 22 49  1  0  0  0  0
 23 50  1  0  0  0  0
 24 51  1  0  0  0  0
 24 52  1  0  0  0  0
 24 53  1  0  0  0  0
 25 54  1  0  0  0  0
 30 55  1  0  0  0  0
 31 56  1  0  0  0  0
M  END
> <compound>
EDJ-MED-ee07cf00-6

> <compound_smiles>
Cn1cc(cn1)C2=NOC(C2)C(=O)NC(c3cccc(c3)Cl)C(=O)Nc4cncc5c4cccc5

> <enantiomer_smiles>
Cn1cc(cn1)C2=NO[C@@H](C2)C(=O)N[C@H](c3cccc(c3)Cl)C(=O)Nc4cncc5c4cccc5

> <scaffold>
chlorobenzene-linker

> <canonical_CID>
EDJ-MED-ee07cf00-6

> <r_inhibition_at_20_uM>

> <r_inhibition_at_50_uM>

> <r_avg_IC50>

> <f_inhibition_at_20_uM>

> <f_inhibition_at_50_uM>

> <f_avg_IC50>
7.19030700780295

> <f_avg_pIC50>

> <relative_solubility_at_20_uM>

> <relative_solubility_at_100_uM>

> <trypsin_IC50>

> <NMR_std_ratio>

> <acrylamide>
False

> <chloroacetamide>
False

> <series>
Ugi

> <frag_id>

> <clash_score>
7.634445025433259

> <docking_score>
1.5094040632247925

> <overlap_score>
0.7694894075393677

> <MMFF_internal_energy>
135.48670740685122

> <docked_smiles>
Cn1cc(cn1)C2=NO[C@@H](C2)C(=O)N[C@H](c3cccc(c3)Cl)C(=O)Nc4cncc5c4cccc5

$$$$
EDJ-MED-ee07cf00-10_2
  -OEChem-07262101023D

 50 53  0     1  0  0  0  0  0999 V2000
    2.5578    0.9697   19.8184 C   0  0  0  0  0  0  0  0  0  0  0  0
    3.1679    0.4166   20.9418 C   0  0  0  0  0  0  0  0  0  0  0  0
   11.9780    0.4600   23.9150 C   0  0  0  0  0  0  0  0  0  0  0  0
    3.2816    1.1263   18.6365 C   0  0  0  0  0  0  0  0  0  0  0  0
    4.5045    0.0176   20.8886 C   0  0  0  0  0  0  0  0  0  0  0  0
   10.6560    0.0720   23.7350 C   0  0  0  0  0  0  0  0  0  0  0  0
   12.9840   -0.1200   23.1530 C   0  0  0  0  0  0  0  0  0  0  0  0
   11.3360   -1.5050   22.0650 C   0  0  0  0  0  0  0  0  0  0  0  0
    5.3983    0.8618   17.4152 C   0  0  0  0  0  0  0  0  0  0  0  0
    7.2560   -0.0413   18.4191 C   0  0  0  0  0  0  0  0  0  0  0  0
    7.2422   -4.9816   20.0586 C   0  0  0  0  0  0  0  0  0  0  0  0
    4.6272    0.7281   18.5715 C   0  0  0  0  0  0  0  0  0  0  0  0
    5.2484    0.1678   19.7068 C   0  0  0  0  0  0  0  0  0  0  0  0
   10.3220   -0.8940   22.7910 C   0  0  0  0  0  0  0  0  0  0  0  0
    6.5899   -0.2225   19.6216 C   0  0  0  0  0  0  0  0  0  0  0  0
   12.6400   -1.1000   22.2390 C   0  0  0  0  0  0  0  0  0  0  0  0
    5.2206   -5.1249   20.5583 C   0  0  0  0  0  0  0  0  0  0  0  0
    8.4771   -3.5748   23.0322 C   0  0  0  0  0  0  0  0  0  0  0  0
    8.3880   -0.3240   21.3070 C   0  0  0  0  0  0  0  0  0  0  0  0
    8.3590   -4.9348   22.3783 C   0  0  0  0  0  0  0  0  0  0  0  0
    8.8810   -1.1900   22.4510 C   0  0  2  0  0  0  0  0  0  0  0  0
    3.7636   -5.2212   20.5483 C   0  0  0  0  0  0  0  0  0  0  0  0
    6.6946    0.4912   17.3129 N   0  0  0  0  0  0  0  0  0  0  0  0
    5.9976   -5.0580   19.5022 N   0  0  0  0  0  0  0  0  0  0  0  0
    5.9786   -5.0892   21.6871 N   0  0  0  0  0  0  0  0  0  0  0  0
    7.2843   -4.9971   21.3926 N   0  0  0  0  0  0  0  0  0  0  0  0
    7.2820   -0.7860   20.6970 N   0  0  0  0  0  0  0  0  0  0  0  0
    8.7217   -2.5865   22.0933 N   0  0  0  0  0  0  0  0  0  0  0  0
    8.3690   -3.3937   24.2420 O   0  0  0  0  0  0  0  0  0  0  0  0
    8.9170    0.7530   21.0260 O   0  0  0  0  0  0  0  0  0  0  0  0
    3.1935   -5.2406   19.2931 F   0  0  0  0  0  0  0  0  0  0  0  0
    3.2548   -6.3491   21.1562 F   0  0  0  0  0  0  0  0  0  0  0  0
    3.1328   -4.1783   21.1895 F   0  0  0  0  0  0  0  0  0  0  0  0
   13.8840   -1.8490   21.2740 Cl  0  0  0  0  0  0  0  0  0  0  0  0
    1.5177    1.2791   19.8625 H   0  0  0  0  0  0  0  0  0  0  0  0
    2.6022    0.2953   21.8613 H   0  0  0  0  0  0  0  0  0  0  0  0
   12.2249    1.2198   24.6546 H   0  0  0  0  0  0  0  0  0  0  0  0
    2.7899    1.5597   17.7688 H   0  0  0  0  0  0  0  0  0  0  0  0
    4.9456   -0.4092   21.7864 H   0  0  0  0  0  0  0  0  0  0  0  0
    9.8763    0.5350   24.3454 H   0  0  0  0  0  0  0  0  0  0  0  0
   14.0077    0.1988   23.2842 H   0  0  0  0  0  0  0  0  0  0  0  0
   11.0892   -2.3009   21.3624 H   0  0  0  0  0  0  0  0  0  0  0  0
    4.9815    1.2854   16.5055 H   0  0  0  0  0  0  0  0  0  0  0  0
    8.2971   -0.3285   18.3019 H   0  0  0  0  0  0  0  0  0  0  0  0
    8.1371   -4.9125   19.4527 H   0  0  0  0  0  0  0  0  0  0  0  0
    8.1660   -5.6973   23.1412 H   0  0  0  0  0  0  0  0  0  0  0  0
    9.2980   -5.1872   21.8728 H   0  0  0  0  0  0  0  0  0  0  0  0
    8.2436   -1.0112   23.3272 H   0  0  0  0  0  0  0  0  0  0  0  0
    6.8984   -1.6618   21.0676 H   0  0  0  0  0  0  0  0  0  0  0  0
    8.8283   -2.8367   21.1168 H   0  0  0  0  0  0  0  0  0  0  0  0
  1  2  1  0  0  0  0
  1  4  2  0  0  0  0
  2  5  2  0  0  0  0
  3  6  2  0  0  0  0
  3  7  1  0  0  0  0
  4 12  1  0  0  0  0
  5 13  1  0  0  0  0
  6 14  1  0  0  0  0
  7 16  2  0  0  0  0
  8 14  2  0  0  0  0
  8 16  1  0  0  0  0
  9 12  2  0  0  0  0
  9 23  1  0  0  0  0
 10 15  1  0  0  0  0
 10 23  2  0  0  0  0
 11 24  2  0  0  0  0
 11 26  1  0  0  0  0
 12 13  1  0  0  0  0
 13 15  2  0  0  0  0
 14 21  1  0  0  0  0
 15 27  1  0  0  0  0
 16 34  1  0  0  0  0
 17 22  1  0  0  0  0
 17 24  1  0  0  0  0
 17 25  2  0  0  0  0
 18 20  1  0  0  0  0
 18 28  1  0  0  0  0
 18 29  2  0  0  0  0
 19 21  1  6  0  0  0
 19 27  1  0  0  0  0
 19 30  2  0  0  0  0
 20 26  1  0  0  0  0
 21 28  1  0  0  0  0
 22 31  1  0  0  0  0
 22 32  1  0  0  0  0
 22 33  1  0  0  0  0
 25 26  1  0  0  0  0
  1 35  1  0  0  0  0
  2 36  1  0  0  0  0
  3 37  1  0  0  0  0
  4 38  1  0  0  0  0
  5 39  1  0  0  0  0
  6 40  1  0  0  0  0
  7 41  1  0  0  0  0
  8 42  1  0  0  0  0
  9 43  1  0  0  0  0
 10 44  1  0  0  0  0
 11 45  1  0  0  0  0
 20 46  1  0  0  0  0
 20 47  1  0  0  0  0
 21 48  1  0  0  0  0
 27 49  1  0  0  0  0
 28 50  1  0  0  0  0
M  END
> <compound>
EDJ-MED-ee07cf00-10

> <compound_smiles>
c1ccc2c(c1)cncc2NC(=O)C(c3cccc(c3)Cl)NC(=O)Cn4cnc(n4)C(F)(F)F

> <enantiomer_smiles>
c1ccc2c(c1)cncc2NC(=O)[C@H](c3cccc(c3)Cl)NC(=O)Cn4cnc(n4)C(F)(F)F

> <scaffold>
chlorobenzene-linker

> <canonical_CID>
EDJ-MED-ee07cf00-10

> <r_inhibition_at_20_uM>

> <r_inhibition_at_50_uM>

> <r_avg_IC50>

> <f_inhibition_at_20_uM>

> <f_inhibition_at_50_uM>

> <f_avg_IC50>
13.6449983563873

> <f_avg_pIC50>

> <relative_solubility_at_20_uM>

> <relative_solubility_at_100_uM>

> <trypsin_IC50>

> <NMR_std_ratio>

> <acrylamide>
False

> <chloroacetamide>
False

> <series>
Ugi

> <frag_id>

> <clash_score>
7.577789610938825

> <docking_score>
1.0387248992919922

> <overlap_score>
0.8821343779563904

> <MMFF_internal_energy>
238.31158260551902

> <docked_smiles>
c1ccc2c(c1)cncc2NC(=O)[C@H](c3cccc(c3)Cl)NC(=O)Cn4cnc(n4)C(F)(F)F

$$$$
EDJ-MED-ee07cf00-11_1
  -OEChem-07262101023D

 63 67  0     1  0  0  0  0  0999 V2000
    2.5650    1.0118   19.7905 C   0  0  0  0  0  0  0  0  0  0  0  0
    3.1657    0.4486   20.9139 C   0  0  0  0  0  0  0  0  0  0  0  0
   11.9780    0.4600   23.9150 C   0  0  0  0  0  0  0  0  0  0  0  0
    3.2959    1.1705   18.6133 C   0  0  0  0  0  0  0  0  0  0  0  0
    4.5001    0.0414   20.8653 C   0  0  0  0  0  0  0  0  0  0  0  0
   10.6560    0.0720   23.7350 C   0  0  0  0  0  0  0  0  0  0  0  0
   12.9840   -0.1200   23.1530 C   0  0  0  0  0  0  0  0  0  0  0  0
   11.3360   -1.5050   22.0650 C   0  0  0  0  0  0  0  0  0  0  0  0
    5.4171    0.8995   17.4014 C   0  0  0  0  0  0  0  0  0  0  0  0
    7.2639   -0.0211   18.4097 C   0  0  0  0  0  0  0  0  0  0  0  0
    4.6393    0.7642   18.5530 C   0  0  0  0  0  0  0  0  0  0  0  0
    5.2510    0.1935   19.6882 C   0  0  0  0  0  0  0  0  0  0  0  0
   10.3220   -0.8940   22.7910 C   0  0  0  0  0  0  0  0  0  0  0  0
    6.5904   -0.2048   19.6077 C   0  0  0  0  0  0  0  0  0  0  0  0
   12.6400   -1.1000   22.2390 C   0  0  0  0  0  0  0  0  0  0  0  0
    4.3435   -3.7843   25.0874 C   0  0  0  0  0  0  0  0  0  0  0  0
    7.7910   -1.9633   24.5477 C   0  0  0  0  0  0  0  0  0  0  0  0
    8.3880   -0.3240   21.3070 C   0  0  0  0  0  0  0  0  0  0  0  0
    1.5283   -6.0500   25.7673 C   0  0  0  0  0  0  0  0  0  0  0  0
    1.2820   -4.9631   26.8061 C   0  0  0  0  0  0  0  0  0  0  0  0
    6.1659   -3.4819   26.7786 C   0  0  0  0  0  0  0  0  0  0  0  0
    7.1309   -2.3295   26.9251 C   0  0  0  0  0  0  0  0  0  0  0  0
    2.4491   -5.3627   24.7709 C   0  0  0  0  0  0  0  0  0  0  0  0
    2.6344   -4.2712   26.9034 C   0  0  0  0  0  0  0  0  0  0  0  0
    5.0102   -2.8447   26.0350 C   0  0  1  0  0  0  0  0  0  0  0  0
    6.8922   -1.5285   25.6616 C   0  0  2  0  0  0  0  0  0  0  0  0
    8.8810   -1.1900   22.4510 C   0  0  1  0  0  0  0  0  0  0  0  0
    6.7116    0.5212   17.3036 N   0  0  0  0  0  0  0  0  0  0  0  0
    3.2164   -4.4214   25.5733 N   0  0  0  0  0  0  0  0  0  0  0  0
    7.2820   -0.7860   20.6970 N   0  0  0  0  0  0  0  0  0  0  0  0
    8.0374   -0.9810   23.6076 N   0  0  0  0  0  0  0  0  0  0  0  0
    4.7943   -3.9507   23.9529 O   0  0  0  0  0  0  0  0  0  0  0  0
    8.2327   -3.1063   24.5389 O   0  0  0  0  0  0  0  0  0  0  0  0
    8.9170    0.7530   21.0260 O   0  0  0  0  0  0  0  0  0  0  0  0
    5.5537   -1.7881   25.2368 O   0  0  0  0  0  0  0  0  0  0  0  0
   13.8840   -1.8490   21.2740 Cl  0  0  0  0  0  0  0  0  0  0  0  0
    1.5267    1.3276   19.8311 H   0  0  0  0  0  0  0  0  0  0  0  0
    2.5946    0.3257   21.8297 H   0  0  0  0  0  0  0  0  0  0  0  0
   12.2249    1.2198   24.6546 H   0  0  0  0  0  0  0  0  0  0  0  0
    2.8114    1.6119   17.7455 H   0  0  0  0  0  0  0  0  0  0  0  0
    4.9338   -0.3933   21.7630 H   0  0  0  0  0  0  0  0  0  0  0  0
    9.8763    0.5350   24.3454 H   0  0  0  0  0  0  0  0  0  0  0  0
   14.0077    0.1988   23.2842 H   0  0  0  0  0  0  0  0  0  0  0  0
   11.0892   -2.3008   21.3624 H   0  0  0  0  0  0  0  0  0  0  0  0
    5.0078    1.3308   16.4920 H   0  0  0  0  0  0  0  0  0  0  0  0
    8.3038   -0.3142   18.2963 H   0  0  0  0  0  0  0  0  0  0  0  0
    2.0370   -6.9050   26.2280 H   0  0  0  0  0  0  0  0  0  0  0  0
    0.6016   -6.4033   25.3067 H   0  0  0  0  0  0  0  0  0  0  0  0
    0.5216   -4.2607   26.4447 H   0  0  0  0  0  0  0  0  0  0  0  0
    0.9508   -5.3711   27.7650 H   0  0  0  0  0  0  0  0  0  0  0  0
    6.6296   -4.2912   26.1997 H   0  0  0  0  0  0  0  0  0  0  0  0
    5.8579   -3.9070   27.7400 H   0  0  0  0  0  0  0  0  0  0  0  0
    6.8470   -1.7303   27.7987 H   0  0  0  0  0  0  0  0  0  0  0  0
    8.1668   -2.6547   27.0586 H   0  0  0  0  0  0  0  0  0  0  0  0
    3.1104   -6.0578   24.2452 H   0  0  0  0  0  0  0  0  0  0  0  0
    1.8833   -4.7854   24.0313 H   0  0  0  0  0  0  0  0  0  0  0  0
    2.5494   -3.2171   27.1809 H   0  0  0  0  0  0  0  0  0  0  0  0
    3.2930   -4.7786   27.6165 H   0  0  0  0  0  0  0  0  0  0  0  0
    4.2634   -2.4215   26.7123 H   0  0  0  0  0  0  0  0  0  0  0  0
    7.0316   -0.4553   25.8185 H   0  0  0  0  0  0  0  0  0  0  0  0
    8.7711   -2.2448   22.1651 H   0  0  0  0  0  0  0  0  0  0  0  0
    6.8975   -1.6551   21.0614 H   0  0  0  0  0  0  0  0  0  0  0  0
    7.6065   -0.0703   23.7357 H   0  0  0  0  0  0  0  0  0  0  0  0
  1  2  1  0  0  0  0
  1  4  2  0  0  0  0
  2  5  2  0  0  0  0
  3  6  2  0  0  0  0
  3  7  1  0  0  0  0
  4 11  1  0  0  0  0
  5 12  1  0  0  0  0
  6 13  1  0  0  0  0
  7 15  2  0  0  0  0
  8 13  2  0  0  0  0
  8 15  1  0  0  0  0
  9 11  2  0  0  0  0
  9 28  1  0  0  0  0
 10 14  1  0  0  0  0
 10 28  2  0  0  0  0
 11 12  1  0  0  0  0
 12 14  2  0  0  0  0
 13 27  1  0  0  0  0
 14 30  1  0  0  0  0
 15 36  1  0  0  0  0
 16 25  1  1  0  0  0
 16 29  1  0  0  0  0
 16 32  2  0  0  0  0
 17 26  1  1  0  0  0
 17 31  1  0  0  0  0
 17 33  2  0  0  0  0
 18 27  1  1  0  0  0
 18 30  1  0  0  0  0
 18 34  2  0  0  0  0
 19 20  1  0  0  0  0
 19 23  1  0  0  0  0
 20 24  1  0  0  0  0
 21 22  1  0  0  0  0
 21 25  1  0  0  0  0
 22 26  1  0  0  0  0
 23 29  1  0  0  0  0
 24 29  1  0  0  0  0
 25 35  1  0  0  0  0
 26 35  1  0  0  0  0
 27 31  1  0  0  0  0
  1 37  1  0  0  0  0
  2 38  1  0  0  0  0
  3 39  1  0  0  0  0
  4 40  1  0  0  0  0
  5 41  1  0  0  0  0
  6 42  1  0  0  0  0
  7 43  1  0  0  0  0
  8 44  1  0  0  0  0
  9 45  1  0  0  0  0
 10 46  1  0  0  0  0
 19 47  1  0  0  0  0
 19 48  1  0  0  0  0
 20 49  1  0  0  0  0
 20 50  1  0  0  0  0
 21 51  1  0  0  0  0
 21 52  1  0  0  0  0
 22 53  1  0  0  0  0
 22 54  1  0  0  0  0
 23 55  1  0  0  0  0
 23 56  1  0  0  0  0
 24 57  1  0  0  0  0
 24 58  1  0  0  0  0
 25 59  1  0  0  0  0
 26 60  1  0  0  0  0
 27 61  1  0  0  0  0
 30 62  1  0  0  0  0
 31 63  1  0  0  0  0
M  END
> <compound>
EDJ-MED-ee07cf00-11

> <compound_smiles>
c1ccc2c(c1)cncc2NC(=O)C(c3cccc(c3)Cl)NC(=O)C4CCC(O4)C(=O)N5CCCC5

> <enantiomer_smiles>
c1ccc2c(c1)cncc2NC(=O)[C@@H](c3cccc(c3)Cl)NC(=O)[C@@H]4CC[C@@H](O4)C(=O)N5CCCC5

> <scaffold>
chlorobenzene-linker

> <clash_score>
0.651224689792249

> <docking_score>
-3.0814108848571777

> <overlap_score>
0.8811512589454651

> <MMFF_internal_energy>
167.74277723138897

> <docked_smiles>
c1ccc2c(c1)cncc2NC(=O)[C@@H](c3cccc(c3)Cl)NC(=O)[C@@H]4CC[C@@H](O4)C(=O)N5CCCC5

$$$$
EDJ-MED-ee07cf00-13_1
  -OEChem-07262101023D

 57 61  0     1  0  0  0  0  0999 V2000
    4.8854    3.6419   19.7205 C   0  0  0  0  0  0  0  0  0  0  0  0
    5.5494    3.1500   20.8419 C   0  0  0  0  0  0  0  0  0  0  0  0
   11.9780    0.4600   23.9150 C   0  0  0  0  0  0  0  0  0  0  0  0
    4.7878    2.8619   18.5685 C   0  0  0  0  0  0  0  0  0  0  0  0
    6.1189    1.8757   20.8162 C   0  0  0  0  0  0  0  0  0  0  0  0
   10.6560    0.0720   23.7350 C   0  0  0  0  0  0  0  0  0  0  0  0
   12.9840   -0.1200   23.1530 C   0  0  0  0  0  0  0  0  0  0  0  0
   11.3360   -1.5050   22.0650 C   0  0  0  0  0  0  0  0  0  0  0  0
    5.2893    0.7552   17.4056 C   0  0  0  0  0  0  0  0  0  0  0  0
    6.4602   -0.9317   18.4342 C   0  0  0  0  0  0  0  0  0  0  0  0
    5.3570    1.5782   18.5316 C   0  0  0  0  0  0  0  0  0  0  0  0
    6.0301    1.0765   19.6647 C   0  0  0  0  0  0  0  0  0  0  0  0
   10.3220   -0.8940   22.7910 C   0  0  0  0  0  0  0  0  0  0  0  0
    6.5904   -0.2048   19.6077 C   0  0  0  0  0  0  0  0  0  0  0  0
   12.6400   -1.1000   22.2390 C   0  0  0  0  0  0  0  0  0  0  0  0
    5.6665   -5.6463   23.2168 C   0  0  0  0  0  0  0  0  0  0  0  0
    5.0327   -6.7572   24.8759 C   0  0  0  0  0  0  0  0  0  0  0  0
    8.4779   -3.5758   23.0238 C   0  0  0  0  0  0  0  0  0  0  0  0
    8.3880   -0.3240   21.3070 C   0  0  0  0  0  0  0  0  0  0  0  0
    5.8280   -4.7994   22.0096 C   0  0  0  0  0  0  0  0  0  0  0  0
    7.2199   -4.9655   21.3860 C   0  0  0  0  0  0  0  0  0  0  0  0
    8.1303   -5.9983   23.5289 C   0  0  0  0  0  0  0  0  0  0  0  0
    8.3458   -4.9493   22.4309 C   0  0  1  0  0  0  0  0  0  0  0  0
    4.1348   -7.3935   25.8466 C   0  0  0  0  0  0  0  0  0  0  0  0
    8.8810   -1.1900   22.4510 C   0  0  1  0  0  0  0  0  0  0  0  0
    5.8237   -0.4845   17.3308 N   0  0  0  0  0  0  0  0  0  0  0  0
    4.5612   -6.0229   23.8226 N   0  0  0  0  0  0  0  0  0  0  0  0
    6.3611   -6.8615   24.9663 N   0  0  0  0  0  0  0  0  0  0  0  0
    6.7399   -6.1380   23.9029 N   0  0  0  0  0  0  0  0  0  0  0  0
    7.2820   -0.7860   20.6970 N   0  0  0  0  0  0  0  0  0  0  0  0
    8.7221   -2.5829   22.0943 N   0  0  0  0  0  0  0  0  0  0  0  0
    8.3651   -3.4271   24.2349 O   0  0  0  0  0  0  0  0  0  0  0  0
    8.9170    0.7530   21.0260 O   0  0  0  0  0  0  0  0  0  0  0  0
   13.8840   -1.8490   21.2740 Cl  0  0  0  0  0  0  0  0  0  0  0  0
    4.4431    4.6335   19.7433 H   0  0  0  0  0  0  0  0  0  0  0  0
    5.6240    3.7591   21.7382 H   0  0  0  0  0  0  0  0  0  0  0  0
   12.2249    1.2198   24.6546 H   0  0  0  0  0  0  0  0  0  0  0  0
    4.2658    3.2613   17.7021 H   0  0  0  0  0  0  0  0  0  0  0  0
    6.6295    1.5271   21.7110 H   0  0  0  0  0  0  0  0  0  0  0  0
    9.8763    0.5350   24.3454 H   0  0  0  0  0  0  0  0  0  0  0  0
   14.0077    0.1988   23.2842 H   0  0  0  0  0  0  0  0  0  0  0  0
   11.0892   -2.3009   21.3624 H   0  0  0  0  0  0  0  0  0  0  0  0
    4.7855    1.0801   16.4994 H   0  0  0  0  0  0  0  0  0  0  0  0
    6.8767   -1.9306   18.3399 H   0  0  0  0  0  0  0  0  0  0  0  0
    5.0621   -5.0531   21.2684 H   0  0  0  0  0  0  0  0  0  0  0  0
    5.6691   -3.7515   22.2903 H   0  0  0  0  0  0  0  0  0  0  0  0
    7.2583   -5.9232   20.8495 H   0  0  0  0  0  0  0  0  0  0  0  0
    7.3748   -4.1775   20.6393 H   0  0  0  0  0  0  0  0  0  0  0  0
    8.4473   -6.9847   23.1706 H   0  0  0  0  0  0  0  0  0  0  0  0
    8.6952   -5.7567   24.4362 H   0  0  0  0  0  0  0  0  0  0  0  0
    9.3016   -5.1511   21.9314 H   0  0  0  0  0  0  0  0  0  0  0  0
    3.8607   -8.4181   25.5350 H   0  0  0  0  0  0  0  0  0  0  0  0
    4.5860   -7.4671   26.8544 H   0  0  0  0  0  0  0  0  0  0  0  0
    3.1925   -6.8293   25.9833 H   0  0  0  0  0  0  0  0  0  0  0  0
    8.2436   -1.0112   23.3272 H   0  0  0  0  0  0  0  0  0  0  0  0
    6.8975   -1.6551   21.0614 H   0  0  0  0  0  0  0  0  0  0  0  0
    8.7921   -2.8438   21.1153 H   0  0  0  0  0  0  0  0  0  0  0  0
  1  2  1  0  0  0  0
  1  4  2  0  0  0  0
  2  5  2  0  0  0  0
  3  6  2  0  0  0  0
  3  7  1  0  0  0  0
  4 11  1  0  0  0  0
  5 12  1  0  0  0  0
  6 13  1  0  0  0  0
  7 15  2  0  0  0  0
  8 13  2  0  0  0  0
  8 15  1  0  0  0  0
  9 11  2  0  0  0  0
  9 26  1  0  0  0  0
 10 14  1  0  0  0  0
 10 26  2  0  0  0  0
 11 12  1  0  0  0  0
 12 14  2  0  0  0  0
 13 25  1  0  0  0  0
 14 30  1  0  0  0  0
 15 34  1  0  0  0  0
 16 20  1  0  0  0  0
 16 27  2  0  0  0  0
 16 29  1  0  0  0  0
 17 24  1  0  0  0  0
 17 27  1  0  0  0  0
 17 28  2  0  0  0  0
 18 23  1  0  0  0  0
 18 31  1  0  0  0  0
 18 32  2  0  0  0  0
 19 25  1  1  0  0  0
 19 30  1  0  0  0  0
 19 33  2  0  0  0  0
 20 21  1  0  0  0  0
 21 23  1  0  0  0  0
 22 23  1  0  0  0  0
 22 29  1  0  0  0  0
 25 31  1  0  0  0  0
 28 29  1  0  0  0  0
  1 35  1  0  0  0  0
  2 36  1  0  0  0  0
  3 37  1  0  0  0  0
  4 38  1  0  0  0  0
  5 39  1  0  0  0  0
  6 40  1  0  0  0  0
  7 41  1  0  0  0  0
  8 42  1  0  0  0  0
  9 43  1  0  0  0  0
 10 44  1  0  0  0  0
 20 45  1  0  0  0  0
 20 46  1  0  0  0  0
 21 47  1  0  0  0  0
 21 48  1  0  0  0  0
 22 49  1  0  0  0  0
 22 50  1  0  0  0  0
 23 51  1  0  0  0  0
 24 52  1  0  0  0  0
 24 53  1  0  0  0  0
 24 54  1  0  0  0  0
 25 55  1  0  0  0  0
 30 56  1  0  0  0  0
 31 57  1  0  0  0  0
M  END
> <compound>
EDJ-MED-ee07cf00-13

> <compound_smiles>
Cc1nc2n(n1)C[C@@H](CC2)C(=O)NC(c3cccc(c3)Cl)C(=O)Nc4cncc5c4cccc5

> <enantiomer_smiles>
Cc1nc2n(n1)C[C@@H](CC2)C(=O)N[C@@H](c3cccc(c3)Cl)C(=O)Nc4cncc5c4cccc5

> <scaffold>
chlorobenzene-linker

> <clash_score>
0.653043879953043

> <docking_score>
-2.922201633453369

> <overlap_score>
0.8292509317398071

> <MMFF_internal_energy>
100.86448559003954

> <docked_smiles>
Cc1nc2n(n1)C[C@@H](CC2)C(=O)N[C@@H](c3cccc(c3)Cl)C(=O)Nc4cncc5c4cccc5

$$$$
VLA-UNK-9a7dc93f-7_2
  -OEChem-07262101023D

 38 40  0     1  0  0  0  0  0999 V2000
    3.4514    2.5464   20.0694 C   0  0  0  0  0  0  0  0  0  0  0  0
    4.0854    2.0357   21.1996 C   0  0  0  0  0  0  0  0  0  0  0  0
   11.9780    0.4600   23.9150 C   0  0  0  0  0  0  0  0  0  0  0  0
    3.8566    2.1407   18.7981 C   0  0  0  0  0  0  0  0  0  0  0  0
    5.1277    1.1170   21.0636 C   0  0  0  0  0  0  0  0  0  0  0  0
   10.6560    0.0720   23.7350 C   0  0  0  0  0  0  0  0  0  0  0  0
   12.9840   -0.1200   23.1530 C   0  0  0  0  0  0  0  0  0  0  0  0
   11.3360   -1.5050   22.0650 C   0  0  0  0  0  0  0  0  0  0  0  0
    5.3500    0.7765   17.4015 C   0  0  0  0  0  0  0  0  0  0  0  0
    6.9473   -0.5863   18.3323 C   0  0  0  0  0  0  0  0  0  0  0  0
    4.9042    1.2167   18.6493 C   0  0  0  0  0  0  0  0  0  0  0  0
    5.5486    0.6974   19.7911 C   0  0  0  0  0  0  0  0  0  0  0  0
   10.3220   -0.8940   22.7910 C   0  0  0  0  0  0  0  0  0  0  0  0
    6.5902   -0.2221   19.6216 C   0  0  0  0  0  0  0  0  0  0  0  0
   12.6400   -1.1000   22.2390 C   0  0  0  0  0  0  0  0  0  0  0  0
    8.3880   -0.3240   21.3070 C   0  0  0  0  0  0  0  0  0  0  0  0
    8.4781   -1.7862   24.6903 C   0  0  0  0  0  0  0  0  0  0  0  0
    8.8810   -1.1900   22.4510 C   0  0  2  0  0  0  0  0  0  0  0  0
    6.3538   -0.1104   17.2170 N   0  0  0  0  0  0  0  0  0  0  0  0
    7.2820   -0.7860   20.6970 N   0  0  0  0  0  0  0  0  0  0  0  0
    8.9170    0.7530   21.0260 O   0  0  0  0  0  0  0  0  0  0  0  0
    8.0841   -0.9572   23.6047 O   0  0  0  0  0  0  0  0  0  0  0  0
   13.8840   -1.8490   21.2740 Cl  0  0  0  0  0  0  0  0  0  0  0  0
    2.6407    3.2608   20.1782 H   0  0  0  0  0  0  0  0  0  0  0  0
    3.7681    2.3527   22.1890 H   0  0  0  0  0  0  0  0  0  0  0  0
   12.2249    1.2198   24.6546 H   0  0  0  0  0  0  0  0  0  0  0  0
    3.3506    2.5493   17.9264 H   0  0  0  0  0  0  0  0  0  0  0  0
    5.5982    0.7416   21.9694 H   0  0  0  0  0  0  0  0  0  0  0  0
    9.8763    0.5350   24.3454 H   0  0  0  0  0  0  0  0  0  0  0  0
   14.0077    0.1988   23.2842 H   0  0  0  0  0  0  0  0  0  0  0  0
   11.0892   -2.3009   21.3624 H   0  0  0  0  0  0  0  0  0  0  0  0
    4.8971    1.1365   16.4818 H   0  0  0  0  0  0  0  0  0  0  0  0
    7.7484   -1.2965   18.1479 H   0  0  0  0  0  0  0  0  0  0  0  0
    7.8432   -1.5809   25.5556 H   0  0  0  0  0  0  0  0  0  0  0  0
    9.5245   -1.5908   24.9381 H   0  0  0  0  0  0  0  0  0  0  0  0
    8.3643   -2.8328   24.3979 H   0  0  0  0  0  0  0  0  0  0  0  0
    8.7586   -2.2486   22.1865 H   0  0  0  0  0  0  0  0  0  0  0  0
    6.8985   -1.6600   21.0715 H   0  0  0  0  0  0  0  0  0  0  0  0
  1  2  1  0  0  0  0
  1  4  2  0  0  0  0
  2  5  2  0  0  0  0
  3  6  2  0  0  0  0
  3  7  1  0  0  0  0
  4 11  1  0  0  0  0
  5 12  1  0  0  0  0
  6 13  1  0  0  0  0
  7 15  2  0  0  0  0
  8 13  2  0  0  0  0
  8 15  1  0  0  0  0
  9 11  2  0  0  0  0
  9 19  1  0  0  0  0
 10 14  1  0  0  0  0
 10 19  2  0  0  0  0
 11 12  1  0  0  0  0
 12 14  2  0  0  0  0
 13 18  1  0  0  0  0
 14 20  1  0  0  0  0
 15 23  1  0  0  0  0
 16 18  1  6  0  0  0
 16 20  1  0  0  0  0
 16 21  2  0  0  0  0
 17 22  1  0  0  0  0
 18 22  1  0  0  0  0
  1 24  1  0  0  0  0
  2 25  1  0  0  0  0
  3 26  1  0  0  0  0
  4 27  1  0  0  0  0
  5 28  1  0  0  0  0
  6 29  1  0  0  0  0
  7 30  1  0  0  0  0
  8 31  1  0  0  0  0
  9 32  1  0  0  0  0
 10 33  1  0  0  0  0
 17 34  1  0  0  0  0
 17 35  1  0  0  0  0
 17 36  1  0  0  0  0
 18 37  1  0  0  0  0
 20 38  1  0  0  0  0
M  END
> <compound>
VLA-UNK-9a7dc93f-7

> <compound_smiles>
COC(c1cccc(c1)Cl)C(=O)Nc2cncc3c2cccc3

> <enantiomer_smiles>
CO[C@H](c1cccc(c1)Cl)C(=O)Nc2cncc3c2cccc3

> <scaffold>
chlorobenzene-linker

> <clash_score>
0

> <docking_score>
-11.36822509765625

> <overlap_score>
1.0

> <MMFF_internal_energy>
147.3263753980364

> <docked_smiles>
CO[C@H](c1cccc(c1)Cl)C(=O)Nc2cncc3c2cccc3

$$$$
EDJ-MED-ee07cf00-11_2
  -OEChem-07262101023D

 63 67  0     1  0  0  0  0  0999 V2000
    2.5650    1.0119   19.7905 C   0  0  0  0  0  0  0  0  0  0  0  0
    3.1657    0.4486   20.9139 C   0  0  0  0  0  0  0  0  0  0  0  0
   11.9780    0.4600   23.9150 C   0  0  0  0  0  0  0  0  0  0  0  0
    3.2959    1.1705   18.6133 C   0  0  0  0  0  0  0  0  0  0  0  0
    4.5001    0.0414   20.8653 C   0  0  0  0  0  0  0  0  0  0  0  0
   10.6560    0.0720   23.7350 C   0  0  0  0  0  0  0  0  0  0  0  0
   12.9840   -0.1200   23.1530 C   0  0  0  0  0  0  0  0  0  0  0  0
   11.3360   -1.5050   22.0650 C   0  0  0  0  0  0  0  0  0  0  0  0
    5.4171    0.8995   17.4014 C   0  0  0  0  0  0  0  0  0  0  0  0
    7.2639   -0.0211   18.4097 C   0  0  0  0  0  0  0  0  0  0  0  0
    4.6393    0.7642   18.5530 C   0  0  0  0  0  0  0  0  0  0  0  0
    5.2510    0.1935   19.6882 C   0  0  0  0  0  0  0  0  0  0  0  0
   10.3220   -0.8940   22.7910 C   0  0  0  0  0  0  0  0  0  0  0  0
    6.5904   -0.2048   19.6077 C   0  0  0  0  0  0  0  0  0  0  0  0
   12.6400   -1.1000   22.2390 C   0  0  0  0  0  0  0  0  0  0  0  0
    5.9343   -6.2955   24.1444 C   0  0  0  0  0  0  0  0  0  0  0  0
    8.4778   -3.5789   23.0204 C   0  0  0  0  0  0  0  0  0  0  0  0
    8.3880   -0.3240   21.3070 C   0  0  0  0  0  0  0  0  0  0  0  0
    5.8555   -6.4636   27.8169 C   0  0  0  0  0  0  0  0  0  0  0  0
    7.3526   -6.3347   27.5655 C   0  0  0  0  0  0  0  0  0  0  0  0
    6.7063   -6.4997   21.7694 C   0  0  0  0  0  0  0  0  0  0  0  0
    7.1404   -5.0747   21.5209 C   0  0  0  0  0  0  0  0  0  0  0  0
    5.2500   -5.9696   26.5121 C   0  0  0  0  0  0  0  0  0  0  0  0
    7.4894   -6.7390   26.1043 C   0  0  0  0  0  0  0  0  0  0  0  0
    7.0503   -6.6987   23.2312 C   0  0  1  0  0  0  0  0  0  0  0  0
    8.3474   -4.9413   22.4271 C   0  0  2  0  0  0  0  0  0  0  0  0
    8.8810   -1.1900   22.4510 C   0  0  2  0  0  0  0  0  0  0  0  0
    6.7116    0.5212   17.3036 N   0  0  0  0  0  0  0  0  0  0  0  0
    6.2250   -6.3374   25.4959 N   0  0  0  0  0  0  0  0  0  0  0  0
    7.2820   -0.7860   20.6970 N   0  0  0  0  0  0  0  0  0  0  0  0
    8.7221   -2.5829   22.0943 N   0  0  0  0  0  0  0  0  0  0  0  0
    4.8450   -5.9499   23.6840 O   0  0  0  0  0  0  0  0  0  0  0  0
    8.3644   -3.4342   24.2320 O   0  0  0  0  0  0  0  0  0  0  0  0
    8.9170    0.7530   21.0260 O   0  0  0  0  0  0  0  0  0  0  0  0
    8.1538   -5.8397   23.5251 O   0  0  0  0  0  0  0  0  0  0  0  0
   13.8840   -1.8490   21.2740 Cl  0  0  0  0  0  0  0  0  0  0  0  0
    1.5267    1.3276   19.8311 H   0  0  0  0  0  0  0  0  0  0  0  0
    2.5946    0.3257   21.8297 H   0  0  0  0  0  0  0  0  0  0  0  0
   12.2249    1.2198   24.6546 H   0  0  0  0  0  0  0  0  0  0  0  0
    2.8114    1.6120   17.7455 H   0  0  0  0  0  0  0  0  0  0  0  0
    4.9338   -0.3933   21.7630 H   0  0  0  0  0  0  0  0  0  0  0  0
    9.8763    0.5350   24.3454 H   0  0  0  0  0  0  0  0  0  0  0  0
   14.0077    0.1988   23.2842 H   0  0  0  0  0  0  0  0  0  0  0  0
   11.0892   -2.3008   21.3624 H   0  0  0  0  0  0  0  0  0  0  0  0
    5.0078    1.3308   16.4920 H   0  0  0  0  0  0  0  0  0  0  0  0
    8.3038   -0.3142   18.2963 H   0  0  0  0  0  0  0  0  0  0  0  0
    5.5896   -7.5137   27.9859 H   0  0  0  0  0  0  0  0  0  0  0  0
    5.5264   -5.8780   28.6797 H   0  0  0  0  0  0  0  0  0  0  0  0
    7.6704   -5.2943   27.7026 H   0  0  0  0  0  0  0  0  0  0  0  0
    7.9429   -6.9693   28.2322 H   0  0  0  0  0  0  0  0  0  0  0  0
    5.6285   -6.6036   21.5839 H   0  0  0  0  0  0  0  0  0  0  0  0
    7.2157   -7.2215   21.1205 H   0  0  0  0  0  0  0  0  0  0  0  0
    7.4525   -4.9699   20.4766 H   0  0  0  0  0  0  0  0  0  0  0  0
    6.3509   -4.3470   21.7187 H   0  0  0  0  0  0  0  0  0  0  0  0
    4.2735   -6.4128   26.2955 H   0  0  0  0  0  0  0  0  0  0  0  0
    5.1532   -4.8783   26.5006 H   0  0  0  0  0  0  0  0  0  0  0  0
    8.3367   -6.2554   25.6109 H   0  0  0  0  0  0  0  0  0  0  0  0
    7.5829   -7.8251   25.9968 H   0  0  0  0  0  0  0  0  0  0  0  0
    7.3402   -7.7309   23.4507 H   0  0  0  0  0  0  0  0  0  0  0  0
    9.2826   -5.1878   21.9140 H   0  0  0  0  0  0  0  0  0  0  0  0
    8.2436   -1.0112   23.3272 H   0  0  0  0  0  0  0  0  0  0  0  0
    6.8975   -1.6551   21.0614 H   0  0  0  0  0  0  0  0  0  0  0  0
    8.7949   -2.8409   21.1147 H   0  0  0  0  0  0  0  0  0  0  0  0
  1  2  1  0  0  0  0
  1  4  2  0  0  0  0
  2  5  2  0  0  0  0
  3  6  2  0  0  0  0
  3  7  1  0  0  0  0
  4 11  1  0  0  0  0
  5 12  1  0  0  0  0
  6 13  1  0  0  0  0
  7 15  2  0  0  0  0
  8 13  2  0  0  0  0
  8 15  1  0  0  0  0
  9 11  2  0  0  0  0
  9 28  1  0  0  0  0
 10 14  1  0  0  0  0
 10 28  2  0  0  0  0
 11 12  1  0  0  0  0
 12 14  2  0  0  0  0
 13 27  1  0  0  0  0
 14 30  1  0  0  0  0
 15 36  1  0  0  0  0
 16 25  1  1  0  0  0
 16 29  1  0  0  0  0
 16 32  2  0  0  0  0
 17 26  1  1  0  0  0
 17 31  1  0  0  0  0
 17 33  2  0  0  0  0
 18 27  1  6  0  0  0
 18 30  1  0  0  0  0
 18 34  2  0  0  0  0
 19 20  1  0  0  0  0
 19 23  1  0  0  0  0
 20 24  1  0  0  0  0
 21 22  1  0  0  0  0
 21 25  1  0  0  0  0
 22 26  1  0  0  0  0
 23 29  1  0  0  0  0
 24 29  1  0  0  0  0
 25 35  1  0  0  0  0
 26 35  1  0  0  0  0
 27 31  1  0  0  0  0
  1 37  1  0  0  0  0
  2 38  1  0  0  0  0
  3 39  1  0  0  0  0
  4 40  1  0  0  0  0
  5 41  1  0  0  0  0
  6 42  1  0  0  0  0
  7 43  1  0  0  0  0
  8 44  1  0  0  0  0
  9 45  1  0  0  0  0
 10 46  1  0  0  0  0
 19 47  1  0  0  0  0
 19 48  1  0  0  0  0
 20 49  1  0  0  0  0
 20 50  1  0  0  0  0
 21 51  1  0  0  0  0
 21 52  1  0  0  0  0
 22 53  1  0  0  0  0
 22 54  1  0  0  0  0
 23 55  1  0  0  0  0
 23 56  1  0  0  0  0
 24 57  1  0  0  0  0
 24 58  1  0  0  0  0
 25 59  1  0  0  0  0
 26 60  1  0  0  0  0
 27 61  1  0  0  0  0
 30 62  1  0  0  0  0
 31 63  1  0  0  0  0
M  END
> <compound>
EDJ-MED-ee07cf00-11

> <compound_smiles>
c1ccc2c(c1)cncc2NC(=O)C(c3cccc(c3)Cl)NC(=O)C4CCC(O4)C(=O)N5CCCC5

> <enantiomer_smiles>
c1ccc2c(c1)cncc2NC(=O)[C@H](c3cccc(c3)Cl)NC(=O)[C@@H]4CC[C@@H](O4)C(=O)N5CCCC5

> <scaffold>
chlorobenzene-linker

> <clash_score>
0

> <docking_score>
-3.9025931358337402

> <overlap_score>
0.8814209699630737

> <MMFF_internal_energy>
169.82979819728192

> <docked_smiles>
c1ccc2c(c1)cncc2NC(=O)[C@H](c3cccc(c3)Cl)NC(=O)[C@@H]4CC[C@@H](O4)C(=O)N5CCCC5

$$$$
EDJ-MED-ee07cf00-11_3
  -OEChem-07262101023D

 63 67  0     1  0  0  0  0  0999 V2000
    2.5650    1.0119   19.7905 C   0  0  0  0  0  0  0  0  0  0  0  0
    3.1657    0.4486   20.9140 C   0  0  0  0  0  0  0  0  0  0  0  0
   11.9780    0.4600   23.9150 C   0  0  0  0  0  0  0  0  0  0  0  0
    3.2959    1.1705   18.6133 C   0  0  0  0  0  0  0  0  0  0  0  0
    4.5001    0.0414   20.8653 C   0  0  0  0  0  0  0  0  0  0  0  0
   10.6560    0.0720   23.7350 C   0  0  0  0  0  0  0  0  0  0  0  0
   12.9840   -0.1200   23.1530 C   0  0  0  0  0  0  0  0  0  0  0  0
   11.3360   -1.5050   22.0650 C   0  0  0  0  0  0  0  0  0  0  0  0
    5.4171    0.8995   17.4014 C   0  0  0  0  0  0  0  0  0  0  0  0
    7.2639   -0.0211   18.4097 C   0  0  0  0  0  0  0  0  0  0  0  0
    4.6393    0.7642   18.5530 C   0  0  0  0  0  0  0  0  0  0  0  0
    5.2510    0.1935   19.6882 C   0  0  0  0  0  0  0  0  0  0  0  0
   10.3220   -0.8940   22.7910 C   0  0  0  0  0  0  0  0  0  0  0  0
    6.5904   -0.2048   19.6077 C   0  0  0  0  0  0  0  0  0  0  0  0
   12.6400   -1.1000   22.2390 C   0  0  0  0  0  0  0  0  0  0  0  0
    5.1664   -2.9142   28.3307 C   0  0  0  0  0  0  0  0  0  0  0  0
    7.7880   -1.9599   24.5504 C   0  0  0  0  0  0  0  0  0  0  0  0
    8.3880   -0.3240   21.3070 C   0  0  0  0  0  0  0  0  0  0  0  0
    2.4570   -4.5620   30.1922 C   0  0  0  0  0  0  0  0  0  0  0  0
    2.4409   -5.3580   28.8932 C   0  0  0  0  0  0  0  0  0  0  0  0
    4.6146   -1.5981   26.2952 C   0  0  0  0  0  0  0  0  0  0  0  0
    5.5010   -1.1859   25.1466 C   0  0  0  0  0  0  0  0  0  0  0  0
    3.8333   -3.9151   30.1750 C   0  0  0  0  0  0  0  0  0  0  0  0
    3.1796   -4.4452   27.9245 C   0  0  0  0  0  0  0  0  0  0  0  0
    5.3332   -2.8155   26.8335 C   0  0  1  0  0  0  0  0  0  0  0  0
    6.8805   -1.5160   25.6721 C   0  0  1  0  0  0  0  0  0  0  0  0
    8.8810   -1.1900   22.4510 C   0  0  1  0  0  0  0  0  0  0  0  0
    6.7116    0.5212   17.3036 N   0  0  0  0  0  0  0  0  0  0  0  0
    4.1226   -3.7118   28.7631 N   0  0  0  0  0  0  0  0  0  0  0  0
    7.2820   -0.7860   20.6970 N   0  0  0  0  0  0  0  0  0  0  0  0
    8.0374   -0.9810   23.6076 N   0  0  0  0  0  0  0  0  0  0  0  0
    5.9332   -2.3134   29.0850 O   0  0  0  0  0  0  0  0  0  0  0  0
    8.2274   -3.1039   24.5455 O   0  0  0  0  0  0  0  0  0  0  0  0
    8.9170    0.7530   21.0260 O   0  0  0  0  0  0  0  0  0  0  0  0
    6.7292   -2.6256   26.5675 O   0  0  0  0  0  0  0  0  0  0  0  0
   13.8840   -1.8490   21.2740 Cl  0  0  0  0  0  0  0  0  0  0  0  0
    1.5267    1.3276   19.8311 H   0  0  0  0  0  0  0  0  0  0  0  0
    2.5946    0.3257   21.8298 H   0  0  0  0  0  0  0  0  0  0  0  0
   12.2249    1.2198   24.6546 H   0  0  0  0  0  0  0  0  0  0  0  0
    2.8114    1.6119   17.7455 H   0  0  0  0  0  0  0  0  0  0  0  0
    4.9338   -0.3933   21.7630 H   0  0  0  0  0  0  0  0  0  0  0  0
    9.8763    0.5350   24.3454 H   0  0  0  0  0  0  0  0  0  0  0  0
   14.0077    0.1988   23.2842 H   0  0  0  0  0  0  0  0  0  0  0  0
   11.0892   -2.3008   21.3624 H   0  0  0  0  0  0  0  0  0  0  0  0
    5.0078    1.3308   16.4920 H   0  0  0  0  0  0  0  0  0  0  0  0
    8.3038   -0.3142   18.2963 H   0  0  0  0  0  0  0  0  0  0  0  0
    1.6754   -3.7935   30.1745 H   0  0  0  0  0  0  0  0  0  0  0  0
    2.3027   -5.1952   31.0703 H   0  0  0  0  0  0  0  0  0  0  0  0
    2.9886   -6.2992   29.0202 H   0  0  0  0  0  0  0  0  0  0  0  0
    1.4256   -5.5887   28.5590 H   0  0  0  0  0  0  0  0  0  0  0  0
    4.4655   -0.8043   27.0273 H   0  0  0  0  0  0  0  0  0  0  0  0
    3.6368   -1.9012   25.9110 H   0  0  0  0  0  0  0  0  0  0  0  0
    5.2492   -1.6875   24.2113 H   0  0  0  0  0  0  0  0  0  0  0  0
    5.4169   -0.1064   24.9910 H   0  0  0  0  0  0  0  0  0  0  0  0
    3.8710   -2.9683   30.7219 H   0  0  0  0  0  0  0  0  0  0  0  0
    4.5993   -4.5867   30.5781 H   0  0  0  0  0  0  0  0  0  0  0  0
    3.6983   -4.9983   27.1369 H   0  0  0  0  0  0  0  0  0  0  0  0
    2.5024   -3.7167   27.4658 H   0  0  0  0  0  0  0  0  0  0  0  0
    4.9818   -3.7410   26.3898 H   0  0  0  0  0  0  0  0  0  0  0  0
    7.3455   -0.6772   26.1816 H   0  0  0  0  0  0  0  0  0  0  0  0
    8.7711   -2.2448   22.1651 H   0  0  0  0  0  0  0  0  0  0  0  0
    6.8975   -1.6551   21.0614 H   0  0  0  0  0  0  0  0  0  0  0  0
    7.6084   -0.0689   23.7325 H   0  0  0  0  0  0  0  0  0  0  0  0
  1  2  1  0  0  0  0
  1  4  2  0  0  0  0
  2  5  2  0  0  0  0
  3  6  2  0  0  0  0
  3  7  1  0  0  0  0
  4 11  1  0  0  0  0
  5 12  1  0  0  0  0
  6 13  1  0  0  0  0
  7 15  2  0  0  0  0
  8 13  2  0  0  0  0
  8 15  1  0  0  0  0
  9 11  2  0  0  0  0
  9 28  1  0  0  0  0
 10 14  1  0  0  0  0
 10 28  2  0  0  0  0
 11 12  1  0  0  0  0
 12 14  2  0  0  0  0
 13 27  1  0  0  0  0
 14 30  1  0  0  0  0
 15 36  1  0  0  0  0
 16 25  1  1  0  0  0
 16 29  1  0  0  0  0
 16 32  2  0  0  0  0
 17 26  1  6  0  0  0
 17 31  1  0  0  0  0
 17 33  2  0  0  0  0
 18 27  1  1  0  0  0
 18 30  1  0  0  0  0
 18 34  2  0  0  0  0
 19 20  1  0  0  0  0
 19 23  1  0  0  0  0
 20 24  1  0  0  0  0
 21 22  1  0  0  0  0
 21 25  1  0  0  0  0
 22 26  1  0  0  0  0
 23 29  1  0  0  0  0
 24 29  1  0  0  0  0
 25 35  1  0  0  0  0
 26 35  1  0  0  0  0
 27 31  1  0  0  0  0
  1 37  1  0  0  0  0
  2 38  1  0  0  0  0
  3 39  1  0  0  0  0
  4 40  1  0  0  0  0
  5 41  1  0  0  0  0
  6 42  1  0  0  0  0
  7 43  1  0  0  0  0
  8 44  1  0  0  0  0
  9 45  1  0  0  0  0
 10 46  1  0  0  0  0
 19 47  1  0  0  0  0
 19 48  1  0  0  0  0
 20 49  1  0  0  0  0
 20 50  1  0  0  0  0
 21 51  1  0  0  0  0
 21 52  1  0  0  0  0
 22 53  1  0  0  0  0
 22 54  1  0  0  0  0
 23 55  1  0  0  0  0
 23 56  1  0  0  0  0
 24 57  1  0  0  0  0
 24 58  1  0  0  0  0
 25 59  1  0  0  0  0
 26 60  1  0  0  0  0
 27 61  1  0  0  0  0
 30 62  1  0  0  0  0
 31 63  1  0  0  0  0
M  END
> <compound>
EDJ-MED-ee07cf00-11

> <compound_smiles>
c1ccc2c(c1)cncc2NC(=O)C(c3cccc(c3)Cl)NC(=O)C4CCC(O4)C(=O)N5CCCC5

> <enantiomer_smiles>
c1ccc2c(c1)cncc2NC(=O)[C@@H](c3cccc(c3)Cl)NC(=O)[C@H]4CC[C@@H](O4)C(=O)N5CCCC5

> <scaffold>
chlorobenzene-linker

> <clash_score>
0.7641212419619643

> <docking_score>
-3.212636709213257

> <overlap_score>
0.8812681436538696

> <MMFF_internal_energy>
175.30669752550648

> <docked_smiles>
c1ccc2c(c1)cncc2NC(=O)[C@@H](c3cccc(c3)Cl)NC(=O)[C@H]4CC[C@@H](O4)C(=O)N5CCCC5

$$$$
EDJ-MED-ee07cf00-11_4
  -OEChem-07262101023D

 63 67  0     1  0  0  0  0  0999 V2000
    2.5650    1.0119   19.7905 C   0  0  0  0  0  0  0  0  0  0  0  0
    3.1657    0.4486   20.9139 C   0  0  0  0  0  0  0  0  0  0  0  0
   11.9780    0.4600   23.9150 C   0  0  0  0  0  0  0  0  0  0  0  0
    3.2959    1.1705   18.6133 C   0  0  0  0  0  0  0  0  0  0  0  0
    4.5001    0.0414   20.8653 C   0  0  0  0  0  0  0  0  0  0  0  0
   10.6560    0.0720   23.7350 C   0  0  0  0  0  0  0  0  0  0  0  0
   12.9840   -0.1200   23.1530 C   0  0  0  0  0  0  0  0  0  0  0  0
   11.3360   -1.5050   22.0650 C   0  0  0  0  0  0  0  0  0  0  0  0
    5.4171    0.8995   17.4014 C   0  0  0  0  0  0  0  0  0  0  0  0
    7.2639   -0.0211   18.4097 C   0  0  0  0  0  0  0  0  0  0  0  0
    4.6393    0.7642   18.5530 C   0  0  0  0  0  0  0  0  0  0  0  0
    5.2510    0.1935   19.6882 C   0  0  0  0  0  0  0  0  0  0  0  0
   10.3220   -0.8940   22.7910 C   0  0  0  0  0  0  0  0  0  0  0  0
    6.5904   -0.2048   19.6077 C   0  0  0  0  0  0  0  0  0  0  0  0
   12.6400   -1.1000   22.2390 C   0  0  0  0  0  0  0  0  0  0  0  0
    6.1496   -7.3783   22.2411 C   0  0  0  0  0  0  0  0  0  0  0  0
    8.4779   -3.5755   23.0241 C   0  0  0  0  0  0  0  0  0  0  0  0
    8.3880   -0.3240   21.3070 C   0  0  0  0  0  0  0  0  0  0  0  0
    3.0367   -8.4819   20.6246 C   0  0  0  0  0  0  0  0  0  0  0  0
    2.8604   -6.9691   20.5886 C   0  0  0  0  0  0  0  0  0  0  0  0
    7.3987   -6.3286   24.1143 C   0  0  0  0  0  0  0  0  0  0  0  0
    8.7190   -6.0120   23.4478 C   0  0  0  0  0  0  0  0  0  0  0  0
    4.5340   -8.6427   20.8370 C   0  0  0  0  0  0  0  0  0  0  0  0
    3.8475   -6.4853   21.6416 C   0  0  0  0  0  0  0  0  0  0  0  0
    6.3922   -6.0962   23.0094 C   0  0  1  0  0  0  0  0  0  0  0  0
    8.3446   -4.9605   22.4267 C   0  0  1  0  0  0  0  0  0  0  0  0
    8.8810   -1.1900   22.4510 C   0  0  2  0  0  0  0  0  0  0  0  0
    6.7116    0.5212   17.3036 N   0  0  0  0  0  0  0  0  0  0  0  0
    4.9182   -7.4770   21.6194 N   0  0  0  0  0  0  0  0  0  0  0  0
    7.2820   -0.7860   20.6970 N   0  0  0  0  0  0  0  0  0  0  0  0
    8.7221   -2.5829   22.0943 N   0  0  0  0  0  0  0  0  0  0  0  0
    7.0187   -8.2501   22.1916 O   0  0  0  0  0  0  0  0  0  0  0  0
    8.3651   -3.4265   24.2352 O   0  0  0  0  0  0  0  0  0  0  0  0
    8.9170    0.7530   21.0260 O   0  0  0  0  0  0  0  0  0  0  0  0
    6.9650   -5.1531   22.0979 O   0  0  0  0  0  0  0  0  0  0  0  0
   13.8840   -1.8490   21.2740 Cl  0  0  0  0  0  0  0  0  0  0  0  0
    1.5267    1.3276   19.8311 H   0  0  0  0  0  0  0  0  0  0  0  0
    2.5946    0.3257   21.8298 H   0  0  0  0  0  0  0  0  0  0  0  0
   12.2249    1.2198   24.6546 H   0  0  0  0  0  0  0  0  0  0  0  0
    2.8114    1.6119   17.7455 H   0  0  0  0  0  0  0  0  0  0  0  0
    4.9338   -0.3933   21.7630 H   0  0  0  0  0  0  0  0  0  0  0  0
    9.8763    0.5350   24.3454 H   0  0  0  0  0  0  0  0  0  0  0  0
   14.0077    0.1988   23.2842 H   0  0  0  0  0  0  0  0  0  0  0  0
   11.0892   -2.3009   21.3624 H   0  0  0  0  0  0  0  0  0  0  0  0
    5.0078    1.3308   16.4920 H   0  0  0  0  0  0  0  0  0  0  0  0
    8.3038   -0.3142   18.2963 H   0  0  0  0  0  0  0  0  0  0  0  0
    2.4848   -8.9069   21.4713 H   0  0  0  0  0  0  0  0  0  0  0  0
    2.6897   -8.9634   19.7062 H   0  0  0  0  0  0  0  0  0  0  0  0
    3.1374   -6.5800   19.6017 H   0  0  0  0  0  0  0  0  0  0  0  0
    1.8332   -6.6643   20.8068 H   0  0  0  0  0  0  0  0  0  0  0  0
    7.3696   -7.3332   24.5452 H   0  0  0  0  0  0  0  0  0  0  0  0
    7.2175   -5.6094   24.9215 H   0  0  0  0  0  0  0  0  0  0  0  0
    9.4867   -5.6902   24.1579 H   0  0  0  0  0  0  0  0  0  0  0  0
    9.0897   -6.9073   22.9344 H   0  0  0  0  0  0  0  0  0  0  0  0
    4.7983   -9.5676   21.3582 H   0  0  0  0  0  0  0  0  0  0  0  0
    5.0820   -8.6024   19.8891 H   0  0  0  0  0  0  0  0  0  0  0  0
    4.2319   -5.4839   21.4302 H   0  0  0  0  0  0  0  0  0  0  0  0
    3.4021   -6.4956   22.6423 H   0  0  0  0  0  0  0  0  0  0  0  0
    5.4354   -5.7413   23.3802 H   0  0  0  0  0  0  0  0  0  0  0  0
    8.9615   -5.0066   21.5332 H   0  0  0  0  0  0  0  0  0  0  0  0
    8.2436   -1.0112   23.3272 H   0  0  0  0  0  0  0  0  0  0  0  0
    6.8975   -1.6551   21.0614 H   0  0  0  0  0  0  0  0  0  0  0  0
    8.7936   -2.8443   21.1155 H   0  0  0  0  0  0  0  0  0  0  0  0
  1  2  1  0  0  0  0
  1  4  2  0  0  0  0
  2  5  2  0  0  0  0
  3  6  2  0  0  0  0
  3  7  1  0  0  0  0
  4 11  1  0  0  0  0
  5 12  1  0  0  0  0
  6 13  1  0  0  0  0
  7 15  2  0  0  0  0
  8 13  2  0  0  0  0
  8 15  1  0  0  0  0
  9 11  2  0  0  0  0
  9 28  1  0  0  0  0
 10 14  1  0  0  0  0
 10 28  2  0  0  0  0
 11 12  1  0  0  0  0
 12 14  2  0  0  0  0
 13 27  1  0  0  0  0
 14 30  1  0  0  0  0
 15 36  1  0  0  0  0
 16 25  1  1  0  0  0
 16 29  1  0  0  0  0
 16 32  2  0  0  0  0
 17 26  1  6  0  0  0
 17 31  1  0  0  0  0
 17 33  2  0  0  0  0
 18 27  1  6  0  0  0
 18 30  1  0  0  0  0
 18 34  2  0  0  0  0
 19 20  1  0  0  0  0
 19 23  1  0  0  0  0
 20 24  1  0  0  0  0
 21 22  1  0  0  0  0
 21 25  1  0  0  0  0
 22 26  1  0  0  0  0
 23 29  1  0  0  0  0
 24 29  1  0  0  0  0
 25 35  1  0  0  0  0
 26 35  1  0  0  0  0
 27 31  1  0  0  0  0
  1 37  1  0  0  0  0
  2 38  1  0  0  0  0
  3 39  1  0  0  0  0
  4 40  1  0  0  0  0
  5 41  1  0  0  0  0
  6 42  1  0  0  0  0
  7 43  1  0  0  0  0
  8 44  1  0  0  0  0
  9 45  1  0  0  0  0
 10 46  1  0  0  0  0
 19 47  1  0  0  0  0
 19 48  1  0  0  0  0
 20 49  1  0  0  0  0
 20 50  1  0  0  0  0
 21 51  1  0  0  0  0
 21 52  1  0  0  0  0
 22 53  1  0  0  0  0
 22 54  1  0  0  0  0
 23 55  1  0  0  0  0
 23 56  1  0  0  0  0
 24 57  1  0  0  0  0
 24 58  1  0  0  0  0
 25 59  1  0  0  0  0
 26 60  1  0  0  0  0
 27 61  1  0  0  0  0
 30 62  1  0  0  0  0
 31 63  1  0  0  0  0
M  END
> <compound>
EDJ-MED-ee07cf00-11

> <compound_smiles>
c1ccc2c(c1)cncc2NC(=O)C(c3cccc(c3)Cl)NC(=O)C4CCC(O4)C(=O)N5CCCC5

> <enantiomer_smiles>
c1ccc2c(c1)cncc2NC(=O)[C@H](c3cccc(c3)Cl)NC(=O)[C@H]4CC[C@@H](O4)C(=O)N5CCCC5

> <scaffold>
chlorobenzene-linker

> <clash_score>
2.846714982246954

> <docking_score>
0.8969085216522217

> <overlap_score>
0.8815630674362183

> <MMFF_internal_energy>
162.64967132725434

> <docked_smiles>
c1ccc2c(c1)cncc2NC(=O)[C@H](c3cccc(c3)Cl)NC(=O)[C@H]4CC[C@@H](O4)C(=O)N5CCCC5

$$$$
EDJ-MED-ee07cf00-11_6
  -OEChem-07262101023D

 63 67  0     1  0  0  0  0  0999 V2000
    2.5650    1.0119   19.7905 C   0  0  0  0  0  0  0  0  0  0  0  0
    3.1657    0.4486   20.9139 C   0  0  0  0  0  0  0  0  0  0  0  0
   11.9780    0.4600   23.9150 C   0  0  0  0  0  0  0  0  0  0  0  0
    3.2959    1.1705   18.6133 C   0  0  0  0  0  0  0  0  0  0  0  0
    4.5001    0.0414   20.8653 C   0  0  0  0  0  0  0  0  0  0  0  0
   10.6560    0.0720   23.7350 C   0  0  0  0  0  0  0  0  0  0  0  0
   12.9840   -0.1200   23.1530 C   0  0  0  0  0  0  0  0  0  0  0  0
   11.3360   -1.5050   22.0650 C   0  0  0  0  0  0  0  0  0  0  0  0
    5.4171    0.8995   17.4014 C   0  0  0  0  0  0  0  0  0  0  0  0
    7.2639   -0.0211   18.4097 C   0  0  0  0  0  0  0  0  0  0  0  0
    4.6393    0.7642   18.5530 C   0  0  0  0  0  0  0  0  0  0  0  0
    5.2510    0.1935   19.6882 C   0  0  0  0  0  0  0  0  0  0  0  0
   10.3220   -0.8940   22.7910 C   0  0  0  0  0  0  0  0  0  0  0  0
    6.5904   -0.2048   19.6077 C   0  0  0  0  0  0  0  0  0  0  0  0
   12.6400   -1.1000   22.2390 C   0  0  0  0  0  0  0  0  0  0  0  0
   10.2731   -7.4094   21.5405 C   0  0  0  0  0  0  0  0  0  0  0  0
    8.4779   -3.5757   23.0238 C   0  0  0  0  0  0  0  0  0  0  0  0
    8.3880   -0.3240   21.3070 C   0  0  0  0  0  0  0  0  0  0  0  0
   12.4000   -8.1371   18.6306 C   0  0  0  0  0  0  0  0  0  0  0  0
   13.3139   -7.2209   19.4347 C   0  0  0  0  0  0  0  0  0  0  0  0
    9.6286   -6.4356   23.7550 C   0  0  0  0  0  0  0  0  0  0  0  0
    8.1990   -6.0195   23.4892 C   0  0  0  0  0  0  0  0  0  0  0  0
   11.3911   -8.6036   19.6686 C   0  0  0  0  0  0  0  0  0  0  0  0
   12.3477   -6.5163   20.3766 C   0  0  0  0  0  0  0  0  0  0  0  0
   10.3070   -6.2011   22.4212 C   0  0  2  0  0  0  0  0  0  0  0  0
    8.3463   -4.9436   22.4335 C   0  0  2  0  0  0  0  0  0  0  0  0
    8.8810   -1.1900   22.4510 C   0  0  2  0  0  0  0  0  0  0  0  0
    6.7116    0.5212   17.3036 N   0  0  0  0  0  0  0  0  0  0  0  0
   11.2807   -7.4876   20.5965 N   0  0  0  0  0  0  0  0  0  0  0  0
    7.2820   -0.7860   20.6970 N   0  0  0  0  0  0  0  0  0  0  0  0
    8.7221   -2.5829   22.0943 N   0  0  0  0  0  0  0  0  0  0  0  0
    9.3928   -8.2598   21.6814 O   0  0  0  0  0  0  0  0  0  0  0  0
    8.3651   -3.4270   24.2350 O   0  0  0  0  0  0  0  0  0  0  0  0
    8.9170    0.7530   21.0260 O   0  0  0  0  0  0  0  0  0  0  0  0
    9.5675   -5.1903   21.7328 O   0  0  0  0  0  0  0  0  0  0  0  0
   13.8840   -1.8490   21.2740 Cl  0  0  0  0  0  0  0  0  0  0  0  0
    1.5267    1.3276   19.8311 H   0  0  0  0  0  0  0  0  0  0  0  0
    2.5946    0.3257   21.8298 H   0  0  0  0  0  0  0  0  0  0  0  0
   12.2249    1.2198   24.6546 H   0  0  0  0  0  0  0  0  0  0  0  0
    2.8114    1.6120   17.7455 H   0  0  0  0  0  0  0  0  0  0  0  0
    4.9338   -0.3933   21.7630 H   0  0  0  0  0  0  0  0  0  0  0  0
    9.8763    0.5350   24.3454 H   0  0  0  0  0  0  0  0  0  0  0  0
   14.0077    0.1988   23.2842 H   0  0  0  0  0  0  0  0  0  0  0  0
   11.0892   -2.3009   21.3624 H   0  0  0  0  0  0  0  0  0  0  0  0
    5.0078    1.3308   16.4920 H   0  0  0  0  0  0  0  0  0  0  0  0
    8.3038   -0.3142   18.2963 H   0  0  0  0  0  0  0  0  0  0  0  0
   11.8965   -7.5692   17.8394 H   0  0  0  0  0  0  0  0  0  0  0  0
   12.9430   -8.9676   18.1712 H   0  0  0  0  0  0  0  0  0  0  0  0
   14.0360   -7.8153   20.0068 H   0  0  0  0  0  0  0  0  0  0  0  0
   13.8646   -6.5210   18.8001 H   0  0  0  0  0  0  0  0  0  0  0  0
   10.0688   -5.7664   24.5032 H   0  0  0  0  0  0  0  0  0  0  0  0
    9.7119   -7.4602   24.1277 H   0  0  0  0  0  0  0  0  0  0  0  0
    7.6457   -6.8695   23.0722 H   0  0  0  0  0  0  0  0  0  0  0  0
    7.6773   -5.6894   24.3925 H   0  0  0  0  0  0  0  0  0  0  0  0
   10.4161   -8.8532   19.2398 H   0  0  0  0  0  0  0  0  0  0  0  0
   11.7617   -9.4680   20.2306 H   0  0  0  0  0  0  0  0  0  0  0  0
   12.8167   -6.2241   21.3200 H   0  0  0  0  0  0  0  0  0  0  0  0
   11.9040   -5.6320   19.9067 H   0  0  0  0  0  0  0  0  0  0  0  0
   11.3489   -5.8888   22.5289 H   0  0  0  0  0  0  0  0  0  0  0  0
    7.5120   -4.9342   21.7259 H   0  0  0  0  0  0  0  0  0  0  0  0
    8.2436   -1.0112   23.3272 H   0  0  0  0  0  0  0  0  0  0  0  0
    6.8975   -1.6551   21.0614 H   0  0  0  0  0  0  0  0  0  0  0  0
    8.7943   -2.8441   21.1155 H   0  0  0  0  0  0  0  0  0  0  0  0
  1  2  1  0  0  0  0
  1  4  2  0  0  0  0
  2  5  2  0  0  0  0
  3  6  2  0  0  0  0
  3  7  1  0  0  0  0
  4 11  1  0  0  0  0
  5 12  1  0  0  0  0
  6 13  1  0  0  0  0
  7 15  2  0  0  0  0
  8 13  2  0  0  0  0
  8 15  1  0  0  0  0
  9 11  2  0  0  0  0
  9 28  1  0  0  0  0
 10 14  1  0  0  0  0
 10 28  2  0  0  0  0
 11 12  1  0  0  0  0
 12 14  2  0  0  0  0
 13 27  1  0  0  0  0
 14 30  1  0  0  0  0
 15 36  1  0  0  0  0
 16 25  1  6  0  0  0
 16 29  1  0  0  0  0
 16 32  2  0  0  0  0
 17 26  1  1  0  0  0
 17 31  1  0  0  0  0
 17 33  2  0  0  0  0
 18 27  1  6  0  0  0
 18 30  1  0  0  0  0
 18 34  2  0  0  0  0
 19 20  1  0  0  0  0
 19 23  1  0  0  0  0
 20 24  1  0  0  0  0
 21 22  1  0  0  0  0
 21 25  1  0  0  0  0
 22 26  1  0  0  0  0
 23 29  1  0  0  0  0
 24 29  1  0  0  0  0
 25 35  1  0  0  0  0
 26 35  1  0  0  0  0
 27 31  1  0  0  0  0
  1 37  1  0  0  0  0
  2 38  1  0  0  0  0
  3 39  1  0  0  0  0
  4 40  1  0  0  0  0
  5 41  1  0  0  0  0
  6 42  1  0  0  0  0
  7 43  1  0  0  0  0
  8 44  1  0  0  0  0
  9 45  1  0  0  0  0
 10 46  1  0  0  0  0
 19 47  1  0  0  0  0
 19 48  1  0  0  0  0
 20 49  1  0  0  0  0
 20 50  1  0  0  0  0
 21 51  1  0  0  0  0
 21 52  1  0  0  0  0
 22 53  1  0  0  0  0
 22 54  1  0  0  0  0
 23 55  1  0  0  0  0
 23 56  1  0  0  0  0
 24 57  1  0  0  0  0
 24 58  1  0  0  0  0
 25 59  1  0  0  0  0
 26 60  1  0  0  0  0
 27 61  1  0  0  0  0
 30 62  1  0  0  0  0
 31 63  1  0  0  0  0
M  END
> <compound>
EDJ-MED-ee07cf00-11

> <compound_smiles>
c1ccc2c(c1)cncc2NC(=O)C(c3cccc(c3)Cl)NC(=O)C4CCC(O4)C(=O)N5CCCC5

> <enantiomer_smiles>
c1ccc2c(c1)cncc2NC(=O)[C@H](c3cccc(c3)Cl)NC(=O)[C@@H]4CC[C@H](O4)C(=O)N5CCCC5

> <scaffold>
chlorobenzene-linker

> <clash_score>
10.312025631625408

> <docking_score>
4.351085186004639

> <overlap_score>
0.8815231323242188

> <MMFF_internal_energy>
161.37627149295994

> <docked_smiles>
c1ccc2c(c1)cncc2NC(=O)[C@H](c3cccc(c3)Cl)NC(=O)[C@@H]4CC[C@H](O4)C(=O)N5CCCC5

$$$$
EDJ-MED-ee07cf00-16_1
  -OEChem-07262101023D

 51 54  0     1  0  0  0  0  0999 V2000
    4.8610    3.6140   19.7216 C   0  0  0  0  0  0  0  0  0  0  0  0
    5.5339    3.1326   20.8422 C   0  0  0  0  0  0  0  0  0  0  0  0
   11.9780    0.4600   23.9150 C   0  0  0  0  0  0  0  0  0  0  0  0
    4.7625    2.8268   18.5745 C   0  0  0  0  0  0  0  0  0  0  0  0
    6.1113    1.8618   20.8208 C   0  0  0  0  0  0  0  0  0  0  0  0
   10.6560    0.0720   23.7350 C   0  0  0  0  0  0  0  0  0  0  0  0
   12.9840   -0.1200   23.1530 C   0  0  0  0  0  0  0  0  0  0  0  0
   11.3360   -1.5050   22.0650 C   0  0  0  0  0  0  0  0  0  0  0  0
    5.2714    0.7168   17.4209 C   0  0  0  0  0  0  0  0  0  0  0  0
    6.4583   -0.9568   18.4529 C   0  0  0  0  0  0  0  0  0  0  0  0
    5.3397    1.5465   18.5418 C   0  0  0  0  0  0  0  0  0  0  0  0
    6.0217    1.0556   19.6743 C   0  0  0  0  0  0  0  0  0  0  0  0
   10.3220   -0.8940   22.7910 C   0  0  0  0  0  0  0  0  0  0  0  0
    6.5899   -0.2225   19.6216 C   0  0  0  0  0  0  0  0  0  0  0  0
   12.6400   -1.1000   22.2390 C   0  0  0  0  0  0  0  0  0  0  0  0
    6.7239   -3.4688   27.0075 C   0  0  0  0  0  0  0  0  0  0  0  0
    6.1025   -4.5189   27.5497 C   0  0  0  0  0  0  0  0  0  0  0  0
    4.6690   -4.7526   27.2607 C   0  0  0  0  0  0  0  0  0  0  0  0
    4.7350   -2.7007   25.8389 C   0  0  0  0  0  0  0  0  0  0  0  0
    7.7885   -1.9656   24.5529 C   0  0  0  0  0  0  0  0  0  0  0  0
    8.3880   -0.3240   21.3070 C   0  0  0  0  0  0  0  0  0  0  0  0
    6.8795   -1.4621   25.6449 C   0  0  0  0  0  0  0  0  0  0  0  0
    8.8810   -1.1900   22.4510 C   0  0  1  0  0  0  0  0  0  0  0  0
    5.8133   -0.5200   17.3502 N   0  0  0  0  0  0  0  0  0  0  0  0
    4.1003   -3.8081   26.4167 N   0  0  0  0  0  0  0  0  0  0  0  0
    6.0844   -2.5778   26.1784 N   0  0  0  0  0  0  0  0  0  0  0  0
    7.2820   -0.7860   20.6970 N   0  0  0  0  0  0  0  0  0  0  0  0
    8.0352   -0.9804   23.6107 N   0  0  0  0  0  0  0  0  0  0  0  0
    4.0510   -5.7021   27.7331 O   0  0  0  0  0  0  0  0  0  0  0  0
    4.1195   -1.9278   25.1015 O   0  0  0  0  0  0  0  0  0  0  0  0
    8.2425   -3.1063   24.5240 O   0  0  0  0  0  0  0  0  0  0  0  0
    8.9170    0.7530   21.0260 O   0  0  0  0  0  0  0  0  0  0  0  0
   13.8840   -1.8490   21.2740 Cl  0  0  0  0  0  0  0  0  0  0  0  0
    6.9151   -5.6235   28.5833 Cl  0  0  0  0  0  0  0  0  0  0  0  0
    4.4125    4.6029   19.7410 H   0  0  0  0  0  0  0  0  0  0  0  0
    5.6092    3.7472   21.7347 H   0  0  0  0  0  0  0  0  0  0  0  0
   12.2249    1.2198   24.6546 H   0  0  0  0  0  0  0  0  0  0  0  0
    4.2335    3.2180   17.7085 H   0  0  0  0  0  0  0  0  0  0  0  0
    6.6287    1.5216   21.7149 H   0  0  0  0  0  0  0  0  0  0  0  0
    9.8763    0.5350   24.3454 H   0  0  0  0  0  0  0  0  0  0  0  0
   14.0077    0.1988   23.2842 H   0  0  0  0  0  0  0  0  0  0  0  0
   11.0892   -2.3009   21.3624 H   0  0  0  0  0  0  0  0  0  0  0  0
    4.7608    1.0333   16.5154 H   0  0  0  0  0  0  0  0  0  0  0  0
    6.8806   -1.9536   18.3621 H   0  0  0  0  0  0  0  0  0  0  0  0
    7.7739   -3.2723   27.2013 H   0  0  0  0  0  0  0  0  0  0  0  0
    7.4779   -1.0282   26.4516 H   0  0  0  0  0  0  0  0  0  0  0  0
    6.2051   -0.6998   25.2440 H   0  0  0  0  0  0  0  0  0  0  0  0
    8.7711   -2.2448   22.1651 H   0  0  0  0  0  0  0  0  0  0  0  0
    3.1168   -3.9337   26.1938 H   0  0  0  0  0  0  0  0  0  0  0  0
    6.8984   -1.6618   21.0676 H   0  0  0  0  0  0  0  0  0  0  0  0
    7.6043   -0.0713   23.7384 H   0  0  0  0  0  0  0  0  0  0  0  0
  1  2  1  0  0  0  0
  1  4  2  0  0  0  0
  2  5  2  0  0  0  0
  3  6  2  0  0  0  0
  3  7  1  0  0  0  0
  4 11  1  0  0  0  0
  5 12  1  0  0  0  0
  6 13  1  0  0  0  0
  7 15  2  0  0  0  0
  8 13  2  0  0  0  0
  8 15  1  0  0  0  0
  9 11  2  0  0  0  0
  9 24  1  0  0  0  0
 10 14  1  0  0  0  0
 10 24  2  0  0  0  0
 11 12  1  0  0  0  0
 12 14  2  0  0  0  0
 13 23  1  0  0  0  0
 14 27  1  0  0  0  0
 15 33  1  0  0  0  0
 16 17  2  0  0  0  0
 16 26  1  0  0  0  0
 17 18  1  0  0  0  0
 17 34  1  0  0  0  0
 18 25  1  0  0  0  0
 18 29  2  0  0  0  0
 19 25  1  0  0  0  0
 19 26  1  0  0  0  0
 19 30  2  0  0  0  0
 20 22  1  0  0  0  0
 20 28  1  0  0  0  0
 20 31  2  0  0  0  0
 21 23  1  1  0  0  0
 21 27  1  0  0  0  0
 21 32  2  0  0  0  0
 22 26  1  0  0  0  0
 23 28  1  0  0  0  0
  1 35  1  0  0  0  0
  2 36  1  0  0  0  0
  3 37  1  0  0  0  0
  4 38  1  0  0  0  0
  5 39  1  0  0  0  0
  6 40  1  0  0  0  0
  7 41  1  0  0  0  0
  8 42  1  0  0  0  0
  9 43  1  0  0  0  0
 10 44  1  0  0  0  0
 16 45  1  0  0  0  0
 22 46  1  0  0  0  0
 22 47  1  0  0  0  0
 23 48  1  0  0  0  0
 25 49  1  0  0  0  0
 27 50  1  0  0  0  0
 28 51  1  0  0  0  0
M  END
> <compound>
EDJ-MED-ee07cf00-16

> <compound_smiles>
c1ccc2c(c1)cncc2NC(=O)C(c3cccc(c3)Cl)NC(=O)Cn4cc(c(=O)[nH]c4=O)Cl

> <enantiomer_smiles>
c1ccc2c(c1)cncc2NC(=O)[C@@H](c3cccc(c3)Cl)NC(=O)Cn4cc(c(=O)[nH]c4=O)Cl

> <scaffold>
chlorobenzene-linker

> <canonical_CID>
EDJ-MED-ee07cf00-16

> <r_inhibition_at_20_uM>

> <r_inhibition_at_50_uM>

> <r_avg_IC50>

> <f_inhibition_at_20_uM>

> <f_inhibition_at_50_uM>

> <f_avg_IC50>
9.33416719234576

> <f_avg_pIC50>

> <relative_solubility_at_20_uM>

> <relative_solubility_at_100_uM>

> <trypsin_IC50>

> <NMR_std_ratio>

> <acrylamide>
False

> <chloroacetamide>
False

> <series>
Ugi

> <frag_id>

> <clash_score>
0.6446440199436754

> <docking_score>
-4.051416397094727

> <overlap_score>
0.8318702578544617

> <MMFF_internal_energy>
73.46605690945988

> <docked_smiles>
c1ccc2c(c1)cncc2NC(=O)[C@@H](c3cccc(c3)Cl)NC(=O)Cn4cc(c(=O)[nH]c4=O)Cl

$$$$
EDJ-MED-ee07cf00-13_2
  -OEChem-07262101023D

 57 61  0     1  0  0  0  0  0999 V2000
    3.4578    2.5708   20.0554 C   0  0  0  0  0  0  0  0  0  0  0  0
    4.0829    2.0498   21.1859 C   0  0  0  0  0  0  0  0  0  0  0  0
   11.9780    0.4600   23.9150 C   0  0  0  0  0  0  0  0  0  0  0  0
    3.8699    2.1729   18.7838 C   0  0  0  0  0  0  0  0  0  0  0  0
    5.1230    1.1287   21.0499 C   0  0  0  0  0  0  0  0  0  0  0  0
   10.6560    0.0720   23.7350 C   0  0  0  0  0  0  0  0  0  0  0  0
   12.9840   -0.1200   23.1530 C   0  0  0  0  0  0  0  0  0  0  0  0
   11.3360   -1.5050   22.0650 C   0  0  0  0  0  0  0  0  0  0  0  0
    5.3678    0.8139   17.3870 C   0  0  0  0  0  0  0  0  0  0  0  0
    6.9546   -0.5609   18.3181 C   0  0  0  0  0  0  0  0  0  0  0  0
    4.9154    1.2466   18.6351 C   0  0  0  0  0  0  0  0  0  0  0  0
    5.5508    0.7169   19.7772 C   0  0  0  0  0  0  0  0  0  0  0  0
   10.3220   -0.8940   22.7910 C   0  0  0  0  0  0  0  0  0  0  0  0
    6.5904   -0.2048   19.6077 C   0  0  0  0  0  0  0  0  0  0  0  0
   12.6400   -1.1000   22.2390 C   0  0  0  0  0  0  0  0  0  0  0  0
    4.5767   -1.5168   27.3378 C   0  0  0  0  0  0  0  0  0  0  0  0
    2.7301   -0.5773   27.0283 C   0  0  0  0  0  0  0  0  0  0  0  0
    7.7879   -1.9598   24.5505 C   0  0  0  0  0  0  0  0  0  0  0  0
    8.3880   -0.3240   21.3070 C   0  0  0  0  0  0  0  0  0  0  0  0
    5.7846   -2.2297   27.8263 C   0  0  0  0  0  0  0  0  0  0  0  0
    6.6830   -2.6664   26.6634 C   0  0  0  0  0  0  0  0  0  0  0  0
    5.5502   -1.0513   25.0774 C   0  0  0  0  0  0  0  0  0  0  0  0
    6.8880   -1.5195   25.6627 C   0  0  1  0  0  0  0  0  0  0  0  0
    1.3706   -0.0909   27.2906 C   0  0  0  0  0  0  0  0  0  0  0  0
    8.8810   -1.1900   22.4510 C   0  0  2  0  0  0  0  0  0  0  0  0
    6.3699   -0.0750   17.2025 N   0  0  0  0  0  0  0  0  0  0  0  0
    3.4424   -1.2810   27.9608 N   0  0  0  0  0  0  0  0  0  0  0  0
    3.3480   -0.3581   25.8644 N   0  0  0  0  0  0  0  0  0  0  0  0
    4.5245   -0.9583   26.0919 N   0  0  0  0  0  0  0  0  0  0  0  0
    7.2820   -0.7860   20.6970 N   0  0  0  0  0  0  0  0  0  0  0  0
    8.0374   -0.9810   23.6076 N   0  0  0  0  0  0  0  0  0  0  0  0
    8.2273   -3.1038   24.5457 O   0  0  0  0  0  0  0  0  0  0  0  0
    8.9170    0.7530   21.0260 O   0  0  0  0  0  0  0  0  0  0  0  0
   13.8840   -1.8490   21.2740 Cl  0  0  0  0  0  0  0  0  0  0  0  0
    2.6488    3.2871   20.1641 H   0  0  0  0  0  0  0  0  0  0  0  0
    3.7602    2.3608   22.1755 H   0  0  0  0  0  0  0  0  0  0  0  0
   12.2249    1.2198   24.6546 H   0  0  0  0  0  0  0  0  0  0  0  0
    3.3709    2.5895   17.9118 H   0  0  0  0  0  0  0  0  0  0  0  0
    5.5865    0.7452   21.9560 H   0  0  0  0  0  0  0  0  0  0  0  0
    9.8763    0.5350   24.3454 H   0  0  0  0  0  0  0  0  0  0  0  0
   14.0077    0.1988   23.2842 H   0  0  0  0  0  0  0  0  0  0  0  0
   11.0892   -2.3008   21.3624 H   0  0  0  0  0  0  0  0  0  0  0  0
    4.9221    1.1820   16.4670 H   0  0  0  0  0  0  0  0  0  0  0  0
    7.7545   -1.2725   18.1337 H   0  0  0  0  0  0  0  0  0  0  0  0
    6.3507   -1.5845   28.5054 H   0  0  0  0  0  0  0  0  0  0  0  0
    5.4671   -3.1061   28.4015 H   0  0  0  0  0  0  0  0  0  0  0  0
    7.6571   -2.9634   27.0558 H   0  0  0  0  0  0  0  0  0  0  0  0
    6.2422   -3.5334   26.1733 H   0  0  0  0  0  0  0  0  0  0  0  0
    5.6561   -0.0470   24.6603 H   0  0  0  0  0  0  0  0  0  0  0  0
    5.1895   -1.7273   24.2997 H   0  0  0  0  0  0  0  0  0  0  0  0
    7.3781   -0.6862   26.1481 H   0  0  0  0  0  0  0  0  0  0  0  0
    1.3801    0.9226   27.7318 H   0  0  0  0  0  0  0  0  0  0  0  0
    0.7547   -0.0429   26.3724 H   0  0  0  0  0  0  0  0  0  0  0  0
    0.8145   -0.7467   27.9875 H   0  0  0  0  0  0  0  0  0  0  0  0
    8.7711   -2.2448   22.1651 H   0  0  0  0  0  0  0  0  0  0  0  0
    6.8975   -1.6551   21.0614 H   0  0  0  0  0  0  0  0  0  0  0  0
    7.6071   -0.0694   23.7315 H   0  0  0  0  0  0  0  0  0  0  0  0
  1  2  1  0  0  0  0
  1  4  2  0  0  0  0
  2  5  2  0  0  0  0
  3  6  2  0  0  0  0
  3  7  1  0  0  0  0
  4 11  1  0  0  0  0
  5 12  1  0  0  0  0
  6 13  1  0  0  0  0
  7 15  2  0  0  0  0
  8 13  2  0  0  0  0
  8 15  1  0  0  0  0
  9 11  2  0  0  0  0
  9 26  1  0  0  0  0
 10 14  1  0  0  0  0
 10 26  2  0  0  0  0
 11 12  1  0  0  0  0
 12 14  2  0  0  0  0
 13 25  1  0  0  0  0
 14 30  1  0  0  0  0
 15 34  1  0  0  0  0
 16 20  1  0  0  0  0
 16 27  2  0  0  0  0
 16 29  1  0  0  0  0
 17 24  1  0  0  0  0
 17 27  1  0  0  0  0
 17 28  2  0  0  0  0
 18 23  1  0  0  0  0
 18 31  1  0  0  0  0
 18 32  2  0  0  0  0
 19 25  1  6  0  0  0
 19 30  1  0  0  0  0
 19 33  2  0  0  0  0
 20 21  1  0  0  0  0
 21 23  1  0  0  0  0
 22 23  1  0  0  0  0
 22 29  1  0  0  0  0
 25 31  1  0  0  0  0
 28 29  1  0  0  0  0
  1 35  1  0  0  0  0
  2 36  1  0  0  0  0
  3 37  1  0  0  0  0
  4 38  1  0  0  0  0
  5 39  1  0  0  0  0
  6 40  1  0  0  0  0
  7 41  1  0  0  0  0
  8 42  1  0  0  0  0
  9 43  1  0  0  0  0
 10 44  1  0  0  0  0
 20 45  1  0  0  0  0
 20 46  1  0  0  0  0
 21 47  1  0  0  0  0
 21 48  1  0  0  0  0
 22 49  1  0  0  0  0
 22 50  1  0  0  0  0
 23 51  1  0  0  0  0
 24 52  1  0  0  0  0
 24 53  1  0  0  0  0
 24 54  1  0  0  0  0
 25 55  1  0  0  0  0
 30 56  1  0  0  0  0
 31 57  1  0  0  0  0
M  END
> <compound>
EDJ-MED-ee07cf00-13

> <compound_smiles>
Cc1nc2n(n1)C[C@@H](CC2)C(=O)NC(c3cccc(c3)Cl)C(=O)Nc4cncc5c4cccc5

> <enantiomer_smiles>
Cc1nc2n(n1)C[C@@H](CC2)C(=O)N[C@H](c3cccc(c3)Cl)C(=O)Nc4cncc5c4cccc5

> <scaffold>
chlorobenzene-linker

> <clash_score>
0

> <docking_score>
-8.765972137451172

> <overlap_score>
0.9675021171569824

> <MMFF_internal_energy>
106.03745728319734

> <docked_smiles>
Cc1nc2n(n1)C[C@@H](CC2)C(=O)N[C@H](c3cccc(c3)Cl)C(=O)Nc4cncc5c4cccc5

$$$$
EDJ-MED-ee07cf00-11_7
  -OEChem-07262101023D

 63 67  0     1  0  0  0  0  0999 V2000
    2.5650    1.0119   19.7905 C   0  0  0  0  0  0  0  0  0  0  0  0
    3.1657    0.4486   20.9139 C   0  0  0  0  0  0  0  0  0  0  0  0
   11.9780    0.4600   23.9150 C   0  0  0  0  0  0  0  0  0  0  0  0
    3.2959    1.1705   18.6133 C   0  0  0  0  0  0  0  0  0  0  0  0
    4.5001    0.0414   20.8653 C   0  0  0  0  0  0  0  0  0  0  0  0
   10.6560    0.0720   23.7350 C   0  0  0  0  0  0  0  0  0  0  0  0
   12.9840   -0.1200   23.1530 C   0  0  0  0  0  0  0  0  0  0  0  0
   11.3360   -1.5050   22.0650 C   0  0  0  0  0  0  0  0  0  0  0  0
    5.4171    0.8995   17.4014 C   0  0  0  0  0  0  0  0  0  0  0  0
    7.2639   -0.0211   18.4097 C   0  0  0  0  0  0  0  0  0  0  0  0
    4.6393    0.7642   18.5530 C   0  0  0  0  0  0  0  0  0  0  0  0
    5.2510    0.1935   19.6882 C   0  0  0  0  0  0  0  0  0  0  0  0
   10.3220   -0.8940   22.7910 C   0  0  0  0  0  0  0  0  0  0  0  0
    6.5904   -0.2048   19.6077 C   0  0  0  0  0  0  0  0  0  0  0  0
   12.6400   -1.1000   22.2390 C   0  0  0  0  0  0  0  0  0  0  0  0
    5.5566   -4.6204   26.3926 C   0  0  0  0  0  0  0  0  0  0  0  0
    7.7893   -1.9613   24.5493 C   0  0  0  0  0  0  0  0  0  0  0  0
    8.3880   -0.3240   21.3070 C   0  0  0  0  0  0  0  0  0  0  0  0
    6.1429   -7.0297   29.1079 C   0  0  0  0  0  0  0  0  0  0  0  0
    5.4654   -5.8965   29.8682 C   0  0  0  0  0  0  0  0  0  0  0  0
    4.7763   -2.5138   25.2841 C   0  0  0  0  0  0  0  0  0  0  0  0
    5.4974   -1.1920   25.1669 C   0  0  0  0  0  0  0  0  0  0  0  0
    5.7556   -6.7471   27.6646 C   0  0  0  0  0  0  0  0  0  0  0  0
    5.6326   -4.7088   28.9309 C   0  0  0  0  0  0  0  0  0  0  0  0
    5.4364   -3.1372   26.4968 C   0  0  2  0  0  0  0  0  0  0  0  0
    6.8902   -1.5236   25.6618 C   0  0  1  0  0  0  0  0  0  0  0  0
    8.8810   -1.1900   22.4510 C   0  0  1  0  0  0  0  0  0  0  0  0
    6.7116    0.5212   17.3036 N   0  0  0  0  0  0  0  0  0  0  0  0
    5.6407   -5.2978   27.5954 N   0  0  0  0  0  0  0  0  0  0  0  0
    7.2820   -0.7860   20.6970 N   0  0  0  0  0  0  0  0  0  0  0  0
    8.0374   -0.9810   23.6076 N   0  0  0  0  0  0  0  0  0  0  0  0
    5.5709   -5.1694   25.2898 O   0  0  0  0  0  0  0  0  0  0  0  0
    8.2296   -3.1049   24.5427 O   0  0  0  0  0  0  0  0  0  0  0  0
    8.9170    0.7530   21.0260 O   0  0  0  0  0  0  0  0  0  0  0  0
    6.7740   -2.6308   26.5563 O   0  0  0  0  0  0  0  0  0  0  0  0
   13.8840   -1.8490   21.2740 Cl  0  0  0  0  0  0  0  0  0  0  0  0
    1.5267    1.3276   19.8311 H   0  0  0  0  0  0  0  0  0  0  0  0
    2.5946    0.3257   21.8297 H   0  0  0  0  0  0  0  0  0  0  0  0
   12.2249    1.2198   24.6546 H   0  0  0  0  0  0  0  0  0  0  0  0
    2.8114    1.6120   17.7455 H   0  0  0  0  0  0  0  0  0  0  0  0
    4.9338   -0.3933   21.7630 H   0  0  0  0  0  0  0  0  0  0  0  0
    9.8763    0.5350   24.3454 H   0  0  0  0  0  0  0  0  0  0  0  0
   14.0077    0.1988   23.2842 H   0  0  0  0  0  0  0  0  0  0  0  0
   11.0892   -2.3008   21.3624 H   0  0  0  0  0  0  0  0  0  0  0  0
    5.0078    1.3308   16.4920 H   0  0  0  0  0  0  0  0  0  0  0  0
    8.3038   -0.3142   18.2963 H   0  0  0  0  0  0  0  0  0  0  0  0
    7.2309   -6.9687   29.2285 H   0  0  0  0  0  0  0  0  0  0  0  0
    5.8100   -8.0150   29.4457 H   0  0  0  0  0  0  0  0  0  0  0  0
    4.4017   -6.1205   30.0110 H   0  0  0  0  0  0  0  0  0  0  0  0
    5.9189   -5.7232   30.8481 H   0  0  0  0  0  0  0  0  0  0  0  0
    3.6942   -2.4021   25.4119 H   0  0  0  0  0  0  0  0  0  0  0  0
    4.9366   -3.1123   24.3780 H   0  0  0  0  0  0  0  0  0  0  0  0
    5.4694   -0.7795   24.1541 H   0  0  0  0  0  0  0  0  0  0  0  0
    5.0307   -0.4657   25.8433 H   0  0  0  0  0  0  0  0  0  0  0  0
    6.4892   -7.1159   26.9416 H   0  0  0  0  0  0  0  0  0  0  0  0
    4.7751   -7.1705   27.4202 H   0  0  0  0  0  0  0  0  0  0  0  0
    4.8293   -3.9744   29.0342 H   0  0  0  0  0  0  0  0  0  0  0  0
    6.5964   -4.2113   29.0834 H   0  0  0  0  0  0  0  0  0  0  0  0
    4.9239   -2.8798   27.4271 H   0  0  0  0  0  0  0  0  0  0  0  0
    7.3607   -0.6796   26.1734 H   0  0  0  0  0  0  0  0  0  0  0  0
    8.7711   -2.2448   22.1651 H   0  0  0  0  0  0  0  0  0  0  0  0
    6.8975   -1.6551   21.0614 H   0  0  0  0  0  0  0  0  0  0  0  0
    7.6086   -0.0691   23.7345 H   0  0  0  0  0  0  0  0  0  0  0  0
  1  2  1  0  0  0  0
  1  4  2  0  0  0  0
  2  5  2  0  0  0  0
  3  6  2  0  0  0  0
  3  7  1  0  0  0  0
  4 11  1  0  0  0  0
  5 12  1  0  0  0  0
  6 13  1  0  0  0  0
  7 15  2  0  0  0  0
  8 13  2  0  0  0  0
  8 15  1  0  0  0  0
  9 11  2  0  0  0  0
  9 28  1  0  0  0  0
 10 14  1  0  0  0  0
 10 28  2  0  0  0  0
 11 12  1  0  0  0  0
 12 14  2  0  0  0  0
 13 27  1  0  0  0  0
 14 30  1  0  0  0  0
 15 36  1  0  0  0  0
 16 25  1  6  0  0  0
 16 29  1  0  0  0  0
 16 32  2  0  0  0  0
 17 26  1  6  0  0  0
 17 31  1  0  0  0  0
 17 33  2  0  0  0  0
 18 27  1  1  0  0  0
 18 30  1  0  0  0  0
 18 34  2  0  0  0  0
 19 20  1  0  0  0  0
 19 23  1  0  0  0  0
 20 24  1  0  0  0  0
 21 22  1  0  0  0  0
 21 25  1  0  0  0  0
 22 26  1  0  0  0  0
 23 29  1  0  0  0  0
 24 29  1  0  0  0  0
 25 35  1  0  0  0  0
 26 35  1  0  0  0  0
 27 31  1  0  0  0  0
  1 37  1  0  0  0  0
  2 38  1  0  0  0  0
  3 39  1  0  0  0  0
  4 40  1  0  0  0  0
  5 41  1  0  0  0  0
  6 42  1  0  0  0  0
  7 43  1  0  0  0  0
  8 44  1  0  0  0  0
  9 45  1  0  0  0  0
 10 46  1  0  0  0  0
 19 47  1  0  0  0  0
 19 48  1  0  0  0  0
 20 49  1  0  0  0  0
 20 50  1  0  0  0  0
 21 51  1  0  0  0  0
 21 52  1  0  0  0  0
 22 53  1  0  0  0  0
 22 54  1  0  0  0  0
 23 55  1  0  0  0  0
 23 56  1  0  0  0  0
 24 57  1  0  0  0  0
 24 58  1  0  0  0  0
 25 59  1  0  0  0  0
 26 60  1  0  0  0  0
 27 61  1  0  0  0  0
 30 62  1  0  0  0  0
 31 63  1  0  0  0  0
M  END
> <compound>
EDJ-MED-ee07cf00-11

> <compound_smiles>
c1ccc2c(c1)cncc2NC(=O)C(c3cccc(c3)Cl)NC(=O)C4CCC(O4)C(=O)N5CCCC5

> <enantiomer_smiles>
c1ccc2c(c1)cncc2NC(=O)[C@@H](c3cccc(c3)Cl)NC(=O)[C@H]4CC[C@H](O4)C(=O)N5CCCC5

> <scaffold>
chlorobenzene-linker

> <clash_score>
0

> <docking_score>
-4.889894008636475

> <overlap_score>
0.8811337947845459

> <MMFF_internal_energy>
173.32153437787198

> <docked_smiles>
c1ccc2c(c1)cncc2NC(=O)[C@@H](c3cccc(c3)Cl)NC(=O)[C@H]4CC[C@H](O4)C(=O)N5CCCC5

$$$$
EDJ-MED-ee07cf00-14_1
  -OEChem-07262101023D

 57 61  0     1  0  0  0  0  0999 V2000
    8.3421    0.4891   15.8438 C   0  0  0  0  0  0  0  0  0  0  0  0
    9.0997   -0.0890   16.8597 C   0  0  0  0  0  0  0  0  0  0  0  0
   11.9780    0.4600   23.9150 C   0  0  0  0  0  0  0  0  0  0  0  0
    7.0110    0.8349   16.0756 C   0  0  0  0  0  0  0  0  0  0  0  0
    8.5296   -0.3240   18.1121 C   0  0  0  0  0  0  0  0  0  0  0  0
   10.6560    0.0720   23.7350 C   0  0  0  0  0  0  0  0  0  0  0  0
   12.9840   -0.1200   23.1530 C   0  0  0  0  0  0  0  0  0  0  0  0
   11.3360   -1.5050   22.0650 C   0  0  0  0  0  0  0  0  0  0  0  0
    5.1000    0.9293   17.6186 C   0  0  0  0  0  0  0  0  0  0  0  0
    5.2636    0.1605   19.7766 C   0  0  0  0  0  0  0  0  0  0  0  0
    6.4271    0.6031   17.3320 C   0  0  0  0  0  0  0  0  0  0  0  0
    7.1907    0.0179   18.3631 C   0  0  0  0  0  0  0  0  0  0  0  0
   10.3220   -0.8940   22.7910 C   0  0  0  0  0  0  0  0  0  0  0  0
    6.5904   -0.2048   19.6077 C   0  0  0  0  0  0  0  0  0  0  0  0
   12.6400   -1.1000   22.2390 C   0  0  0  0  0  0  0  0  0  0  0  0
    5.3001   -4.0600   27.9782 C   0  0  0  0  0  0  0  0  0  0  0  0
    6.1595   -2.9111   27.5181 C   0  0  0  0  0  0  0  0  0  0  0  0
    4.5865   -4.1669   25.6857 C   0  0  0  0  0  0  0  0  0  0  0  0
    7.7852   -1.9620   24.5558 C   0  0  0  0  0  0  0  0  0  0  0  0
    8.3880   -0.3240   21.3070 C   0  0  0  0  0  0  0  0  0  0  0  0
    3.6390   -4.9758   24.8540 C   0  0  0  0  0  0  0  0  0  0  0  0
    3.4306   -6.2239   25.7091 C   0  0  0  0  0  0  0  0  0  0  0  0
    3.6508   -5.7436   27.1337 C   0  0  0  0  0  0  0  0  0  0  0  0
    6.8760   -1.4531   25.6451 C   0  0  0  0  0  0  0  0  0  0  0  0
    8.8810   -1.1900   22.4510 C   0  0  1  0  0  0  0  0  0  0  0  0
    4.5022    0.7221   18.8136 N   0  0  0  0  0  0  0  0  0  0  0  0
    5.2897   -3.1790   25.2558 N   0  0  0  0  0  0  0  0  0  0  0  0
    4.5622   -4.6328   26.9810 N   0  0  0  0  0  0  0  0  0  0  0  0
    6.0875   -2.5520   26.1746 N   0  0  0  0  0  0  0  0  0  0  0  0
    7.2820   -0.7860   20.6970 N   0  0  0  0  0  0  0  0  0  0  0  0
    8.0375   -0.9810   23.6075 N   0  0  0  0  0  0  0  0  0  0  0  0
    5.3260   -4.3747   29.1587 O   0  0  0  0  0  0  0  0  0  0  0  0
    6.8586   -2.3796   28.3743 O   0  0  0  0  0  0  0  0  0  0  0  0
    8.2369   -3.1038   24.5311 O   0  0  0  0  0  0  0  0  0  0  0  0
    8.9170    0.7530   21.0260 O   0  0  0  0  0  0  0  0  0  0  0  0
   13.8840   -1.8490   21.2740 Cl  0  0  0  0  0  0  0  0  0  0  0  0
    8.7883    0.6710   14.8705 H   0  0  0  0  0  0  0  0  0  0  0  0
   10.1363   -0.3573   16.6771 H   0  0  0  0  0  0  0  0  0  0  0  0
   12.2249    1.2198   24.6546 H   0  0  0  0  0  0  0  0  0  0  0  0
    6.4339    1.2855   15.2714 H   0  0  0  0  0  0  0  0  0  0  0  0
    9.1529   -0.7776   18.8792 H   0  0  0  0  0  0  0  0  0  0  0  0
    9.8763    0.5350   24.3454 H   0  0  0  0  0  0  0  0  0  0  0  0
   14.0077    0.1988   23.2842 H   0  0  0  0  0  0  0  0  0  0  0  0
   11.0892   -2.3008   21.3624 H   0  0  0  0  0  0  0  0  0  0  0  0
    4.4565    1.3827   16.8697 H   0  0  0  0  0  0  0  0  0  0  0  0
    4.7527    0.0090   20.7233 H   0  0  0  0  0  0  0  0  0  0  0  0
    2.7085   -4.4121   24.7314 H   0  0  0  0  0  0  0  0  0  0  0  0
    4.0589   -5.2035   23.8713 H   0  0  0  0  0  0  0  0  0  0  0  0
    2.4412   -6.6661   25.5617 H   0  0  0  0  0  0  0  0  0  0  0  0
    4.1835   -6.9782   25.4500 H   0  0  0  0  0  0  0  0  0  0  0  0
    2.7266   -5.3619   27.5812 H   0  0  0  0  0  0  0  0  0  0  0  0
    4.0723   -6.5091   27.7916 H   0  0  0  0  0  0  0  0  0  0  0  0
    7.4743   -1.0179   26.4510 H   0  0  0  0  0  0  0  0  0  0  0  0
    6.2037   -0.6907   25.2409 H   0  0  0  0  0  0  0  0  0  0  0  0
    8.7711   -2.2448   22.1651 H   0  0  0  0  0  0  0  0  0  0  0  0
    6.8975   -1.6551   21.0614 H   0  0  0  0  0  0  0  0  0  0  0  0
    7.6075   -0.0688   23.7306 H   0  0  0  0  0  0  0  0  0  0  0  0
  1  2  1  0  0  0  0
  1  4  2  0  0  0  0
  2  5  2  0  0  0  0
  3  6  2  0  0  0  0
  3  7  1  0  0  0  0
  4 11  1  0  0  0  0
  5 12  1  0  0  0  0
  6 13  1  0  0  0  0
  7 15  2  0  0  0  0
  8 13  2  0  0  0  0
  8 15  1  0  0  0  0
  9 11  2  0  0  0  0
  9 26  1  0  0  0  0
 10 14  1  0  0  0  0
 10 26  2  0  0  0  0
 11 12  1  0  0  0  0
 12 14  2  0  0  0  0
 13 25  1  0  0  0  0
 14 30  1  0  0  0  0
 15 36  1  0  0  0  0
 16 17  1  0  0  0  0
 16 28  1  0  0  0  0
 16 32  2  0  0  0  0
 17 29  1  0  0  0  0
 17 33  2  0  0  0  0
 18 21  1  0  0  0  0
 18 27  2  0  0  0  0
 18 28  1  0  0  0  0
 19 24  1  0  0  0  0
 19 31  1  0  0  0  0
 19 34  2  0  0  0  0
 20 25  1  1  0  0  0
 20 30  1  0  0  0  0
 20 35  2  0  0  0  0
 21 22  1  0  0  0  0
 22 23  1  0  0  0  0
 23 28  1  0  0  0  0
 24 29  1  0  0  0  0
 25 31  1  0  0  0  0
 27 29  1  0  0  0  0
  1 37  1  0  0  0  0
  2 38  1  0  0  0  0
  3 39  1  0  0  0  0
  4 40  1  0  0  0  0
  5 41  1  0  0  0  0
  6 42  1  0  0  0  0
  7 43  1  0  0  0  0
  8 44  1  0  0  0  0
  9 45  1  0  0  0  0
 10 46  1  0  0  0  0
 21 47  1  0  0  0  0
 21 48  1  0  0  0  0
 22 49  1  0  0  0  0
 22 50  1  0  0  0  0
 23 51  1  0  0  0  0
 23 52  1  0  0  0  0
 24 53  1  0  0  0  0
 24 54  1  0  0  0  0
 25 55  1  0  0  0  0
 30 56  1  0  0  0  0
 31 57  1  0  0  0  0
M  END
> <compound>
EDJ-MED-ee07cf00-14

> <compound_smiles>
c1ccc2c(c1)cncc2NC(=O)C(c3cccc(c3)Cl)NC(=O)Cn4c(=O)c(=O)n5c(n4)CCC5

> <enantiomer_smiles>
c1ccc2c(c1)cncc2NC(=O)[C@@H](c3cccc(c3)Cl)NC(=O)Cn4c(=O)c(=O)n5c(n4)CCC5

> <scaffold>
chlorobenzene-linker

> <canonical_CID>
EDJ-MED-ee07cf00-14

> <r_inhibition_at_20_uM>

> <r_inhibition_at_50_uM>

> <r_avg_IC50>

> <f_inhibition_at_20_uM>

> <f_inhibition_at_50_uM>

> <f_avg_IC50>
2.75766675794508

> <f_avg_pIC50>

> <relative_solubility_at_20_uM>

> <relative_solubility_at_100_uM>

> <trypsin_IC50>

> <NMR_std_ratio>

> <acrylamide>
False

> <chloroacetamide>
False

> <series>
Ugi

> <frag_id>

> <clash_score>
3.64780583086178

> <docking_score>
0.40120482444763184

> <overlap_score>
0.8096166849136353

> <MMFF_internal_energy>
187.83936693192302

> <docked_smiles>
c1ccc2c(c1)cncc2NC(=O)[C@@H](c3cccc(c3)Cl)NC(=O)Cn4c(=O)c(=O)n5c(n4)CCC5

$$$$
EDJ-MED-ee07cf00-11_8
  -OEChem-07262101023D

 63 67  0     1  0  0  0  0  0999 V2000
    2.5650    1.0118   19.7905 C   0  0  0  0  0  0  0  0  0  0  0  0
    3.1657    0.4486   20.9140 C   0  0  0  0  0  0  0  0  0  0  0  0
   11.9780    0.4600   23.9150 C   0  0  0  0  0  0  0  0  0  0  0  0
    3.2959    1.1704   18.6133 C   0  0  0  0  0  0  0  0  0  0  0  0
    4.5001    0.0413   20.8653 C   0  0  0  0  0  0  0  0  0  0  0  0
   10.6560    0.0720   23.7350 C   0  0  0  0  0  0  0  0  0  0  0  0
   12.9840   -0.1200   23.1530 C   0  0  0  0  0  0  0  0  0  0  0  0
   11.3360   -1.5050   22.0650 C   0  0  0  0  0  0  0  0  0  0  0  0
    5.4171    0.8994   17.4014 C   0  0  0  0  0  0  0  0  0  0  0  0
    7.2639   -0.0211   18.4097 C   0  0  0  0  0  0  0  0  0  0  0  0
    4.6393    0.7642   18.5530 C   0  0  0  0  0  0  0  0  0  0  0  0
    5.2510    0.1935   19.6882 C   0  0  0  0  0  0  0  0  0  0  0  0
   10.3220   -0.8940   22.7910 C   0  0  0  0  0  0  0  0  0  0  0  0
    6.5904   -0.2048   19.6077 C   0  0  0  0  0  0  0  0  0  0  0  0
   12.6400   -1.1000   22.2390 C   0  0  0  0  0  0  0  0  0  0  0  0
    5.0895   -5.5328   23.4045 C   0  0  0  0  0  0  0  0  0  0  0  0
    8.4779   -3.5767   23.0228 C   0  0  0  0  0  0  0  0  0  0  0  0
    8.3880   -0.3240   21.3070 C   0  0  0  0  0  0  0  0  0  0  0  0
    1.7042   -6.6695   22.5275 C   0  0  0  0  0  0  0  0  0  0  0  0
    2.4971   -7.9581   22.3488 C   0  0  0  0  0  0  0  0  0  0  0  0
    7.3670   -6.3288   24.0787 C   0  0  0  0  0  0  0  0  0  0  0  0
    8.6968   -6.0288   23.4288 C   0  0  0  0  0  0  0  0  0  0  0  0
    2.6209   -5.8270   23.4009 C   0  0  0  0  0  0  0  0  0  0  0  0
    3.9309   -7.4621   22.2247 C   0  0  0  0  0  0  0  0  0  0  0  0
    6.3912   -6.0968   22.9434 C   0  0  2  0  0  0  0  0  0  0  0  0
    8.3465   -4.9442   22.4310 C   0  0  1  0  0  0  0  0  0  0  0  0
    8.8810   -1.1900   22.4510 C   0  0  2  0  0  0  0  0  0  0  0  0
    6.7116    0.5212   17.3036 N   0  0  0  0  0  0  0  0  0  0  0  0
    3.9645   -6.2423   23.0256 N   0  0  0  0  0  0  0  0  0  0  0  0
    7.2820   -0.7860   20.6970 N   0  0  0  0  0  0  0  0  0  0  0  0
    8.7221   -2.5829   22.0943 N   0  0  0  0  0  0  0  0  0  0  0  0
    5.0599   -4.5037   24.0813 O   0  0  0  0  0  0  0  0  0  0  0  0
    8.3649   -3.4291   24.2341 O   0  0  0  0  0  0  0  0  0  0  0  0
    8.9170    0.7530   21.0260 O   0  0  0  0  0  0  0  0  0  0  0  0
    6.9717   -5.1112   22.0827 O   0  0  0  0  0  0  0  0  0  0  0  0
   13.8840   -1.8490   21.2740 Cl  0  0  0  0  0  0  0  0  0  0  0  0
    1.5267    1.3276   19.8311 H   0  0  0  0  0  0  0  0  0  0  0  0
    2.5946    0.3257   21.8298 H   0  0  0  0  0  0  0  0  0  0  0  0
   12.2249    1.2198   24.6546 H   0  0  0  0  0  0  0  0  0  0  0  0
    2.8114    1.6119   17.7455 H   0  0  0  0  0  0  0  0  0  0  0  0
    4.9338   -0.3933   21.7630 H   0  0  0  0  0  0  0  0  0  0  0  0
    9.8763    0.5350   24.3454 H   0  0  0  0  0  0  0  0  0  0  0  0
   14.0077    0.1988   23.2842 H   0  0  0  0  0  0  0  0  0  0  0  0
   11.0892   -2.3008   21.3624 H   0  0  0  0  0  0  0  0  0  0  0  0
    5.0078    1.3308   16.4920 H   0  0  0  0  0  0  0  0  0  0  0  0
    8.3038   -0.3142   18.2963 H   0  0  0  0  0  0  0  0  0  0  0  0
    1.5503   -6.1826   21.5573 H   0  0  0  0  0  0  0  0  0  0  0  0
    0.7280   -6.8421   22.9890 H   0  0  0  0  0  0  0  0  0  0  0  0
    2.3908   -8.5931   23.2363 H   0  0  0  0  0  0  0  0  0  0  0  0
    2.1742   -8.5275   21.4729 H   0  0  0  0  0  0  0  0  0  0  0  0
    7.3047   -7.3468   24.4782 H   0  0  0  0  0  0  0  0  0  0  0  0
    7.1925   -5.6401   24.9155 H   0  0  0  0  0  0  0  0  0  0  0  0
    9.4681   -5.7412   24.1491 H   0  0  0  0  0  0  0  0  0  0  0  0
    9.0458   -6.9206   22.8942 H   0  0  0  0  0  0  0  0  0  0  0  0
    2.4885   -4.7513   23.2522 H   0  0  0  0  0  0  0  0  0  0  0  0
    2.4868   -6.0559   24.4640 H   0  0  0  0  0  0  0  0  0  0  0  0
    4.6616   -8.1914   22.5845 H   0  0  0  0  0  0  0  0  0  0  0  0
    4.1725   -7.1910   21.1913 H   0  0  0  0  0  0  0  0  0  0  0  0
    6.2074   -7.0035   22.3617 H   0  0  0  0  0  0  0  0  0  0  0  0
    8.9667   -4.9916   21.5317 H   0  0  0  0  0  0  0  0  0  0  0  0
    8.2436   -1.0112   23.3272 H   0  0  0  0  0  0  0  0  0  0  0  0
    6.8975   -1.6551   21.0614 H   0  0  0  0  0  0  0  0  0  0  0  0
    8.7953   -2.8433   21.1154 H   0  0  0  0  0  0  0  0  0  0  0  0
  1  2  1  0  0  0  0
  1  4  2  0  0  0  0
  2  5  2  0  0  0  0
  3  6  2  0  0  0  0
  3  7  1  0  0  0  0
  4 11  1  0  0  0  0
  5 12  1  0  0  0  0
  6 13  1  0  0  0  0
  7 15  2  0  0  0  0
  8 13  2  0  0  0  0
  8 15  1  0  0  0  0
  9 11  2  0  0  0  0
  9 28  1  0  0  0  0
 10 14  1  0  0  0  0
 10 28  2  0  0  0  0
 11 12  1  0  0  0  0
 12 14  2  0  0  0  0
 13 27  1  0  0  0  0
 14 30  1  0  0  0  0
 15 36  1  0  0  0  0
 16 25  1  6  0  0  0
 16 29  1  0  0  0  0
 16 32  2  0  0  0  0
 17 26  1  6  0  0  0
 17 31  1  0  0  0  0
 17 33  2  0  0  0  0
 18 27  1  6  0  0  0
 18 30  1  0  0  0  0
 18 34  2  0  0  0  0
 19 20  1  0  0  0  0
 19 23  1  0  0  0  0
 20 24  1  0  0  0  0
 21 22  1  0  0  0  0
 21 25  1  0  0  0  0
 22 26  1  0  0  0  0
 23 29  1  0  0  0  0
 24 29  1  0  0  0  0
 25 35  1  0  0  0  0
 26 35  1  0  0  0  0
 27 31  1  0  0  0  0
  1 37  1  0  0  0  0
  2 38  1  0  0  0  0
  3 39  1  0  0  0  0
  4 40  1  0  0  0  0
  5 41  1  0  0  0  0
  6 42  1  0  0  0  0
  7 43  1  0  0  0  0
  8 44  1  0  0  0  0
  9 45  1  0  0  0  0
 10 46  1  0  0  0  0
 19 47  1  0  0  0  0
 19 48  1  0  0  0  0
 20 49  1  0  0  0  0
 20 50  1  0  0  0  0
 21 51  1  0  0  0  0
 21 52  1  0  0  0  0
 22 53  1  0  0  0  0
 22 54  1  0  0  0  0
 23 55  1  0  0  0  0
 23 56  1  0  0  0  0
 24 57  1  0  0  0  0
 24 58  1  0  0  0  0
 25 59  1  0  0  0  0
 26 60  1  0  0  0  0
 27 61  1  0  0  0  0
 30 62  1  0  0  0  0
 31 63  1  0  0  0  0
M  END
> <compound>
EDJ-MED-ee07cf00-11

> <compound_smiles>
c1ccc2c(c1)cncc2NC(=O)C(c3cccc(c3)Cl)NC(=O)C4CCC(O4)C(=O)N5CCCC5

> <enantiomer_smiles>
c1ccc2c(c1)cncc2NC(=O)[C@H](c3cccc(c3)Cl)NC(=O)[C@H]4CC[C@H](O4)C(=O)N5CCCC5

> <scaffold>
chlorobenzene-linker

> <clash_score>
0.6141233759404353

> <docking_score>
-3.399636745452881

> <overlap_score>
0.8815414309501648

> <MMFF_internal_energy>
168.89271471757408

> <docked_smiles>
c1ccc2c(c1)cncc2NC(=O)[C@H](c3cccc(c3)Cl)NC(=O)[C@H]4CC[C@H](O4)C(=O)N5CCCC5

$$$$
EDJ-MED-ee07cf00-11_5
  -OEChem-07262101023D

 63 67  0     1  0  0  0  0  0999 V2000
    2.5650    1.0118   19.7905 C   0  0  0  0  0  0  0  0  0  0  0  0
    3.1657    0.4486   20.9139 C   0  0  0  0  0  0  0  0  0  0  0  0
   11.9780    0.4600   23.9150 C   0  0  0  0  0  0  0  0  0  0  0  0
    3.2959    1.1705   18.6133 C   0  0  0  0  0  0  0  0  0  0  0  0
    4.5001    0.0413   20.8653 C   0  0  0  0  0  0  0  0  0  0  0  0
   10.6560    0.0720   23.7350 C   0  0  0  0  0  0  0  0  0  0  0  0
   12.9840   -0.1200   23.1530 C   0  0  0  0  0  0  0  0  0  0  0  0
   11.3360   -1.5050   22.0650 C   0  0  0  0  0  0  0  0  0  0  0  0
    5.4171    0.8995   17.4014 C   0  0  0  0  0  0  0  0  0  0  0  0
    7.2639   -0.0211   18.4097 C   0  0  0  0  0  0  0  0  0  0  0  0
    4.6393    0.7642   18.5530 C   0  0  0  0  0  0  0  0  0  0  0  0
    5.2510    0.1935   19.6882 C   0  0  0  0  0  0  0  0  0  0  0  0
   10.3220   -0.8940   22.7910 C   0  0  0  0  0  0  0  0  0  0  0  0
    6.5904   -0.2048   19.6077 C   0  0  0  0  0  0  0  0  0  0  0  0
   12.6400   -1.1000   22.2390 C   0  0  0  0  0  0  0  0  0  0  0  0
    5.4338   -2.8064   28.2731 C   0  0  0  0  0  0  0  0  0  0  0  0
    7.7883   -1.9603   24.5501 C   0  0  0  0  0  0  0  0  0  0  0  0
    8.3880   -0.3240   21.3070 C   0  0  0  0  0  0  0  0  0  0  0  0
    2.4333   -4.8538   28.8445 C   0  0  0  0  0  0  0  0  0  0  0  0
    3.4321   -5.9194   28.4108 C   0  0  0  0  0  0  0  0  0  0  0  0
    7.8168   -2.2955   27.7004 C   0  0  0  0  0  0  0  0  0  0  0  0
    7.6584   -1.0387   26.8740 C   0  0  0  0  0  0  0  0  0  0  0  0
    3.3308   -3.6968   29.2554 C   0  0  0  0  0  0  0  0  0  0  0  0
    4.5151   -5.1084   27.7134 C   0  0  0  0  0  0  0  0  0  0  0  0
    6.5769   -3.0927   27.3522 C   0  0  2  0  0  0  0  0  0  0  0  0
    6.8892   -1.5210   25.6617 C   0  0  2  0  0  0  0  0  0  0  0  0
    8.8810   -1.1900   22.4510 C   0  0  1  0  0  0  0  0  0  0  0  0
    6.7116    0.5212   17.3036 N   0  0  0  0  0  0  0  0  0  0  0  0
    4.4978   -3.8173   28.3940 N   0  0  0  0  0  0  0  0  0  0  0  0
    7.2820   -0.7860   20.6970 N   0  0  0  0  0  0  0  0  0  0  0  0
    8.0374   -0.9810   23.6076 N   0  0  0  0  0  0  0  0  0  0  0  0
    5.3685   -1.7313   28.8712 O   0  0  0  0  0  0  0  0  0  0  0  0
    8.2279   -3.1041   24.5449 O   0  0  0  0  0  0  0  0  0  0  0  0
    8.9170    0.7530   21.0260 O   0  0  0  0  0  0  0  0  0  0  0  0
    6.1494   -2.6798   26.0524 O   0  0  0  0  0  0  0  0  0  0  0  0
   13.8840   -1.8490   21.2740 Cl  0  0  0  0  0  0  0  0  0  0  0  0
    1.5267    1.3276   19.8311 H   0  0  0  0  0  0  0  0  0  0  0  0
    2.5946    0.3257   21.8298 H   0  0  0  0  0  0  0  0  0  0  0  0
   12.2249    1.2198   24.6546 H   0  0  0  0  0  0  0  0  0  0  0  0
    2.8114    1.6119   17.7455 H   0  0  0  0  0  0  0  0  0  0  0  0
    4.9338   -0.3933   21.7630 H   0  0  0  0  0  0  0  0  0  0  0  0
    9.8763    0.5350   24.3454 H   0  0  0  0  0  0  0  0  0  0  0  0
   14.0077    0.1988   23.2842 H   0  0  0  0  0  0  0  0  0  0  0  0
   11.0892   -2.3008   21.3624 H   0  0  0  0  0  0  0  0  0  0  0  0
    5.0078    1.3308   16.4920 H   0  0  0  0  0  0  0  0  0  0  0  0
    8.3038   -0.3142   18.2963 H   0  0  0  0  0  0  0  0  0  0  0  0
    1.8003   -4.5620   27.9982 H   0  0  0  0  0  0  0  0  0  0  0  0
    1.7890   -5.1943   29.6598 H   0  0  0  0  0  0  0  0  0  0  0  0
    3.8458   -6.4289   29.2890 H   0  0  0  0  0  0  0  0  0  0  0  0
    2.9822   -6.6688   27.7537 H   0  0  0  0  0  0  0  0  0  0  0  0
    8.7026   -2.8445   27.3609 H   0  0  0  0  0  0  0  0  0  0  0  0
    7.9347   -2.0913   28.7682 H   0  0  0  0  0  0  0  0  0  0  0  0
    7.0512   -0.3139   27.4294 H   0  0  0  0  0  0  0  0  0  0  0  0
    8.6146   -0.5635   26.6354 H   0  0  0  0  0  0  0  0  0  0  0  0
    2.8553   -2.7189   29.1347 H   0  0  0  0  0  0  0  0  0  0  0  0
    3.6706   -3.7989   30.2920 H   0  0  0  0  0  0  0  0  0  0  0  0
    5.5007   -5.5769   27.7796 H   0  0  0  0  0  0  0  0  0  0  0  0
    4.2696   -4.9351   26.6601 H   0  0  0  0  0  0  0  0  0  0  0  0
    6.7554   -4.1710   27.3578 H   0  0  0  0  0  0  0  0  0  0  0  0
    6.2046   -0.7623   25.2711 H   0  0  0  0  0  0  0  0  0  0  0  0
    8.7711   -2.2448   22.1651 H   0  0  0  0  0  0  0  0  0  0  0  0
    6.8975   -1.6551   21.0614 H   0  0  0  0  0  0  0  0  0  0  0  0
    7.6087   -0.0689   23.7332 H   0  0  0  0  0  0  0  0  0  0  0  0
  1  2  1  0  0  0  0
  1  4  2  0  0  0  0
  2  5  2  0  0  0  0
  3  6  2  0  0  0  0
  3  7  1  0  0  0  0
  4 11  1  0  0  0  0
  5 12  1  0  0  0  0
  6 13  1  0  0  0  0
  7 15  2  0  0  0  0
  8 13  2  0  0  0  0
  8 15  1  0  0  0  0
  9 11  2  0  0  0  0
  9 28  1  0  0  0  0
 10 14  1  0  0  0  0
 10 28  2  0  0  0  0
 11 12  1  0  0  0  0
 12 14  2  0  0  0  0
 13 27  1  0  0  0  0
 14 30  1  0  0  0  0
 15 36  1  0  0  0  0
 16 25  1  6  0  0  0
 16 29  1  0  0  0  0
 16 32  2  0  0  0  0
 17 26  1  1  0  0  0
 17 31  1  0  0  0  0
 17 33  2  0  0  0  0
 18 27  1  1  0  0  0
 18 30  1  0  0  0  0
 18 34  2  0  0  0  0
 19 20  1  0  0  0  0
 19 23  1  0  0  0  0
 20 24  1  0  0  0  0
 21 22  1  0  0  0  0
 21 25  1  0  0  0  0
 22 26  1  0  0  0  0
 23 29  1  0  0  0  0
 24 29  1  0  0  0  0
 25 35  1  0  0  0  0
 26 35  1  0  0  0  0
 27 31  1  0  0  0  0
  1 37  1  0  0  0  0
  2 38  1  0  0  0  0
  3 39  1  0  0  0  0
  4 40  1  0  0  0  0
  5 41  1  0  0  0  0
  6 42  1  0  0  0  0
  7 43  1  0  0  0  0
  8 44  1  0  0  0  0
  9 45  1  0  0  0  0
 10 46  1  0  0  0  0
 19 47  1  0  0  0  0
 19 48  1  0  0  0  0
 20 49  1  0  0  0  0
 20 50  1  0  0  0  0
 21 51  1  0  0  0  0
 21 52  1  0  0  0  0
 22 53  1  0  0  0  0
 22 54  1  0  0  0  0
 23 55  1  0  0  0  0
 23 56  1  0  0  0  0
 24 57  1  0  0  0  0
 24 58  1  0  0  0  0
 25 59  1  0  0  0  0
 26 60  1  0  0  0  0
 27 61  1  0  0  0  0
 30 62  1  0  0  0  0
 31 63  1  0  0  0  0
M  END
> <compound>
EDJ-MED-ee07cf00-11

> <compound_smiles>
c1ccc2c(c1)cncc2NC(=O)C(c3cccc(c3)Cl)NC(=O)C4CCC(O4)C(=O)N5CCCC5

> <enantiomer_smiles>
c1ccc2c(c1)cncc2NC(=O)[C@@H](c3cccc(c3)Cl)NC(=O)[C@@H]4CC[C@H](O4)C(=O)N5CCCC5

> <scaffold>
chlorobenzene-linker

> <clash_score>
0

> <docking_score>
-3.794178009033203

> <overlap_score>
0.8810949921607971

> <MMFF_internal_energy>
167.4175056185719

> <docked_smiles>
c1ccc2c(c1)cncc2NC(=O)[C@@H](c3cccc(c3)Cl)NC(=O)[C@@H]4CC[C@H](O4)C(=O)N5CCCC5

$$$$
EDJ-MED-ee07cf00-15_1
  -OEChem-07262101023D

 56 60  0     1  0  0  0  0  0999 V2000
    3.4420    2.5357   20.0698 C   0  0  0  0  0  0  0  0  0  0  0  0
    4.0762    2.0251   21.2000 C   0  0  0  0  0  0  0  0  0  0  0  0
   11.9780    0.4600   23.9150 C   0  0  0  0  0  0  0  0  0  0  0  0
    3.8501    2.1333   18.7984 C   0  0  0  0  0  0  0  0  0  0  0  0
    5.1214    1.1099   21.0639 C   0  0  0  0  0  0  0  0  0  0  0  0
   10.6560    0.0720   23.7350 C   0  0  0  0  0  0  0  0  0  0  0  0
    4.4779   -1.8795   25.0456 C   0  0  0  0  0  0  0  0  0  0  0  0
    5.5496   -3.3852   26.6017 C   0  0  0  0  0  0  0  0  0  0  0  0
    3.2946   -2.6100   25.1537 C   0  0  0  0  0  0  0  0  0  0  0  0
    4.3663   -4.1157   26.7099 C   0  0  0  0  0  0  0  0  0  0  0  0
   12.9840   -0.1200   23.1530 C   0  0  0  0  0  0  0  0  0  0  0  0
   11.3360   -1.5050   22.0650 C   0  0  0  0  0  0  0  0  0  0  0  0
    5.3495    0.7759   17.4015 C   0  0  0  0  0  0  0  0  0  0  0  0
    6.9497   -0.5836   18.3322 C   0  0  0  0  0  0  0  0  0  0  0  0
    0.8830   -4.2217   25.4670 C   0  0  0  0  0  0  0  0  0  0  0  0
    4.9007    1.2128   18.6495 C   0  0  0  0  0  0  0  0  0  0  0  0
    5.5453    0.6936   19.7912 C   0  0  0  0  0  0  0  0  0  0  0  0
    5.6055   -2.2672   25.7696 C   0  0  0  0  0  0  0  0  0  0  0  0
   10.3220   -0.8940   22.7910 C   0  0  0  0  0  0  0  0  0  0  0  0
    3.2387   -3.7281   25.9859 C   0  0  0  0  0  0  0  0  0  0  0  0
    6.5899   -0.2225   19.6216 C   0  0  0  0  0  0  0  0  0  0  0  0
   12.6400   -1.1000   22.2390 C   0  0  0  0  0  0  0  0  0  0  0  0
    7.7953   -1.9726   24.5467 C   0  0  0  0  0  0  0  0  0  0  0  0
    8.3880   -0.3240   21.3070 C   0  0  0  0  0  0  0  0  0  0  0  0
    6.8829   -1.4786   25.6529 C   0  0  0  0  0  0  0  0  0  0  0  0
    8.8810   -1.1900   22.4510 C   0  0  1  0  0  0  0  0  0  0  0  0
    6.3562   -0.1077   17.2169 N   0  0  0  0  0  0  0  0  0  0  0  0
    0.0252   -5.1421   25.8430 N   0  0  0  0  0  0  0  0  0  0  0  0
    0.7099   -5.9510   26.7215 N   0  0  0  0  0  0  0  0  0  0  0  0
    1.9604   -5.5341   26.8783 N   0  0  0  0  0  0  0  0  0  0  0  0
    2.0661   -4.4529   26.0933 N   0  0  0  0  0  0  0  0  0  0  0  0
    7.2820   -0.7860   20.6970 N   0  0  0  0  0  0  0  0  0  0  0  0
    8.0352   -0.9804   23.6107 N   0  0  0  0  0  0  0  0  0  0  0  0
    8.2563   -3.1104   24.5055 O   0  0  0  0  0  0  0  0  0  0  0  0
    8.9170    0.7530   21.0260 O   0  0  0  0  0  0  0  0  0  0  0  0
   13.8840   -1.8490   21.2740 Cl  0  0  0  0  0  0  0  0  0  0  0  0
    2.6290    3.2475   20.1787 H   0  0  0  0  0  0  0  0  0  0  0  0
    3.7567    2.3397   22.1894 H   0  0  0  0  0  0  0  0  0  0  0  0
   12.2249    1.2198   24.6546 H   0  0  0  0  0  0  0  0  0  0  0  0
    3.3440    2.5417   17.9266 H   0  0  0  0  0  0  0  0  0  0  0  0
    5.5920    0.7345   21.9697 H   0  0  0  0  0  0  0  0  0  0  0  0
    9.8763    0.5350   24.3454 H   0  0  0  0  0  0  0  0  0  0  0  0
    4.5131   -1.0097   24.3951 H   0  0  0  0  0  0  0  0  0  0  0  0
    6.4232   -3.6947   27.1693 H   0  0  0  0  0  0  0  0  0  0  0  0
    2.4231   -2.2976   24.5834 H   0  0  0  0  0  0  0  0  0  0  0  0
    4.3373   -4.9852   27.3621 H   0  0  0  0  0  0  0  0  0  0  0  0
   14.0077    0.1988   23.2842 H   0  0  0  0  0  0  0  0  0  0  0  0
   11.0892   -2.3009   21.3624 H   0  0  0  0  0  0  0  0  0  0  0  0
    4.8966    1.1359   16.4818 H   0  0  0  0  0  0  0  0  0  0  0  0
    7.7531   -1.2911   18.1477 H   0  0  0  0  0  0  0  0  0  0  0  0
    0.7044   -3.4096   24.7767 H   0  0  0  0  0  0  0  0  0  0  0  0
    6.6475   -0.4221   25.4718 H   0  0  0  0  0  0  0  0  0  0  0  0
    7.4309   -1.5180   26.6029 H   0  0  0  0  0  0  0  0  0  0  0  0
    8.7711   -2.2448   22.1651 H   0  0  0  0  0  0  0  0  0  0  0  0
    6.8984   -1.6618   21.0676 H   0  0  0  0  0  0  0  0  0  0  0  0
    7.6038   -0.0725   23.7402 H   0  0  0  0  0  0  0  0  0  0  0  0
  1  2  1  0  0  0  0
  1  4  2  0  0  0  0
  2  5  2  0  0  0  0
  3  6  2  0  0  0  0
  3 11  1  0  0  0  0
  4 16  1  0  0  0  0
  5 17  1  0  0  0  0
  6 19  1  0  0  0  0
  7  9  2  0  0  0  0
  7 18  1  0  0  0  0
  8 10  1  0  0  0  0
  8 18  2  0  0  0  0
  9 20  1  0  0  0  0
 10 20  2  0  0  0  0
 11 22  2  0  0  0  0
 12 19  2  0  0  0  0
 12 22  1  0  0  0  0
 13 16  2  0  0  0  0
 13 27  1  0  0  0  0
 14 21  1  0  0  0  0
 14 27  2  0  0  0  0
 15 28  2  0  0  0  0
 15 31  1  0  0  0  0
 16 17  1  0  0  0  0
 17 21  2  0  0  0  0
 18 25  1  0  0  0  0
 19 26  1  0  0  0  0
 20 31  1  0  0  0  0
 21 32  1  0  0  0  0
 22 36  1  0  0  0  0
 23 25  1  0  0  0  0
 23 33  1  0  0  0  0
 23 34  2  0  0  0  0
 24 26  1  1  0  0  0
 24 32  1  0  0  0  0
 24 35  2  0  0  0  0
 26 33  1  0  0  0  0
 28 29  1  0  0  0  0
 29 30  2  0  0  0  0
 30 31  1  0  0  0  0
  1 37  1  0  0  0  0
  2 38  1  0  0  0  0
  3 39  1  0  0  0  0
  4 40  1  0  0  0  0
  5 41  1  0  0  0  0
  6 42  1  0  0  0  0
  7 43  1  0  0  0  0
  8 44  1  0  0  0  0
  9 45  1  0  0  0  0
 10 46  1  0  0  0  0
 11 47  1  0  0  0  0
 12 48  1  0  0  0  0
 13 49  1  0  0  0  0
 14 50  1  0  0  0  0
 15 51  1  0  0  0  0
 25 52  1  0  0  0  0
 25 53  1  0  0  0  0
 26 54  1  0  0  0  0
 32 55  1  0  0  0  0
 33 56  1  0  0  0  0
M  END
> <compound>
EDJ-MED-ee07cf00-15

> <compound_smiles>
c1ccc2c(c1)cncc2NC(=O)C(c3cccc(c3)Cl)NC(=O)Cc4ccc(cc4)n5cnnn5

> <enantiomer_smiles>
c1ccc2c(c1)cncc2NC(=O)[C@@H](c3cccc(c3)Cl)NC(=O)Cc4ccc(cc4)n5cnnn5

> <scaffold>
chlorobenzene-linker

> <canonical_CID>
EDJ-MED-ee07cf00-15

> <r_inhibition_at_20_uM>

> <r_inhibition_at_50_uM>

> <r_avg_IC50>

> <f_inhibition_at_20_uM>

> <f_inhibition_at_50_uM>

> <f_avg_IC50>
10.2511787022772

> <f_avg_pIC50>

> <relative_solubility_at_20_uM>

> <relative_solubility_at_100_uM>

> <trypsin_IC50>

> <NMR_std_ratio>

> <acrylamide>
False

> <chloroacetamide>
False

> <series>
Ugi

> <frag_id>

> <clash_score>
0

> <docking_score>
-7.913904190063477

> <overlap_score>
0.963557779788971

> <MMFF_internal_energy>
166.92686159743454

> <docked_smiles>
c1ccc2c(c1)cncc2NC(=O)[C@@H](c3cccc(c3)Cl)NC(=O)Cc4ccc(cc4)n5cnnn5

$$$$
EDJ-MED-ee07cf00-16_2
  -OEChem-07262101023D

 51 54  0     1  0  0  0  0  0999 V2000
    4.8610    3.6140   19.7216 C   0  0  0  0  0  0  0  0  0  0  0  0
    5.5339    3.1326   20.8422 C   0  0  0  0  0  0  0  0  0  0  0  0
   11.9780    0.4600   23.9150 C   0  0  0  0  0  0  0  0  0  0  0  0
    4.7625    2.8268   18.5745 C   0  0  0  0  0  0  0  0  0  0  0  0
    6.1113    1.8618   20.8208 C   0  0  0  0  0  0  0  0  0  0  0  0
   10.6560    0.0720   23.7350 C   0  0  0  0  0  0  0  0  0  0  0  0
   12.9840   -0.1200   23.1530 C   0  0  0  0  0  0  0  0  0  0  0  0
   11.3360   -1.5050   22.0650 C   0  0  0  0  0  0  0  0  0  0  0  0
    5.2714    0.7168   17.4209 C   0  0  0  0  0  0  0  0  0  0  0  0
    6.4583   -0.9568   18.4529 C   0  0  0  0  0  0  0  0  0  0  0  0
    5.3397    1.5465   18.5418 C   0  0  0  0  0  0  0  0  0  0  0  0
    6.0217    1.0556   19.6743 C   0  0  0  0  0  0  0  0  0  0  0  0
   10.3220   -0.8940   22.7910 C   0  0  0  0  0  0  0  0  0  0  0  0
    6.5899   -0.2225   19.6216 C   0  0  0  0  0  0  0  0  0  0  0  0
   12.6400   -1.1000   22.2390 C   0  0  0  0  0  0  0  0  0  0  0  0
    6.9444   -6.5119   23.5492 C   0  0  0  0  0  0  0  0  0  0  0  0
    5.7899   -7.0994   23.8729 C   0  0  0  0  0  0  0  0  0  0  0  0
    4.5344   -6.6566   23.2243 C   0  0  0  0  0  0  0  0  0  0  0  0
    5.9047   -5.0001   21.9540 C   0  0  0  0  0  0  0  0  0  0  0  0
    8.4768   -3.5851   23.0219 C   0  0  0  0  0  0  0  0  0  0  0  0
    8.3880   -0.3240   21.3070 C   0  0  0  0  0  0  0  0  0  0  0  0
    8.3551   -4.9322   22.3566 C   0  0  0  0  0  0  0  0  0  0  0  0
    8.8810   -1.1900   22.4510 C   0  0  2  0  0  0  0  0  0  0  0  0
    5.8133   -0.5200   17.3502 N   0  0  0  0  0  0  0  0  0  0  0  0
    4.7032   -5.6288   22.3062 N   0  0  0  0  0  0  0  0  0  0  0  0
    7.0244   -5.4967   22.6254 N   0  0  0  0  0  0  0  0  0  0  0  0
    7.2820   -0.7860   20.6970 N   0  0  0  0  0  0  0  0  0  0  0  0
    8.7217   -2.5865   22.0933 N   0  0  0  0  0  0  0  0  0  0  0  0
    3.4471   -7.1630   23.4857 O   0  0  0  0  0  0  0  0  0  0  0  0
    5.9271   -4.0924   21.1199 O   0  0  0  0  0  0  0  0  0  0  0  0
    8.3666   -3.4174   24.2336 O   0  0  0  0  0  0  0  0  0  0  0  0
    8.9170    0.7530   21.0260 O   0  0  0  0  0  0  0  0  0  0  0  0
   13.8840   -1.8490   21.2740 Cl  0  0  0  0  0  0  0  0  0  0  0  0
    5.7061   -8.3668   25.0285 Cl  0  0  0  0  0  0  0  0  0  0  0  0
    4.4125    4.6029   19.7411 H   0  0  0  0  0  0  0  0  0  0  0  0
    5.6092    3.7472   21.7347 H   0  0  0  0  0  0  0  0  0  0  0  0
   12.2249    1.2198   24.6546 H   0  0  0  0  0  0  0  0  0  0  0  0
    4.2335    3.2180   17.7085 H   0  0  0  0  0  0  0  0  0  0  0  0
    6.6287    1.5216   21.7149 H   0  0  0  0  0  0  0  0  0  0  0  0
    9.8763    0.5350   24.3454 H   0  0  0  0  0  0  0  0  0  0  0  0
   14.0077    0.1988   23.2842 H   0  0  0  0  0  0  0  0  0  0  0  0
   11.0892   -2.3009   21.3624 H   0  0  0  0  0  0  0  0  0  0  0  0
    4.7608    1.0333   16.5155 H   0  0  0  0  0  0  0  0  0  0  0  0
    6.8806   -1.9536   18.3621 H   0  0  0  0  0  0  0  0  0  0  0  0
    7.8804   -6.8154   24.0080 H   0  0  0  0  0  0  0  0  0  0  0  0
    8.4884   -4.8230   21.2762 H   0  0  0  0  0  0  0  0  0  0  0  0
    9.1187   -5.6100   22.7491 H   0  0  0  0  0  0  0  0  0  0  0  0
    8.2436   -1.0112   23.3272 H   0  0  0  0  0  0  0  0  0  0  0  0
    3.8642   -5.2965   21.8390 H   0  0  0  0  0  0  0  0  0  0  0  0
    6.8984   -1.6618   21.0676 H   0  0  0  0  0  0  0  0  0  0  0  0
    8.7939   -2.8440   21.1151 H   0  0  0  0  0  0  0  0  0  0  0  0
  1  2  1  0  0  0  0
  1  4  2  0  0  0  0
  2  5  2  0  0  0  0
  3  6  2  0  0  0  0
  3  7  1  0  0  0  0
  4 11  1  0  0  0  0
  5 12  1  0  0  0  0
  6 13  1  0  0  0  0
  7 15  2  0  0  0  0
  8 13  2  0  0  0  0
  8 15  1  0  0  0  0
  9 11  2  0  0  0  0
  9 24  1  0  0  0  0
 10 14  1  0  0  0  0
 10 24  2  0  0  0  0
 11 12  1  0  0  0  0
 12 14  2  0  0  0  0
 13 23  1  0  0  0  0
 14 27  1  0  0  0  0
 15 33  1  0  0  0  0
 16 17  2  0  0  0  0
 16 26  1  0  0  0  0
 17 18  1  0  0  0  0
 17 34  1  0  0  0  0
 18 25  1  0  0  0  0
 18 29  2  0  0  0  0
 19 25  1  0  0  0  0
 19 26  1  0  0  0  0
 19 30  2  0  0  0  0
 20 22  1  0  0  0  0
 20 28  1  0  0  0  0
 20 31  2  0  0  0  0
 21 23  1  6  0  0  0
 21 27  1  0  0  0  0
 21 32  2  0  0  0  0
 22 26  1  0  0  0  0
 23 28  1  0  0  0  0
  1 35  1  0  0  0  0
  2 36  1  0  0  0  0
  3 37  1  0  0  0  0
  4 38  1  0  0  0  0
  5 39  1  0  0  0  0
  6 40  1  0  0  0  0
  7 41  1  0  0  0  0
  8 42  1  0  0  0  0
  9 43  1  0  0  0  0
 10 44  1  0  0  0  0
 16 45  1  0  0  0  0
 22 46  1  0  0  0  0
 22 47  1  0  0  0  0
 23 48  1  0  0  0  0
 25 49  1  0  0  0  0
 27 50  1  0  0  0  0
 28 51  1  0  0  0  0
M  END
> <compound>
EDJ-MED-ee07cf00-16

> <compound_smiles>
c1ccc2c(c1)cncc2NC(=O)C(c3cccc(c3)Cl)NC(=O)Cn4cc(c(=O)[nH]c4=O)Cl

> <enantiomer_smiles>
c1ccc2c(c1)cncc2NC(=O)[C@H](c3cccc(c3)Cl)NC(=O)Cn4cc(c(=O)[nH]c4=O)Cl

> <scaffold>
chlorobenzene-linker

> <canonical_CID>
EDJ-MED-ee07cf00-16

> <r_inhibition_at_20_uM>

> <r_inhibition_at_50_uM>

> <r_avg_IC50>

> <f_inhibition_at_20_uM>

> <f_inhibition_at_50_uM>

> <f_avg_IC50>
9.33416719234576

> <f_avg_pIC50>

> <relative_solubility_at_20_uM>

> <relative_solubility_at_100_uM>

> <trypsin_IC50>

> <NMR_std_ratio>

> <acrylamide>
False

> <chloroacetamide>
False

> <series>
Ugi

> <frag_id>

> <clash_score>
0.6446430523485226

> <docking_score>
-1.950864315032959

> <overlap_score>
0.8323755860328674

> <MMFF_internal_energy>
68.43701635325408

> <docked_smiles>
c1ccc2c(c1)cncc2NC(=O)[C@H](c3cccc(c3)Cl)NC(=O)Cn4cc(c(=O)[nH]c4=O)Cl

$$$$
EDJ-MED-ee07cf00-14_2
  -OEChem-07262101023D

 57 61  0     1  0  0  0  0  0999 V2000
    4.8854    3.6419   19.7205 C   0  0  0  0  0  0  0  0  0  0  0  0
    5.5494    3.1500   20.8419 C   0  0  0  0  0  0  0  0  0  0  0  0
   11.9780    0.4600   23.9150 C   0  0  0  0  0  0  0  0  0  0  0  0
    4.7878    2.8619   18.5685 C   0  0  0  0  0  0  0  0  0  0  0  0
    6.1189    1.8757   20.8162 C   0  0  0  0  0  0  0  0  0  0  0  0
   10.6560    0.0720   23.7350 C   0  0  0  0  0  0  0  0  0  0  0  0
   12.9840   -0.1200   23.1530 C   0  0  0  0  0  0  0  0  0  0  0  0
   11.3360   -1.5050   22.0650 C   0  0  0  0  0  0  0  0  0  0  0  0
    5.2893    0.7552   17.4056 C   0  0  0  0  0  0  0  0  0  0  0  0
    6.4602   -0.9317   18.4342 C   0  0  0  0  0  0  0  0  0  0  0  0
    5.3570    1.5782   18.5316 C   0  0  0  0  0  0  0  0  0  0  0  0
    6.0301    1.0765   19.6647 C   0  0  0  0  0  0  0  0  0  0  0  0
   10.3220   -0.8940   22.7910 C   0  0  0  0  0  0  0  0  0  0  0  0
    6.5904   -0.2048   19.6077 C   0  0  0  0  0  0  0  0  0  0  0  0
   12.6400   -1.1000   22.2390 C   0  0  0  0  0  0  0  0  0  0  0  0
    4.5866   -5.6555   22.3149 C   0  0  0  0  0  0  0  0  0  0  0  0
    5.9069   -5.0133   21.9764 C   0  0  0  0  0  0  0  0  0  0  0  0
    5.8721   -7.0007   23.8361 C   0  0  0  0  0  0  0  0  0  0  0  0
    8.4768   -3.5817   23.0255 C   0  0  0  0  0  0  0  0  0  0  0  0
    8.3880   -0.3240   21.3070 C   0  0  0  0  0  0  0  0  0  0  0  0
    5.6328   -8.1166   24.8064 C   0  0  0  0  0  0  0  0  0  0  0  0
    4.1301   -8.0176   25.0606 C   0  0  0  0  0  0  0  0  0  0  0  0
    3.5728   -7.4114   23.7836 C   0  0  0  0  0  0  0  0  0  0  0  0
    8.3543   -4.9311   22.3650 C   0  0  0  0  0  0  0  0  0  0  0  0
    8.8810   -1.1900   22.4510 C   0  0  2  0  0  0  0  0  0  0  0  0
    5.8238   -0.4845   17.3308 N   0  0  0  0  0  0  0  0  0  0  0  0
    7.0219   -6.4927   23.5623 N   0  0  0  0  0  0  0  0  0  0  0  0
    4.6734   -6.6285   23.2702 N   0  0  0  0  0  0  0  0  0  0  0  0
    7.0396   -5.4874   22.6333 N   0  0  0  0  0  0  0  0  0  0  0  0
    7.2820   -0.7860   20.6970 N   0  0  0  0  0  0  0  0  0  0  0  0
    8.7221   -2.5828   22.0943 N   0  0  0  0  0  0  0  0  0  0  0  0
    3.5832   -5.2747   21.7304 O   0  0  0  0  0  0  0  0  0  0  0  0
    5.8757   -4.1168   21.1400 O   0  0  0  0  0  0  0  0  0  0  0  0
    8.3674   -3.4097   24.2367 O   0  0  0  0  0  0  0  0  0  0  0  0
    8.9170    0.7530   21.0260 O   0  0  0  0  0  0  0  0  0  0  0  0
   13.8840   -1.8490   21.2740 Cl  0  0  0  0  0  0  0  0  0  0  0  0
    4.4431    4.6335   19.7433 H   0  0  0  0  0  0  0  0  0  0  0  0
    5.6240    3.7591   21.7382 H   0  0  0  0  0  0  0  0  0  0  0  0
   12.2249    1.2198   24.6546 H   0  0  0  0  0  0  0  0  0  0  0  0
    4.2658    3.2613   17.7021 H   0  0  0  0  0  0  0  0  0  0  0  0
    6.6295    1.5271   21.7110 H   0  0  0  0  0  0  0  0  0  0  0  0
    9.8763    0.5350   24.3454 H   0  0  0  0  0  0  0  0  0  0  0  0
   14.0077    0.1988   23.2842 H   0  0  0  0  0  0  0  0  0  0  0  0
   11.0892   -2.3009   21.3624 H   0  0  0  0  0  0  0  0  0  0  0  0
    4.7855    1.0801   16.4994 H   0  0  0  0  0  0  0  0  0  0  0  0
    6.8767   -1.9306   18.3399 H   0  0  0  0  0  0  0  0  0  0  0  0
    5.8980   -9.0639   24.3261 H   0  0  0  0  0  0  0  0  0  0  0  0
    6.2233   -7.9922   25.7172 H   0  0  0  0  0  0  0  0  0  0  0  0
    3.6852   -8.9888   25.2951 H   0  0  0  0  0  0  0  0  0  0  0  0
    3.9427   -7.3435   25.9052 H   0  0  0  0  0  0  0  0  0  0  0  0
    3.3308   -8.1797   23.0411 H   0  0  0  0  0  0  0  0  0  0  0  0
    2.6898   -6.7867   23.9467 H   0  0  0  0  0  0  0  0  0  0  0  0
    8.4871   -4.8258   21.2842 H   0  0  0  0  0  0  0  0  0  0  0  0
    9.1179   -5.6079   22.7595 H   0  0  0  0  0  0  0  0  0  0  0  0
    8.2436   -1.0112   23.3272 H   0  0  0  0  0  0  0  0  0  0  0  0
    6.8975   -1.6551   21.0614 H   0  0  0  0  0  0  0  0  0  0  0  0
    8.7923   -2.8427   21.1148 H   0  0  0  0  0  0  0  0  0  0  0  0
  1  2  1  0  0  0  0
  1  4  2  0  0  0  0
  2  5  2  0  0  0  0
  3  6  2  0  0  0  0
  3  7  1  0  0  0  0
  4 11  1  0  0  0  0
  5 12  1  0  0  0  0
  6 13  1  0  0  0  0
  7 15  2  0  0  0  0
  8 13  2  0  0  0  0
  8 15  1  0  0  0  0
  9 11  2  0  0  0  0
  9 26  1  0  0  0  0
 10 14  1  0  0  0  0
 10 26  2  0  0  0  0
 11 12  1  0  0  0  0
 12 14  2  0  0  0  0
 13 25  1  0  0  0  0
 14 30  1  0  0  0  0
 15 36  1  0  0  0  0
 16 17  1  0  0  0  0
 16 28  1  0  0  0  0
 16 32  2  0  0  0  0
 17 29  1  0  0  0  0
 17 33  2  0  0  0  0
 18 21  1  0  0  0  0
 18 27  2  0  0  0  0
 18 28  1  0  0  0  0
 19 24  1  0  0  0  0
 19 31  1  0  0  0  0
 19 34  2  0  0  0  0
 20 25  1  6  0  0  0
 20 30  1  0  0  0  0
 20 35  2  0  0  0  0
 21 22  1  0  0  0  0
 22 23  1  0  0  0  0
 23 28  1  0  0  0  0
 24 29  1  0  0  0  0
 25 31  1  0  0  0  0
 27 29  1  0  0  0  0
  1 37  1  0  0  0  0
  2 38  1  0  0  0  0
  3 39  1  0  0  0  0
  4 40  1  0  0  0  0
  5 41  1  0  0  0  0
  6 42  1  0  0  0  0
  7 43  1  0  0  0  0
  8 44  1  0  0  0  0
  9 45  1  0  0  0  0
 10 46  1  0  0  0  0
 21 47  1  0  0  0  0
 21 48  1  0  0  0  0
 22 49  1  0  0  0  0
 22 50  1  0  0  0  0
 23 51  1  0  0  0  0
 23 52  1  0  0  0  0
 24 53  1  0  0  0  0
 24 54  1  0  0  0  0
 25 55  1  0  0  0  0
 30 56  1  0  0  0  0
 31 57  1  0  0  0  0
M  END
> <compound>
EDJ-MED-ee07cf00-14

> <compound_smiles>
c1ccc2c(c1)cncc2NC(=O)C(c3cccc(c3)Cl)NC(=O)Cn4c(=O)c(=O)n5c(n4)CCC5

> <enantiomer_smiles>
c1ccc2c(c1)cncc2NC(=O)[C@H](c3cccc(c3)Cl)NC(=O)Cn4c(=O)c(=O)n5c(n4)CCC5

> <scaffold>
chlorobenzene-linker

> <canonical_CID>
EDJ-MED-ee07cf00-14

> <r_inhibition_at_20_uM>

> <r_inhibition_at_50_uM>

> <r_avg_IC50>

> <f_inhibition_at_20_uM>

> <f_inhibition_at_50_uM>

> <f_avg_IC50>
2.75766675794508

> <f_avg_pIC50>

> <relative_solubility_at_20_uM>

> <relative_solubility_at_100_uM>

> <trypsin_IC50>

> <NMR_std_ratio>

> <acrylamide>
False

> <chloroacetamide>
False

> <series>
Ugi

> <frag_id>

> <clash_score>
0.6530413784719208

> <docking_score>
-0.8782265186309814

> <overlap_score>
0.825244665145874

> <MMFF_internal_energy>
182.31622135933256

> <docked_smiles>
c1ccc2c(c1)cncc2NC(=O)[C@H](c3cccc(c3)Cl)NC(=O)Cn4c(=O)c(=O)n5c(n4)CCC5

$$$$
EDJ-MED-ee07cf00-17_1
  -OEChem-07262101023D

 53 57  0     1  0  0  0  0  0999 V2000
    2.5578    0.9697   19.8184 C   0  0  0  0  0  0  0  0  0  0  0  0
    3.1679    0.4166   20.9418 C   0  0  0  0  0  0  0  0  0  0  0  0
   11.9780    0.4600   23.9150 C   0  0  0  0  0  0  0  0  0  0  0  0
    3.2816    1.1263   18.6365 C   0  0  0  0  0  0  0  0  0  0  0  0
    4.5045    0.0176   20.8886 C   0  0  0  0  0  0  0  0  0  0  0  0
   10.6560    0.0720   23.7350 C   0  0  0  0  0  0  0  0  0  0  0  0
   12.9840   -0.1200   23.1530 C   0  0  0  0  0  0  0  0  0  0  0  0
    5.8210   -5.6478   28.2534 C   0  0  0  0  0  0  0  0  0  0  0  0
   11.3360   -1.5050   22.0650 C   0  0  0  0  0  0  0  0  0  0  0  0
    4.5204   -6.1987   28.2309 C   0  0  0  0  0  0  0  0  0  0  0  0
    5.3983    0.8618   17.4152 C   0  0  0  0  0  0  0  0  0  0  0  0
    7.2560   -0.0413   18.4191 C   0  0  0  0  0  0  0  0  0  0  0  0
    4.6272    0.7281   18.5715 C   0  0  0  0  0  0  0  0  0  0  0  0
    5.2484    0.1678   19.7068 C   0  0  0  0  0  0  0  0  0  0  0  0
   10.3220   -0.8940   22.7910 C   0  0  0  0  0  0  0  0  0  0  0  0
    6.5899   -0.2225   19.6216 C   0  0  0  0  0  0  0  0  0  0  0  0
   12.6400   -1.1000   22.2390 C   0  0  0  0  0  0  0  0  0  0  0  0
    5.7312   -4.5392   27.4461 C   0  0  0  0  0  0  0  0  0  0  0  0
    3.9783   -3.5180   26.1755 C   0  0  0  0  0  0  0  0  0  0  0  0
    6.6598   -3.5279   27.0289 C   0  0  0  0  0  0  0  0  0  0  0  0
    7.7885   -1.9656   24.5529 C   0  0  0  0  0  0  0  0  0  0  0  0
    8.3880   -0.3240   21.3070 C   0  0  0  0  0  0  0  0  0  0  0  0
    6.8795   -1.4621   25.6449 C   0  0  0  0  0  0  0  0  0  0  0  0
    8.8810   -1.1900   22.4510 C   0  0  1  0  0  0  0  0  0  0  0  0
    6.6946    0.4912   17.3129 N   0  0  0  0  0  0  0  0  0  0  0  0
    3.6725   -5.4962   27.4698 N   0  0  0  0  0  0  0  0  0  0  0  0
    4.7675   -2.5763   25.7620 N   0  0  0  0  0  0  0  0  0  0  0  0
    4.4456   -4.5010   27.0138 N   0  0  0  0  0  0  0  0  0  0  0  0
    6.0844   -2.5778   26.1784 N   0  0  0  0  0  0  0  0  0  0  0  0
    7.2820   -0.7860   20.6970 N   0  0  0  0  0  0  0  0  0  0  0  0
    8.0352   -0.9804   23.6107 N   0  0  0  0  0  0  0  0  0  0  0  0
    7.8336   -3.5175   27.3935 O   0  0  0  0  0  0  0  0  0  0  0  0
    8.2425   -3.1063   24.5240 O   0  0  0  0  0  0  0  0  0  0  0  0
    8.9170    0.7530   21.0260 O   0  0  0  0  0  0  0  0  0  0  0  0
   13.8840   -1.8490   21.2740 Cl  0  0  0  0  0  0  0  0  0  0  0  0
    1.5177    1.2791   19.8625 H   0  0  0  0  0  0  0  0  0  0  0  0
    2.6022    0.2953   21.8613 H   0  0  0  0  0  0  0  0  0  0  0  0
   12.2249    1.2198   24.6546 H   0  0  0  0  0  0  0  0  0  0  0  0
    2.7899    1.5598   17.7687 H   0  0  0  0  0  0  0  0  0  0  0  0
    4.9456   -0.4092   21.7864 H   0  0  0  0  0  0  0  0  0  0  0  0
    9.8763    0.5350   24.3454 H   0  0  0  0  0  0  0  0  0  0  0  0
   14.0077    0.1988   23.2842 H   0  0  0  0  0  0  0  0  0  0  0  0
    6.6920   -6.0077   28.7811 H   0  0  0  0  0  0  0  0  0  0  0  0
   11.0892   -2.3009   21.3624 H   0  0  0  0  0  0  0  0  0  0  0  0
    4.1576   -7.0815   28.7374 H   0  0  0  0  0  0  0  0  0  0  0  0
    4.9815    1.2854   16.5055 H   0  0  0  0  0  0  0  0  0  0  0  0
    8.2971   -0.3285   18.3019 H   0  0  0  0  0  0  0  0  0  0  0  0
    2.9230   -3.5432   25.8605 H   0  0  0  0  0  0  0  0  0  0  0  0
    7.4779   -1.0282   26.4516 H   0  0  0  0  0  0  0  0  0  0  0  0
    6.2051   -0.6998   25.2440 H   0  0  0  0  0  0  0  0  0  0  0  0
    8.7711   -2.2448   22.1651 H   0  0  0  0  0  0  0  0  0  0  0  0
    6.8984   -1.6618   21.0676 H   0  0  0  0  0  0  0  0  0  0  0  0
    7.6043   -0.0713   23.7384 H   0  0  0  0  0  0  0  0  0  0  0  0
  1  2  1  0  0  0  0
  1  4  2  0  0  0  0
  2  5  2  0  0  0  0
  3  6  2  0  0  0  0
  3  7  1  0  0  0  0
  4 13  1  0  0  0  0
  5 14  1  0  0  0  0
  6 15  1  0  0  0  0
  7 17  2  0  0  0  0
  8 10  1  0  0  0  0
  8 18  2  0  0  0  0
  9 15  2  0  0  0  0
  9 17  1  0  0  0  0
 10 26  2  0  0  0  0
 11 13  2  0  0  0  0
 11 25  1  0  0  0  0
 12 16  1  0  0  0  0
 12 25  2  0  0  0  0
 13 14  1  0  0  0  0
 14 16  2  0  0  0  0
 15 24  1  0  0  0  0
 16 30  1  0  0  0  0
 17 35  1  0  0  0  0
 18 20  1  0  0  0  0
 18 28  1  0  0  0  0
 19 27  2  0  0  0  0
 19 28  1  0  0  0  0
 20 29  1  0  0  0  0
 20 32  2  0  0  0  0
 21 23  1  0  0  0  0
 21 31  1  0  0  0  0
 21 33  2  0  0  0  0
 22 24  1  1  0  0  0
 22 30  1  0  0  0  0
 22 34  2  0  0  0  0
 23 29  1  0  0  0  0
 24 31  1  0  0  0  0
 26 28  1  0  0  0  0
 27 29  1  0  0  0  0
  1 36  1  0  0  0  0
  2 37  1  0  0  0  0
  3 38  1  0  0  0  0
  4 39  1  0  0  0  0
  5 40  1  0  0  0  0
  6 41  1  0  0  0  0
  7 42  1  0  0  0  0
  8 43  1  0  0  0  0
  9 44  1  0  0  0  0
 10 45  1  0  0  0  0
 11 46  1  0  0  0  0
 12 47  1  0  0  0  0
 19 48  1  0  0  0  0
 23 49  1  0  0  0  0
 23 50  1  0  0  0  0
 24 51  1  0  0  0  0
 30 52  1  0  0  0  0
 31 53  1  0  0  0  0
M  END
> <compound>
EDJ-MED-ee07cf00-17

> <compound_smiles>
c1ccc2c(c1)cncc2NC(=O)C(c3cccc(c3)Cl)NC(=O)Cn4c(=O)c5ccnn5cn4

> <enantiomer_smiles>
c1ccc2c(c1)cncc2NC(=O)[C@@H](c3cccc(c3)Cl)NC(=O)Cn4c(=O)c5ccnn5cn4

> <scaffold>
chlorobenzene-linker

> <canonical_CID>
EDJ-MED-ee07cf00-17

> <r_inhibition_at_20_uM>

> <r_inhibition_at_50_uM>

> <r_avg_IC50>

> <f_inhibition_at_20_uM>

> <f_inhibition_at_50_uM>

> <f_avg_IC50>
19.5151842841623

> <f_avg_pIC50>

> <relative_solubility_at_20_uM>

> <relative_solubility_at_100_uM>

> <trypsin_IC50>

> <NMR_std_ratio>

> <acrylamide>
False

> <chloroacetamide>
False

> <series>
Ugi

> <frag_id>

> <clash_score>
0.6126632501718468

> <docking_score>
-4.409595966339111

> <overlap_score>
0.8785374760627747

> <MMFF_internal_energy>
184.6502025905751

> <docked_smiles>
c1ccc2c(c1)cncc2NC(=O)[C@@H](c3cccc(c3)Cl)NC(=O)Cn4c(=O)c5ccnn5cn4

$$$$
EDJ-MED-ee07cf00-17_2
  -OEChem-07262101023D

 53 57  0     1  0  0  0  0  0999 V2000
    2.5578    0.9697   19.8184 C   0  0  0  0  0  0  0  0  0  0  0  0
    3.1679    0.4166   20.9418 C   0  0  0  0  0  0  0  0  0  0  0  0
   11.9780    0.4600   23.9150 C   0  0  0  0  0  0  0  0  0  0  0  0
    3.2816    1.1263   18.6365 C   0  0  0  0  0  0  0  0  0  0  0  0
    4.5045    0.0176   20.8886 C   0  0  0  0  0  0  0  0  0  0  0  0
   10.6560    0.0720   23.7350 C   0  0  0  0  0  0  0  0  0  0  0  0
   12.9840   -0.1200   23.1530 C   0  0  0  0  0  0  0  0  0  0  0  0
    3.7612   -6.7856   21.4046 C   0  0  0  0  0  0  0  0  0  0  0  0
   11.3360   -1.5050   22.0650 C   0  0  0  0  0  0  0  0  0  0  0  0
    2.9162   -7.1896   22.4621 C   0  0  0  0  0  0  0  0  0  0  0  0
    5.3983    0.8618   17.4152 C   0  0  0  0  0  0  0  0  0  0  0  0
    7.2560   -0.0413   18.4191 C   0  0  0  0  0  0  0  0  0  0  0  0
    4.6272    0.7281   18.5715 C   0  0  0  0  0  0  0  0  0  0  0  0
    5.2484    0.1678   19.7068 C   0  0  0  0  0  0  0  0  0  0  0  0
   10.3220   -0.8940   22.7910 C   0  0  0  0  0  0  0  0  0  0  0  0
    6.5899   -0.2225   19.6216 C   0  0  0  0  0  0  0  0  0  0  0  0
   12.6400   -1.1000   22.2390 C   0  0  0  0  0  0  0  0  0  0  0  0
    4.9013   -6.3459   22.0336 C   0  0  0  0  0  0  0  0  0  0  0  0
    5.6057   -6.1702   24.3146 C   0  0  0  0  0  0  0  0  0  0  0  0
    6.1503   -5.8063   21.5779 C   0  0  0  0  0  0  0  0  0  0  0  0
    8.4768   -3.5851   23.0219 C   0  0  0  0  0  0  0  0  0  0  0  0
    8.3880   -0.3240   21.3070 C   0  0  0  0  0  0  0  0  0  0  0  0
    8.3551   -4.9322   22.3566 C   0  0  0  0  0  0  0  0  0  0  0  0
    8.8810   -1.1900   22.4510 C   0  0  2  0  0  0  0  0  0  0  0  0
    6.6946    0.4912   17.3129 N   0  0  0  0  0  0  0  0  0  0  0  0
    3.4749   -7.0196   23.6665 N   0  0  0  0  0  0  0  0  0  0  0  0
    6.7534   -5.6771   23.9676 N   0  0  0  0  0  0  0  0  0  0  0  0
    4.6751   -6.5070   23.3618 N   0  0  0  0  0  0  0  0  0  0  0  0
    7.0244   -5.4967   22.6254 N   0  0  0  0  0  0  0  0  0  0  0  0
    7.2820   -0.7860   20.6970 N   0  0  0  0  0  0  0  0  0  0  0  0
    8.7217   -2.5865   22.0933 N   0  0  0  0  0  0  0  0  0  0  0  0
    6.4039   -5.6422   20.3864 O   0  0  0  0  0  0  0  0  0  0  0  0
    8.3666   -3.4174   24.2336 O   0  0  0  0  0  0  0  0  0  0  0  0
    8.9170    0.7530   21.0260 O   0  0  0  0  0  0  0  0  0  0  0  0
   13.8840   -1.8490   21.2740 Cl  0  0  0  0  0  0  0  0  0  0  0  0
    1.5177    1.2791   19.8625 H   0  0  0  0  0  0  0  0  0  0  0  0
    2.6022    0.2953   21.8613 H   0  0  0  0  0  0  0  0  0  0  0  0
   12.2249    1.2198   24.6546 H   0  0  0  0  0  0  0  0  0  0  0  0
    2.7899    1.5597   17.7688 H   0  0  0  0  0  0  0  0  0  0  0  0
    4.9456   -0.4092   21.7864 H   0  0  0  0  0  0  0  0  0  0  0  0
    9.8763    0.5350   24.3454 H   0  0  0  0  0  0  0  0  0  0  0  0
   14.0077    0.1988   23.2842 H   0  0  0  0  0  0  0  0  0  0  0  0
    3.5653   -6.8127   20.3427 H   0  0  0  0  0  0  0  0  0  0  0  0
   11.0892   -2.3009   21.3624 H   0  0  0  0  0  0  0  0  0  0  0  0
    1.9183   -7.5999   22.4033 H   0  0  0  0  0  0  0  0  0  0  0  0
    4.9815    1.2854   16.5055 H   0  0  0  0  0  0  0  0  0  0  0  0
    8.2971   -0.3285   18.3019 H   0  0  0  0  0  0  0  0  0  0  0  0
    5.3609   -6.3257   25.3773 H   0  0  0  0  0  0  0  0  0  0  0  0
    8.4884   -4.8230   21.2762 H   0  0  0  0  0  0  0  0  0  0  0  0
    9.1187   -5.6100   22.7491 H   0  0  0  0  0  0  0  0  0  0  0  0
    8.2436   -1.0112   23.3272 H   0  0  0  0  0  0  0  0  0  0  0  0
    6.8984   -1.6618   21.0676 H   0  0  0  0  0  0  0  0  0  0  0  0
    8.7939   -2.8440   21.1151 H   0  0  0  0  0  0  0  0  0  0  0  0
  1  2  1  0  0  0  0
  1  4  2  0  0  0  0
  2  5  2  0  0  0  0
  3  6  2  0  0  0  0
  3  7  1  0  0  0  0
  4 13  1  0  0  0  0
  5 14  1  0  0  0  0
  6 15  1  0  0  0  0
  7 17  2  0  0  0  0
  8 10  1  0  0  0  0
  8 18  2  0  0  0  0
  9 15  2  0  0  0  0
  9 17  1  0  0  0  0
 10 26  2  0  0  0  0
 11 13  2  0  0  0  0
 11 25  1  0  0  0  0
 12 16  1  0  0  0  0
 12 25  2  0  0  0  0
 13 14  1  0  0  0  0
 14 16  2  0  0  0  0
 15 24  1  0  0  0  0
 16 30  1  0  0  0  0
 17 35  1  0  0  0  0
 18 20  1  0  0  0  0
 18 28  1  0  0  0  0
 19 27  2  0  0  0  0
 19 28  1  0  0  0  0
 20 29  1  0  0  0  0
 20 32  2  0  0  0  0
 21 23  1  0  0  0  0
 21 31  1  0  0  0  0
 21 33  2  0  0  0  0
 22 24  1  6  0  0  0
 22 30  1  0  0  0  0
 22 34  2  0  0  0  0
 23 29  1  0  0  0  0
 24 31  1  0  0  0  0
 26 28  1  0  0  0  0
 27 29  1  0  0  0  0
  1 36  1  0  0  0  0
  2 37  1  0  0  0  0
  3 38  1  0  0  0  0
  4 39  1  0  0  0  0
  5 40  1  0  0  0  0
  6 41  1  0  0  0  0
  7 42  1  0  0  0  0
  8 43  1  0  0  0  0
  9 44  1  0  0  0  0
 10 45  1  0  0  0  0
 11 46  1  0  0  0  0
 12 47  1  0  0  0  0
 19 48  1  0  0  0  0
 23 49  1  0  0  0  0
 23 50  1  0  0  0  0
 24 51  1  0  0  0  0
 30 52  1  0  0  0  0
 31 53  1  0  0  0  0
M  END
> <compound>
EDJ-MED-ee07cf00-17

> <compound_smiles>
c1ccc2c(c1)cncc2NC(=O)C(c3cccc(c3)Cl)NC(=O)Cn4c(=O)c5ccnn5cn4

> <enantiomer_smiles>
c1ccc2c(c1)cncc2NC(=O)[C@H](c3cccc(c3)Cl)NC(=O)Cn4c(=O)c5ccnn5cn4

> <scaffold>
chlorobenzene-linker

> <canonical_CID>
EDJ-MED-ee07cf00-17

> <r_inhibition_at_20_uM>

> <r_inhibition_at_50_uM>

> <r_avg_IC50>

> <f_inhibition_at_20_uM>

> <f_inhibition_at_50_uM>

> <f_avg_IC50>
19.5151842841623

> <f_avg_pIC50>

> <relative_solubility_at_20_uM>

> <relative_solubility_at_100_uM>

> <trypsin_IC50>

> <NMR_std_ratio>

> <acrylamide>
False

> <chloroacetamide>
False

> <series>
Ugi

> <frag_id>

> <clash_score>
0.6126643974224861

> <docking_score>
-4.905426025390625

> <overlap_score>
0.8789443969726562

> <MMFF_internal_energy>
187.5971143758606

> <docked_smiles>
c1ccc2c(c1)cncc2NC(=O)[C@H](c3cccc(c3)Cl)NC(=O)Cn4c(=O)c5ccnn5cn4

$$$$
EDJ-MED-ee07cf00-15_2
  -OEChem-07262101023D

 56 60  0     1  0  0  0  0  0999 V2000
    3.4420    2.5357   20.0698 C   0  0  0  0  0  0  0  0  0  0  0  0
    4.0762    2.0251   21.2000 C   0  0  0  0  0  0  0  0  0  0  0  0
   11.9780    0.4600   23.9150 C   0  0  0  0  0  0  0  0  0  0  0  0
    3.8501    2.1333   18.7984 C   0  0  0  0  0  0  0  0  0  0  0  0
    5.1214    1.1099   21.0639 C   0  0  0  0  0  0  0  0  0  0  0  0
   10.6560    0.0720   23.7350 C   0  0  0  0  0  0  0  0  0  0  0  0
    6.9081   -6.9735   22.6845 C   0  0  0  0  0  0  0  0  0  0  0  0
    5.8719   -4.7936   22.7904 C   0  0  0  0  0  0  0  0  0  0  0  0
    5.6681   -7.5736   22.9030 C   0  0  0  0  0  0  0  0  0  0  0  0
    4.6318   -5.3937   23.0088 C   0  0  0  0  0  0  0  0  0  0  0  0
   12.9840   -0.1200   23.1530 C   0  0  0  0  0  0  0  0  0  0  0  0
   11.3360   -1.5050   22.0650 C   0  0  0  0  0  0  0  0  0  0  0  0
    5.3494    0.7759   17.4016 C   0  0  0  0  0  0  0  0  0  0  0  0
    6.9497   -0.5836   18.3322 C   0  0  0  0  0  0  0  0  0  0  0  0
    2.0751   -6.9130   22.9240 C   0  0  0  0  0  0  0  0  0  0  0  0
    4.9007    1.2128   18.6495 C   0  0  0  0  0  0  0  0  0  0  0  0
    5.5453    0.6936   19.7912 C   0  0  0  0  0  0  0  0  0  0  0  0
    7.0101   -5.5835   22.6283 C   0  0  0  0  0  0  0  0  0  0  0  0
   10.3220   -0.8940   22.7910 C   0  0  0  0  0  0  0  0  0  0  0  0
    4.5299   -6.7837   23.0651 C   0  0  0  0  0  0  0  0  0  0  0  0
    6.5899   -0.2225   19.6216 C   0  0  0  0  0  0  0  0  0  0  0  0
   12.6400   -1.1000   22.2390 C   0  0  0  0  0  0  0  0  0  0  0  0
    8.4772   -3.5693   23.0381 C   0  0  0  0  0  0  0  0  0  0  0  0
    8.3880   -0.3240   21.3070 C   0  0  0  0  0  0  0  0  0  0  0  0
    8.3487   -4.9356   22.3925 C   0  0  0  0  0  0  0  0  0  0  0  0
    8.8810   -1.1900   22.4510 C   0  0  2  0  0  0  0  0  0  0  0  0
    6.3562   -0.1077   17.2169 N   0  0  0  0  0  0  0  0  0  0  0  0
    1.1694   -7.7791   23.3162 N   0  0  0  0  0  0  0  0  0  0  0  0
    1.8678   -8.7950   23.9288 N   0  0  0  0  0  0  0  0  0  0  0  0
    3.1733   -8.5550   23.9104 N   0  0  0  0  0  0  0  0  0  0  0  0
    3.3003   -7.3780   23.2820 N   0  0  0  0  0  0  0  0  0  0  0  0
    7.2820   -0.7860   20.6970 N   0  0  0  0  0  0  0  0  0  0  0  0
    8.7217   -2.5865   22.0933 N   0  0  0  0  0  0  0  0  0  0  0  0
    8.3708   -3.3778   24.2468 O   0  0  0  0  0  0  0  0  0  0  0  0
    8.9170    0.7530   21.0260 O   0  0  0  0  0  0  0  0  0  0  0  0
   13.8840   -1.8490   21.2740 Cl  0  0  0  0  0  0  0  0  0  0  0  0
    2.6290    3.2475   20.1787 H   0  0  0  0  0  0  0  0  0  0  0  0
    3.7567    2.3397   22.1895 H   0  0  0  0  0  0  0  0  0  0  0  0
   12.2249    1.2198   24.6546 H   0  0  0  0  0  0  0  0  0  0  0  0
    3.3440    2.5417   17.9266 H   0  0  0  0  0  0  0  0  0  0  0  0
    5.5920    0.7344   21.9697 H   0  0  0  0  0  0  0  0  0  0  0  0
    9.8763    0.5350   24.3454 H   0  0  0  0  0  0  0  0  0  0  0  0
    7.7900   -7.5961   22.5592 H   0  0  0  0  0  0  0  0  0  0  0  0
    5.9419   -3.7099   22.7483 H   0  0  0  0  0  0  0  0  0  0  0  0
    5.6026   -8.6582   22.9454 H   0  0  0  0  0  0  0  0  0  0  0  0
    3.7531   -4.7655   23.1337 H   0  0  0  0  0  0  0  0  0  0  0  0
   14.0077    0.1988   23.2842 H   0  0  0  0  0  0  0  0  0  0  0  0
   11.0892   -2.3009   21.3624 H   0  0  0  0  0  0  0  0  0  0  0  0
    4.8966    1.1359   16.4818 H   0  0  0  0  0  0  0  0  0  0  0  0
    7.7531   -1.2911   18.1477 H   0  0  0  0  0  0  0  0  0  0  0  0
    1.9021   -5.9828   22.4018 H   0  0  0  0  0  0  0  0  0  0  0  0
    9.1446   -5.5853   22.7783 H   0  0  0  0  0  0  0  0  0  0  0  0
    8.5255   -4.8318   21.3145 H   0  0  0  0  0  0  0  0  0  0  0  0
    8.2436   -1.0112   23.3272 H   0  0  0  0  0  0  0  0  0  0  0  0
    6.8984   -1.6618   21.0676 H   0  0  0  0  0  0  0  0  0  0  0  0
    8.7913   -2.8535   21.1181 H   0  0  0  0  0  0  0  0  0  0  0  0
  1  2  1  0  0  0  0
  1  4  2  0  0  0  0
  2  5  2  0  0  0  0
  3  6  2  0  0  0  0
  3 11  1  0  0  0  0
  4 16  1  0  0  0  0
  5 17  1  0  0  0  0
  6 19  1  0  0  0  0
  7  9  2  0  0  0  0
  7 18  1  0  0  0  0
  8 10  1  0  0  0  0
  8 18  2  0  0  0  0
  9 20  1  0  0  0  0
 10 20  2  0  0  0  0
 11 22  2  0  0  0  0
 12 19  2  0  0  0  0
 12 22  1  0  0  0  0
 13 16  2  0  0  0  0
 13 27  1  0  0  0  0
 14 21  1  0  0  0  0
 14 27  2  0  0  0  0
 15 28  2  0  0  0  0
 15 31  1  0  0  0  0
 16 17  1  0  0  0  0
 17 21  2  0  0  0  0
 18 25  1  0  0  0  0
 19 26  1  0  0  0  0
 20 31  1  0  0  0  0
 21 32  1  0  0  0  0
 22 36  1  0  0  0  0
 23 25  1  0  0  0  0
 23 33  1  0  0  0  0
 23 34  2  0  0  0  0
 24 26  1  6  0  0  0
 24 32  1  0  0  0  0
 24 35  2  0  0  0  0
 26 33  1  0  0  0  0
 28 29  1  0  0  0  0
 29 30  2  0  0  0  0
 30 31  1  0  0  0  0
  1 37  1  0  0  0  0
  2 38  1  0  0  0  0
  3 39  1  0  0  0  0
  4 40  1  0  0  0  0
  5 41  1  0  0  0  0
  6 42  1  0  0  0  0
  7 43  1  0  0  0  0
  8 44  1  0  0  0  0
  9 45  1  0  0  0  0
 10 46  1  0  0  0  0
 11 47  1  0  0  0  0
 12 48  1  0  0  0  0
 13 49  1  0  0  0  0
 14 50  1  0  0  0  0
 15 51  1  0  0  0  0
 25 52  1  0  0  0  0
 25 53  1  0  0  0  0
 26 54  1  0  0  0  0
 32 55  1  0  0  0  0
 33 56  1  0  0  0  0
M  END
> <compound>
EDJ-MED-ee07cf00-15

> <compound_smiles>
c1ccc2c(c1)cncc2NC(=O)C(c3cccc(c3)Cl)NC(=O)Cc4ccc(cc4)n5cnnn5

> <enantiomer_smiles>
c1ccc2c(c1)cncc2NC(=O)[C@H](c3cccc(c3)Cl)NC(=O)Cc4ccc(cc4)n5cnnn5

> <scaffold>
chlorobenzene-linker

> <canonical_CID>
EDJ-MED-ee07cf00-15

> <r_inhibition_at_20_uM>

> <r_inhibition_at_50_uM>

> <r_avg_IC50>

> <f_inhibition_at_20_uM>

> <f_inhibition_at_50_uM>

> <f_avg_IC50>
10.2511787022772

> <f_avg_pIC50>

> <relative_solubility_at_20_uM>

> <relative_solubility_at_100_uM>

> <trypsin_IC50>

> <NMR_std_ratio>

> <acrylamide>
False

> <chloroacetamide>
False

> <series>
Ugi

> <frag_id>

> <clash_score>
0

> <docking_score>
-9.819242477416992

> <overlap_score>
0.9639191627502441

> <MMFF_internal_energy>
171.47974187372452

> <docked_smiles>
c1ccc2c(c1)cncc2NC(=O)[C@H](c3cccc(c3)Cl)NC(=O)Cc4ccc(cc4)n5cnnn5

$$$$
EDJ-MED-ee07cf00-5_2
  -OEChem-07262101023D

 56 59  0     1  0  0  0  0  0999 V2000
    1.0387   -7.6352   23.4197 C   0  0  0  0  0  0  0  0  0  0  0  0
    3.4420    2.5357   20.0698 C   0  0  0  0  0  0  0  0  0  0  0  0
    4.0762    2.0251   21.2000 C   0  0  0  0  0  0  0  0  0  0  0  0
   11.9780    0.4600   23.9150 C   0  0  0  0  0  0  0  0  0  0  0  0
    2.5105   -6.7853   21.6606 C   0  0  0  0  0  0  0  0  0  0  0  0
    3.2370   -6.7131   23.9636 C   0  0  0  0  0  0  0  0  0  0  0  0
    3.8501    2.1333   18.7984 C   0  0  0  0  0  0  0  0  0  0  0  0
    5.1214    1.1099   21.0639 C   0  0  0  0  0  0  0  0  0  0  0  0
    3.7141   -6.2036   21.2626 C   0  0  0  0  0  0  0  0  0  0  0  0
    4.4407   -6.1315   23.5657 C   0  0  0  0  0  0  0  0  0  0  0  0
   10.6560    0.0720   23.7350 C   0  0  0  0  0  0  0  0  0  0  0  0
   12.9840   -0.1200   23.1530 C   0  0  0  0  0  0  0  0  0  0  0  0
   11.3360   -1.5050   22.0650 C   0  0  0  0  0  0  0  0  0  0  0  0
    5.3494    0.7759   17.4016 C   0  0  0  0  0  0  0  0  0  0  0  0
    6.9497   -0.5836   18.3322 C   0  0  0  0  0  0  0  0  0  0  0  0
    2.2719   -7.0400   23.0111 C   0  0  0  0  0  0  0  0  0  0  0  0
    4.9007    1.2128   18.6495 C   0  0  0  0  0  0  0  0  0  0  0  0
    5.5453    0.6936   19.7912 C   0  0  0  0  0  0  0  0  0  0  0  0
    4.6793   -5.8767   22.2151 C   0  0  0  0  0  0  0  0  0  0  0  0
   10.3220   -0.8940   22.7910 C   0  0  0  0  0  0  0  0  0  0  0  0
    6.5899   -0.2225   19.6216 C   0  0  0  0  0  0  0  0  0  0  0  0
   12.6400   -1.1000   22.2390 C   0  0  0  0  0  0  0  0  0  0  0  0
    5.9614   -5.2578   21.7906 C   0  0  0  0  0  0  0  0  0  0  0  0
    8.4768   -3.5851   23.0219 C   0  0  0  0  0  0  0  0  0  0  0  0
    8.3880   -0.3240   21.3070 C   0  0  0  0  0  0  0  0  0  0  0  0
    8.3551   -4.9322   22.3566 C   0  0  0  0  0  0  0  0  0  0  0  0
    8.8810   -1.1900   22.4510 C   0  0  2  0  0  0  0  0  0  0  0  0
    0.0372   -8.1186   23.7514 N   0  0  0  0  0  0  0  0  0  0  0  0
    6.3562   -0.1077   17.2169 N   0  0  0  0  0  0  0  0  0  0  0  0
    7.2820   -0.7860   20.6970 N   0  0  0  0  0  0  0  0  0  0  0  0
    7.0244   -5.4967   22.6254 N   0  0  0  0  0  0  0  0  0  0  0  0
    8.7217   -2.5865   22.0933 N   0  0  0  0  0  0  0  0  0  0  0  0
    5.9898   -4.5776   20.7683 O   0  0  0  0  0  0  0  0  0  0  0  0
    8.3666   -3.4174   24.2336 O   0  0  0  0  0  0  0  0  0  0  0  0
    8.9170    0.7530   21.0260 O   0  0  0  0  0  0  0  0  0  0  0  0
   13.8840   -1.8490   21.2740 Cl  0  0  0  0  0  0  0  0  0  0  0  0
    2.6290    3.2475   20.1787 H   0  0  0  0  0  0  0  0  0  0  0  0
    3.7567    2.3397   22.1895 H   0  0  0  0  0  0  0  0  0  0  0  0
   12.2249    1.2198   24.6546 H   0  0  0  0  0  0  0  0  0  0  0  0
    1.7676   -7.0341   20.9066 H   0  0  0  0  0  0  0  0  0  0  0  0
    3.0655   -6.9045   25.0205 H   0  0  0  0  0  0  0  0  0  0  0  0
    3.3440    2.5417   17.9266 H   0  0  0  0  0  0  0  0  0  0  0  0
    5.5920    0.7344   21.9697 H   0  0  0  0  0  0  0  0  0  0  0  0
    3.8892   -6.0080   20.2078 H   0  0  0  0  0  0  0  0  0  0  0  0
    5.1860   -5.8797   24.3159 H   0  0  0  0  0  0  0  0  0  0  0  0
    9.8763    0.5350   24.3454 H   0  0  0  0  0  0  0  0  0  0  0  0
   14.0077    0.1988   23.2842 H   0  0  0  0  0  0  0  0  0  0  0  0
   11.0892   -2.3009   21.3624 H   0  0  0  0  0  0  0  0  0  0  0  0
    4.8966    1.1359   16.4818 H   0  0  0  0  0  0  0  0  0  0  0  0
    7.7531   -1.2911   18.1477 H   0  0  0  0  0  0  0  0  0  0  0  0
    8.4884   -4.8230   21.2762 H   0  0  0  0  0  0  0  0  0  0  0  0
    9.1187   -5.6100   22.7491 H   0  0  0  0  0  0  0  0  0  0  0  0
    8.2436   -1.0112   23.3272 H   0  0  0  0  0  0  0  0  0  0  0  0
    6.8984   -1.6618   21.0676 H   0  0  0  0  0  0  0  0  0  0  0  0
    6.9326   -6.0086   23.4838 H   0  0  0  0  0  0  0  0  0  0  0  0
    8.7939   -2.8440   21.1151 H   0  0  0  0  0  0  0  0  0  0  0  0
  1 16  1  0  0  0  0
  1 28  3  0  0  0  0
  2  3  1  0  0  0  0
  2  7  2  0  0  0  0
  3  8  2  0  0  0  0
  4 11  2  0  0  0  0
  4 12  1  0  0  0  0
  5  9  2  0  0  0  0
  5 16  1  0  0  0  0
  6 10  1  0  0  0  0
  6 16  2  0  0  0  0
  7 17  1  0  0  0  0
  8 18  1  0  0  0  0
  9 19  1  0  0  0  0
 10 19  2  0  0  0  0
 11 20  1  0  0  0  0
 12 22  2  0  0  0  0
 13 20  2  0  0  0  0
 13 22  1  0  0  0  0
 14 17  2  0  0  0  0
 14 29  1  0  0  0  0
 15 21  1  0  0  0  0
 15 29  2  0  0  0  0
 17 18  1  0  0  0  0
 18 21  2  0  0  0  0
 19 23  1  0  0  0  0
 20 27  1  0  0  0  0
 21 30  1  0  0  0  0
 22 36  1  0  0  0  0
 23 31  1  0  0  0  0
 23 33  2  0  0  0  0
 24 26  1  0  0  0  0
 24 32  1  0  0  0  0
 24 34  2  0  0  0  0
 25 27  1  6  0  0  0
 25 30  1  0  0  0  0
 25 35  2  0  0  0  0
 26 31  1  0  0  0  0
 27 32  1  0  0  0  0
  2 37  1  0  0  0  0
  3 38  1  0  0  0  0
  4 39  1  0  0  0  0
  5 40  1  0  0  0  0
  6 41  1  0  0  0  0
  7 42  1  0  0  0  0
  8 43  1  0  0  0  0
  9 44  1  0  0  0  0
 10 45  1  0  0  0  0
 11 46  1  0  0  0  0
 12 47  1  0  0  0  0
 13 48  1  0  0  0  0
 14 49  1  0  0  0  0
 15 50  1  0  0  0  0
 26 51  1  0  0  0  0
 26 52  1  0  0  0  0
 27 53  1  0  0  0  0
 30 54  1  0  0  0  0
 31 55  1  0  0  0  0
 32 56  1  0  0  0  0
M  END
> <compound>
EDJ-MED-ee07cf00-5

> <compound_smiles>
c1ccc2c(c1)cncc2NC(=O)C(c3cccc(c3)Cl)NC(=O)CNC(=O)c4ccc(cc4)C#N

> <enantiomer_smiles>
c1ccc2c(c1)cncc2NC(=O)[C@H](c3cccc(c3)Cl)NC(=O)CNC(=O)c4ccc(cc4)C#N

> <scaffold>
chlorobenzene-linker

> <canonical_CID>
EDJ-MED-ee07cf00-5

> <r_inhibition_at_20_uM>

> <r_inhibition_at_50_uM>

> <r_avg_IC50>

> <f_inhibition_at_20_uM>

> <f_inhibition_at_50_uM>

> <f_avg_IC50>
18.7281197092005

> <f_avg_pIC50>

> <relative_solubility_at_20_uM>

> <relative_solubility_at_100_uM>

> <trypsin_IC50>

> <NMR_std_ratio>

> <acrylamide>
False

> <chloroacetamide>
False

> <series>
Ugi

> <frag_id>

> <clash_score>
0

> <docking_score>
-8.657976150512695

> <overlap_score>
0.9654541611671448

> <MMFF_internal_energy>
157.93807102537792

> <docked_smiles>
c1ccc2c(c1)cncc2NC(=O)[C@H](c3cccc(c3)Cl)NC(=O)CNC(=O)c4ccc(cc4)C#N

$$$$
EDJ-MED-ee07cf00-18_1
  -OEChem-07262101023D

 58 62  0     1  0  0  0  0  0999 V2000
    2.4462   -0.6171   18.9969 C   0  0  0  0  0  0  0  0  0  0  0  0
    3.0435   -1.2247   20.0988 C   0  0  0  0  0  0  0  0  0  0  0  0
   11.9780    0.4600   23.9150 C   0  0  0  0  0  0  0  0  0  0  0  0
    3.2197    0.1230   18.1029 C   0  0  0  0  0  0  0  0  0  0  0  0
    4.4170   -1.0949   20.3118 C   0  0  0  0  0  0  0  0  0  0  0  0
   10.6560    0.0720   23.7350 C   0  0  0  0  0  0  0  0  0  0  0  0
   12.9840   -0.1200   23.1530 C   0  0  0  0  0  0  0  0  0  0  0  0
   11.3360   -1.5050   22.0650 C   0  0  0  0  0  0  0  0  0  0  0  0
    5.4239    0.9890   17.4449 C   0  0  0  0  0  0  0  0  0  0  0  0
    7.3052    0.5430   18.6845 C   0  0  0  0  0  0  0  0  0  0  0  0
    4.6027    0.2602   18.3073 C   0  0  0  0  0  0  0  0  0  0  0  0
    5.2111   -0.3534   19.4218 C   0  0  0  0  0  0  0  0  0  0  0  0
   10.3220   -0.8940   22.7910 C   0  0  0  0  0  0  0  0  0  0  0  0
    6.5904   -0.2048   19.6077 C   0  0  0  0  0  0  0  0  0  0  0  0
   12.6400   -1.1000   22.2390 C   0  0  0  0  0  0  0  0  0  0  0  0
    5.6108   -3.4640   26.5588 C   0  0  0  0  0  0  0  0  0  0  0  0
    7.7884   -1.9655   24.5530 C   0  0  0  0  0  0  0  0  0  0  0  0
    8.3880   -0.3240   21.3070 C   0  0  0  0  0  0  0  0  0  0  0  0
    4.6288   -6.4933   27.0480 C   0  0  0  0  0  0  0  0  0  0  0  0
    5.4877   -6.7753   28.2445 C   0  0  0  0  0  0  0  0  0  0  0  0
    6.9035   -3.8903   28.4961 C   0  0  0  0  0  0  0  0  0  0  0  0
    7.5407   -2.7427   27.7256 C   0  0  0  0  0  0  0  0  0  0  0  0
    4.9339   -5.3937   28.0280 C   0  0  0  0  0  0  0  0  0  0  0  0
    6.8795   -1.4620   25.6450 C   0  0  0  0  0  0  0  0  0  0  0  0
    8.8810   -1.1900   22.4510 C   0  0  1  0  0  0  0  0  0  0  0  0
    6.7573    1.1443   17.6071 N   0  0  0  0  0  0  0  0  0  0  0  0
    5.7839   -4.3015   27.6749 N   0  0  0  0  0  0  0  0  0  0  0  0
    6.6480   -2.5160   26.6082 N   0  0  0  0  0  0  0  0  0  0  0  0
    7.2820   -0.7860   20.6970 N   0  0  0  0  0  0  0  0  0  0  0  0
    8.0375   -0.9810   23.6075 N   0  0  0  0  0  0  0  0  0  0  0  0
    4.7292   -3.5475   25.7130 O   0  0  0  0  0  0  0  0  0  0  0  0
    8.2425   -3.1063   24.5241 O   0  0  0  0  0  0  0  0  0  0  0  0
    8.9170    0.7530   21.0260 O   0  0  0  0  0  0  0  0  0  0  0  0
   13.8840   -1.8490   21.2740 Cl  0  0  0  0  0  0  0  0  0  0  0  0
    1.3775   -0.7199   18.8335 H   0  0  0  0  0  0  0  0  0  0  0  0
    2.4393   -1.8009   20.7937 H   0  0  0  0  0  0  0  0  0  0  0  0
   12.2249    1.2198   24.6546 H   0  0  0  0  0  0  0  0  0  0  0  0
    2.7372    0.5907   17.2477 H   0  0  0  0  0  0  0  0  0  0  0  0
    4.8464   -1.5833   21.1836 H   0  0  0  0  0  0  0  0  0  0  0  0
    9.8763    0.5350   24.3454 H   0  0  0  0  0  0  0  0  0  0  0  0
   14.0077    0.1988   23.2842 H   0  0  0  0  0  0  0  0  0  0  0  0
   11.0892   -2.3009   21.3624 H   0  0  0  0  0  0  0  0  0  0  0  0
    5.0196    1.4865   16.5675 H   0  0  0  0  0  0  0  0  0  0  0  0
    8.3773    0.6873   18.7839 H   0  0  0  0  0  0  0  0  0  0  0  0
    5.1099   -6.4688   26.0779 H   0  0  0  0  0  0  0  0  0  0  0  0
    3.6241   -6.8979   27.0410 H   0  0  0  0  0  0  0  0  0  0  0  0
    5.0616   -7.3698   29.0432 H   0  0  0  0  0  0  0  0  0  0  0  0
    6.5451   -6.9400   28.0771 H   0  0  0  0  0  0  0  0  0  0  0  0
    7.5907   -4.7321   28.6244 H   0  0  0  0  0  0  0  0  0  0  0  0
    6.5242   -3.5640   29.4695 H   0  0  0  0  0  0  0  0  0  0  0  0
    7.6099   -1.8316   28.3269 H   0  0  0  0  0  0  0  0  0  0  0  0
    8.5279   -3.0119   27.3375 H   0  0  0  0  0  0  0  0  0  0  0  0
    4.1246   -5.0863   28.6816 H   0  0  0  0  0  0  0  0  0  0  0  0
    7.3455   -0.6098   26.1485 H   0  0  0  0  0  0  0  0  0  0  0  0
    5.9224   -1.1504   25.2166 H   0  0  0  0  0  0  0  0  0  0  0  0
    8.7711   -2.2448   22.1651 H   0  0  0  0  0  0  0  0  0  0  0  0
    6.8975   -1.6551   21.0614 H   0  0  0  0  0  0  0  0  0  0  0  0
    7.6059   -0.0701   23.7341 H   0  0  0  0  0  0  0  0  0  0  0  0
  1  2  1  0  0  0  0
  1  4  2  0  0  0  0
  2  5  2  0  0  0  0
  3  6  2  0  0  0  0
  3  7  1  0  0  0  0
  4 11  1  0  0  0  0
  5 12  1  0  0  0  0
  6 13  1  0  0  0  0
  7 15  2  0  0  0  0
  8 13  2  0  0  0  0
  8 15  1  0  0  0  0
  9 11  2  0  0  0  0
  9 26  1  0  0  0  0
 10 14  1  0  0  0  0
 10 26  2  0  0  0  0
 11 12  1  0  0  0  0
 12 14  2  0  0  0  0
 13 25  1  0  0  0  0
 14 29  1  0  0  0  0
 15 34  1  0  0  0  0
 16 27  1  0  0  0  0
 16 28  1  0  0  0  0
 16 31  2  0  0  0  0
 17 24  1  0  0  0  0
 17 30  1  0  0  0  0
 17 32  2  0  0  0  0
 18 25  1  1  0  0  0
 18 29  1  0  0  0  0
 18 33  2  0  0  0  0
 19 20  1  0  0  0  0
 19 23  1  0  0  0  0
 20 23  1  0  0  0  0
 21 22  1  0  0  0  0
 21 27  1  0  0  0  0
 22 28  1  0  0  0  0
 23 27  1  0  0  0  0
 24 28  1  0  0  0  0
 25 30  1  0  0  0  0
  1 35  1  0  0  0  0
  2 36  1  0  0  0  0
  3 37  1  0  0  0  0
  4 38  1  0  0  0  0
  5 39  1  0  0  0  0
  6 40  1  0  0  0  0
  7 41  1  0  0  0  0
  8 42  1  0  0  0  0
  9 43  1  0  0  0  0
 10 44  1  0  0  0  0
 19 45  1  0  0  0  0
 19 46  1  0  0  0  0
 20 47  1  0  0  0  0
 20 48  1  0  0  0  0
 21 49  1  0  0  0  0
 21 50  1  0  0  0  0
 22 51  1  0  0  0  0
 22 52  1  0  0  0  0
 23 53  1  0  0  0  0
 24 54  1  0  0  0  0
 24 55  1  0  0  0  0
 25 56  1  0  0  0  0
 29 57  1  0  0  0  0
 30 58  1  0  0  0  0
M  END
> <compound>
EDJ-MED-ee07cf00-18

> <compound_smiles>
c1ccc2c(c1)cncc2NC(=O)C(c3cccc(c3)Cl)NC(=O)CN4CCN(C4=O)C5CC5

> <enantiomer_smiles>
c1ccc2c(c1)cncc2NC(=O)[C@@H](c3cccc(c3)Cl)NC(=O)CN4CCN(C4=O)C5CC5

> <scaffold>
chlorobenzene-linker

> <canonical_CID>
EDJ-MED-ee07cf00-18

> <r_inhibition_at_20_uM>

> <r_inhibition_at_50_uM>

> <r_avg_IC50>

> <f_inhibition_at_20_uM>

> <f_inhibition_at_50_uM>

> <f_avg_IC50>
2.34776259878291

> <f_avg_pIC50>

> <relative_solubility_at_20_uM>

> <relative_solubility_at_100_uM>

> <trypsin_IC50>

> <NMR_std_ratio>

> <acrylamide>
False

> <chloroacetamide>
False

> <series>
Ugi

> <frag_id>

> <clash_score>
7.591278686212535

> <docking_score>
0.3252948522567749

> <overlap_score>
0.7732146978378296

> <MMFF_internal_energy>
94.75323734780956

> <docked_smiles>
c1ccc2c(c1)cncc2NC(=O)[C@@H](c3cccc(c3)Cl)NC(=O)CN4CCN(C4=O)C5CC5

$$$$
EDJ-MED-ee07cf00-5_1
  -OEChem-07262101023D

 56 59  0     1  0  0  0  0  0999 V2000
    2.1924   -7.1309   28.4486 C   0  0  0  0  0  0  0  0  0  0  0  0
    3.4420    2.5357   20.0698 C   0  0  0  0  0  0  0  0  0  0  0  0
    4.0762    2.0251   21.2000 C   0  0  0  0  0  0  0  0  0  0  0  0
   11.9780    0.4600   23.9150 C   0  0  0  0  0  0  0  0  0  0  0  0
    2.1842   -5.2807   26.8488 C   0  0  0  0  0  0  0  0  0  0  0  0
    4.0795   -5.5816   28.3166 C   0  0  0  0  0  0  0  0  0  0  0  0
    3.8501    2.1333   18.7984 C   0  0  0  0  0  0  0  0  0  0  0  0
    5.1214    1.1099   21.0639 C   0  0  0  0  0  0  0  0  0  0  0  0
    2.8006   -4.1655   26.2815 C   0  0  0  0  0  0  0  0  0  0  0  0
    4.6959   -4.4664   27.7492 C   0  0  0  0  0  0  0  0  0  0  0  0
   10.6560    0.0720   23.7350 C   0  0  0  0  0  0  0  0  0  0  0  0
   12.9840   -0.1200   23.1530 C   0  0  0  0  0  0  0  0  0  0  0  0
   11.3360   -1.5050   22.0650 C   0  0  0  0  0  0  0  0  0  0  0  0
    5.3495    0.7759   17.4015 C   0  0  0  0  0  0  0  0  0  0  0  0
    6.9497   -0.5836   18.3322 C   0  0  0  0  0  0  0  0  0  0  0  0
    2.8236   -5.9888   27.8664 C   0  0  0  0  0  0  0  0  0  0  0  0
    4.9007    1.2128   18.6495 C   0  0  0  0  0  0  0  0  0  0  0  0
    5.5453    0.6936   19.7912 C   0  0  0  0  0  0  0  0  0  0  0  0
    4.0564   -3.7583   26.7317 C   0  0  0  0  0  0  0  0  0  0  0  0
   10.3220   -0.8940   22.7910 C   0  0  0  0  0  0  0  0  0  0  0  0
    6.5899   -0.2225   19.6216 C   0  0  0  0  0  0  0  0  0  0  0  0
   12.6400   -1.1000   22.2390 C   0  0  0  0  0  0  0  0  0  0  0  0
    4.7128   -2.5708   26.1266 C   0  0  0  0  0  0  0  0  0  0  0  0
    7.7885   -1.9656   24.5529 C   0  0  0  0  0  0  0  0  0  0  0  0
    8.3880   -0.3240   21.3070 C   0  0  0  0  0  0  0  0  0  0  0  0
    6.8795   -1.4621   25.6449 C   0  0  0  0  0  0  0  0  0  0  0  0
    8.8810   -1.1900   22.4510 C   0  0  1  0  0  0  0  0  0  0  0  0
    1.6798   -8.0585   28.9214 N   0  0  0  0  0  0  0  0  0  0  0  0
    6.3562   -0.1077   17.2169 N   0  0  0  0  0  0  0  0  0  0  0  0
    7.2820   -0.7860   20.6970 N   0  0  0  0  0  0  0  0  0  0  0  0
    6.0844   -2.5778   26.1784 N   0  0  0  0  0  0  0  0  0  0  0  0
    8.0352   -0.9804   23.6107 N   0  0  0  0  0  0  0  0  0  0  0  0
    4.0166   -1.6770   25.6523 O   0  0  0  0  0  0  0  0  0  0  0  0
    8.2425   -3.1063   24.5240 O   0  0  0  0  0  0  0  0  0  0  0  0
    8.9170    0.7530   21.0260 O   0  0  0  0  0  0  0  0  0  0  0  0
   13.8840   -1.8490   21.2740 Cl  0  0  0  0  0  0  0  0  0  0  0  0
    2.6290    3.2475   20.1787 H   0  0  0  0  0  0  0  0  0  0  0  0
    3.7567    2.3397   22.1894 H   0  0  0  0  0  0  0  0  0  0  0  0
   12.2249    1.2198   24.6546 H   0  0  0  0  0  0  0  0  0  0  0  0
    1.2050   -5.5856   26.4878 H   0  0  0  0  0  0  0  0  0  0  0  0
    4.5904   -6.1226   29.1099 H   0  0  0  0  0  0  0  0  0  0  0  0
    3.3440    2.5417   17.9266 H   0  0  0  0  0  0  0  0  0  0  0  0
    5.5920    0.7345   21.9697 H   0  0  0  0  0  0  0  0  0  0  0  0
    2.2928   -3.6200   25.4902 H   0  0  0  0  0  0  0  0  0  0  0  0
    5.6743   -4.1569   28.1077 H   0  0  0  0  0  0  0  0  0  0  0  0
    9.8763    0.5350   24.3454 H   0  0  0  0  0  0  0  0  0  0  0  0
   14.0077    0.1988   23.2842 H   0  0  0  0  0  0  0  0  0  0  0  0
   11.0892   -2.3009   21.3624 H   0  0  0  0  0  0  0  0  0  0  0  0
    4.8966    1.1359   16.4818 H   0  0  0  0  0  0  0  0  0  0  0  0
    7.7531   -1.2911   18.1477 H   0  0  0  0  0  0  0  0  0  0  0  0
    7.4779   -1.0282   26.4516 H   0  0  0  0  0  0  0  0  0  0  0  0
    6.2051   -0.6998   25.2440 H   0  0  0  0  0  0  0  0  0  0  0  0
    8.7711   -2.2448   22.1651 H   0  0  0  0  0  0  0  0  0  0  0  0
    6.8984   -1.6618   21.0676 H   0  0  0  0  0  0  0  0  0  0  0  0
    6.6040   -3.3053   26.6346 H   0  0  0  0  0  0  0  0  0  0  0  0
    7.6043   -0.0713   23.7384 H   0  0  0  0  0  0  0  0  0  0  0  0
  1 16  1  0  0  0  0
  1 28  3  0  0  0  0
  2  3  1  0  0  0  0
  2  7  2  0  0  0  0
  3  8  2  0  0  0  0
  4 11  2  0  0  0  0
  4 12  1  0  0  0  0
  5  9  2  0  0  0  0
  5 16  1  0  0  0  0
  6 10  1  0  0  0  0
  6 16  2  0  0  0  0
  7 17  1  0  0  0  0
  8 18  1  0  0  0  0
  9 19  1  0  0  0  0
 10 19  2  0  0  0  0
 11 20  1  0  0  0  0
 12 22  2  0  0  0  0
 13 20  2  0  0  0  0
 13 22  1  0  0  0  0
 14 17  2  0  0  0  0
 14 29  1  0  0  0  0
 15 21  1  0  0  0  0
 15 29  2  0  0  0  0
 17 18  1  0  0  0  0
 18 21  2  0  0  0  0
 19 23  1  0  0  0  0
 20 27  1  0  0  0  0
 21 30  1  0  0  0  0
 22 36  1  0  0  0  0
 23 31  1  0  0  0  0
 23 33  2  0  0  0  0
 24 26  1  0  0  0  0
 24 32  1  0  0  0  0
 24 34  2  0  0  0  0
 25 27  1  1  0  0  0
 25 30  1  0  0  0  0
 25 35  2  0  0  0  0
 26 31  1  0  0  0  0
 27 32  1  0  0  0  0
  2 37  1  0  0  0  0
  3 38  1  0  0  0  0
  4 39  1  0  0  0  0
  5 40  1  0  0  0  0
  6 41  1  0  0  0  0
  7 42  1  0  0  0  0
  8 43  1  0  0  0  0
  9 44  1  0  0  0  0
 10 45  1  0  0  0  0
 11 46  1  0  0  0  0
 12 47  1  0  0  0  0
 13 48  1  0  0  0  0
 14 49  1  0  0  0  0
 15 50  1  0  0  0  0
 26 51  1  0  0  0  0
 26 52  1  0  0  0  0
 27 53  1  0  0  0  0
 30 54  1  0  0  0  0
 31 55  1  0  0  0  0
 32 56  1  0  0  0  0
M  END
> <compound>
EDJ-MED-ee07cf00-5

> <compound_smiles>
c1ccc2c(c1)cncc2NC(=O)C(c3cccc(c3)Cl)NC(=O)CNC(=O)c4ccc(cc4)C#N

> <enantiomer_smiles>
c1ccc2c(c1)cncc2NC(=O)[C@@H](c3cccc(c3)Cl)NC(=O)CNC(=O)c4ccc(cc4)C#N

> <scaffold>
chlorobenzene-linker

> <canonical_CID>
EDJ-MED-ee07cf00-5

> <r_inhibition_at_20_uM>

> <r_inhibition_at_50_uM>

> <r_avg_IC50>

> <f_inhibition_at_20_uM>

> <f_inhibition_at_50_uM>

> <f_avg_IC50>
18.7281197092005

> <f_avg_pIC50>

> <relative_solubility_at_20_uM>

> <relative_solubility_at_100_uM>

> <trypsin_IC50>

> <NMR_std_ratio>

> <acrylamide>
False

> <chloroacetamide>
False

> <series>
Ugi

> <frag_id>

> <clash_score>
0

> <docking_score>
-9.418006896972656

> <overlap_score>
0.9650776982307434

> <MMFF_internal_energy>
161.97757349092697

> <docked_smiles>
c1ccc2c(c1)cncc2NC(=O)[C@@H](c3cccc(c3)Cl)NC(=O)CNC(=O)c4ccc(cc4)C#N

$$$$
EDJ-MED-ee07cf00-18_2
  -OEChem-07262101023D

 58 62  0     1  0  0  0  0  0999 V2000
    2.5650    1.0119   19.7905 C   0  0  0  0  0  0  0  0  0  0  0  0
    3.1657    0.4486   20.9139 C   0  0  0  0  0  0  0  0  0  0  0  0
   11.9780    0.4600   23.9150 C   0  0  0  0  0  0  0  0  0  0  0  0
    3.2959    1.1705   18.6133 C   0  0  0  0  0  0  0  0  0  0  0  0
    4.5001    0.0414   20.8653 C   0  0  0  0  0  0  0  0  0  0  0  0
   10.6560    0.0720   23.7350 C   0  0  0  0  0  0  0  0  0  0  0  0
   12.9840   -0.1200   23.1530 C   0  0  0  0  0  0  0  0  0  0  0  0
   11.3360   -1.5050   22.0650 C   0  0  0  0  0  0  0  0  0  0  0  0
    5.4171    0.8995   17.4014 C   0  0  0  0  0  0  0  0  0  0  0  0
    7.2639   -0.0211   18.4097 C   0  0  0  0  0  0  0  0  0  0  0  0
    4.6393    0.7642   18.5530 C   0  0  0  0  0  0  0  0  0  0  0  0
    5.2510    0.1935   19.6882 C   0  0  0  0  0  0  0  0  0  0  0  0
   10.3220   -0.8940   22.7910 C   0  0  0  0  0  0  0  0  0  0  0  0
    6.5904   -0.2048   19.6077 C   0  0  0  0  0  0  0  0  0  0  0  0
   12.6400   -1.1000   22.2390 C   0  0  0  0  0  0  0  0  0  0  0  0
    5.8985   -5.3059   21.8287 C   0  0  0  0  0  0  0  0  0  0  0  0
    8.4768   -3.5852   23.0218 C   0  0  0  0  0  0  0  0  0  0  0  0
    8.3880   -0.3240   21.3070 C   0  0  0  0  0  0  0  0  0  0  0  0
    3.1963   -6.5377   20.5794 C   0  0  0  0  0  0  0  0  0  0  0  0
    2.8553   -7.4389   21.7284 C   0  0  0  0  0  0  0  0  0  0  0  0
    5.3098   -6.6708   23.6717 C   0  0  0  0  0  0  0  0  0  0  0  0
    6.8012   -6.3747   23.7390 C   0  0  0  0  0  0  0  0  0  0  0  0
    3.5188   -6.1138   21.9862 C   0  0  0  0  0  0  0  0  0  0  0  0
    8.3551   -4.9322   22.3564 C   0  0  0  0  0  0  0  0  0  0  0  0
    8.8810   -1.1900   22.4510 C   0  0  2  0  0  0  0  0  0  0  0  0
    6.7116    0.5212   17.3036 N   0  0  0  0  0  0  0  0  0  0  0  0
    4.8690   -6.0383   22.4459 N   0  0  0  0  0  0  0  0  0  0  0  0
    7.0459   -5.4877   22.6208 N   0  0  0  0  0  0  0  0  0  0  0  0
    7.2820   -0.7860   20.6970 N   0  0  0  0  0  0  0  0  0  0  0  0
    8.7221   -2.5828   22.0943 N   0  0  0  0  0  0  0  0  0  0  0  0
    5.8091   -4.6421   20.8036 O   0  0  0  0  0  0  0  0  0  0  0  0
    8.3666   -3.4176   24.2335 O   0  0  0  0  0  0  0  0  0  0  0  0
    8.9170    0.7530   21.0260 O   0  0  0  0  0  0  0  0  0  0  0  0
   13.8840   -1.8490   21.2740 Cl  0  0  0  0  0  0  0  0  0  0  0  0
    1.5267    1.3276   19.8311 H   0  0  0  0  0  0  0  0  0  0  0  0
    2.5946    0.3257   21.8297 H   0  0  0  0  0  0  0  0  0  0  0  0
   12.2249    1.2198   24.6546 H   0  0  0  0  0  0  0  0  0  0  0  0
    2.8114    1.6119   17.7455 H   0  0  0  0  0  0  0  0  0  0  0  0
    4.9338   -0.3933   21.7630 H   0  0  0  0  0  0  0  0  0  0  0  0
    9.8763    0.5350   24.3454 H   0  0  0  0  0  0  0  0  0  0  0  0
   14.0077    0.1988   23.2842 H   0  0  0  0  0  0  0  0  0  0  0  0
   11.0892   -2.3009   21.3624 H   0  0  0  0  0  0  0  0  0  0  0  0
    5.0078    1.3308   16.4920 H   0  0  0  0  0  0  0  0  0  0  0  0
    8.3038   -0.3142   18.2963 H   0  0  0  0  0  0  0  0  0  0  0  0
    4.0104   -6.8363   19.9303 H   0  0  0  0  0  0  0  0  0  0  0  0
    2.3819   -6.0325   20.0748 H   0  0  0  0  0  0  0  0  0  0  0  0
    1.8112   -7.5407   21.9978 H   0  0  0  0  0  0  0  0  0  0  0  0
    3.4405   -8.3421   21.8504 H   0  0  0  0  0  0  0  0  0  0  0  0
    5.1047   -7.7445   23.6226 H   0  0  0  0  0  0  0  0  0  0  0  0
    4.7692   -6.2237   24.5118 H   0  0  0  0  0  0  0  0  0  0  0  0
    7.0794   -5.8722   24.6699 H   0  0  0  0  0  0  0  0  0  0  0  0
    7.4020   -7.2799   23.6072 H   0  0  0  0  0  0  0  0  0  0  0  0
    2.8978   -5.3340   22.4136 H   0  0  0  0  0  0  0  0  0  0  0  0
    8.4884   -4.8229   21.2760 H   0  0  0  0  0  0  0  0  0  0  0  0
    9.1188   -5.6101   22.7488 H   0  0  0  0  0  0  0  0  0  0  0  0
    8.2436   -1.0112   23.3272 H   0  0  0  0  0  0  0  0  0  0  0  0
    6.8975   -1.6551   21.0614 H   0  0  0  0  0  0  0  0  0  0  0  0
    8.7940   -2.8393   21.1140 H   0  0  0  0  0  0  0  0  0  0  0  0
  1  2  1  0  0  0  0
  1  4  2  0  0  0  0
  2  5  2  0  0  0  0
  3  6  2  0  0  0  0
  3  7  1  0  0  0  0
  4 11  1  0  0  0  0
  5 12  1  0  0  0  0
  6 13  1  0  0  0  0
  7 15  2  0  0  0  0
  8 13  2  0  0  0  0
  8 15  1  0  0  0  0
  9 11  2  0  0  0  0
  9 26  1  0  0  0  0
 10 14  1  0  0  0  0
 10 26  2  0  0  0  0
 11 12  1  0  0  0  0
 12 14  2  0  0  0  0
 13 25  1  0  0  0  0
 14 29  1  0  0  0  0
 15 34  1  0  0  0  0
 16 27  1  0  0  0  0
 16 28  1  0  0  0  0
 16 31  2  0  0  0  0
 17 24  1  0  0  0  0
 17 30  1  0  0  0  0
 17 32  2  0  0  0  0
 18 25  1  6  0  0  0
 18 29  1  0  0  0  0
 18 33  2  0  0  0  0
 19 20  1  0  0  0  0
 19 23  1  0  0  0  0
 20 23  1  0  0  0  0
 21 22  1  0  0  0  0
 21 27  1  0  0  0  0
 22 28  1  0  0  0  0
 23 27  1  0  0  0  0
 24 28  1  0  0  0  0
 25 30  1  0  0  0  0
  1 35  1  0  0  0  0
  2 36  1  0  0  0  0
  3 37  1  0  0  0  0
  4 38  1  0  0  0  0
  5 39  1  0  0  0  0
  6 40  1  0  0  0  0
  7 41  1  0  0  0  0
  8 42  1  0  0  0  0
  9 43  1  0  0  0  0
 10 44  1  0  0  0  0
 19 45  1  0  0  0  0
 19 46  1  0  0  0  0
 20 47  1  0  0  0  0
 20 48  1  0  0  0  0
 21 49  1  0  0  0  0
 21 50  1  0  0  0  0
 22 51  1  0  0  0  0
 22 52  1  0  0  0  0
 23 53  1  0  0  0  0
 24 54  1  0  0  0  0
 24 55  1  0  0  0  0
 25 56  1  0  0  0  0
 29 57  1  0  0  0  0
 30 58  1  0  0  0  0
M  END
> <compound>
EDJ-MED-ee07cf00-18

> <compound_smiles>
c1ccc2c(c1)cncc2NC(=O)C(c3cccc(c3)Cl)NC(=O)CN4CCN(C4=O)C5CC5

> <enantiomer_smiles>
c1ccc2c(c1)cncc2NC(=O)[C@H](c3cccc(c3)Cl)NC(=O)CN4CCN(C4=O)C5CC5

> <scaffold>
chlorobenzene-linker

> <canonical_CID>
EDJ-MED-ee07cf00-18

> <r_inhibition_at_20_uM>

> <r_inhibition_at_50_uM>

> <r_avg_IC50>

> <f_inhibition_at_20_uM>

> <f_inhibition_at_50_uM>

> <f_avg_IC50>
2.34776259878291

> <f_avg_pIC50>

> <relative_solubility_at_20_uM>

> <relative_solubility_at_100_uM>

> <trypsin_IC50>

> <NMR_std_ratio>

> <acrylamide>
False

> <chloroacetamide>
False

> <series>
Ugi

> <frag_id>

> <clash_score>
0.7355010798521471

> <docking_score>
-4.065587997436523

> <overlap_score>
0.8858832120895386

> <MMFF_internal_energy>
99.4915682587816

> <docked_smiles>
c1ccc2c(c1)cncc2NC(=O)[C@H](c3cccc(c3)Cl)NC(=O)CN4CCN(C4=O)C5CC5

$$$$
EDJ-MED-ee07cf00-4_3
  -OEChem-07262101023D

 58 61  0     1  0  0  0  0  0999 V2000
    3.4420    2.5357   20.0698 C   0  0  0  0  0  0  0  0  0  0  0  0
    4.0762    2.0251   21.2000 C   0  0  0  0  0  0  0  0  0  0  0  0
   11.9780    0.4600   23.9150 C   0  0  0  0  0  0  0  0  0  0  0  0
    3.8501    2.1333   18.7984 C   0  0  0  0  0  0  0  0  0  0  0  0
    5.1214    1.1099   21.0639 C   0  0  0  0  0  0  0  0  0  0  0  0
   10.6560    0.0720   23.7350 C   0  0  0  0  0  0  0  0  0  0  0  0
   12.9840   -0.1200   23.1530 C   0  0  0  0  0  0  0  0  0  0  0  0
   11.3360   -1.5050   22.0650 C   0  0  0  0  0  0  0  0  0  0  0  0
    5.3494    0.7759   17.4016 C   0  0  0  0  0  0  0  0  0  0  0  0
    6.9497   -0.5836   18.3322 C   0  0  0  0  0  0  0  0  0  0  0  0
    4.9007    1.2128   18.6495 C   0  0  0  0  0  0  0  0  0  0  0  0
    5.5453    0.6936   19.7912 C   0  0  0  0  0  0  0  0  0  0  0  0
   10.3220   -0.8940   22.7910 C   0  0  0  0  0  0  0  0  0  0  0  0
    6.5899   -0.2225   19.6216 C   0  0  0  0  0  0  0  0  0  0  0  0
   12.6400   -1.1000   22.2390 C   0  0  0  0  0  0  0  0  0  0  0  0
    5.6423   -3.4901   26.4153 C   0  0  0  0  0  0  0  0  0  0  0  0
    8.3880   -0.3240   21.3070 C   0  0  0  0  0  0  0  0  0  0  0  0
    7.7972   -1.9749   24.5451 C   0  0  0  0  0  0  0  0  0  0  0  0
    6.2167   -6.5494   28.0675 C   0  0  0  0  0  0  0  0  0  0  0  0
    5.2177   -6.0223   27.0208 C   0  0  0  0  0  0  0  0  0  0  0  0
    6.9368   -5.1923   27.9595 C   0  0  0  0  0  0  0  0  0  0  0  0
    5.5905   -4.5883   27.4804 C   0  0  0  0  0  0  0  0  0  0  0  0
    7.5705   -0.3183   26.4138 C   0  0  0  0  0  0  0  0  0  0  0  0
    8.8810   -1.1900   22.4510 C   0  0  2  0  0  0  0  0  0  0  0  0
    6.9173   -1.4834   25.6869 C   0  0  1  0  0  0  0  0  0  0  0  0
    6.3562   -0.1077   17.2169 N   0  0  0  0  0  0  0  0  0  0  0  0
    7.2820   -0.7860   20.6970 N   0  0  0  0  0  0  0  0  0  0  0  0
    6.6835   -2.5907   26.5761 N   0  0  0  0  0  0  0  0  0  0  0  0
    8.0352   -0.9804   23.6107 N   0  0  0  0  0  0  0  0  0  0  0  0
    4.8012   -3.4723   25.5243 O   0  0  0  0  0  0  0  0  0  0  0  0
    8.9170    0.7530   21.0260 O   0  0  0  0  0  0  0  0  0  0  0  0
    8.2619   -3.1120   24.4979 O   0  0  0  0  0  0  0  0  0  0  0  0
   13.8840   -1.8490   21.2740 Cl  0  0  0  0  0  0  0  0  0  0  0  0
    2.6290    3.2475   20.1787 H   0  0  0  0  0  0  0  0  0  0  0  0
    3.7567    2.3397   22.1895 H   0  0  0  0  0  0  0  0  0  0  0  0
   12.2249    1.2198   24.6546 H   0  0  0  0  0  0  0  0  0  0  0  0
    3.3440    2.5417   17.9267 H   0  0  0  0  0  0  0  0  0  0  0  0
    5.5920    0.7344   21.9697 H   0  0  0  0  0  0  0  0  0  0  0  0
    9.8763    0.5350   24.3454 H   0  0  0  0  0  0  0  0  0  0  0  0
   14.0077    0.1988   23.2842 H   0  0  0  0  0  0  0  0  0  0  0  0
   11.0892   -2.3009   21.3624 H   0  0  0  0  0  0  0  0  0  0  0  0
    4.8966    1.1359   16.4818 H   0  0  0  0  0  0  0  0  0  0  0  0
    7.7531   -1.2911   18.1477 H   0  0  0  0  0  0  0  0  0  0  0  0
    5.7689   -6.7339   29.0507 H   0  0  0  0  0  0  0  0  0  0  0  0
    6.8009   -7.4239   27.7707 H   0  0  0  0  0  0  0  0  0  0  0  0
    5.5077   -6.2426   25.9878 H   0  0  0  0  0  0  0  0  0  0  0  0
    4.1798   -6.3262   27.1729 H   0  0  0  0  0  0  0  0  0  0  0  0
    7.3376   -4.8016   28.8973 H   0  0  0  0  0  0  0  0  0  0  0  0
    7.7237   -5.1727   27.1978 H   0  0  0  0  0  0  0  0  0  0  0  0
    4.9706   -4.2739   28.3378 H   0  0  0  0  0  0  0  0  0  0  0  0
    8.5503   -0.6006   26.8159 H   0  0  0  0  0  0  0  0  0  0  0  0
    7.7216    0.5336   25.7427 H   0  0  0  0  0  0  0  0  0  0  0  0
    6.9502    0.0145   27.2530 H   0  0  0  0  0  0  0  0  0  0  0  0
    8.7711   -2.2448   22.1651 H   0  0  0  0  0  0  0  0  0  0  0  0
    5.9405   -1.1828   25.2926 H   0  0  0  0  0  0  0  0  0  0  0  0
    6.8984   -1.6618   21.0676 H   0  0  0  0  0  0  0  0  0  0  0  0
    7.3159   -2.7195   27.3639 H   0  0  0  0  0  0  0  0  0  0  0  0
    7.5790   -0.0802   23.7041 H   0  0  0  0  0  0  0  0  0  0  0  0
  1  2  1  0  0  0  0
  1  4  2  0  0  0  0
  2  5  2  0  0  0  0
  3  6  2  0  0  0  0
  3  7  1  0  0  0  0
  4 11  1  0  0  0  0
  5 12  1  0  0  0  0
  6 13  1  0  0  0  0
  7 15  2  0  0  0  0
  8 13  2  0  0  0  0
  8 15  1  0  0  0  0
  9 11  2  0  0  0  0
  9 26  1  0  0  0  0
 10 14  1  0  0  0  0
 10 26  2  0  0  0  0
 11 12  1  0  0  0  0
 12 14  2  0  0  0  0
 13 24  1  0  0  0  0
 14 27  1  0  0  0  0
 15 33  1  0  0  0  0
 16 22  1  0  0  0  0
 16 28  1  0  0  0  0
 16 30  2  0  0  0  0
 17 24  1  6  0  0  0
 17 27  1  0  0  0  0
 17 31  2  0  0  0  0
 18 25  1  0  0  0  0
 18 29  1  0  0  0  0
 18 32  2  0  0  0  0
 19 20  1  0  0  0  0
 19 21  1  0  0  0  0
 20 22  1  0  0  0  0
 21 22  1  0  0  0  0
 23 25  1  1  0  0  0
 24 29  1  0  0  0  0
 25 28  1  0  0  0  0
  1 34  1  0  0  0  0
  2 35  1  0  0  0  0
  3 36  1  0  0  0  0
  4 37  1  0  0  0  0
  5 38  1  0  0  0  0
  6 39  1  0  0  0  0
  7 40  1  0  0  0  0
  8 41  1  0  0  0  0
  9 42  1  0  0  0  0
 10 43  1  0  0  0  0
 19 44  1  0  0  0  0
 19 45  1  0  0  0  0
 20 46  1  0  0  0  0
 20 47  1  0  0  0  0
 21 48  1  0  0  0  0
 21 49  1  0  0  0  0
 22 50  1  0  0  0  0
 23 51  1  0  0  0  0
 23 52  1  0  0  0  0
 23 53  1  0  0  0  0
 24 54  1  0  0  0  0
 25 55  1  0  0  0  0
 27 56  1  0  0  0  0
 28 57  1  0  0  0  0
 29 58  1  0  0  0  0
M  END
> <compound>
EDJ-MED-ee07cf00-4

> <compound_smiles>
CC(C(=O)NC(c1cccc(c1)Cl)C(=O)Nc2cncc3c2cccc3)NC(=O)C4CCC4

> <enantiomer_smiles>
C[C@@H](C(=O)N[C@H](c1cccc(c1)Cl)C(=O)Nc2cncc3c2cccc3)NC(=O)C4CCC4

> <scaffold>
chlorobenzene-linker

> <canonical_CID>
EDJ-MED-ee07cf00-4

> <r_inhibition_at_20_uM>

> <r_inhibition_at_50_uM>

> <r_avg_IC50>

> <f_inhibition_at_20_uM>

> <f_inhibition_at_50_uM>

> <f_avg_IC50>
4.80589118082366

> <f_avg_pIC50>

> <relative_solubility_at_20_uM>

> <relative_solubility_at_100_uM>

> <trypsin_IC50>

> <NMR_std_ratio>

> <acrylamide>
False

> <chloroacetamide>
False

> <series>
Ugi

> <frag_id>

> <clash_score>
0

> <docking_score>
-11.502016067504883

> <overlap_score>
0.9725816249847412

> <MMFF_internal_energy>
125.68324912384249

> <docked_smiles>
C[C@@H](C(=O)N[C@H](c1cccc(c1)Cl)C(=O)Nc2cncc3c2cccc3)NC(=O)C4CCC4

$$$$
EDJ-MED-ee07cf00-12_1
  -OEChem-07262101023D

 56 59  0     1  0  0  0  0  0999 V2000
    2.5578    0.9697   19.8184 C   0  0  0  0  0  0  0  0  0  0  0  0
    3.1679    0.4166   20.9418 C   0  0  0  0  0  0  0  0  0  0  0  0
   11.9780    0.4600   23.9150 C   0  0  0  0  0  0  0  0  0  0  0  0
    3.2816    1.1263   18.6365 C   0  0  0  0  0  0  0  0  0  0  0  0
    4.5045    0.0176   20.8886 C   0  0  0  0  0  0  0  0  0  0  0  0
    2.5884   -2.8691   27.1435 C   0  0  0  0  0  0  0  0  0  0  0  0
    3.3699   -0.6613   27.7366 C   0  0  0  0  0  0  0  0  0  0  0  0
   10.6560    0.0720   23.7350 C   0  0  0  0  0  0  0  0  0  0  0  0
    3.8505   -3.1799   26.6372 C   0  0  0  0  0  0  0  0  0  0  0  0
    4.6320   -0.9720   27.2304 C   0  0  0  0  0  0  0  0  0  0  0  0
   12.9840   -0.1200   23.1530 C   0  0  0  0  0  0  0  0  0  0  0  0
   11.3360   -1.5050   22.0650 C   0  0  0  0  0  0  0  0  0  0  0  0
    5.3983    0.8618   17.4152 C   0  0  0  0  0  0  0  0  0  0  0  0
    7.2560   -0.0413   18.4191 C   0  0  0  0  0  0  0  0  0  0  0  0
    4.6272    0.7281   18.5715 C   0  0  0  0  0  0  0  0  0  0  0  0
    5.2484    0.1678   19.7068 C   0  0  0  0  0  0  0  0  0  0  0  0
    2.3482   -1.6098   27.6931 C   0  0  0  0  0  0  0  0  0  0  0  0
   10.3220   -0.8940   22.7910 C   0  0  0  0  0  0  0  0  0  0  0  0
    6.5899   -0.2225   19.6216 C   0  0  0  0  0  0  0  0  0  0  0  0
    4.8723   -2.2313   26.6807 C   0  0  0  0  0  0  0  0  0  0  0  0
   12.6400   -1.1000   22.2390 C   0  0  0  0  0  0  0  0  0  0  0  0
    1.0324   -1.2857   28.2212 C   0  0  0  0  0  0  0  0  0  0  0  0
    7.7914   -1.9673   24.5495 C   0  0  0  0  0  0  0  0  0  0  0  0
    8.3880   -0.3240   21.3070 C   0  0  0  0  0  0  0  0  0  0  0  0
    6.8772   -1.4734   25.6503 C   0  0  0  0  0  0  0  0  0  0  0  0
    8.8810   -1.1900   22.4510 C   0  0  1  0  0  0  0  0  0  0  0  0
    6.6946    0.4912   17.3129 N   0  0  0  0  0  0  0  0  0  0  0  0
    0.0479   -2.2672   28.1541 N   0  0  0  0  0  0  0  0  0  0  0  0
    7.2820   -0.7860   20.6970 N   0  0  0  0  0  0  0  0  0  0  0  0
    8.0352   -0.9804   23.6107 N   0  0  0  0  0  0  0  0  0  0  0  0
    0.7847   -0.1659   28.7020 O   0  0  0  0  0  0  0  0  0  0  0  0
    8.2435   -3.1088   24.5240 O   0  0  0  0  0  0  0  0  0  0  0  0
    8.9170    0.7530   21.0260 O   0  0  0  0  0  0  0  0  0  0  0  0
    6.1163   -2.5373   26.1816 O   0  0  0  0  0  0  0  0  0  0  0  0
   13.8840   -1.8490   21.2740 Cl  0  0  0  0  0  0  0  0  0  0  0  0
    1.5177    1.2791   19.8625 H   0  0  0  0  0  0  0  0  0  0  0  0
    2.6022    0.2953   21.8613 H   0  0  0  0  0  0  0  0  0  0  0  0
   12.2249    1.2198   24.6546 H   0  0  0  0  0  0  0  0  0  0  0  0
    2.7899    1.5598   17.7687 H   0  0  0  0  0  0  0  0  0  0  0  0
    4.9456   -0.4092   21.7864 H   0  0  0  0  0  0  0  0  0  0  0  0
    1.8000   -3.6164   27.1045 H   0  0  0  0  0  0  0  0  0  0  0  0
    3.1930    0.3228   28.1631 H   0  0  0  0  0  0  0  0  0  0  0  0
    9.8763    0.5350   24.3454 H   0  0  0  0  0  0  0  0  0  0  0  0
    4.0314   -4.1625   26.2102 H   0  0  0  0  0  0  0  0  0  0  0  0
    5.4240   -0.2290   27.2666 H   0  0  0  0  0  0  0  0  0  0  0  0
   14.0077    0.1988   23.2842 H   0  0  0  0  0  0  0  0  0  0  0  0
   11.0892   -2.3009   21.3624 H   0  0  0  0  0  0  0  0  0  0  0  0
    4.9815    1.2854   16.5055 H   0  0  0  0  0  0  0  0  0  0  0  0
    8.2971   -0.3285   18.3019 H   0  0  0  0  0  0  0  0  0  0  0  0
    7.4810   -1.0428   26.4549 H   0  0  0  0  0  0  0  0  0  0  0  0
    6.2009   -0.7060   25.2609 H   0  0  0  0  0  0  0  0  0  0  0  0
    8.7711   -2.2448   22.1651 H   0  0  0  0  0  0  0  0  0  0  0  0
    0.2724   -3.1677   27.7449 H   0  0  0  0  0  0  0  0  0  0  0  0
   -0.8897   -2.1018   28.5057 H   0  0  0  0  0  0  0  0  0  0  0  0
    6.8984   -1.6618   21.0676 H   0  0  0  0  0  0  0  0  0  0  0  0
    7.6039   -0.0720   23.7399 H   0  0  0  0  0  0  0  0  0  0  0  0
  1  2  1  0  0  0  0
  1  4  2  0  0  0  0
  2  5  2  0  0  0  0
  3  8  2  0  0  0  0
  3 11  1  0  0  0  0
  4 15  1  0  0  0  0
  5 16  1  0  0  0  0
  6  9  2  0  0  0  0
  6 17  1  0  0  0  0
  7 10  1  0  0  0  0
  7 17  2  0  0  0  0
  8 18  1  0  0  0  0
  9 20  1  0  0  0  0
 10 20  2  0  0  0  0
 11 21  2  0  0  0  0
 12 18  2  0  0  0  0
 12 21  1  0  0  0  0
 13 15  2  0  0  0  0
 13 27  1  0  0  0  0
 14 19  1  0  0  0  0
 14 27  2  0  0  0  0
 15 16  1  0  0  0  0
 16 19  2  0  0  0  0
 17 22  1  0  0  0  0
 18 26  1  0  0  0  0
 19 29  1  0  0  0  0
 20 34  1  0  0  0  0
 21 35  1  0  0  0  0
 22 28  1  0  0  0  0
 22 31  2  0  0  0  0
 23 25  1  0  0  0  0
 23 30  1  0  0  0  0
 23 32  2  0  0  0  0
 24 26  1  1  0  0  0
 24 29  1  0  0  0  0
 24 33  2  0  0  0  0
 25 34  1  0  0  0  0
 26 30  1  0  0  0  0
  1 36  1  0  0  0  0
  2 37  1  0  0  0  0
  3 38  1  0  0  0  0
  4 39  1  0  0  0  0
  5 40  1  0  0  0  0
  6 41  1  0  0  0  0
  7 42  1  0  0  0  0
  8 43  1  0  0  0  0
  9 44  1  0  0  0  0
 10 45  1  0  0  0  0
 11 46  1  0  0  0  0
 12 47  1  0  0  0  0
 13 48  1  0  0  0  0
 14 49  1  0  0  0  0
 25 50  1  0  0  0  0
 25 51  1  0  0  0  0
 26 52  1  0  0  0  0
 28 53  1  0  0  0  0
 28 54  1  0  0  0  0
 29 55  1  0  0  0  0
 30 56  1  0  0  0  0
M  END
> <compound>
EDJ-MED-ee07cf00-12

> <compound_smiles>
c1ccc2c(c1)cncc2NC(=O)C(c3cccc(c3)Cl)NC(=O)COc4ccc(cc4)C(=O)N

> <enantiomer_smiles>
c1ccc2c(c1)cncc2NC(=O)[C@@H](c3cccc(c3)Cl)NC(=O)COc4ccc(cc4)C(=O)N

> <scaffold>
chlorobenzene-linker

> <canonical_CID>
EDJ-MED-ee07cf00-12

> <r_inhibition_at_20_uM>

> <r_inhibition_at_50_uM>

> <r_avg_IC50>

> <f_inhibition_at_20_uM>

> <f_inhibition_at_50_uM>

> <f_avg_IC50>
3.03275830744667

> <f_avg_pIC50>

> <relative_solubility_at_20_uM>

> <relative_solubility_at_100_uM>

> <trypsin_IC50>

> <NMR_std_ratio>

> <acrylamide>
False

> <chloroacetamide>
False

> <series>
Ugi

> <frag_id>

> <clash_score>
0.6126632501718468

> <docking_score>
-3.8499131202697754

> <overlap_score>
0.8806202411651611

> <MMFF_internal_energy>
145.4992734434603

> <docked_smiles>
c1ccc2c(c1)cncc2NC(=O)[C@@H](c3cccc(c3)Cl)NC(=O)COc4ccc(cc4)C(=O)N

$$$$
PET-UNK-e8c7a26f-2_1
  -OEChem-07262101023D

 34 35  0     0  0  0  0  0  0999 V2000
   11.9780    0.4600   23.9150 C   0  0  0  0  0  0  0  0  0  0  0  0
    5.2347    2.3180   20.2904 C   0  0  0  0  0  0  0  0  0  0  0  0
   10.6560    0.0720   23.7350 C   0  0  0  0  0  0  0  0  0  0  0  0
    6.1616    1.4152   20.7995 C   0  0  0  0  0  0  0  0  0  0  0  0
   12.9840   -0.1200   23.1530 C   0  0  0  0  0  0  0  0  0  0  0  0
   11.3360   -1.5050   22.0650 C   0  0  0  0  0  0  0  0  0  0  0  0
    4.5009    1.9365   19.1788 C   0  0  0  0  0  0  0  0  0  0  0  0
    5.5413   -0.1096   19.0831 C   0  0  0  0  0  0  0  0  0  0  0  0
   10.3220   -0.8940   22.7910 C   0  0  0  0  0  0  0  0  0  0  0  0
    6.3241    0.1761   20.1901 C   0  0  0  0  0  0  0  0  0  0  0  0
   12.6400   -1.1000   22.2390 C   0  0  0  0  0  0  0  0  0  0  0  0
    8.1936   -4.2867   20.8555 C   0  0  0  0  0  0  0  0  0  0  0  0
    8.2234   -3.0196   20.4317 C   0  0  0  0  0  0  0  0  0  0  0  0
    7.0059   -2.1604   20.5249 C   0  0  0  0  0  0  0  0  0  0  0  0
    8.3880   -0.3240   21.3070 C   0  0  0  0  0  0  0  0  0  0  0  0
    8.8810   -1.1900   22.4510 C   0  0  0  0  0  0  0  0  0  0  0  0
    4.6307    0.7417   18.5598 N   0  0  0  0  0  0  0  0  0  0  0  0
    7.2820   -0.7860   20.6970 N   0  0  0  0  0  0  0  0  0  0  0  0
    5.8782   -2.6498   20.4778 O   0  0  0  0  0  0  0  0  0  0  0  0
    8.9170    0.7530   21.0260 O   0  0  0  0  0  0  0  0  0  0  0  0
   13.8840   -1.8490   21.2740 Cl  0  0  0  0  0  0  0  0  0  0  0  0
   12.2249    1.2198   24.6546 H   0  0  0  0  0  0  0  0  0  0  0  0
    5.0914    3.2895   20.7494 H   0  0  0  0  0  0  0  0  0  0  0  0
    9.8763    0.5350   24.3454 H   0  0  0  0  0  0  0  0  0  0  0  0
    6.7516    1.6873   21.6708 H   0  0  0  0  0  0  0  0  0  0  0  0
   14.0077    0.1988   23.2842 H   0  0  0  0  0  0  0  0  0  0  0  0
   11.0892   -2.3009   21.3624 H   0  0  0  0  0  0  0  0  0  0  0  0
    3.7658    2.6051   18.7430 H   0  0  0  0  0  0  0  0  0  0  0  0
    5.6224   -1.0603   18.5645 H   0  0  0  0  0  0  0  0  0  0  0  0
    9.0797   -4.9072   20.7716 H   0  0  0  0  0  0  0  0  0  0  0  0
    7.3087   -4.7362   21.2918 H   0  0  0  0  0  0  0  0  0  0  0  0
    9.1273   -2.6130   19.9923 H   0  0  0  0  0  0  0  0  0  0  0  0
    8.7694   -2.2423   22.1628 H   0  0  0  0  0  0  0  0  0  0  0  0
    8.2812   -1.0412   23.3569 H   0  0  0  0  0  0  0  0  0  0  0  0
  1  3  2  0  0  0  0
  1  5  1  0  0  0  0
  2  4  2  0  0  0  0
  2  7  1  0  0  0  0
  3  9  1  0  0  0  0
  4 10  1  0  0  0  0
  5 11  2  0  0  0  0
  6  9  2  0  0  0  0
  6 11  1  0  0  0  0
  7 17  2  0  0  0  0
  8 10  2  0  0  0  0
  8 17  1  0  0  0  0
  9 16  1  0  0  0  0
 10 18  1  0  0  0  0
 11 21  1  0  0  0  0
 12 13  2  0  0  0  0
 13 14  1  0  0  0  0
 14 18  1  0  0  0  0
 14 19  2  0  0  0  0
 15 16  1  0  0  0  0
 15 18  1  0  0  0  0
 15 20  2  0  0  0  0
  1 22  1  0  0  0  0
  2 23  1  0  0  0  0
  3 24  1  0  0  0  0
  4 25  1  0  0  0  0
  5 26  1  0  0  0  0
  6 27  1  0  0  0  0
  7 28  1  0  0  0  0
  8 29  1  0  0  0  0
 12 30  1  0  0  0  0
 12 31  1  0  0  0  0
 13 32  1  0  0  0  0
 16 33  1  0  0  0  0
 16 34  1  0  0  0  0
M  END
> <compound>
PET-UNK-e8c7a26f-2

> <compound_smiles>
C=CC(=O)N(c1cccnc1)C(=O)Cc2cccc(c2)Cl

> <enantiomer_smiles>
C=CC(=O)N(c1cccnc1)C(=O)Cc2cccc(c2)Cl

> <scaffold>
chlorobenzene-linker

> <clash_score>
1.3831924890971194

> <docking_score>
-4.923949241638184

> <overlap_score>
0.7995193004608154

> <MMFF_internal_energy>
88.59967332917294

> <docked_smiles>
C=CC(=O)N(c1cccnc1)C(=O)Cc2cccc(c2)Cl

$$$$
EDJ-MED-ee07cf00-4_4
  -OEChem-07262101023D

 58 61  0     1  0  0  0  0  0999 V2000
    3.4420    2.5357   20.0699 C   0  0  0  0  0  0  0  0  0  0  0  0
    4.0762    2.0251   21.2001 C   0  0  0  0  0  0  0  0  0  0  0  0
   11.9780    0.4600   23.9150 C   0  0  0  0  0  0  0  0  0  0  0  0
    3.8501    2.1333   18.7984 C   0  0  0  0  0  0  0  0  0  0  0  0
    5.1214    1.1099   21.0639 C   0  0  0  0  0  0  0  0  0  0  0  0
   10.6560    0.0720   23.7350 C   0  0  0  0  0  0  0  0  0  0  0  0
   12.9840   -0.1200   23.1530 C   0  0  0  0  0  0  0  0  0  0  0  0
   11.3360   -1.5050   22.0650 C   0  0  0  0  0  0  0  0  0  0  0  0
    5.3494    0.7759   17.4016 C   0  0  0  0  0  0  0  0  0  0  0  0
    6.9497   -0.5836   18.3322 C   0  0  0  0  0  0  0  0  0  0  0  0
    4.9007    1.2128   18.6495 C   0  0  0  0  0  0  0  0  0  0  0  0
    5.5453    0.6936   19.7913 C   0  0  0  0  0  0  0  0  0  0  0  0
   10.3220   -0.8940   22.7910 C   0  0  0  0  0  0  0  0  0  0  0  0
    6.5899   -0.2225   19.6216 C   0  0  0  0  0  0  0  0  0  0  0  0
   12.6400   -1.1000   22.2390 C   0  0  0  0  0  0  0  0  0  0  0  0
    8.4926   -0.4243   27.2928 C   0  0  0  0  0  0  0  0  0  0  0  0
    8.3880   -0.3240   21.3070 C   0  0  0  0  0  0  0  0  0  0  0  0
    7.7972   -1.9749   24.5451 C   0  0  0  0  0  0  0  0  0  0  0  0
   10.9771   -0.2244   29.7841 C   0  0  0  0  0  0  0  0  0  0  0  0
   10.7326   -1.0759   28.5245 C   0  0  0  0  0  0  0  0  0  0  0  0
    9.7330    0.5920   29.3872 C   0  0  0  0  0  0  0  0  0  0  0  0
    9.2415   -0.6561   28.6076 C   0  0  0  0  0  0  0  0  0  0  0  0
    5.6784   -2.3535   25.8318 C   0  0  0  0  0  0  0  0  0  0  0  0
    8.8810   -1.1900   22.4510 C   0  0  2  0  0  0  0  0  0  0  0  0
    6.9173   -1.4834   25.6869 C   0  0  2  0  0  0  0  0  0  0  0  0
    6.3561   -0.1077   17.2169 N   0  0  0  0  0  0  0  0  0  0  0  0
    7.2820   -0.7860   20.6970 N   0  0  0  0  0  0  0  0  0  0  0  0
    7.7057   -1.4911   26.8909 N   0  0  0  0  0  0  0  0  0  0  0  0
    8.0352   -0.9804   23.6107 N   0  0  0  0  0  0  0  0  0  0  0  0
    8.6252    0.6409   26.7016 O   0  0  0  0  0  0  0  0  0  0  0  0
    8.9170    0.7530   21.0260 O   0  0  0  0  0  0  0  0  0  0  0  0
    8.2619   -3.1120   24.4979 O   0  0  0  0  0  0  0  0  0  0  0  0
   13.8840   -1.8490   21.2740 Cl  0  0  0  0  0  0  0  0  0  0  0  0
    2.6290    3.2475   20.1787 H   0  0  0  0  0  0  0  0  0  0  0  0
    3.7567    2.3397   22.1895 H   0  0  0  0  0  0  0  0  0  0  0  0
   12.2249    1.2198   24.6546 H   0  0  0  0  0  0  0  0  0  0  0  0
    3.3440    2.5417   17.9267 H   0  0  0  0  0  0  0  0  0  0  0  0
    5.5920    0.7344   21.9697 H   0  0  0  0  0  0  0  0  0  0  0  0
    9.8763    0.5350   24.3454 H   0  0  0  0  0  0  0  0  0  0  0  0
   14.0077    0.1988   23.2842 H   0  0  0  0  0  0  0  0  0  0  0  0
   11.0892   -2.3009   21.3624 H   0  0  0  0  0  0  0  0  0  0  0  0
    4.8966    1.1359   16.4818 H   0  0  0  0  0  0  0  0  0  0  0  0
    7.7531   -1.2911   18.1477 H   0  0  0  0  0  0  0  0  0  0  0  0
   10.8592   -0.7799   30.7215 H   0  0  0  0  0  0  0  0  0  0  0  0
   11.9202    0.3268   29.8110 H   0  0  0  0  0  0  0  0  0  0  0  0
   11.2467   -0.6991   27.6338 H   0  0  0  0  0  0  0  0  0  0  0  0
   10.9434   -2.1418   28.6345 H   0  0  0  0  0  0  0  0  0  0  0  0
    9.1073    0.9219   30.2193 H   0  0  0  0  0  0  0  0  0  0  0  0
    9.9582    1.4508   28.7458 H   0  0  0  0  0  0  0  0  0  0  0  0
    8.6750   -1.3364   29.2667 H   0  0  0  0  0  0  0  0  0  0  0  0
    5.9478   -3.4001   26.0153 H   0  0  0  0  0  0  0  0  0  0  0  0
    5.0557   -2.0209   26.6688 H   0  0  0  0  0  0  0  0  0  0  0  0
    5.0710   -2.3215   24.9209 H   0  0  0  0  0  0  0  0  0  0  0  0
    8.7711   -2.2448   22.1651 H   0  0  0  0  0  0  0  0  0  0  0  0
    6.6286   -0.4426   25.5043 H   0  0  0  0  0  0  0  0  0  0  0  0
    6.8984   -1.6618   21.0676 H   0  0  0  0  0  0  0  0  0  0  0  0
    7.6841   -2.3234   27.4773 H   0  0  0  0  0  0  0  0  0  0  0  0
    7.5790   -0.0802   23.7041 H   0  0  0  0  0  0  0  0  0  0  0  0
  1  2  1  0  0  0  0
  1  4  2  0  0  0  0
  2  5  2  0  0  0  0
  3  6  2  0  0  0  0
  3  7  1  0  0  0  0
  4 11  1  0  0  0  0
  5 12  1  0  0  0  0
  6 13  1  0  0  0  0
  7 15  2  0  0  0  0
  8 13  2  0  0  0  0
  8 15  1  0  0  0  0
  9 11  2  0  0  0  0
  9 26  1  0  0  0  0
 10 14  1  0  0  0  0
 10 26  2  0  0  0  0
 11 12  1  0  0  0  0
 12 14  2  0  0  0  0
 13 24  1  0  0  0  0
 14 27  1  0  0  0  0
 15 33  1  0  0  0  0
 16 22  1  0  0  0  0
 16 28  1  0  0  0  0
 16 30  2  0  0  0  0
 17 24  1  6  0  0  0
 17 27  1  0  0  0  0
 17 31  2  0  0  0  0
 18 25  1  0  0  0  0
 18 29  1  0  0  0  0
 18 32  2  0  0  0  0
 19 20  1  0  0  0  0
 19 21  1  0  0  0  0
 20 22  1  0  0  0  0
 21 22  1  0  0  0  0
 23 25  1  6  0  0  0
 24 29  1  0  0  0  0
 25 28  1  0  0  0  0
  1 34  1  0  0  0  0
  2 35  1  0  0  0  0
  3 36  1  0  0  0  0
  4 37  1  0  0  0  0
  5 38  1  0  0  0  0
  6 39  1  0  0  0  0
  7 40  1  0  0  0  0
  8 41  1  0  0  0  0
  9 42  1  0  0  0  0
 10 43  1  0  0  0  0
 19 44  1  0  0  0  0
 19 45  1  0  0  0  0
 20 46  1  0  0  0  0
 20 47  1  0  0  0  0
 21 48  1  0  0  0  0
 21 49  1  0  0  0  0
 22 50  1  0  0  0  0
 23 51  1  0  0  0  0
 23 52  1  0  0  0  0
 23 53  1  0  0  0  0
 24 54  1  0  0  0  0
 25 55  1  0  0  0  0
 27 56  1  0  0  0  0
 28 57  1  0  0  0  0
 29 58  1  0  0  0  0
M  END
> <compound>
EDJ-MED-ee07cf00-4

> <compound_smiles>
CC(C(=O)NC(c1cccc(c1)Cl)C(=O)Nc2cncc3c2cccc3)NC(=O)C4CCC4

> <enantiomer_smiles>
C[C@H](C(=O)N[C@H](c1cccc(c1)Cl)C(=O)Nc2cncc3c2cccc3)NC(=O)C4CCC4

> <scaffold>
chlorobenzene-linker

> <canonical_CID>
EDJ-MED-ee07cf00-4

> <r_inhibition_at_20_uM>

> <r_inhibition_at_50_uM>

> <r_avg_IC50>

> <f_inhibition_at_20_uM>

> <f_inhibition_at_50_uM>

> <f_avg_IC50>
4.80589118082366

> <f_avg_pIC50>

> <relative_solubility_at_20_uM>

> <relative_solubility_at_100_uM>

> <trypsin_IC50>

> <NMR_std_ratio>

> <acrylamide>
False

> <chloroacetamide>
False

> <series>
Ugi

> <frag_id>

> <clash_score>
1.4160902468936531

> <docking_score>
-7.646147727966309

> <overlap_score>
0.9727571606636047

> <MMFF_internal_energy>
124.24012338322316

> <docked_smiles>
C[C@H](C(=O)N[C@H](c1cccc(c1)Cl)C(=O)Nc2cncc3c2cccc3)NC(=O)C4CCC4

$$$$
EDJ-MED-ee07cf00-4_2
  -OEChem-07262101023D

 58 61  0     1  0  0  0  0  0999 V2000
    3.4420    2.5357   20.0698 C   0  0  0  0  0  0  0  0  0  0  0  0
    4.0762    2.0251   21.2000 C   0  0  0  0  0  0  0  0  0  0  0  0
   11.9780    0.4600   23.9150 C   0  0  0  0  0  0  0  0  0  0  0  0
    3.8501    2.1333   18.7984 C   0  0  0  0  0  0  0  0  0  0  0  0
    5.1214    1.1098   21.0639 C   0  0  0  0  0  0  0  0  0  0  0  0
   10.6560    0.0720   23.7350 C   0  0  0  0  0  0  0  0  0  0  0  0
   12.9840   -0.1200   23.1530 C   0  0  0  0  0  0  0  0  0  0  0  0
   11.3360   -1.5050   22.0650 C   0  0  0  0  0  0  0  0  0  0  0  0
    5.3494    0.7758   17.4016 C   0  0  0  0  0  0  0  0  0  0  0  0
    6.9497   -0.5836   18.3322 C   0  0  0  0  0  0  0  0  0  0  0  0
    4.9007    1.2127   18.6495 C   0  0  0  0  0  0  0  0  0  0  0  0
    5.5453    0.6936   19.7912 C   0  0  0  0  0  0  0  0  0  0  0  0
   10.3220   -0.8940   22.7910 C   0  0  0  0  0  0  0  0  0  0  0  0
    6.5899   -0.2225   19.6216 C   0  0  0  0  0  0  0  0  0  0  0  0
   12.6400   -1.1000   22.2390 C   0  0  0  0  0  0  0  0  0  0  0  0
    6.0117   -5.1942   23.3172 C   0  0  0  0  0  0  0  0  0  0  0  0
    8.3880   -0.3240   21.3070 C   0  0  0  0  0  0  0  0  0  0  0  0
    8.4770   -3.5747   23.0329 C   0  0  0  0  0  0  0  0  0  0  0  0
    4.4074   -6.6817   26.0801 C   0  0  0  0  0  0  0  0  0  0  0  0
    5.7551   -6.8506   25.3543 C   0  0  0  0  0  0  0  0  0  0  0  0
    4.1401   -5.4806   25.1537 C   0  0  0  0  0  0  0  0  0  0  0  0
    5.1185   -6.1276   24.1384 C   0  0  0  0  0  0  0  0  0  0  0  0
    9.6216   -5.7016   22.3590 C   0  0  0  0  0  0  0  0  0  0  0  0
    8.8810   -1.1900   22.4510 C   0  0  1  0  0  0  0  0  0  0  0  0
    8.3039   -4.9430   22.3870 C   0  0  2  0  0  0  0  0  0  0  0  0
    6.3562   -0.1077   17.2169 N   0  0  0  0  0  0  0  0  0  0  0  0
    7.2820   -0.7860   20.6970 N   0  0  0  0  0  0  0  0  0  0  0  0
    7.3021   -5.6616   23.1295 N   0  0  0  0  0  0  0  0  0  0  0  0
    8.7217   -2.5865   22.0933 N   0  0  0  0  0  0  0  0  0  0  0  0
    5.5548   -4.1393   22.8929 O   0  0  0  0  0  0  0  0  0  0  0  0
    8.9170    0.7530   21.0260 O   0  0  0  0  0  0  0  0  0  0  0  0
    8.3701   -3.3857   24.2428 O   0  0  0  0  0  0  0  0  0  0  0  0
   13.8840   -1.8490   21.2740 Cl  0  0  0  0  0  0  0  0  0  0  0  0
    2.6290    3.2475   20.1787 H   0  0  0  0  0  0  0  0  0  0  0  0
    3.7567    2.3397   22.1895 H   0  0  0  0  0  0  0  0  0  0  0  0
   12.2249    1.2198   24.6546 H   0  0  0  0  0  0  0  0  0  0  0  0
    3.3440    2.5417   17.9267 H   0  0  0  0  0  0  0  0  0  0  0  0
    5.5920    0.7344   21.9697 H   0  0  0  0  0  0  0  0  0  0  0  0
    9.8763    0.5350   24.3454 H   0  0  0  0  0  0  0  0  0  0  0  0
   14.0077    0.1988   23.2842 H   0  0  0  0  0  0  0  0  0  0  0  0
   11.0892   -2.3009   21.3624 H   0  0  0  0  0  0  0  0  0  0  0  0
    4.8966    1.1359   16.4818 H   0  0  0  0  0  0  0  0  0  0  0  0
    7.7531   -1.2911   18.1477 H   0  0  0  0  0  0  0  0  0  0  0  0
    3.7165   -7.5186   25.9273 H   0  0  0  0  0  0  0  0  0  0  0  0
    4.4661   -6.4563   27.1476 H   0  0  0  0  0  0  0  0  0  0  0  0
    6.5758   -6.2926   25.8178 H   0  0  0  0  0  0  0  0  0  0  0  0
    6.0715   -7.8835   25.1936 H   0  0  0  0  0  0  0  0  0  0  0  0
    3.1048   -5.3671   24.8252 H   0  0  0  0  0  0  0  0  0  0  0  0
    4.4940   -4.5267   25.5592 H   0  0  0  0  0  0  0  0  0  0  0  0
    4.5926   -6.8435   23.4832 H   0  0  0  0  0  0  0  0  0  0  0  0
   10.0250   -5.8337   23.3696 H   0  0  0  0  0  0  0  0  0  0  0  0
    9.4972   -6.6970   21.9201 H   0  0  0  0  0  0  0  0  0  0  0  0
   10.3704   -5.1606   21.7704 H   0  0  0  0  0  0  0  0  0  0  0  0
    8.2436   -1.0112   23.3272 H   0  0  0  0  0  0  0  0  0  0  0  0
    7.9167   -4.8208   21.3695 H   0  0  0  0  0  0  0  0  0  0  0  0
    6.8984   -1.6618   21.0676 H   0  0  0  0  0  0  0  0  0  0  0  0
    7.5549   -6.5597   23.5378 H   0  0  0  0  0  0  0  0  0  0  0  0
    8.8345   -2.8348   21.1172 H   0  0  0  0  0  0  0  0  0  0  0  0
  1  2  1  0  0  0  0
  1  4  2  0  0  0  0
  2  5  2  0  0  0  0
  3  6  2  0  0  0  0
  3  7  1  0  0  0  0
  4 11  1  0  0  0  0
  5 12  1  0  0  0  0
  6 13  1  0  0  0  0
  7 15  2  0  0  0  0
  8 13  2  0  0  0  0
  8 15  1  0  0  0  0
  9 11  2  0  0  0  0
  9 26  1  0  0  0  0
 10 14  1  0  0  0  0
 10 26  2  0  0  0  0
 11 12  1  0  0  0  0
 12 14  2  0  0  0  0
 13 24  1  0  0  0  0
 14 27  1  0  0  0  0
 15 33  1  0  0  0  0
 16 22  1  0  0  0  0
 16 28  1  0  0  0  0
 16 30  2  0  0  0  0
 17 24  1  1  0  0  0
 17 27  1  0  0  0  0
 17 31  2  0  0  0  0
 18 25  1  0  0  0  0
 18 29  1  0  0  0  0
 18 32  2  0  0  0  0
 19 20  1  0  0  0  0
 19 21  1  0  0  0  0
 20 22  1  0  0  0  0
 21 22  1  0  0  0  0
 23 25  1  6  0  0  0
 24 29  1  0  0  0  0
 25 28  1  0  0  0  0
  1 34  1  0  0  0  0
  2 35  1  0  0  0  0
  3 36  1  0  0  0  0
  4 37  1  0  0  0  0
  5 38  1  0  0  0  0
  6 39  1  0  0  0  0
  7 40  1  0  0  0  0
  8 41  1  0  0  0  0
  9 42  1  0  0  0  0
 10 43  1  0  0  0  0
 19 44  1  0  0  0  0
 19 45  1  0  0  0  0
 20 46  1  0  0  0  0
 20 47  1  0  0  0  0
 21 48  1  0  0  0  0
 21 49  1  0  0  0  0
 22 50  1  0  0  0  0
 23 51  1  0  0  0  0
 23 52  1  0  0  0  0
 23 53  1  0  0  0  0
 24 54  1  0  0  0  0
 25 55  1  0  0  0  0
 27 56  1  0  0  0  0
 28 57  1  0  0  0  0
 29 58  1  0  0  0  0
M  END
> <compound>
EDJ-MED-ee07cf00-4

> <compound_smiles>
CC(C(=O)NC(c1cccc(c1)Cl)C(=O)Nc2cncc3c2cccc3)NC(=O)C4CCC4

> <enantiomer_smiles>
C[C@H](C(=O)N[C@@H](c1cccc(c1)Cl)C(=O)Nc2cncc3c2cccc3)NC(=O)C4CCC4

> <scaffold>
chlorobenzene-linker

> <canonical_CID>
EDJ-MED-ee07cf00-4

> <r_inhibition_at_20_uM>

> <r_inhibition_at_50_uM>

> <r_avg_IC50>

> <f_inhibition_at_20_uM>

> <f_inhibition_at_50_uM>

> <f_avg_IC50>
4.80589118082366

> <f_avg_pIC50>

> <relative_solubility_at_20_uM>

> <relative_solubility_at_100_uM>

> <trypsin_IC50>

> <NMR_std_ratio>

> <acrylamide>
False

> <chloroacetamide>
False

> <series>
Ugi

> <frag_id>

> <clash_score>
1.551932471310836

> <docking_score>
-8.742364883422852

> <overlap_score>
0.9728562235832214

> <MMFF_internal_energy>
125.13821486926958

> <docked_smiles>
C[C@H](C(=O)N[C@@H](c1cccc(c1)Cl)C(=O)Nc2cncc3c2cccc3)NC(=O)C4CCC4

$$$$
EDJ-MED-ee07cf00-4_1
  -OEChem-07262101023D

 58 61  0     1  0  0  0  0  0999 V2000
    3.4420    2.5357   20.0698 C   0  0  0  0  0  0  0  0  0  0  0  0
    4.0762    2.0251   21.2000 C   0  0  0  0  0  0  0  0  0  0  0  0
   11.9780    0.4600   23.9150 C   0  0  0  0  0  0  0  0  0  0  0  0
    3.8501    2.1333   18.7984 C   0  0  0  0  0  0  0  0  0  0  0  0
    5.1214    1.1098   21.0639 C   0  0  0  0  0  0  0  0  0  0  0  0
   10.6560    0.0720   23.7350 C   0  0  0  0  0  0  0  0  0  0  0  0
   12.9840   -0.1200   23.1530 C   0  0  0  0  0  0  0  0  0  0  0  0
   11.3360   -1.5050   22.0650 C   0  0  0  0  0  0  0  0  0  0  0  0
    5.3494    0.7759   17.4016 C   0  0  0  0  0  0  0  0  0  0  0  0
    6.9497   -0.5836   18.3322 C   0  0  0  0  0  0  0  0  0  0  0  0
    4.9007    1.2127   18.6495 C   0  0  0  0  0  0  0  0  0  0  0  0
    5.5453    0.6936   19.7912 C   0  0  0  0  0  0  0  0  0  0  0  0
   10.3220   -0.8940   22.7910 C   0  0  0  0  0  0  0  0  0  0  0  0
    6.5899   -0.2225   19.6216 C   0  0  0  0  0  0  0  0  0  0  0  0
   12.6400   -1.1000   22.2390 C   0  0  0  0  0  0  0  0  0  0  0  0
    8.4790   -5.1229   19.9132 C   0  0  0  0  0  0  0  0  0  0  0  0
    8.3880   -0.3240   21.3070 C   0  0  0  0  0  0  0  0  0  0  0  0
    8.4770   -3.5747   23.0329 C   0  0  0  0  0  0  0  0  0  0  0  0
   10.7769   -6.2256   17.4795 C   0  0  0  0  0  0  0  0  0  0  0  0
   10.8432   -5.7988   18.9576 C   0  0  0  0  0  0  0  0  0  0  0  0
    9.2459   -6.0954   17.5842 C   0  0  0  0  0  0  0  0  0  0  0  0
    9.4746   -5.0983   18.7507 C   0  0  0  0  0  0  0  0  0  0  0  0
    8.7595   -6.0489   23.3261 C   0  0  0  0  0  0  0  0  0  0  0  0
    8.8810   -1.1900   22.4510 C   0  0  1  0  0  0  0  0  0  0  0  0
    8.3039   -4.9430   22.3870 C   0  0  1  0  0  0  0  0  0  0  0  0
    6.3562   -0.1077   17.2169 N   0  0  0  0  0  0  0  0  0  0  0  0
    7.2820   -0.7860   20.6970 N   0  0  0  0  0  0  0  0  0  0  0  0
    9.0571   -4.9541   21.1606 N   0  0  0  0  0  0  0  0  0  0  0  0
    8.7217   -2.5865   22.0933 N   0  0  0  0  0  0  0  0  0  0  0  0
    7.2858   -5.2814   19.6835 O   0  0  0  0  0  0  0  0  0  0  0  0
    8.9170    0.7530   21.0260 O   0  0  0  0  0  0  0  0  0  0  0  0
    8.3701   -3.3857   24.2428 O   0  0  0  0  0  0  0  0  0  0  0  0
   13.8840   -1.8490   21.2740 Cl  0  0  0  0  0  0  0  0  0  0  0  0
    2.6290    3.2475   20.1787 H   0  0  0  0  0  0  0  0  0  0  0  0
    3.7567    2.3397   22.1895 H   0  0  0  0  0  0  0  0  0  0  0  0
   12.2249    1.2198   24.6546 H   0  0  0  0  0  0  0  0  0  0  0  0
    3.3440    2.5417   17.9267 H   0  0  0  0  0  0  0  0  0  0  0  0
    5.5920    0.7344   21.9697 H   0  0  0  0  0  0  0  0  0  0  0  0
    9.8763    0.5350   24.3454 H   0  0  0  0  0  0  0  0  0  0  0  0
   14.0077    0.1988   23.2842 H   0  0  0  0  0  0  0  0  0  0  0  0
   11.0892   -2.3009   21.3624 H   0  0  0  0  0  0  0  0  0  0  0  0
    4.8966    1.1359   16.4818 H   0  0  0  0  0  0  0  0  0  0  0  0
    7.7531   -1.2911   18.1477 H   0  0  0  0  0  0  0  0  0  0  0  0
   11.2346   -5.5054   16.7917 H   0  0  0  0  0  0  0  0  0  0  0  0
   11.1559   -7.2256   17.2548 H   0  0  0  0  0  0  0  0  0  0  0  0
   10.8056   -6.6393   19.6589 H   0  0  0  0  0  0  0  0  0  0  0  0
   11.6843   -5.1530   19.2189 H   0  0  0  0  0  0  0  0  0  0  0  0
    8.7503   -5.6977   16.6960 H   0  0  0  0  0  0  0  0  0  0  0  0
    8.7467   -7.0216   17.8886 H   0  0  0  0  0  0  0  0  0  0  0  0
    9.6095   -4.0704   18.3718 H   0  0  0  0  0  0  0  0  0  0  0  0
    9.8101   -5.9202   23.6107 H   0  0  0  0  0  0  0  0  0  0  0  0
    8.1664   -6.0571   24.2466 H   0  0  0  0  0  0  0  0  0  0  0  0
    8.6622   -7.0301   22.8490 H   0  0  0  0  0  0  0  0  0  0  0  0
    8.2436   -1.0112   23.3272 H   0  0  0  0  0  0  0  0  0  0  0  0
    7.2530   -5.0883   22.1140 H   0  0  0  0  0  0  0  0  0  0  0  0
    6.8984   -1.6618   21.0676 H   0  0  0  0  0  0  0  0  0  0  0  0
   10.0668   -4.8315   21.2126 H   0  0  0  0  0  0  0  0  0  0  0  0
    8.8345   -2.8348   21.1172 H   0  0  0  0  0  0  0  0  0  0  0  0
  1  2  1  0  0  0  0
  1  4  2  0  0  0  0
  2  5  2  0  0  0  0
  3  6  2  0  0  0  0
  3  7  1  0  0  0  0
  4 11  1  0  0  0  0
  5 12  1  0  0  0  0
  6 13  1  0  0  0  0
  7 15  2  0  0  0  0
  8 13  2  0  0  0  0
  8 15  1  0  0  0  0
  9 11  2  0  0  0  0
  9 26  1  0  0  0  0
 10 14  1  0  0  0  0
 10 26  2  0  0  0  0
 11 12  1  0  0  0  0
 12 14  2  0  0  0  0
 13 24  1  0  0  0  0
 14 27  1  0  0  0  0
 15 33  1  0  0  0  0
 16 22  1  0  0  0  0
 16 28  1  0  0  0  0
 16 30  2  0  0  0  0
 17 24  1  1  0  0  0
 17 27  1  0  0  0  0
 17 31  2  0  0  0  0
 18 25  1  0  0  0  0
 18 29  1  0  0  0  0
 18 32  2  0  0  0  0
 19 20  1  0  0  0  0
 19 21  1  0  0  0  0
 20 22  1  0  0  0  0
 21 22  1  0  0  0  0
 23 25  1  1  0  0  0
 24 29  1  0  0  0  0
 25 28  1  0  0  0  0
  1 34  1  0  0  0  0
  2 35  1  0  0  0  0
  3 36  1  0  0  0  0
  4 37  1  0  0  0  0
  5 38  1  0  0  0  0
  6 39  1  0  0  0  0
  7 40  1  0  0  0  0
  8 41  1  0  0  0  0
  9 42  1  0  0  0  0
 10 43  1  0  0  0  0
 19 44  1  0  0  0  0
 19 45  1  0  0  0  0
 20 46  1  0  0  0  0
 20 47  1  0  0  0  0
 21 48  1  0  0  0  0
 21 49  1  0  0  0  0
 22 50  1  0  0  0  0
 23 51  1  0  0  0  0
 23 52  1  0  0  0  0
 23 53  1  0  0  0  0
 24 54  1  0  0  0  0
 25 55  1  0  0  0  0
 27 56  1  0  0  0  0
 28 57  1  0  0  0  0
 29 58  1  0  0  0  0
M  END
> <compound>
EDJ-MED-ee07cf00-4

> <compound_smiles>
CC(C(=O)NC(c1cccc(c1)Cl)C(=O)Nc2cncc3c2cccc3)NC(=O)C4CCC4

> <enantiomer_smiles>
C[C@@H](C(=O)N[C@@H](c1cccc(c1)Cl)C(=O)Nc2cncc3c2cccc3)NC(=O)C4CCC4

> <scaffold>
chlorobenzene-linker

> <canonical_CID>
EDJ-MED-ee07cf00-4

> <r_inhibition_at_20_uM>

> <r_inhibition_at_50_uM>

> <r_avg_IC50>

> <f_inhibition_at_20_uM>

> <f_inhibition_at_50_uM>

> <f_avg_IC50>
4.80589118082366

> <f_avg_pIC50>

> <relative_solubility_at_20_uM>

> <relative_solubility_at_100_uM>

> <trypsin_IC50>

> <NMR_std_ratio>

> <acrylamide>
False

> <chloroacetamide>
False

> <series>
Ugi

> <frag_id>

> <clash_score>
7.808431200384533

> <docking_score>
-4.365024566650391

> <overlap_score>
0.9729649424552917

> <MMFF_internal_energy>
121.68996481663183

> <docked_smiles>
C[C@@H](C(=O)N[C@@H](c1cccc(c1)Cl)C(=O)Nc2cncc3c2cccc3)NC(=O)C4CCC4

$$$$
EDJ-MED-ee07cf00-12_2
  -OEChem-07262101023D

 56 59  0     1  0  0  0  0  0999 V2000
    2.5578    0.9697   19.8184 C   0  0  0  0  0  0  0  0  0  0  0  0
    3.1679    0.4166   20.9418 C   0  0  0  0  0  0  0  0  0  0  0  0
   11.9780    0.4600   23.9150 C   0  0  0  0  0  0  0  0  0  0  0  0
    3.2816    1.1263   18.6365 C   0  0  0  0  0  0  0  0  0  0  0  0
    4.5045    0.0176   20.8886 C   0  0  0  0  0  0  0  0  0  0  0  0
    3.8109   -4.8452   23.7495 C   0  0  0  0  0  0  0  0  0  0  0  0
    5.4899   -5.6127   25.3082 C   0  0  0  0  0  0  0  0  0  0  0  0
   10.6560    0.0720   23.7350 C   0  0  0  0  0  0  0  0  0  0  0  0
    4.7632   -4.8317   22.7304 C   0  0  0  0  0  0  0  0  0  0  0  0
    6.4421   -5.5992   24.2890 C   0  0  0  0  0  0  0  0  0  0  0  0
   12.9840   -0.1200   23.1530 C   0  0  0  0  0  0  0  0  0  0  0  0
   11.3360   -1.5050   22.0650 C   0  0  0  0  0  0  0  0  0  0  0  0
    5.3983    0.8618   17.4152 C   0  0  0  0  0  0  0  0  0  0  0  0
    7.2560   -0.0413   18.4191 C   0  0  0  0  0  0  0  0  0  0  0  0
    4.6272    0.7281   18.5715 C   0  0  0  0  0  0  0  0  0  0  0  0
    5.2484    0.1678   19.7068 C   0  0  0  0  0  0  0  0  0  0  0  0
    4.1743   -5.2357   25.0384 C   0  0  0  0  0  0  0  0  0  0  0  0
   10.3220   -0.8940   22.7910 C   0  0  0  0  0  0  0  0  0  0  0  0
    6.5899   -0.2225   19.6216 C   0  0  0  0  0  0  0  0  0  0  0  0
    6.0788   -5.2087   23.0001 C   0  0  0  0  0  0  0  0  0  0  0  0
   12.6400   -1.1000   22.2390 C   0  0  0  0  0  0  0  0  0  0  0  0
    3.1815   -5.2500   26.1011 C   0  0  0  0  0  0  0  0  0  0  0  0
    8.4771   -3.5808   23.0243 C   0  0  0  0  0  0  0  0  0  0  0  0
    8.3880   -0.3240   21.3070 C   0  0  0  0  0  0  0  0  0  0  0  0
    8.3554   -4.9392   22.3674 C   0  0  0  0  0  0  0  0  0  0  0  0
    8.8810   -1.1900   22.4510 C   0  0  2  0  0  0  0  0  0  0  0  0
    6.6946    0.4912   17.3129 N   0  0  0  0  0  0  0  0  0  0  0  0
    1.8831   -4.8652   25.7796 N   0  0  0  0  0  0  0  0  0  0  0  0
    7.2820   -0.7860   20.6970 N   0  0  0  0  0  0  0  0  0  0  0  0
    8.7217   -2.5865   22.0933 N   0  0  0  0  0  0  0  0  0  0  0  0
    3.4803   -5.5776   27.2630 O   0  0  0  0  0  0  0  0  0  0  0  0
    8.3664   -3.4169   24.2363 O   0  0  0  0  0  0  0  0  0  0  0  0
    8.9170    0.7530   21.0260 O   0  0  0  0  0  0  0  0  0  0  0  0
    7.0177   -5.1953   21.9958 O   0  0  0  0  0  0  0  0  0  0  0  0
   13.8840   -1.8490   21.2740 Cl  0  0  0  0  0  0  0  0  0  0  0  0
    1.5177    1.2791   19.8625 H   0  0  0  0  0  0  0  0  0  0  0  0
    2.6022    0.2953   21.8613 H   0  0  0  0  0  0  0  0  0  0  0  0
   12.2249    1.2198   24.6546 H   0  0  0  0  0  0  0  0  0  0  0  0
    2.7899    1.5597   17.7688 H   0  0  0  0  0  0  0  0  0  0  0  0
    4.9456   -0.4092   21.7864 H   0  0  0  0  0  0  0  0  0  0  0  0
    2.7887   -4.5497   23.5274 H   0  0  0  0  0  0  0  0  0  0  0  0
    5.7831   -5.9187   26.3091 H   0  0  0  0  0  0  0  0  0  0  0  0
    9.8763    0.5350   24.3454 H   0  0  0  0  0  0  0  0  0  0  0  0
    4.4740   -4.5264   21.7285 H   0  0  0  0  0  0  0  0  0  0  0  0
    7.4655   -5.8936   24.5052 H   0  0  0  0  0  0  0  0  0  0  0  0
   14.0077    0.1988   23.2842 H   0  0  0  0  0  0  0  0  0  0  0  0
   11.0892   -2.3009   21.3624 H   0  0  0  0  0  0  0  0  0  0  0  0
    4.9815    1.2854   16.5055 H   0  0  0  0  0  0  0  0  0  0  0  0
    8.2971   -0.3285   18.3019 H   0  0  0  0  0  0  0  0  0  0  0  0
    8.9762   -4.9615   21.4667 H   0  0  0  0  0  0  0  0  0  0  0  0
    8.6943   -5.7205   23.0548 H   0  0  0  0  0  0  0  0  0  0  0  0
    8.2436   -1.0112   23.3272 H   0  0  0  0  0  0  0  0  0  0  0  0
    1.6690   -4.5896   24.8273 H   0  0  0  0  0  0  0  0  0  0  0  0
    1.1459   -4.8542   26.4770 H   0  0  0  0  0  0  0  0  0  0  0  0
    6.8984   -1.6618   21.0676 H   0  0  0  0  0  0  0  0  0  0  0  0
    8.7938   -2.8456   21.1158 H   0  0  0  0  0  0  0  0  0  0  0  0
  1  2  1  0  0  0  0
  1  4  2  0  0  0  0
  2  5  2  0  0  0  0
  3  8  2  0  0  0  0
  3 11  1  0  0  0  0
  4 15  1  0  0  0  0
  5 16  1  0  0  0  0
  6  9  2  0  0  0  0
  6 17  1  0  0  0  0
  7 10  1  0  0  0  0
  7 17  2  0  0  0  0
  8 18  1  0  0  0  0
  9 20  1  0  0  0  0
 10 20  2  0  0  0  0
 11 21  2  0  0  0  0
 12 18  2  0  0  0  0
 12 21  1  0  0  0  0
 13 15  2  0  0  0  0
 13 27  1  0  0  0  0
 14 19  1  0  0  0  0
 14 27  2  0  0  0  0
 15 16  1  0  0  0  0
 16 19  2  0  0  0  0
 17 22  1  0  0  0  0
 18 26  1  0  0  0  0
 19 29  1  0  0  0  0
 20 34  1  0  0  0  0
 21 35  1  0  0  0  0
 22 28  1  0  0  0  0
 22 31  2  0  0  0  0
 23 25  1  0  0  0  0
 23 30  1  0  0  0  0
 23 32  2  0  0  0  0
 24 26  1  6  0  0  0
 24 29  1  0  0  0  0
 24 33  2  0  0  0  0
 25 34  1  0  0  0  0
 26 30  1  0  0  0  0
  1 36  1  0  0  0  0
  2 37  1  0  0  0  0
  3 38  1  0  0  0  0
  4 39  1  0  0  0  0
  5 40  1  0  0  0  0
  6 41  1  0  0  0  0
  7 42  1  0  0  0  0
  8 43  1  0  0  0  0
  9 44  1  0  0  0  0
 10 45  1  0  0  0  0
 11 46  1  0  0  0  0
 12 47  1  0  0  0  0
 13 48  1  0  0  0  0
 14 49  1  0  0  0  0
 25 50  1  0  0  0  0
 25 51  1  0  0  0  0
 26 52  1  0  0  0  0
 28 53  1  0  0  0  0
 28 54  1  0  0  0  0
 29 55  1  0  0  0  0
 30 56  1  0  0  0  0
M  END
> <compound>
EDJ-MED-ee07cf00-12

> <compound_smiles>
c1ccc2c(c1)cncc2NC(=O)C(c3cccc(c3)Cl)NC(=O)COc4ccc(cc4)C(=O)N

> <enantiomer_smiles>
c1ccc2c(c1)cncc2NC(=O)[C@H](c3cccc(c3)Cl)NC(=O)COc4ccc(cc4)C(=O)N

> <scaffold>
chlorobenzene-linker

> <canonical_CID>
EDJ-MED-ee07cf00-12

> <r_inhibition_at_20_uM>

> <r_inhibition_at_50_uM>

> <r_avg_IC50>

> <f_inhibition_at_20_uM>

> <f_inhibition_at_50_uM>

> <f_avg_IC50>
3.03275830744667

> <f_avg_pIC50>

> <relative_solubility_at_20_uM>

> <relative_solubility_at_100_uM>

> <trypsin_IC50>

> <NMR_std_ratio>

> <acrylamide>
False

> <chloroacetamide>
False

> <series>
Ugi

> <frag_id>

> <clash_score>
0.6126643974224861

> <docking_score>
-4.579383850097656

> <overlap_score>
0.8808314204216003

> <MMFF_internal_energy>
146.0376468838591

> <docked_smiles>
c1ccc2c(c1)cncc2NC(=O)[C@H](c3cccc(c3)Cl)NC(=O)COc4ccc(cc4)C(=O)N

$$$$
MAT-POS-a13804f0-1_1
  -OEChem-07262101023D

 57 61  0     1  0  0  0  0  0999 V2000
    4.8854    3.6419   19.7205 C   0  0  0  0  0  0  0  0  0  0  0  0
    5.5494    3.1500   20.8419 C   0  0  0  0  0  0  0  0  0  0  0  0
   11.9780    0.4600   23.9150 C   0  0  0  0  0  0  0  0  0  0  0  0
    4.7878    2.8619   18.5685 C   0  0  0  0  0  0  0  0  0  0  0  0
    6.1189    1.8757   20.8162 C   0  0  0  0  0  0  0  0  0  0  0  0
   10.6560    0.0720   23.7350 C   0  0  0  0  0  0  0  0  0  0  0  0
   12.9840   -0.1200   23.1530 C   0  0  0  0  0  0  0  0  0  0  0  0
   11.3360   -1.5050   22.0650 C   0  0  0  0  0  0  0  0  0  0  0  0
    5.2893    0.7552   17.4056 C   0  0  0  0  0  0  0  0  0  0  0  0
    6.4602   -0.9317   18.4342 C   0  0  0  0  0  0  0  0  0  0  0  0
    5.3570    1.5782   18.5316 C   0  0  0  0  0  0  0  0  0  0  0  0
    6.0301    1.0765   19.6647 C   0  0  0  0  0  0  0  0  0  0  0  0
   10.3220   -0.8940   22.7910 C   0  0  0  0  0  0  0  0  0  0  0  0
    6.5904   -0.2048   19.6077 C   0  0  0  0  0  0  0  0  0  0  0  0
   12.6400   -1.1000   22.2390 C   0  0  0  0  0  0  0  0  0  0  0  0
    5.6665   -5.6463   23.2168 C   0  0  0  0  0  0  0  0  0  0  0  0
    5.0327   -6.7572   24.8759 C   0  0  0  0  0  0  0  0  0  0  0  0
    8.4779   -3.5758   23.0238 C   0  0  0  0  0  0  0  0  0  0  0  0
    8.3880   -0.3240   21.3070 C   0  0  0  0  0  0  0  0  0  0  0  0
    5.8280   -4.7994   22.0096 C   0  0  0  0  0  0  0  0  0  0  0  0
    7.2199   -4.9655   21.3860 C   0  0  0  0  0  0  0  0  0  0  0  0
    8.1303   -5.9983   23.5289 C   0  0  0  0  0  0  0  0  0  0  0  0
    8.3458   -4.9493   22.4309 C   0  0  1  0  0  0  0  0  0  0  0  0
    4.1348   -7.3935   25.8466 C   0  0  0  0  0  0  0  0  0  0  0  0
    8.8810   -1.1900   22.4510 C   0  0  1  0  0  0  0  0  0  0  0  0
    5.8237   -0.4845   17.3308 N   0  0  0  0  0  0  0  0  0  0  0  0
    4.5612   -6.0229   23.8226 N   0  0  0  0  0  0  0  0  0  0  0  0
    6.3611   -6.8615   24.9663 N   0  0  0  0  0  0  0  0  0  0  0  0
    6.7399   -6.1380   23.9029 N   0  0  0  0  0  0  0  0  0  0  0  0
    7.2820   -0.7860   20.6970 N   0  0  0  0  0  0  0  0  0  0  0  0
    8.7221   -2.5829   22.0943 N   0  0  0  0  0  0  0  0  0  0  0  0
    8.3651   -3.4271   24.2349 O   0  0  0  0  0  0  0  0  0  0  0  0
    8.9170    0.7530   21.0260 O   0  0  0  0  0  0  0  0  0  0  0  0
   13.8840   -1.8490   21.2740 Cl  0  0  0  0  0  0  0  0  0  0  0  0
    4.4431    4.6335   19.7433 H   0  0  0  0  0  0  0  0  0  0  0  0
    5.6240    3.7591   21.7382 H   0  0  0  0  0  0  0  0  0  0  0  0
   12.2249    1.2198   24.6546 H   0  0  0  0  0  0  0  0  0  0  0  0
    4.2658    3.2613   17.7021 H   0  0  0  0  0  0  0  0  0  0  0  0
    6.6295    1.5271   21.7110 H   0  0  0  0  0  0  0  0  0  0  0  0
    9.8763    0.5350   24.3454 H   0  0  0  0  0  0  0  0  0  0  0  0
   14.0077    0.1988   23.2842 H   0  0  0  0  0  0  0  0  0  0  0  0
   11.0892   -2.3009   21.3624 H   0  0  0  0  0  0  0  0  0  0  0  0
    4.7855    1.0801   16.4994 H   0  0  0  0  0  0  0  0  0  0  0  0
    6.8767   -1.9306   18.3399 H   0  0  0  0  0  0  0  0  0  0  0  0
    5.0621   -5.0531   21.2684 H   0  0  0  0  0  0  0  0  0  0  0  0
    5.6691   -3.7515   22.2903 H   0  0  0  0  0  0  0  0  0  0  0  0
    7.2583   -5.9232   20.8495 H   0  0  0  0  0  0  0  0  0  0  0  0
    7.3748   -4.1775   20.6393 H   0  0  0  0  0  0  0  0  0  0  0  0
    8.4473   -6.9847   23.1706 H   0  0  0  0  0  0  0  0  0  0  0  0
    8.6952   -5.7567   24.4362 H   0  0  0  0  0  0  0  0  0  0  0  0
    9.3016   -5.1511   21.9314 H   0  0  0  0  0  0  0  0  0  0  0  0
    3.8607   -8.4181   25.5350 H   0  0  0  0  0  0  0  0  0  0  0  0
    4.5860   -7.4671   26.8544 H   0  0  0  0  0  0  0  0  0  0  0  0
    3.1925   -6.8293   25.9833 H   0  0  0  0  0  0  0  0  0  0  0  0
    8.2436   -1.0112   23.3272 H   0  0  0  0  0  0  0  0  0  0  0  0
    6.8975   -1.6551   21.0614 H   0  0  0  0  0  0  0  0  0  0  0  0
    8.7921   -2.8438   21.1153 H   0  0  0  0  0  0  0  0  0  0  0  0
  1  2  1  0  0  0  0
  1  4  2  0  0  0  0
  2  5  2  0  0  0  0
  3  6  2  0  0  0  0
  3  7  1  0  0  0  0
  4 11  1  0  0  0  0
  5 12  1  0  0  0  0
  6 13  1  0  0  0  0
  7 15  2  0  0  0  0
  8 13  2  0  0  0  0
  8 15  1  0  0  0  0
  9 11  2  0  0  0  0
  9 26  1  0  0  0  0
 10 14  1  0  0  0  0
 10 26  2  0  0  0  0
 11 12  1  0  0  0  0
 12 14  2  0  0  0  0
 13 25  1  0  0  0  0
 14 30  1  0  0  0  0
 15 34  1  0  0  0  0
 16 20  1  0  0  0  0
 16 27  2  0  0  0  0
 16 29  1  0  0  0  0
 17 24  1  0  0  0  0
 17 27  1  0  0  0  0
 17 28  2  0  0  0  0
 18 23  1  1  0  0  0
 18 31  1  0  0  0  0
 18 32  2  0  0  0  0
 19 25  1  1  0  0  0
 19 30  1  0  0  0  0
 19 33  2  0  0  0  0
 20 21  1  0  0  0  0
 21 23  1  0  0  0  0
 22 23  1  0  0  0  0
 22 29  1  0  0  0  0
 25 31  1  0  0  0  0
 28 29  1  0  0  0  0
  1 35  1  0  0  0  0
  2 36  1  0  0  0  0
  3 37  1  0  0  0  0
  4 38  1  0  0  0  0
  5 39  1  0  0  0  0
  6 40  1  0  0  0  0
  7 41  1  0  0  0  0
  8 42  1  0  0  0  0
  9 43  1  0  0  0  0
 10 44  1  0  0  0  0
 20 45  1  0  0  0  0
 20 46  1  0  0  0  0
 21 47  1  0  0  0  0
 21 48  1  0  0  0  0
 22 49  1  0  0  0  0
 22 50  1  0  0  0  0
 23 51  1  0  0  0  0
 24 52  1  0  0  0  0
 24 53  1  0  0  0  0
 24 54  1  0  0  0  0
 25 55  1  0  0  0  0
 30 56  1  0  0  0  0
 31 57  1  0  0  0  0
M  END
> <compound>
MAT-POS-a13804f0-1

> <compound_smiles>
Cc1nc2n(n1)CC(CC2)C(=O)NC(c3cccc(c3)Cl)C(=O)Nc4cncc5c4cccc5

> <enantiomer_smiles>
Cc1nc2n(n1)C[C@@H](CC2)C(=O)N[C@@H](c3cccc(c3)Cl)C(=O)Nc4cncc5c4cccc5

> <scaffold>
chlorobenzene-linker

> <canonical_CID>
MAT-POS-a13804f0-1

> <r_inhibition_at_20_uM>

> <r_inhibition_at_50_uM>

> <r_avg_IC50>

> <f_inhibition_at_20_uM>

> <f_inhibition_at_50_uM>

> <f_avg_IC50>
4.98466083335619

> <f_avg_pIC50>

> <relative_solubility_at_20_uM>

> <relative_solubility_at_100_uM>

> <trypsin_IC50>

> <NMR_std_ratio>

> <acrylamide>
False

> <chloroacetamide>
False

> <series>
Ugi

> <frag_id>

> <clash_score>
0.653043879953043

> <docking_score>
-2.922201633453369

> <overlap_score>
0.8292509317398071

> <MMFF_internal_energy>
100.86448559003954

> <docked_smiles>
Cc1nc2n(n1)C[C@@H](CC2)C(=O)N[C@@H](c3cccc(c3)Cl)C(=O)Nc4cncc5c4cccc5

$$$$
MAT-POS-a13804f0-1_3
  -OEChem-07262101023D

 57 61  0     1  0  0  0  0  0999 V2000
    3.4578    2.5708   20.0554 C   0  0  0  0  0  0  0  0  0  0  0  0
    4.0829    2.0498   21.1859 C   0  0  0  0  0  0  0  0  0  0  0  0
   11.9780    0.4600   23.9150 C   0  0  0  0  0  0  0  0  0  0  0  0
    3.8699    2.1729   18.7838 C   0  0  0  0  0  0  0  0  0  0  0  0
    5.1230    1.1287   21.0499 C   0  0  0  0  0  0  0  0  0  0  0  0
   10.6560    0.0720   23.7350 C   0  0  0  0  0  0  0  0  0  0  0  0
   12.9840   -0.1200   23.1530 C   0  0  0  0  0  0  0  0  0  0  0  0
   11.3360   -1.5050   22.0650 C   0  0  0  0  0  0  0  0  0  0  0  0
    5.3678    0.8139   17.3870 C   0  0  0  0  0  0  0  0  0  0  0  0
    6.9546   -0.5609   18.3181 C   0  0  0  0  0  0  0  0  0  0  0  0
    4.9154    1.2466   18.6351 C   0  0  0  0  0  0  0  0  0  0  0  0
    5.5508    0.7169   19.7772 C   0  0  0  0  0  0  0  0  0  0  0  0
   10.3220   -0.8940   22.7910 C   0  0  0  0  0  0  0  0  0  0  0  0
    6.5904   -0.2048   19.6077 C   0  0  0  0  0  0  0  0  0  0  0  0
   12.6400   -1.1000   22.2390 C   0  0  0  0  0  0  0  0  0  0  0  0
    4.5767   -1.5168   27.3378 C   0  0  0  0  0  0  0  0  0  0  0  0
    2.7301   -0.5773   27.0283 C   0  0  0  0  0  0  0  0  0  0  0  0
    7.7879   -1.9598   24.5505 C   0  0  0  0  0  0  0  0  0  0  0  0
    8.3880   -0.3240   21.3070 C   0  0  0  0  0  0  0  0  0  0  0  0
    5.7846   -2.2297   27.8263 C   0  0  0  0  0  0  0  0  0  0  0  0
    6.6830   -2.6664   26.6634 C   0  0  0  0  0  0  0  0  0  0  0  0
    5.5502   -1.0513   25.0774 C   0  0  0  0  0  0  0  0  0  0  0  0
    6.8880   -1.5195   25.6627 C   0  0  1  0  0  0  0  0  0  0  0  0
    1.3706   -0.0909   27.2906 C   0  0  0  0  0  0  0  0  0  0  0  0
    8.8810   -1.1900   22.4510 C   0  0  2  0  0  0  0  0  0  0  0  0
    6.3699   -0.0750   17.2025 N   0  0  0  0  0  0  0  0  0  0  0  0
    3.4424   -1.2810   27.9608 N   0  0  0  0  0  0  0  0  0  0  0  0
    3.3480   -0.3581   25.8644 N   0  0  0  0  0  0  0  0  0  0  0  0
    4.5245   -0.9583   26.0919 N   0  0  0  0  0  0  0  0  0  0  0  0
    7.2820   -0.7860   20.6970 N   0  0  0  0  0  0  0  0  0  0  0  0
    8.0374   -0.9810   23.6076 N   0  0  0  0  0  0  0  0  0  0  0  0
    8.2273   -3.1038   24.5457 O   0  0  0  0  0  0  0  0  0  0  0  0
    8.9170    0.7530   21.0260 O   0  0  0  0  0  0  0  0  0  0  0  0
   13.8840   -1.8490   21.2740 Cl  0  0  0  0  0  0  0  0  0  0  0  0
    2.6488    3.2871   20.1641 H   0  0  0  0  0  0  0  0  0  0  0  0
    3.7602    2.3608   22.1755 H   0  0  0  0  0  0  0  0  0  0  0  0
   12.2249    1.2198   24.6546 H   0  0  0  0  0  0  0  0  0  0  0  0
    3.3709    2.5895   17.9118 H   0  0  0  0  0  0  0  0  0  0  0  0
    5.5865    0.7452   21.9560 H   0  0  0  0  0  0  0  0  0  0  0  0
    9.8763    0.5350   24.3454 H   0  0  0  0  0  0  0  0  0  0  0  0
   14.0077    0.1988   23.2842 H   0  0  0  0  0  0  0  0  0  0  0  0
   11.0892   -2.3008   21.3624 H   0  0  0  0  0  0  0  0  0  0  0  0
    4.9221    1.1820   16.4670 H   0  0  0  0  0  0  0  0  0  0  0  0
    7.7545   -1.2725   18.1337 H   0  0  0  0  0  0  0  0  0  0  0  0
    6.3507   -1.5845   28.5054 H   0  0  0  0  0  0  0  0  0  0  0  0
    5.4671   -3.1061   28.4015 H   0  0  0  0  0  0  0  0  0  0  0  0
    7.6571   -2.9634   27.0558 H   0  0  0  0  0  0  0  0  0  0  0  0
    6.2422   -3.5334   26.1733 H   0  0  0  0  0  0  0  0  0  0  0  0
    5.6561   -0.0470   24.6603 H   0  0  0  0  0  0  0  0  0  0  0  0
    5.1895   -1.7273   24.2997 H   0  0  0  0  0  0  0  0  0  0  0  0
    7.3781   -0.6862   26.1481 H   0  0  0  0  0  0  0  0  0  0  0  0
    1.3801    0.9226   27.7318 H   0  0  0  0  0  0  0  0  0  0  0  0
    0.7547   -0.0429   26.3724 H   0  0  0  0  0  0  0  0  0  0  0  0
    0.8145   -0.7467   27.9875 H   0  0  0  0  0  0  0  0  0  0  0  0
    8.7711   -2.2448   22.1651 H   0  0  0  0  0  0  0  0  0  0  0  0
    6.8975   -1.6551   21.0614 H   0  0  0  0  0  0  0  0  0  0  0  0
    7.6071   -0.0694   23.7315 H   0  0  0  0  0  0  0  0  0  0  0  0
  1  2  1  0  0  0  0
  1  4  2  0  0  0  0
  2  5  2  0  0  0  0
  3  6  2  0  0  0  0
  3  7  1  0  0  0  0
  4 11  1  0  0  0  0
  5 12  1  0  0  0  0
  6 13  1  0  0  0  0
  7 15  2  0  0  0  0
  8 13  2  0  0  0  0
  8 15  1  0  0  0  0
  9 11  2  0  0  0  0
  9 26  1  0  0  0  0
 10 14  1  0  0  0  0
 10 26  2  0  0  0  0
 11 12  1  0  0  0  0
 12 14  2  0  0  0  0
 13 25  1  0  0  0  0
 14 30  1  0  0  0  0
 15 34  1  0  0  0  0
 16 20  1  0  0  0  0
 16 27  2  0  0  0  0
 16 29  1  0  0  0  0
 17 24  1  0  0  0  0
 17 27  1  0  0  0  0
 17 28  2  0  0  0  0
 18 23  1  1  0  0  0
 18 31  1  0  0  0  0
 18 32  2  0  0  0  0
 19 25  1  6  0  0  0
 19 30  1  0  0  0  0
 19 33  2  0  0  0  0
 20 21  1  0  0  0  0
 21 23  1  0  0  0  0
 22 23  1  0  0  0  0
 22 29  1  0  0  0  0
 25 31  1  0  0  0  0
 28 29  1  0  0  0  0
  1 35  1  0  0  0  0
  2 36  1  0  0  0  0
  3 37  1  0  0  0  0
  4 38  1  0  0  0  0
  5 39  1  0  0  0  0
  6 40  1  0  0  0  0
  7 41  1  0  0  0  0
  8 42  1  0  0  0  0
  9 43  1  0  0  0  0
 10 44  1  0  0  0  0
 20 45  1  0  0  0  0
 20 46  1  0  0  0  0
 21 47  1  0  0  0  0
 21 48  1  0  0  0  0
 22 49  1  0  0  0  0
 22 50  1  0  0  0  0
 23 51  1  0  0  0  0
 24 52  1  0  0  0  0
 24 53  1  0  0  0  0
 24 54  1  0  0  0  0
 25 55  1  0  0  0  0
 30 56  1  0  0  0  0
 31 57  1  0  0  0  0
M  END
> <compound>
MAT-POS-a13804f0-1

> <compound_smiles>
Cc1nc2n(n1)CC(CC2)C(=O)NC(c3cccc(c3)Cl)C(=O)Nc4cncc5c4cccc5

> <enantiomer_smiles>
Cc1nc2n(n1)C[C@@H](CC2)C(=O)N[C@H](c3cccc(c3)Cl)C(=O)Nc4cncc5c4cccc5

> <scaffold>
chlorobenzene-linker

> <canonical_CID>
MAT-POS-a13804f0-1

> <r_inhibition_at_20_uM>

> <r_inhibition_at_50_uM>

> <r_avg_IC50>

> <f_inhibition_at_20_uM>

> <f_inhibition_at_50_uM>

> <f_avg_IC50>
4.98466083335619

> <f_avg_pIC50>

> <relative_solubility_at_20_uM>

> <relative_solubility_at_100_uM>

> <trypsin_IC50>

> <NMR_std_ratio>

> <acrylamide>
False

> <chloroacetamide>
False

> <series>
Ugi

> <frag_id>

> <clash_score>
0

> <docking_score>
-8.765972137451172

> <overlap_score>
0.9675021171569824

> <MMFF_internal_energy>
106.03745728319734

> <docked_smiles>
Cc1nc2n(n1)C[C@@H](CC2)C(=O)N[C@H](c3cccc(c3)Cl)C(=O)Nc4cncc5c4cccc5

$$$$
MAT-POS-a13804f0-1_2
  -OEChem-07262101023D

 57 61  0     1  0  0  0  0  0999 V2000
    3.4578    2.5708   20.0554 C   0  0  0  0  0  0  0  0  0  0  0  0
    4.0829    2.0498   21.1859 C   0  0  0  0  0  0  0  0  0  0  0  0
   11.9780    0.4600   23.9150 C   0  0  0  0  0  0  0  0  0  0  0  0
    3.8699    2.1730   18.7838 C   0  0  0  0  0  0  0  0  0  0  0  0
    5.1230    1.1287   21.0499 C   0  0  0  0  0  0  0  0  0  0  0  0
   10.6560    0.0720   23.7350 C   0  0  0  0  0  0  0  0  0  0  0  0
   12.9840   -0.1200   23.1530 C   0  0  0  0  0  0  0  0  0  0  0  0
   11.3360   -1.5050   22.0650 C   0  0  0  0  0  0  0  0  0  0  0  0
    5.3679    0.8139   17.3870 C   0  0  0  0  0  0  0  0  0  0  0  0
    6.9546   -0.5609   18.3181 C   0  0  0  0  0  0  0  0  0  0  0  0
    4.9154    1.2466   18.6351 C   0  0  0  0  0  0  0  0  0  0  0  0
    5.5508    0.7169   19.7772 C   0  0  0  0  0  0  0  0  0  0  0  0
   10.3220   -0.8940   22.7910 C   0  0  0  0  0  0  0  0  0  0  0  0
    6.5904   -0.2048   19.6077 C   0  0  0  0  0  0  0  0  0  0  0  0
   12.6400   -1.1000   22.2390 C   0  0  0  0  0  0  0  0  0  0  0  0
    5.7427   -5.9434   23.6584 C   0  0  0  0  0  0  0  0  0  0  0  0
    3.7131   -6.3723   23.3679 C   0  0  0  0  0  0  0  0  0  0  0  0
    7.5441   -3.2799   22.2840 C   0  0  0  0  0  0  0  0  0  0  0  0
    8.3880   -0.3240   21.3070 C   0  0  0  0  0  0  0  0  0  0  0  0
    7.1245   -5.7102   24.1457 C   0  0  0  0  0  0  0  0  0  0  0  0
    8.1207   -5.5983   22.9841 C   0  0  0  0  0  0  0  0  0  0  0  0
    6.2377   -5.1799   21.3210 C   0  0  0  0  0  0  0  0  0  0  0  0
    7.6036   -4.7134   21.8399 C   0  0  2  0  0  0  0  0  0  0  0  0
    2.3423   -6.8099   23.6557 C   0  0  0  0  0  0  0  0  0  0  0  0
    8.8810   -1.1900   22.4510 C   0  0  1  0  0  0  0  0  0  0  0  0
    6.3699   -0.0750   17.2025 N   0  0  0  0  0  0  0  0  0  0  0  0
    4.6992   -6.4017   24.3154 N   0  0  0  0  0  0  0  0  0  0  0  0
    4.0747   -5.9243   22.1627 N   0  0  0  0  0  0  0  0  0  0  0  0
    5.3694   -5.6508   22.3780 N   0  0  0  0  0  0  0  0  0  0  0  0
    7.2820   -0.7860   20.6970 N   0  0  0  0  0  0  0  0  0  0  0  0
    8.7221   -2.5829   22.0943 N   0  0  0  0  0  0  0  0  0  0  0  0
    6.5059   -2.8381   22.7620 O   0  0  0  0  0  0  0  0  0  0  0  0
    8.9170    0.7530   21.0260 O   0  0  0  0  0  0  0  0  0  0  0  0
   13.8840   -1.8490   21.2740 Cl  0  0  0  0  0  0  0  0  0  0  0  0
    2.6488    3.2871   20.1641 H   0  0  0  0  0  0  0  0  0  0  0  0
    3.7602    2.3608   22.1755 H   0  0  0  0  0  0  0  0  0  0  0  0
   12.2249    1.2198   24.6546 H   0  0  0  0  0  0  0  0  0  0  0  0
    3.3709    2.5895   17.9118 H   0  0  0  0  0  0  0  0  0  0  0  0
    5.5865    0.7452   21.9560 H   0  0  0  0  0  0  0  0  0  0  0  0
    9.8763    0.5350   24.3454 H   0  0  0  0  0  0  0  0  0  0  0  0
   14.0077    0.1988   23.2842 H   0  0  0  0  0  0  0  0  0  0  0  0
   11.0892   -2.3009   21.3624 H   0  0  0  0  0  0  0  0  0  0  0  0
    4.9221    1.1820   16.4670 H   0  0  0  0  0  0  0  0  0  0  0  0
    7.7545   -1.2725   18.1337 H   0  0  0  0  0  0  0  0  0  0  0  0
    7.1384   -4.7877   24.7378 H   0  0  0  0  0  0  0  0  0  0  0  0
    7.4294   -6.5241   24.8127 H   0  0  0  0  0  0  0  0  0  0  0  0
    9.0753   -5.2163   23.3658 H   0  0  0  0  0  0  0  0  0  0  0  0
    8.3176   -6.6024   22.5852 H   0  0  0  0  0  0  0  0  0  0  0  0
    5.7112   -4.3784   20.7910 H   0  0  0  0  0  0  0  0  0  0  0  0
    6.3670   -6.0269   20.6373 H   0  0  0  0  0  0  0  0  0  0  0  0
    8.3241   -4.7390   21.0130 H   0  0  0  0  0  0  0  0  0  0  0  0
    1.7176   -5.9742   24.0207 H   0  0  0  0  0  0  0  0  0  0  0  0
    1.8379   -7.2319   22.7657 H   0  0  0  0  0  0  0  0  0  0  0  0
    2.3056   -7.6063   24.4235 H   0  0  0  0  0  0  0  0  0  0  0  0
    8.2436   -1.0112   23.3272 H   0  0  0  0  0  0  0  0  0  0  0  0
    6.8975   -1.6551   21.0614 H   0  0  0  0  0  0  0  0  0  0  0  0
    9.5131   -3.0722   21.6866 H   0  0  0  0  0  0  0  0  0  0  0  0
  1  2  1  0  0  0  0
  1  4  2  0  0  0  0
  2  5  2  0  0  0  0
  3  6  2  0  0  0  0
  3  7  1  0  0  0  0
  4 11  1  0  0  0  0
  5 12  1  0  0  0  0
  6 13  1  0  0  0  0
  7 15  2  0  0  0  0
  8 13  2  0  0  0  0
  8 15  1  0  0  0  0
  9 11  2  0  0  0  0
  9 26  1  0  0  0  0
 10 14  1  0  0  0  0
 10 26  2  0  0  0  0
 11 12  1  0  0  0  0
 12 14  2  0  0  0  0
 13 25  1  0  0  0  0
 14 30  1  0  0  0  0
 15 34  1  0  0  0  0
 16 20  1  0  0  0  0
 16 27  2  0  0  0  0
 16 29  1  0  0  0  0
 17 24  1  0  0  0  0
 17 27  1  0  0  0  0
 17 28  2  0  0  0  0
 18 23  1  6  0  0  0
 18 31  1  0  0  0  0
 18 32  2  0  0  0  0
 19 25  1  1  0  0  0
 19 30  1  0  0  0  0
 19 33  2  0  0  0  0
 20 21  1  0  0  0  0
 21 23  1  0  0  0  0
 22 23  1  0  0  0  0
 22 29  1  0  0  0  0
 25 31  1  0  0  0  0
 28 29  1  0  0  0  0
  1 35  1  0  0  0  0
  2 36  1  0  0  0  0
  3 37  1  0  0  0  0
  4 38  1  0  0  0  0
  5 39  1  0  0  0  0
  6 40  1  0  0  0  0
  7 41  1  0  0  0  0
  8 42  1  0  0  0  0
  9 43  1  0  0  0  0
 10 44  1  0  0  0  0
 20 45  1  0  0  0  0
 20 46  1  0  0  0  0
 21 47  1  0  0  0  0
 21 48  1  0  0  0  0
 22 49  1  0  0  0  0
 22 50  1  0  0  0  0
 23 51  1  0  0  0  0
 24 52  1  0  0  0  0
 24 53  1  0  0  0  0
 24 54  1  0  0  0  0
 25 55  1  0  0  0  0
 30 56  1  0  0  0  0
 31 57  1  0  0  0  0
M  END
> <compound>
MAT-POS-a13804f0-1

> <compound_smiles>
Cc1nc2n(n1)CC(CC2)C(=O)NC(c3cccc(c3)Cl)C(=O)Nc4cncc5c4cccc5

> <enantiomer_smiles>
Cc1nc2n(n1)C[C@H](CC2)C(=O)N[C@@H](c3cccc(c3)Cl)C(=O)Nc4cncc5c4cccc5

> <scaffold>
chlorobenzene-linker

> <canonical_CID>
MAT-POS-a13804f0-1

> <r_inhibition_at_20_uM>

> <r_inhibition_at_50_uM>

> <r_avg_IC50>

> <f_inhibition_at_20_uM>

> <f_inhibition_at_50_uM>

> <f_avg_IC50>
4.98466083335619

> <f_avg_pIC50>

> <relative_solubility_at_20_uM>

> <relative_solubility_at_100_uM>

> <trypsin_IC50>

> <NMR_std_ratio>

> <acrylamide>
False

> <chloroacetamide>
False

> <series>
Ugi

> <frag_id>

> <clash_score>
0

> <docking_score>
-9.937541961669922

> <overlap_score>
0.9687000513076782

> <MMFF_internal_energy>
104.78560868311868

> <docked_smiles>
Cc1nc2n(n1)C[C@H](CC2)C(=O)N[C@@H](c3cccc(c3)Cl)C(=O)Nc4cncc5c4cccc5

$$$$
MAT-POS-a13804f0-1_4
  -OEChem-07262101023D

 57 61  0     1  0  0  0  0  0999 V2000
    3.4578    2.5708   20.0554 C   0  0  0  0  0  0  0  0  0  0  0  0
    4.0829    2.0498   21.1859 C   0  0  0  0  0  0  0  0  0  0  0  0
   11.9780    0.4600   23.9150 C   0  0  0  0  0  0  0  0  0  0  0  0
    3.8699    2.1730   18.7838 C   0  0  0  0  0  0  0  0  0  0  0  0
    5.1230    1.1287   21.0499 C   0  0  0  0  0  0  0  0  0  0  0  0
   10.6560    0.0720   23.7350 C   0  0  0  0  0  0  0  0  0  0  0  0
   12.9840   -0.1200   23.1530 C   0  0  0  0  0  0  0  0  0  0  0  0
   11.3360   -1.5050   22.0650 C   0  0  0  0  0  0  0  0  0  0  0  0
    5.3678    0.8139   17.3870 C   0  0  0  0  0  0  0  0  0  0  0  0
    6.9546   -0.5609   18.3181 C   0  0  0  0  0  0  0  0  0  0  0  0
    4.9154    1.2466   18.6351 C   0  0  0  0  0  0  0  0  0  0  0  0
    5.5508    0.7169   19.7772 C   0  0  0  0  0  0  0  0  0  0  0  0
   10.3220   -0.8940   22.7910 C   0  0  0  0  0  0  0  0  0  0  0  0
    6.5904   -0.2048   19.6077 C   0  0  0  0  0  0  0  0  0  0  0  0
   12.6400   -1.1000   22.2390 C   0  0  0  0  0  0  0  0  0  0  0  0
    3.9404   -0.8760   26.8426 C   0  0  0  0  0  0  0  0  0  0  0  0
    2.9732   -2.2595   28.0831 C   0  0  0  0  0  0  0  0  0  0  0  0
    6.8542   -1.6639   23.8149 C   0  0  0  0  0  0  0  0  0  0  0  0
    8.3880   -0.3240   21.3070 C   0  0  0  0  0  0  0  0  0  0  0  0
    4.4700    0.3023   26.1098 C   0  0  0  0  0  0  0  0  0  0  0  0
    5.1865   -0.1177   24.8213 C   0  0  0  0  0  0  0  0  0  0  0  0
    5.3959   -2.5094   25.6229 C   0  0  0  0  0  0  0  0  0  0  0  0
    6.1470   -1.2880   25.0795 C   0  0  2  0  0  0  0  0  0  0  0  0
    2.0657   -2.7958   29.1041 C   0  0  0  0  0  0  0  0  0  0  0  0
    8.8810   -1.1900   22.4510 C   0  0  2  0  0  0  0  0  0  0  0  0
    6.3699   -0.0750   17.2025 N   0  0  0  0  0  0  0  0  0  0  0  0
    3.0190   -0.9260   27.7801 N   0  0  0  0  0  0  0  0  0  0  0  0
    3.8078   -3.0440   27.3956 N   0  0  0  0  0  0  0  0  0  0  0  0
    4.4176   -2.1368   26.6201 N   0  0  0  0  0  0  0  0  0  0  0  0
    7.2820   -0.7860   20.6970 N   0  0  0  0  0  0  0  0  0  0  0  0
    8.0374   -0.9810   23.6076 N   0  0  0  0  0  0  0  0  0  0  0  0
    6.3654   -2.5130   23.0789 O   0  0  0  0  0  0  0  0  0  0  0  0
    8.9170    0.7530   21.0260 O   0  0  0  0  0  0  0  0  0  0  0  0
   13.8840   -1.8490   21.2740 Cl  0  0  0  0  0  0  0  0  0  0  0  0
    2.6488    3.2871   20.1641 H   0  0  0  0  0  0  0  0  0  0  0  0
    3.7602    2.3608   22.1755 H   0  0  0  0  0  0  0  0  0  0  0  0
   12.2249    1.2198   24.6546 H   0  0  0  0  0  0  0  0  0  0  0  0
    3.3709    2.5895   17.9118 H   0  0  0  0  0  0  0  0  0  0  0  0
    5.5865    0.7452   21.9560 H   0  0  0  0  0  0  0  0  0  0  0  0
    9.8763    0.5350   24.3454 H   0  0  0  0  0  0  0  0  0  0  0  0
   14.0077    0.1988   23.2842 H   0  0  0  0  0  0  0  0  0  0  0  0
   11.0892   -2.3009   21.3624 H   0  0  0  0  0  0  0  0  0  0  0  0
    4.9221    1.1820   16.4670 H   0  0  0  0  0  0  0  0  0  0  0  0
    7.7545   -1.2725   18.1337 H   0  0  0  0  0  0  0  0  0  0  0  0
    3.6366    0.9721   25.8719 H   0  0  0  0  0  0  0  0  0  0  0  0
    5.1609    0.8610   26.7491 H   0  0  0  0  0  0  0  0  0  0  0  0
    4.4466   -0.3842   24.0677 H   0  0  0  0  0  0  0  0  0  0  0  0
    5.7620    0.7274   24.4401 H   0  0  0  0  0  0  0  0  0  0  0  0
    4.8753   -3.0498   24.8302 H   0  0  0  0  0  0  0  0  0  0  0  0
    6.0939   -3.1857   26.1216 H   0  0  0  0  0  0  0  0  0  0  0  0
    6.9105   -0.9927   25.7866 H   0  0  0  0  0  0  0  0  0  0  0  0
    1.0902   -3.0820   28.6700 H   0  0  0  0  0  0  0  0  0  0  0  0
    2.4769   -3.6923   29.6059 H   0  0  0  0  0  0  0  0  0  0  0  0
    1.8637   -2.0686   29.9136 H   0  0  0  0  0  0  0  0  0  0  0  0
    8.7711   -2.2448   22.1651 H   0  0  0  0  0  0  0  0  0  0  0  0
    6.8975   -1.6551   21.0614 H   0  0  0  0  0  0  0  0  0  0  0  0
    8.3305   -0.3000   24.3017 H   0  0  0  0  0  0  0  0  0  0  0  0
  1  2  1  0  0  0  0
  1  4  2  0  0  0  0
  2  5  2  0  0  0  0
  3  6  2  0  0  0  0
  3  7  1  0  0  0  0
  4 11  1  0  0  0  0
  5 12  1  0  0  0  0
  6 13  1  0  0  0  0
  7 15  2  0  0  0  0
  8 13  2  0  0  0  0
  8 15  1  0  0  0  0
  9 11  2  0  0  0  0
  9 26  1  0  0  0  0
 10 14  1  0  0  0  0
 10 26  2  0  0  0  0
 11 12  1  0  0  0  0
 12 14  2  0  0  0  0
 13 25  1  0  0  0  0
 14 30  1  0  0  0  0
 15 34  1  0  0  0  0
 16 20  1  0  0  0  0
 16 27  2  0  0  0  0
 16 29  1  0  0  0  0
 17 24  1  0  0  0  0
 17 27  1  0  0  0  0
 17 28  2  0  0  0  0
 18 23  1  6  0  0  0
 18 31  1  0  0  0  0
 18 32  2  0  0  0  0
 19 25  1  6  0  0  0
 19 30  1  0  0  0  0
 19 33  2  0  0  0  0
 20 21  1  0  0  0  0
 21 23  1  0  0  0  0
 22 23  1  0  0  0  0
 22 29  1  0  0  0  0
 25 31  1  0  0  0  0
 28 29  1  0  0  0  0
  1 35  1  0  0  0  0
  2 36  1  0  0  0  0
  3 37  1  0  0  0  0
  4 38  1  0  0  0  0
  5 39  1  0  0  0  0
  6 40  1  0  0  0  0
  7 41  1  0  0  0  0
  8 42  1  0  0  0  0
  9 43  1  0  0  0  0
 10 44  1  0  0  0  0
 20 45  1  0  0  0  0
 20 46  1  0  0  0  0
 21 47  1  0  0  0  0
 21 48  1  0  0  0  0
 22 49  1  0  0  0  0
 22 50  1  0  0  0  0
 23 51  1  0  0  0  0
 24 52  1  0  0  0  0
 24 53  1  0  0  0  0
 24 54  1  0  0  0  0
 25 55  1  0  0  0  0
 30 56  1  0  0  0  0
 31 57  1  0  0  0  0
M  END
> <compound>
MAT-POS-a13804f0-1

> <compound_smiles>
Cc1nc2n(n1)CC(CC2)C(=O)NC(c3cccc(c3)Cl)C(=O)Nc4cncc5c4cccc5

> <enantiomer_smiles>
Cc1nc2n(n1)C[C@H](CC2)C(=O)N[C@H](c3cccc(c3)Cl)C(=O)Nc4cncc5c4cccc5

> <scaffold>
chlorobenzene-linker

> <canonical_CID>
MAT-POS-a13804f0-1

> <r_inhibition_at_20_uM>

> <r_inhibition_at_50_uM>

> <r_avg_IC50>

> <f_inhibition_at_20_uM>

> <f_inhibition_at_50_uM>

> <f_avg_IC50>
4.98466083335619

> <f_avg_pIC50>

> <relative_solubility_at_20_uM>

> <relative_solubility_at_100_uM>

> <trypsin_IC50>

> <NMR_std_ratio>

> <acrylamide>
False

> <chloroacetamide>
False

> <series>
Ugi

> <frag_id>

> <clash_score>
0

> <docking_score>
-8.292003631591797

> <overlap_score>
0.968292772769928

> <MMFF_internal_energy>
103.04532840854093

> <docked_smiles>
Cc1nc2n(n1)C[C@H](CC2)C(=O)N[C@H](c3cccc(c3)Cl)C(=O)Nc4cncc5c4cccc5

$$$$
MAT-POS-a13804f0-4_1
  -OEChem-07262101023D

 63 67  0     1  0  0  0  0  0999 V2000
    2.5650    1.0118   19.7905 C   0  0  0  0  0  0  0  0  0  0  0  0
    3.1657    0.4486   20.9139 C   0  0  0  0  0  0  0  0  0  0  0  0
   11.9780    0.4600   23.9150 C   0  0  0  0  0  0  0  0  0  0  0  0
    3.2959    1.1705   18.6133 C   0  0  0  0  0  0  0  0  0  0  0  0
    4.5001    0.0414   20.8653 C   0  0  0  0  0  0  0  0  0  0  0  0
   10.6560    0.0720   23.7350 C   0  0  0  0  0  0  0  0  0  0  0  0
   12.9840   -0.1200   23.1530 C   0  0  0  0  0  0  0  0  0  0  0  0
   11.3360   -1.5050   22.0650 C   0  0  0  0  0  0  0  0  0  0  0  0
    5.4171    0.8995   17.4014 C   0  0  0  0  0  0  0  0  0  0  0  0
    7.2639   -0.0211   18.4097 C   0  0  0  0  0  0  0  0  0  0  0  0
    4.6393    0.7642   18.5530 C   0  0  0  0  0  0  0  0  0  0  0  0
    5.2510    0.1935   19.6882 C   0  0  0  0  0  0  0  0  0  0  0  0
   10.3220   -0.8940   22.7910 C   0  0  0  0  0  0  0  0  0  0  0  0
    6.5904   -0.2048   19.6077 C   0  0  0  0  0  0  0  0  0  0  0  0
   12.6400   -1.1000   22.2390 C   0  0  0  0  0  0  0  0  0  0  0  0
    4.3435   -3.7843   25.0874 C   0  0  0  0  0  0  0  0  0  0  0  0
    7.7910   -1.9633   24.5477 C   0  0  0  0  0  0  0  0  0  0  0  0
    8.3880   -0.3240   21.3070 C   0  0  0  0  0  0  0  0  0  0  0  0
    1.5283   -6.0500   25.7673 C   0  0  0  0  0  0  0  0  0  0  0  0
    1.2820   -4.9631   26.8061 C   0  0  0  0  0  0  0  0  0  0  0  0
    6.1659   -3.4819   26.7786 C   0  0  0  0  0  0  0  0  0  0  0  0
    7.1309   -2.3295   26.9251 C   0  0  0  0  0  0  0  0  0  0  0  0
    2.4491   -5.3627   24.7709 C   0  0  0  0  0  0  0  0  0  0  0  0
    2.6344   -4.2712   26.9034 C   0  0  0  0  0  0  0  0  0  0  0  0
    5.0102   -2.8447   26.0350 C   0  0  1  0  0  0  0  0  0  0  0  0
    6.8922   -1.5285   25.6616 C   0  0  2  0  0  0  0  0  0  0  0  0
    8.8810   -1.1900   22.4510 C   0  0  1  0  0  0  0  0  0  0  0  0
    6.7116    0.5212   17.3036 N   0  0  0  0  0  0  0  0  0  0  0  0
    3.2164   -4.4214   25.5733 N   0  0  0  0  0  0  0  0  0  0  0  0
    7.2820   -0.7860   20.6970 N   0  0  0  0  0  0  0  0  0  0  0  0
    8.0374   -0.9810   23.6076 N   0  0  0  0  0  0  0  0  0  0  0  0
    4.7943   -3.9507   23.9529 O   0  0  0  0  0  0  0  0  0  0  0  0
    8.2327   -3.1063   24.5389 O   0  0  0  0  0  0  0  0  0  0  0  0
    8.9170    0.7530   21.0260 O   0  0  0  0  0  0  0  0  0  0  0  0
    5.5537   -1.7881   25.2368 O   0  0  0  0  0  0  0  0  0  0  0  0
   13.8840   -1.8490   21.2740 Cl  0  0  0  0  0  0  0  0  0  0  0  0
    1.5267    1.3276   19.8311 H   0  0  0  0  0  0  0  0  0  0  0  0
    2.5946    0.3257   21.8297 H   0  0  0  0  0  0  0  0  0  0  0  0
   12.2249    1.2198   24.6546 H   0  0  0  0  0  0  0  0  0  0  0  0
    2.8114    1.6119   17.7455 H   0  0  0  0  0  0  0  0  0  0  0  0
    4.9338   -0.3933   21.7630 H   0  0  0  0  0  0  0  0  0  0  0  0
    9.8763    0.5350   24.3454 H   0  0  0  0  0  0  0  0  0  0  0  0
   14.0077    0.1988   23.2842 H   0  0  0  0  0  0  0  0  0  0  0  0
   11.0892   -2.3008   21.3624 H   0  0  0  0  0  0  0  0  0  0  0  0
    5.0078    1.3308   16.4920 H   0  0  0  0  0  0  0  0  0  0  0  0
    8.3038   -0.3142   18.2963 H   0  0  0  0  0  0  0  0  0  0  0  0
    2.0370   -6.9050   26.2280 H   0  0  0  0  0  0  0  0  0  0  0  0
    0.6016   -6.4033   25.3067 H   0  0  0  0  0  0  0  0  0  0  0  0
    0.5216   -4.2607   26.4447 H   0  0  0  0  0  0  0  0  0  0  0  0
    0.9508   -5.3711   27.7650 H   0  0  0  0  0  0  0  0  0  0  0  0
    6.6296   -4.2912   26.1997 H   0  0  0  0  0  0  0  0  0  0  0  0
    5.8579   -3.9070   27.7400 H   0  0  0  0  0  0  0  0  0  0  0  0
    6.8470   -1.7303   27.7987 H   0  0  0  0  0  0  0  0  0  0  0  0
    8.1668   -2.6547   27.0586 H   0  0  0  0  0  0  0  0  0  0  0  0
    3.1104   -6.0578   24.2452 H   0  0  0  0  0  0  0  0  0  0  0  0
    1.8833   -4.7854   24.0313 H   0  0  0  0  0  0  0  0  0  0  0  0
    2.5494   -3.2171   27.1809 H   0  0  0  0  0  0  0  0  0  0  0  0
    3.2930   -4.7786   27.6165 H   0  0  0  0  0  0  0  0  0  0  0  0
    4.2634   -2.4215   26.7123 H   0  0  0  0  0  0  0  0  0  0  0  0
    7.0316   -0.4553   25.8185 H   0  0  0  0  0  0  0  0  0  0  0  0
    8.7711   -2.2448   22.1651 H   0  0  0  0  0  0  0  0  0  0  0  0
    6.8975   -1.6551   21.0614 H   0  0  0  0  0  0  0  0  0  0  0  0
    7.6065   -0.0703   23.7357 H   0  0  0  0  0  0  0  0  0  0  0  0
  1  2  1  0  0  0  0
  1  4  2  0  0  0  0
  2  5  2  0  0  0  0
  3  6  2  0  0  0  0
  3  7  1  0  0  0  0
  4 11  1  0  0  0  0
  5 12  1  0  0  0  0
  6 13  1  0  0  0  0
  7 15  2  0  0  0  0
  8 13  2  0  0  0  0
  8 15  1  0  0  0  0
  9 11  2  0  0  0  0
  9 28  1  0  0  0  0
 10 14  1  0  0  0  0
 10 28  2  0  0  0  0
 11 12  1  0  0  0  0
 12 14  2  0  0  0  0
 13 27  1  0  0  0  0
 14 30  1  0  0  0  0
 15 36  1  0  0  0  0
 16 25  1  0  0  0  0
 16 29  1  0  0  0  0
 16 32  2  0  0  0  0
 17 26  1  0  0  0  0
 17 31  1  0  0  0  0
 17 33  2  0  0  0  0
 18 27  1  1  0  0  0
 18 30  1  0  0  0  0
 18 34  2  0  0  0  0
 19 20  1  0  0  0  0
 19 23  1  0  0  0  0
 20 24  1  0  0  0  0
 21 22  1  0  0  0  0
 21 25  1  0  0  0  0
 22 26  1  0  0  0  0
 23 29  1  0  0  0  0
 24 29  1  0  0  0  0
 25 35  1  0  0  0  0
 26 35  1  0  0  0  0
 27 31  1  0  0  0  0
  1 37  1  0  0  0  0
  2 38  1  0  0  0  0
  3 39  1  0  0  0  0
  4 40  1  0  0  0  0
  5 41  1  0  0  0  0
  6 42  1  0  0  0  0
  7 43  1  0  0  0  0
  8 44  1  0  0  0  0
  9 45  1  0  0  0  0
 10 46  1  0  0  0  0
 19 47  1  0  0  0  0
 19 48  1  0  0  0  0
 20 49  1  0  0  0  0
 20 50  1  0  0  0  0
 21 51  1  0  0  0  0
 21 52  1  0  0  0  0
 22 53  1  0  0  0  0
 22 54  1  0  0  0  0
 23 55  1  0  0  0  0
 23 56  1  0  0  0  0
 24 57  1  0  0  0  0
 24 58  1  0  0  0  0
 25 59  1  0  0  0  0
 26 60  1  0  0  0  0
 27 61  1  0  0  0  0
 30 62  1  0  0  0  0
 31 63  1  0  0  0  0
M  END
> <compound>
MAT-POS-a13804f0-4

> <compound_smiles>
c1ccc2c(c1)cncc2NC(=O)C(c3cccc(c3)Cl)NC(=O)[C@@H]4CC[C@@H](O4)C(=O)N5CCCC5

> <enantiomer_smiles>
c1ccc2c(c1)cncc2NC(=O)[C@@H](c3cccc(c3)Cl)NC(=O)[C@@H]4CC[C@@H](O4)C(=O)N5CCCC5

> <scaffold>
chlorobenzene-linker

> <canonical_CID>
MAT-POS-a13804f0-4

> <r_inhibition_at_20_uM>

> <r_inhibition_at_50_uM>

> <r_avg_IC50>

> <f_inhibition_at_20_uM>

> <f_inhibition_at_50_uM>

> <f_avg_IC50>
0.450941216935076

> <f_avg_pIC50>

> <relative_solubility_at_20_uM>

> <relative_solubility_at_100_uM>

> <trypsin_IC50>

> <NMR_std_ratio>

> <acrylamide>
False

> <chloroacetamide>
False

> <series>
Ugi

> <frag_id>

> <clash_score>
0.651224689792249

> <docking_score>
-3.0814108848571777

> <overlap_score>
0.8811512589454651

> <MMFF_internal_energy>
167.74277723138897

> <docked_smiles>
c1ccc2c(c1)cncc2NC(=O)[C@@H](c3cccc(c3)Cl)NC(=O)[C@@H]4CC[C@@H](O4)C(=O)N5CCCC5

$$$$
EDJ-MED-cf4b0d25-4_1
  -OEChem-07262101023D

 41 43  0     1  0  0  0  0  0999 V2000
    3.4420    2.5357   20.0698 C   0  0  0  0  0  0  0  0  0  0  0  0
    4.0762    2.0251   21.2000 C   0  0  0  0  0  0  0  0  0  0  0  0
   11.9780    0.4600   23.9150 C   0  0  0  0  0  0  0  0  0  0  0  0
    3.8501    2.1333   18.7984 C   0  0  0  0  0  0  0  0  0  0  0  0
    5.1214    1.1099   21.0639 C   0  0  0  0  0  0  0  0  0  0  0  0
   10.6560    0.0720   23.7350 C   0  0  0  0  0  0  0  0  0  0  0  0
   12.9840   -0.1200   23.1530 C   0  0  0  0  0  0  0  0  0  0  0  0
   11.3360   -1.5050   22.0650 C   0  0  0  0  0  0  0  0  0  0  0  0
    5.3494    0.7759   17.4016 C   0  0  0  0  0  0  0  0  0  0  0  0
    6.9497   -0.5836   18.3322 C   0  0  0  0  0  0  0  0  0  0  0  0
    4.9007    1.2128   18.6495 C   0  0  0  0  0  0  0  0  0  0  0  0
    5.5453    0.6936   19.7912 C   0  0  0  0  0  0  0  0  0  0  0  0
   10.3220   -0.8940   22.7910 C   0  0  0  0  0  0  0  0  0  0  0  0
    6.5899   -0.2225   19.6216 C   0  0  0  0  0  0  0  0  0  0  0  0
   12.6400   -1.1000   22.2390 C   0  0  0  0  0  0  0  0  0  0  0  0
    7.5462   -3.2839   22.2821 C   0  0  0  0  0  0  0  0  0  0  0  0
    8.3880   -0.3240   21.3070 C   0  0  0  0  0  0  0  0  0  0  0  0
    7.6102   -4.7080   21.8392 C   0  0  0  0  0  0  0  0  0  0  0  0
    8.8810   -1.1900   22.4510 C   0  0  1  0  0  0  0  0  0  0  0  0
    6.3562   -0.1077   17.2169 N   0  0  0  0  0  0  0  0  0  0  0  0
    7.2820   -0.7860   20.6970 N   0  0  0  0  0  0  0  0  0  0  0  0
    8.7217   -2.5865   22.0933 N   0  0  0  0  0  0  0  0  0  0  0  0
    6.5061   -2.8459   22.7597 O   0  0  0  0  0  0  0  0  0  0  0  0
    8.9170    0.7530   21.0260 O   0  0  0  0  0  0  0  0  0  0  0  0
   13.8840   -1.8490   21.2740 Cl  0  0  0  0  0  0  0  0  0  0  0  0
    2.6290    3.2475   20.1787 H   0  0  0  0  0  0  0  0  0  0  0  0
    3.7567    2.3397   22.1895 H   0  0  0  0  0  0  0  0  0  0  0  0
   12.2249    1.2198   24.6546 H   0  0  0  0  0  0  0  0  0  0  0  0
    3.3440    2.5417   17.9266 H   0  0  0  0  0  0  0  0  0  0  0  0
    5.5920    0.7344   21.9697 H   0  0  0  0  0  0  0  0  0  0  0  0
    9.8763    0.5350   24.3454 H   0  0  0  0  0  0  0  0  0  0  0  0
   14.0077    0.1988   23.2842 H   0  0  0  0  0  0  0  0  0  0  0  0
   11.0892   -2.3009   21.3624 H   0  0  0  0  0  0  0  0  0  0  0  0
    4.8966    1.1359   16.4818 H   0  0  0  0  0  0  0  0  0  0  0  0
    7.7531   -1.2911   18.1477 H   0  0  0  0  0  0  0  0  0  0  0  0
    7.9407   -5.3842   22.6440 H   0  0  0  0  0  0  0  0  0  0  0  0
    6.6287   -5.0935   21.5198 H   0  0  0  0  0  0  0  0  0  0  0  0
    8.2890   -4.9089   20.9950 H   0  0  0  0  0  0  0  0  0  0  0  0
    8.2436   -1.0112   23.3272 H   0  0  0  0  0  0  0  0  0  0  0  0
    6.8984   -1.6618   21.0676 H   0  0  0  0  0  0  0  0  0  0  0  0
    9.5122   -3.0726   21.6850 H   0  0  0  0  0  0  0  0  0  0  0  0
  1  2  1  0  0  0  0
  1  4  2  0  0  0  0
  2  5  2  0  0  0  0
  3  6  2  0  0  0  0
  3  7  1  0  0  0  0
  4 11  1  0  0  0  0
  5 12  1  0  0  0  0
  6 13  1  0  0  0  0
  7 15  2  0  0  0  0
  8 13  2  0  0  0  0
  8 15  1  0  0  0  0
  9 11  2  0  0  0  0
  9 20  1  0  0  0  0
 10 14  1  0  0  0  0
 10 20  2  0  0  0  0
 11 12  1  0  0  0  0
 12 14  2  0  0  0  0
 13 19  1  0  0  0  0
 14 21  1  0  0  0  0
 15 25  1  0  0  0  0
 16 18  1  0  0  0  0
 16 22  1  0  0  0  0
 16 23  2  0  0  0  0
 17 19  1  1  0  0  0
 17 21  1  0  0  0  0
 17 24  2  0  0  0  0
 19 22  1  0  0  0  0
  1 26  1  0  0  0  0
  2 27  1  0  0  0  0
  3 28  1  0  0  0  0
  4 29  1  0  0  0  0
  5 30  1  0  0  0  0
  6 31  1  0  0  0  0
  7 32  1  0  0  0  0
  8 33  1  0  0  0  0
  9 34  1  0  0  0  0
 10 35  1  0  0  0  0
 18 36  1  0  0  0  0
 18 37  1  0  0  0  0
 18 38  1  0  0  0  0
 19 39  1  0  0  0  0
 21 40  1  0  0  0  0
 22 41  1  0  0  0  0
M  END
> <compound>
EDJ-MED-cf4b0d25-4

> <compound_smiles>
CC(=O)NC(c1cccc(c1)Cl)C(=O)Nc2cncc3c2cccc3

> <enantiomer_smiles>
CC(=O)N[C@@H](c1cccc(c1)Cl)C(=O)Nc2cncc3c2cccc3

> <scaffold>
chlorobenzene-linker

> <canonical_CID>
EDJ-MED-cf4b0d25-4

> <r_inhibition_at_20_uM>

> <r_inhibition_at_50_uM>

> <r_avg_IC50>

> <f_inhibition_at_20_uM>

> <f_inhibition_at_50_uM>

> <f_avg_IC50>
9.1277913374704

> <f_avg_pIC50>

> <relative_solubility_at_20_uM>

> <relative_solubility_at_100_uM>

> <trypsin_IC50>

> <NMR_std_ratio>

> <acrylamide>
False

> <chloroacetamide>
False

> <series>
Ugi

> <frag_id>

> <clash_score>
0

> <docking_score>
-10.410520553588867

> <overlap_score>
1.0

> <MMFF_internal_energy>
105.71200773465763

> <docked_smiles>
CC(=O)N[C@@H](c1cccc(c1)Cl)C(=O)Nc2cncc3c2cccc3

$$$$
EDJ-MED-cf4b0d25-4_2
  -OEChem-07262101023D

 41 43  0     1  0  0  0  0  0999 V2000
    3.4420    2.5357   20.0698 C   0  0  0  0  0  0  0  0  0  0  0  0
    4.0762    2.0251   21.2000 C   0  0  0  0  0  0  0  0  0  0  0  0
   11.9780    0.4600   23.9150 C   0  0  0  0  0  0  0  0  0  0  0  0
    3.8501    2.1333   18.7984 C   0  0  0  0  0  0  0  0  0  0  0  0
    5.1214    1.1099   21.0639 C   0  0  0  0  0  0  0  0  0  0  0  0
   10.6560    0.0720   23.7350 C   0  0  0  0  0  0  0  0  0  0  0  0
   12.9840   -0.1200   23.1530 C   0  0  0  0  0  0  0  0  0  0  0  0
   11.3360   -1.5050   22.0650 C   0  0  0  0  0  0  0  0  0  0  0  0
    5.3495    0.7759   17.4015 C   0  0  0  0  0  0  0  0  0  0  0  0
    6.9497   -0.5836   18.3322 C   0  0  0  0  0  0  0  0  0  0  0  0
    4.9007    1.2128   18.6495 C   0  0  0  0  0  0  0  0  0  0  0  0
    5.5453    0.6936   19.7912 C   0  0  0  0  0  0  0  0  0  0  0  0
   10.3220   -0.8940   22.7910 C   0  0  0  0  0  0  0  0  0  0  0  0
    6.5899   -0.2225   19.6216 C   0  0  0  0  0  0  0  0  0  0  0  0
   12.6400   -1.1000   22.2390 C   0  0  0  0  0  0  0  0  0  0  0  0
    7.7910   -1.9632   24.5478 C   0  0  0  0  0  0  0  0  0  0  0  0
    8.3880   -0.3240   21.3070 C   0  0  0  0  0  0  0  0  0  0  0  0
    6.8940   -1.5294   25.6593 C   0  0  0  0  0  0  0  0  0  0  0  0
    8.8810   -1.1900   22.4510 C   0  0  2  0  0  0  0  0  0  0  0  0
    6.3562   -0.1077   17.2169 N   0  0  0  0  0  0  0  0  0  0  0  0
    7.2820   -0.7860   20.6970 N   0  0  0  0  0  0  0  0  0  0  0  0
    8.0352   -0.9804   23.6107 N   0  0  0  0  0  0  0  0  0  0  0  0
    8.2327   -3.1063   24.5389 O   0  0  0  0  0  0  0  0  0  0  0  0
    8.9170    0.7530   21.0260 O   0  0  0  0  0  0  0  0  0  0  0  0
   13.8840   -1.8490   21.2740 Cl  0  0  0  0  0  0  0  0  0  0  0  0
    2.6290    3.2475   20.1787 H   0  0  0  0  0  0  0  0  0  0  0  0
    3.7567    2.3397   22.1894 H   0  0  0  0  0  0  0  0  0  0  0  0
   12.2249    1.2198   24.6546 H   0  0  0  0  0  0  0  0  0  0  0  0
    3.3440    2.5417   17.9266 H   0  0  0  0  0  0  0  0  0  0  0  0
    5.5920    0.7345   21.9697 H   0  0  0  0  0  0  0  0  0  0  0  0
    9.8763    0.5350   24.3454 H   0  0  0  0  0  0  0  0  0  0  0  0
   14.0077    0.1988   23.2842 H   0  0  0  0  0  0  0  0  0  0  0  0
   11.0892   -2.3009   21.3624 H   0  0  0  0  0  0  0  0  0  0  0  0
    4.8966    1.1359   16.4818 H   0  0  0  0  0  0  0  0  0  0  0  0
    7.7531   -1.2911   18.1477 H   0  0  0  0  0  0  0  0  0  0  0  0
    5.8306   -1.7150   25.4383 H   0  0  0  0  0  0  0  0  0  0  0  0
    7.0952   -2.0708   26.5976 H   0  0  0  0  0  0  0  0  0  0  0  0
    6.9530   -0.4613   25.9229 H   0  0  0  0  0  0  0  0  0  0  0  0
    8.7711   -2.2448   22.1651 H   0  0  0  0  0  0  0  0  0  0  0  0
    6.8984   -1.6618   21.0676 H   0  0  0  0  0  0  0  0  0  0  0  0
    7.6033   -0.0721   23.7386 H   0  0  0  0  0  0  0  0  0  0  0  0
  1  2  1  0  0  0  0
  1  4  2  0  0  0  0
  2  5  2  0  0  0  0
  3  6  2  0  0  0  0
  3  7  1  0  0  0  0
  4 11  1  0  0  0  0
  5 12  1  0  0  0  0
  6 13  1  0  0  0  0
  7 15  2  0  0  0  0
  8 13  2  0  0  0  0
  8 15  1  0  0  0  0
  9 11  2  0  0  0  0
  9 20  1  0  0  0  0
 10 14  1  0  0  0  0
 10 20  2  0  0  0  0
 11 12  1  0  0  0  0
 12 14  2  0  0  0  0
 13 19  1  0  0  0  0
 14 21  1  0  0  0  0
 15 25  1  0  0  0  0
 16 18  1  0  0  0  0
 16 22  1  0  0  0  0
 16 23  2  0  0  0  0
 17 19  1  6  0  0  0
 17 21  1  0  0  0  0
 17 24  2  0  0  0  0
 19 22  1  0  0  0  0
  1 26  1  0  0  0  0
  2 27  1  0  0  0  0
  3 28  1  0  0  0  0
  4 29  1  0  0  0  0
  5 30  1  0  0  0  0
  6 31  1  0  0  0  0
  7 32  1  0  0  0  0
  8 33  1  0  0  0  0
  9 34  1  0  0  0  0
 10 35  1  0  0  0  0
 18 36  1  0  0  0  0
 18 37  1  0  0  0  0
 18 38  1  0  0  0  0
 19 39  1  0  0  0  0
 21 40  1  0  0  0  0
 22 41  1  0  0  0  0
M  END
> <compound>
EDJ-MED-cf4b0d25-4

> <compound_smiles>
CC(=O)NC(c1cccc(c1)Cl)C(=O)Nc2cncc3c2cccc3

> <enantiomer_smiles>
CC(=O)N[C@H](c1cccc(c1)Cl)C(=O)Nc2cncc3c2cccc3

> <scaffold>
chlorobenzene-linker

> <canonical_CID>
EDJ-MED-cf4b0d25-4

> <r_inhibition_at_20_uM>

> <r_inhibition_at_50_uM>

> <r_avg_IC50>

> <f_inhibition_at_20_uM>

> <f_inhibition_at_50_uM>

> <f_avg_IC50>
9.1277913374704

> <f_avg_pIC50>

> <relative_solubility_at_20_uM>

> <relative_solubility_at_100_uM>

> <trypsin_IC50>

> <NMR_std_ratio>

> <acrylamide>
False

> <chloroacetamide>
False

> <series>
Ugi

> <frag_id>

> <clash_score>
0

> <docking_score>
-11.468538284301758

> <overlap_score>
0.9904067516326904

> <MMFF_internal_energy>
106.18743486556733

> <docked_smiles>
CC(=O)N[C@H](c1cccc(c1)Cl)C(=O)Nc2cncc3c2cccc3

$$$$
JIN-POS-6dc588a4-3_1
  -OEChem-07262101023D

 32 33  0     0  0  0  0  0  0999 V2000
   11.9780    0.4600   23.9150 C   0  0  0  0  0  0  0  0  0  0  0  0
   10.6560    0.0720   23.7350 C   0  0  0  0  0  0  0  0  0  0  0  0
   12.9840   -0.1200   23.1530 C   0  0  0  0  0  0  0  0  0  0  0  0
    5.3714    1.6035   18.5930 C   0  0  0  0  0  0  0  0  0  0  0  0
   11.3360   -1.5050   22.0650 C   0  0  0  0  0  0  0  0  0  0  0  0
    5.2765    0.8263   17.4498 C   0  0  0  0  0  0  0  0  0  0  0  0
    6.4412   -0.9006   18.4191 C   0  0  0  0  0  0  0  0  0  0  0  0
   10.3220   -0.8940   22.7910 C   0  0  0  0  0  0  0  0  0  0  0  0
    6.5908   -0.2043   19.6076 C   0  0  0  0  0  0  0  0  0  0  0  0
    6.0427    1.0710   19.6880 C   0  0  0  0  0  0  0  0  0  0  0  0
   12.6400   -1.1000   22.2390 C   0  0  0  0  0  0  0  0  0  0  0  0
    8.3880   -0.3240   21.3070 C   0  0  0  0  0  0  0  0  0  0  0  0
    5.1156    1.6687   21.7949 C   0  0  0  0  0  0  0  0  0  0  0  0
    8.8810   -1.1900   22.4510 C   0  0  0  0  0  0  0  0  0  0  0  0
    5.7960   -0.4164   17.3342 N   0  0  0  0  0  0  0  0  0  0  0  0
    7.2820   -0.7860   20.6970 N   0  0  0  0  0  0  0  0  0  0  0  0
    8.9170    0.7530   21.0260 O   0  0  0  0  0  0  0  0  0  0  0  0
    6.1525    1.8116   20.8263 O   0  0  0  0  0  0  0  0  0  0  0  0
   13.8840   -1.8490   21.2740 Cl  0  0  0  0  0  0  0  0  0  0  0  0
   12.2249    1.2198   24.6546 H   0  0  0  0  0  0  0  0  0  0  0  0
    9.8763    0.5350   24.3454 H   0  0  0  0  0  0  0  0  0  0  0  0
   14.0077    0.1988   23.2842 H   0  0  0  0  0  0  0  0  0  0  0  0
    4.9340    2.5951   18.6269 H   0  0  0  0  0  0  0  0  0  0  0  0
   11.0892   -2.3009   21.3624 H   0  0  0  0  0  0  0  0  0  0  0  0
    4.7631    1.1955   16.5681 H   0  0  0  0  0  0  0  0  0  0  0  0
    6.8474   -1.8999   18.2949 H   0  0  0  0  0  0  0  0  0  0  0  0
    5.3253    2.3132   22.6521 H   0  0  0  0  0  0  0  0  0  0  0  0
    5.0565    0.6256   22.1157 H   0  0  0  0  0  0  0  0  0  0  0  0
    4.1650    1.9636   21.3442 H   0  0  0  0  0  0  0  0  0  0  0  0
    8.7709   -2.2387   22.1706 H   0  0  0  0  0  0  0  0  0  0  0  0
    8.2491   -1.0157   23.3232 H   0  0  0  0  0  0  0  0  0  0  0  0
    6.8973   -1.6552   21.0612 H   0  0  0  0  0  0  0  0  0  0  0  0
  1  2  2  0  0  0  0
  1  3  1  0  0  0  0
  2  8  1  0  0  0  0
  3 11  2  0  0  0  0
  4  6  2  0  0  0  0
  4 10  1  0  0  0  0
  5  8  2  0  0  0  0
  5 11  1  0  0  0  0
  6 15  1  0  0  0  0
  7  9  1  0  0  0  0
  7 15  2  0  0  0  0
  8 14  1  0  0  0  0
  9 10  2  0  0  0  0
  9 16  1  0  0  0  0
 10 18  1  0  0  0  0
 11 19  1  0  0  0  0
 12 14  1  0  0  0  0
 12 16  1  0  0  0  0
 12 17  2  0  0  0  0
 13 18  1  0  0  0  0
  1 20  1  0  0  0  0
  2 21  1  0  0  0  0
  3 22  1  0  0  0  0
  4 23  1  0  0  0  0
  5 24  1  0  0  0  0
  6 25  1  0  0  0  0
  7 26  1  0  0  0  0
 13 27  1  0  0  0  0
 13 28  1  0  0  0  0
 13 29  1  0  0  0  0
 14 30  1  0  0  0  0
 14 31  1  0  0  0  0
 16 32  1  0  0  0  0
M  END
> <compound>
JIN-POS-6dc588a4-3

> <compound_smiles>
COc1ccncc1NC(=O)Cc2cccc(c2)Cl

> <enantiomer_smiles>
COc1ccncc1NC(=O)Cc2cccc(c2)Cl

> <scaffold>
chlorobenzene-linker

> <canonical_CID>
JIN-POS-6dc588a4-3

> <r_inhibition_at_20_uM>

> <r_inhibition_at_50_uM>

> <r_avg_IC50>

> <f_inhibition_at_20_uM>

> <f_inhibition_at_50_uM>

> <f_avg_IC50>
21.5515545541569

> <f_avg_pIC50>

> <relative_solubility_at_20_uM>

> <relative_solubility_at_100_uM>

> <trypsin_IC50>

> <NMR_std_ratio>

> <acrylamide>
False

> <chloroacetamide>
False

> <series>
3-aminopyridine-like

> <frag_id>

> <clash_score>
0

> <docking_score>
-7.447201251983643

> <overlap_score>
0.8363683819770813

> <MMFF_internal_energy>
83.33165700766057

> <docked_smiles>
COc1ccncc1NC(=O)Cc2cccc(c2)Cl

$$$$
MAT-POS-a13804f0-4_2
  -OEChem-07262101023D

 63 67  0     1  0  0  0  0  0999 V2000
    2.5650    1.0119   19.7905 C   0  0  0  0  0  0  0  0  0  0  0  0
    3.1657    0.4486   20.9139 C   0  0  0  0  0  0  0  0  0  0  0  0
   11.9780    0.4600   23.9150 C   0  0  0  0  0  0  0  0  0  0  0  0
    3.2959    1.1705   18.6133 C   0  0  0  0  0  0  0  0  0  0  0  0
    4.5001    0.0414   20.8653 C   0  0  0  0  0  0  0  0  0  0  0  0
   10.6560    0.0720   23.7350 C   0  0  0  0  0  0  0  0  0  0  0  0
   12.9840   -0.1200   23.1530 C   0  0  0  0  0  0  0  0  0  0  0  0
   11.3360   -1.5050   22.0650 C   0  0  0  0  0  0  0  0  0  0  0  0
    5.4171    0.8995   17.4014 C   0  0  0  0  0  0  0  0  0  0  0  0
    7.2639   -0.0211   18.4097 C   0  0  0  0  0  0  0  0  0  0  0  0
    4.6393    0.7642   18.5530 C   0  0  0  0  0  0  0  0  0  0  0  0
    5.2510    0.1935   19.6882 C   0  0  0  0  0  0  0  0  0  0  0  0
   10.3220   -0.8940   22.7910 C   0  0  0  0  0  0  0  0  0  0  0  0
    6.5904   -0.2048   19.6077 C   0  0  0  0  0  0  0  0  0  0  0  0
   12.6400   -1.1000   22.2390 C   0  0  0  0  0  0  0  0  0  0  0  0
    5.9343   -6.2955   24.1444 C   0  0  0  0  0  0  0  0  0  0  0  0
    8.4778   -3.5789   23.0204 C   0  0  0  0  0  0  0  0  0  0  0  0
    8.3880   -0.3240   21.3070 C   0  0  0  0  0  0  0  0  0  0  0  0
    5.8555   -6.4636   27.8169 C   0  0  0  0  0  0  0  0  0  0  0  0
    7.3526   -6.3347   27.5655 C   0  0  0  0  0  0  0  0  0  0  0  0
    6.7063   -6.4997   21.7694 C   0  0  0  0  0  0  0  0  0  0  0  0
    7.1404   -5.0747   21.5209 C   0  0  0  0  0  0  0  0  0  0  0  0
    5.2500   -5.9696   26.5121 C   0  0  0  0  0  0  0  0  0  0  0  0
    7.4894   -6.7390   26.1043 C   0  0  0  0  0  0  0  0  0  0  0  0
    7.0503   -6.6987   23.2312 C   0  0  1  0  0  0  0  0  0  0  0  0
    8.3474   -4.9413   22.4271 C   0  0  2  0  0  0  0  0  0  0  0  0
    8.8810   -1.1900   22.4510 C   0  0  2  0  0  0  0  0  0  0  0  0
    6.7116    0.5212   17.3036 N   0  0  0  0  0  0  0  0  0  0  0  0
    6.2250   -6.3374   25.4959 N   0  0  0  0  0  0  0  0  0  0  0  0
    7.2820   -0.7860   20.6970 N   0  0  0  0  0  0  0  0  0  0  0  0
    8.7221   -2.5829   22.0943 N   0  0  0  0  0  0  0  0  0  0  0  0
    4.8450   -5.9499   23.6840 O   0  0  0  0  0  0  0  0  0  0  0  0
    8.3644   -3.4342   24.2320 O   0  0  0  0  0  0  0  0  0  0  0  0
    8.9170    0.7530   21.0260 O   0  0  0  0  0  0  0  0  0  0  0  0
    8.1538   -5.8397   23.5251 O   0  0  0  0  0  0  0  0  0  0  0  0
   13.8840   -1.8490   21.2740 Cl  0  0  0  0  0  0  0  0  0  0  0  0
    1.5267    1.3276   19.8311 H   0  0  0  0  0  0  0  0  0  0  0  0
    2.5946    0.3257   21.8297 H   0  0  0  0  0  0  0  0  0  0  0  0
   12.2249    1.2198   24.6546 H   0  0  0  0  0  0  0  0  0  0  0  0
    2.8114    1.6120   17.7455 H   0  0  0  0  0  0  0  0  0  0  0  0
    4.9338   -0.3933   21.7630 H   0  0  0  0  0  0  0  0  0  0  0  0
    9.8763    0.5350   24.3454 H   0  0  0  0  0  0  0  0  0  0  0  0
   14.0077    0.1988   23.2842 H   0  0  0  0  0  0  0  0  0  0  0  0
   11.0892   -2.3008   21.3624 H   0  0  0  0  0  0  0  0  0  0  0  0
    5.0078    1.3308   16.4920 H   0  0  0  0  0  0  0  0  0  0  0  0
    8.3038   -0.3142   18.2963 H   0  0  0  0  0  0  0  0  0  0  0  0
    5.5896   -7.5137   27.9859 H   0  0  0  0  0  0  0  0  0  0  0  0
    5.5264   -5.8780   28.6797 H   0  0  0  0  0  0  0  0  0  0  0  0
    7.6704   -5.2943   27.7026 H   0  0  0  0  0  0  0  0  0  0  0  0
    7.9429   -6.9693   28.2322 H   0  0  0  0  0  0  0  0  0  0  0  0
    5.6285   -6.6036   21.5839 H   0  0  0  0  0  0  0  0  0  0  0  0
    7.2157   -7.2215   21.1205 H   0  0  0  0  0  0  0  0  0  0  0  0
    7.4525   -4.9699   20.4766 H   0  0  0  0  0  0  0  0  0  0  0  0
    6.3509   -4.3470   21.7187 H   0  0  0  0  0  0  0  0  0  0  0  0
    4.2735   -6.4128   26.2955 H   0  0  0  0  0  0  0  0  0  0  0  0
    5.1532   -4.8783   26.5006 H   0  0  0  0  0  0  0  0  0  0  0  0
    8.3367   -6.2554   25.6109 H   0  0  0  0  0  0  0  0  0  0  0  0
    7.5829   -7.8251   25.9968 H   0  0  0  0  0  0  0  0  0  0  0  0
    7.3402   -7.7309   23.4507 H   0  0  0  0  0  0  0  0  0  0  0  0
    9.2826   -5.1878   21.9140 H   0  0  0  0  0  0  0  0  0  0  0  0
    8.2436   -1.0112   23.3272 H   0  0  0  0  0  0  0  0  0  0  0  0
    6.8975   -1.6551   21.0614 H   0  0  0  0  0  0  0  0  0  0  0  0
    8.7949   -2.8409   21.1147 H   0  0  0  0  0  0  0  0  0  0  0  0
  1  2  1  0  0  0  0
  1  4  2  0  0  0  0
  2  5  2  0  0  0  0
  3  6  2  0  0  0  0
  3  7  1  0  0  0  0
  4 11  1  0  0  0  0
  5 12  1  0  0  0  0
  6 13  1  0  0  0  0
  7 15  2  0  0  0  0
  8 13  2  0  0  0  0
  8 15  1  0  0  0  0
  9 11  2  0  0  0  0
  9 28  1  0  0  0  0
 10 14  1  0  0  0  0
 10 28  2  0  0  0  0
 11 12  1  0  0  0  0
 12 14  2  0  0  0  0
 13 27  1  0  0  0  0
 14 30  1  0  0  0  0
 15 36  1  0  0  0  0
 16 25  1  0  0  0  0
 16 29  1  0  0  0  0
 16 32  2  0  0  0  0
 17 26  1  0  0  0  0
 17 31  1  0  0  0  0
 17 33  2  0  0  0  0
 18 27  1  6  0  0  0
 18 30  1  0  0  0  0
 18 34  2  0  0  0  0
 19 20  1  0  0  0  0
 19 23  1  0  0  0  0
 20 24  1  0  0  0  0
 21 22  1  0  0  0  0
 21 25  1  0  0  0  0
 22 26  1  0  0  0  0
 23 29  1  0  0  0  0
 24 29  1  0  0  0  0
 25 35  1  0  0  0  0
 26 35  1  0  0  0  0
 27 31  1  0  0  0  0
  1 37  1  0  0  0  0
  2 38  1  0  0  0  0
  3 39  1  0  0  0  0
  4 40  1  0  0  0  0
  5 41  1  0  0  0  0
  6 42  1  0  0  0  0
  7 43  1  0  0  0  0
  8 44  1  0  0  0  0
  9 45  1  0  0  0  0
 10 46  1  0  0  0  0
 19 47  1  0  0  0  0
 19 48  1  0  0  0  0
 20 49  1  0  0  0  0
 20 50  1  0  0  0  0
 21 51  1  0  0  0  0
 21 52  1  0  0  0  0
 22 53  1  0  0  0  0
 22 54  1  0  0  0  0
 23 55  1  0  0  0  0
 23 56  1  0  0  0  0
 24 57  1  0  0  0  0
 24 58  1  0  0  0  0
 25 59  1  0  0  0  0
 26 60  1  0  0  0  0
 27 61  1  0  0  0  0
 30 62  1  0  0  0  0
 31 63  1  0  0  0  0
M  END
> <compound>
MAT-POS-a13804f0-4

> <compound_smiles>
c1ccc2c(c1)cncc2NC(=O)C(c3cccc(c3)Cl)NC(=O)[C@@H]4CC[C@@H](O4)C(=O)N5CCCC5

> <enantiomer_smiles>
c1ccc2c(c1)cncc2NC(=O)[C@H](c3cccc(c3)Cl)NC(=O)[C@@H]4CC[C@@H](O4)C(=O)N5CCCC5

> <scaffold>
chlorobenzene-linker

> <canonical_CID>
MAT-POS-a13804f0-4

> <r_inhibition_at_20_uM>

> <r_inhibition_at_50_uM>

> <r_avg_IC50>

> <f_inhibition_at_20_uM>

> <f_inhibition_at_50_uM>

> <f_avg_IC50>
0.450941216935076

> <f_avg_pIC50>

> <relative_solubility_at_20_uM>

> <relative_solubility_at_100_uM>

> <trypsin_IC50>

> <NMR_std_ratio>

> <acrylamide>
False

> <chloroacetamide>
False

> <series>
Ugi

> <frag_id>

> <clash_score>
0

> <docking_score>
-3.9025931358337402

> <overlap_score>
0.8814209699630737

> <MMFF_internal_energy>
169.82979819728192

> <docked_smiles>
c1ccc2c(c1)cncc2NC(=O)[C@H](c3cccc(c3)Cl)NC(=O)[C@@H]4CC[C@@H](O4)C(=O)N5CCCC5

$$$$
EDJ-MED-cf4b0d25-3_2
  -OEChem-07262101023D

 49 52  0     1  0  0  0  0  0999 V2000
    3.4420    2.5357   20.0698 C   0  0  0  0  0  0  0  0  0  0  0  0
    4.0762    2.0251   21.2000 C   0  0  0  0  0  0  0  0  0  0  0  0
   11.9780    0.4600   23.9150 C   0  0  0  0  0  0  0  0  0  0  0  0
    3.8501    2.1333   18.7984 C   0  0  0  0  0  0  0  0  0  0  0  0
    5.1214    1.1099   21.0639 C   0  0  0  0  0  0  0  0  0  0  0  0
   10.6560    0.0720   23.7350 C   0  0  0  0  0  0  0  0  0  0  0  0
   12.9840   -0.1200   23.1530 C   0  0  0  0  0  0  0  0  0  0  0  0
   11.3360   -1.5050   22.0650 C   0  0  0  0  0  0  0  0  0  0  0  0
    5.3494    0.7759   17.4015 C   0  0  0  0  0  0  0  0  0  0  0  0
    6.9497   -0.5836   18.3322 C   0  0  0  0  0  0  0  0  0  0  0  0
    4.9007    1.2127   18.6495 C   0  0  0  0  0  0  0  0  0  0  0  0
    5.5453    0.6936   19.7912 C   0  0  0  0  0  0  0  0  0  0  0  0
   10.3220   -0.8940   22.7910 C   0  0  0  0  0  0  0  0  0  0  0  0
    6.5899   -0.2225   19.6216 C   0  0  0  0  0  0  0  0  0  0  0  0
   12.6400   -1.1000   22.2390 C   0  0  0  0  0  0  0  0  0  0  0  0
    8.4778   -3.5792   23.0201 C   0  0  0  0  0  0  0  0  0  0  0  0
    8.3880   -0.3240   21.3070 C   0  0  0  0  0  0  0  0  0  0  0  0
    6.0639   -5.5463   22.4527 C   0  0  0  0  0  0  0  0  0  0  0  0
    7.1426   -5.0683   21.5104 C   0  0  0  0  0  0  0  0  0  0  0  0
    6.8437   -6.4289   23.4007 C   0  0  0  0  0  0  0  0  0  0  0  0
    8.3470   -4.9459   22.4243 C   0  0  2  0  0  0  0  0  0  0  0  0
    8.8810   -1.1900   22.4510 C   0  0  2  0  0  0  0  0  0  0  0  0
    6.3562   -0.1077   17.2169 N   0  0  0  0  0  0  0  0  0  0  0  0
    7.2820   -0.7860   20.6970 N   0  0  0  0  0  0  0  0  0  0  0  0
    8.7217   -2.5865   22.0933 N   0  0  0  0  0  0  0  0  0  0  0  0
    8.3643   -3.4348   24.2317 O   0  0  0  0  0  0  0  0  0  0  0  0
    8.9170    0.7530   21.0260 O   0  0  0  0  0  0  0  0  0  0  0  0
    8.1487   -5.8462   23.5179 O   0  0  0  0  0  0  0  0  0  0  0  0
   13.8840   -1.8490   21.2740 Cl  0  0  0  0  0  0  0  0  0  0  0  0
    2.6290    3.2475   20.1787 H   0  0  0  0  0  0  0  0  0  0  0  0
    3.7567    2.3397   22.1894 H   0  0  0  0  0  0  0  0  0  0  0  0
   12.2249    1.2198   24.6546 H   0  0  0  0  0  0  0  0  0  0  0  0
    3.3440    2.5417   17.9266 H   0  0  0  0  0  0  0  0  0  0  0  0
    5.5920    0.7344   21.9697 H   0  0  0  0  0  0  0  0  0  0  0  0
    9.8763    0.5350   24.3454 H   0  0  0  0  0  0  0  0  0  0  0  0
   14.0077    0.1988   23.2842 H   0  0  0  0  0  0  0  0  0  0  0  0
   11.0892   -2.3009   21.3624 H   0  0  0  0  0  0  0  0  0  0  0  0
    4.8966    1.1359   16.4818 H   0  0  0  0  0  0  0  0  0  0  0  0
    7.7531   -1.2911   18.1477 H   0  0  0  0  0  0  0  0  0  0  0  0
    5.6387   -4.6941   22.9959 H   0  0  0  0  0  0  0  0  0  0  0  0
    5.2474   -6.0736   21.9526 H   0  0  0  0  0  0  0  0  0  0  0  0
    7.3288   -5.8381   20.7519 H   0  0  0  0  0  0  0  0  0  0  0  0
    6.8786   -4.1397   20.9955 H   0  0  0  0  0  0  0  0  0  0  0  0
    6.3807   -6.4988   24.3889 H   0  0  0  0  0  0  0  0  0  0  0  0
    6.9623   -7.4399   22.9959 H   0  0  0  0  0  0  0  0  0  0  0  0
    9.2837   -5.1914   21.9110 H   0  0  0  0  0  0  0  0  0  0  0  0
    8.2436   -1.0112   23.3272 H   0  0  0  0  0  0  0  0  0  0  0  0
    6.8984   -1.6618   21.0676 H   0  0  0  0  0  0  0  0  0  0  0  0
    8.7928   -2.8447   21.1155 H   0  0  0  0  0  0  0  0  0  0  0  0
  1  2  1  0  0  0  0
  1  4  2  0  0  0  0
  2  5  2  0  0  0  0
  3  6  2  0  0  0  0
  3  7  1  0  0  0  0
  4 11  1  0  0  0  0
  5 12  1  0  0  0  0
  6 13  1  0  0  0  0
  7 15  2  0  0  0  0
  8 13  2  0  0  0  0
  8 15  1  0  0  0  0
  9 11  2  0  0  0  0
  9 23  1  0  0  0  0
 10 14  1  0  0  0  0
 10 23  2  0  0  0  0
 11 12  1  0  0  0  0
 12 14  2  0  0  0  0
 13 22  1  0  0  0  0
 14 24  1  0  0  0  0
 15 29  1  0  0  0  0
 16 21  1  0  0  0  0
 16 25  1  0  0  0  0
 16 26  2  0  0  0  0
 17 22  1  6  0  0  0
 17 24  1  0  0  0  0
 17 27  2  0  0  0  0
 18 19  1  0  0  0  0
 18 20  1  0  0  0  0
 19 21  1  0  0  0  0
 20 28  1  0  0  0  0
 21 28  1  0  0  0  0
 22 25  1  0  0  0  0
  1 30  1  0  0  0  0
  2 31  1  0  0  0  0
  3 32  1  0  0  0  0
  4 33  1  0  0  0  0
  5 34  1  0  0  0  0
  6 35  1  0  0  0  0
  7 36  1  0  0  0  0
  8 37  1  0  0  0  0
  9 38  1  0  0  0  0
 10 39  1  0  0  0  0
 18 40  1  0  0  0  0
 18 41  1  0  0  0  0
 19 42  1  0  0  0  0
 19 43  1  0  0  0  0
 20 44  1  0  0  0  0
 20 45  1  0  0  0  0
 21 46  1  0  0  0  0
 22 47  1  0  0  0  0
 24 48  1  0  0  0  0
 25 49  1  0  0  0  0
M  END
> <compound>
EDJ-MED-cf4b0d25-3

> <compound_smiles>
c1ccc2c(c1)cncc2NC(=O)C(c3cccc(c3)Cl)NC(=O)[C@@H]4CCCO4

> <enantiomer_smiles>
c1ccc2c(c1)cncc2NC(=O)[C@H](c3cccc(c3)Cl)NC(=O)[C@@H]4CCCO4

> <scaffold>
chlorobenzene-linker

> <canonical_CID>
EDJ-MED-cf4b0d25-3

> <r_inhibition_at_20_uM>

> <r_inhibition_at_50_uM>

> <r_avg_IC50>

> <f_inhibition_at_20_uM>

> <f_inhibition_at_50_uM>

> <f_avg_IC50>
2.28759334622511

> <f_avg_pIC50>

> <relative_solubility_at_20_uM>

> <relative_solubility_at_100_uM>

> <trypsin_IC50>

> <NMR_std_ratio>

> <acrylamide>
False

> <chloroacetamide>
False

> <series>
Ugi

> <frag_id>

> <clash_score>
0

> <docking_score>
-9.596611022949219

> <overlap_score>
0.9809218645095825

> <MMFF_internal_energy>
150.40823146325928

> <docked_smiles>
c1ccc2c(c1)cncc2NC(=O)[C@H](c3cccc(c3)Cl)NC(=O)[C@@H]4CCCO4

$$$$
JIN-POS-6dc588a4-2_1
  -OEChem-07262101023D

 30 32  0     0  0  0  0  0  0999 V2000
   11.9780    0.4600   23.9150 C   0  0  0  0  0  0  0  0  0  0  0  0
    2.9104    0.5807   20.3656 C   0  0  0  0  0  0  0  0  0  0  0  0
    4.1596    0.0858   20.7381 C   0  0  0  0  0  0  0  0  0  0  0  0
   10.6560    0.0720   23.7350 C   0  0  0  0  0  0  0  0  0  0  0  0
   12.9840   -0.1200   23.1530 C   0  0  0  0  0  0  0  0  0  0  0  0
   11.3360   -1.5050   22.0650 C   0  0  0  0  0  0  0  0  0  0  0  0
    2.7499    1.1058   19.0884 C   0  0  0  0  0  0  0  0  0  0  0  0
    5.1846    0.1514   19.7872 C   0  0  0  0  0  0  0  0  0  0  0  0
   10.3220   -0.8940   22.7910 C   0  0  0  0  0  0  0  0  0  0  0  0
   12.6400   -1.1000   22.2390 C   0  0  0  0  0  0  0  0  0  0  0  0
    6.5430   -0.1980   19.6894 C   0  0  0  0  0  0  0  0  0  0  0  0
    4.8925    0.6996   18.5477 C   0  0  0  0  0  0  0  0  0  0  0  0
    8.3880   -0.3240   21.3070 C   0  0  0  0  0  0  0  0  0  0  0  0
    8.8810   -1.1900   22.4510 C   0  0  0  0  0  0  0  0  0  0  0  0
    3.7090    1.1907   18.1361 N   0  0  0  0  0  0  0  0  0  0  0  0
    7.0590    0.1034   18.4944 N   0  0  0  0  0  0  0  0  0  0  0  0
    7.2820   -0.7860   20.6970 N   0  0  0  0  0  0  0  0  0  0  0  0
    8.9170    0.7530   21.0260 O   0  0  0  0  0  0  0  0  0  0  0  0
    6.0148    0.6703   17.7752 O   0  0  0  0  0  0  0  0  0  0  0  0
   13.8840   -1.8490   21.2740 Cl  0  0  0  0  0  0  0  0  0  0  0  0
   12.2249    1.2198   24.6546 H   0  0  0  0  0  0  0  0  0  0  0  0
    2.0785    0.5560   21.0614 H   0  0  0  0  0  0  0  0  0  0  0  0
    4.3201   -0.3309   21.7267 H   0  0  0  0  0  0  0  0  0  0  0  0
    9.8763    0.5350   24.3454 H   0  0  0  0  0  0  0  0  0  0  0  0
   14.0077    0.1988   23.2842 H   0  0  0  0  0  0  0  0  0  0  0  0
   11.0892   -2.3009   21.3624 H   0  0  0  0  0  0  0  0  0  0  0  0
    1.7818    1.4951   18.7842 H   0  0  0  0  0  0  0  0  0  0  0  0
    8.7774   -2.2383   22.1732 H   0  0  0  0  0  0  0  0  0  0  0  0
    8.2557   -1.0153   23.3257 H   0  0  0  0  0  0  0  0  0  0  0  0
    6.9395   -1.7033   21.0261 H   0  0  0  0  0  0  0  0  0  0  0  0
  1  4  1  0  0  0  0
  1  5  2  0  0  0  0
  2  3  2  0  0  0  0
  2  7  1  0  0  0  0
  3  8  1  0  0  0  0
  4  9  2  0  0  0  0
  5 10  1  0  0  0  0
  6  9  1  0  0  0  0
  6 10  2  0  0  0  0
  7 15  2  0  0  0  0
  8 11  1  0  0  0  0
  8 12  2  0  0  0  0
  9 14  1  0  0  0  0
 10 20  1  0  0  0  0
 11 16  2  0  0  0  0
 11 17  1  0  0  0  0
 12 15  1  0  0  0  0
 12 19  1  0  0  0  0
 13 14  1  0  0  0  0
 13 17  1  0  0  0  0
 13 18  2  0  0  0  0
 16 19  1  0  0  0  0
  1 21  1  0  0  0  0
  2 22  1  0  0  0  0
  3 23  1  0  0  0  0
  4 24  1  0  0  0  0
  5 25  1  0  0  0  0
  6 26  1  0  0  0  0
  7 27  1  0  0  0  0
 14 28  1  0  0  0  0
 14 29  1  0  0  0  0
 17 30  1  0  0  0  0
M  END
> <compound>
JIN-POS-6dc588a4-2

> <compound_smiles>
c1cc(cc(c1)Cl)CC(=O)Nc2c3cccnc3on2

> <enantiomer_smiles>
c1cc(cc(c1)Cl)CC(=O)Nc2c3cccnc3on2

> <scaffold>
chlorobenzene-linker

> <canonical_CID>
JIN-POS-6dc588a4-2

> <r_inhibition_at_20_uM>

> <r_inhibition_at_50_uM>

> <r_avg_IC50>

> <f_inhibition_at_20_uM>

> <f_inhibition_at_50_uM>

> <f_avg_IC50>
99.5

> <f_avg_pIC50>

> <relative_solubility_at_20_uM>

> <relative_solubility_at_100_uM>

> <trypsin_IC50>

> <NMR_std_ratio>

> <acrylamide>
False

> <chloroacetamide>
False

> <series>
3-aminopyridine-like

> <frag_id>

> <clash_score>
0.6255158390212231

> <docking_score>
-2.5944061279296875

> <overlap_score>
0.8683212995529175

> <MMFF_internal_energy>
58.509488561891295

> <docked_smiles>
c1cc(cc(c1)Cl)CC(=O)Nc2c3cccnc3on2

$$$$
EDJ-MED-cf4b0d25-3_1
  -OEChem-07262101023D

 49 52  0     1  0  0  0  0  0999 V2000
    3.4420    2.5357   20.0698 C   0  0  0  0  0  0  0  0  0  0  0  0
    4.0762    2.0251   21.2000 C   0  0  0  0  0  0  0  0  0  0  0  0
   11.9780    0.4600   23.9150 C   0  0  0  0  0  0  0  0  0  0  0  0
    3.8501    2.1333   18.7984 C   0  0  0  0  0  0  0  0  0  0  0  0
    5.1214    1.1098   21.0639 C   0  0  0  0  0  0  0  0  0  0  0  0
   10.6560    0.0720   23.7350 C   0  0  0  0  0  0  0  0  0  0  0  0
   12.9840   -0.1200   23.1530 C   0  0  0  0  0  0  0  0  0  0  0  0
   11.3360   -1.5050   22.0650 C   0  0  0  0  0  0  0  0  0  0  0  0
    5.3494    0.7759   17.4016 C   0  0  0  0  0  0  0  0  0  0  0  0
    6.9497   -0.5836   18.3322 C   0  0  0  0  0  0  0  0  0  0  0  0
    4.9007    1.2127   18.6495 C   0  0  0  0  0  0  0  0  0  0  0  0
    5.5453    0.6936   19.7912 C   0  0  0  0  0  0  0  0  0  0  0  0
   10.3220   -0.8940   22.7910 C   0  0  0  0  0  0  0  0  0  0  0  0
    6.5899   -0.2225   19.6216 C   0  0  0  0  0  0  0  0  0  0  0  0
   12.6400   -1.1000   22.2390 C   0  0  0  0  0  0  0  0  0  0  0  0
    7.7910   -1.9632   24.5478 C   0  0  0  0  0  0  0  0  0  0  0  0
    8.3880   -0.3240   21.3070 C   0  0  0  0  0  0  0  0  0  0  0  0
    7.0469   -3.1207   27.3982 C   0  0  0  0  0  0  0  0  0  0  0  0
    7.5180   -1.7346   27.0282 C   0  0  0  0  0  0  0  0  0  0  0  0
    5.6665   -3.1578   26.7827 C   0  0  0  0  0  0  0  0  0  0  0  0
    6.8917   -1.5282   25.6622 C   0  0  2  0  0  0  0  0  0  0  0  0
    8.8810   -1.1900   22.4510 C   0  0  1  0  0  0  0  0  0  0  0  0
    6.3562   -0.1077   17.2169 N   0  0  0  0  0  0  0  0  0  0  0  0
    7.2820   -0.7860   20.6970 N   0  0  0  0  0  0  0  0  0  0  0  0
    8.0352   -0.9804   23.6107 N   0  0  0  0  0  0  0  0  0  0  0  0
    8.2327   -3.1063   24.5389 O   0  0  0  0  0  0  0  0  0  0  0  0
    8.9170    0.7530   21.0260 O   0  0  0  0  0  0  0  0  0  0  0  0
    5.7305   -2.3605   25.5927 O   0  0  0  0  0  0  0  0  0  0  0  0
   13.8840   -1.8490   21.2740 Cl  0  0  0  0  0  0  0  0  0  0  0  0
    2.6290    3.2475   20.1787 H   0  0  0  0  0  0  0  0  0  0  0  0
    3.7567    2.3397   22.1895 H   0  0  0  0  0  0  0  0  0  0  0  0
   12.2249    1.2198   24.6546 H   0  0  0  0  0  0  0  0  0  0  0  0
    3.3440    2.5417   17.9267 H   0  0  0  0  0  0  0  0  0  0  0  0
    5.5920    0.7344   21.9697 H   0  0  0  0  0  0  0  0  0  0  0  0
    9.8763    0.5350   24.3454 H   0  0  0  0  0  0  0  0  0  0  0  0
   14.0077    0.1988   23.2842 H   0  0  0  0  0  0  0  0  0  0  0  0
   11.0892   -2.3009   21.3624 H   0  0  0  0  0  0  0  0  0  0  0  0
    4.8966    1.1359   16.4818 H   0  0  0  0  0  0  0  0  0  0  0  0
    7.7531   -1.2911   18.1477 H   0  0  0  0  0  0  0  0  0  0  0  0
    7.6901   -3.8719   26.9248 H   0  0  0  0  0  0  0  0  0  0  0  0
    7.0393   -3.3080   28.4751 H   0  0  0  0  0  0  0  0  0  0  0  0
    7.1048   -1.0093   27.7394 H   0  0  0  0  0  0  0  0  0  0  0  0
    8.6077   -1.6377   27.0373 H   0  0  0  0  0  0  0  0  0  0  0  0
    5.3444   -4.1720   26.5304 H   0  0  0  0  0  0  0  0  0  0  0  0
    4.9220   -2.7083   27.4489 H   0  0  0  0  0  0  0  0  0  0  0  0
    6.6067   -0.4840   25.4902 H   0  0  0  0  0  0  0  0  0  0  0  0
    8.7711   -2.2448   22.1651 H   0  0  0  0  0  0  0  0  0  0  0  0
    6.8984   -1.6618   21.0676 H   0  0  0  0  0  0  0  0  0  0  0  0
    7.6033   -0.0721   23.7386 H   0  0  0  0  0  0  0  0  0  0  0  0
  1  2  1  0  0  0  0
  1  4  2  0  0  0  0
  2  5  2  0  0  0  0
  3  6  2  0  0  0  0
  3  7  1  0  0  0  0
  4 11  1  0  0  0  0
  5 12  1  0  0  0  0
  6 13  1  0  0  0  0
  7 15  2  0  0  0  0
  8 13  2  0  0  0  0
  8 15  1  0  0  0  0
  9 11  2  0  0  0  0
  9 23  1  0  0  0  0
 10 14  1  0  0  0  0
 10 23  2  0  0  0  0
 11 12  1  0  0  0  0
 12 14  2  0  0  0  0
 13 22  1  0  0  0  0
 14 24  1  0  0  0  0
 15 29  1  0  0  0  0
 16 21  1  0  0  0  0
 16 25  1  0  0  0  0
 16 26  2  0  0  0  0
 17 22  1  1  0  0  0
 17 24  1  0  0  0  0
 17 27  2  0  0  0  0
 18 19  1  0  0  0  0
 18 20  1  0  0  0  0
 19 21  1  0  0  0  0
 20 28  1  0  0  0  0
 21 28  1  0  0  0  0
 22 25  1  0  0  0  0
  1 30  1  0  0  0  0
  2 31  1  0  0  0  0
  3 32  1  0  0  0  0
  4 33  1  0  0  0  0
  5 34  1  0  0  0  0
  6 35  1  0  0  0  0
  7 36  1  0  0  0  0
  8 37  1  0  0  0  0
  9 38  1  0  0  0  0
 10 39  1  0  0  0  0
 18 40  1  0  0  0  0
 18 41  1  0  0  0  0
 19 42  1  0  0  0  0
 19 43  1  0  0  0  0
 20 44  1  0  0  0  0
 20 45  1  0  0  0  0
 21 46  1  0  0  0  0
 22 47  1  0  0  0  0
 24 48  1  0  0  0  0
 25 49  1  0  0  0  0
M  END
> <compound>
EDJ-MED-cf4b0d25-3

> <compound_smiles>
c1ccc2c(c1)cncc2NC(=O)C(c3cccc(c3)Cl)NC(=O)[C@@H]4CCCO4

> <enantiomer_smiles>
c1ccc2c(c1)cncc2NC(=O)[C@@H](c3cccc(c3)Cl)NC(=O)[C@@H]4CCCO4

> <scaffold>
chlorobenzene-linker

> <canonical_CID>
EDJ-MED-cf4b0d25-3

> <r_inhibition_at_20_uM>

> <r_inhibition_at_50_uM>

> <r_avg_IC50>

> <f_inhibition_at_20_uM>

> <f_inhibition_at_50_uM>

> <f_avg_IC50>
2.28759334622511

> <f_avg_pIC50>

> <relative_solubility_at_20_uM>

> <relative_solubility_at_100_uM>

> <trypsin_IC50>

> <NMR_std_ratio>

> <acrylamide>
False

> <chloroacetamide>
False

> <series>
Ugi

> <frag_id>

> <clash_score>
0

> <docking_score>
-10.930259704589844

> <overlap_score>
0.9805750846862793

> <MMFF_internal_energy>
148.6879849487541

> <docked_smiles>
c1ccc2c(c1)cncc2NC(=O)[C@@H](c3cccc(c3)Cl)NC(=O)[C@@H]4CCCO4

$$$$
JIN-POS-6dc588a4-5_1
  -OEChem-07262101023D

 33 35  0     0  0  0  0  0  0999 V2000
    2.9377    0.6958   20.1993 C   0  0  0  0  0  0  0  0  0  0  0  0
    2.7093    1.1708   18.9093 C   0  0  0  0  0  0  0  0  0  0  0  0
   11.9780    0.4600   23.9150 C   0  0  0  0  0  0  0  0  0  0  0  0
    4.1927    0.1972   20.5672 C   0  0  0  0  0  0  0  0  0  0  0  0
   10.6560    0.0720   23.7350 C   0  0  0  0  0  0  0  0  0  0  0  0
    3.7241    1.1632   17.9482 C   0  0  0  0  0  0  0  0  0  0  0  0
   12.9840   -0.1200   23.1530 C   0  0  0  0  0  0  0  0  0  0  0  0
   11.3360   -1.5050   22.0650 C   0  0  0  0  0  0  0  0  0  0  0  0
    7.1210   -0.0126   18.3898 C   0  0  0  0  0  0  0  0  0  0  0  0
    5.2313    0.1795   19.6151 C   0  0  0  0  0  0  0  0  0  0  0  0
   10.3220   -0.8940   22.7910 C   0  0  0  0  0  0  0  0  0  0  0  0
    4.9736    0.6619   18.3302 C   0  0  0  0  0  0  0  0  0  0  0  0
    6.5901   -0.2424   19.6380 C   0  0  0  0  0  0  0  0  0  0  0  0
   12.6400   -1.1000   22.2390 C   0  0  0  0  0  0  0  0  0  0  0  0
    8.3880   -0.3240   21.3070 C   0  0  0  0  0  0  0  0  0  0  0  0
    8.8810   -1.1900   22.4510 C   0  0  0  0  0  0  0  0  0  0  0  0
    6.1385    0.5332   17.6080 N   0  0  0  0  0  0  0  0  0  0  0  0
    7.2820   -0.7860   20.6970 N   0  0  0  0  0  0  0  0  0  0  0  0
    8.9170    0.7530   21.0260 O   0  0  0  0  0  0  0  0  0  0  0  0
   13.8840   -1.8490   21.2740 Cl  0  0  0  0  0  0  0  0  0  0  0  0
    2.1329    0.7115   20.9297 H   0  0  0  0  0  0  0  0  0  0  0  0
    1.7270    1.5538   18.6451 H   0  0  0  0  0  0  0  0  0  0  0  0
   12.2249    1.2198   24.6546 H   0  0  0  0  0  0  0  0  0  0  0  0
    4.3549   -0.1691   21.5769 H   0  0  0  0  0  0  0  0  0  0  0  0
    9.8763    0.5350   24.3454 H   0  0  0  0  0  0  0  0  0  0  0  0
    3.5456    1.5329   16.9440 H   0  0  0  0  0  0  0  0  0  0  0  0
   14.0077    0.1988   23.2842 H   0  0  0  0  0  0  0  0  0  0  0  0
   11.0892   -2.3009   21.3624 H   0  0  0  0  0  0  0  0  0  0  0  0
    8.1087   -0.1875   17.9854 H   0  0  0  0  0  0  0  0  0  0  0  0
    8.7774   -2.2383   22.1732 H   0  0  0  0  0  0  0  0  0  0  0  0
    8.2557   -1.0153   23.3257 H   0  0  0  0  0  0  0  0  0  0  0  0
    6.2507    0.8031   16.6405 H   0  0  0  0  0  0  0  0  0  0  0  0
    6.8990   -1.6701   21.0749 H   0  0  0  0  0  0  0  0  0  0  0  0
  1  2  1  0  0  0  0
  1  4  2  0  0  0  0
  2  6  2  0  0  0  0
  3  5  2  0  0  0  0
  3  7  1  0  0  0  0
  4 10  1  0  0  0  0
  5 11  1  0  0  0  0
  6 12  1  0  0  0  0
  7 14  2  0  0  0  0
  8 11  2  0  0  0  0
  8 14  1  0  0  0  0
  9 13  2  0  0  0  0
  9 17  1  0  0  0  0
 10 12  2  0  0  0  0
 10 13  1  0  0  0  0
 11 16  1  0  0  0  0
 12 17  1  0  0  0  0
 13 18  1  0  0  0  0
 14 20  1  0  0  0  0
 15 16  1  0  0  0  0
 15 18  1  0  0  0  0
 15 19  2  0  0  0  0
  1 21  1  0  0  0  0
  2 22  1  0  0  0  0
  3 23  1  0  0  0  0
  4 24  1  0  0  0  0
  5 25  1  0  0  0  0
  6 26  1  0  0  0  0
  7 27  1  0  0  0  0
  8 28  1  0  0  0  0
  9 29  1  0  0  0  0
 16 30  1  0  0  0  0
 16 31  1  0  0  0  0
 17 32  1  0  0  0  0
 18 33  1  0  0  0  0
M  END
> <compound>
JIN-POS-6dc588a4-5

> <compound_smiles>
c1ccc2c(c1)c(c[nH]2)NC(=O)Cc3cccc(c3)Cl

> <enantiomer_smiles>
c1ccc2c(c1)c(c[nH]2)NC(=O)Cc3cccc(c3)Cl

> <scaffold>
chlorobenzene-linker

> <canonical_CID>
JIN-POS-6dc588a4-5

> <r_inhibition_at_20_uM>

> <r_inhibition_at_50_uM>

> <r_avg_IC50>

> <f_inhibition_at_20_uM>

> <f_inhibition_at_50_uM>

> <f_avg_IC50>
99.5

> <f_avg_pIC50>

> <relative_solubility_at_20_uM>

> <relative_solubility_at_100_uM>

> <trypsin_IC50>

> <NMR_std_ratio>

> <acrylamide>
False

> <chloroacetamide>
False

> <series>
3-aminopyridine-like

> <frag_id>

> <clash_score>
0.6132837379210089

> <docking_score>
-3.360334873199463

> <overlap_score>
0.8648771643638611

> <MMFF_internal_energy>
56.26903692921026

> <docked_smiles>
c1ccc2c(c1)c(c[nH]2)NC(=O)Cc3cccc(c3)Cl

$$$$
JIN-POS-6dc588a4-7_1
  -OEChem-07262101023D

 33 35  0     0  0  0  0  0  0999 V2000
    5.4868    3.0155   21.2582 C   0  0  0  0  0  0  0  0  0  0  0  0
    4.7679    3.5641   20.2020 C   0  0  0  0  0  0  0  0  0  0  0  0
   11.9780    0.4600   23.9150 C   0  0  0  0  0  0  0  0  0  0  0  0
    6.0876    1.7698   21.1058 C   0  0  0  0  0  0  0  0  0  0  0  0
   10.6560    0.0720   23.7350 C   0  0  0  0  0  0  0  0  0  0  0  0
    4.6514    2.8665   18.9961 C   0  0  0  0  0  0  0  0  0  0  0  0
   12.9840   -0.1200   23.1530 C   0  0  0  0  0  0  0  0  0  0  0  0
   11.3360   -1.5050   22.0650 C   0  0  0  0  0  0  0  0  0  0  0  0
    5.7246   -0.2399   17.5629 C   0  0  0  0  0  0  0  0  0  0  0  0
    5.9659    1.0746   19.8900 C   0  0  0  0  0  0  0  0  0  0  0  0
   10.3220   -0.8940   22.7910 C   0  0  0  0  0  0  0  0  0  0  0  0
    5.2425    1.6184   18.8160 C   0  0  0  0  0  0  0  0  0  0  0  0
   12.6400   -1.1000   22.2390 C   0  0  0  0  0  0  0  0  0  0  0  0
    6.5420   -0.1737   19.6724 C   0  0  0  0  0  0  0  0  0  0  0  0
    8.3880   -0.3240   21.3070 C   0  0  0  0  0  0  0  0  0  0  0  0
    8.8810   -1.1900   22.4510 C   0  0  0  0  0  0  0  0  0  0  0  0
    5.1199    0.9623   17.6488 N   0  0  0  0  0  0  0  0  0  0  0  0
    6.4389   -0.8577   18.5174 N   0  0  0  0  0  0  0  0  0  0  0  0
    7.2820   -0.7860   20.6970 N   0  0  0  0  0  0  0  0  0  0  0  0
    8.9170    0.7530   21.0260 O   0  0  0  0  0  0  0  0  0  0  0  0
   13.8840   -1.8490   21.2740 Cl  0  0  0  0  0  0  0  0  0  0  0  0
    5.5777    3.5551   22.1959 H   0  0  0  0  0  0  0  0  0  0  0  0
    4.2946    4.5354   20.3131 H   0  0  0  0  0  0  0  0  0  0  0  0
   12.2249    1.2198   24.6546 H   0  0  0  0  0  0  0  0  0  0  0  0
    6.6435    1.3612   21.9458 H   0  0  0  0  0  0  0  0  0  0  0  0
    9.8763    0.5350   24.3454 H   0  0  0  0  0  0  0  0  0  0  0  0
    4.0830    3.3172   18.1847 H   0  0  0  0  0  0  0  0  0  0  0  0
   14.0077    0.1988   23.2842 H   0  0  0  0  0  0  0  0  0  0  0  0
   11.0892   -2.3009   21.3624 H   0  0  0  0  0  0  0  0  0  0  0  0
    5.6213   -0.7637   16.6204 H   0  0  0  0  0  0  0  0  0  0  0  0
    8.7774   -2.2383   22.1732 H   0  0  0  0  0  0  0  0  0  0  0  0
    8.2557   -1.0153   23.3257 H   0  0  0  0  0  0  0  0  0  0  0  0
    6.9379   -1.6938   21.0184 H   0  0  0  0  0  0  0  0  0  0  0  0
  1  2  1  0  0  0  0
  1  4  2  0  0  0  0
  2  6  2  0  0  0  0
  3  5  2  0  0  0  0
  3  7  1  0  0  0  0
  4 10  1  0  0  0  0
  5 11  1  0  0  0  0
  6 12  1  0  0  0  0
  7 13  2  0  0  0  0
  8 11  2  0  0  0  0
  8 13  1  0  0  0  0
  9 17  1  0  0  0  0
  9 18  2  0  0  0  0
 10 12  1  0  0  0  0
 10 14  2  0  0  0  0
 11 16  1  0  0  0  0
 12 17  2  0  0  0  0
 13 21  1  0  0  0  0
 14 18  1  0  0  0  0
 14 19  1  0  0  0  0
 15 16  1  0  0  0  0
 15 19  1  0  0  0  0
 15 20  2  0  0  0  0
  1 22  1  0  0  0  0
  2 23  1  0  0  0  0
  3 24  1  0  0  0  0
  4 25  1  0  0  0  0
  5 26  1  0  0  0  0
  6 27  1  0  0  0  0
  7 28  1  0  0  0  0
  8 29  1  0  0  0  0
  9 30  1  0  0  0  0
 16 31  1  0  0  0  0
 16 32  1  0  0  0  0
 19 33  1  0  0  0  0
M  END
> <compound>
JIN-POS-6dc588a4-7

> <compound_smiles>
c1ccc2c(c1)c(ncn2)NC(=O)Cc3cccc(c3)Cl

> <enantiomer_smiles>
c1ccc2c(c1)c(ncn2)NC(=O)Cc3cccc(c3)Cl

> <scaffold>
chlorobenzene-linker

> <canonical_CID>
JIN-POS-6dc588a4-7

> <r_inhibition_at_20_uM>

> <r_inhibition_at_50_uM>

> <r_avg_IC50>

> <f_inhibition_at_20_uM>

> <f_inhibition_at_50_uM>

> <f_avg_IC50>
99.5

> <f_avg_pIC50>

> <relative_solubility_at_20_uM>

> <relative_solubility_at_100_uM>

> <trypsin_IC50>

> <NMR_std_ratio>

> <acrylamide>
False

> <chloroacetamide>
False

> <series>
3-aminopyridine-like

> <frag_id>

> <clash_score>
0

> <docking_score>
-4.355605602264404

> <overlap_score>
0.8591397404670715

> <MMFF_internal_energy>
24.023354640308497

> <docked_smiles>
c1ccc2c(c1)c(ncn2)NC(=O)Cc3cccc(c3)Cl

$$$$
JIN-POS-6dc588a4-10_1
  -OEChem-07262101023D

 32 34  0     0  0  0  0  0  0999 V2000
   11.9780    0.4600   23.9150 C   0  0  0  0  0  0  0  0  0  0  0  0
   10.6560    0.0720   23.7350 C   0  0  0  0  0  0  0  0  0  0  0  0
   12.9840   -0.1200   23.1530 C   0  0  0  0  0  0  0  0  0  0  0  0
   11.3360   -1.5050   22.0650 C   0  0  0  0  0  0  0  0  0  0  0  0
    2.6827    0.9234   19.8469 C   0  0  0  0  0  0  0  0  0  0  0  0
    3.3065    0.3758   20.9375 C   0  0  0  0  0  0  0  0  0  0  0  0
    5.3648    0.8576   17.4641 C   0  0  0  0  0  0  0  0  0  0  0  0
    7.2429   -0.0358   18.4150 C   0  0  0  0  0  0  0  0  0  0  0  0
   10.3220   -0.8940   22.7910 C   0  0  0  0  0  0  0  0  0  0  0  0
    4.6175    0.7162   18.6223 C   0  0  0  0  0  0  0  0  0  0  0  0
    5.2589    0.1557   19.7365 C   0  0  0  0  0  0  0  0  0  0  0  0
    6.5902   -0.2227   19.6221 C   0  0  0  0  0  0  0  0  0  0  0  0
   12.6400   -1.1000   22.2390 C   0  0  0  0  0  0  0  0  0  0  0  0
    8.3880   -0.3240   21.3070 C   0  0  0  0  0  0  0  0  0  0  0  0
    8.8810   -1.1900   22.4510 C   0  0  0  0  0  0  0  0  0  0  0  0
    6.6601    0.4983   17.3263 N   0  0  0  0  0  0  0  0  0  0  0  0
    3.3287    1.0994   18.6803 N   0  0  0  0  0  0  0  0  0  0  0  0
    4.5947   -0.0120   20.8939 N   0  0  0  0  0  0  0  0  0  0  0  0
    7.2820   -0.7860   20.6970 N   0  0  0  0  0  0  0  0  0  0  0  0
    8.9170    0.7530   21.0260 O   0  0  0  0  0  0  0  0  0  0  0  0
   13.8840   -1.8490   21.2740 Cl  0  0  0  0  0  0  0  0  0  0  0  0
   12.2249    1.2198   24.6546 H   0  0  0  0  0  0  0  0  0  0  0  0
    9.8763    0.5350   24.3454 H   0  0  0  0  0  0  0  0  0  0  0  0
   14.0077    0.1988   23.2842 H   0  0  0  0  0  0  0  0  0  0  0  0
   11.0892   -2.3009   21.3624 H   0  0  0  0  0  0  0  0  0  0  0  0
    1.6470    1.2378   19.8727 H   0  0  0  0  0  0  0  0  0  0  0  0
    2.7942    0.2297   21.8801 H   0  0  0  0  0  0  0  0  0  0  0  0
    4.9222    1.2851   16.5684 H   0  0  0  0  0  0  0  0  0  0  0  0
    8.2831   -0.3178   18.2834 H   0  0  0  0  0  0  0  0  0  0  0  0
    8.7774   -2.2383   22.1732 H   0  0  0  0  0  0  0  0  0  0  0  0
    8.2557   -1.0153   23.3257 H   0  0  0  0  0  0  0  0  0  0  0  0
    6.8982   -1.6622   21.0677 H   0  0  0  0  0  0  0  0  0  0  0  0
  1  2  1  0  0  0  0
  1  3  2  0  0  0  0
  2  9  2  0  0  0  0
  3 13  1  0  0  0  0
  4  9  1  0  0  0  0
  4 13  2  0  0  0  0
  5  6  1  0  0  0  0
  5 17  2  0  0  0  0
  6 18  2  0  0  0  0
  7 10  2  0  0  0  0
  7 16  1  0  0  0  0
  8 12  1  0  0  0  0
  8 16  2  0  0  0  0
  9 15  1  0  0  0  0
 10 11  1  0  0  0  0
 10 17  1  0  0  0  0
 11 12  2  0  0  0  0
 11 18  1  0  0  0  0
 12 19  1  0  0  0  0
 13 21  1  0  0  0  0
 14 15  1  0  0  0  0
 14 19  1  0  0  0  0
 14 20  2  0  0  0  0
  1 22  1  0  0  0  0
  2 23  1  0  0  0  0
  3 24  1  0  0  0  0
  4 25  1  0  0  0  0
  5 26  1  0  0  0  0
  6 27  1  0  0  0  0
  7 28  1  0  0  0  0
  8 29  1  0  0  0  0
 15 30  1  0  0  0  0
 15 31  1  0  0  0  0
 19 32  1  0  0  0  0
M  END
> <compound>
JIN-POS-6dc588a4-10

> <compound_smiles>
c1cc(cc(c1)Cl)CC(=O)Nc2cncc3c2nccn3

> <enantiomer_smiles>
c1cc(cc(c1)Cl)CC(=O)Nc2cncc3c2nccn3

> <scaffold>
chlorobenzene-linker

> <canonical_CID>
JIN-POS-6dc588a4-10

> <r_inhibition_at_20_uM>

> <r_inhibition_at_50_uM>

> <r_avg_IC50>

> <f_inhibition_at_20_uM>

> <f_inhibition_at_50_uM>

> <f_avg_IC50>
76.0415338327822

> <f_avg_pIC50>

> <relative_solubility_at_20_uM>

> <relative_solubility_at_100_uM>

> <trypsin_IC50>

> <NMR_std_ratio>

> <acrylamide>
False

> <chloroacetamide>
False

> <series>
3-aminopyridine-like

> <frag_id>

> <clash_score>
0.6122513598124126

> <docking_score>
-6.075019836425781

> <overlap_score>
0.8987694382667542

> <MMFF_internal_energy>
146.96348351627546

> <docked_smiles>
c1cc(cc(c1)Cl)CC(=O)Nc2cncc3c2nccn3

$$$$
JIN-POS-6dc588a4-8_1
  -OEChem-07262101023D

 31 33  0     0  0  0  0  0  0999 V2000
    2.8956    0.5661   20.4122 C   0  0  0  0  0  0  0  0  0  0  0  0
    2.6444    1.1116   19.1489 C   0  0  0  0  0  0  0  0  0  0  0  0
   11.9780    0.4600   23.9150 C   0  0  0  0  0  0  0  0  0  0  0  0
    4.1656    0.0787   20.7518 C   0  0  0  0  0  0  0  0  0  0  0  0
   10.6560    0.0720   23.7350 C   0  0  0  0  0  0  0  0  0  0  0  0
    3.6487    1.1910   18.1787 C   0  0  0  0  0  0  0  0  0  0  0  0
   12.9840   -0.1200   23.1530 C   0  0  0  0  0  0  0  0  0  0  0  0
   11.3360   -1.5050   22.0650 C   0  0  0  0  0  0  0  0  0  0  0  0
    5.1824    0.1518   19.7884 C   0  0  0  0  0  0  0  0  0  0  0  0
   10.3220   -0.8940   22.7910 C   0  0  0  0  0  0  0  0  0  0  0  0
    4.8963    0.6981   18.5494 C   0  0  0  0  0  0  0  0  0  0  0  0
   12.6400   -1.1000   22.2390 C   0  0  0  0  0  0  0  0  0  0  0  0
    6.5430   -0.1978   19.6893 C   0  0  0  0  0  0  0  0  0  0  0  0
    8.3880   -0.3240   21.3070 C   0  0  0  0  0  0  0  0  0  0  0  0
    8.8810   -1.1900   22.4510 C   0  0  0  0  0  0  0  0  0  0  0  0
    7.0603    0.1031   18.4944 N   0  0  0  0  0  0  0  0  0  0  0  0
    7.2820   -0.7860   20.6970 N   0  0  0  0  0  0  0  0  0  0  0  0
    8.9170    0.7530   21.0260 O   0  0  0  0  0  0  0  0  0  0  0  0
    6.0154    0.6699   17.7751 O   0  0  0  0  0  0  0  0  0  0  0  0
   13.8840   -1.8490   21.2740 Cl  0  0  0  0  0  0  0  0  0  0  0  0
    2.0930    0.5188   21.1440 H   0  0  0  0  0  0  0  0  0  0  0  0
    1.6487    1.4812   18.9160 H   0  0  0  0  0  0  0  0  0  0  0  0
   12.2249    1.2198   24.6546 H   0  0  0  0  0  0  0  0  0  0  0  0
    4.3459   -0.3421   21.7361 H   0  0  0  0  0  0  0  0  0  0  0  0
    9.8763    0.5350   24.3454 H   0  0  0  0  0  0  0  0  0  0  0  0
    3.4636    1.6114   17.1977 H   0  0  0  0  0  0  0  0  0  0  0  0
   14.0077    0.1988   23.2842 H   0  0  0  0  0  0  0  0  0  0  0  0
   11.0892   -2.3009   21.3624 H   0  0  0  0  0  0  0  0  0  0  0  0
    8.7775   -2.2383   22.1732 H   0  0  0  0  0  0  0  0  0  0  0  0
    8.2557   -1.0153   23.3257 H   0  0  0  0  0  0  0  0  0  0  0  0
    6.9395   -1.7033   21.0261 H   0  0  0  0  0  0  0  0  0  0  0  0
  1  2  1  0  0  0  0
  1  4  2  0  0  0  0
  2  6  2  0  0  0  0
  3  5  2  0  0  0  0
  3  7  1  0  0  0  0
  4  9  1  0  0  0  0
  5 10  1  0  0  0  0
  6 11  1  0  0  0  0
  7 12  2  0  0  0  0
  8 10  2  0  0  0  0
  8 12  1  0  0  0  0
  9 11  2  0  0  0  0
  9 13  1  0  0  0  0
 10 15  1  0  0  0  0
 11 19  1  0  0  0  0
 12 20  1  0  0  0  0
 13 16  2  0  0  0  0
 13 17  1  0  0  0  0
 14 15  1  0  0  0  0
 14 17  1  0  0  0  0
 14 18  2  0  0  0  0
 16 19  1  0  0  0  0
  1 21  1  0  0  0  0
  2 22  1  0  0  0  0
  3 23  1  0  0  0  0
  4 24  1  0  0  0  0
  5 25  1  0  0  0  0
  6 26  1  0  0  0  0
  7 27  1  0  0  0  0
  8 28  1  0  0  0  0
 15 29  1  0  0  0  0
 15 30  1  0  0  0  0
 17 31  1  0  0  0  0
M  END
> <compound>
JIN-POS-6dc588a4-8

> <compound_smiles>
c1ccc2c(c1)c(no2)NC(=O)Cc3cccc(c3)Cl

> <enantiomer_smiles>
c1ccc2c(c1)c(no2)NC(=O)Cc3cccc(c3)Cl

> <scaffold>
chlorobenzene-linker

> <canonical_CID>
JIN-POS-6dc588a4-8

> <r_inhibition_at_20_uM>

> <r_inhibition_at_50_uM>

> <r_avg_IC50>

> <f_inhibition_at_20_uM>

> <f_inhibition_at_50_uM>

> <f_avg_IC50>
99.5

> <f_avg_pIC50>

> <relative_solubility_at_20_uM>

> <relative_solubility_at_100_uM>

> <trypsin_IC50>

> <NMR_std_ratio>

> <acrylamide>
False

> <chloroacetamide>
False

> <series>
3-aminopyridine-like

> <frag_id>

> <clash_score>
0.62481785764146

> <docking_score>
-3.2146620750427246

> <overlap_score>
0.8660509586334229

> <MMFF_internal_energy>
51.20131462417011

> <docked_smiles>
c1ccc2c(c1)c(no2)NC(=O)Cc3cccc(c3)Cl

$$$$
JIN-POS-6dc588a4-6_1
  -OEChem-07262101023D

 41 42  0     0  0  0  0  0  0999 V2000
   11.9780    0.4600   23.9150 C   0  0  0  0  0  0  0  0  0  0  0  0
   10.6560    0.0720   23.7350 C   0  0  0  0  0  0  0  0  0  0  0  0
   12.9840   -0.1200   23.1530 C   0  0  0  0  0  0  0  0  0  0  0  0
    4.6059    0.7094   18.6371 C   0  0  0  0  0  0  0  0  0  0  0  0
   11.3360   -1.5050   22.0650 C   0  0  0  0  0  0  0  0  0  0  0  0
    5.3270    0.8635   17.4641 C   0  0  0  0  0  0  0  0  0  0  0  0
    7.2224   -0.0294   18.4067 C   0  0  0  0  0  0  0  0  0  0  0  0
   10.3220   -0.8940   22.7910 C   0  0  0  0  0  0  0  0  0  0  0  0
    6.5902   -0.2251   19.6240 C   0  0  0  0  0  0  0  0  0  0  0  0
    5.2569    0.1540   19.7330 C   0  0  0  0  0  0  0  0  0  0  0  0
   12.6400   -1.1000   22.2390 C   0  0  0  0  0  0  0  0  0  0  0  0
    8.3880   -0.3240   21.3070 C   0  0  0  0  0  0  0  0  0  0  0  0
    4.7578    2.3792   21.0384 C   0  0  0  0  0  0  0  0  0  0  0  0
    3.3036    1.0684   22.6121 C   0  0  0  0  0  0  0  0  0  0  0  0
    5.8031    0.8759   22.7653 C   0  0  0  0  0  0  0  0  0  0  0  0
    8.8810   -1.1900   22.4510 C   0  0  0  0  0  0  0  0  0  0  0  0
    4.6138    1.0787   21.8276 C   0  0  0  0  0  0  0  0  0  0  0  0
    6.6231    0.5071   17.3201 N   0  0  0  0  0  0  0  0  0  0  0  0
    7.2820   -0.7860   20.6970 N   0  0  0  0  0  0  0  0  0  0  0  0
    8.9170    0.7530   21.0260 O   0  0  0  0  0  0  0  0  0  0  0  0
    4.5714   -0.0105   20.9049 O   0  0  0  0  0  0  0  0  0  0  0  0
   13.8840   -1.8490   21.2740 Cl  0  0  0  0  0  0  0  0  0  0  0  0
   12.2249    1.2198   24.6546 H   0  0  0  0  0  0  0  0  0  0  0  0
    9.8763    0.5350   24.3454 H   0  0  0  0  0  0  0  0  0  0  0  0
   14.0077    0.1988   23.2842 H   0  0  0  0  0  0  0  0  0  0  0  0
    3.5668    1.0142   18.6930 H   0  0  0  0  0  0  0  0  0  0  0  0
   11.0892   -2.3009   21.3624 H   0  0  0  0  0  0  0  0  0  0  0  0
    4.8654    1.2916   16.5804 H   0  0  0  0  0  0  0  0  0  0  0  0
    8.2626   -0.3045   18.2597 H   0  0  0  0  0  0  0  0  0  0  0  0
    5.6970    2.3905   20.4739 H   0  0  0  0  0  0  0  0  0  0  0  0
    3.9288    2.5193   20.3370 H   0  0  0  0  0  0  0  0  0  0  0  0
    4.7913    3.2434   21.7116 H   0  0  0  0  0  0  0  0  0  0  0  0
    3.1961    0.1370   23.1798 H   0  0  0  0  0  0  0  0  0  0  0  0
    2.4430    1.1183   21.9352 H   0  0  0  0  0  0  0  0  0  0  0  0
    3.2444    1.9091   23.3108 H   0  0  0  0  0  0  0  0  0  0  0  0
    5.7001   -0.0569   23.3314 H   0  0  0  0  0  0  0  0  0  0  0  0
    6.7493    0.8437   22.2154 H   0  0  0  0  0  0  0  0  0  0  0  0
    5.8577    1.6824   23.5054 H   0  0  0  0  0  0  0  0  0  0  0  0
    8.7774   -2.2383   22.1732 H   0  0  0  0  0  0  0  0  0  0  0  0
    8.2557   -1.0153   23.3257 H   0  0  0  0  0  0  0  0  0  0  0  0
    6.8983   -1.6631   21.0685 H   0  0  0  0  0  0  0  0  0  0  0  0
  1  2  2  0  0  0  0
  1  3  1  0  0  0  0
  2  8  1  0  0  0  0
  3 11  2  0  0  0  0
  4  6  2  0  0  0  0
  4 10  1  0  0  0  0
  5  8  2  0  0  0  0
  5 11  1  0  0  0  0
  6 18  1  0  0  0  0
  7  9  1  0  0  0  0
  7 18  2  0  0  0  0
  8 16  1  0  0  0  0
  9 10  2  0  0  0  0
  9 19  1  0  0  0  0
 10 21  1  0  0  0  0
 11 22  1  0  0  0  0
 12 16  1  0  0  0  0
 12 19  1  0  0  0  0
 12 20  2  0  0  0  0
 13 17  1  0  0  0  0
 14 17  1  0  0  0  0
 15 17  1  0  0  0  0
 17 21  1  0  0  0  0
  1 23  1  0  0  0  0
  2 24  1  0  0  0  0
  3 25  1  0  0  0  0
  4 26  1  0  0  0  0
  5 27  1  0  0  0  0
  6 28  1  0  0  0  0
  7 29  1  0  0  0  0
 13 30  1  0  0  0  0
 13 31  1  0  0  0  0
 13 32  1  0  0  0  0
 14 33  1  0  0  0  0
 14 34  1  0  0  0  0
 14 35  1  0  0  0  0
 15 36  1  0  0  0  0
 15 37  1  0  0  0  0
 15 38  1  0  0  0  0
 16 39  1  0  0  0  0
 16 40  1  0  0  0  0
 19 41  1  0  0  0  0
M  END
> <compound>
JIN-POS-6dc588a4-6

> <compound_smiles>
CC(C)(C)Oc1ccncc1NC(=O)Cc2cccc(c2)Cl

> <enantiomer_smiles>
CC(C)(C)Oc1ccncc1NC(=O)Cc2cccc(c2)Cl

> <scaffold>
chlorobenzene-linker

> <canonical_CID>
JIN-POS-6dc588a4-6

> <r_inhibition_at_20_uM>

> <r_inhibition_at_50_uM>

> <r_avg_IC50>

> <f_inhibition_at_20_uM>

> <f_inhibition_at_50_uM>

> <f_avg_IC50>
22.9226567408969

> <f_avg_pIC50>

> <relative_solubility_at_20_uM>

> <relative_solubility_at_100_uM>

> <trypsin_IC50>

> <NMR_std_ratio>

> <acrylamide>
False

> <chloroacetamide>
False

> <series>
3-aminopyridine-like

> <frag_id>

> <clash_score>
0

> <docking_score>
-9.835794448852539

> <overlap_score>
0.929413914680481

> <MMFF_internal_energy>
102.92404559963822

> <docked_smiles>
CC(C)(C)Oc1ccncc1NC(=O)Cc2cccc(c2)Cl

$$$$
JIN-POS-6dc588a4-4_1
  -OEChem-07262101023D

 31 32  0     0  0  0  0  0  0999 V2000
   11.9780    0.4600   23.9150 C   0  0  0  0  0  0  0  0  0  0  0  0
   10.6560    0.0720   23.7350 C   0  0  0  0  0  0  0  0  0  0  0  0
   12.9840   -0.1200   23.1530 C   0  0  0  0  0  0  0  0  0  0  0  0
    4.6234    0.7522   18.6081 C   0  0  0  0  0  0  0  0  0  0  0  0
   11.3360   -1.5050   22.0650 C   0  0  0  0  0  0  0  0  0  0  0  0
    5.3564    0.9068   17.4425 C   0  0  0  0  0  0  0  0  0  0  0  0
    7.2357   -0.0071   18.3972 C   0  0  0  0  0  0  0  0  0  0  0  0
   10.3220   -0.8940   22.7910 C   0  0  0  0  0  0  0  0  0  0  0  0
    5.2597    0.1852   19.7067 C   0  0  0  0  0  0  0  0  0  0  0  0
    6.5908   -0.2043   19.6076 C   0  0  0  0  0  0  0  0  0  0  0  0
   12.6400   -1.1000   22.2390 C   0  0  0  0  0  0  0  0  0  0  0  0
    8.3880   -0.3240   21.3070 C   0  0  0  0  0  0  0  0  0  0  0  0
    8.8810   -1.1900   22.4510 C   0  0  0  0  0  0  0  0  0  0  0  0
    4.4934    0.0073   20.9763 C   0  0  0  0  0  0  0  0  0  0  0  0
    6.6508    0.5405   17.3083 N   0  0  0  0  0  0  0  0  0  0  0  0
    7.2820   -0.7860   20.6970 N   0  0  0  0  0  0  0  0  0  0  0  0
    8.9170    0.7530   21.0260 O   0  0  0  0  0  0  0  0  0  0  0  0
    3.2020    0.4433   20.8995 F   0  0  0  0  0  0  0  0  0  0  0  0
    4.4086   -1.2928   21.3836 F   0  0  0  0  0  0  0  0  0  0  0  0
    5.0488    0.6850   22.0218 F   0  0  0  0  0  0  0  0  0  0  0  0
   13.8840   -1.8490   21.2740 Cl  0  0  0  0  0  0  0  0  0  0  0  0
   12.2249    1.2198   24.6546 H   0  0  0  0  0  0  0  0  0  0  0  0
    9.8763    0.5350   24.3454 H   0  0  0  0  0  0  0  0  0  0  0  0
   14.0077    0.1988   23.2842 H   0  0  0  0  0  0  0  0  0  0  0  0
    3.5863    1.0668   18.6527 H   0  0  0  0  0  0  0  0  0  0  0  0
   11.0892   -2.3009   21.3624 H   0  0  0  0  0  0  0  0  0  0  0  0
    4.9063    1.3439   16.5573 H   0  0  0  0  0  0  0  0  0  0  0  0
    8.2746   -0.2909   18.2576 H   0  0  0  0  0  0  0  0  0  0  0  0
    8.7709   -2.2387   22.1706 H   0  0  0  0  0  0  0  0  0  0  0  0
    8.2491   -1.0157   23.3232 H   0  0  0  0  0  0  0  0  0  0  0  0
    6.8973   -1.6552   21.0612 H   0  0  0  0  0  0  0  0  0  0  0  0
  1  2  1  0  0  0  0
  1  3  2  0  0  0  0
  2  8  2  0  0  0  0
  3 11  1  0  0  0  0
  4  6  2  0  0  0  0
  4  9  1  0  0  0  0
  5  8  1  0  0  0  0
  5 11  2  0  0  0  0
  6 15  1  0  0  0  0
  7 10  1  0  0  0  0
  7 15  2  0  0  0  0
  8 13  1  0  0  0  0
  9 10  2  0  0  0  0
  9 14  1  0  0  0  0
 10 16  1  0  0  0  0
 11 21  1  0  0  0  0
 12 13  1  0  0  0  0
 12 16  1  0  0  0  0
 12 17  2  0  0  0  0
 14 18  1  0  0  0  0
 14 19  1  0  0  0  0
 14 20  1  0  0  0  0
  1 22  1  0  0  0  0
  2 23  1  0  0  0  0
  3 24  1  0  0  0  0
  4 25  1  0  0  0  0
  5 26  1  0  0  0  0
  6 27  1  0  0  0  0
  7 28  1  0  0  0  0
 13 29  1  0  0  0  0
 13 30  1  0  0  0  0
 16 31  1  0  0  0  0
M  END
> <compound>
JIN-POS-6dc588a4-4

> <compound_smiles>
c1cc(cc(c1)Cl)CC(=O)Nc2cnccc2C(F)(F)F

> <enantiomer_smiles>
c1cc(cc(c1)Cl)CC(=O)Nc2cnccc2C(F)(F)F

> <scaffold>
chlorobenzene-linker

> <clash_score>
0

> <docking_score>
-7.470080375671387

> <overlap_score>
0.8884056806564331

> <MMFF_internal_energy>
76.91017851691534

> <docked_smiles>
c1cc(cc(c1)Cl)CC(=O)Nc2cnccc2C(F)(F)F

$$$$
JIN-POS-6dc588a4-14_1
  -OEChem-07262101023D

 32 34  0     0  0  0  0  0  0999 V2000
   11.9780    0.4600   23.9150 C   0  0  0  0  0  0  0  0  0  0  0  0
   10.6560    0.0720   23.7350 C   0  0  0  0  0  0  0  0  0  0  0  0
   12.9840   -0.1200   23.1530 C   0  0  0  0  0  0  0  0  0  0  0  0
    3.2534    0.9923   19.0324 C   0  0  0  0  0  0  0  0  0  0  0  0
   11.3360   -1.5050   22.0650 C   0  0  0  0  0  0  0  0  0  0  0  0
    5.2803    0.8865   17.4064 C   0  0  0  0  0  0  0  0  0  0  0  0
    7.1884   -0.0187   18.3941 C   0  0  0  0  0  0  0  0  0  0  0  0
    3.1478    0.6037   20.3483 C   0  0  0  0  0  0  0  0  0  0  0  0
    4.5822    0.7184   18.6063 C   0  0  0  0  0  0  0  0  0  0  0  0
   10.3220   -0.8940   22.7910 C   0  0  0  0  0  0  0  0  0  0  0  0
    5.2560    0.1619   19.6946 C   0  0  0  0  0  0  0  0  0  0  0  0
    6.5901   -0.2286   19.6268 C   0  0  0  0  0  0  0  0  0  0  0  0
   12.6400   -1.1000   22.2390 C   0  0  0  0  0  0  0  0  0  0  0  0
    8.3880   -0.3240   21.3070 C   0  0  0  0  0  0  0  0  0  0  0  0
    8.8810   -1.1900   22.4510 C   0  0  0  0  0  0  0  0  0  0  0  0
    6.5799    0.5160   17.3104 N   0  0  0  0  0  0  0  0  0  0  0  0
    4.3614    0.1039   20.7389 N   0  0  0  0  0  0  0  0  0  0  0  0
    7.2820   -0.7860   20.6970 N   0  0  0  0  0  0  0  0  0  0  0  0
    8.9170    0.7530   21.0260 O   0  0  0  0  0  0  0  0  0  0  0  0
   13.8840   -1.8490   21.2740 Cl  0  0  0  0  0  0  0  0  0  0  0  0
   12.2249    1.2198   24.6546 H   0  0  0  0  0  0  0  0  0  0  0  0
    9.8763    0.5350   24.3454 H   0  0  0  0  0  0  0  0  0  0  0  0
   14.0077    0.1988   23.2842 H   0  0  0  0  0  0  0  0  0  0  0  0
    2.4585    1.4264   18.4414 H   0  0  0  0  0  0  0  0  0  0  0  0
   11.0892   -2.3009   21.3624 H   0  0  0  0  0  0  0  0  0  0  0  0
    4.8340    1.3095   16.5143 H   0  0  0  0  0  0  0  0  0  0  0  0
    8.2291   -0.2872   18.2312 H   0  0  0  0  0  0  0  0  0  0  0  0
    2.3184    0.6387   21.0405 H   0  0  0  0  0  0  0  0  0  0  0  0
    8.7775   -2.2383   22.1732 H   0  0  0  0  0  0  0  0  0  0  0  0
    8.2557   -1.0153   23.3257 H   0  0  0  0  0  0  0  0  0  0  0  0
    4.5690   -0.2556   21.6604 H   0  0  0  0  0  0  0  0  0  0  0  0
    6.8984   -1.6645   21.0698 H   0  0  0  0  0  0  0  0  0  0  0  0
  1  2  1  0  0  0  0
  1  3  2  0  0  0  0
  2 10  2  0  0  0  0
  3 13  1  0  0  0  0
  4  8  2  0  0  0  0
  4  9  1  0  0  0  0
  5 10  1  0  0  0  0
  5 13  2  0  0  0  0
  6  9  2  0  0  0  0
  6 16  1  0  0  0  0
  7 12  1  0  0  0  0
  7 16  2  0  0  0  0
  8 17  1  0  0  0  0
  9 11  1  0  0  0  0
 10 15  1  0  0  0  0
 11 12  2  0  0  0  0
 11 17  1  0  0  0  0
 12 18  1  0  0  0  0
 13 20  1  0  0  0  0
 14 15  1  0  0  0  0
 14 18  1  0  0  0  0
 14 19  2  0  0  0  0
  1 21  1  0  0  0  0
  2 22  1  0  0  0  0
  3 23  1  0  0  0  0
  4 24  1  0  0  0  0
  5 25  1  0  0  0  0
  6 26  1  0  0  0  0
  7 27  1  0  0  0  0
  8 28  1  0  0  0  0
 15 29  1  0  0  0  0
 15 30  1  0  0  0  0
 17 31  1  0  0  0  0
 18 32  1  0  0  0  0
M  END
> <compound>
JIN-POS-6dc588a4-14

> <compound_smiles>
c1cc(cc(c1)Cl)CC(=O)Nc2cncc3c2[nH]cc3

> <enantiomer_smiles>
c1cc(cc(c1)Cl)CC(=O)Nc2cncc3c2[nH]cc3

> <scaffold>
chlorobenzene-linker

> <canonical_CID>
JIN-POS-6dc588a4-14

> <r_inhibition_at_20_uM>

> <r_inhibition_at_50_uM>

> <r_avg_IC50>

> <f_inhibition_at_20_uM>

> <f_inhibition_at_50_uM>

> <f_avg_IC50>
1.89694942532936

> <f_avg_pIC50>

> <relative_solubility_at_20_uM>

> <relative_solubility_at_100_uM>

> <trypsin_IC50>

> <NMR_std_ratio>

> <acrylamide>
False

> <chloroacetamide>
False

> <series>
3-aminopyridine-like

> <frag_id>

> <clash_score>
0

> <docking_score>
-6.645723342895508

> <overlap_score>
0.8817803859710693

> <MMFF_internal_energy>
79.21418856191947

> <docked_smiles>
c1cc(cc(c1)Cl)CC(=O)Nc2cncc3c2[nH]cc3

$$$$
JIN-POS-6dc588a4-15_1
  -OEChem-07262101023D

 30 32  0     0  0  0  0  0  0999 V2000
   11.9780    0.4600   23.9150 C   0  0  0  0  0  0  0  0  0  0  0  0
    4.4605    3.2874   19.2283 C   0  0  0  0  0  0  0  0  0  0  0  0
   10.6560    0.0720   23.7350 C   0  0  0  0  0  0  0  0  0  0  0  0
    4.5577    2.3315   18.2196 C   0  0  0  0  0  0  0  0  0  0  0  0
   12.9840   -0.1200   23.1530 C   0  0  0  0  0  0  0  0  0  0  0  0
   11.3360   -1.5050   22.0650 C   0  0  0  0  0  0  0  0  0  0  0  0
    5.0936    3.0596   20.4486 C   0  0  0  0  0  0  0  0  0  0  0  0
   10.3220   -0.8940   22.7910 C   0  0  0  0  0  0  0  0  0  0  0  0
    5.9060    1.0483   19.7827 C   0  0  0  0  0  0  0  0  0  0  0  0
    5.3036    1.2104   18.5504 C   0  0  0  0  0  0  0  0  0  0  0  0
   12.6400   -1.1000   22.2390 C   0  0  0  0  0  0  0  0  0  0  0  0
    6.5431   -0.1986   19.6899 C   0  0  0  0  0  0  0  0  0  0  0  0
    8.3880   -0.3240   21.3070 C   0  0  0  0  0  0  0  0  0  0  0  0
    8.8810   -1.1900   22.4510 C   0  0  0  0  0  0  0  0  0  0  0  0
    5.8238    1.9645   20.7758 N   0  0  0  0  0  0  0  0  0  0  0  0
    6.3544   -0.7708   18.4952 N   0  0  0  0  0  0  0  0  0  0  0  0
    7.2820   -0.7860   20.6970 N   0  0  0  0  0  0  0  0  0  0  0  0
    8.9170    0.7530   21.0260 O   0  0  0  0  0  0  0  0  0  0  0  0
    5.5680    0.1255   17.7754 O   0  0  0  0  0  0  0  0  0  0  0  0
   13.8840   -1.8490   21.2740 Cl  0  0  0  0  0  0  0  0  0  0  0  0
   12.2249    1.2198   24.6546 H   0  0  0  0  0  0  0  0  0  0  0  0
    3.8973    4.2006   19.0650 H   0  0  0  0  0  0  0  0  0  0  0  0
    9.8763    0.5350   24.3454 H   0  0  0  0  0  0  0  0  0  0  0  0
    4.0868    2.4560   17.2533 H   0  0  0  0  0  0  0  0  0  0  0  0
   14.0077    0.1988   23.2842 H   0  0  0  0  0  0  0  0  0  0  0  0
   11.0892   -2.3009   21.3624 H   0  0  0  0  0  0  0  0  0  0  0  0
    5.0214    3.8016   21.2394 H   0  0  0  0  0  0  0  0  0  0  0  0
    8.7774   -2.2383   22.1732 H   0  0  0  0  0  0  0  0  0  0  0  0
    8.2557   -1.0153   23.3257 H   0  0  0  0  0  0  0  0  0  0  0  0
    6.9395   -1.7036   21.0263 H   0  0  0  0  0  0  0  0  0  0  0  0
  1  3  1  0  0  0  0
  1  5  2  0  0  0  0
  2  4  1  0  0  0  0
  2  7  2  0  0  0  0
  3  8  2  0  0  0  0
  4 10  2  0  0  0  0
  5 11  1  0  0  0  0
  6  8  1  0  0  0  0
  6 11  2  0  0  0  0
  7 15  1  0  0  0  0
  8 14  1  0  0  0  0
  9 10  1  0  0  0  0
  9 12  1  0  0  0  0
  9 15  2  0  0  0  0
 10 19  1  0  0  0  0
 11 20  1  0  0  0  0
 12 16  2  0  0  0  0
 12 17  1  0  0  0  0
 13 14  1  0  0  0  0
 13 17  1  0  0  0  0
 13 18  2  0  0  0  0
 16 19  1  0  0  0  0
  1 21  1  0  0  0  0
  2 22  1  0  0  0  0
  3 23  1  0  0  0  0
  4 24  1  0  0  0  0
  5 25  1  0  0  0  0
  6 26  1  0  0  0  0
  7 27  1  0  0  0  0
 14 28  1  0  0  0  0
 14 29  1  0  0  0  0
 17 30  1  0  0  0  0
M  END
> <compound>
JIN-POS-6dc588a4-15

> <compound_smiles>
c1cc(cc(c1)Cl)CC(=O)Nc2c3c(cccn3)on2

> <enantiomer_smiles>
c1cc(cc(c1)Cl)CC(=O)Nc2c3c(cccn3)on2

> <scaffold>
chlorobenzene-linker

> <clash_score>
0

> <docking_score>
-5.218465328216553

> <overlap_score>
0.854739785194397

> <MMFF_internal_energy>
68.72803579725573

> <docked_smiles>
c1cc(cc(c1)Cl)CC(=O)Nc2c3c(cccn3)on2

$$$$
JIN-POS-6dc588a4-12_1
  -OEChem-07262101023D

 32 34  0     0  0  0  0  0  0999 V2000
   11.9780    0.4600   23.9150 C   0  0  0  0  0  0  0  0  0  0  0  0
   10.6560    0.0720   23.7350 C   0  0  0  0  0  0  0  0  0  0  0  0
   12.9840   -0.1200   23.1530 C   0  0  0  0  0  0  0  0  0  0  0  0
    4.2685    0.1349   20.7482 C   0  0  0  0  0  0  0  0  0  0  0  0
   11.3360   -1.5050   22.0650 C   0  0  0  0  0  0  0  0  0  0  0  0
    5.3142    0.8890   17.3907 C   0  0  0  0  0  0  0  0  0  0  0  0
    7.2062   -0.0237   18.3978 C   0  0  0  0  0  0  0  0  0  0  0  0
    3.1043    0.6617   20.2374 C   0  0  0  0  0  0  0  0  0  0  0  0
    5.2463    0.1627   19.7150 C   0  0  0  0  0  0  0  0  0  0  0  0
   10.3220   -0.8940   22.7910 C   0  0  0  0  0  0  0  0  0  0  0  0
    4.6340    0.7154   18.5889 C   0  0  0  0  0  0  0  0  0  0  0  0
    6.5902   -0.2271   19.6256 C   0  0  0  0  0  0  0  0  0  0  0  0
   12.6400   -1.1000   22.2390 C   0  0  0  0  0  0  0  0  0  0  0  0
    8.3880   -0.3240   21.3070 C   0  0  0  0  0  0  0  0  0  0  0  0
    8.8810   -1.1900   22.4510 C   0  0  0  0  0  0  0  0  0  0  0  0
    6.6112    0.5121   17.3074 N   0  0  0  0  0  0  0  0  0  0  0  0
    3.3352    1.0091   18.9330 N   0  0  0  0  0  0  0  0  0  0  0  0
    7.2820   -0.7860   20.6970 N   0  0  0  0  0  0  0  0  0  0  0  0
    8.9170    0.7530   21.0260 O   0  0  0  0  0  0  0  0  0  0  0  0
   13.8840   -1.8490   21.2740 Cl  0  0  0  0  0  0  0  0  0  0  0  0
   12.2249    1.2198   24.6546 H   0  0  0  0  0  0  0  0  0  0  0  0
    9.8763    0.5350   24.3454 H   0  0  0  0  0  0  0  0  0  0  0  0
   14.0077    0.1988   23.2842 H   0  0  0  0  0  0  0  0  0  0  0  0
    4.3988   -0.2299   21.7580 H   0  0  0  0  0  0  0  0  0  0  0  0
   11.0892   -2.3009   21.3624 H   0  0  0  0  0  0  0  0  0  0  0  0
    4.8636    1.3148   16.5039 H   0  0  0  0  0  0  0  0  0  0  0  0
    8.2465   -0.2999   18.2467 H   0  0  0  0  0  0  0  0  0  0  0  0
    2.1335    0.8202   20.6853 H   0  0  0  0  0  0  0  0  0  0  0  0
    8.7774   -2.2383   22.1732 H   0  0  0  0  0  0  0  0  0  0  0  0
    8.2557   -1.0153   23.3257 H   0  0  0  0  0  0  0  0  0  0  0  0
    2.6510    1.4209   18.3135 H   0  0  0  0  0  0  0  0  0  0  0  0
    6.8984   -1.6639   21.0693 H   0  0  0  0  0  0  0  0  0  0  0  0
  1  2  1  0  0  0  0
  1  3  2  0  0  0  0
  2 10  2  0  0  0  0
  3 13  1  0  0  0  0
  4  8  2  0  0  0  0
  4  9  1  0  0  0  0
  5 10  1  0  0  0  0
  5 13  2  0  0  0  0
  6 11  2  0  0  0  0
  6 16  1  0  0  0  0
  7 12  1  0  0  0  0
  7 16  2  0  0  0  0
  8 17  1  0  0  0  0
  9 11  1  0  0  0  0
  9 12  2  0  0  0  0
 10 15  1  0  0  0  0
 11 17  1  0  0  0  0
 12 18  1  0  0  0  0
 13 20  1  0  0  0  0
 14 15  1  0  0  0  0
 14 18  1  0  0  0  0
 14 19  2  0  0  0  0
  1 21  1  0  0  0  0
  2 22  1  0  0  0  0
  3 23  1  0  0  0  0
  4 24  1  0  0  0  0
  5 25  1  0  0  0  0
  6 26  1  0  0  0  0
  7 27  1  0  0  0  0
  8 28  1  0  0  0  0
 15 29  1  0  0  0  0
 15 30  1  0  0  0  0
 17 31  1  0  0  0  0
 18 32  1  0  0  0  0
M  END
> <compound>
JIN-POS-6dc588a4-12

> <compound_smiles>
c1cc(cc(c1)Cl)CC(=O)Nc2cncc3c2cc[nH]3

> <enantiomer_smiles>
c1cc(cc(c1)Cl)CC(=O)Nc2cncc3c2cc[nH]3

> <scaffold>
chlorobenzene-linker

> <clash_score>
0

> <docking_score>
-6.79965877532959

> <overlap_score>
0.8821353912353516

> <MMFF_internal_energy>
73.03771492254147

> <docked_smiles>
c1cc(cc(c1)Cl)CC(=O)Nc2cncc3c2cc[nH]3

$$$$
JIN-POS-6dc588a4-19_1
  -OEChem-07262101023D

 35 37  0     0  0  0  0  0  0999 V2000
    5.7356    3.2708   21.0297 C   0  0  0  0  0  0  0  0  0  0  0  0
    5.1354    3.8513   19.9164 C   0  0  0  0  0  0  0  0  0  0  0  0
   11.9780    0.4600   23.9150 C   0  0  0  0  0  0  0  0  0  0  0  0
    6.2437    1.9700   20.9599 C   0  0  0  0  0  0  0  0  0  0  0  0
    5.0395    3.1346   18.7268 C   0  0  0  0  0  0  0  0  0  0  0  0
   10.6560    0.0720   23.7350 C   0  0  0  0  0  0  0  0  0  0  0  0
   12.9840   -0.1200   23.1530 C   0  0  0  0  0  0  0  0  0  0  0  0
   11.3360   -1.5050   22.0650 C   0  0  0  0  0  0  0  0  0  0  0  0
    6.1598    1.2258   19.7727 C   0  0  0  0  0  0  0  0  0  0  0  0
    5.5480    1.8312   18.6556 C   0  0  0  0  0  0  0  0  0  0  0  0
   10.3220   -0.8940   22.7910 C   0  0  0  0  0  0  0  0  0  0  0  0
   12.6400   -1.1000   22.2390 C   0  0  0  0  0  0  0  0  0  0  0  0
    6.5526   -0.7806   18.4684 C   0  0  0  0  0  0  0  0  0  0  0  0
    6.6808   -0.1525   19.6456 C   0  0  0  0  0  0  0  0  0  0  0  0
    5.4358    1.0817   17.3753 C   0  0  0  0  0  0  0  0  0  0  0  0
    8.3880   -0.3240   21.3070 C   0  0  0  0  0  0  0  0  0  0  0  0
    8.8810   -1.1900   22.4510 C   0  0  0  0  0  0  0  0  0  0  0  0
    5.9599   -0.1988   17.3804 N   0  0  0  0  0  0  0  0  0  0  0  0
    7.2820   -0.7860   20.6970 N   0  0  0  0  0  0  0  0  0  0  0  0
    4.9075    1.5896   16.3911 O   0  0  0  0  0  0  0  0  0  0  0  0
    8.9170    0.7530   21.0260 O   0  0  0  0  0  0  0  0  0  0  0  0
   13.8840   -1.8490   21.2740 Cl  0  0  0  0  0  0  0  0  0  0  0  0
    5.8095    3.8300   21.9581 H   0  0  0  0  0  0  0  0  0  0  0  0
    4.7417    4.8618   19.9759 H   0  0  0  0  0  0  0  0  0  0  0  0
   12.2249    1.2198   24.6546 H   0  0  0  0  0  0  0  0  0  0  0  0
    6.7023    1.5632   21.8568 H   0  0  0  0  0  0  0  0  0  0  0  0
    4.5665    3.6049   17.8693 H   0  0  0  0  0  0  0  0  0  0  0  0
    9.8763    0.5350   24.3454 H   0  0  0  0  0  0  0  0  0  0  0  0
   14.0077    0.1988   23.2842 H   0  0  0  0  0  0  0  0  0  0  0  0
   11.0892   -2.3009   21.3624 H   0  0  0  0  0  0  0  0  0  0  0  0
    6.9107   -1.7909   18.3029 H   0  0  0  0  0  0  0  0  0  0  0  0
    8.2535   -1.0146   23.3240 H   0  0  0  0  0  0  0  0  0  0  0  0
    8.7756   -2.2377   22.1724 H   0  0  0  0  0  0  0  0  0  0  0  0
    5.9064   -0.7485   16.5279 H   0  0  0  0  0  0  0  0  0  0  0  0
    6.8585   -1.6466   21.0208 H   0  0  0  0  0  0  0  0  0  0  0  0
  1  2  1  0  0  0  0
  1  4  2  0  0  0  0
  2  5  2  0  0  0  0
  3  6  2  0  0  0  0
  3  7  1  0  0  0  0
  4  9  1  0  0  0  0
  5 10  1  0  0  0  0
  6 11  1  0  0  0  0
  7 12  2  0  0  0  0
  8 11  2  0  0  0  0
  8 12  1  0  0  0  0
  9 10  2  0  0  0  0
  9 14  1  0  0  0  0
 10 15  1  0  0  0  0
 11 17  1  0  0  0  0
 12 22  1  0  0  0  0
 13 14  2  0  0  0  0
 13 18  1  0  0  0  0
 14 19  1  0  0  0  0
 15 18  1  0  0  0  0
 15 20  2  0  0  0  0
 16 17  1  0  0  0  0
 16 19  1  0  0  0  0
 16 21  2  0  0  0  0
  1 23  1  0  0  0  0
  2 24  1  0  0  0  0
  3 25  1  0  0  0  0
  4 26  1  0  0  0  0
  5 27  1  0  0  0  0
  6 28  1  0  0  0  0
  7 29  1  0  0  0  0
  8 30  1  0  0  0  0
 13 31  1  0  0  0  0
 17 32  1  0  0  0  0
 17 33  1  0  0  0  0
 18 34  1  0  0  0  0
 19 35  1  0  0  0  0
M  END
> <compound>
JIN-POS-6dc588a4-19

> <compound_smiles>
c1ccc2c(c1)c(c[nH]c2=O)NC(=O)Cc3cccc(c3)Cl

> <enantiomer_smiles>
c1ccc2c(c1)c(c[nH]c2=O)NC(=O)Cc3cccc(c3)Cl

> <scaffold>
chlorobenzene-linker

> <clash_score>
0.6851712973595664

> <docking_score>
-4.199223518371582

> <overlap_score>
0.8323191404342651

> <MMFF_internal_energy>
79.12068030774877

> <docked_smiles>
c1ccc2c(c1)c(c[nH]c2=O)NC(=O)Cc3cccc(c3)Cl

$$$$
JIN-POS-6dc588a4-18_1
  -OEChem-07262101023D

 38 40  0     0  0  0  0  0  0999 V2000
    4.0781    2.0267   21.2007 C   0  0  0  0  0  0  0  0  0  0  0  0
   11.9780    0.4600   23.9150 C   0  0  0  0  0  0  0  0  0  0  0  0
    5.1226    1.1107   21.0643 C   0  0  0  0  0  0  0  0  0  0  0  0
   10.6560    0.0720   23.7350 C   0  0  0  0  0  0  0  0  0  0  0  0
    3.4445    2.5384   20.0707 C   0  0  0  0  0  0  0  0  0  0  0  0
   12.9840   -0.1200   23.1530 C   0  0  0  0  0  0  0  0  0  0  0  0
   11.3360   -1.5050   22.0650 C   0  0  0  0  0  0  0  0  0  0  0  0
    5.3510    0.7784   17.4018 C   0  0  0  0  0  0  0  0  0  0  0  0
    6.9500   -0.5827   18.3320 C   0  0  0  0  0  0  0  0  0  0  0  0
    5.5463    0.6947   19.7915 C   0  0  0  0  0  0  0  0  0  0  0  0
    4.9023    1.2150   18.6499 C   0  0  0  0  0  0  0  0  0  0  0  0
   10.3220   -0.8940   22.7910 C   0  0  0  0  0  0  0  0  0  0  0  0
    6.5902   -0.2221   19.6216 C   0  0  0  0  0  0  0  0  0  0  0  0
    3.8525    2.1363   18.7991 C   0  0  0  0  0  0  0  0  0  0  0  0
   12.6400   -1.1000   22.2390 C   0  0  0  0  0  0  0  0  0  0  0  0
    8.3880   -0.3240   21.3070 C   0  0  0  0  0  0  0  0  0  0  0  0
    2.1567    3.5860   17.9752 C   0  0  0  0  0  0  0  0  0  0  0  0
    8.8810   -1.1900   22.4510 C   0  0  0  0  0  0  0  0  0  0  0  0
    6.3571   -0.1058   17.2168 N   0  0  0  0  0  0  0  0  0  0  0  0
    7.2820   -0.7860   20.6970 N   0  0  0  0  0  0  0  0  0  0  0  0
    8.9170    0.7530   21.0260 O   0  0  0  0  0  0  0  0  0  0  0  0
    3.2081    2.6594   17.7159 O   0  0  0  0  0  0  0  0  0  0  0  0
   13.8840   -1.8490   21.2740 Cl  0  0  0  0  0  0  0  0  0  0  0  0
    3.7586    2.3415   22.1901 H   0  0  0  0  0  0  0  0  0  0  0  0
   12.2249    1.2198   24.6546 H   0  0  0  0  0  0  0  0  0  0  0  0
    5.5920    0.7333   21.9698 H   0  0  0  0  0  0  0  0  0  0  0  0
    9.8763    0.5350   24.3454 H   0  0  0  0  0  0  0  0  0  0  0  0
    2.6320    3.2505   20.1876 H   0  0  0  0  0  0  0  0  0  0  0  0
   14.0077    0.1988   23.2842 H   0  0  0  0  0  0  0  0  0  0  0  0
   11.0892   -2.3009   21.3624 H   0  0  0  0  0  0  0  0  0  0  0  0
    4.9039    1.1344   16.4779 H   0  0  0  0  0  0  0  0  0  0  0  0
    7.7533   -1.2901   18.1476 H   0  0  0  0  0  0  0  0  0  0  0  0
    1.7281    3.9259   17.0293 H   0  0  0  0  0  0  0  0  0  0  0  0
    2.5504    4.4375   18.5360 H   0  0  0  0  0  0  0  0  0  0  0  0
    1.3831    3.0896   18.5658 H   0  0  0  0  0  0  0  0  0  0  0  0
    8.7774   -2.2383   22.1732 H   0  0  0  0  0  0  0  0  0  0  0  0
    8.2557   -1.0153   23.3257 H   0  0  0  0  0  0  0  0  0  0  0  0
    6.8981   -1.6619   21.0675 H   0  0  0  0  0  0  0  0  0  0  0  0
  1  3  1  0  0  0  0
  1  5  2  0  0  0  0
  2  4  2  0  0  0  0
  2  6  1  0  0  0  0
  3 10  2  0  0  0  0
  4 12  1  0  0  0  0
  5 14  1  0  0  0  0
  6 15  2  0  0  0  0
  7 12  2  0  0  0  0
  7 15  1  0  0  0  0
  8 11  1  0  0  0  0
  8 19  2  0  0  0  0
  9 13  2  0  0  0  0
  9 19  1  0  0  0  0
 10 11  1  0  0  0  0
 10 13  1  0  0  0  0
 11 14  2  0  0  0  0
 12 18  1  0  0  0  0
 13 20  1  0  0  0  0
 14 22  1  0  0  0  0
 15 23  1  0  0  0  0
 16 18  1  0  0  0  0
 16 20  1  0  0  0  0
 16 21  2  0  0  0  0
 17 22  1  0  0  0  0
  1 24  1  0  0  0  0
  2 25  1  0  0  0  0
  3 26  1  0  0  0  0
  4 27  1  0  0  0  0
  5 28  1  0  0  0  0
  6 29  1  0  0  0  0
  7 30  1  0  0  0  0
  8 31  1  0  0  0  0
  9 32  1  0  0  0  0
 17 33  1  0  0  0  0
 17 34  1  0  0  0  0
 17 35  1  0  0  0  0
 18 36  1  0  0  0  0
 18 37  1  0  0  0  0
 20 38  1  0  0  0  0
M  END
> <compound>
JIN-POS-6dc588a4-18

> <compound_smiles>
COc1cccc2c1cncc2NC(=O)Cc3cccc(c3)Cl

> <enantiomer_smiles>
COc1cccc2c1cncc2NC(=O)Cc3cccc(c3)Cl

> <scaffold>
chlorobenzene-linker

> <clash_score>
1.3539671248633347

> <docking_score>
-9.632725715637207

> <overlap_score>
0.9905227422714233

> <MMFF_internal_energy>
113.00658157553224

> <docked_smiles>
COc1cccc2c1cncc2NC(=O)Cc3cccc(c3)Cl

$$$$
JIN-POS-6dc588a4-11_1
  -OEChem-07262101023D

 34 36  0     0  0  0  0  0  0999 V2000
   11.9780    0.4600   23.9150 C   0  0  0  0  0  0  0  0  0  0  0  0
    5.1223    1.1109   21.0637 C   0  0  0  0  0  0  0  0  0  0  0  0
   10.6560    0.0720   23.7350 C   0  0  0  0  0  0  0  0  0  0  0  0
    4.0777    2.0269   21.1998 C   0  0  0  0  0  0  0  0  0  0  0  0
   12.9840   -0.1200   23.1530 C   0  0  0  0  0  0  0  0  0  0  0  0
    3.8526    2.1361   18.7981 C   0  0  0  0  0  0  0  0  0  0  0  0
   11.3360   -1.5050   22.0650 C   0  0  0  0  0  0  0  0  0  0  0  0
    5.3514    0.7780   17.4014 C   0  0  0  0  0  0  0  0  0  0  0  0
    6.9503   -0.5830   18.3322 C   0  0  0  0  0  0  0  0  0  0  0  0
    5.5463    0.6947   19.7911 C   0  0  0  0  0  0  0  0  0  0  0  0
    4.9025    1.2148   18.6493 C   0  0  0  0  0  0  0  0  0  0  0  0
   10.3220   -0.8940   22.7910 C   0  0  0  0  0  0  0  0  0  0  0  0
    6.5902   -0.2221   19.6216 C   0  0  0  0  0  0  0  0  0  0  0  0
    3.4443    2.5384   20.0696 C   0  0  0  0  0  0  0  0  0  0  0  0
   12.6400   -1.1000   22.2390 C   0  0  0  0  0  0  0  0  0  0  0  0
    8.3880   -0.3240   21.3070 C   0  0  0  0  0  0  0  0  0  0  0  0
    8.8810   -1.1900   22.4510 C   0  0  0  0  0  0  0  0  0  0  0  0
    6.3575   -0.1063   17.2168 N   0  0  0  0  0  0  0  0  0  0  0  0
    7.2820   -0.7860   20.6970 N   0  0  0  0  0  0  0  0  0  0  0  0
    8.9170    0.7530   21.0260 O   0  0  0  0  0  0  0  0  0  0  0  0
    2.4419    3.4168   20.2034 F   0  0  0  0  0  0  0  0  0  0  0  0
   13.8840   -1.8490   21.2740 Cl  0  0  0  0  0  0  0  0  0  0  0  0
   12.2249    1.2198   24.6546 H   0  0  0  0  0  0  0  0  0  0  0  0
    5.5919    0.7340   21.9693 H   0  0  0  0  0  0  0  0  0  0  0  0
    9.8763    0.5350   24.3454 H   0  0  0  0  0  0  0  0  0  0  0  0
    3.7584    2.3414   22.1892 H   0  0  0  0  0  0  0  0  0  0  0  0
   14.0077    0.1988   23.2842 H   0  0  0  0  0  0  0  0  0  0  0  0
    3.3475    2.5458   17.9265 H   0  0  0  0  0  0  0  0  0  0  0  0
   11.0892   -2.3009   21.3624 H   0  0  0  0  0  0  0  0  0  0  0  0
    4.8987    1.1390   16.4819 H   0  0  0  0  0  0  0  0  0  0  0  0
    7.7536   -1.2904   18.1478 H   0  0  0  0  0  0  0  0  0  0  0  0
    8.7774   -2.2383   22.1732 H   0  0  0  0  0  0  0  0  0  0  0  0
    8.2557   -1.0153   23.3257 H   0  0  0  0  0  0  0  0  0  0  0  0
    6.8981   -1.6619   21.0675 H   0  0  0  0  0  0  0  0  0  0  0  0
  1  3  1  0  0  0  0
  1  5  2  0  0  0  0
  2  4  2  0  0  0  0
  2 10  1  0  0  0  0
  3 12  2  0  0  0  0
  4 14  1  0  0  0  0
  5 15  1  0  0  0  0
  6 11  1  0  0  0  0
  6 14  2  0  0  0  0
  7 12  1  0  0  0  0
  7 15  2  0  0  0  0
  8 11  2  0  0  0  0
  8 18  1  0  0  0  0
  9 13  1  0  0  0  0
  9 18  2  0  0  0  0
 10 11  1  0  0  0  0
 10 13  2  0  0  0  0
 12 17  1  0  0  0  0
 13 19  1  0  0  0  0
 14 21  1  0  0  0  0
 15 22  1  0  0  0  0
 16 17  1  0  0  0  0
 16 19  1  0  0  0  0
 16 20  2  0  0  0  0
  1 23  1  0  0  0  0
  2 24  1  0  0  0  0
  3 25  1  0  0  0  0
  4 26  1  0  0  0  0
  5 27  1  0  0  0  0
  6 28  1  0  0  0  0
  7 29  1  0  0  0  0
  8 30  1  0  0  0  0
  9 31  1  0  0  0  0
 17 32  1  0  0  0  0
 17 33  1  0  0  0  0
 19 34  1  0  0  0  0
M  END
> <compound>
JIN-POS-6dc588a4-11

> <compound_smiles>
c1cc(cc(c1)Cl)CC(=O)Nc2cncc3c2ccc(c3)F

> <enantiomer_smiles>
c1cc(cc(c1)Cl)CC(=O)Nc2cncc3c2ccc(c3)F

> <scaffold>
chlorobenzene-linker

> <canonical_CID>
JIN-POS-6dc588a4-11

> <r_inhibition_at_20_uM>

> <r_inhibition_at_50_uM>

> <r_avg_IC50>

> <f_inhibition_at_20_uM>

> <f_inhibition_at_50_uM>

> <f_avg_IC50>
1.46738083505272

> <f_avg_pIC50>

> <relative_solubility_at_20_uM>

> <relative_solubility_at_100_uM>

> <trypsin_IC50>

> <NMR_std_ratio>

> <acrylamide>
False

> <chloroacetamide>
False

> <series>
3-aminopyridine-like

> <frag_id>

> <clash_score>
0

> <docking_score>
-11.390922546386719

> <overlap_score>
1.0

> <MMFF_internal_energy>
92.82820766394515

> <docked_smiles>
c1cc(cc(c1)Cl)CC(=O)Nc2cncc3c2ccc(c3)F

$$$$
JIN-POS-6dc588a4-13_1
  -OEChem-07262101023D

 34 36  0     0  0  0  0  0  0999 V2000
    5.5338    3.1327   20.8428 C   0  0  0  0  0  0  0  0  0  0  0  0
   11.9780    0.4600   23.9150 C   0  0  0  0  0  0  0  0  0  0  0  0
    6.1114    1.8620   20.8212 C   0  0  0  0  0  0  0  0  0  0  0  0
   10.6560    0.0720   23.7350 C   0  0  0  0  0  0  0  0  0  0  0  0
    4.8609    3.6142   19.7222 C   0  0  0  0  0  0  0  0  0  0  0  0
   12.9840   -0.1200   23.1530 C   0  0  0  0  0  0  0  0  0  0  0  0
   11.3360   -1.5050   22.0650 C   0  0  0  0  0  0  0  0  0  0  0  0
    5.2717    0.7175   17.4210 C   0  0  0  0  0  0  0  0  0  0  0  0
    6.4588   -0.9562   18.4527 C   0  0  0  0  0  0  0  0  0  0  0  0
    6.0219    1.0559   19.6745 C   0  0  0  0  0  0  0  0  0  0  0  0
    5.3399    1.5470   18.5421 C   0  0  0  0  0  0  0  0  0  0  0  0
   10.3220   -0.8940   22.7910 C   0  0  0  0  0  0  0  0  0  0  0  0
    6.5902   -0.2221   19.6216 C   0  0  0  0  0  0  0  0  0  0  0  0
    4.7626    2.8272   18.5750 C   0  0  0  0  0  0  0  0  0  0  0  0
   12.6400   -1.1000   22.2390 C   0  0  0  0  0  0  0  0  0  0  0  0
    8.3880   -0.3240   21.3070 C   0  0  0  0  0  0  0  0  0  0  0  0
    8.8810   -1.1900   22.4510 C   0  0  0  0  0  0  0  0  0  0  0  0
    5.8138   -0.5192   17.3502 N   0  0  0  0  0  0  0  0  0  0  0  0
    7.2820   -0.7860   20.6970 N   0  0  0  0  0  0  0  0  0  0  0  0
    8.9170    0.7530   21.0260 O   0  0  0  0  0  0  0  0  0  0  0  0
    4.1103    3.3083   17.5063 F   0  0  0  0  0  0  0  0  0  0  0  0
   13.8840   -1.8490   21.2740 Cl  0  0  0  0  0  0  0  0  0  0  0  0
    5.6100    3.7477   21.7348 H   0  0  0  0  0  0  0  0  0  0  0  0
   12.2249    1.2198   24.6546 H   0  0  0  0  0  0  0  0  0  0  0  0
    6.6292    1.5213   21.7149 H   0  0  0  0  0  0  0  0  0  0  0  0
    9.8763    0.5350   24.3454 H   0  0  0  0  0  0  0  0  0  0  0  0
    4.4132    4.6034   19.7417 H   0  0  0  0  0  0  0  0  0  0  0  0
   14.0077    0.1988   23.2842 H   0  0  0  0  0  0  0  0  0  0  0  0
   11.0892   -2.3008   21.3624 H   0  0  0  0  0  0  0  0  0  0  0  0
    4.7612    1.0326   16.5150 H   0  0  0  0  0  0  0  0  0  0  0  0
    6.8826   -1.9522   18.3612 H   0  0  0  0  0  0  0  0  0  0  0  0
    8.7774   -2.2383   22.1732 H   0  0  0  0  0  0  0  0  0  0  0  0
    8.2557   -1.0153   23.3257 H   0  0  0  0  0  0  0  0  0  0  0  0
    6.8981   -1.6619   21.0675 H   0  0  0  0  0  0  0  0  0  0  0  0
  1  3  2  0  0  0  0
  1  5  1  0  0  0  0
  2  4  1  0  0  0  0
  2  6  2  0  0  0  0
  3 10  1  0  0  0  0
  4 12  2  0  0  0  0
  5 14  2  0  0  0  0
  6 15  1  0  0  0  0
  7 12  1  0  0  0  0
  7 15  2  0  0  0  0
  8 11  2  0  0  0  0
  8 18  1  0  0  0  0
  9 13  1  0  0  0  0
  9 18  2  0  0  0  0
 10 11  1  0  0  0  0
 10 13  2  0  0  0  0
 11 14  1  0  0  0  0
 12 17  1  0  0  0  0
 13 19  1  0  0  0  0
 14 21  1  0  0  0  0
 15 22  1  0  0  0  0
 16 17  1  0  0  0  0
 16 19  1  0  0  0  0
 16 20  2  0  0  0  0
  1 23  1  0  0  0  0
  2 24  1  0  0  0  0
  3 25  1  0  0  0  0
  4 26  1  0  0  0  0
  5 27  1  0  0  0  0
  6 28  1  0  0  0  0
  7 29  1  0  0  0  0
  8 30  1  0  0  0  0
  9 31  1  0  0  0  0
 17 32  1  0  0  0  0
 17 33  1  0  0  0  0
 19 34  1  0  0  0  0
M  END
> <compound>
JIN-POS-6dc588a4-13

> <compound_smiles>
c1cc(cc(c1)Cl)CC(=O)Nc2cncc3c2cccc3F

> <enantiomer_smiles>
c1cc(cc(c1)Cl)CC(=O)Nc2cncc3c2cccc3F

> <scaffold>
chlorobenzene-linker

> <canonical_CID>
JIN-POS-6dc588a4-13

> <r_inhibition_at_20_uM>

> <r_inhibition_at_50_uM>

> <r_avg_IC50>

> <f_inhibition_at_20_uM>

> <f_inhibition_at_50_uM>

> <f_avg_IC50>
0.889561825883844

> <f_avg_pIC50>

> <relative_solubility_at_20_uM>

> <relative_solubility_at_100_uM>

> <trypsin_IC50>

> <NMR_std_ratio>

> <acrylamide>
False

> <chloroacetamide>
False

> <series>
3-aminopyridine-like

> <frag_id>

> <clash_score>
1.3447033805637563

> <docking_score>
-4.492730140686035

> <overlap_score>
0.8454546332359314

> <MMFF_internal_energy>
92.4993385531982

> <docked_smiles>
c1cc(cc(c1)Cl)CC(=O)Nc2cncc3c2cccc3F

$$$$
JIN-POS-6dc588a4-16_1
  -OEChem-07262101023D

 30 32  0     0  0  0  0  0  0999 V2000
   11.9780    0.4600   23.9150 C   0  0  0  0  0  0  0  0  0  0  0  0
   10.6560    0.0720   23.7350 C   0  0  0  0  0  0  0  0  0  0  0  0
   12.9840   -0.1200   23.1530 C   0  0  0  0  0  0  0  0  0  0  0  0
    8.3078    1.2026   18.3609 C   0  0  0  0  0  0  0  0  0  0  0  0
   11.3360   -1.5050   22.0650 C   0  0  0  0  0  0  0  0  0  0  0  0
    8.3053    2.0386   17.2480 C   0  0  0  0  0  0  0  0  0  0  0  0
    6.0158    1.8230   16.8403 C   0  0  0  0  0  0  0  0  0  0  0  0
    7.0669    0.6617   18.7045 C   0  0  0  0  0  0  0  0  0  0  0  0
   10.3220   -0.8940   22.7910 C   0  0  0  0  0  0  0  0  0  0  0  0
    5.9611    0.9852   17.9386 C   0  0  0  0  0  0  0  0  0  0  0  0
   12.6400   -1.1000   22.2390 C   0  0  0  0  0  0  0  0  0  0  0  0
    6.5430   -0.1978   19.6893 C   0  0  0  0  0  0  0  0  0  0  0  0
    8.3880   -0.3240   21.3070 C   0  0  0  0  0  0  0  0  0  0  0  0
    8.8810   -1.1900   22.4510 C   0  0  0  0  0  0  0  0  0  0  0  0
    7.2161    2.3524   16.5002 N   0  0  0  0  0  0  0  0  0  0  0  0
    5.2277   -0.3918   19.5493 N   0  0  0  0  0  0  0  0  0  0  0  0
    7.2820   -0.7860   20.6970 N   0  0  0  0  0  0  0  0  0  0  0  0
    8.9170    0.7530   21.0260 O   0  0  0  0  0  0  0  0  0  0  0  0
    4.8626    0.3596   18.4381 O   0  0  0  0  0  0  0  0  0  0  0  0
   13.8840   -1.8490   21.2740 Cl  0  0  0  0  0  0  0  0  0  0  0  0
   12.2249    1.2198   24.6546 H   0  0  0  0  0  0  0  0  0  0  0  0
    9.8763    0.5350   24.3454 H   0  0  0  0  0  0  0  0  0  0  0  0
   14.0077    0.1988   23.2842 H   0  0  0  0  0  0  0  0  0  0  0  0
    9.2153    0.9932   18.9140 H   0  0  0  0  0  0  0  0  0  0  0  0
   11.0892   -2.3009   21.3624 H   0  0  0  0  0  0  0  0  0  0  0  0
    9.2298    2.5007   16.9136 H   0  0  0  0  0  0  0  0  0  0  0  0
    5.1595    2.0830   16.2344 H   0  0  0  0  0  0  0  0  0  0  0  0
    8.7774   -2.2383   22.1732 H   0  0  0  0  0  0  0  0  0  0  0  0
    8.2557   -1.0153   23.3257 H   0  0  0  0  0  0  0  0  0  0  0  0
    6.9395   -1.7032   21.0261 H   0  0  0  0  0  0  0  0  0  0  0  0
  1  2  1  0  0  0  0
  1  3  2  0  0  0  0
  2  9  2  0  0  0  0
  3 11  1  0  0  0  0
  4  6  2  0  0  0  0
  4  8  1  0  0  0  0
  5  9  1  0  0  0  0
  5 11  2  0  0  0  0
  6 15  1  0  0  0  0
  7 10  1  0  0  0  0
  7 15  2  0  0  0  0
  8 10  2  0  0  0  0
  8 12  1  0  0  0  0
  9 14  1  0  0  0  0
 10 19  1  0  0  0  0
 11 20  1  0  0  0  0
 12 16  2  0  0  0  0
 12 17  1  0  0  0  0
 13 14  1  0  0  0  0
 13 17  1  0  0  0  0
 13 18  2  0  0  0  0
 16 19  1  0  0  0  0
  1 21  1  0  0  0  0
  2 22  1  0  0  0  0
  3 23  1  0  0  0  0
  4 24  1  0  0  0  0
  5 25  1  0  0  0  0
  6 26  1  0  0  0  0
  7 27  1  0  0  0  0
 14 28  1  0  0  0  0
 14 29  1  0  0  0  0
 17 30  1  0  0  0  0
M  END
> <compound>
JIN-POS-6dc588a4-16

> <compound_smiles>
c1cc(cc(c1)Cl)CC(=O)Nc2c3ccncc3on2

> <enantiomer_smiles>
c1cc(cc(c1)Cl)CC(=O)Nc2c3ccncc3on2

> <scaffold>
chlorobenzene-linker

> <clash_score>
1.250829487650837

> <docking_score>
-2.5436105728149414

> <overlap_score>
0.7822754383087158

> <MMFF_internal_energy>
34.01896212301517

> <docked_smiles>
c1cc(cc(c1)Cl)CC(=O)Nc2c3ccncc3on2

$$$$
EDJ-MED-cf4b0d25-2_2
  -OEChem-07262101023D

 65 69  0     1  0  0  0  0  0999 V2000
    2.5657    1.0132   19.7900 C   0  0  0  0  0  0  0  0  0  0  0  0
    3.1660    0.4495   20.9134 C   0  0  0  0  0  0  0  0  0  0  0  0
   11.9780    0.4600   23.9150 C   0  0  0  0  0  0  0  0  0  0  0  0
    3.2969    1.1719   18.6130 C   0  0  0  0  0  0  0  0  0  0  0  0
    4.5003    0.0420   20.8649 C   0  0  0  0  0  0  0  0  0  0  0  0
   10.6560    0.0720   23.7350 C   0  0  0  0  0  0  0  0  0  0  0  0
   12.9840   -0.1200   23.1530 C   0  0  0  0  0  0  0  0  0  0  0  0
   11.3360   -1.5050   22.0650 C   0  0  0  0  0  0  0  0  0  0  0  0
    5.4182    0.9006   17.4014 C   0  0  0  0  0  0  0  0  0  0  0  0
    7.2646   -0.0206   18.4099 C   0  0  0  0  0  0  0  0  0  0  0  0
    4.6401    0.7653   18.5528 C   0  0  0  0  0  0  0  0  0  0  0  0
    5.2515    0.1942   19.6881 C   0  0  0  0  0  0  0  0  0  0  0  0
   10.3220   -0.8940   22.7910 C   0  0  0  0  0  0  0  0  0  0  0  0
    6.5908   -0.2044   19.6077 C   0  0  0  0  0  0  0  0  0  0  0  0
   12.6400   -1.1000   22.2390 C   0  0  0  0  0  0  0  0  0  0  0  0
    6.2948   -6.5246   24.6115 C   0  0  0  0  0  0  0  0  0  0  0  0
    8.3880   -0.3240   21.3070 C   0  0  0  0  0  0  0  0  0  0  0  0
    5.7994   -8.2113   27.8412 C   0  0  0  0  0  0  0  0  0  0  0  0
    7.3033   -8.3725   27.6586 C   0  0  0  0  0  0  0  0  0  0  0  0
    6.9099   -6.5084   22.1851 C   0  0  0  0  0  0  0  0  0  0  0  0
    7.3073   -5.0672   21.9637 C   0  0  0  0  0  0  0  0  0  0  0  0
    5.4635   -7.0739   26.8891 C   0  0  0  0  0  0  0  0  0  0  0  0
    7.4931   -8.1377   26.1666 C   0  0  0  0  0  0  0  0  0  0  0  0
    7.3734   -6.7698   23.6060 C   0  0  1  0  0  0  0  0  0  0  0  0
    8.5928   -4.9754   22.7651 C   0  0  2  0  0  0  0  0  0  0  0  0
    8.9247   -3.5672   23.2183 C   0  0  0  0  0  0  0  0  0  0  0  0
    8.8810   -1.1900   22.4510 C   0  0  2  0  0  0  0  0  0  0  0  0
    6.7126    0.5221   17.3038 N   0  0  0  0  0  0  0  0  0  0  0  0
    6.4263   -7.2092   25.8059 N   0  0  0  0  0  0  0  0  0  0  0  0
    7.2820   -0.7860   20.6970 N   0  0  0  0  0  0  0  0  0  0  0  0
    8.6454   -2.6234   22.1122 N   0  3  0  0  0  0  0  0  0  0  0  0
    5.3692   -5.7521   24.3579 O   0  0  0  0  0  0  0  0  0  0  0  0
    8.9170    0.7530   21.0260 O   0  0  0  0  0  0  0  0  0  0  0  0
    8.4034   -5.8235   23.9092 O   0  0  0  0  0  0  0  0  0  0  0  0
   13.8840   -1.8490   21.2740 Cl  0  0  0  0  0  0  0  0  0  0  0  0
    1.5274    1.3292   19.8304 H   0  0  0  0  0  0  0  0  0  0  0  0
    2.5946    0.3266   21.8290 H   0  0  0  0  0  0  0  0  0  0  0  0
   12.2249    1.2198   24.6546 H   0  0  0  0  0  0  0  0  0  0  0  0
    2.8126    1.6137   17.7451 H   0  0  0  0  0  0  0  0  0  0  0  0
    4.9337   -0.3930   21.7626 H   0  0  0  0  0  0  0  0  0  0  0  0
    9.8763    0.5350   24.3454 H   0  0  0  0  0  0  0  0  0  0  0  0
   14.0077    0.1988   23.2842 H   0  0  0  0  0  0  0  0  0  0  0  0
   11.0892   -2.3009   21.3624 H   0  0  0  0  0  0  0  0  0  0  0  0
    5.0092    1.3323   16.4920 H   0  0  0  0  0  0  0  0  0  0  0  0
    8.3044   -0.3139   18.2966 H   0  0  0  0  0  0  0  0  0  0  0  0
    5.2811   -9.1280   27.5363 H   0  0  0  0  0  0  0  0  0  0  0  0
    5.5276   -7.9856   28.8760 H   0  0  0  0  0  0  0  0  0  0  0  0
    7.8378   -7.6075   28.2341 H   0  0  0  0  0  0  0  0  0  0  0  0
    7.6580   -9.3572   27.9755 H   0  0  0  0  0  0  0  0  0  0  0  0
    5.8446   -6.6890   22.0175 H   0  0  0  0  0  0  0  0  0  0  0  0
    7.4753   -7.1512   21.5004 H   0  0  0  0  0  0  0  0  0  0  0  0
    7.4444   -4.8136   20.9088 H   0  0  0  0  0  0  0  0  0  0  0  0
    6.5373   -4.4051   22.3776 H   0  0  0  0  0  0  0  0  0  0  0  0
    4.4386   -7.1190   26.5088 H   0  0  0  0  0  0  0  0  0  0  0  0
    5.6241   -6.0962   27.3568 H   0  0  0  0  0  0  0  0  0  0  0  0
    8.4759   -7.7230   25.9271 H   0  0  0  0  0  0  0  0  0  0  0  0
    7.3427   -9.0594   25.5941 H   0  0  0  0  0  0  0  0  0  0  0  0
    7.7495   -7.7864   23.7461 H   0  0  0  0  0  0  0  0  0  0  0  0
    9.4303   -5.3867   22.1887 H   0  0  0  0  0  0  0  0  0  0  0  0
    9.9827   -3.4655   23.4706 H   0  0  0  0  0  0  0  0  0  0  0  0
    8.3077   -3.2627   24.0667 H   0  0  0  0  0  0  0  0  0  0  0  0
    8.2445   -1.0188   23.3300 H   0  0  0  0  0  0  0  0  0  0  0  0
    6.8974   -1.6551   21.0612 H   0  0  0  0  0  0  0  0  0  0  0  0
    9.2244   -2.8704   21.2953 H   0  0  0  0  0  0  0  0  0  0  0  0
    7.6685   -2.7376   21.8018 H   0  0  0  0  0  0  0  0  0  0  0  0
  1  2  1  0  0  0  0
  1  4  2  0  0  0  0
  2  5  2  0  0  0  0
  3  6  2  0  0  0  0
  3  7  1  0  0  0  0
  4 11  1  0  0  0  0
  5 12  1  0  0  0  0
  6 13  1  0  0  0  0
  7 15  2  0  0  0  0
  8 13  2  0  0  0  0
  8 15  1  0  0  0  0
  9 11  2  0  0  0  0
  9 28  1  0  0  0  0
 10 14  1  0  0  0  0
 10 28  2  0  0  0  0
 11 12  1  0  0  0  0
 12 14  2  0  0  0  0
 13 27  1  0  0  0  0
 14 30  1  0  0  0  0
 15 35  1  0  0  0  0
 16 24  1  0  0  0  0
 16 29  1  0  0  0  0
 16 32  2  0  0  0  0
 17 27  1  6  0  0  0
 17 30  1  0  0  0  0
 17 33  2  0  0  0  0
 18 19  1  0  0  0  0
 18 22  1  0  0  0  0
 19 23  1  0  0  0  0
 20 21  1  0  0  0  0
 20 24  1  0  0  0  0
 21 25  1  0  0  0  0
 22 29  1  0  0  0  0
 23 29  1  0  0  0  0
 24 34  1  0  0  0  0
 25 26  1  0  0  0  0
 25 34  1  0  0  0  0
 26 31  1  0  0  0  0
 27 31  1  0  0  0  0
  1 36  1  0  0  0  0
  2 37  1  0  0  0  0
  3 38  1  0  0  0  0
  4 39  1  0  0  0  0
  5 40  1  0  0  0  0
  6 41  1  0  0  0  0
  7 42  1  0  0  0  0
  8 43  1  0  0  0  0
  9 44  1  0  0  0  0
 10 45  1  0  0  0  0
 18 46  1  0  0  0  0
 18 47  1  0  0  0  0
 19 48  1  0  0  0  0
 19 49  1  0  0  0  0
 20 50  1  0  0  0  0
 20 51  1  0  0  0  0
 21 52  1  0  0  0  0
 21 53  1  0  0  0  0
 22 54  1  0  0  0  0
 22 55  1  0  0  0  0
 23 56  1  0  0  0  0
 23 57  1  0  0  0  0
 24 58  1  0  0  0  0
 25 59  1  0  0  0  0
 26 60  1  0  0  0  0
 26 61  1  0  0  0  0
 27 62  1  0  0  0  0
 30 63  1  0  0  0  0
 31 64  1  0  0  0  0
 31 65  1  0  0  0  0
M  CHG  1  31   1
M  END
> <compound>
EDJ-MED-cf4b0d25-2

> <compound_smiles>
c1ccc2c(c1)cncc2NC(=O)C(c3cccc(c3)Cl)NC[C@@H]4CC[C@@H](O4)C(=O)N5CCCC5

> <enantiomer_smiles>
c1ccc2c(c1)cncc2NC(=O)[C@H](c3cccc(c3)Cl)NC[C@@H]4CC[C@@H](O4)C(=O)N5CCCC5

> <scaffold>
chlorobenzene-linker

> <canonical_CID>
EDJ-MED-cf4b0d25-2

> <r_inhibition_at_20_uM>

> <r_inhibition_at_50_uM>

> <r_avg_IC50>

> <f_inhibition_at_20_uM>

> <f_inhibition_at_50_uM>

> <f_avg_IC50>
2.76965459297664

> <f_avg_pIC50>

> <relative_solubility_at_20_uM>

> <relative_solubility_at_100_uM>

> <trypsin_IC50>

> <NMR_std_ratio>

> <acrylamide>
False

> <chloroacetamide>
False

> <series>
3-aminopyridine-like

> <frag_id>

> <clash_score>
3.0691351143564267

> <docking_score>
-1.4054136276245117

> <overlap_score>
0.8827256560325623

> <MMFF_internal_energy>
206.86563687347999

> <docked_smiles>
c1ccc2c(c1)cncc2NC(=O)[C@H](c3cccc(c3)Cl)[NH2+]C[C@@H]4CC[C@@H](O4)C(=O)N5CCCC5

$$$$
JIN-POS-6dc588a4-24_1
  -OEChem-07262101023D

 35 37  0     0  0  0  0  0  0999 V2000
    4.1908    1.4784   16.6810 C   0  0  0  0  0  0  0  0  0  0  0  0
    8.3189    0.4614   15.8451 C   0  0  0  0  0  0  0  0  0  0  0  0
    9.0850   -0.1064   16.8604 C   0  0  0  0  0  0  0  0  0  0  0  0
   11.9780    0.4600   23.9150 C   0  0  0  0  0  0  0  0  0  0  0  0
    6.9868    0.8003   16.0817 C   0  0  0  0  0  0  0  0  0  0  0  0
    8.5226   -0.3379   18.1169 C   0  0  0  0  0  0  0  0  0  0  0  0
   10.6560    0.0720   23.7350 C   0  0  0  0  0  0  0  0  0  0  0  0
   12.9840   -0.1200   23.1530 C   0  0  0  0  0  0  0  0  0  0  0  0
   11.3360   -1.5050   22.0650 C   0  0  0  0  0  0  0  0  0  0  0  0
    5.2620    0.1360   19.7951 C   0  0  0  0  0  0  0  0  0  0  0  0
    5.0830    0.8917   17.6337 C   0  0  0  0  0  0  0  0  0  0  0  0
    6.4106    0.5720   17.3422 C   0  0  0  0  0  0  0  0  0  0  0  0
    7.1829   -0.0027   18.3728 C   0  0  0  0  0  0  0  0  0  0  0  0
   10.3220   -0.8940   22.7910 C   0  0  0  0  0  0  0  0  0  0  0  0
    6.5902   -0.2221   19.6216 C   0  0  0  0  0  0  0  0  0  0  0  0
   12.6400   -1.1000   22.2390 C   0  0  0  0  0  0  0  0  0  0  0  0
    8.3880   -0.3240   21.3070 C   0  0  0  0  0  0  0  0  0  0  0  0
    8.8810   -1.1900   22.4510 C   0  0  0  0  0  0  0  0  0  0  0  0
    3.4674    1.9542   15.9083 N   0  0  0  0  0  0  0  0  0  0  0  0
    4.4924    0.6876   18.8328 N   0  0  0  0  0  0  0  0  0  0  0  0
    7.2820   -0.7860   20.6970 N   0  0  0  0  0  0  0  0  0  0  0  0
    8.9170    0.7530   21.0260 O   0  0  0  0  0  0  0  0  0  0  0  0
   13.8840   -1.8490   21.2740 Cl  0  0  0  0  0  0  0  0  0  0  0  0
    8.7592    0.6402   14.8684 H   0  0  0  0  0  0  0  0  0  0  0  0
   10.1223   -0.3697   16.6743 H   0  0  0  0  0  0  0  0  0  0  0  0
   12.2249    1.2198   24.6546 H   0  0  0  0  0  0  0  0  0  0  0  0
    6.4193    1.2414   15.2660 H   0  0  0  0  0  0  0  0  0  0  0  0
    9.1525   -0.7827   18.8839 H   0  0  0  0  0  0  0  0  0  0  0  0
    9.8763    0.5350   24.3454 H   0  0  0  0  0  0  0  0  0  0  0  0
   14.0077    0.1988   23.2842 H   0  0  0  0  0  0  0  0  0  0  0  0
   11.0892   -2.3008   21.3624 H   0  0  0  0  0  0  0  0  0  0  0  0
    4.7567   -0.0138   20.7449 H   0  0  0  0  0  0  0  0  0  0  0  0
    8.7774   -2.2383   22.1732 H   0  0  0  0  0  0  0  0  0  0  0  0
    8.2557   -1.0153   23.3257 H   0  0  0  0  0  0  0  0  0  0  0  0
    6.8981   -1.6619   21.0675 H   0  0  0  0  0  0  0  0  0  0  0  0
  1 11  1  0  0  0  0
  1 19  3  0  0  0  0
  2  3  1  0  0  0  0
  2  5  2  0  0  0  0
  3  6  2  0  0  0  0
  4  7  2  0  0  0  0
  4  8  1  0  0  0  0
  5 12  1  0  0  0  0
  6 13  1  0  0  0  0
  7 14  1  0  0  0  0
  8 16  2  0  0  0  0
  9 14  2  0  0  0  0
  9 16  1  0  0  0  0
 10 15  1  0  0  0  0
 10 20  2  0  0  0  0
 11 12  2  0  0  0  0
 11 20  1  0  0  0  0
 12 13  1  0  0  0  0
 13 15  2  0  0  0  0
 14 18  1  0  0  0  0
 15 21  1  0  0  0  0
 16 23  1  0  0  0  0
 17 18  1  0  0  0  0
 17 21  1  0  0  0  0
 17 22  2  0  0  0  0
  2 24  1  0  0  0  0
  3 25  1  0  0  0  0
  4 26  1  0  0  0  0
  5 27  1  0  0  0  0
  6 28  1  0  0  0  0
  7 29  1  0  0  0  0
  8 30  1  0  0  0  0
  9 31  1  0  0  0  0
 10 32  1  0  0  0  0
 18 33  1  0  0  0  0
 18 34  1  0  0  0  0
 21 35  1  0  0  0  0
M  END
> <compound>
JIN-POS-6dc588a4-24

> <compound_smiles>
c1ccc2c(c1)c(cnc2C#N)NC(=O)Cc3cccc(c3)Cl

> <enantiomer_smiles>
c1ccc2c(c1)c(cnc2C#N)NC(=O)Cc3cccc(c3)Cl

> <scaffold>
chlorobenzene-linker

> <canonical_CID>
JIN-POS-6dc588a4-24

> <r_inhibition_at_20_uM>

> <r_inhibition_at_50_uM>

> <r_avg_IC50>

> <f_inhibition_at_20_uM>

> <f_inhibition_at_50_uM>

> <f_avg_IC50>
65.9490931686178

> <f_avg_pIC50>

> <relative_solubility_at_20_uM>

> <relative_solubility_at_100_uM>

> <trypsin_IC50>

> <NMR_std_ratio>

> <acrylamide>
False

> <chloroacetamide>
False

> <series>
3-aminopyridine-like

> <frag_id>

> <clash_score>
5.32607222914033

> <docking_score>
0.601573646068573

> <overlap_score>
0.8335670828819275

> <MMFF_internal_energy>
125.83510829937985

> <docked_smiles>
c1ccc2c(c1)c(cnc2C#N)NC(=O)Cc3cccc(c3)Cl

$$$$
JIN-POS-6dc588a4-23_1
  -OEChem-07262101023D

 38 40  0     0  0  0  0  0  0999 V2000
    4.0787    2.0281   21.1996 C   0  0  0  0  0  0  0  0  0  0  0  0
    3.4459    2.5401   20.0693 C   0  0  0  0  0  0  0  0  0  0  0  0
   11.9780    0.4600   23.9150 C   0  0  0  0  0  0  0  0  0  0  0  0
    5.1228    1.1115   21.0637 C   0  0  0  0  0  0  0  0  0  0  0  0
    3.8541    2.1377   18.7979 C   0  0  0  0  0  0  0  0  0  0  0  0
   10.6560    0.0720   23.7350 C   0  0  0  0  0  0  0  0  0  0  0  0
   12.9840   -0.1200   23.1530 C   0  0  0  0  0  0  0  0  0  0  0  0
   11.3360   -1.5050   22.0650 C   0  0  0  0  0  0  0  0  0  0  0  0
    6.9503   -0.5831   18.3322 C   0  0  0  0  0  0  0  0  0  0  0  0
    5.5468    0.6953   19.7911 C   0  0  0  0  0  0  0  0  0  0  0  0
    4.9035    1.2158   18.6492 C   0  0  0  0  0  0  0  0  0  0  0  0
   10.3220   -0.8940   22.7910 C   0  0  0  0  0  0  0  0  0  0  0  0
    6.5902   -0.2221   19.6216 C   0  0  0  0  0  0  0  0  0  0  0  0
   12.6400   -1.1000   22.2390 C   0  0  0  0  0  0  0  0  0  0  0  0
    5.3524    0.7789   17.4013 C   0  0  0  0  0  0  0  0  0  0  0  0
    8.3880   -0.3240   21.3070 C   0  0  0  0  0  0  0  0  0  0  0  0
    5.3284    2.4251   15.6851 C   0  0  0  0  0  0  0  0  0  0  0  0
    8.8810   -1.1900   22.4510 C   0  0  0  0  0  0  0  0  0  0  0  0
    6.3581   -0.1059   17.2168 N   0  0  0  0  0  0  0  0  0  0  0  0
    7.2820   -0.7860   20.6970 N   0  0  0  0  0  0  0  0  0  0  0  0
    8.9170    0.7530   21.0260 O   0  0  0  0  0  0  0  0  0  0  0  0
    4.7661    1.2493   16.2538 O   0  0  0  0  0  0  0  0  0  0  0  0
   13.8840   -1.8490   21.2740 Cl  0  0  0  0  0  0  0  0  0  0  0  0
    3.7599    2.3423   22.1895 H   0  0  0  0  0  0  0  0  0  0  0  0
    2.6339    3.2530   20.1786 H   0  0  0  0  0  0  0  0  0  0  0  0
   12.2249    1.2198   24.6546 H   0  0  0  0  0  0  0  0  0  0  0  0
    5.5925    0.7342   21.9690 H   0  0  0  0  0  0  0  0  0  0  0  0
    3.3423    2.5533   17.9329 H   0  0  0  0  0  0  0  0  0  0  0  0
    9.8763    0.5350   24.3454 H   0  0  0  0  0  0  0  0  0  0  0  0
   14.0077    0.1988   23.2842 H   0  0  0  0  0  0  0  0  0  0  0  0
   11.0892   -2.3009   21.3624 H   0  0  0  0  0  0  0  0  0  0  0  0
    7.7531   -1.2912   18.1474 H   0  0  0  0  0  0  0  0  0  0  0  0
    4.7754    2.6942   14.7819 H   0  0  0  0  0  0  0  0  0  0  0  0
    6.3791    2.2469   15.4424 H   0  0  0  0  0  0  0  0  0  0  0  0
    5.2569    3.2397   16.4097 H   0  0  0  0  0  0  0  0  0  0  0  0
    8.7774   -2.2383   22.1732 H   0  0  0  0  0  0  0  0  0  0  0  0
    8.2557   -1.0153   23.3257 H   0  0  0  0  0  0  0  0  0  0  0  0
    6.8982   -1.6620   21.0675 H   0  0  0  0  0  0  0  0  0  0  0  0
  1  2  1  0  0  0  0
  1  4  2  0  0  0  0
  2  5  2  0  0  0  0
  3  6  2  0  0  0  0
  3  7  1  0  0  0  0
  4 10  1  0  0  0  0
  5 11  1  0  0  0  0
  6 12  1  0  0  0  0
  7 14  2  0  0  0  0
  8 12  2  0  0  0  0
  8 14  1  0  0  0  0
  9 13  2  0  0  0  0
  9 19  1  0  0  0  0
 10 11  2  0  0  0  0
 10 13  1  0  0  0  0
 11 15  1  0  0  0  0
 12 18  1  0  0  0  0
 13 20  1  0  0  0  0
 14 23  1  0  0  0  0
 15 19  2  0  0  0  0
 15 22  1  0  0  0  0
 16 18  1  0  0  0  0
 16 20  1  0  0  0  0
 16 21  2  0  0  0  0
 17 22  1  0  0  0  0
  1 24  1  0  0  0  0
  2 25  1  0  0  0  0
  3 26  1  0  0  0  0
  4 27  1  0  0  0  0
  5 28  1  0  0  0  0
  6 29  1  0  0  0  0
  7 30  1  0  0  0  0
  8 31  1  0  0  0  0
  9 32  1  0  0  0  0
 17 33  1  0  0  0  0
 17 34  1  0  0  0  0
 17 35  1  0  0  0  0
 18 36  1  0  0  0  0
 18 37  1  0  0  0  0
 20 38  1  0  0  0  0
M  END
> <compound>
JIN-POS-6dc588a4-23

> <compound_smiles>
COc1c2ccccc2c(cn1)NC(=O)Cc3cccc(c3)Cl

> <enantiomer_smiles>
COc1c2ccccc2c(cn1)NC(=O)Cc3cccc(c3)Cl

> <scaffold>
chlorobenzene-linker

> <canonical_CID>
JIN-POS-6dc588a4-23

> <r_inhibition_at_20_uM>

> <r_inhibition_at_50_uM>

> <r_avg_IC50>

> <f_inhibition_at_20_uM>

> <f_inhibition_at_50_uM>

> <f_avg_IC50>
99.5

> <f_avg_pIC50>

> <relative_solubility_at_20_uM>

> <relative_solubility_at_100_uM>

> <trypsin_IC50>

> <NMR_std_ratio>

> <acrylamide>
False

> <chloroacetamide>
False

> <series>
3-aminopyridine-like

> <frag_id>

> <clash_score>
0

> <docking_score>
-8.950237274169922

> <overlap_score>
1.0

> <MMFF_internal_energy>
100.12049112017822

> <docked_smiles>
COc1c2ccccc2c(cn1)NC(=O)Cc3cccc(c3)Cl

$$$$
JIN-POS-6dc588a4-20_1
  -OEChem-07262101023D

 38 40  0     0  0  0  0  0  0999 V2000
   11.9780    0.4600   23.9150 C   0  0  0  0  0  0  0  0  0  0  0  0
   10.6560    0.0720   23.7350 C   0  0  0  0  0  0  0  0  0  0  0  0
   12.9840   -0.1200   23.1530 C   0  0  0  0  0  0  0  0  0  0  0  0
   11.3360   -1.5050   22.0650 C   0  0  0  0  0  0  0  0  0  0  0  0
    5.2462    0.7827   17.4403 C   0  0  0  0  0  0  0  0  0  0  0  0
    6.4562   -0.9540   18.4495 C   0  0  0  0  0  0  0  0  0  0  0  0
    5.3360    1.5607   18.5932 C   0  0  0  0  0  0  0  0  0  0  0  0
   10.3220   -0.8940   22.7910 C   0  0  0  0  0  0  0  0  0  0  0  0
    6.0413    1.0616   19.7019 C   0  0  0  0  0  0  0  0  0  0  0  0
    6.5902   -0.2223   19.6217 C   0  0  0  0  0  0  0  0  0  0  0  0
   12.6400   -1.1000   22.2390 C   0  0  0  0  0  0  0  0  0  0  0  0
    8.3880   -0.3240   21.3070 C   0  0  0  0  0  0  0  0  0  0  0  0
    4.7244    2.9358   18.6306 C   0  0  0  0  0  0  0  0  0  0  0  0
    4.4880    3.3974   20.0682 C   0  0  0  0  0  0  0  0  0  0  0  0
    5.7392    3.1861   20.9137 C   0  0  0  0  0  0  0  0  0  0  0  0
    8.8810   -1.1900   22.4510 C   0  0  0  0  0  0  0  0  0  0  0  0
    5.8000   -0.4353   17.4052 N   0  3  0  0  0  0  0  0  0  0  0  0
    6.1566    1.7974   20.8745 N   0  0  0  0  0  0  0  0  0  0  0  0
    7.2820   -0.7860   20.6970 N   0  0  0  0  0  0  0  0  0  0  0  0
    8.9170    0.7530   21.0260 O   0  0  0  0  0  0  0  0  0  0  0  0
   13.8840   -1.8490   21.2740 Cl  0  0  0  0  0  0  0  0  0  0  0  0
   12.2249    1.2198   24.6546 H   0  0  0  0  0  0  0  0  0  0  0  0
    9.8763    0.5350   24.3454 H   0  0  0  0  0  0  0  0  0  0  0  0
   14.0077    0.1988   23.2842 H   0  0  0  0  0  0  0  0  0  0  0  0
   11.0892   -2.3009   21.3624 H   0  0  0  0  0  0  0  0  0  0  0  0
    4.7401    1.0935   16.5363 H   0  0  0  0  0  0  0  0  0  0  0  0
    6.8549   -1.9491   18.3020 H   0  0  0  0  0  0  0  0  0  0  0  0
    5.4027    3.6324   18.1232 H   0  0  0  0  0  0  0  0  0  0  0  0
    3.7702    2.9421   18.0916 H   0  0  0  0  0  0  0  0  0  0  0  0
    4.2029    4.4556   20.0745 H   0  0  0  0  0  0  0  0  0  0  0  0
    3.6513    2.8387   20.5078 H   0  0  0  0  0  0  0  0  0  0  0  0
    6.5546    3.8195   20.5449 H   0  0  0  0  0  0  0  0  0  0  0  0
    5.5442    3.4763   21.9514 H   0  0  0  0  0  0  0  0  0  0  0  0
    8.7774   -2.2383   22.1732 H   0  0  0  0  0  0  0  0  0  0  0  0
    8.2557   -1.0153   23.3257 H   0  0  0  0  0  0  0  0  0  0  0  0
    5.7170   -0.9883   16.5527 H   0  0  0  0  0  0  0  0  0  0  0  0
    6.7294    1.4333   21.6266 H   0  0  0  0  0  0  0  0  0  0  0  0
    6.8982   -1.6620   21.0675 H   0  0  0  0  0  0  0  0  0  0  0  0
  1  2  1  0  0  0  0
  1  3  2  0  0  0  0
  2  8  2  0  0  0  0
  3 11  1  0  0  0  0
  4  8  1  0  0  0  0
  4 11  2  0  0  0  0
  5  7  2  0  0  0  0
  5 17  1  0  0  0  0
  6 10  1  0  0  0  0
  6 17  2  0  0  0  0
  7  9  1  0  0  0  0
  7 13  1  0  0  0  0
  8 16  1  0  0  0  0
  9 10  2  0  0  0  0
  9 18  1  0  0  0  0
 10 19  1  0  0  0  0
 11 21  1  0  0  0  0
 12 16  1  0  0  0  0
 12 19  1  0  0  0  0
 12 20  2  0  0  0  0
 13 14  1  0  0  0  0
 14 15  1  0  0  0  0
 15 18  1  0  0  0  0
  1 22  1  0  0  0  0
  2 23  1  0  0  0  0
  3 24  1  0  0  0  0
  4 25  1  0  0  0  0
  5 26  1  0  0  0  0
  6 27  1  0  0  0  0
 13 28  1  0  0  0  0
 13 29  1  0  0  0  0
 14 30  1  0  0  0  0
 14 31  1  0  0  0  0
 15 32  1  0  0  0  0
 15 33  1  0  0  0  0
 16 34  1  0  0  0  0
 16 35  1  0  0  0  0
 17 36  1  0  0  0  0
 18 37  1  0  0  0  0
 19 38  1  0  0  0  0
M  CHG  1  17   1
M  END
> <compound>
JIN-POS-6dc588a4-20

> <compound_smiles>
c1cc(cc(c1)Cl)CC(=O)Nc2cncc3c2NCCC3

> <enantiomer_smiles>
c1cc(cc(c1)Cl)CC(=O)Nc2cncc3c2NCCC3

> <scaffold>
chlorobenzene-linker

> <canonical_CID>
JIN-POS-6dc588a4-20

> <r_inhibition_at_20_uM>

> <r_inhibition_at_50_uM>

> <r_avg_IC50>

> <f_inhibition_at_20_uM>

> <f_inhibition_at_50_uM>

> <f_avg_IC50>
37.9977889365768

> <f_avg_pIC50>

> <relative_solubility_at_20_uM>

> <relative_solubility_at_100_uM>

> <trypsin_IC50>

> <NMR_std_ratio>

> <acrylamide>
False

> <chloroacetamide>
False

> <series>
3-aminopyridine-like

> <frag_id>

> <clash_score>
0

> <docking_score>
-4.801062107086182

> <overlap_score>
0.8462526798248291

> <MMFF_internal_energy>
87.73867937248437

> <docked_smiles>
c1cc(cc(c1)Cl)CC(=O)Nc2c[nH+]cc3c2NCCC3

$$$$
JIN-POS-6dc588a4-9_1
  -OEChem-07262101023D

 32 34  0     0  0  0  0  0  0999 V2000
   11.9780    0.4600   23.9150 C   0  0  0  0  0  0  0  0  0  0  0  0
   10.6560    0.0720   23.7350 C   0  0  0  0  0  0  0  0  0  0  0  0
   12.9840   -0.1200   23.1530 C   0  0  0  0  0  0  0  0  0  0  0  0
   11.3360   -1.5050   22.0650 C   0  0  0  0  0  0  0  0  0  0  0  0
    7.0488    0.0211   18.3416 C   0  0  0  0  0  0  0  0  0  0  0  0
   10.3220   -0.8940   22.7910 C   0  0  0  0  0  0  0  0  0  0  0  0
    6.5902   -0.2453   19.6404 C   0  0  0  0  0  0  0  0  0  0  0  0
   12.6400   -1.1000   22.2390 C   0  0  0  0  0  0  0  0  0  0  0  0
    5.2779    0.1587   19.6285 C   0  0  0  0  0  0  0  0  0  0  0  0
    4.2264    0.1797   20.5874 C   0  0  0  0  0  0  0  0  0  0  0  0
    3.0179    0.6580   20.2376 C   0  0  0  0  0  0  0  0  0  0  0  0
    2.7598    1.1555   18.8982 C   0  0  0  0  0  0  0  0  0  0  0  0
    3.7488    1.1375   17.9909 C   0  0  0  0  0  0  0  0  0  0  0  0
    8.3880   -0.3240   21.3070 C   0  0  0  0  0  0  0  0  0  0  0  0
    8.8810   -1.1900   22.4510 C   0  0  0  0  0  0  0  0  0  0  0  0
    6.1136    0.5529   17.5533 N   0  0  0  0  0  0  0  0  0  0  0  0
    5.0095    0.6426   18.3435 N   0  0  0  0  0  0  0  0  0  0  0  0
    7.2820   -0.7860   20.6970 N   0  0  0  0  0  0  0  0  0  0  0  0
    8.9170    0.7530   21.0260 O   0  0  0  0  0  0  0  0  0  0  0  0
   13.8840   -1.8490   21.2740 Cl  0  0  0  0  0  0  0  0  0  0  0  0
   12.2249    1.2198   24.6546 H   0  0  0  0  0  0  0  0  0  0  0  0
    9.8763    0.5350   24.3454 H   0  0  0  0  0  0  0  0  0  0  0  0
   14.0077    0.1988   23.2842 H   0  0  0  0  0  0  0  0  0  0  0  0
   11.0892   -2.3009   21.3624 H   0  0  0  0  0  0  0  0  0  0  0  0
    8.0331   -0.1497   17.9287 H   0  0  0  0  0  0  0  0  0  0  0  0
    4.4043   -0.1886   21.5922 H   0  0  0  0  0  0  0  0  0  0  0  0
    2.2025    0.6833   20.9521 H   0  0  0  0  0  0  0  0  0  0  0  0
    1.7724    1.5307   18.6591 H   0  0  0  0  0  0  0  0  0  0  0  0
    3.6202    1.4936   16.9762 H   0  0  0  0  0  0  0  0  0  0  0  0
    8.7774   -2.2383   22.1732 H   0  0  0  0  0  0  0  0  0  0  0  0
    8.2557   -1.0153   23.3257 H   0  0  0  0  0  0  0  0  0  0  0  0
    6.8991   -1.6713   21.0760 H   0  0  0  0  0  0  0  0  0  0  0  0
  1  2  2  0  0  0  0
  1  3  1  0  0  0  0
  2  6  1  0  0  0  0
  3  8  2  0  0  0  0
  4  6  2  0  0  0  0
  4  8  1  0  0  0  0
  5  7  1  0  0  0  0
  5 16  2  0  0  0  0
  6 15  1  0  0  0  0
  7  9  2  0  0  0  0
  7 18  1  0  0  0  0
  8 20  1  0  0  0  0
  9 10  1  0  0  0  0
  9 17  1  0  0  0  0
 10 11  2  0  0  0  0
 11 12  1  0  0  0  0
 12 13  2  0  0  0  0
 13 17  1  0  0  0  0
 14 15  1  0  0  0  0
 14 18  1  0  0  0  0
 14 19  2  0  0  0  0
 16 17  1  0  0  0  0
  1 21  1  0  0  0  0
  2 22  1  0  0  0  0
  3 23  1  0  0  0  0
  4 24  1  0  0  0  0
  5 25  1  0  0  0  0
 10 26  1  0  0  0  0
 11 27  1  0  0  0  0
 12 28  1  0  0  0  0
 13 29  1  0  0  0  0
 15 30  1  0  0  0  0
 15 31  1  0  0  0  0
 18 32  1  0  0  0  0
M  END
> <compound>
JIN-POS-6dc588a4-9

> <compound_smiles>
c1ccn2c(c1)c(cn2)NC(=O)Cc3cccc(c3)Cl

> <enantiomer_smiles>
c1ccn2c(c1)c(cn2)NC(=O)Cc3cccc(c3)Cl

> <scaffold>
chlorobenzene-linker

> <canonical_CID>
JIN-POS-6dc588a4-9

> <r_inhibition_at_20_uM>

> <r_inhibition_at_50_uM>

> <r_avg_IC50>

> <f_inhibition_at_20_uM>

> <f_inhibition_at_50_uM>

> <f_avg_IC50>
11.3460157722443

> <f_avg_pIC50>

> <relative_solubility_at_20_uM>

> <relative_solubility_at_100_uM>

> <trypsin_IC50>

> <NMR_std_ratio>

> <acrylamide>
False

> <chloroacetamide>
False

> <series>
3-aminopyridine-like

> <frag_id>

> <clash_score>
0

> <docking_score>
-4.14218807220459

> <overlap_score>
0.8683494925498962

> <MMFF_internal_energy>
69.25631475815102

> <docked_smiles>
c1ccn2c(c1)c(cn2)NC(=O)Cc3cccc(c3)Cl

$$$$
RUB-POS-1325a9ea-1_1
  -OEChem-07262101023D

 33 35  0     0  0  0  0  0  0999 V2000
   11.9780    0.4600   23.9150 C   0  0  0  0  0  0  0  0  0  0  0  0
   10.6560    0.0720   23.7350 C   0  0  0  0  0  0  0  0  0  0  0  0
   12.9840   -0.1200   23.1530 C   0  0  0  0  0  0  0  0  0  0  0  0
   11.3360   -1.5050   22.0650 C   0  0  0  0  0  0  0  0  0  0  0  0
    5.2274    0.8051   17.4371 C   0  0  0  0  0  0  0  0  0  0  0  0
    6.4227   -0.9149   18.4301 C   0  0  0  0  0  0  0  0  0  0  0  0
    6.0325    1.0287   19.6821 C   0  0  0  0  0  0  0  0  0  0  0  0
   10.3220   -0.8940   22.7910 C   0  0  0  0  0  0  0  0  0  0  0  0
    5.3530    1.5405   18.5866 C   0  0  0  0  0  0  0  0  0  0  0  0
    6.5901   -0.2286   19.6268 C   0  0  0  0  0  0  0  0  0  0  0  0
   12.6400   -1.1000   22.2390 C   0  0  0  0  0  0  0  0  0  0  0  0
    5.2314    3.1968   20.1706 C   0  0  0  0  0  0  0  0  0  0  0  0
    8.3880   -0.3240   21.3070 C   0  0  0  0  0  0  0  0  0  0  0  0
    6.0178    2.0332   20.7894 C   0  0  0  0  0  0  0  0  0  0  0  0
    8.8810   -1.1900   22.4510 C   0  0  0  0  0  0  0  0  0  0  0  0
    5.7594   -0.4340   17.3388 N   0  0  0  0  0  0  0  0  0  0  0  0
    4.8809    2.8139   18.8704 N   0  0  0  0  0  0  0  0  0  0  0  0
    7.2820   -0.7860   20.6970 N   0  0  0  0  0  0  0  0  0  0  0  0
    4.9716    4.2511   20.7297 O   0  0  0  0  0  0  0  0  0  0  0  0
    8.9170    0.7530   21.0260 O   0  0  0  0  0  0  0  0  0  0  0  0
   13.8840   -1.8490   21.2740 Cl  0  0  0  0  0  0  0  0  0  0  0  0
   12.2249    1.2198   24.6546 H   0  0  0  0  0  0  0  0  0  0  0  0
    9.8763    0.5350   24.3454 H   0  0  0  0  0  0  0  0  0  0  0  0
   14.0077    0.1988   23.2842 H   0  0  0  0  0  0  0  0  0  0  0  0
   11.0892   -2.3009   21.3624 H   0  0  0  0  0  0  0  0  0  0  0  0
    4.7050    1.1702   16.5618 H   0  0  0  0  0  0  0  0  0  0  0  0
    6.8296   -1.9139   18.2973 H   0  0  0  0  0  0  0  0  0  0  0  0
    5.4843    1.6575   21.6662 H   0  0  0  0  0  0  0  0  0  0  0  0
    7.0271    2.3689   21.0414 H   0  0  0  0  0  0  0  0  0  0  0  0
    8.7774   -2.2383   22.1732 H   0  0  0  0  0  0  0  0  0  0  0  0
    8.2557   -1.0153   23.3257 H   0  0  0  0  0  0  0  0  0  0  0  0
    4.3554    3.3807   18.2154 H   0  0  0  0  0  0  0  0  0  0  0  0
    6.8984   -1.6645   21.0698 H   0  0  0  0  0  0  0  0  0  0  0  0
  1  2  1  0  0  0  0
  1  3  2  0  0  0  0
  2  8  2  0  0  0  0
  3 11  1  0  0  0  0
  4  8  1  0  0  0  0
  4 11  2  0  0  0  0
  5  9  2  0  0  0  0
  5 16  1  0  0  0  0
  6 10  1  0  0  0  0
  6 16  2  0  0  0  0
  7  9  1  0  0  0  0
  7 10  2  0  0  0  0
  7 14  1  0  0  0  0
  8 15  1  0  0  0  0
  9 17  1  0  0  0  0
 10 18  1  0  0  0  0
 11 21  1  0  0  0  0
 12 14  1  0  0  0  0
 12 17  1  0  0  0  0
 12 19  2  0  0  0  0
 13 15  1  0  0  0  0
 13 18  1  0  0  0  0
 13 20  2  0  0  0  0
  1 22  1  0  0  0  0
  2 23  1  0  0  0  0
  3 24  1  0  0  0  0
  4 25  1  0  0  0  0
  5 26  1  0  0  0  0
  6 27  1  0  0  0  0
 14 28  1  0  0  0  0
 14 29  1  0  0  0  0
 15 30  1  0  0  0  0
 15 31  1  0  0  0  0
 17 32  1  0  0  0  0
 18 33  1  0  0  0  0
M  END
> <compound>
RUB-POS-1325a9ea-1

> <compound_smiles>
c1cc(cc(c1)Cl)CC(=O)Nc2cncc3c2CC(=O)N3

> <enantiomer_smiles>
c1cc(cc(c1)Cl)CC(=O)Nc2cncc3c2CC(=O)N3

> <scaffold>
chlorobenzene-linker

> <clash_score>
0.6149360125372346

> <docking_score>
-6.215262413024902

> <overlap_score>
0.8388378024101257

> <MMFF_internal_energy>
73.6908640747382

> <docked_smiles>
c1cc(cc(c1)Cl)CC(=O)Nc2cncc3c2CC(=O)N3

$$$$
EDJ-MED-cf4b0d25-2_1
  -OEChem-07262101023D

 65 69  0     1  0  0  0  0  0999 V2000
    2.5657    1.0132   19.7900 C   0  0  0  0  0  0  0  0  0  0  0  0
    3.1660    0.4495   20.9134 C   0  0  0  0  0  0  0  0  0  0  0  0
   11.9780    0.4600   23.9150 C   0  0  0  0  0  0  0  0  0  0  0  0
    3.2968    1.1719   18.6130 C   0  0  0  0  0  0  0  0  0  0  0  0
    4.5003    0.0420   20.8649 C   0  0  0  0  0  0  0  0  0  0  0  0
   10.6560    0.0720   23.7350 C   0  0  0  0  0  0  0  0  0  0  0  0
   12.9840   -0.1200   23.1530 C   0  0  0  0  0  0  0  0  0  0  0  0
   11.3360   -1.5050   22.0650 C   0  0  0  0  0  0  0  0  0  0  0  0
    5.4182    0.9006   17.4014 C   0  0  0  0  0  0  0  0  0  0  0  0
    7.2646   -0.0206   18.4099 C   0  0  0  0  0  0  0  0  0  0  0  0
    4.6401    0.7653   18.5528 C   0  0  0  0  0  0  0  0  0  0  0  0
    5.2515    0.1942   19.6881 C   0  0  0  0  0  0  0  0  0  0  0  0
   10.3220   -0.8940   22.7910 C   0  0  0  0  0  0  0  0  0  0  0  0
    6.5908   -0.2044   19.6077 C   0  0  0  0  0  0  0  0  0  0  0  0
   12.6400   -1.1000   22.2390 C   0  0  0  0  0  0  0  0  0  0  0  0
    4.6111   -4.0294   26.1684 C   0  0  0  0  0  0  0  0  0  0  0  0
    8.3880   -0.3240   21.3070 C   0  0  0  0  0  0  0  0  0  0  0  0
    1.7587   -5.9103   27.5275 C   0  0  0  0  0  0  0  0  0  0  0  0
    1.2979   -4.4772   27.7618 C   0  0  0  0  0  0  0  0  0  0  0  0
    6.0591   -2.6731   27.6948 C   0  0  0  0  0  0  0  0  0  0  0  0
    7.3925   -2.7034   26.9841 C   0  0  0  0  0  0  0  0  0  0  0  0
    2.8413   -5.7488   26.4716 C   0  0  0  0  0  0  0  0  0  0  0  0
    2.5938   -3.6834   27.6741 C   0  0  0  0  0  0  0  0  0  0  0  0
    5.0672   -2.6571   26.5467 C   0  0  1  0  0  0  0  0  0  0  0  0
    7.1054   -1.8621   25.7541 C   0  0  2  0  0  0  0  0  0  0  0  0
    8.0209   -2.1668   24.5848 C   0  0  0  0  0  0  0  0  0  0  0  0
    8.8810   -1.1900   22.4510 C   0  0  1  0  0  0  0  0  0  0  0  0
    6.7126    0.5221   17.3038 N   0  0  0  0  0  0  0  0  0  0  0  0
    3.4231   -4.4425   26.7434 N   0  0  0  0  0  0  0  0  0  0  0  0
    7.2820   -0.7860   20.6970 N   0  0  0  0  0  0  0  0  0  0  0  0
    7.9727   -1.0406   23.6249 N   0  3  0  0  0  0  0  0  0  0  0  0
    5.2744   -4.7145   25.3883 O   0  0  0  0  0  0  0  0  0  0  0  0
    8.9170    0.7530   21.0260 O   0  0  0  0  0  0  0  0  0  0  0  0
    5.7439   -2.1458   25.3938 O   0  0  0  0  0  0  0  0  0  0  0  0
   13.8840   -1.8490   21.2740 Cl  0  0  0  0  0  0  0  0  0  0  0  0
    1.5274    1.3292   19.8304 H   0  0  0  0  0  0  0  0  0  0  0  0
    2.5946    0.3266   21.8291 H   0  0  0  0  0  0  0  0  0  0  0  0
   12.2249    1.2198   24.6546 H   0  0  0  0  0  0  0  0  0  0  0  0
    2.8126    1.6137   17.7451 H   0  0  0  0  0  0  0  0  0  0  0  0
    4.9337   -0.3930   21.7626 H   0  0  0  0  0  0  0  0  0  0  0  0
    9.8763    0.5350   24.3454 H   0  0  0  0  0  0  0  0  0  0  0  0
   14.0077    0.1988   23.2842 H   0  0  0  0  0  0  0  0  0  0  0  0
   11.0892   -2.3009   21.3624 H   0  0  0  0  0  0  0  0  0  0  0  0
    5.0091    1.3323   16.4920 H   0  0  0  0  0  0  0  0  0  0  0  0
    8.3044   -0.3139   18.2966 H   0  0  0  0  0  0  0  0  0  0  0  0
    2.1846   -6.3259   28.4483 H   0  0  0  0  0  0  0  0  0  0  0  0
    0.9443   -6.5605   27.1964 H   0  0  0  0  0  0  0  0  0  0  0  0
    0.6087   -4.1674   26.9674 H   0  0  0  0  0  0  0  0  0  0  0  0
    0.7961   -4.3536   28.7255 H   0  0  0  0  0  0  0  0  0  0  0  0
    5.9275   -3.5042   28.3931 H   0  0  0  0  0  0  0  0  0  0  0  0
    5.9684   -1.7376   28.2590 H   0  0  0  0  0  0  0  0  0  0  0  0
    8.2136   -2.3075   27.5883 H   0  0  0  0  0  0  0  0  0  0  0  0
    7.6385   -3.7354   26.7066 H   0  0  0  0  0  0  0  0  0  0  0  0
    3.6037   -6.5324   26.5130 H   0  0  0  0  0  0  0  0  0  0  0  0
    2.4180   -5.7207   25.4615 H   0  0  0  0  0  0  0  0  0  0  0  0
    2.4382   -2.6605   27.3209 H   0  0  0  0  0  0  0  0  0  0  0  0
    3.1122   -3.6557   28.6387 H   0  0  0  0  0  0  0  0  0  0  0  0
    4.1851   -2.0483   26.7605 H   0  0  0  0  0  0  0  0  0  0  0  0
    7.1622   -0.7952   26.0016 H   0  0  0  0  0  0  0  0  0  0  0  0
    7.7019   -3.0631   24.0479 H   0  0  0  0  0  0  0  0  0  0  0  0
    9.0597   -2.2739   24.9056 H   0  0  0  0  0  0  0  0  0  0  0  0
    8.7698   -2.2472   22.1731 H   0  0  0  0  0  0  0  0  0  0  0  0
    6.8974   -1.6551   21.0612 H   0  0  0  0  0  0  0  0  0  0  0  0
    7.0062   -0.9190   23.2862 H   0  0  0  0  0  0  0  0  0  0  0  0
    8.2055   -0.1627   24.1136 H   0  0  0  0  0  0  0  0  0  0  0  0
  1  2  1  0  0  0  0
  1  4  2  0  0  0  0
  2  5  2  0  0  0  0
  3  6  2  0  0  0  0
  3  7  1  0  0  0  0
  4 11  1  0  0  0  0
  5 12  1  0  0  0  0
  6 13  1  0  0  0  0
  7 15  2  0  0  0  0
  8 13  2  0  0  0  0
  8 15  1  0  0  0  0
  9 11  2  0  0  0  0
  9 28  1  0  0  0  0
 10 14  1  0  0  0  0
 10 28  2  0  0  0  0
 11 12  1  0  0  0  0
 12 14  2  0  0  0  0
 13 27  1  0  0  0  0
 14 30  1  0  0  0  0
 15 35  1  0  0  0  0
 16 24  1  0  0  0  0
 16 29  1  0  0  0  0
 16 32  2  0  0  0  0
 17 27  1  1  0  0  0
 17 30  1  0  0  0  0
 17 33  2  0  0  0  0
 18 19  1  0  0  0  0
 18 22  1  0  0  0  0
 19 23  1  0  0  0  0
 20 21  1  0  0  0  0
 20 24  1  0  0  0  0
 21 25  1  0  0  0  0
 22 29  1  0  0  0  0
 23 29  1  0  0  0  0
 24 34  1  0  0  0  0
 25 26  1  0  0  0  0
 25 34  1  0  0  0  0
 26 31  1  0  0  0  0
 27 31  1  0  0  0  0
  1 36  1  0  0  0  0
  2 37  1  0  0  0  0
  3 38  1  0  0  0  0
  4 39  1  0  0  0  0
  5 40  1  0  0  0  0
  6 41  1  0  0  0  0
  7 42  1  0  0  0  0
  8 43  1  0  0  0  0
  9 44  1  0  0  0  0
 10 45  1  0  0  0  0
 18 46  1  0  0  0  0
 18 47  1  0  0  0  0
 19 48  1  0  0  0  0
 19 49  1  0  0  0  0
 20 50  1  0  0  0  0
 20 51  1  0  0  0  0
 21 52  1  0  0  0  0
 21 53  1  0  0  0  0
 22 54  1  0  0  0  0
 22 55  1  0  0  0  0
 23 56  1  0  0  0  0
 23 57  1  0  0  0  0
 24 58  1  0  0  0  0
 25 59  1  0  0  0  0
 26 60  1  0  0  0  0
 26 61  1  0  0  0  0
 27 62  1  0  0  0  0
 30 63  1  0  0  0  0
 31 64  1  0  0  0  0
 31 65  1  0  0  0  0
M  CHG  1  31   1
M  END
> <compound>
EDJ-MED-cf4b0d25-2

> <compound_smiles>
c1ccc2c(c1)cncc2NC(=O)C(c3cccc(c3)Cl)NC[C@@H]4CC[C@@H](O4)C(=O)N5CCCC5

> <enantiomer_smiles>
c1ccc2c(c1)cncc2NC(=O)[C@@H](c3cccc(c3)Cl)NC[C@@H]4CC[C@@H](O4)C(=O)N5CCCC5

> <scaffold>
chlorobenzene-linker

> <canonical_CID>
EDJ-MED-cf4b0d25-2

> <r_inhibition_at_20_uM>

> <r_inhibition_at_50_uM>

> <r_avg_IC50>

> <f_inhibition_at_20_uM>

> <f_inhibition_at_50_uM>

> <f_avg_IC50>
2.76965459297664

> <f_avg_pIC50>

> <relative_solubility_at_20_uM>

> <relative_solubility_at_100_uM>

> <trypsin_IC50>

> <NMR_std_ratio>

> <acrylamide>
False

> <chloroacetamide>
False

> <series>
3-aminopyridine-like

> <frag_id>

> <clash_score>
0

> <docking_score>
-4.0279998779296875

> <overlap_score>
0.8821255564689636

> <MMFF_internal_energy>
186.30441594544473

> <docked_smiles>
c1ccc2c(c1)cncc2NC(=O)[C@@H](c3cccc(c3)Cl)[NH2+]C[C@@H]4CC[C@@H](O4)C(=O)N5CCCC5

$$$$
RUB-POS-1325a9ea-3_1
  -OEChem-07262101023D

 37 39  0     0  0  0  0  0  0999 V2000
    2.5654    1.0080   19.6910 C   0  0  0  0  0  0  0  0  0  0  0  0
   11.9780    0.4600   23.9150 C   0  0  0  0  0  0  0  0  0  0  0  0
    3.3245    1.1473   18.5293 C   0  0  0  0  0  0  0  0  0  0  0  0
    3.1376    0.4597   20.8365 C   0  0  0  0  0  0  0  0  0  0  0  0
   10.6560    0.0720   23.7350 C   0  0  0  0  0  0  0  0  0  0  0  0
   12.9840   -0.1200   23.1530 C   0  0  0  0  0  0  0  0  0  0  0  0
   11.3360   -1.5050   22.0650 C   0  0  0  0  0  0  0  0  0  0  0  0
    5.4730    0.8526   17.3722 C   0  0  0  0  0  0  0  0  0  0  0  0
    7.2925   -0.0581   18.4375 C   0  0  0  0  0  0  0  0  0  0  0  0
    4.6676    0.7364   18.5069 C   0  0  0  0  0  0  0  0  0  0  0  0
    5.2506    0.1809   19.6646 C   0  0  0  0  0  0  0  0  0  0  0  0
   10.3220   -0.8940   22.7910 C   0  0  0  0  0  0  0  0  0  0  0  0
    4.4715    0.0482   20.8256 C   0  0  0  0  0  0  0  0  0  0  0  0
    6.5902   -0.2223   19.6217 C   0  0  0  0  0  0  0  0  0  0  0  0
   12.6400   -1.1000   22.2390 C   0  0  0  0  0  0  0  0  0  0  0  0
    8.3880   -0.3240   21.3070 C   0  0  0  0  0  0  0  0  0  0  0  0
    4.9737   -0.5250   22.1151 C   0  0  0  0  0  0  0  0  0  0  0  0
    8.8810   -1.1900   22.4510 C   0  0  0  0  0  0  0  0  0  0  0  0
    6.7683    0.4694   17.3108 N   0  0  0  0  0  0  0  0  0  0  0  0
    7.2820   -0.7860   20.6970 N   0  0  0  0  0  0  0  0  0  0  0  0
    8.9170    0.7530   21.0260 O   0  0  0  0  0  0  0  0  0  0  0  0
   13.8840   -1.8490   21.2740 Cl  0  0  0  0  0  0  0  0  0  0  0  0
    1.5274    1.3275   19.7020 H   0  0  0  0  0  0  0  0  0  0  0  0
   12.2249    1.2198   24.6546 H   0  0  0  0  0  0  0  0  0  0  0  0
    2.8624    1.5778   17.6440 H   0  0  0  0  0  0  0  0  0  0  0  0
    2.5322    0.3570   21.7338 H   0  0  0  0  0  0  0  0  0  0  0  0
    9.8763    0.5350   24.3454 H   0  0  0  0  0  0  0  0  0  0  0  0
   14.0077    0.1988   23.2842 H   0  0  0  0  0  0  0  0  0  0  0  0
   11.0892   -2.3009   21.3624 H   0  0  0  0  0  0  0  0  0  0  0  0
    5.0860    1.2716   16.4473 H   0  0  0  0  0  0  0  0  0  0  0  0
    8.3340   -0.3550   18.3510 H   0  0  0  0  0  0  0  0  0  0  0  0
    4.8077   -1.6068   22.1351 H   0  0  0  0  0  0  0  0  0  0  0  0
    6.0442   -0.3296   22.2403 H   0  0  0  0  0  0  0  0  0  0  0  0
    4.4607   -0.0729   22.9711 H   0  0  0  0  0  0  0  0  0  0  0  0
    8.7774   -2.2383   22.1732 H   0  0  0  0  0  0  0  0  0  0  0  0
    8.2557   -1.0153   23.3257 H   0  0  0  0  0  0  0  0  0  0  0  0
    6.8982   -1.6620   21.0675 H   0  0  0  0  0  0  0  0  0  0  0  0
  1  3  1  0  0  0  0
  1  4  2  0  0  0  0
  2  5  2  0  0  0  0
  2  6  1  0  0  0  0
  3 10  2  0  0  0  0
  4 13  1  0  0  0  0
  5 12  1  0  0  0  0
  6 15  2  0  0  0  0
  7 12  2  0  0  0  0
  7 15  1  0  0  0  0
  8 10  1  0  0  0  0
  8 19  2  0  0  0  0
  9 14  2  0  0  0  0
  9 19  1  0  0  0  0
 10 11  1  0  0  0  0
 11 13  2  0  0  0  0
 11 14  1  0  0  0  0
 12 18  1  0  0  0  0
 13 17  1  0  0  0  0
 14 20  1  0  0  0  0
 15 22  1  0  0  0  0
 16 18  1  0  0  0  0
 16 20  1  0  0  0  0
 16 21  2  0  0  0  0
  1 23  1  0  0  0  0
  2 24  1  0  0  0  0
  3 25  1  0  0  0  0
  4 26  1  0  0  0  0
  5 27  1  0  0  0  0
  6 28  1  0  0  0  0
  7 29  1  0  0  0  0
  8 30  1  0  0  0  0
  9 31  1  0  0  0  0
 17 32  1  0  0  0  0
 17 33  1  0  0  0  0
 17 34  1  0  0  0  0
 18 35  1  0  0  0  0
 18 36  1  0  0  0  0
 20 37  1  0  0  0  0
M  END
> <compound>
RUB-POS-1325a9ea-3

> <compound_smiles>
Cc1cccc2c1c(cnc2)NC(=O)Cc3cccc(c3)Cl

> <enantiomer_smiles>
Cc1cccc2c1c(cnc2)NC(=O)Cc3cccc(c3)Cl

> <scaffold>
chlorobenzene-linker

> <clash_score>
0

> <docking_score>
-6.125471115112305

> <overlap_score>
0.9037189483642578

> <MMFF_internal_energy>
110.35725888527342

> <docked_smiles>
Cc1cccc2c1c(cnc2)NC(=O)Cc3cccc(c3)Cl

$$$$
JIN-POS-6dc588a4-17_1
  -OEChem-07262101023D

 31 33  0     0  0  0  0  0  0999 V2000
   11.9780    0.4600   23.9150 C   0  0  0  0  0  0  0  0  0  0  0  0
   10.6560    0.0720   23.7350 C   0  0  0  0  0  0  0  0  0  0  0  0
   12.9840   -0.1200   23.1530 C   0  0  0  0  0  0  0  0  0  0  0  0
   11.3360   -1.5050   22.0650 C   0  0  0  0  0  0  0  0  0  0  0  0
    5.8696    2.5552   16.2492 C   0  0  0  0  0  0  0  0  0  0  0  0
    4.7788    1.9018   16.7764 C   0  0  0  0  0  0  0  0  0  0  0  0
   10.3220   -0.8940   22.7910 C   0  0  0  0  0  0  0  0  0  0  0  0
   12.6400   -1.1000   22.2390 C   0  0  0  0  0  0  0  0  0  0  0  0
    6.6395    1.3924   17.8654 C   0  0  0  0  0  0  0  0  0  0  0  0
    7.3335    0.7021   18.8852 C   0  0  0  0  0  0  0  0  0  0  0  0
    4.6201    0.3143   18.6804 C   0  0  0  0  0  0  0  0  0  0  0  0
    6.6310   -0.1088   19.7029 C   0  0  0  0  0  0  0  0  0  0  0  0
    8.3880   -0.3240   21.3070 C   0  0  0  0  0  0  0  0  0  0  0  0
    8.8810   -1.1900   22.4510 C   0  0  0  0  0  0  0  0  0  0  0  0
    7.0210    2.2350   16.9286 N   0  0  0  0  0  0  0  0  0  0  0  0
    5.2648   -0.3164   19.6148 N   0  0  0  0  0  0  0  0  0  0  0  0
    5.2851    1.1628   17.8076 N   0  0  0  0  0  0  0  0  0  0  0  0
    7.2820   -0.7860   20.6970 N   0  0  0  0  0  0  0  0  0  0  0  0
    8.9170    0.7530   21.0260 O   0  0  0  0  0  0  0  0  0  0  0  0
   13.8840   -1.8490   21.2740 Cl  0  0  0  0  0  0  0  0  0  0  0  0
   12.2249    1.2198   24.6546 H   0  0  0  0  0  0  0  0  0  0  0  0
    9.8763    0.5350   24.3454 H   0  0  0  0  0  0  0  0  0  0  0  0
   14.0077    0.1988   23.2842 H   0  0  0  0  0  0  0  0  0  0  0  0
   11.0892   -2.3009   21.3624 H   0  0  0  0  0  0  0  0  0  0  0  0
    5.8856    3.2390   15.4130 H   0  0  0  0  0  0  0  0  0  0  0  0
    3.7299    1.9005   16.5150 H   0  0  0  0  0  0  0  0  0  0  0  0
    8.4050    0.8391   18.9853 H   0  0  0  0  0  0  0  0  0  0  0  0
    3.5320    0.1854   18.5642 H   0  0  0  0  0  0  0  0  0  0  0  0
    8.2535   -1.0146   23.3240 H   0  0  0  0  0  0  0  0  0  0  0  0
    8.7756   -2.2377   22.1724 H   0  0  0  0  0  0  0  0  0  0  0  0
    6.8962   -1.6792   20.9752 H   0  0  0  0  0  0  0  0  0  0  0  0
  1  2  1  0  0  0  0
  1  3  2  0  0  0  0
  2  7  2  0  0  0  0
  3  8  1  0  0  0  0
  4  7  1  0  0  0  0
  4  8  2  0  0  0  0
  5  6  2  0  0  0  0
  5 15  1  0  0  0  0
  6 17  1  0  0  0  0
  7 14  1  0  0  0  0
  8 20  1  0  0  0  0
  9 10  1  0  0  0  0
  9 15  2  0  0  0  0
  9 17  1  0  0  0  0
 10 12  2  0  0  0  0
 11 16  2  0  0  0  0
 11 17  1  0  0  0  0
 12 16  1  0  0  0  0
 12 18  1  0  0  0  0
 13 14  1  0  0  0  0
 13 18  1  0  0  0  0
 13 19  2  0  0  0  0
  1 21  1  0  0  0  0
  2 22  1  0  0  0  0
  3 23  1  0  0  0  0
  4 24  1  0  0  0  0
  5 25  1  0  0  0  0
  6 26  1  0  0  0  0
 10 27  1  0  0  0  0
 11 28  1  0  0  0  0
 14 29  1  0  0  0  0
 14 30  1  0  0  0  0
 18 31  1  0  0  0  0
M  END
> <compound>
JIN-POS-6dc588a4-17

> <compound_smiles>
c1cc(cc(c1)Cl)CC(=O)Nc2cc3nccn3cn2

> <enantiomer_smiles>
c1cc(cc(c1)Cl)CC(=O)Nc2cc3nccn3cn2

> <scaffold>
chlorobenzene-linker

> <clash_score>
0

> <docking_score>
-0.47650086879730225

> <overlap_score>
0.8002288341522217

> <MMFF_internal_energy>
27.290646261799118

> <docked_smiles>
c1cc(cc(c1)Cl)CC(=O)Nc2cc3nccn3cn2

$$$$
JIN-POS-6dc588a4-21_1
  -OEChem-07262101023D

 35 37  0     0  0  0  0  0  0999 V2000
    5.5843    3.1122   20.9288 C   0  0  0  0  0  0  0  0  0  0  0  0
    4.9118    3.6158   19.8222 C   0  0  0  0  0  0  0  0  0  0  0  0
   11.9780    0.4600   23.9150 C   0  0  0  0  0  0  0  0  0  0  0  0
    6.1455    1.8397   20.8713 C   0  0  0  0  0  0  0  0  0  0  0  0
   10.6560    0.0720   23.7350 C   0  0  0  0  0  0  0  0  0  0  0  0
    4.8021    2.8463   18.6613 C   0  0  0  0  0  0  0  0  0  0  0  0
   12.9840   -0.1200   23.1530 C   0  0  0  0  0  0  0  0  0  0  0  0
   11.3360   -1.5050   22.0650 C   0  0  0  0  0  0  0  0  0  0  0  0
    5.7802   -0.3788   17.4006 C   0  0  0  0  0  0  0  0  0  0  0  0
    6.0350    1.0660   19.7034 C   0  0  0  0  0  0  0  0  0  0  0  0
   10.3220   -0.8940   22.7910 C   0  0  0  0  0  0  0  0  0  0  0  0
    5.3538    1.5710   18.5761 C   0  0  0  0  0  0  0  0  0  0  0  0
    6.5903   -0.2179   19.6183 C   0  0  0  0  0  0  0  0  0  0  0  0
    6.4641   -0.9568   18.4508 C   0  0  0  0  0  0  0  0  0  0  0  0
   12.6400   -1.1000   22.2390 C   0  0  0  0  0  0  0  0  0  0  0  0
    8.3880   -0.3240   21.3070 C   0  0  0  0  0  0  0  0  0  0  0  0
    8.8810   -1.1900   22.4510 C   0  0  0  0  0  0  0  0  0  0  0  0
    5.2297    0.8562   17.4418 N   0  0  0  0  0  0  0  0  0  0  0  0
    7.2820   -0.7860   20.6970 N   0  0  0  0  0  0  0  0  0  0  0  0
    8.9170    0.7530   21.0260 O   0  0  0  0  0  0  0  0  0  0  0  0
    6.9845   -2.2038   18.3220 O   0  0  0  0  0  0  0  0  0  0  0  0
   13.8840   -1.8490   21.2740 Cl  0  0  0  0  0  0  0  0  0  0  0  0
    5.6716    3.7073   21.8327 H   0  0  0  0  0  0  0  0  0  0  0  0
    4.4709    4.6077   19.8582 H   0  0  0  0  0  0  0  0  0  0  0  0
   12.2249    1.2198   24.6546 H   0  0  0  0  0  0  0  0  0  0  0  0
    6.6658    1.4718   21.7523 H   0  0  0  0  0  0  0  0  0  0  0  0
    9.8763    0.5350   24.3454 H   0  0  0  0  0  0  0  0  0  0  0  0
    4.2703    3.2638   17.8082 H   0  0  0  0  0  0  0  0  0  0  0  0
   14.0077    0.1988   23.2842 H   0  0  0  0  0  0  0  0  0  0  0  0
   11.0892   -2.3009   21.3624 H   0  0  0  0  0  0  0  0  0  0  0  0
    5.6462   -0.9047   16.4603 H   0  0  0  0  0  0  0  0  0  0  0  0
    8.7774   -2.2383   22.1732 H   0  0  0  0  0  0  0  0  0  0  0  0
    8.2557   -1.0153   23.3257 H   0  0  0  0  0  0  0  0  0  0  0  0
    6.8980   -1.6603   21.0660 H   0  0  0  0  0  0  0  0  0  0  0  0
    6.7958   -2.5614   17.4383 H   0  0  0  0  0  0  0  0  0  0  0  0
  1  2  1  0  0  0  0
  1  4  2  0  0  0  0
  2  6  2  0  0  0  0
  3  5  2  0  0  0  0
  3  7  1  0  0  0  0
  4 10  1  0  0  0  0
  5 11  1  0  0  0  0
  6 12  1  0  0  0  0
  7 15  2  0  0  0  0
  8 11  2  0  0  0  0
  8 15  1  0  0  0  0
  9 14  2  0  0  0  0
  9 18  1  0  0  0  0
 10 12  1  0  0  0  0
 10 13  2  0  0  0  0
 11 17  1  0  0  0  0
 12 18  2  0  0  0  0
 13 14  1  0  0  0  0
 13 19  1  0  0  0  0
 14 21  1  0  0  0  0
 15 22  1  0  0  0  0
 16 17  1  0  0  0  0
 16 19  1  0  0  0  0
 16 20  2  0  0  0  0
  1 23  1  0  0  0  0
  2 24  1  0  0  0  0
  3 25  1  0  0  0  0
  4 26  1  0  0  0  0
  5 27  1  0  0  0  0
  6 28  1  0  0  0  0
  7 29  1  0  0  0  0
  8 30  1  0  0  0  0
  9 31  1  0  0  0  0
 17 32  1  0  0  0  0
 17 33  1  0  0  0  0
 19 34  1  0  0  0  0
 21 35  1  0  0  0  0
M  END
> <compound>
JIN-POS-6dc588a4-21

> <compound_smiles>
c1ccc2c(c1)c(c(cn2)O)NC(=O)Cc3cccc(c3)Cl

> <enantiomer_smiles>
c1ccc2c(c1)c(c(cn2)O)NC(=O)Cc3cccc(c3)Cl

> <scaffold>
chlorobenzene-linker

> <canonical_CID>
JIN-POS-6dc588a4-21

> <r_inhibition_at_20_uM>

> <r_inhibition_at_50_uM>

> <r_avg_IC50>

> <f_inhibition_at_20_uM>

> <f_inhibition_at_50_uM>

> <f_avg_IC50>
8.4380376434761

> <f_avg_pIC50>

> <relative_solubility_at_20_uM>

> <relative_solubility_at_100_uM>

> <trypsin_IC50>

> <NMR_std_ratio>

> <acrylamide>
False

> <chloroacetamide>
False

> <series>
3-aminopyridine-like

> <frag_id>

> <clash_score>
0.6351624286945512

> <docking_score>
-3.159813165664673

> <overlap_score>
0.8472410440444946

> <MMFF_internal_energy>
94.26283379475574

> <docked_smiles>
c1ccc2c(c1)c(c(cn2)O)NC(=O)Cc3cccc(c3)Cl

$$$$
RUB-POS-1325a9ea-6_1
  -OEChem-07262101023D

 39 41  0     1  0  0  0  0  0999 V2000
    3.8501    2.9206   21.1697 C   0  0  0  0  0  0  0  0  0  0  0  0
    5.0719    2.7141   21.8021 C   0  0  0  0  0  0  0  0  0  0  0  0
   11.9780    0.4600   23.9150 C   0  0  0  0  0  0  0  0  0  0  0  0
    3.5168    2.1728   20.0425 C   0  0  0  0  0  0  0  0  0  0  0  0
    5.9572    1.7511   21.3153 C   0  0  0  0  0  0  0  0  0  0  0  0
   10.6560    0.0720   23.7350 C   0  0  0  0  0  0  0  0  0  0  0  0
   12.9840   -0.1200   23.1530 C   0  0  0  0  0  0  0  0  0  0  0  0
   11.3360   -1.5050   22.0650 C   0  0  0  0  0  0  0  0  0  0  0  0
    4.4038    1.2101   19.5385 C   0  0  0  0  0  0  0  0  0  0  0  0
    5.6282    0.9698   20.1946 C   0  0  0  0  0  0  0  0  0  0  0  0
   10.3220   -0.8940   22.7910 C   0  0  0  0  0  0  0  0  0  0  0  0
   12.6400   -1.1000   22.2390 C   0  0  0  0  0  0  0  0  0  0  0  0
    8.3880   -0.3240   21.3070 C   0  0  0  0  0  0  0  0  0  0  0  0
    4.0095    0.4216   18.3213 C   0  0  0  0  0  0  0  0  0  0  0  0
    5.9684   -1.0543   18.6853 C   0  0  0  0  0  0  0  0  0  0  0  0
    6.6093   -0.0528   19.6474 C   0  0  2  0  0  0  0  0  0  0  0  0
    8.8810   -1.1900   22.4510 C   0  0  0  0  0  0  0  0  0  0  0  0
    7.2820   -0.7860   20.6970 N   0  0  0  0  0  0  0  0  0  0  0  0
    5.1514   -0.3065   17.6871 N   0  3  0  0  0  0  0  0  0  0  0  0
    8.9170    0.7530   21.0260 O   0  0  0  0  0  0  0  0  0  0  0  0
   13.8840   -1.8490   21.2740 Cl  0  0  0  0  0  0  0  0  0  0  0  0
    3.1600    3.6678   21.5502 H   0  0  0  0  0  0  0  0  0  0  0  0
    5.3385    3.3044   22.6739 H   0  0  0  0  0  0  0  0  0  0  0  0
   12.2249    1.2198   24.6546 H   0  0  0  0  0  0  0  0  0  0  0  0
    2.5621    2.3475   19.5525 H   0  0  0  0  0  0  0  0  0  0  0  0
    6.9105    1.6209   21.8215 H   0  0  0  0  0  0  0  0  0  0  0  0
    9.8763    0.5350   24.3454 H   0  0  0  0  0  0  0  0  0  0  0  0
   14.0077    0.1988   23.2842 H   0  0  0  0  0  0  0  0  0  0  0  0
   11.0892   -2.3009   21.3624 H   0  0  0  0  0  0  0  0  0  0  0  0
    3.2637   -0.3351   18.5884 H   0  0  0  0  0  0  0  0  0  0  0  0
    3.6023    1.0746   17.5426 H   0  0  0  0  0  0  0  0  0  0  0  0
    6.7215   -1.6172   18.1243 H   0  0  0  0  0  0  0  0  0  0  0  0
    5.2930   -1.7567   19.1879 H   0  0  0  0  0  0  0  0  0  0  0  0
    7.3910    0.4999   19.1103 H   0  0  0  0  0  0  0  0  0  0  0  0
    8.7773   -2.2383   22.1737 H   0  0  0  0  0  0  0  0  0  0  0  0
    8.2516   -1.0144   23.3225 H   0  0  0  0  0  0  0  0  0  0  0  0
    6.9051   -1.6834   20.9842 H   0  0  0  0  0  0  0  0  0  0  0  0
    4.7903   -0.9560   16.9750 H   0  0  0  0  0  0  0  0  0  0  0  0
    5.7510    0.3599   17.1803 H   0  0  0  0  0  0  0  0  0  0  0  0
  1  2  1  0  0  0  0
  1  4  2  0  0  0  0
  2  5  2  0  0  0  0
  3  6  2  0  0  0  0
  3  7  1  0  0  0  0
  4  9  1  0  0  0  0
  5 10  1  0  0  0  0
  6 11  1  0  0  0  0
  7 12  2  0  0  0  0
  8 11  2  0  0  0  0
  8 12  1  0  0  0  0
  9 10  2  0  0  0  0
  9 14  1  0  0  0  0
 10 16  1  0  0  0  0
 11 17  1  0  0  0  0
 12 21  1  0  0  0  0
 13 17  1  0  0  0  0
 13 18  1  0  0  0  0
 13 20  2  0  0  0  0
 14 19  1  0  0  0  0
 15 16  1  0  0  0  0
 15 19  1  0  0  0  0
 16 18  1  1  0  0  0
  1 22  1  0  0  0  0
  2 23  1  0  0  0  0
  3 24  1  0  0  0  0
  4 25  1  0  0  0  0
  5 26  1  0  0  0  0
  6 27  1  0  0  0  0
  7 28  1  0  0  0  0
  8 29  1  0  0  0  0
 14 30  1  0  0  0  0
 14 31  1  0  0  0  0
 15 32  1  0  0  0  0
 15 33  1  0  0  0  0
 16 34  1  0  0  0  0
 17 35  1  0  0  0  0
 17 36  1  0  0  0  0
 18 37  1  0  0  0  0
 19 38  1  0  0  0  0
 19 39  1  0  0  0  0
M  CHG  1  19   1
M  END
> <compound>
RUB-POS-1325a9ea-6

> <compound_smiles>
c1ccc2c(c1)CNCC2NC(=O)Cc3cccc(c3)Cl

> <enantiomer_smiles>
c1ccc2c(c1)CNC[C@@H]2NC(=O)Cc3cccc(c3)Cl

> <scaffold>
chlorobenzene-linker

> <clash_score>
0

> <docking_score>
-7.340421676635742

> <overlap_score>
0.878706157207489

> <MMFF_internal_energy>
75.42898852926993

> <docked_smiles>
c1ccc2c(c1)C[NH2+]C[C@@H]2NC(=O)Cc3cccc(c3)Cl

$$$$
RUB-POS-1325a9ea-4_1
  -OEChem-07262101023D

 37 39  0     0  0  0  0  0  0999 V2000
   11.9780    0.4600   23.9150 C   0  0  0  0  0  0  0  0  0  0  0  0
    3.8526    2.1354   18.7962 C   0  0  0  0  0  0  0  0  0  0  0  0
   10.6560    0.0720   23.7350 C   0  0  0  0  0  0  0  0  0  0  0  0
    3.4438    2.5381   20.0673 C   0  0  0  0  0  0  0  0  0  0  0  0
   12.9840   -0.1200   23.1530 C   0  0  0  0  0  0  0  0  0  0  0  0
    5.1216    1.1112   21.0627 C   0  0  0  0  0  0  0  0  0  0  0  0
   11.3360   -1.5050   22.0650 C   0  0  0  0  0  0  0  0  0  0  0  0
    5.3521    0.7769   17.4006 C   0  0  0  0  0  0  0  0  0  0  0  0
    6.9508   -0.5834   18.3324 C   0  0  0  0  0  0  0  0  0  0  0  0
    4.9027    1.2142   18.6481 C   0  0  0  0  0  0  0  0  0  0  0  0
    5.5461    0.6946   19.7904 C   0  0  0  0  0  0  0  0  0  0  0  0
    4.0768    2.0272   21.1980 C   0  0  0  0  0  0  0  0  0  0  0  0
   10.3220   -0.8940   22.7910 C   0  0  0  0  0  0  0  0  0  0  0  0
    6.5902   -0.2221   19.6216 C   0  0  0  0  0  0  0  0  0  0  0  0
   12.6400   -1.1000   22.2390 C   0  0  0  0  0  0  0  0  0  0  0  0
    8.3880   -0.3240   21.3070 C   0  0  0  0  0  0  0  0  0  0  0  0
    3.6374    2.4604   22.5562 C   0  0  0  0  0  0  0  0  0  0  0  0
    8.8810   -1.1900   22.4510 C   0  0  0  0  0  0  0  0  0  0  0  0
    6.3584   -0.1073   17.2167 N   0  0  0  0  0  0  0  0  0  0  0  0
    7.2820   -0.7860   20.6970 N   0  0  0  0  0  0  0  0  0  0  0  0
    8.9170    0.7530   21.0260 O   0  0  0  0  0  0  0  0  0  0  0  0
   13.8840   -1.8490   21.2740 Cl  0  0  0  0  0  0  0  0  0  0  0  0
   12.2249    1.2198   24.6546 H   0  0  0  0  0  0  0  0  0  0  0  0
    3.3484    2.5444   17.9237 H   0  0  0  0  0  0  0  0  0  0  0  0
    9.8763    0.5350   24.3454 H   0  0  0  0  0  0  0  0  0  0  0  0
    2.6286    3.2506   20.1653 H   0  0  0  0  0  0  0  0  0  0  0  0
   14.0077    0.1988   23.2842 H   0  0  0  0  0  0  0  0  0  0  0  0
    5.5968    0.7290   21.9640 H   0  0  0  0  0  0  0  0  0  0  0  0
   11.0892   -2.3008   21.3624 H   0  0  0  0  0  0  0  0  0  0  0  0
    4.8995    1.1371   16.4806 H   0  0  0  0  0  0  0  0  0  0  0  0
    7.7544   -1.2909   18.1485 H   0  0  0  0  0  0  0  0  0  0  0  0
    2.8492    1.7968   22.9320 H   0  0  0  0  0  0  0  0  0  0  0  0
    4.4727    2.4469   23.2680 H   0  0  0  0  0  0  0  0  0  0  0  0
    3.2499    3.4874   22.5404 H   0  0  0  0  0  0  0  0  0  0  0  0
    8.7774   -2.2383   22.1732 H   0  0  0  0  0  0  0  0  0  0  0  0
    8.2557   -1.0153   23.3257 H   0  0  0  0  0  0  0  0  0  0  0  0
    6.8981   -1.6619   21.0675 H   0  0  0  0  0  0  0  0  0  0  0  0
  1  3  2  0  0  0  0
  1  5  1  0  0  0  0
  2  4  2  0  0  0  0
  2 10  1  0  0  0  0
  3 13  1  0  0  0  0
  4 12  1  0  0  0  0
  5 15  2  0  0  0  0
  6 11  1  0  0  0  0
  6 12  2  0  0  0  0
  7 13  2  0  0  0  0
  7 15  1  0  0  0  0
  8 10  1  0  0  0  0
  8 19  2  0  0  0  0
  9 14  2  0  0  0  0
  9 19  1  0  0  0  0
 10 11  2  0  0  0  0
 11 14  1  0  0  0  0
 12 17  1  0  0  0  0
 13 18  1  0  0  0  0
 14 20  1  0  0  0  0
 15 22  1  0  0  0  0
 16 18  1  0  0  0  0
 16 20  1  0  0  0  0
 16 21  2  0  0  0  0
  1 23  1  0  0  0  0
  2 24  1  0  0  0  0
  3 25  1  0  0  0  0
  4 26  1  0  0  0  0
  5 27  1  0  0  0  0
  6 28  1  0  0  0  0
  7 29  1  0  0  0  0
  8 30  1  0  0  0  0
  9 31  1  0  0  0  0
 17 32  1  0  0  0  0
 17 33  1  0  0  0  0
 17 34  1  0  0  0  0
 18 35  1  0  0  0  0
 18 36  1  0  0  0  0
 20 37  1  0  0  0  0
M  END
> <compound>
RUB-POS-1325a9ea-4

> <compound_smiles>
Cc1ccc2cncc(c2c1)NC(=O)Cc3cccc(c3)Cl

> <enantiomer_smiles>
Cc1ccc2cncc(c2c1)NC(=O)Cc3cccc(c3)Cl

> <scaffold>
chlorobenzene-linker

> <canonical_CID>
RUB-POS-1325a9ea-4

> <r_inhibition_at_20_uM>

> <r_inhibition_at_50_uM>

> <r_avg_IC50>

> <f_inhibition_at_20_uM>

> <f_inhibition_at_50_uM>

> <f_avg_IC50>
0.537082079670846

> <f_avg_pIC50>

> <relative_solubility_at_20_uM>

> <relative_solubility_at_100_uM>

> <trypsin_IC50>

> <NMR_std_ratio>

> <acrylamide>
False

> <chloroacetamide>
False

> <series>
3-aminopyridine-like

> <frag_id>

> <clash_score>
0

> <docking_score>
-11.519875526428223

> <overlap_score>
1.0

> <MMFF_internal_energy>
102.23567082440064

> <docked_smiles>
Cc1ccc2cncc(c2c1)NC(=O)Cc3cccc(c3)Cl

$$$$
JIN-POS-6dc588a4-22_1
  -OEChem-07262101023D

 31 33  0     0  0  0  0  0  0999 V2000
   11.9780    0.4600   23.9150 C   0  0  0  0  0  0  0  0  0  0  0  0
   10.6560    0.0720   23.7350 C   0  0  0  0  0  0  0  0  0  0  0  0
   12.9840   -0.1200   23.1530 C   0  0  0  0  0  0  0  0  0  0  0  0
    4.3223    0.0934   20.8219 C   0  0  0  0  0  0  0  0  0  0  0  0
   11.3360   -1.5050   22.0650 C   0  0  0  0  0  0  0  0  0  0  0  0
    7.2207   -0.0294   18.4064 C   0  0  0  0  0  0  0  0  0  0  0  0
    5.3385    0.8804   17.3972 C   0  0  0  0  0  0  0  0  0  0  0  0
    3.0752    0.5809   20.5101 C   0  0  0  0  0  0  0  0  0  0  0  0
    5.2402    0.1628   19.7208 C   0  0  0  0  0  0  0  0  0  0  0  0
   10.3220   -0.8940   22.7910 C   0  0  0  0  0  0  0  0  0  0  0  0
    6.5902   -0.2256   19.6244 C   0  0  0  0  0  0  0  0  0  0  0  0
    4.6319    0.7157   18.5901 C   0  0  0  0  0  0  0  0  0  0  0  0
   12.6400   -1.1000   22.2390 C   0  0  0  0  0  0  0  0  0  0  0  0
    8.3880   -0.3240   21.3070 C   0  0  0  0  0  0  0  0  0  0  0  0
    8.8810   -1.1900   22.4510 C   0  0  0  0  0  0  0  0  0  0  0  0
    6.6335    0.5036   17.3174 N   0  0  0  0  0  0  0  0  0  0  0  0
    7.2820   -0.7860   20.6970 N   0  0  0  0  0  0  0  0  0  0  0  0
    8.9170    0.7530   21.0260 O   0  0  0  0  0  0  0  0  0  0  0  0
    2.9875    1.1274   18.8977 S   0  0  0  0  0  0  0  0  0  0  0  0
   13.8840   -1.8490   21.2740 Cl  0  0  0  0  0  0  0  0  0  0  0  0
   12.2249    1.2198   24.6546 H   0  0  0  0  0  0  0  0  0  0  0  0
    9.8763    0.5350   24.3454 H   0  0  0  0  0  0  0  0  0  0  0  0
   14.0077    0.1988   23.2842 H   0  0  0  0  0  0  0  0  0  0  0  0
    4.5686   -0.2990   21.8009 H   0  0  0  0  0  0  0  0  0  0  0  0
   11.0892   -2.3009   21.3624 H   0  0  0  0  0  0  0  0  0  0  0  0
    8.2616   -0.3072   18.2646 H   0  0  0  0  0  0  0  0  0  0  0  0
    4.8990    1.3047   16.5030 H   0  0  0  0  0  0  0  0  0  0  0  0
    2.2115    0.6406   21.1570 H   0  0  0  0  0  0  0  0  0  0  0  0
    8.7774   -2.2383   22.1732 H   0  0  0  0  0  0  0  0  0  0  0  0
    8.2557   -1.0153   23.3257 H   0  0  0  0  0  0  0  0  0  0  0  0
    6.8983   -1.6633   21.0687 H   0  0  0  0  0  0  0  0  0  0  0  0
  1  2  1  0  0  0  0
  1  3  2  0  0  0  0
  2 10  2  0  0  0  0
  3 13  1  0  0  0  0
  4  8  2  0  0  0  0
  4  9  1  0  0  0  0
  5 10  1  0  0  0  0
  5 13  2  0  0  0  0
  6 11  1  0  0  0  0
  6 16  2  0  0  0  0
  7 12  2  0  0  0  0
  7 16  1  0  0  0  0
  8 19  1  0  0  0  0
  9 11  2  0  0  0  0
  9 12  1  0  0  0  0
 10 15  1  0  0  0  0
 11 17  1  0  0  0  0
 12 19  1  0  0  0  0
 13 20  1  0  0  0  0
 14 15  1  0  0  0  0
 14 17  1  0  0  0  0
 14 18  2  0  0  0  0
  1 21  1  0  0  0  0
  2 22  1  0  0  0  0
  3 23  1  0  0  0  0
  4 24  1  0  0  0  0
  5 25  1  0  0  0  0
  6 26  1  0  0  0  0
  7 27  1  0  0  0  0
  8 28  1  0  0  0  0
 15 29  1  0  0  0  0
 15 30  1  0  0  0  0
 17 31  1  0  0  0  0
M  END
> <compound>
JIN-POS-6dc588a4-22

> <compound_smiles>
c1cc(cc(c1)Cl)CC(=O)Nc2cncc3c2ccs3

> <enantiomer_smiles>
c1cc(cc(c1)Cl)CC(=O)Nc2cncc3c2ccs3

> <scaffold>
chlorobenzene-linker

> <canonical_CID>
JIN-POS-6dc588a4-22

> <r_inhibition_at_20_uM>

> <r_inhibition_at_50_uM>

> <r_avg_IC50>

> <f_inhibition_at_20_uM>

> <f_inhibition_at_50_uM>

> <f_avg_IC50>
0.424567009737814

> <f_avg_pIC50>

> <relative_solubility_at_20_uM>

> <relative_solubility_at_100_uM>

> <trypsin_IC50>

> <NMR_std_ratio>

> <acrylamide>
False

> <chloroacetamide>
False

> <series>
3-aminopyridine-like

> <frag_id>

> <clash_score>
0

> <docking_score>
-7.232687473297119

> <overlap_score>
0.8752221465110779

> <MMFF_internal_energy>
80.64294942177685

> <docked_smiles>
c1cc(cc(c1)Cl)CC(=O)Nc2cncc3c2ccs3

$$$$
RUB-POS-1325a9ea-2_1
  -OEChem-07262101023D

 34 36  0     0  0  0  0  0  0999 V2000
    4.8485    3.6094   19.6811 C   0  0  0  0  0  0  0  0  0  0  0  0
   11.9780    0.4600   23.9150 C   0  0  0  0  0  0  0  0  0  0  0  0
    4.7575    2.8120   18.5405 C   0  0  0  0  0  0  0  0  0  0  0  0
   10.6560    0.0720   23.7350 C   0  0  0  0  0  0  0  0  0  0  0  0
    5.5181    3.1399   20.8087 C   0  0  0  0  0  0  0  0  0  0  0  0
   12.9840   -0.1200   23.1530 C   0  0  0  0  0  0  0  0  0  0  0  0
   11.3360   -1.5050   22.0650 C   0  0  0  0  0  0  0  0  0  0  0  0
    5.2782    0.6939   17.4073 C   0  0  0  0  0  0  0  0  0  0  0  0
    6.4660   -0.9669   18.4587 C   0  0  0  0  0  0  0  0  0  0  0  0
    5.3389    1.5334   18.5213 C   0  0  0  0  0  0  0  0  0  0  0  0
    6.0177    1.0545   19.6609 C   0  0  0  0  0  0  0  0  0  0  0  0
   10.3220   -0.8940   22.7910 C   0  0  0  0  0  0  0  0  0  0  0  0
    6.5902   -0.2221   19.6216 C   0  0  0  0  0  0  0  0  0  0  0  0
    6.0998    1.8709   20.8008 C   0  0  0  0  0  0  0  0  0  0  0  0
   12.6400   -1.1000   22.2390 C   0  0  0  0  0  0  0  0  0  0  0  0
    8.3880   -0.3240   21.3070 C   0  0  0  0  0  0  0  0  0  0  0  0
    8.8810   -1.1900   22.4510 C   0  0  0  0  0  0  0  0  0  0  0  0
    5.8244   -0.5417   17.3496 N   0  0  0  0  0  0  0  0  0  0  0  0
    7.2820   -0.7860   20.6970 N   0  0  0  0  0  0  0  0  0  0  0  0
    8.9170    0.7530   21.0260 O   0  0  0  0  0  0  0  0  0  0  0  0
    6.7335    1.4652   21.9114 F   0  0  0  0  0  0  0  0  0  0  0  0
   13.8840   -1.8490   21.2740 Cl  0  0  0  0  0  0  0  0  0  0  0  0
    4.3974    4.5973   19.6903 H   0  0  0  0  0  0  0  0  0  0  0  0
   12.2249    1.2198   24.6546 H   0  0  0  0  0  0  0  0  0  0  0  0
    4.2311    3.1937   17.6687 H   0  0  0  0  0  0  0  0  0  0  0  0
    9.8763    0.5350   24.3454 H   0  0  0  0  0  0  0  0  0  0  0  0
    5.5867    3.7617   21.6965 H   0  0  0  0  0  0  0  0  0  0  0  0
   14.0077    0.1988   23.2842 H   0  0  0  0  0  0  0  0  0  0  0  0
   11.0892   -2.3008   21.3624 H   0  0  0  0  0  0  0  0  0  0  0  0
    4.7701    1.0009   16.4972 H   0  0  0  0  0  0  0  0  0  0  0  0
    6.8919   -1.9629   18.3773 H   0  0  0  0  0  0  0  0  0  0  0  0
    8.7774   -2.2383   22.1732 H   0  0  0  0  0  0  0  0  0  0  0  0
    8.2557   -1.0153   23.3257 H   0  0  0  0  0  0  0  0  0  0  0  0
    6.8982   -1.6620   21.0675 H   0  0  0  0  0  0  0  0  0  0  0  0
  1  3  2  0  0  0  0
  1  5  1  0  0  0  0
  2  4  1  0  0  0  0
  2  6  2  0  0  0  0
  3 10  1  0  0  0  0
  4 12  2  0  0  0  0
  5 14  2  0  0  0  0
  6 15  1  0  0  0  0
  7 12  1  0  0  0  0
  7 15  2  0  0  0  0
  8 10  2  0  0  0  0
  8 18  1  0  0  0  0
  9 13  1  0  0  0  0
  9 18  2  0  0  0  0
 10 11  1  0  0  0  0
 11 13  2  0  0  0  0
 11 14  1  0  0  0  0
 12 17  1  0  0  0  0
 13 19  1  0  0  0  0
 14 21  1  0  0  0  0
 15 22  1  0  0  0  0
 16 17  1  0  0  0  0
 16 19  1  0  0  0  0
 16 20  2  0  0  0  0
  1 23  1  0  0  0  0
  2 24  1  0  0  0  0
  3 25  1  0  0  0  0
  4 26  1  0  0  0  0
  5 27  1  0  0  0  0
  6 28  1  0  0  0  0
  7 29  1  0  0  0  0
  8 30  1  0  0  0  0
  9 31  1  0  0  0  0
 17 32  1  0  0  0  0
 17 33  1  0  0  0  0
 19 34  1  0  0  0  0
M  END
> <compound>
RUB-POS-1325a9ea-2

> <compound_smiles>
c1cc(cc(c1)Cl)CC(=O)Nc2cncc3c2c(ccc3)F

> <enantiomer_smiles>
c1cc(cc(c1)Cl)CC(=O)Nc2cncc3c2c(ccc3)F

> <scaffold>
chlorobenzene-linker

> <clash_score>
0.646938073448988

> <docking_score>
-5.2988972663879395

> <overlap_score>
0.8509731292724609

> <MMFF_internal_energy>
97.85958315970555

> <docked_smiles>
c1cc(cc(c1)Cl)CC(=O)Nc2cncc3c2c(ccc3)F

$$$$
RUB-POS-1325a9ea-5_1
  -OEChem-07262101023D

 37 39  0     0  0  0  0  0  0999 V2000
    5.5361    3.1336   20.8422 C   0  0  0  0  0  0  0  0  0  0  0  0
   11.9780    0.4600   23.9150 C   0  0  0  0  0  0  0  0  0  0  0  0
    6.1126    1.8624   20.8209 C   0  0  0  0  0  0  0  0  0  0  0  0
    4.8643    3.6157   19.7213 C   0  0  0  0  0  0  0  0  0  0  0  0
   10.6560    0.0720   23.7350 C   0  0  0  0  0  0  0  0  0  0  0  0
   12.9840   -0.1200   23.1530 C   0  0  0  0  0  0  0  0  0  0  0  0
   11.3360   -1.5050   22.0650 C   0  0  0  0  0  0  0  0  0  0  0  0
    5.2736    0.7187   17.4203 C   0  0  0  0  0  0  0  0  0  0  0  0
    6.4587   -0.9561   18.4526 C   0  0  0  0  0  0  0  0  0  0  0  0
    6.0230    1.0565   19.6742 C   0  0  0  0  0  0  0  0  0  0  0  0
    5.3420    1.5481   18.5414 C   0  0  0  0  0  0  0  0  0  0  0  0
   10.3220   -0.8940   22.7910 C   0  0  0  0  0  0  0  0  0  0  0  0
    4.7658    2.8288   18.5741 C   0  0  0  0  0  0  0  0  0  0  0  0
    6.5902   -0.2221   19.6216 C   0  0  0  0  0  0  0  0  0  0  0  0
   12.6400   -1.1000   22.2390 C   0  0  0  0  0  0  0  0  0  0  0  0
    8.3880   -0.3240   21.3070 C   0  0  0  0  0  0  0  0  0  0  0  0
    4.0326    3.3968   17.3998 C   0  0  0  0  0  0  0  0  0  0  0  0
    8.8810   -1.1900   22.4510 C   0  0  0  0  0  0  0  0  0  0  0  0
    5.8146   -0.5185   17.3498 N   0  0  0  0  0  0  0  0  0  0  0  0
    7.2820   -0.7860   20.6970 N   0  0  0  0  0  0  0  0  0  0  0  0
    8.9170    0.7530   21.0260 O   0  0  0  0  0  0  0  0  0  0  0  0
   13.8840   -1.8490   21.2740 Cl  0  0  0  0  0  0  0  0  0  0  0  0
    5.6116    3.7478   21.7348 H   0  0  0  0  0  0  0  0  0  0  0  0
   12.2249    1.2198   24.6546 H   0  0  0  0  0  0  0  0  0  0  0  0
    6.6291    1.5211   21.7152 H   0  0  0  0  0  0  0  0  0  0  0  0
    4.4197    4.6070   19.7517 H   0  0  0  0  0  0  0  0  0  0  0  0
    9.8763    0.5350   24.3454 H   0  0  0  0  0  0  0  0  0  0  0  0
   14.0077    0.1988   23.2842 H   0  0  0  0  0  0  0  0  0  0  0  0
   11.0892   -2.3009   21.3624 H   0  0  0  0  0  0  0  0  0  0  0  0
    4.7671    1.0234   16.5091 H   0  0  0  0  0  0  0  0  0  0  0  0
    6.8799   -1.9532   18.3619 H   0  0  0  0  0  0  0  0  0  0  0  0
    4.7253    3.9439   16.7515 H   0  0  0  0  0  0  0  0  0  0  0  0
    3.5539    2.6041   16.8138 H   0  0  0  0  0  0  0  0  0  0  0  0
    3.2397    4.0805   17.7242 H   0  0  0  0  0  0  0  0  0  0  0  0
    8.7774   -2.2383   22.1732 H   0  0  0  0  0  0  0  0  0  0  0  0
    8.2557   -1.0153   23.3257 H   0  0  0  0  0  0  0  0  0  0  0  0
    6.8981   -1.6619   21.0675 H   0  0  0  0  0  0  0  0  0  0  0  0
  1  3  1  0  0  0  0
  1  4  2  0  0  0  0
  2  5  2  0  0  0  0
  2  6  1  0  0  0  0
  3 10  2  0  0  0  0
  4 13  1  0  0  0  0
  5 12  1  0  0  0  0
  6 15  2  0  0  0  0
  7 12  2  0  0  0  0
  7 15  1  0  0  0  0
  8 11  1  0  0  0  0
  8 19  2  0  0  0  0
  9 14  2  0  0  0  0
  9 19  1  0  0  0  0
 10 11  1  0  0  0  0
 10 14  1  0  0  0  0
 11 13  2  0  0  0  0
 12 18  1  0  0  0  0
 13 17  1  0  0  0  0
 14 20  1  0  0  0  0
 15 22  1  0  0  0  0
 16 18  1  0  0  0  0
 16 20  1  0  0  0  0
 16 21  2  0  0  0  0
  1 23  1  0  0  0  0
  2 24  1  0  0  0  0
  3 25  1  0  0  0  0
  4 26  1  0  0  0  0
  5 27  1  0  0  0  0
  6 28  1  0  0  0  0
  7 29  1  0  0  0  0
  8 30  1  0  0  0  0
  9 31  1  0  0  0  0
 17 32  1  0  0  0  0
 17 33  1  0  0  0  0
 17 34  1  0  0  0  0
 18 35  1  0  0  0  0
 18 36  1  0  0  0  0
 20 37  1  0  0  0  0
M  END
> <compound>
RUB-POS-1325a9ea-5

> <compound_smiles>
Cc1cccc2c1cncc2NC(=O)Cc3cccc(c3)Cl

> <enantiomer_smiles>
Cc1cccc2c1cncc2NC(=O)Cc3cccc(c3)Cl

> <scaffold>
chlorobenzene-linker

> <canonical_CID>
RUB-POS-1325a9ea-5

> <r_inhibition_at_20_uM>

> <r_inhibition_at_50_uM>

> <r_avg_IC50>

> <f_inhibition_at_20_uM>

> <f_inhibition_at_50_uM>

> <f_avg_IC50>
99.5

> <f_avg_pIC50>

> <relative_solubility_at_20_uM>

> <relative_solubility_at_100_uM>

> <trypsin_IC50>

> <NMR_std_ratio>

> <acrylamide>
False

> <chloroacetamide>
False

> <series>
3-aminopyridine-like

> <frag_id>

> <clash_score>
1.3613690193778951

> <docking_score>
-4.429933071136475

> <overlap_score>
0.8439423441886902

> <MMFF_internal_energy>
102.90437235688178

> <docked_smiles>
Cc1cccc2c1cncc2NC(=O)Cc3cccc(c3)Cl

$$$$
RUB-POS-1325a9ea-7_1
  -OEChem-07262101023D

 37 39  0     1  0  0  0  0  0999 V2000
    3.6674    2.7921   21.0280 C   0  0  0  0  0  0  0  0  0  0  0  0
    4.7543    2.4830   21.8418 C   0  0  0  0  0  0  0  0  0  0  0  0
   11.9780    0.4600   23.9150 C   0  0  0  0  0  0  0  0  0  0  0  0
    3.5345    2.1800   19.7836 C   0  0  0  0  0  0  0  0  0  0  0  0
    5.7090    1.5575   21.4156 C   0  0  0  0  0  0  0  0  0  0  0  0
   10.6560    0.0720   23.7350 C   0  0  0  0  0  0  0  0  0  0  0  0
   12.9840   -0.1200   23.1530 C   0  0  0  0  0  0  0  0  0  0  0  0
   11.3360   -1.5050   22.0650 C   0  0  0  0  0  0  0  0  0  0  0  0
    4.4805    1.2401   19.3573 C   0  0  0  0  0  0  0  0  0  0  0  0
    5.5755    0.9139   20.1767 C   0  0  0  0  0  0  0  0  0  0  0  0
   10.3220   -0.8940   22.7910 C   0  0  0  0  0  0  0  0  0  0  0  0
   12.6400   -1.1000   22.2390 C   0  0  0  0  0  0  0  0  0  0  0  0
    6.0394   -1.1143   18.7058 C   0  0  0  0  0  0  0  0  0  0  0  0
    8.3880   -0.3240   21.3070 C   0  0  0  0  0  0  0  0  0  0  0  0
    4.3861    0.6188   17.9970 C   0  0  0  0  0  0  0  0  0  0  0  0
    6.6088   -0.0572   19.6499 C   0  0  2  0  0  0  0  0  0  0  0  0
    8.8810   -1.1900   22.4510 C   0  0  0  0  0  0  0  0  0  0  0  0
    4.9353   -0.7221   17.9749 N   0  0  0  0  0  0  0  0  0  0  0  0
    7.2820   -0.7860   20.6970 N   0  0  0  0  0  0  0  0  0  0  0  0
    6.5583   -2.2217   18.5577 O   0  0  0  0  0  0  0  0  0  0  0  0
    8.9170    0.7530   21.0260 O   0  0  0  0  0  0  0  0  0  0  0  0
   13.8840   -1.8490   21.2740 Cl  0  0  0  0  0  0  0  0  0  0  0  0
    2.9305    3.5184   21.3579 H   0  0  0  0  0  0  0  0  0  0  0  0
    4.8654    2.9700   22.8063 H   0  0  0  0  0  0  0  0  0  0  0  0
   12.2249    1.2198   24.6546 H   0  0  0  0  0  0  0  0  0  0  0  0
    2.6942    2.4429   19.1465 H   0  0  0  0  0  0  0  0  0  0  0  0
    6.5579    1.3528   22.0625 H   0  0  0  0  0  0  0  0  0  0  0  0
    9.8763    0.5350   24.3454 H   0  0  0  0  0  0  0  0  0  0  0  0
   14.0077    0.1988   23.2842 H   0  0  0  0  0  0  0  0  0  0  0  0
   11.0892   -2.3009   21.3624 H   0  0  0  0  0  0  0  0  0  0  0  0
    3.3438    0.5391   17.6713 H   0  0  0  0  0  0  0  0  0  0  0  0
    4.9400    1.2217   17.2697 H   0  0  0  0  0  0  0  0  0  0  0  0
    7.3736    0.5031   19.0994 H   0  0  0  0  0  0  0  0  0  0  0  0
    8.7773   -2.2383   22.1737 H   0  0  0  0  0  0  0  0  0  0  0  0
    8.2516   -1.0144   23.3225 H   0  0  0  0  0  0  0  0  0  0  0  0
    4.4813   -1.4145   17.3871 H   0  0  0  0  0  0  0  0  0  0  0  0
    6.9053   -1.6851   20.9855 H   0  0  0  0  0  0  0  0  0  0  0  0
  1  2  1  0  0  0  0
  1  4  2  0  0  0  0
  2  5  2  0  0  0  0
  3  6  2  0  0  0  0
  3  7  1  0  0  0  0
  4  9  1  0  0  0  0
  5 10  1  0  0  0  0
  6 11  1  0  0  0  0
  7 12  2  0  0  0  0
  8 11  2  0  0  0  0
  8 12  1  0  0  0  0
  9 10  2  0  0  0  0
  9 15  1  0  0  0  0
 10 16  1  0  0  0  0
 11 17  1  0  0  0  0
 12 22  1  0  0  0  0
 13 16  1  0  0  0  0
 13 18  1  0  0  0  0
 13 20  2  0  0  0  0
 14 17  1  0  0  0  0
 14 19  1  0  0  0  0
 14 21  2  0  0  0  0
 15 18  1  0  0  0  0
 16 19  1  1  0  0  0
  1 23  1  0  0  0  0
  2 24  1  0  0  0  0
  3 25  1  0  0  0  0
  4 26  1  0  0  0  0
  5 27  1  0  0  0  0
  6 28  1  0  0  0  0
  7 29  1  0  0  0  0
  8 30  1  0  0  0  0
 15 31  1  0  0  0  0
 15 32  1  0  0  0  0
 16 33  1  0  0  0  0
 17 34  1  0  0  0  0
 17 35  1  0  0  0  0
 18 36  1  0  0  0  0
 19 37  1  0  0  0  0
M  END
> <compound>
RUB-POS-1325a9ea-7

> <compound_smiles>
c1ccc2c(c1)CNC(=O)C2NC(=O)Cc3cccc(c3)Cl

> <enantiomer_smiles>
c1ccc2c(c1)CNC(=O)[C@@H]2NC(=O)Cc3cccc(c3)Cl

> <scaffold>
chlorobenzene-linker

> <canonical_CID>
RUB-POS-1325a9ea-7

> <r_inhibition_at_20_uM>

> <r_inhibition_at_50_uM>

> <r_avg_IC50>

> <f_inhibition_at_20_uM>

> <f_inhibition_at_50_uM>

> <f_avg_IC50>
99.5

> <f_avg_pIC50>

> <relative_solubility_at_20_uM>

> <relative_solubility_at_100_uM>

> <trypsin_IC50>

> <NMR_std_ratio>

> <acrylamide>
False

> <chloroacetamide>
False

> <series>
Ugi

> <frag_id>

> <clash_score>
0

> <docking_score>
-6.712482452392578

> <overlap_score>
0.8999549746513367

> <MMFF_internal_energy>
63.64227115054782

> <docked_smiles>
c1ccc2c(c1)CNC(=O)[C@@H]2NC(=O)Cc3cccc(c3)Cl

$$$$
RUB-POS-1325a9ea-6_2
  -OEChem-07262101023D

 39 41  0     1  0  0  0  0  0999 V2000
    5.0435    3.6422   21.2442 C   0  0  0  0  0  0  0  0  0  0  0  0
    4.3939    2.4371   21.4977 C   0  0  0  0  0  0  0  0  0  0  0  0
   11.9780    0.4600   23.9150 C   0  0  0  0  0  0  0  0  0  0  0  0
    6.2006    3.6608   20.4664 C   0  0  0  0  0  0  0  0  0  0  0  0
    4.8992    1.2481   20.9723 C   0  0  0  0  0  0  0  0  0  0  0  0
   10.6560    0.0720   23.7350 C   0  0  0  0  0  0  0  0  0  0  0  0
   12.9840   -0.1200   23.1530 C   0  0  0  0  0  0  0  0  0  0  0  0
   11.3360   -1.5050   22.0650 C   0  0  0  0  0  0  0  0  0  0  0  0
    6.7222    2.4714   19.9394 C   0  0  0  0  0  0  0  0  0  0  0  0
    6.0605    1.2526   20.1842 C   0  0  0  0  0  0  0  0  0  0  0  0
   10.3220   -0.8940   22.7910 C   0  0  0  0  0  0  0  0  0  0  0  0
   12.6400   -1.1000   22.2390 C   0  0  0  0  0  0  0  0  0  0  0  0
    8.3880   -0.3240   21.3070 C   0  0  0  0  0  0  0  0  0  0  0  0
    7.9503    2.5247   19.0738 C   0  0  0  0  0  0  0  0  0  0  0  0
    7.5409    0.1506   18.4521 C   0  0  0  0  0  0  0  0  0  0  0  0
    6.6092   -0.0526   19.6471 C   0  0  1  0  0  0  0  0  0  0  0  0
    8.8810   -1.1900   22.4510 C   0  0  0  0  0  0  0  0  0  0  0  0
    7.2820   -0.7860   20.6970 N   0  0  0  0  0  0  0  0  0  0  0  0
    8.5600    1.1841   18.8016 N   0  3  0  0  0  0  0  0  0  0  0  0
    8.9170    0.7530   21.0260 O   0  0  0  0  0  0  0  0  0  0  0  0
   13.8840   -1.8490   21.2740 Cl  0  0  0  0  0  0  0  0  0  0  0  0
    4.6452    4.5694   21.6471 H   0  0  0  0  0  0  0  0  0  0  0  0
    3.4921    2.4235   22.1024 H   0  0  0  0  0  0  0  0  0  0  0  0
   12.2249    1.2198   24.6546 H   0  0  0  0  0  0  0  0  0  0  0  0
    6.6913    4.6103   20.2682 H   0  0  0  0  0  0  0  0  0  0  0  0
    4.3737    0.3219   21.1833 H   0  0  0  0  0  0  0  0  0  0  0  0
    9.8763    0.5350   24.3454 H   0  0  0  0  0  0  0  0  0  0  0  0
   14.0077    0.1988   23.2842 H   0  0  0  0  0  0  0  0  0  0  0  0
   11.0892   -2.3009   21.3624 H   0  0  0  0  0  0  0  0  0  0  0  0
    7.7222    2.9528   18.0905 H   0  0  0  0  0  0  0  0  0  0  0  0
    8.7268    3.1295   19.5586 H   0  0  0  0  0  0  0  0  0  0  0  0
    8.0913   -0.7582   18.1802 H   0  0  0  0  0  0  0  0  0  0  0  0
    7.0009    0.5202   17.5738 H   0  0  0  0  0  0  0  0  0  0  0  0
    5.7537   -0.6585   19.3416 H   0  0  0  0  0  0  0  0  0  0  0  0
    8.7773   -2.2383   22.1737 H   0  0  0  0  0  0  0  0  0  0  0  0
    8.2516   -1.0144   23.3225 H   0  0  0  0  0  0  0  0  0  0  0  0
    6.9051   -1.6833   20.9841 H   0  0  0  0  0  0  0  0  0  0  0  0
    9.2463    1.2634   18.0365 H   0  0  0  0  0  0  0  0  0  0  0  0
    9.0971    0.8790   19.6262 H   0  0  0  0  0  0  0  0  0  0  0  0
  1  2  1  0  0  0  0
  1  4  2  0  0  0  0
  2  5  2  0  0  0  0
  3  6  2  0  0  0  0
  3  7  1  0  0  0  0
  4  9  1  0  0  0  0
  5 10  1  0  0  0  0
  6 11  1  0  0  0  0
  7 12  2  0  0  0  0
  8 11  2  0  0  0  0
  8 12  1  0  0  0  0
  9 10  2  0  0  0  0
  9 14  1  0  0  0  0
 10 16  1  0  0  0  0
 11 17  1  0  0  0  0
 12 21  1  0  0  0  0
 13 17  1  0  0  0  0
 13 18  1  0  0  0  0
 13 20  2  0  0  0  0
 14 19  1  0  0  0  0
 15 16  1  0  0  0  0
 15 19  1  0  0  0  0
 16 18  1  6  0  0  0
  1 22  1  0  0  0  0
  2 23  1  0  0  0  0
  3 24  1  0  0  0  0
  4 25  1  0  0  0  0
  5 26  1  0  0  0  0
  6 27  1  0  0  0  0
  7 28  1  0  0  0  0
  8 29  1  0  0  0  0
 14 30  1  0  0  0  0
 14 31  1  0  0  0  0
 15 32  1  0  0  0  0
 15 33  1  0  0  0  0
 16 34  1  0  0  0  0
 17 35  1  0  0  0  0
 17 36  1  0  0  0  0
 18 37  1  0  0  0  0
 19 38  1  0  0  0  0
 19 39  1  0  0  0  0
M  CHG  1  19   1
M  END
> <compound>
RUB-POS-1325a9ea-6

> <compound_smiles>
c1ccc2c(c1)CNCC2NC(=O)Cc3cccc(c3)Cl

> <enantiomer_smiles>
c1ccc2c(c1)CNC[C@H]2NC(=O)Cc3cccc(c3)Cl

> <scaffold>
chlorobenzene-linker

> <clash_score>
2.748302512616256

> <docking_score>
-4.204423904418945

> <overlap_score>
0.7596883773803711

> <MMFF_internal_energy>
55.939172240337996

> <docked_smiles>
c1ccc2c(c1)C[NH2+]C[C@H]2NC(=O)Cc3cccc(c3)Cl

$$$$
RUB-POS-1325a9ea-7_2
  -OEChem-07262101023D

 37 39  0     1  0  0  0  0  0999 V2000
    5.1455    3.8698   20.7297 C   0  0  0  0  0  0  0  0  0  0  0  0
    5.2833    2.8974   21.7163 C   0  0  0  0  0  0  0  0  0  0  0  0
   11.9780    0.4600   23.9150 C   0  0  0  0  0  0  0  0  0  0  0  0
    5.4826    3.5730   19.4115 C   0  0  0  0  0  0  0  0  0  0  0  0
    5.7627    1.6269   21.3892 C   0  0  0  0  0  0  0  0  0  0  0  0
   10.6560    0.0720   23.7350 C   0  0  0  0  0  0  0  0  0  0  0  0
   12.9840   -0.1200   23.1530 C   0  0  0  0  0  0  0  0  0  0  0  0
   11.3360   -1.5050   22.0650 C   0  0  0  0  0  0  0  0  0  0  0  0
    5.9779    2.3058   19.0804 C   0  0  0  0  0  0  0  0  0  0  0  0
    6.1316    1.3185   20.0717 C   0  0  0  0  0  0  0  0  0  0  0  0
   10.3220   -0.8940   22.7910 C   0  0  0  0  0  0  0  0  0  0  0  0
   12.6400   -1.1000   22.2390 C   0  0  0  0  0  0  0  0  0  0  0  0
    7.5728   -0.0270   18.4616 C   0  0  0  0  0  0  0  0  0  0  0  0
    8.3880   -0.3240   21.3070 C   0  0  0  0  0  0  0  0  0  0  0  0
    6.2875    1.9541   17.6568 C   0  0  0  0  0  0  0  0  0  0  0  0
    6.6070   -0.0566   19.6480 C   0  0  1  0  0  0  0  0  0  0  0  0
    8.8810   -1.1900   22.4510 C   0  0  0  0  0  0  0  0  0  0  0  0
    7.3760    1.0033   17.5637 N   0  0  0  0  0  0  0  0  0  0  0  0
    7.2820   -0.7860   20.6970 N   0  0  0  0  0  0  0  0  0  0  0  0
    8.4292   -0.8936   18.2799 O   0  0  0  0  0  0  0  0  0  0  0  0
    8.9170    0.7530   21.0260 O   0  0  0  0  0  0  0  0  0  0  0  0
   13.8840   -1.8490   21.2740 Cl  0  0  0  0  0  0  0  0  0  0  0  0
    4.7815    4.8592   20.9886 H   0  0  0  0  0  0  0  0  0  0  0  0
    5.0231    3.1280   22.7466 H   0  0  0  0  0  0  0  0  0  0  0  0
   12.2249    1.2198   24.6546 H   0  0  0  0  0  0  0  0  0  0  0  0
    5.3599    4.3326   18.6442 H   0  0  0  0  0  0  0  0  0  0  0  0
    5.8491    0.8756   22.1724 H   0  0  0  0  0  0  0  0  0  0  0  0
    9.8763    0.5350   24.3454 H   0  0  0  0  0  0  0  0  0  0  0  0
   14.0077    0.1988   23.2842 H   0  0  0  0  0  0  0  0  0  0  0  0
   11.0892   -2.3009   21.3624 H   0  0  0  0  0  0  0  0  0  0  0  0
    5.4240    1.4959   17.1713 H   0  0  0  0  0  0  0  0  0  0  0  0
    6.5786    2.8510   17.1067 H   0  0  0  0  0  0  0  0  0  0  0  0
    5.7450   -0.6484   19.3276 H   0  0  0  0  0  0  0  0  0  0  0  0
    8.7773   -2.2383   22.1737 H   0  0  0  0  0  0  0  0  0  0  0  0
    8.2516   -1.0144   23.3225 H   0  0  0  0  0  0  0  0  0  0  0  0
    8.0297    1.0981   16.7982 H   0  0  0  0  0  0  0  0  0  0  0  0
    6.9053   -1.6855   20.9858 H   0  0  0  0  0  0  0  0  0  0  0  0
  1  2  1  0  0  0  0
  1  4  2  0  0  0  0
  2  5  2  0  0  0  0
  3  6  2  0  0  0  0
  3  7  1  0  0  0  0
  4  9  1  0  0  0  0
  5 10  1  0  0  0  0
  6 11  1  0  0  0  0
  7 12  2  0  0  0  0
  8 11  2  0  0  0  0
  8 12  1  0  0  0  0
  9 10  2  0  0  0  0
  9 15  1  0  0  0  0
 10 16  1  0  0  0  0
 11 17  1  0  0  0  0
 12 22  1  0  0  0  0
 13 16  1  0  0  0  0
 13 18  1  0  0  0  0
 13 20  2  0  0  0  0
 14 17  1  0  0  0  0
 14 19  1  0  0  0  0
 14 21  2  0  0  0  0
 15 18  1  0  0  0  0
 16 19  1  6  0  0  0
  1 23  1  0  0  0  0
  2 24  1  0  0  0  0
  3 25  1  0  0  0  0
  4 26  1  0  0  0  0
  5 27  1  0  0  0  0
  6 28  1  0  0  0  0
  7 29  1  0  0  0  0
  8 30  1  0  0  0  0
 15 31  1  0  0  0  0
 15 32  1  0  0  0  0
 16 33  1  0  0  0  0
 17 34  1  0  0  0  0
 17 35  1  0  0  0  0
 18 36  1  0  0  0  0
 19 37  1  0  0  0  0
M  END
> <compound>
RUB-POS-1325a9ea-7

> <compound_smiles>
c1ccc2c(c1)CNC(=O)C2NC(=O)Cc3cccc(c3)Cl

> <enantiomer_smiles>
c1ccc2c(c1)CNC(=O)[C@H]2NC(=O)Cc3cccc(c3)Cl

> <scaffold>
chlorobenzene-linker

> <canonical_CID>
RUB-POS-1325a9ea-7

> <r_inhibition_at_20_uM>

> <r_inhibition_at_50_uM>

> <r_avg_IC50>

> <f_inhibition_at_20_uM>

> <f_inhibition_at_50_uM>

> <f_avg_IC50>
99.5

> <f_avg_pIC50>

> <relative_solubility_at_20_uM>

> <relative_solubility_at_100_uM>

> <trypsin_IC50>

> <NMR_std_ratio>

> <acrylamide>
False

> <chloroacetamide>
False

> <series>
Ugi

> <frag_id>

> <clash_score>
0.6338979103606925

> <docking_score>
-2.5362892150878906

> <overlap_score>
0.779608964920044

> <MMFF_internal_energy>
69.95575591647267

> <docked_smiles>
c1ccc2c(c1)CNC(=O)[C@H]2NC(=O)Cc3cccc(c3)Cl

$$$$
RUB-POS-1325a9ea-9_1
  -OEChem-07262101023D

 38 40  0     0  0  0  0  0  0999 V2000
    3.4350    2.5423   19.9689 C   0  0  0  0  0  0  0  0  0  0  0  0
   11.9780    0.4600   23.9150 C   0  0  0  0  0  0  0  0  0  0  0  0
    3.8664    2.1205   18.7115 C   0  0  0  0  0  0  0  0  0  0  0  0
   10.6560    0.0720   23.7350 C   0  0  0  0  0  0  0  0  0  0  0  0
    4.0481    2.0494   21.1183 C   0  0  0  0  0  0  0  0  0  0  0  0
   12.9840   -0.1200   23.1530 C   0  0  0  0  0  0  0  0  0  0  0  0
   11.3360   -1.5050   22.0650 C   0  0  0  0  0  0  0  0  0  0  0  0
    5.3912    0.7419   17.3637 C   0  0  0  0  0  0  0  0  0  0  0  0
    6.9738   -0.6027   18.3446 C   0  0  0  0  0  0  0  0  0  0  0  0
    4.9194    1.1979   18.5963 C   0  0  0  0  0  0  0  0  0  0  0  0
    5.5428    0.6965   19.7576 C   0  0  0  0  0  0  0  0  0  0  0  0
   10.3220   -0.8940   22.7910 C   0  0  0  0  0  0  0  0  0  0  0  0
    6.5902   -0.2219   19.6214 C   0  0  0  0  0  0  0  0  0  0  0  0
    5.0956    1.1323   21.0156 C   0  0  0  0  0  0  0  0  0  0  0  0
   12.6400   -1.1000   22.2390 C   0  0  0  0  0  0  0  0  0  0  0  0
    8.3880   -0.3240   21.3070 C   0  0  0  0  0  0  0  0  0  0  0  0
    5.0847    1.2267   23.3919 C   0  0  0  0  0  0  0  0  0  0  0  0
    8.8810   -1.1900   22.4510 C   0  0  0  0  0  0  0  0  0  0  0  0
    6.4010   -0.1442   17.2113 N   0  0  0  0  0  0  0  0  0  0  0  0
    7.2820   -0.7860   20.6970 N   0  0  0  0  0  0  0  0  0  0  0  0
    8.9170    0.7530   21.0260 O   0  0  0  0  0  0  0  0  0  0  0  0
    5.6398    0.6987   22.1907 O   0  0  0  0  0  0  0  0  0  0  0  0
   13.8840   -1.8490   21.2740 Cl  0  0  0  0  0  0  0  0  0  0  0  0
    2.6196    3.2550   20.0511 H   0  0  0  0  0  0  0  0  0  0  0  0
   12.2249    1.2198   24.6546 H   0  0  0  0  0  0  0  0  0  0  0  0
    3.3767    2.5152   17.8243 H   0  0  0  0  0  0  0  0  0  0  0  0
    9.8763    0.5350   24.3454 H   0  0  0  0  0  0  0  0  0  0  0  0
    3.7045    2.3852   22.0931 H   0  0  0  0  0  0  0  0  0  0  0  0
   14.0077    0.1988   23.2842 H   0  0  0  0  0  0  0  0  0  0  0  0
   11.0892   -2.3009   21.3624 H   0  0  0  0  0  0  0  0  0  0  0  0
    4.9547    1.0878   16.4306 H   0  0  0  0  0  0  0  0  0  0  0  0
    7.7814   -1.3113   18.1841 H   0  0  0  0  0  0  0  0  0  0  0  0
    5.6063    0.8017   24.2529 H   0  0  0  0  0  0  0  0  0  0  0  0
    4.0204    0.9830   23.4404 H   0  0  0  0  0  0  0  0  0  0  0  0
    5.2082    2.3123   23.3934 H   0  0  0  0  0  0  0  0  0  0  0  0
    8.7775   -2.2383   22.1732 H   0  0  0  0  0  0  0  0  0  0  0  0
    8.2557   -1.0153   23.3257 H   0  0  0  0  0  0  0  0  0  0  0  0
    6.8981   -1.6619   21.0674 H   0  0  0  0  0  0  0  0  0  0  0  0
  1  3  1  0  0  0  0
  1  5  2  0  0  0  0
  2  4  2  0  0  0  0
  2  6  1  0  0  0  0
  3 10  2  0  0  0  0
  4 12  1  0  0  0  0
  5 14  1  0  0  0  0
  6 15  2  0  0  0  0
  7 12  2  0  0  0  0
  7 15  1  0  0  0  0
  8 10  1  0  0  0  0
  8 19  2  0  0  0  0
  9 13  2  0  0  0  0
  9 19  1  0  0  0  0
 10 11  1  0  0  0  0
 11 13  1  0  0  0  0
 11 14  2  0  0  0  0
 12 18  1  0  0  0  0
 13 20  1  0  0  0  0
 14 22  1  0  0  0  0
 15 23  1  0  0  0  0
 16 18  1  0  0  0  0
 16 20  1  0  0  0  0
 16 21  2  0  0  0  0
 17 22  1  0  0  0  0
  1 24  1  0  0  0  0
  2 25  1  0  0  0  0
  3 26  1  0  0  0  0
  4 27  1  0  0  0  0
  5 28  1  0  0  0  0
  6 29  1  0  0  0  0
  7 30  1  0  0  0  0
  8 31  1  0  0  0  0
  9 32  1  0  0  0  0
 17 33  1  0  0  0  0
 17 34  1  0  0  0  0
 17 35  1  0  0  0  0
 18 36  1  0  0  0  0
 18 37  1  0  0  0  0
 20 38  1  0  0  0  0
M  END
> <compound>
RUB-POS-1325a9ea-9

> <compound_smiles>
COc1cccc2c1c(cnc2)NC(=O)Cc3cccc(c3)Cl

> <enantiomer_smiles>
COc1cccc2c1c(cnc2)NC(=O)Cc3cccc(c3)Cl

> <scaffold>
chlorobenzene-linker

> <clash_score>
0

> <docking_score>
-11.368383407592773

> <overlap_score>
1.0

> <MMFF_internal_energy>
118.44438417795753

> <docked_smiles>
COc1cccc2c1c(cnc2)NC(=O)Cc3cccc(c3)Cl

$$$$
RUB-POS-1325a9ea-12_1
  -OEChem-07262101023D

 31 33  0     0  0  0  0  0  0999 V2000
   11.9780    0.4600   23.9150 C   0  0  0  0  0  0  0  0  0  0  0  0
   10.6560    0.0720   23.7350 C   0  0  0  0  0  0  0  0  0  0  0  0
   12.9840   -0.1200   23.1530 C   0  0  0  0  0  0  0  0  0  0  0  0
   11.3360   -1.5050   22.0650 C   0  0  0  0  0  0  0  0  0  0  0  0
    5.2692    0.8905   17.4062 C   0  0  0  0  0  0  0  0  0  0  0  0
    3.2845    0.9659   19.0959 C   0  0  0  0  0  0  0  0  0  0  0  0
    7.1824   -0.0165   18.3907 C   0  0  0  0  0  0  0  0  0  0  0  0
    4.5850    0.7180   18.6095 C   0  0  0  0  0  0  0  0  0  0  0  0
   10.3220   -0.8940   22.7910 C   0  0  0  0  0  0  0  0  0  0  0  0
    5.2590    0.1632   19.6905 C   0  0  0  0  0  0  0  0  0  0  0  0
    6.5901   -0.2292   19.6273 C   0  0  0  0  0  0  0  0  0  0  0  0
   12.6400   -1.1000   22.2390 C   0  0  0  0  0  0  0  0  0  0  0  0
    8.3880   -0.3240   21.3070 C   0  0  0  0  0  0  0  0  0  0  0  0
    8.8810   -1.1900   22.4510 C   0  0  0  0  0  0  0  0  0  0  0  0
    6.5697    0.5195   17.3070 N   0  0  0  0  0  0  0  0  0  0  0  0
    3.1318    0.6045   20.3720 N   0  0  0  0  0  0  0  0  0  0  0  0
    4.3415    0.1235   20.7051 N   0  0  0  0  0  0  0  0  0  0  0  0
    7.2820   -0.7860   20.6970 N   0  0  0  0  0  0  0  0  0  0  0  0
    8.9170    0.7530   21.0260 O   0  0  0  0  0  0  0  0  0  0  0  0
   13.8840   -1.8490   21.2740 Cl  0  0  0  0  0  0  0  0  0  0  0  0
   12.2249    1.2198   24.6546 H   0  0  0  0  0  0  0  0  0  0  0  0
    9.8763    0.5350   24.3454 H   0  0  0  0  0  0  0  0  0  0  0  0
   14.0077    0.1988   23.2842 H   0  0  0  0  0  0  0  0  0  0  0  0
   11.0892   -2.3008   21.3624 H   0  0  0  0  0  0  0  0  0  0  0  0
    4.8191    1.3154   16.5174 H   0  0  0  0  0  0  0  0  0  0  0  0
    2.4416    1.3945   18.5723 H   0  0  0  0  0  0  0  0  0  0  0  0
    8.2226   -0.2849   18.2235 H   0  0  0  0  0  0  0  0  0  0  0  0
    8.7774   -2.2383   22.1732 H   0  0  0  0  0  0  0  0  0  0  0  0
    8.2557   -1.0153   23.3257 H   0  0  0  0  0  0  0  0  0  0  0  0
    4.4765   -0.2196   21.6480 H   0  0  0  0  0  0  0  0  0  0  0  0
    6.8985   -1.6647   21.0700 H   0  0  0  0  0  0  0  0  0  0  0  0
  1  2  1  0  0  0  0
  1  3  2  0  0  0  0
  2  9  2  0  0  0  0
  3 12  1  0  0  0  0
  4  9  1  0  0  0  0
  4 12  2  0  0  0  0
  5  8  2  0  0  0  0
  5 15  1  0  0  0  0
  6  8  1  0  0  0  0
  6 16  2  0  0  0  0
  7 11  1  0  0  0  0
  7 15  2  0  0  0  0
  8 10  1  0  0  0  0
  9 14  1  0  0  0  0
 10 11  2  0  0  0  0
 10 17  1  0  0  0  0
 11 18  1  0  0  0  0
 12 20  1  0  0  0  0
 13 14  1  0  0  0  0
 13 18  1  0  0  0  0
 13 19  2  0  0  0  0
 16 17  1  0  0  0  0
  1 21  1  0  0  0  0
  2 22  1  0  0  0  0
  3 23  1  0  0  0  0
  4 24  1  0  0  0  0
  5 25  1  0  0  0  0
  6 26  1  0  0  0  0
  7 27  1  0  0  0  0
 14 28  1  0  0  0  0
 14 29  1  0  0  0  0
 17 30  1  0  0  0  0
 18 31  1  0  0  0  0
M  END
> <compound>
RUB-POS-1325a9ea-12

> <compound_smiles>
c1cc(cc(c1)Cl)CC(=O)Nc2cncc3c2[nH]nc3

> <enantiomer_smiles>
c1cc(cc(c1)Cl)CC(=O)Nc2cncc3c2[nH]nc3

> <scaffold>
chlorobenzene-linker

> <canonical_CID>
RUB-POS-1325a9ea-12

> <r_inhibition_at_20_uM>

> <r_inhibition_at_50_uM>

> <r_avg_IC50>

> <f_inhibition_at_20_uM>

> <f_inhibition_at_50_uM>

> <f_avg_IC50>
2.10357043346894

> <f_avg_pIC50>

> <relative_solubility_at_20_uM>

> <relative_solubility_at_100_uM>

> <trypsin_IC50>

> <NMR_std_ratio>

> <acrylamide>
False

> <chloroacetamide>
False

> <series>
3-aminopyridine-like

> <frag_id>

> <clash_score>
0

> <docking_score>
-6.446586608886719

> <overlap_score>
0.8826959729194641

> <MMFF_internal_energy>
81.97681980217149

> <docked_smiles>
c1cc(cc(c1)Cl)CC(=O)Nc2cncc3c2[nH]nc3

$$$$
RUB-POS-1325a9ea-16_2
  -OEChem-07262101023D

 35 37  0     1  0  0  0  0  0999 V2000
    3.3419    2.4292   20.8249 C   0  0  0  0  0  0  0  0  0  0  0  0
    4.5862    2.6650   21.4323 C   0  0  0  0  0  0  0  0  0  0  0  0
   11.9780    0.4600   23.9150 C   0  0  0  0  0  0  0  0  0  0  0  0
    3.1949    1.4123   19.8822 C   0  0  0  0  0  0  0  0  0  0  0  0
    5.7013    1.8855   21.1059 C   0  0  0  0  0  0  0  0  0  0  0  0
   10.6560    0.0720   23.7350 C   0  0  0  0  0  0  0  0  0  0  0  0
   12.9840   -0.1200   23.1530 C   0  0  0  0  0  0  0  0  0  0  0  0
   11.3360   -1.5050   22.0650 C   0  0  0  0  0  0  0  0  0  0  0  0
    4.3143    0.6576   19.5824 C   0  0  0  0  0  0  0  0  0  0  0  0
    5.5544    0.8673   20.1753 C   0  0  0  0  0  0  0  0  0  0  0  0
   10.3220   -0.8940   22.7910 C   0  0  0  0  0  0  0  0  0  0  0  0
   12.6400   -1.1000   22.2390 C   0  0  0  0  0  0  0  0  0  0  0  0
    4.4350   -0.4489   18.6469 C   0  0  0  0  0  0  0  0  0  0  0  0
    8.3880   -0.3240   21.3070 C   0  0  0  0  0  0  0  0  0  0  0  0
    5.8391   -1.0021   18.6991 C   0  0  0  0  0  0  0  0  0  0  0  0
    6.6082   -0.0629   19.6532 C   0  0  2  0  0  0  0  0  0  0  0  0
    8.8810   -1.1900   22.4510 C   0  0  0  0  0  0  0  0  0  0  0  0
    7.2820   -0.7860   20.6970 N   0  0  0  0  0  0  0  0  0  0  0  0
    3.5246   -0.8603   17.9509 O   0  0  0  0  0  0  0  0  0  0  0  0
    8.9170    0.7530   21.0260 O   0  0  0  0  0  0  0  0  0  0  0  0
   13.8840   -1.8490   21.2740 Cl  0  0  0  0  0  0  0  0  0  0  0  0
    2.4887    3.0470   21.0912 H   0  0  0  0  0  0  0  0  0  0  0  0
    4.6837    3.4649   22.1616 H   0  0  0  0  0  0  0  0  0  0  0  0
   12.2249    1.2198   24.6546 H   0  0  0  0  0  0  0  0  0  0  0  0
    2.2371    1.2285   19.4087 H   0  0  0  0  0  0  0  0  0  0  0  0
    6.6601    2.0822   21.5742 H   0  0  0  0  0  0  0  0  0  0  0  0
    9.8763    0.5350   24.3454 H   0  0  0  0  0  0  0  0  0  0  0  0
   14.0077    0.1988   23.2842 H   0  0  0  0  0  0  0  0  0  0  0  0
   11.0892   -2.3009   21.3624 H   0  0  0  0  0  0  0  0  0  0  0  0
    5.7994   -2.0327   19.0673 H   0  0  0  0  0  0  0  0  0  0  0  0
    6.2833   -0.9874   17.6990 H   0  0  0  0  0  0  0  0  0  0  0  0
    7.3651    0.5005   19.0964 H   0  0  0  0  0  0  0  0  0  0  0  0
    8.7773   -2.2383   22.1737 H   0  0  0  0  0  0  0  0  0  0  0  0
    8.2516   -1.0144   23.3225 H   0  0  0  0  0  0  0  0  0  0  0  0
    6.9055   -1.6873   20.9872 H   0  0  0  0  0  0  0  0  0  0  0  0
  1  2  1  0  0  0  0
  1  4  2  0  0  0  0
  2  5  2  0  0  0  0
  3  6  2  0  0  0  0
  3  7  1  0  0  0  0
  4  9  1  0  0  0  0
  5 10  1  0  0  0  0
  6 11  1  0  0  0  0
  7 12  2  0  0  0  0
  8 11  2  0  0  0  0
  8 12  1  0  0  0  0
  9 10  2  0  0  0  0
  9 13  1  0  0  0  0
 10 16  1  0  0  0  0
 11 17  1  0  0  0  0
 12 21  1  0  0  0  0
 13 15  1  0  0  0  0
 13 19  2  0  0  0  0
 14 17  1  0  0  0  0
 14 18  1  0  0  0  0
 14 20  2  0  0  0  0
 15 16  1  0  0  0  0
 16 18  1  6  0  0  0
  1 22  1  0  0  0  0
  2 23  1  0  0  0  0
  3 24  1  0  0  0  0
  4 25  1  0  0  0  0
  5 26  1  0  0  0  0
  6 27  1  0  0  0  0
  7 28  1  0  0  0  0
  8 29  1  0  0  0  0
 15 30  1  0  0  0  0
 15 31  1  0  0  0  0
 16 32  1  0  0  0  0
 17 33  1  0  0  0  0
 17 34  1  0  0  0  0
 18 35  1  0  0  0  0
M  END
> <compound>
RUB-POS-1325a9ea-16

> <compound_smiles>
c1ccc2c(c1)C(CC2=O)NC(=O)Cc3cccc(c3)Cl

> <enantiomer_smiles>
c1ccc2c(c1)[C@H](CC2=O)NC(=O)Cc3cccc(c3)Cl

> <scaffold>
chlorobenzene-linker

> <clash_score>
1.7081601588795325

> <docking_score>
-4.778533458709717

> <overlap_score>
0.8566766381263733

> <MMFF_internal_energy>
43.81988696962861

> <docked_smiles>
c1ccc2c(c1)[C@H](CC2=O)NC(=O)Cc3cccc(c3)Cl

$$$$
RUB-POS-1325a9ea-11_1
  -OEChem-07262101023D

 30 32  0     0  0  0  0  0  0999 V2000
   11.9780    0.4600   23.9150 C   0  0  0  0  0  0  0  0  0  0  0  0
   10.6560    0.0720   23.7350 C   0  0  0  0  0  0  0  0  0  0  0  0
   12.9840   -0.1200   23.1530 C   0  0  0  0  0  0  0  0  0  0  0  0
   11.3360   -1.5050   22.0650 C   0  0  0  0  0  0  0  0  0  0  0  0
    5.2385    0.8953   17.4103 C   0  0  0  0  0  0  0  0  0  0  0  0
    7.1660   -0.0119   18.3852 C   0  0  0  0  0  0  0  0  0  0  0  0
    3.2491    0.6020   20.2576 C   0  0  0  0  0  0  0  0  0  0  0  0
   10.3220   -0.8940   22.7910 C   0  0  0  0  0  0  0  0  0  0  0  0
    4.5690    0.7167   18.6184 C   0  0  0  0  0  0  0  0  0  0  0  0
    6.5901   -0.2311   19.6288 C   0  0  0  0  0  0  0  0  0  0  0  0
    5.2658    0.1622   19.6805 C   0  0  0  0  0  0  0  0  0  0  0  0
   12.6400   -1.1000   22.2390 C   0  0  0  0  0  0  0  0  0  0  0  0
    8.3880   -0.3240   21.3070 C   0  0  0  0  0  0  0  0  0  0  0  0
    8.8810   -1.1900   22.4510 C   0  0  0  0  0  0  0  0  0  0  0  0
    6.5414    0.5263   17.3045 N   0  0  0  0  0  0  0  0  0  0  0  0
    3.2801    0.9928   19.0023 N   0  0  0  0  0  0  0  0  0  0  0  0
    7.2820   -0.7860   20.6970 N   0  0  0  0  0  0  0  0  0  0  0  0
    8.9170    0.7530   21.0260 O   0  0  0  0  0  0  0  0  0  0  0  0
    4.4132    0.0868   20.7442 O   0  0  0  0  0  0  0  0  0  0  0  0
   13.8840   -1.8490   21.2740 Cl  0  0  0  0  0  0  0  0  0  0  0  0
   12.2249    1.2198   24.6546 H   0  0  0  0  0  0  0  0  0  0  0  0
    9.8763    0.5350   24.3454 H   0  0  0  0  0  0  0  0  0  0  0  0
   14.0077    0.1988   23.2842 H   0  0  0  0  0  0  0  0  0  0  0  0
   11.0892   -2.3009   21.3624 H   0  0  0  0  0  0  0  0  0  0  0  0
    4.7798    1.3193   16.5262 H   0  0  0  0  0  0  0  0  0  0  0  0
    8.2055   -0.2759   18.2058 H   0  0  0  0  0  0  0  0  0  0  0  0
    2.4173    0.6403   20.9449 H   0  0  0  0  0  0  0  0  0  0  0  0
    8.7774   -2.2383   22.1732 H   0  0  0  0  0  0  0  0  0  0  0  0
    8.2557   -1.0153   23.3257 H   0  0  0  0  0  0  0  0  0  0  0  0
    6.8986   -1.6655   21.0707 H   0  0  0  0  0  0  0  0  0  0  0  0
  1  2  1  0  0  0  0
  1  3  2  0  0  0  0
  2  8  2  0  0  0  0
  3 12  1  0  0  0  0
  4  8  1  0  0  0  0
  4 12  2  0  0  0  0
  5  9  2  0  0  0  0
  5 15  1  0  0  0  0
  6 10  1  0  0  0  0
  6 15  2  0  0  0  0
  7 16  2  0  0  0  0
  7 19  1  0  0  0  0
  8 14  1  0  0  0  0
  9 11  1  0  0  0  0
  9 16  1  0  0  0  0
 10 11  2  0  0  0  0
 10 17  1  0  0  0  0
 11 19  1  0  0  0  0
 12 20  1  0  0  0  0
 13 14  1  0  0  0  0
 13 17  1  0  0  0  0
 13 18  2  0  0  0  0
  1 21  1  0  0  0  0
  2 22  1  0  0  0  0
  3 23  1  0  0  0  0
  4 24  1  0  0  0  0
  5 25  1  0  0  0  0
  6 26  1  0  0  0  0
  7 27  1  0  0  0  0
 14 28  1  0  0  0  0
 14 29  1  0  0  0  0
 17 30  1  0  0  0  0
M  END
> <compound>
RUB-POS-1325a9ea-11

> <compound_smiles>
c1cc(cc(c1)Cl)CC(=O)Nc2cncc3c2ocn3

> <enantiomer_smiles>
c1cc(cc(c1)Cl)CC(=O)Nc2cncc3c2ocn3

> <scaffold>
chlorobenzene-linker

> <clash_score>
0

> <docking_score>
-6.462063789367676

> <overlap_score>
0.8839800953865051

> <MMFF_internal_energy>
85.78157903602307

> <docked_smiles>
c1cc(cc(c1)Cl)CC(=O)Nc2cncc3c2ocn3

$$$$
RUB-POS-1325a9ea-16_1
  -OEChem-07262101023D

 35 37  0     1  0  0  0  0  0999 V2000
    5.4889    3.9687   20.5093 C   0  0  0  0  0  0  0  0  0  0  0  0
    5.0172    2.9683   21.3755 C   0  0  0  0  0  0  0  0  0  0  0  0
   11.9780    0.4600   23.9150 C   0  0  0  0  0  0  0  0  0  0  0  0
    6.2957    3.6409   19.4202 C   0  0  0  0  0  0  0  0  0  0  0  0
    5.3470    1.6250   21.1645 C   0  0  0  0  0  0  0  0  0  0  0  0
   10.6560    0.0720   23.7350 C   0  0  0  0  0  0  0  0  0  0  0  0
   12.9840   -0.1200   23.1530 C   0  0  0  0  0  0  0  0  0  0  0  0
   11.3360   -1.5050   22.0650 C   0  0  0  0  0  0  0  0  0  0  0  0
    6.6064    2.3057   19.2393 C   0  0  0  0  0  0  0  0  0  0  0  0
    6.1561    1.2992   20.0863 C   0  0  0  0  0  0  0  0  0  0  0  0
   10.3220   -0.8940   22.7910 C   0  0  0  0  0  0  0  0  0  0  0  0
   12.6400   -1.1000   22.2390 C   0  0  0  0  0  0  0  0  0  0  0  0
    7.4225    1.6982   18.1998 C   0  0  0  0  0  0  0  0  0  0  0  0
    8.3880   -0.3240   21.3070 C   0  0  0  0  0  0  0  0  0  0  0  0
    7.5329    0.2125   18.4490 C   0  0  0  0  0  0  0  0  0  0  0  0
    6.6082   -0.0625   19.6530 C   0  0  1  0  0  0  0  0  0  0  0  0
    8.8810   -1.1900   22.4510 C   0  0  0  0  0  0  0  0  0  0  0  0
    7.2820   -0.7860   20.6970 N   0  0  0  0  0  0  0  0  0  0  0  0
    7.9411    2.3156   17.2876 O   0  0  0  0  0  0  0  0  0  0  0  0
    8.9170    0.7530   21.0260 O   0  0  0  0  0  0  0  0  0  0  0  0
   13.8840   -1.8490   21.2740 Cl  0  0  0  0  0  0  0  0  0  0  0  0
    5.2192    5.0058   20.6896 H   0  0  0  0  0  0  0  0  0  0  0  0
    4.3863    3.2419   22.2170 H   0  0  0  0  0  0  0  0  0  0  0  0
   12.2249    1.2198   24.6546 H   0  0  0  0  0  0  0  0  0  0  0  0
    6.6600    4.4095   18.7482 H   0  0  0  0  0  0  0  0  0  0  0  0
    4.9705    0.8587   21.8344 H   0  0  0  0  0  0  0  0  0  0  0  0
    9.8763    0.5350   24.3454 H   0  0  0  0  0  0  0  0  0  0  0  0
   14.0077    0.1988   23.2842 H   0  0  0  0  0  0  0  0  0  0  0  0
   11.0892   -2.3008   21.3624 H   0  0  0  0  0  0  0  0  0  0  0  0
    7.1956   -0.3396   17.5663 H   0  0  0  0  0  0  0  0  0  0  0  0
    8.5794   -0.0337   18.6575 H   0  0  0  0  0  0  0  0  0  0  0  0
    5.7464   -0.6607   19.3370 H   0  0  0  0  0  0  0  0  0  0  0  0
    8.7773   -2.2383   22.1737 H   0  0  0  0  0  0  0  0  0  0  0  0
    8.2516   -1.0144   23.3225 H   0  0  0  0  0  0  0  0  0  0  0  0
    6.9055   -1.6871   20.9870 H   0  0  0  0  0  0  0  0  0  0  0  0
  1  2  1  0  0  0  0
  1  4  2  0  0  0  0
  2  5  2  0  0  0  0
  3  6  2  0  0  0  0
  3  7  1  0  0  0  0
  4  9  1  0  0  0  0
  5 10  1  0  0  0  0
  6 11  1  0  0  0  0
  7 12  2  0  0  0  0
  8 11  2  0  0  0  0
  8 12  1  0  0  0  0
  9 10  2  0  0  0  0
  9 13  1  0  0  0  0
 10 16  1  0  0  0  0
 11 17  1  0  0  0  0
 12 21  1  0  0  0  0
 13 15  1  0  0  0  0
 13 19  2  0  0  0  0
 14 17  1  0  0  0  0
 14 18  1  0  0  0  0
 14 20  2  0  0  0  0
 15 16  1  0  0  0  0
 16 18  1  1  0  0  0
  1 22  1  0  0  0  0
  2 23  1  0  0  0  0
  3 24  1  0  0  0  0
  4 25  1  0  0  0  0
  5 26  1  0  0  0  0
  6 27  1  0  0  0  0
  7 28  1  0  0  0  0
  8 29  1  0  0  0  0
 15 30  1  0  0  0  0
 15 31  1  0  0  0  0
 16 32  1  0  0  0  0
 17 33  1  0  0  0  0
 17 34  1  0  0  0  0
 18 35  1  0  0  0  0
M  END
> <compound>
RUB-POS-1325a9ea-16

> <compound_smiles>
c1ccc2c(c1)C(CC2=O)NC(=O)Cc3cccc(c3)Cl

> <enantiomer_smiles>
c1ccc2c(c1)[C@@H](CC2=O)NC(=O)Cc3cccc(c3)Cl

> <scaffold>
chlorobenzene-linker

> <clash_score>
1.9428286163591255

> <docking_score>
-2.8852522373199463

> <overlap_score>
0.7349602580070496

> <MMFF_internal_energy>
47.05925591434181

> <docked_smiles>
c1ccc2c(c1)[C@@H](CC2=O)NC(=O)Cc3cccc(c3)Cl

$$$$
RUB-POS-1325a9ea-13_1
  -OEChem-07262101023D

 31 33  0     0  0  0  0  0  0999 V2000
   11.9780    0.4600   23.9150 C   0  0  0  0  0  0  0  0  0  0  0  0
   10.6560    0.0720   23.7350 C   0  0  0  0  0  0  0  0  0  0  0  0
   12.9840   -0.1200   23.1530 C   0  0  0  0  0  0  0  0  0  0  0  0
   11.3360   -1.5050   22.0650 C   0  0  0  0  0  0  0  0  0  0  0  0
    4.2407    0.1572   20.6966 C   0  0  0  0  0  0  0  0  0  0  0  0
    5.3001    0.8900   17.3901 C   0  0  0  0  0  0  0  0  0  0  0  0
    7.1991   -0.0214   18.3941 C   0  0  0  0  0  0  0  0  0  0  0  0
    5.2496    0.1611   19.7096 C   0  0  0  0  0  0  0  0  0  0  0  0
   10.3220   -0.8940   22.7910 C   0  0  0  0  0  0  0  0  0  0  0  0
    4.6329    0.7110   18.5922 C   0  0  0  0  0  0  0  0  0  0  0  0
    6.5901   -0.2280   19.6263 C   0  0  0  0  0  0  0  0  0  0  0  0
   12.6400   -1.1000   22.2390 C   0  0  0  0  0  0  0  0  0  0  0  0
    8.3880   -0.3240   21.3070 C   0  0  0  0  0  0  0  0  0  0  0  0
    8.8810   -1.1900   22.4510 C   0  0  0  0  0  0  0  0  0  0  0  0
    6.5988    0.5148   17.3037 N   0  0  0  0  0  0  0  0  0  0  0  0
    3.0832    0.6573   20.2570 N   0  0  0  0  0  0  0  0  0  0  0  0
    3.3508    0.9838   18.9812 N   0  0  0  0  0  0  0  0  0  0  0  0
    7.2820   -0.7860   20.6970 N   0  0  0  0  0  0  0  0  0  0  0  0
    8.9170    0.7530   21.0260 O   0  0  0  0  0  0  0  0  0  0  0  0
   13.8840   -1.8490   21.2740 Cl  0  0  0  0  0  0  0  0  0  0  0  0
   12.2249    1.2198   24.6546 H   0  0  0  0  0  0  0  0  0  0  0  0
    9.8763    0.5350   24.3454 H   0  0  0  0  0  0  0  0  0  0  0  0
   14.0077    0.1988   23.2842 H   0  0  0  0  0  0  0  0  0  0  0  0
   11.0892   -2.3009   21.3624 H   0  0  0  0  0  0  0  0  0  0  0  0
    4.3012   -0.1893   21.7187 H   0  0  0  0  0  0  0  0  0  0  0  0
    4.8434    1.3148   16.5065 H   0  0  0  0  0  0  0  0  0  0  0  0
    8.2394   -0.2953   18.2380 H   0  0  0  0  0  0  0  0  0  0  0  0
    8.7774   -2.2383   22.1732 H   0  0  0  0  0  0  0  0  0  0  0  0
    8.2557   -1.0153   23.3257 H   0  0  0  0  0  0  0  0  0  0  0  0
    2.6087    1.3919   18.4265 H   0  0  0  0  0  0  0  0  0  0  0  0
    6.8984   -1.6642   21.0696 H   0  0  0  0  0  0  0  0  0  0  0  0
  1  2  1  0  0  0  0
  1  3  2  0  0  0  0
  2  9  2  0  0  0  0
  3 12  1  0  0  0  0
  4  9  1  0  0  0  0
  4 12  2  0  0  0  0
  5  8  1  0  0  0  0
  5 16  2  0  0  0  0
  6 10  2  0  0  0  0
  6 15  1  0  0  0  0
  7 11  1  0  0  0  0
  7 15  2  0  0  0  0
  8 10  1  0  0  0  0
  8 11  2  0  0  0  0
  9 14  1  0  0  0  0
 10 17  1  0  0  0  0
 11 18  1  0  0  0  0
 12 20  1  0  0  0  0
 13 14  1  0  0  0  0
 13 18  1  0  0  0  0
 13 19  2  0  0  0  0
 16 17  1  0  0  0  0
  1 21  1  0  0  0  0
  2 22  1  0  0  0  0
  3 23  1  0  0  0  0
  4 24  1  0  0  0  0
  5 25  1  0  0  0  0
  6 26  1  0  0  0  0
  7 27  1  0  0  0  0
 14 28  1  0  0  0  0
 14 29  1  0  0  0  0
 17 30  1  0  0  0  0
 18 31  1  0  0  0  0
M  END
> <compound>
RUB-POS-1325a9ea-13

> <compound_smiles>
c1cc(cc(c1)Cl)CC(=O)Nc2cncc3c2cn[nH]3

> <enantiomer_smiles>
c1cc(cc(c1)Cl)CC(=O)Nc2cncc3c2cn[nH]3

> <scaffold>
chlorobenzene-linker

> <canonical_CID>
RUB-POS-1325a9ea-13

> <r_inhibition_at_20_uM>

> <r_inhibition_at_50_uM>

> <r_avg_IC50>

> <f_inhibition_at_20_uM>

> <f_inhibition_at_50_uM>

> <f_avg_IC50>
21.8158142685698

> <f_avg_pIC50>

> <relative_solubility_at_20_uM>

> <relative_solubility_at_100_uM>

> <trypsin_IC50>

> <NMR_std_ratio>

> <acrylamide>
False

> <chloroacetamide>
False

> <series>
3-aminopyridine-like

> <frag_id>

> <clash_score>
0

> <docking_score>
-6.507342338562012

> <overlap_score>
0.8822033405303955

> <MMFF_internal_energy>
75.9516290154517

> <docked_smiles>
c1cc(cc(c1)Cl)CC(=O)Nc2cncc3c2cn[nH]3

$$$$
RUB-POS-1325a9ea-19_1
  -OEChem-07262101023D

 40 41  0     0  0  0  0  0  0999 V2000
   11.9780    0.4600   23.9150 C   0  0  0  0  0  0  0  0  0  0  0  0
   10.6560    0.0720   23.7350 C   0  0  0  0  0  0  0  0  0  0  0  0
   12.9840   -0.1200   23.1530 C   0  0  0  0  0  0  0  0  0  0  0  0
    4.6098    0.7103   18.6300 C   0  0  0  0  0  0  0  0  0  0  0  0
   11.3360   -1.5050   22.0650 C   0  0  0  0  0  0  0  0  0  0  0  0
    5.3346    0.8626   17.4590 C   0  0  0  0  0  0  0  0  0  0  0  0
    7.2263   -0.0310   18.4083 C   0  0  0  0  0  0  0  0  0  0  0  0
   10.3220   -0.8940   22.7910 C   0  0  0  0  0  0  0  0  0  0  0  0
    5.2569    0.1554   19.7285 C   0  0  0  0  0  0  0  0  0  0  0  0
    6.5902   -0.2250   19.6239 C   0  0  0  0  0  0  0  0  0  0  0  0
   12.6400   -1.1000   22.2390 C   0  0  0  0  0  0  0  0  0  0  0  0
    8.3880   -0.3240   21.3070 C   0  0  0  0  0  0  0  0  0  0  0  0
    3.2647   -0.9507   20.8026 C   0  0  0  0  0  0  0  0  0  0  0  0
    3.9772    1.3476   21.5417 C   0  0  0  0  0  0  0  0  0  0  0  0
    5.3108   -0.6503   22.1828 C   0  0  0  0  0  0  0  0  0  0  0  0
    8.8810   -1.1900   22.4510 C   0  0  0  0  0  0  0  0  0  0  0  0
    4.4772   -0.0249   21.0415 C   0  0  0  0  0  0  0  0  0  0  0  0
    6.6308    0.5050   17.3194 N   0  0  0  0  0  0  0  0  0  0  0  0
    7.2820   -0.7860   20.6970 N   0  0  0  0  0  0  0  0  0  0  0  0
    8.9170    0.7530   21.0260 O   0  0  0  0  0  0  0  0  0  0  0  0
   13.8840   -1.8490   21.2740 Cl  0  0  0  0  0  0  0  0  0  0  0  0
   12.2249    1.2198   24.6546 H   0  0  0  0  0  0  0  0  0  0  0  0
    9.8763    0.5350   24.3454 H   0  0  0  0  0  0  0  0  0  0  0  0
   14.0077    0.1988   23.2842 H   0  0  0  0  0  0  0  0  0  0  0  0
    3.5706    1.0175   18.6788 H   0  0  0  0  0  0  0  0  0  0  0  0
   11.0892   -2.3009   21.3624 H   0  0  0  0  0  0  0  0  0  0  0  0
    4.8759    1.2905   16.5737 H   0  0  0  0  0  0  0  0  0  0  0  0
    8.2665   -0.3081   18.2643 H   0  0  0  0  0  0  0  0  0  0  0  0
    2.6905   -1.0960   21.7251 H   0  0  0  0  0  0  0  0  0  0  0  0
    2.5734   -0.5443   20.0562 H   0  0  0  0  0  0  0  0  0  0  0  0
    3.5858   -1.9381   20.4503 H   0  0  0  0  0  0  0  0  0  0  0  0
    3.4143    1.2678   22.4780 H   0  0  0  0  0  0  0  0  0  0  0  0
    4.8152    2.0293   21.7291 H   0  0  0  0  0  0  0  0  0  0  0  0
    3.3206    1.8216   20.8025 H   0  0  0  0  0  0  0  0  0  0  0  0
    4.7126   -0.7583   23.0956 H   0  0  0  0  0  0  0  0  0  0  0  0
    5.6742   -1.6497   21.9165 H   0  0  0  0  0  0  0  0  0  0  0  0
    6.1769   -0.0284   22.4374 H   0  0  0  0  0  0  0  0  0  0  0  0
    8.7774   -2.2383   22.1732 H   0  0  0  0  0  0  0  0  0  0  0  0
    8.2557   -1.0153   23.3257 H   0  0  0  0  0  0  0  0  0  0  0  0
    6.8983   -1.6631   21.0685 H   0  0  0  0  0  0  0  0  0  0  0  0
  1  2  2  0  0  0  0
  1  3  1  0  0  0  0
  2  8  1  0  0  0  0
  3 11  2  0  0  0  0
  4  6  2  0  0  0  0
  4  9  1  0  0  0  0
  5  8  2  0  0  0  0
  5 11  1  0  0  0  0
  6 18  1  0  0  0  0
  7 10  1  0  0  0  0
  7 18  2  0  0  0  0
  8 16  1  0  0  0  0
  9 10  2  0  0  0  0
  9 17  1  0  0  0  0
 10 19  1  0  0  0  0
 11 21  1  0  0  0  0
 12 16  1  0  0  0  0
 12 19  1  0  0  0  0
 12 20  2  0  0  0  0
 13 17  1  0  0  0  0
 14 17  1  0  0  0  0
 15 17  1  0  0  0  0
  1 22  1  0  0  0  0
  2 23  1  0  0  0  0
  3 24  1  0  0  0  0
  4 25  1  0  0  0  0
  5 26  1  0  0  0  0
  6 27  1  0  0  0  0
  7 28  1  0  0  0  0
 13 29  1  0  0  0  0
 13 30  1  0  0  0  0
 13 31  1  0  0  0  0
 14 32  1  0  0  0  0
 14 33  1  0  0  0  0
 14 34  1  0  0  0  0
 15 35  1  0  0  0  0
 15 36  1  0  0  0  0
 15 37  1  0  0  0  0
 16 38  1  0  0  0  0
 16 39  1  0  0  0  0
 19 40  1  0  0  0  0
M  END
> <compound>
RUB-POS-1325a9ea-19

> <compound_smiles>
CC(C)(C)c1ccncc1NC(=O)Cc2cccc(c2)Cl

> <enantiomer_smiles>
CC(C)(C)c1ccncc1NC(=O)Cc2cccc(c2)Cl

> <scaffold>
chlorobenzene-linker

> <clash_score>
2.182524827781343

> <docking_score>
-7.651515960693359

> <overlap_score>
0.8881059288978577

> <MMFF_internal_energy>
110.49234537127758

> <docked_smiles>
CC(C)(C)c1ccncc1NC(=O)Cc2cccc(c2)Cl

$$$$
RUB-POS-1325a9ea-20_1
  -OEChem-07262101023D

 37 39  0     1  0  0  0  0  0999 V2000
    3.6771    2.7740   21.0876 C   0  0  0  0  0  0  0  0  0  0  0  0
    4.8869    2.6296   21.7614 C   0  0  0  0  0  0  0  0  0  0  0  0
   11.9780    0.4600   23.9150 C   0  0  0  0  0  0  0  0  0  0  0  0
    3.4174    2.0091   19.9518 C   0  0  0  0  0  0  0  0  0  0  0  0
    5.8354    1.7125   21.3072 C   0  0  0  0  0  0  0  0  0  0  0  0
   10.6560    0.0720   23.7350 C   0  0  0  0  0  0  0  0  0  0  0  0
   12.9840   -0.1200   23.1530 C   0  0  0  0  0  0  0  0  0  0  0  0
   11.3360   -1.5050   22.0650 C   0  0  0  0  0  0  0  0  0  0  0  0
    4.3682    1.0932   19.4815 C   0  0  0  0  0  0  0  0  0  0  0  0
    5.5786    0.9192   20.1785 C   0  0  0  0  0  0  0  0  0  0  0  0
   10.3220   -0.8940   22.7910 C   0  0  0  0  0  0  0  0  0  0  0  0
   12.6400   -1.1000   22.2390 C   0  0  0  0  0  0  0  0  0  0  0  0
    8.3880   -0.3240   21.3070 C   0  0  0  0  0  0  0  0  0  0  0  0
    4.0663    0.2678   18.2579 C   0  0  0  0  0  0  0  0  0  0  0  0
    5.9889   -1.0391   18.6582 C   0  0  0  0  0  0  0  0  0  0  0  0
    6.6103   -0.0547   19.6495 C   0  0  2  0  0  0  0  0  0  0  0  0
    8.8810   -1.1900   22.4510 C   0  0  0  0  0  0  0  0  0  0  0  0
    7.2820   -0.7860   20.6970 N   0  0  0  0  0  0  0  0  0  0  0  0
    8.9170    0.7530   21.0260 O   0  0  0  0  0  0  0  0  0  0  0  0
    5.2388   -0.3152   17.6828 O   0  0  0  0  0  0  0  0  0  0  0  0
   13.8840   -1.8490   21.2740 Cl  0  0  0  0  0  0  0  0  0  0  0  0
    2.9372    3.4835   21.4453 H   0  0  0  0  0  0  0  0  0  0  0  0
    5.0940    3.2320   22.6415 H   0  0  0  0  0  0  0  0  0  0  0  0
   12.2249    1.2198   24.6546 H   0  0  0  0  0  0  0  0  0  0  0  0
    2.4701    2.1308   19.4323 H   0  0  0  0  0  0  0  0  0  0  0  0
    6.7799    1.6178   21.8396 H   0  0  0  0  0  0  0  0  0  0  0  0
    9.8763    0.5350   24.3454 H   0  0  0  0  0  0  0  0  0  0  0  0
   14.0077    0.1988   23.2842 H   0  0  0  0  0  0  0  0  0  0  0  0
   11.0892   -2.3009   21.3624 H   0  0  0  0  0  0  0  0  0  0  0  0
    3.3965   -0.5559   18.5193 H   0  0  0  0  0  0  0  0  0  0  0  0
    3.5748    0.8891   17.5026 H   0  0  0  0  0  0  0  0  0  0  0  0
    6.7557   -1.6405   18.1565 H   0  0  0  0  0  0  0  0  0  0  0  0
    5.3137   -1.7326   19.1681 H   0  0  0  0  0  0  0  0  0  0  0  0
    7.4031    0.5033   19.1080 H   0  0  0  0  0  0  0  0  0  0  0  0
    8.7773   -2.2383   22.1737 H   0  0  0  0  0  0  0  0  0  0  0  0
    8.2516   -1.0144   23.3225 H   0  0  0  0  0  0  0  0  0  0  0  0
    6.9051   -1.6836   20.9844 H   0  0  0  0  0  0  0  0  0  0  0  0
  1  2  1  0  0  0  0
  1  4  2  0  0  0  0
  2  5  2  0  0  0  0
  3  6  2  0  0  0  0
  3  7  1  0  0  0  0
  4  9  1  0  0  0  0
  5 10  1  0  0  0  0
  6 11  1  0  0  0  0
  7 12  2  0  0  0  0
  8 11  2  0  0  0  0
  8 12  1  0  0  0  0
  9 10  2  0  0  0  0
  9 14  1  0  0  0  0
 10 16  1  0  0  0  0
 11 17  1  0  0  0  0
 12 21  1  0  0  0  0
 13 17  1  0  0  0  0
 13 18  1  0  0  0  0
 13 19  2  0  0  0  0
 14 20  1  0  0  0  0
 15 16  1  0  0  0  0
 15 20  1  0  0  0  0
 16 18  1  1  0  0  0
  1 22  1  0  0  0  0
  2 23  1  0  0  0  0
  3 24  1  0  0  0  0
  4 25  1  0  0  0  0
  5 26  1  0  0  0  0
  6 27  1  0  0  0  0
  7 28  1  0  0  0  0
  8 29  1  0  0  0  0
 14 30  1  0  0  0  0
 14 31  1  0  0  0  0
 15 32  1  0  0  0  0
 15 33  1  0  0  0  0
 16 34  1  0  0  0  0
 17 35  1  0  0  0  0
 17 36  1  0  0  0  0
 18 37  1  0  0  0  0
M  END
> <compound>
RUB-POS-1325a9ea-20

> <compound_smiles>
c1ccc2c(c1)COCC2NC(=O)Cc3cccc(c3)Cl

> <enantiomer_smiles>
c1ccc2c(c1)COC[C@@H]2NC(=O)Cc3cccc(c3)Cl

> <scaffold>
chlorobenzene-linker

> <canonical_CID>
RUB-POS-1325a9ea-20

> <r_inhibition_at_20_uM>

> <r_inhibition_at_50_uM>

> <r_avg_IC50>

> <f_inhibition_at_20_uM>

> <f_inhibition_at_50_uM>

> <f_avg_IC50>
68.9520443122952

> <f_avg_pIC50>

> <relative_solubility_at_20_uM>

> <relative_solubility_at_100_uM>

> <trypsin_IC50>

> <NMR_std_ratio>

> <acrylamide>
False

> <chloroacetamide>
False

> <series>
3-aminopyridine-like

> <frag_id>

> <clash_score>
0

> <docking_score>
-6.655941963195801

> <overlap_score>
0.8886571526527405

> <MMFF_internal_energy>
74.00163615188345

> <docked_smiles>
c1ccc2c(c1)COC[C@@H]2NC(=O)Cc3cccc(c3)Cl

$$$$
RUB-POS-1325a9ea-22_1
  -OEChem-07262101023D

 33 35  0     0  0  0  0  0  0999 V2000
    3.0218    0.6399   20.6038 C   0  0  0  0  0  0  0  0  0  0  0  0
    2.6872    1.2716   19.3891 C   0  0  0  0  0  0  0  0  0  0  0  0
   11.9780    0.4600   23.9150 C   0  0  0  0  0  0  0  0  0  0  0  0
    4.3061    0.1275   20.8235 C   0  0  0  0  0  0  0  0  0  0  0  0
    3.6287    1.4048   18.3677 C   0  0  0  0  0  0  0  0  0  0  0  0
   10.6560    0.0720   23.7350 C   0  0  0  0  0  0  0  0  0  0  0  0
   12.9840   -0.1200   23.1530 C   0  0  0  0  0  0  0  0  0  0  0  0
   11.3360   -1.5050   22.0650 C   0  0  0  0  0  0  0  0  0  0  0  0
    5.2371    0.2598   19.8120 C   0  0  0  0  0  0  0  0  0  0  0  0
    4.8846    0.8914   18.6107 C   0  0  0  0  0  0  0  0  0  0  0  0
   10.3220   -0.8940   22.7910 C   0  0  0  0  0  0  0  0  0  0  0  0
   12.6400   -1.1000   22.2390 C   0  0  0  0  0  0  0  0  0  0  0  0
    6.6291   -0.1597   19.7353 C   0  0  0  0  0  0  0  0  0  0  0  0
    6.0750    0.8751   17.7501 C   0  0  0  0  0  0  0  0  0  0  0  0
    8.3880   -0.3240   21.3070 C   0  0  0  0  0  0  0  0  0  0  0  0
    8.8810   -1.1900   22.4510 C   0  0  0  0  0  0  0  0  0  0  0  0
    7.0891    0.2089   18.5318 N   0  3  0  0  0  0  0  0  0  0  0  0
    7.2820   -0.7860   20.6970 N   0  0  0  0  0  0  0  0  0  0  0  0
    6.2409    1.3037   16.6293 O   0  0  0  0  0  0  0  0  0  0  0  0
    8.9170    0.7530   21.0260 O   0  0  0  0  0  0  0  0  0  0  0  0
   13.8840   -1.8490   21.2740 Cl  0  0  0  0  0  0  0  0  0  0  0  0
    2.2684    0.5509   21.3825 H   0  0  0  0  0  0  0  0  0  0  0  0
    1.6818    1.6600   19.2489 H   0  0  0  0  0  0  0  0  0  0  0  0
   12.2249    1.2198   24.6546 H   0  0  0  0  0  0  0  0  0  0  0  0
    4.5507   -0.3556   21.7627 H   0  0  0  0  0  0  0  0  0  0  0  0
    3.3770    1.8899   17.4325 H   0  0  0  0  0  0  0  0  0  0  0  0
    9.8763    0.5350   24.3454 H   0  0  0  0  0  0  0  0  0  0  0  0
   14.0077    0.1988   23.2842 H   0  0  0  0  0  0  0  0  0  0  0  0
   11.0892   -2.3009   21.3624 H   0  0  0  0  0  0  0  0  0  0  0  0
    8.2535   -1.0146   23.3240 H   0  0  0  0  0  0  0  0  0  0  0  0
    8.7756   -2.2377   22.1724 H   0  0  0  0  0  0  0  0  0  0  0  0
    8.0420    0.0244   18.2410 H   0  0  0  0  0  0  0  0  0  0  0  0
    6.9404   -1.7043   21.0286 H   0  0  0  0  0  0  0  0  0  0  0  0
  1  2  1  0  0  0  0
  1  4  2  0  0  0  0
  2  5  2  0  0  0  0
  3  6  2  0  0  0  0
  3  7  1  0  0  0  0
  4  9  1  0  0  0  0
  5 10  1  0  0  0  0
  6 11  1  0  0  0  0
  7 12  2  0  0  0  0
  8 11  2  0  0  0  0
  8 12  1  0  0  0  0
  9 10  2  0  0  0  0
  9 13  1  0  0  0  0
 10 14  1  0  0  0  0
 11 16  1  0  0  0  0
 12 21  1  0  0  0  0
 13 17  2  0  0  0  0
 13 18  1  0  0  0  0
 14 17  1  0  0  0  0
 14 19  2  0  0  0  0
 15 16  1  0  0  0  0
 15 18  1  0  0  0  0
 15 20  2  0  0  0  0
  1 22  1  0  0  0  0
  2 23  1  0  0  0  0
  3 24  1  0  0  0  0
  4 25  1  0  0  0  0
  5 26  1  0  0  0  0
  6 27  1  0  0  0  0
  7 28  1  0  0  0  0
  8 29  1  0  0  0  0
 16 30  1  0  0  0  0
 16 31  1  0  0  0  0
 17 32  1  0  0  0  0
 18 33  1  0  0  0  0
M  CHG  1  17   1
M  END
> <compound>
RUB-POS-1325a9ea-22

> <compound_smiles>
c1ccc2c(c1)C(=NC2=O)NC(=O)Cc3cccc(c3)Cl

> <enantiomer_smiles>
c1ccc2c(c1)C(=NC2=O)NC(=O)Cc3cccc(c3)Cl

> <scaffold>
chlorobenzene-linker

> <canonical_CID>
RUB-POS-1325a9ea-22

> <r_inhibition_at_20_uM>

> <r_inhibition_at_50_uM>

> <r_avg_IC50>

> <f_inhibition_at_20_uM>

> <f_inhibition_at_50_uM>

> <f_avg_IC50>
99.5

> <f_avg_pIC50>

> <relative_solubility_at_20_uM>

> <relative_solubility_at_100_uM>

> <trypsin_IC50>

> <NMR_std_ratio>

> <acrylamide>
False

> <chloroacetamide>
False

> <series>
3-aminopyridine-like

> <frag_id>

> <clash_score>
0

> <docking_score>
-4.561781406402588

> <overlap_score>
0.9086366891860962

> <MMFF_internal_energy>
12.65566734813139

> <docked_smiles>
c1ccc2c(c1)C(=[NH+]C2=O)NC(=O)Cc3cccc(c3)Cl

$$$$
RUB-POS-1325a9ea-20_2
  -OEChem-07262101023D

 37 39  0     1  0  0  0  0  0999 V2000
    5.1474    3.8223   20.8782 C   0  0  0  0  0  0  0  0  0  0  0  0
    5.0428    2.7379   21.7449 C   0  0  0  0  0  0  0  0  0  0  0  0
   11.9780    0.4600   23.9150 C   0  0  0  0  0  0  0  0  0  0  0  0
    5.7199    3.6538   19.6189 C   0  0  0  0  0  0  0  0  0  0  0  0
    5.5200    1.4848   21.3584 C   0  0  0  0  0  0  0  0  0  0  0  0
   10.6560    0.0720   23.7350 C   0  0  0  0  0  0  0  0  0  0  0  0
   12.9840   -0.1200   23.1530 C   0  0  0  0  0  0  0  0  0  0  0  0
   11.3360   -1.5050   22.0650 C   0  0  0  0  0  0  0  0  0  0  0  0
    6.1923    2.3967   19.2173 C   0  0  0  0  0  0  0  0  0  0  0  0
    6.1196    1.3044   20.1024 C   0  0  0  0  0  0  0  0  0  0  0  0
   10.3220   -0.8940   22.7910 C   0  0  0  0  0  0  0  0  0  0  0  0
   12.6400   -1.1000   22.2390 C   0  0  0  0  0  0  0  0  0  0  0  0
    8.3880   -0.3240   21.3070 C   0  0  0  0  0  0  0  0  0  0  0  0
    6.8182    2.2371   17.8560 C   0  0  0  0  0  0  0  0  0  0  0  0
    7.5320    0.0647   18.4348 C   0  0  0  0  0  0  0  0  0  0  0  0
    6.6105   -0.0548   19.6497 C   0  0  1  0  0  0  0  0  0  0  0  0
    8.8810   -1.1900   22.4510 C   0  0  0  0  0  0  0  0  0  0  0  0
    7.2820   -0.7860   20.6970 N   0  0  0  0  0  0  0  0  0  0  0  0
    8.9170    0.7530   21.0260 O   0  0  0  0  0  0  0  0  0  0  0  0
    6.8983    0.8707   17.4414 O   0  0  0  0  0  0  0  0  0  0  0  0
   13.8840   -1.8490   21.2740 Cl  0  0  0  0  0  0  0  0  0  0  0  0
    4.7809    4.7981   21.1819 H   0  0  0  0  0  0  0  0  0  0  0  0
    4.5887    2.8660   22.7235 H   0  0  0  0  0  0  0  0  0  0  0  0
   12.2249    1.2198   24.6546 H   0  0  0  0  0  0  0  0  0  0  0  0
    5.7957    4.5070   18.9491 H   0  0  0  0  0  0  0  0  0  0  0  0
    5.4226    0.6451   22.0441 H   0  0  0  0  0  0  0  0  0  0  0  0
    9.8763    0.5350   24.3454 H   0  0  0  0  0  0  0  0  0  0  0  0
   14.0077    0.1988   23.2842 H   0  0  0  0  0  0  0  0  0  0  0  0
   11.0892   -2.3009   21.3624 H   0  0  0  0  0  0  0  0  0  0  0  0
    6.2404    2.7972   17.1139 H   0  0  0  0  0  0  0  0  0  0  0  0
    7.8396    2.6272   17.8669 H   0  0  0  0  0  0  0  0  0  0  0  0
    8.4799    0.5369   18.7092 H   0  0  0  0  0  0  0  0  0  0  0  0
    7.7677   -0.9185   18.0118 H   0  0  0  0  0  0  0  0  0  0  0  0
    5.7432   -0.6792   19.3467 H   0  0  0  0  0  0  0  0  0  0  0  0
    8.7773   -2.2383   22.1737 H   0  0  0  0  0  0  0  0  0  0  0  0
    8.2516   -1.0144   23.3225 H   0  0  0  0  0  0  0  0  0  0  0  0
    6.9051   -1.6836   20.9843 H   0  0  0  0  0  0  0  0  0  0  0  0
  1  2  1  0  0  0  0
  1  4  2  0  0  0  0
  2  5  2  0  0  0  0
  3  6  2  0  0  0  0
  3  7  1  0  0  0  0
  4  9  1  0  0  0  0
  5 10  1  0  0  0  0
  6 11  1  0  0  0  0
  7 12  2  0  0  0  0
  8 11  2  0  0  0  0
  8 12  1  0  0  0  0
  9 10  2  0  0  0  0
  9 14  1  0  0  0  0
 10 16  1  0  0  0  0
 11 17  1  0  0  0  0
 12 21  1  0  0  0  0
 13 17  1  0  0  0  0
 13 18  1  0  0  0  0
 13 19  2  0  0  0  0
 14 20  1  0  0  0  0
 15 16  1  0  0  0  0
 15 20  1  0  0  0  0
 16 18  1  6  0  0  0
  1 22  1  0  0  0  0
  2 23  1  0  0  0  0
  3 24  1  0  0  0  0
  4 25  1  0  0  0  0
  5 26  1  0  0  0  0
  6 27  1  0  0  0  0
  7 28  1  0  0  0  0
  8 29  1  0  0  0  0
 14 30  1  0  0  0  0
 14 31  1  0  0  0  0
 15 32  1  0  0  0  0
 15 33  1  0  0  0  0
 16 34  1  0  0  0  0
 17 35  1  0  0  0  0
 17 36  1  0  0  0  0
 18 37  1  0  0  0  0
M  END
> <compound>
RUB-POS-1325a9ea-20

> <compound_smiles>
c1ccc2c(c1)COCC2NC(=O)Cc3cccc(c3)Cl

> <enantiomer_smiles>
c1ccc2c(c1)COC[C@H]2NC(=O)Cc3cccc(c3)Cl

> <scaffold>
chlorobenzene-linker

> <canonical_CID>
RUB-POS-1325a9ea-20

> <r_inhibition_at_20_uM>

> <r_inhibition_at_50_uM>

> <r_avg_IC50>

> <f_inhibition_at_20_uM>

> <f_inhibition_at_50_uM>

> <f_avg_IC50>
68.9520443122952

> <f_avg_pIC50>

> <relative_solubility_at_20_uM>

> <relative_solubility_at_100_uM>

> <trypsin_IC50>

> <NMR_std_ratio>

> <acrylamide>
False

> <chloroacetamide>
False

> <series>
3-aminopyridine-like

> <frag_id>

> <clash_score>
1.2592172209034307

> <docking_score>
-4.842255592346191

> <overlap_score>
0.7736387848854065

> <MMFF_internal_energy>
73.83087898206938

> <docked_smiles>
c1ccc2c(c1)COC[C@H]2NC(=O)Cc3cccc(c3)Cl

$$$$
RUB-POS-1325a9ea-8_1
  -OEChem-07262101023D

 31 33  0     0  0  0  0  0  0999 V2000
   11.9780    0.4600   23.9150 C   0  0  0  0  0  0  0  0  0  0  0  0
   10.6560    0.0720   23.7350 C   0  0  0  0  0  0  0  0  0  0  0  0
   12.9840   -0.1200   23.1530 C   0  0  0  0  0  0  0  0  0  0  0  0
   11.3360   -1.5050   22.0650 C   0  0  0  0  0  0  0  0  0  0  0  0
    4.2005    2.1948   20.5859 C   0  0  0  0  0  0  0  0  0  0  0  0
    4.1741    2.2831   19.2129 C   0  0  0  0  0  0  0  0  0  0  0  0
   10.3220   -0.8940   22.7910 C   0  0  0  0  0  0  0  0  0  0  0  0
   12.6400   -1.1000   22.2390 C   0  0  0  0  0  0  0  0  0  0  0  0
    5.6733    0.8036   19.9066 C   0  0  0  0  0  0  0  0  0  0  0  0
    7.0007   -0.4086   18.3664 C   0  0  0  0  0  0  0  0  0  0  0  0
    5.5017    1.0791   17.4928 C   0  0  0  0  0  0  0  0  0  0  0  0
    6.6802   -0.1571   19.6489 C   0  0  0  0  0  0  0  0  0  0  0  0
    8.3880   -0.3240   21.3070 C   0  0  0  0  0  0  0  0  0  0  0  0
    8.8810   -1.1900   22.4510 C   0  0  0  0  0  0  0  0  0  0  0  0
    5.1309    1.2768   21.0102 N   0  0  0  0  0  0  0  0  0  0  0  0
    6.4267    0.1959   17.2646 N   0  0  0  0  0  0  0  0  0  0  0  0
    5.1182    1.3906   18.7909 N   0  0  0  0  0  0  0  0  0  0  0  0
    7.2820   -0.7860   20.6970 N   0  0  0  0  0  0  0  0  0  0  0  0
    8.9170    0.7530   21.0260 O   0  0  0  0  0  0  0  0  0  0  0  0
   13.8840   -1.8490   21.2740 Cl  0  0  0  0  0  0  0  0  0  0  0  0
   12.2249    1.2198   24.6546 H   0  0  0  0  0  0  0  0  0  0  0  0
    9.8763    0.5350   24.3454 H   0  0  0  0  0  0  0  0  0  0  0  0
   14.0077    0.1988   23.2842 H   0  0  0  0  0  0  0  0  0  0  0  0
   11.0892   -2.3009   21.3624 H   0  0  0  0  0  0  0  0  0  0  0  0
    3.5962    2.7461   21.2914 H   0  0  0  0  0  0  0  0  0  0  0  0
    3.5876    2.8808   18.5291 H   0  0  0  0  0  0  0  0  0  0  0  0
    7.7684   -1.1391   18.1279 H   0  0  0  0  0  0  0  0  0  0  0  0
    5.0038    1.5979   16.6579 H   0  0  0  0  0  0  0  0  0  0  0  0
    8.2535   -1.0146   23.3240 H   0  0  0  0  0  0  0  0  0  0  0  0
    8.7756   -2.2377   22.1724 H   0  0  0  0  0  0  0  0  0  0  0  0
    6.8624   -1.6489   21.0262 H   0  0  0  0  0  0  0  0  0  0  0  0
  1  2  1  0  0  0  0
  1  3  2  0  0  0  0
  2  7  2  0  0  0  0
  3  8  1  0  0  0  0
  4  7  1  0  0  0  0
  4  8  2  0  0  0  0
  5  6  2  0  0  0  0
  5 15  1  0  0  0  0
  6 17  1  0  0  0  0
  7 14  1  0  0  0  0
  8 20  1  0  0  0  0
  9 12  1  0  0  0  0
  9 15  2  0  0  0  0
  9 17  1  0  0  0  0
 10 12  2  0  0  0  0
 10 16  1  0  0  0  0
 11 16  2  0  0  0  0
 11 17  1  0  0  0  0
 12 18  1  0  0  0  0
 13 14  1  0  0  0  0
 13 18  1  0  0  0  0
 13 19  2  0  0  0  0
  1 21  1  0  0  0  0
  2 22  1  0  0  0  0
  3 23  1  0  0  0  0
  4 24  1  0  0  0  0
  5 25  1  0  0  0  0
  6 26  1  0  0  0  0
 10 27  1  0  0  0  0
 11 28  1  0  0  0  0
 14 29  1  0  0  0  0
 14 30  1  0  0  0  0
 18 31  1  0  0  0  0
M  END
> <compound>
RUB-POS-1325a9ea-8

> <compound_smiles>
c1cc(cc(c1)Cl)CC(=O)Nc2cncn3c2ncc3

> <enantiomer_smiles>
c1cc(cc(c1)Cl)CC(=O)Nc2cncn3c2ncc3

> <scaffold>
chlorobenzene-linker

> <clash_score>
0

> <docking_score>
-12.147761344909668

> <overlap_score>
0.9545473456382751

> <MMFF_internal_energy>
88.98757245191948

> <docked_smiles>
c1cc(cc(c1)Cl)CC(=O)Nc2cncn3c2ncc3

$$$$
RUB-POS-1325a9ea-23_1
  -OEChem-07262101023D

 34 36  0     1  0  0  0  0  0999 V2000
    5.2380    3.1903   21.1344 C   0  0  0  0  0  0  0  0  0  0  0  0
    5.9004    4.0737   20.2619 C   0  0  0  0  0  0  0  0  0  0  0  0
   11.9780    0.4600   23.9150 C   0  0  0  0  0  0  0  0  0  0  0  0
    5.4075    1.8067   21.0201 C   0  0  0  0  0  0  0  0  0  0  0  0
   10.6560    0.0720   23.7350 C   0  0  0  0  0  0  0  0  0  0  0  0
    6.7430    3.5895   19.2597 C   0  0  0  0  0  0  0  0  0  0  0  0
   12.9840   -0.1200   23.1530 C   0  0  0  0  0  0  0  0  0  0  0  0
   11.3360   -1.5050   22.0650 C   0  0  0  0  0  0  0  0  0  0  0  0
    6.2468    1.3343   20.0284 C   0  0  0  0  0  0  0  0  0  0  0  0
   10.3220   -0.8940   22.7910 C   0  0  0  0  0  0  0  0  0  0  0  0
    6.8930    2.2204   19.1686 C   0  0  0  0  0  0  0  0  0  0  0  0
   12.6400   -1.1000   22.2390 C   0  0  0  0  0  0  0  0  0  0  0  0
    7.5853    0.1315   18.4876 C   0  0  0  0  0  0  0  0  0  0  0  0
    8.3880   -0.3240   21.3070 C   0  0  0  0  0  0  0  0  0  0  0  0
    6.6075   -0.0696   19.6571 C   0  0  1  0  0  0  0  0  0  0  0  0
    8.8810   -1.1900   22.4510 C   0  0  0  0  0  0  0  0  0  0  0  0
    7.6754    1.5111   18.2634 N   0  0  0  0  0  0  0  0  0  0  0  0
    7.2820   -0.7860   20.6970 N   0  0  0  0  0  0  0  0  0  0  0  0
    8.1839   -0.7532   17.8947 O   0  0  0  0  0  0  0  0  0  0  0  0
    8.9170    0.7530   21.0260 O   0  0  0  0  0  0  0  0  0  0  0  0
   13.8840   -1.8490   21.2740 Cl  0  0  0  0  0  0  0  0  0  0  0  0
    4.5852    3.5901   21.9058 H   0  0  0  0  0  0  0  0  0  0  0  0
    5.7522    5.1447   20.3710 H   0  0  0  0  0  0  0  0  0  0  0  0
   12.2249    1.2198   24.6546 H   0  0  0  0  0  0  0  0  0  0  0  0
    4.8919    1.1299   21.6921 H   0  0  0  0  0  0  0  0  0  0  0  0
    9.8763    0.5350   24.3454 H   0  0  0  0  0  0  0  0  0  0  0  0
    7.2543    4.2675   18.5862 H   0  0  0  0  0  0  0  0  0  0  0  0
   14.0077    0.1988   23.2842 H   0  0  0  0  0  0  0  0  0  0  0  0
   11.0892   -2.3009   21.3624 H   0  0  0  0  0  0  0  0  0  0  0  0
    5.7372   -0.6354   19.3124 H   0  0  0  0  0  0  0  0  0  0  0  0
    8.7773   -2.2383   22.1737 H   0  0  0  0  0  0  0  0  0  0  0  0
    8.2516   -1.0144   23.3225 H   0  0  0  0  0  0  0  0  0  0  0  0
    8.2376    1.9372   17.5360 H   0  0  0  0  0  0  0  0  0  0  0  0
    6.9058   -1.6899   20.9892 H   0  0  0  0  0  0  0  0  0  0  0  0
  1  2  1  0  0  0  0
  1  4  2  0  0  0  0
  2  6  2  0  0  0  0
  3  5  2  0  0  0  0
  3  7  1  0  0  0  0
  4  9  1  0  0  0  0
  5 10  1  0  0  0  0
  6 11  1  0  0  0  0
  7 12  2  0  0  0  0
  8 10  2  0  0  0  0
  8 12  1  0  0  0  0
  9 11  2  0  0  0  0
  9 15  1  0  0  0  0
 10 16  1  0  0  0  0
 11 17  1  0  0  0  0
 12 21  1  0  0  0  0
 13 15  1  0  0  0  0
 13 17  1  0  0  0  0
 13 19  2  0  0  0  0
 14 16  1  0  0  0  0
 14 18  1  0  0  0  0
 14 20  2  0  0  0  0
 15 18  1  1  0  0  0
  1 22  1  0  0  0  0
  2 23  1  0  0  0  0
  3 24  1  0  0  0  0
  4 25  1  0  0  0  0
  5 26  1  0  0  0  0
  6 27  1  0  0  0  0
  7 28  1  0  0  0  0
  8 29  1  0  0  0  0
 15 30  1  0  0  0  0
 16 31  1  0  0  0  0
 16 32  1  0  0  0  0
 17 33  1  0  0  0  0
 18 34  1  0  0  0  0
M  END
> <compound>
RUB-POS-1325a9ea-23

> <compound_smiles>
c1ccc2c(c1)C(C(=O)N2)NC(=O)Cc3cccc(c3)Cl

> <enantiomer_smiles>
c1ccc2c(c1)[C@@H](C(=O)N2)NC(=O)Cc3cccc(c3)Cl

> <scaffold>
chlorobenzene-linker

> <clash_score>
2.0784572346609744

> <docking_score>
-3.099950075149536

> <overlap_score>
0.7295798659324646

> <MMFF_internal_energy>
58.94367715001033

> <docked_smiles>
c1ccc2c(c1)[C@@H](C(=O)N2)NC(=O)Cc3cccc(c3)Cl

$$$$
RUB-POS-1325a9ea-17_1
  -OEChem-07262101023D

 34 36  0     0  0  0  0  0  0999 V2000
    5.5348    3.1334   20.8417 C   0  0  0  0  0  0  0  0  0  0  0  0
    4.8625    3.6150   19.7209 C   0  0  0  0  0  0  0  0  0  0  0  0
   11.9780    0.4600   23.9150 C   0  0  0  0  0  0  0  0  0  0  0  0
    6.1118    1.8625   20.8206 C   0  0  0  0  0  0  0  0  0  0  0  0
    4.7642    2.8279   18.5737 C   0  0  0  0  0  0  0  0  0  0  0  0
   10.6560    0.0720   23.7350 C   0  0  0  0  0  0  0  0  0  0  0  0
   12.9840   -0.1200   23.1530 C   0  0  0  0  0  0  0  0  0  0  0  0
   11.3360   -1.5050   22.0650 C   0  0  0  0  0  0  0  0  0  0  0  0
    6.4589   -0.9563   18.4527 C   0  0  0  0  0  0  0  0  0  0  0  0
    6.0225    1.0563   19.6740 C   0  0  0  0  0  0  0  0  0  0  0  0
    5.3410    1.5474   18.5413 C   0  0  0  0  0  0  0  0  0  0  0  0
   10.3220   -0.8940   22.7910 C   0  0  0  0  0  0  0  0  0  0  0  0
    6.5902   -0.2220   19.6215 C   0  0  0  0  0  0  0  0  0  0  0  0
   12.6400   -1.1000   22.2390 C   0  0  0  0  0  0  0  0  0  0  0  0
    5.2729    0.7178   17.4203 C   0  0  0  0  0  0  0  0  0  0  0  0
    8.3880   -0.3240   21.3070 C   0  0  0  0  0  0  0  0  0  0  0  0
    8.8810   -1.1900   22.4510 C   0  0  0  0  0  0  0  0  0  0  0  0
    5.8145   -0.5192   17.3499 N   0  0  0  0  0  0  0  0  0  0  0  0
    7.2820   -0.7860   20.6970 N   0  0  0  0  0  0  0  0  0  0  0  0
    8.9170    0.7530   21.0260 O   0  0  0  0  0  0  0  0  0  0  0  0
    4.6305    1.1539   16.3234 F   0  0  0  0  0  0  0  0  0  0  0  0
   13.8840   -1.8490   21.2740 Cl  0  0  0  0  0  0  0  0  0  0  0  0
    5.6104    3.7480   21.7342 H   0  0  0  0  0  0  0  0  0  0  0  0
    4.4146    4.6043   19.7400 H   0  0  0  0  0  0  0  0  0  0  0  0
   12.2249    1.2198   24.6546 H   0  0  0  0  0  0  0  0  0  0  0  0
    6.6284    1.5218   21.7150 H   0  0  0  0  0  0  0  0  0  0  0  0
    4.2352    3.2221   17.7092 H   0  0  0  0  0  0  0  0  0  0  0  0
    9.8763    0.5350   24.3454 H   0  0  0  0  0  0  0  0  0  0  0  0
   14.0077    0.1988   23.2842 H   0  0  0  0  0  0  0  0  0  0  0  0
   11.0892   -2.3008   21.3624 H   0  0  0  0  0  0  0  0  0  0  0  0
    6.8812   -1.9529   18.3611 H   0  0  0  0  0  0  0  0  0  0  0  0
    8.7774   -2.2383   22.1732 H   0  0  0  0  0  0  0  0  0  0  0  0
    8.2557   -1.0153   23.3257 H   0  0  0  0  0  0  0  0  0  0  0  0
    6.8981   -1.6619   21.0674 H   0  0  0  0  0  0  0  0  0  0  0  0
  1  2  1  0  0  0  0
  1  4  2  0  0  0  0
  2  5  2  0  0  0  0
  3  6  2  0  0  0  0
  3  7  1  0  0  0  0
  4 10  1  0  0  0  0
  5 11  1  0  0  0  0
  6 12  1  0  0  0  0
  7 14  2  0  0  0  0
  8 12  2  0  0  0  0
  8 14  1  0  0  0  0
  9 13  1  0  0  0  0
  9 18  2  0  0  0  0
 10 11  1  0  0  0  0
 10 13  2  0  0  0  0
 11 15  2  0  0  0  0
 12 17  1  0  0  0  0
 13 19  1  0  0  0  0
 14 22  1  0  0  0  0
 15 18  1  0  0  0  0
 15 21  1  0  0  0  0
 16 17  1  0  0  0  0
 16 19  1  0  0  0  0
 16 20  2  0  0  0  0
  1 23  1  0  0  0  0
  2 24  1  0  0  0  0
  3 25  1  0  0  0  0
  4 26  1  0  0  0  0
  5 27  1  0  0  0  0
  6 28  1  0  0  0  0
  7 29  1  0  0  0  0
  8 30  1  0  0  0  0
  9 31  1  0  0  0  0
 17 32  1  0  0  0  0
 17 33  1  0  0  0  0
 19 34  1  0  0  0  0
M  END
> <compound>
RUB-POS-1325a9ea-17

> <compound_smiles>
c1ccc2c(c1)c(cnc2F)NC(=O)Cc3cccc(c3)Cl

> <enantiomer_smiles>
c1ccc2c(c1)c(cnc2F)NC(=O)Cc3cccc(c3)Cl

> <scaffold>
chlorobenzene-linker

> <clash_score>
0.6450238560374976

> <docking_score>
-4.53425407409668

> <overlap_score>
0.8516097664833069

> <MMFF_internal_energy>
96.36381454888686

> <docked_smiles>
c1ccc2c(c1)c(cnc2F)NC(=O)Cc3cccc(c3)Cl

$$$$
RUB-POS-1325a9ea-14_1
  -OEChem-07262101023D

 34 36  0     0  0  0  0  0  0999 V2000
   11.9780    0.4600   23.9150 C   0  0  0  0  0  0  0  0  0  0  0  0
   10.6560    0.0720   23.7350 C   0  0  0  0  0  0  0  0  0  0  0  0
   12.9840   -0.1200   23.1530 C   0  0  0  0  0  0  0  0  0  0  0  0
   11.3360   -1.5050   22.0650 C   0  0  0  0  0  0  0  0  0  0  0  0
    5.2125    0.7895   17.3915 C   0  0  0  0  0  0  0  0  0  0  0  0
    4.9106    2.8366   18.9782 C   0  0  0  0  0  0  0  0  0  0  0  0
    6.4232   -0.9144   18.4323 C   0  0  0  0  0  0  0  0  0  0  0  0
    5.3267    1.5591   18.5493 C   0  0  0  0  0  0  0  0  0  0  0  0
   10.3220   -0.8940   22.7910 C   0  0  0  0  0  0  0  0  0  0  0  0
    6.0112    1.0341   19.6385 C   0  0  0  0  0  0  0  0  0  0  0  0
    6.5901   -0.2287   19.6269 C   0  0  0  0  0  0  0  0  0  0  0  0
   12.6400   -1.1000   22.2390 C   0  0  0  0  0  0  0  0  0  0  0  0
    8.3880   -0.3240   21.3070 C   0  0  0  0  0  0  0  0  0  0  0  0
    6.5178    1.9519   21.9314 C   0  0  0  0  0  0  0  0  0  0  0  0
    8.8810   -1.1900   22.4510 C   0  0  0  0  0  0  0  0  0  0  0  0
    5.7652   -0.4478   17.3431 N   0  0  0  0  0  0  0  0  0  0  0  0
    5.2901    3.1116   20.2284 N   0  0  0  0  0  0  0  0  0  0  0  0
    5.9539    2.0045   20.6018 N   0  0  0  0  0  0  0  0  0  0  0  0
    7.2820   -0.7860   20.6970 N   0  0  0  0  0  0  0  0  0  0  0  0
    8.9170    0.7530   21.0260 O   0  0  0  0  0  0  0  0  0  0  0  0
   13.8840   -1.8490   21.2740 Cl  0  0  0  0  0  0  0  0  0  0  0  0
   12.2249    1.2198   24.6546 H   0  0  0  0  0  0  0  0  0  0  0  0
    9.8763    0.5350   24.3454 H   0  0  0  0  0  0  0  0  0  0  0  0
   14.0077    0.1988   23.2842 H   0  0  0  0  0  0  0  0  0  0  0  0
   11.0892   -2.3009   21.3624 H   0  0  0  0  0  0  0  0  0  0  0  0
    4.6963    1.1231   16.4997 H   0  0  0  0  0  0  0  0  0  0  0  0
    4.3461    3.5785   18.4313 H   0  0  0  0  0  0  0  0  0  0  0  0
    6.8342   -1.9130   18.3058 H   0  0  0  0  0  0  0  0  0  0  0  0
    7.5352    2.3488   21.8822 H   0  0  0  0  0  0  0  0  0  0  0  0
    5.9058    2.5520   22.6105 H   0  0  0  0  0  0  0  0  0  0  0  0
    6.5271    0.9152   22.2792 H   0  0  0  0  0  0  0  0  0  0  0  0
    8.7774   -2.2383   22.1732 H   0  0  0  0  0  0  0  0  0  0  0  0
    8.2557   -1.0153   23.3257 H   0  0  0  0  0  0  0  0  0  0  0  0
    6.8984   -1.6645   21.0699 H   0  0  0  0  0  0  0  0  0  0  0  0
  1  2  2  0  0  0  0
  1  3  1  0  0  0  0
  2  9  1  0  0  0  0
  3 12  2  0  0  0  0
  4  9  2  0  0  0  0
  4 12  1  0  0  0  0
  5  8  2  0  0  0  0
  5 16  1  0  0  0  0
  6  8  1  0  0  0  0
  6 17  2  0  0  0  0
  7 11  1  0  0  0  0
  7 16  2  0  0  0  0
  8 10  1  0  0  0  0
  9 15  1  0  0  0  0
 10 11  2  0  0  0  0
 10 18  1  0  0  0  0
 11 19  1  0  0  0  0
 12 21  1  0  0  0  0
 13 15  1  0  0  0  0
 13 19  1  0  0  0  0
 13 20  2  0  0  0  0
 14 18  1  0  0  0  0
 17 18  1  0  0  0  0
  1 22  1  0  0  0  0
  2 23  1  0  0  0  0
  3 24  1  0  0  0  0
  4 25  1  0  0  0  0
  5 26  1  0  0  0  0
  6 27  1  0  0  0  0
  7 28  1  0  0  0  0
 14 29  1  0  0  0  0
 14 30  1  0  0  0  0
 14 31  1  0  0  0  0
 15 32  1  0  0  0  0
 15 33  1  0  0  0  0
 19 34  1  0  0  0  0
M  END
> <compound>
RUB-POS-1325a9ea-14

> <compound_smiles>
Cn1c2c(cncc2NC(=O)Cc3cccc(c3)Cl)cn1

> <enantiomer_smiles>
Cn1c2c(cncc2NC(=O)Cc3cccc(c3)Cl)cn1

> <scaffold>
chlorobenzene-linker

> <canonical_CID>
RUB-POS-1325a9ea-14

> <r_inhibition_at_20_uM>

> <r_inhibition_at_50_uM>

> <r_avg_IC50>

> <f_inhibition_at_20_uM>

> <f_inhibition_at_50_uM>

> <f_avg_IC50>
1.49602478359548

> <f_avg_pIC50>

> <relative_solubility_at_20_uM>

> <relative_solubility_at_100_uM>

> <trypsin_IC50>

> <NMR_std_ratio>

> <acrylamide>
False

> <chloroacetamide>
False

> <series>
3-aminopyridine-like

> <frag_id>

> <clash_score>
0

> <docking_score>
-6.326560974121094

> <overlap_score>
0.8466646671295166

> <MMFF_internal_energy>
88.97073225456816

> <docked_smiles>
Cn1c2c(cncc2NC(=O)Cc3cccc(c3)Cl)cn1

$$$$
RUB-POS-1325a9ea-18_1
  -OEChem-07262101023D

 34 36  0     0  0  0  0  0  0999 V2000
    4.8692    3.6179   19.7376 C   0  0  0  0  0  0  0  0  0  0  0  0
    5.5424    3.1310   20.8556 C   0  0  0  0  0  0  0  0  0  0  0  0
   11.9780    0.4600   23.9150 C   0  0  0  0  0  0  0  0  0  0  0  0
    4.7678    2.8353   18.5877 C   0  0  0  0  0  0  0  0  0  0  0  0
    6.1172    1.8592   20.8288 C   0  0  0  0  0  0  0  0  0  0  0  0
   10.6560    0.0720   23.7350 C   0  0  0  0  0  0  0  0  0  0  0  0
   12.9840   -0.1200   23.1530 C   0  0  0  0  0  0  0  0  0  0  0  0
   11.3360   -1.5050   22.0650 C   0  0  0  0  0  0  0  0  0  0  0  0
    5.2711    0.7286   17.4256 C   0  0  0  0  0  0  0  0  0  0  0  0
    5.3424    1.5540   18.5495 C   0  0  0  0  0  0  0  0  0  0  0  0
    6.0247    1.0574   19.6794 C   0  0  0  0  0  0  0  0  0  0  0  0
   10.3220   -0.8940   22.7910 C   0  0  0  0  0  0  0  0  0  0  0  0
    6.5902   -0.2216   19.6212 C   0  0  0  0  0  0  0  0  0  0  0  0
   12.6400   -1.1000   22.2390 C   0  0  0  0  0  0  0  0  0  0  0  0
    6.4558   -0.9513   18.4499 C   0  0  0  0  0  0  0  0  0  0  0  0
    8.3880   -0.3240   21.3070 C   0  0  0  0  0  0  0  0  0  0  0  0
    8.8810   -1.1900   22.4510 C   0  0  0  0  0  0  0  0  0  0  0  0
    5.8105   -0.5090   17.3497 N   0  0  0  0  0  0  0  0  0  0  0  0
    7.2820   -0.7860   20.6970 N   0  0  0  0  0  0  0  0  0  0  0  0
    8.9170    0.7530   21.0260 O   0  0  0  0  0  0  0  0  0  0  0  0
    6.9945   -2.1803   18.3822 F   0  0  0  0  0  0  0  0  0  0  0  0
   13.8840   -1.8490   21.2740 Cl  0  0  0  0  0  0  0  0  0  0  0  0
    4.4224    4.6077   19.7615 H   0  0  0  0  0  0  0  0  0  0  0  0
    5.6207    3.7423   21.7501 H   0  0  0  0  0  0  0  0  0  0  0  0
   12.2249    1.2198   24.6546 H   0  0  0  0  0  0  0  0  0  0  0  0
    4.2382    3.2308   17.7239 H   0  0  0  0  0  0  0  0  0  0  0  0
    6.6346    1.5146   21.7211 H   0  0  0  0  0  0  0  0  0  0  0  0
    9.8763    0.5350   24.3454 H   0  0  0  0  0  0  0  0  0  0  0  0
   14.0077    0.1988   23.2842 H   0  0  0  0  0  0  0  0  0  0  0  0
   11.0892   -2.3009   21.3624 H   0  0  0  0  0  0  0  0  0  0  0  0
    4.7611    1.0498   16.5216 H   0  0  0  0  0  0  0  0  0  0  0  0
    8.7774   -2.2383   22.1732 H   0  0  0  0  0  0  0  0  0  0  0  0
    8.2557   -1.0153   23.3257 H   0  0  0  0  0  0  0  0  0  0  0  0
    6.8981   -1.6617   21.0673 H   0  0  0  0  0  0  0  0  0  0  0  0
  1  2  1  0  0  0  0
  1  4  2  0  0  0  0
  2  5  2  0  0  0  0
  3  6  2  0  0  0  0
  3  7  1  0  0  0  0
  4 10  1  0  0  0  0
  5 11  1  0  0  0  0
  6 12  1  0  0  0  0
  7 14  2  0  0  0  0
  8 12  2  0  0  0  0
  8 14  1  0  0  0  0
  9 10  2  0  0  0  0
  9 18  1  0  0  0  0
 10 11  1  0  0  0  0
 11 13  2  0  0  0  0
 12 17  1  0  0  0  0
 13 15  1  0  0  0  0
 13 19  1  0  0  0  0
 14 22  1  0  0  0  0
 15 18  2  0  0  0  0
 15 21  1  0  0  0  0
 16 17  1  0  0  0  0
 16 19  1  0  0  0  0
 16 20  2  0  0  0  0
  1 23  1  0  0  0  0
  2 24  1  0  0  0  0
  3 25  1  0  0  0  0
  4 26  1  0  0  0  0
  5 27  1  0  0  0  0
  6 28  1  0  0  0  0
  7 29  1  0  0  0  0
  8 30  1  0  0  0  0
  9 31  1  0  0  0  0
 17 32  1  0  0  0  0
 17 33  1  0  0  0  0
 19 34  1  0  0  0  0
M  END
> <compound>
RUB-POS-1325a9ea-18

> <compound_smiles>
c1ccc2c(c1)cnc(c2NC(=O)Cc3cccc(c3)Cl)F

> <enantiomer_smiles>
c1ccc2c(c1)cnc(c2NC(=O)Cc3cccc(c3)Cl)F

> <scaffold>
chlorobenzene-linker

> <clash_score>
0.6443029198741642

> <docking_score>
-4.860954761505127

> <overlap_score>
0.846001148223877

> <MMFF_internal_energy>
101.52357277865116

> <docked_smiles>
c1ccc2c(c1)cnc(c2NC(=O)Cc3cccc(c3)Cl)F

$$$$
RUB-POS-1325a9ea-23_2
  -OEChem-07262101023D

 34 36  0     1  0  0  0  0  0999 V2000
    4.2595    2.4832   21.2843 C   0  0  0  0  0  0  0  0  0  0  0  0
    3.0659    2.0301   20.6919 C   0  0  0  0  0  0  0  0  0  0  0  0
   11.9780    0.4600   23.9150 C   0  0  0  0  0  0  0  0  0  0  0  0
    5.4797    1.8569   21.0107 C   0  0  0  0  0  0  0  0  0  0  0  0
   10.6560    0.0720   23.7350 C   0  0  0  0  0  0  0  0  0  0  0  0
    3.0712    0.9435   19.8155 C   0  0  0  0  0  0  0  0  0  0  0  0
   12.9840   -0.1200   23.1530 C   0  0  0  0  0  0  0  0  0  0  0  0
   11.3360   -1.5050   22.0650 C   0  0  0  0  0  0  0  0  0  0  0  0
    5.4768    0.7794   20.1451 C   0  0  0  0  0  0  0  0  0  0  0  0
   10.3220   -0.8940   22.7910 C   0  0  0  0  0  0  0  0  0  0  0  0
    4.2881    0.3433   19.5625 C   0  0  0  0  0  0  0  0  0  0  0  0
   12.6400   -1.1000   22.2390 C   0  0  0  0  0  0  0  0  0  0  0  0
    5.9012   -1.0837   18.7433 C   0  0  0  0  0  0  0  0  0  0  0  0
    8.3880   -0.3240   21.3070 C   0  0  0  0  0  0  0  0  0  0  0  0
    6.6075   -0.0692   19.6569 C   0  0  2  0  0  0  0  0  0  0  0  0
    8.8810   -1.1900   22.4510 C   0  0  0  0  0  0  0  0  0  0  0  0
    4.5411   -0.7481   18.7377 N   0  0  0  0  0  0  0  0  0  0  0  0
    7.2820   -0.7860   20.6970 N   0  0  0  0  0  0  0  0  0  0  0  0
    6.4341   -2.0164   18.1615 O   0  0  0  0  0  0  0  0  0  0  0  0
    8.9170    0.7530   21.0260 O   0  0  0  0  0  0  0  0  0  0  0  0
   13.8840   -1.8490   21.2740 Cl  0  0  0  0  0  0  0  0  0  0  0  0
    4.2310    3.3324   21.9621 H   0  0  0  0  0  0  0  0  0  0  0  0
    2.1304    2.5338   20.9205 H   0  0  0  0  0  0  0  0  0  0  0  0
   12.2249    1.2198   24.6546 H   0  0  0  0  0  0  0  0  0  0  0  0
    6.3973    2.2121   21.4665 H   0  0  0  0  0  0  0  0  0  0  0  0
    9.8763    0.5350   24.3454 H   0  0  0  0  0  0  0  0  0  0  0  0
    2.1536    0.5922   19.3580 H   0  0  0  0  0  0  0  0  0  0  0  0
   14.0077    0.1988   23.2842 H   0  0  0  0  0  0  0  0  0  0  0  0
   11.0892   -2.3009   21.3624 H   0  0  0  0  0  0  0  0  0  0  0  0
    7.3272    0.5103   19.0713 H   0  0  0  0  0  0  0  0  0  0  0  0
    8.7773   -2.2383   22.1737 H   0  0  0  0  0  0  0  0  0  0  0  0
    8.2516   -1.0144   23.3225 H   0  0  0  0  0  0  0  0  0  0  0  0
    3.8220   -1.2403   18.2210 H   0  0  0  0  0  0  0  0  0  0  0  0
    6.9058   -1.6898   20.9891 H   0  0  0  0  0  0  0  0  0  0  0  0
  1  2  1  0  0  0  0
  1  4  2  0  0  0  0
  2  6  2  0  0  0  0
  3  5  2  0  0  0  0
  3  7  1  0  0  0  0
  4  9  1  0  0  0  0
  5 10  1  0  0  0  0
  6 11  1  0  0  0  0
  7 12  2  0  0  0  0
  8 10  2  0  0  0  0
  8 12  1  0  0  0  0
  9 11  2  0  0  0  0
  9 15  1  0  0  0  0
 10 16  1  0  0  0  0
 11 17  1  0  0  0  0
 12 21  1  0  0  0  0
 13 15  1  0  0  0  0
 13 17  1  0  0  0  0
 13 19  2  0  0  0  0
 14 16  1  0  0  0  0
 14 18  1  0  0  0  0
 14 20  2  0  0  0  0
 15 18  1  6  0  0  0
  1 22  1  0  0  0  0
  2 23  1  0  0  0  0
  3 24  1  0  0  0  0
  4 25  1  0  0  0  0
  5 26  1  0  0  0  0
  6 27  1  0  0  0  0
  7 28  1  0  0  0  0
  8 29  1  0  0  0  0
 15 30  1  0  0  0  0
 16 31  1  0  0  0  0
 16 32  1  0  0  0  0
 17 33  1  0  0  0  0
 18 34  1  0  0  0  0
M  END
> <compound>
RUB-POS-1325a9ea-23

> <compound_smiles>
c1ccc2c(c1)C(C(=O)N2)NC(=O)Cc3cccc(c3)Cl

> <enantiomer_smiles>
c1ccc2c(c1)[C@H](C(=O)N2)NC(=O)Cc3cccc(c3)Cl

> <scaffold>
chlorobenzene-linker

> <clash_score>
0.6088108629531825

> <docking_score>
-4.445033073425293

> <overlap_score>
0.8547785878181458

> <MMFF_internal_energy>
51.736088787783004

> <docked_smiles>
c1ccc2c(c1)[C@H](C(=O)N2)NC(=O)Cc3cccc(c3)Cl

$$$$
RUB-POS-1325a9ea-24_2
  -OEChem-07262101023D

 41 43  0     1  0  0  0  0  0999 V2000
    5.4740   -2.6838   17.0965 C   0  0  0  0  0  0  0  0  0  0  0  0
    4.2025   -2.1476   16.8424 C   0  0  0  0  0  0  0  0  0  0  0  0
   11.9780    0.4600   23.9150 C   0  0  0  0  0  0  0  0  0  0  0  0
    6.3297   -2.0752   18.0159 C   0  0  0  0  0  0  0  0  0  0  0  0
   10.6560    0.0720   23.7350 C   0  0  0  0  0  0  0  0  0  0  0  0
    3.7676   -0.9991   17.5088 C   0  0  0  0  0  0  0  0  0  0  0  0
   12.9840   -0.1200   23.1530 C   0  0  0  0  0  0  0  0  0  0  0  0
   11.3360   -1.5050   22.0650 C   0  0  0  0  0  0  0  0  0  0  0  0
    5.8813   -0.9445   18.6792 C   0  0  0  0  0  0  0  0  0  0  0  0
   10.3220   -0.8940   22.7910 C   0  0  0  0  0  0  0  0  0  0  0  0
    4.6107   -0.4158   18.4390 C   0  0  0  0  0  0  0  0  0  0  0  0
   12.6400   -1.1000   22.2390 C   0  0  0  0  0  0  0  0  0  0  0  0
    8.3880   -0.3240   21.3070 C   0  0  0  0  0  0  0  0  0  0  0  0
    6.6081   -0.0636   19.6536 C   0  0  2  0  0  0  0  0  0  0  0  0
    5.4598    0.8887   20.1500 C   0  0  0  0  0  0  0  0  0  0  0  0
    4.8912    0.5171   21.5308 C   0  0  0  0  0  0  0  0  0  0  0  0
    5.9289    2.3465   20.1622 C   0  0  0  0  0  0  0  0  0  0  0  0
    8.8810   -1.1900   22.4510 C   0  0  0  0  0  0  0  0  0  0  0  0
    4.3779    0.7466   19.1660 N   0  0  0  0  0  0  0  0  0  0  0  0
    7.2820   -0.7860   20.6970 N   0  0  0  0  0  0  0  0  0  0  0  0
    8.9170    0.7530   21.0260 O   0  0  0  0  0  0  0  0  0  0  0  0
   13.8840   -1.8490   21.2740 Cl  0  0  0  0  0  0  0  0  0  0  0  0
    5.7985   -3.5729   16.5632 H   0  0  0  0  0  0  0  0  0  0  0  0
    3.5533   -2.6271   16.1147 H   0  0  0  0  0  0  0  0  0  0  0  0
   12.2249    1.2198   24.6546 H   0  0  0  0  0  0  0  0  0  0  0  0
    7.3215   -2.4772   18.1916 H   0  0  0  0  0  0  0  0  0  0  0  0
    9.8763    0.5350   24.3454 H   0  0  0  0  0  0  0  0  0  0  0  0
    2.7879   -0.5822   17.2985 H   0  0  0  0  0  0  0  0  0  0  0  0
   14.0077    0.1988   23.2842 H   0  0  0  0  0  0  0  0  0  0  0  0
   11.0892   -2.3009   21.3624 H   0  0  0  0  0  0  0  0  0  0  0  0
    7.3714    0.4974   19.1011 H   0  0  0  0  0  0  0  0  0  0  0  0
    4.1086    1.2201   21.7962 H   0  0  0  0  0  0  0  0  0  0  0  0
    5.6860    0.5594   22.2679 H   0  0  0  0  0  0  0  0  0  0  0  0
    4.4824   -0.4871   21.4907 H   0  0  0  0  0  0  0  0  0  0  0  0
    5.1211    2.9870   20.5080 H   0  0  0  0  0  0  0  0  0  0  0  0
    6.2198    2.6446   19.1578 H   0  0  0  0  0  0  0  0  0  0  0  0
    6.7812    2.4499   20.8295 H   0  0  0  0  0  0  0  0  0  0  0  0
    8.7773   -2.2383   22.1737 H   0  0  0  0  0  0  0  0  0  0  0  0
    8.2516   -1.0144   23.3225 H   0  0  0  0  0  0  0  0  0  0  0  0
    3.4583    1.1487   19.2797 H   0  0  0  0  0  0  0  0  0  0  0  0
    6.9056   -1.6875   20.9874 H   0  0  0  0  0  0  0  0  0  0  0  0
  1  2  1  0  0  0  0
  1  4  2  0  0  0  0
  2  6  2  0  0  0  0
  3  5  2  0  0  0  0
  3  7  1  0  0  0  0
  4  9  1  0  0  0  0
  5 10  1  0  0  0  0
  6 11  1  0  0  0  0
  7 12  2  0  0  0  0
  8 10  2  0  0  0  0
  8 12  1  0  0  0  0
  9 11  2  0  0  0  0
  9 14  1  0  0  0  0
 10 18  1  0  0  0  0
 11 19  1  0  0  0  0
 12 22  1  0  0  0  0
 13 18  1  0  0  0  0
 13 20  1  0  0  0  0
 13 21  2  0  0  0  0
 14 15  1  0  0  0  0
 14 20  1  6  0  0  0
 15 16  1  0  0  0  0
 15 17  1  0  0  0  0
 15 19  1  0  0  0  0
  1 23  1  0  0  0  0
  2 24  1  0  0  0  0
  3 25  1  0  0  0  0
  4 26  1  0  0  0  0
  5 27  1  0  0  0  0
  6 28  1  0  0  0  0
  7 29  1  0  0  0  0
  8 30  1  0  0  0  0
 14 31  1  0  0  0  0
 16 32  1  0  0  0  0
 16 33  1  0  0  0  0
 16 34  1  0  0  0  0
 17 35  1  0  0  0  0
 17 36  1  0  0  0  0
 17 37  1  0  0  0  0
 18 38  1  0  0  0  0
 18 39  1  0  0  0  0
 19 40  1  0  0  0  0
 20 41  1  0  0  0  0
M  END
> <compound>
RUB-POS-1325a9ea-24

> <compound_smiles>
CC1(C(c2ccccc2N1)NC(=O)Cc3cccc(c3)Cl)C

> <enantiomer_smiles>
CC1([C@H](c2ccccc2N1)NC(=O)Cc3cccc(c3)Cl)C

> <scaffold>
chlorobenzene-linker

> <canonical_CID>
RUB-POS-1325a9ea-24

> <r_inhibition_at_20_uM>

> <r_inhibition_at_50_uM>

> <r_avg_IC50>

> <f_inhibition_at_20_uM>

> <f_inhibition_at_50_uM>

> <f_avg_IC50>
99.5

> <f_avg_pIC50>

> <relative_solubility_at_20_uM>

> <relative_solubility_at_100_uM>

> <trypsin_IC50>

> <NMR_std_ratio>

> <acrylamide>
False

> <chloroacetamide>
False

> <series>
3-aminopyridine-like

> <frag_id>

> <clash_score>
4.617189425878379

> <docking_score>
-0.09595084190368652

> <overlap_score>
0.7918826341629028

> <MMFF_internal_energy>
65.23347796350791

> <docked_smiles>
CC1([C@H](c2ccccc2N1)NC(=O)Cc3cccc(c3)Cl)C

$$$$
RUB-POS-1325a9ea-15_1
  -OEChem-07262101023D

 34 36  0     0  0  0  0  0  0999 V2000
   11.9780    0.4600   23.9150 C   0  0  0  0  0  0  0  0  0  0  0  0
   10.6560    0.0720   23.7350 C   0  0  0  0  0  0  0  0  0  0  0  0
   12.9840   -0.1200   23.1530 C   0  0  0  0  0  0  0  0  0  0  0  0
   11.3360   -1.5050   22.0650 C   0  0  0  0  0  0  0  0  0  0  0  0
    4.2407    0.1590   20.6959 C   0  0  0  0  0  0  0  0  0  0  0  0
    5.3019    0.8916   17.3900 C   0  0  0  0  0  0  0  0  0  0  0  0
    7.1997   -0.0218   18.3945 C   0  0  0  0  0  0  0  0  0  0  0  0
    5.2499    0.1622   19.7093 C   0  0  0  0  0  0  0  0  0  0  0  0
   10.3220   -0.8940   22.7910 C   0  0  0  0  0  0  0  0  0  0  0  0
    4.6341    0.7130   18.5918 C   0  0  0  0  0  0  0  0  0  0  0  0
    6.5901   -0.2281   19.6264 C   0  0  0  0  0  0  0  0  0  0  0  0
   12.6400   -1.1000   22.2390 C   0  0  0  0  0  0  0  0  0  0  0  0
    8.3880   -0.3240   21.3070 C   0  0  0  0  0  0  0  0  0  0  0  0
    2.3100    1.5701   18.1676 C   0  0  0  0  0  0  0  0  0  0  0  0
    8.8810   -1.1900   22.4510 C   0  0  0  0  0  0  0  0  0  0  0  0
    6.6003    0.5153   17.3039 N   0  0  0  0  0  0  0  0  0  0  0  0
    3.0838    0.6603   20.2560 N   0  0  0  0  0  0  0  0  0  0  0  0
    3.3522    0.9869   18.9804 N   0  0  0  0  0  0  0  0  0  0  0  0
    7.2820   -0.7860   20.6970 N   0  0  0  0  0  0  0  0  0  0  0  0
    8.9170    0.7530   21.0260 O   0  0  0  0  0  0  0  0  0  0  0  0
   13.8840   -1.8490   21.2740 Cl  0  0  0  0  0  0  0  0  0  0  0  0
   12.2249    1.2198   24.6546 H   0  0  0  0  0  0  0  0  0  0  0  0
    9.8763    0.5350   24.3454 H   0  0  0  0  0  0  0  0  0  0  0  0
   14.0077    0.1988   23.2842 H   0  0  0  0  0  0  0  0  0  0  0  0
   11.0892   -2.3009   21.3624 H   0  0  0  0  0  0  0  0  0  0  0  0
    4.3002   -0.1886   21.7176 H   0  0  0  0  0  0  0  0  0  0  0  0
    4.8487    1.3172   16.5051 H   0  0  0  0  0  0  0  0  0  0  0  0
    8.2402   -0.2950   18.2383 H   0  0  0  0  0  0  0  0  0  0  0  0
    1.7717    0.7564   17.6744 H   0  0  0  0  0  0  0  0  0  0  0  0
    1.6323    2.1468   18.8031 H   0  0  0  0  0  0  0  0  0  0  0  0
    2.7600    2.2367   17.4265 H   0  0  0  0  0  0  0  0  0  0  0  0
    8.7774   -2.2383   22.1732 H   0  0  0  0  0  0  0  0  0  0  0  0
    8.2557   -1.0153   23.3257 H   0  0  0  0  0  0  0  0  0  0  0  0
    6.8984   -1.6643   21.0696 H   0  0  0  0  0  0  0  0  0  0  0  0
  1  2  2  0  0  0  0
  1  3  1  0  0  0  0
  2  9  1  0  0  0  0
  3 12  2  0  0  0  0
  4  9  2  0  0  0  0
  4 12  1  0  0  0  0
  5  8  1  0  0  0  0
  5 17  2  0  0  0  0
  6 10  1  0  0  0  0
  6 16  2  0  0  0  0
  7 11  2  0  0  0  0
  7 16  1  0  0  0  0
  8 10  2  0  0  0  0
  8 11  1  0  0  0  0
  9 15  1  0  0  0  0
 10 18  1  0  0  0  0
 11 19  1  0  0  0  0
 12 21  1  0  0  0  0
 13 15  1  0  0  0  0
 13 19  1  0  0  0  0
 13 20  2  0  0  0  0
 14 18  1  0  0  0  0
 17 18  1  0  0  0  0
  1 22  1  0  0  0  0
  2 23  1  0  0  0  0
  3 24  1  0  0  0  0
  4 25  1  0  0  0  0
  5 26  1  0  0  0  0
  6 27  1  0  0  0  0
  7 28  1  0  0  0  0
 14 29  1  0  0  0  0
 14 30  1  0  0  0  0
 14 31  1  0  0  0  0
 15 32  1  0  0  0  0
 15 33  1  0  0  0  0
 19 34  1  0  0  0  0
M  END
> <compound>
RUB-POS-1325a9ea-15

> <compound_smiles>
Cn1c2cncc(c2cn1)NC(=O)Cc3cccc(c3)Cl

> <enantiomer_smiles>
Cn1c2cncc(c2cn1)NC(=O)Cc3cccc(c3)Cl

> <scaffold>
chlorobenzene-linker

> <clash_score>
0.6498753825375885

> <docking_score>
-6.25596284866333

> <overlap_score>
0.8885841965675354

> <MMFF_internal_energy>
78.30584466535376

> <docked_smiles>
Cn1c2cncc(c2cn1)NC(=O)Cc3cccc(c3)Cl

$$$$
RUB-POS-1325a9ea-24_1
  -OEChem-07262101023D

 41 43  0     1  0  0  0  0  0999 V2000
    4.6143    2.7141   21.3856 C   0  0  0  0  0  0  0  0  0  0  0  0
    3.4466    2.6036   20.6155 C   0  0  0  0  0  0  0  0  0  0  0  0
   11.9780    0.4600   23.9150 C   0  0  0  0  0  0  0  0  0  0  0  0
    5.7009    1.8699   21.1521 C   0  0  0  0  0  0  0  0  0  0  0  0
   10.6560    0.0720   23.7350 C   0  0  0  0  0  0  0  0  0  0  0  0
    3.3481    1.6437   19.6050 C   0  0  0  0  0  0  0  0  0  0  0  0
   12.9840   -0.1200   23.1530 C   0  0  0  0  0  0  0  0  0  0  0  0
   11.3360   -1.5050   22.0650 C   0  0  0  0  0  0  0  0  0  0  0  0
    5.5854    0.9140   20.1558 C   0  0  0  0  0  0  0  0  0  0  0  0
   10.3220   -0.8940   22.7910 C   0  0  0  0  0  0  0  0  0  0  0  0
    4.4193    0.7921   19.3959 C   0  0  0  0  0  0  0  0  0  0  0  0
   12.6400   -1.1000   22.2390 C   0  0  0  0  0  0  0  0  0  0  0  0
    8.3880   -0.3240   21.3070 C   0  0  0  0  0  0  0  0  0  0  0  0
    6.6081   -0.0635   19.6535 C   0  0  1  0  0  0  0  0  0  0  0  0
    5.7542   -0.9566   18.6813 C   0  0  0  0  0  0  0  0  0  0  0  0
    6.4924   -1.1794   17.3582 C   0  0  0  0  0  0  0  0  0  0  0  0
    5.3415   -2.3134   19.2782 C   0  0  0  0  0  0  0  0  0  0  0  0
    8.8810   -1.1900   22.4510 C   0  0  0  0  0  0  0  0  0  0  0  0
    4.5288   -0.1900   18.4175 N   0  0  0  0  0  0  0  0  0  0  0  0
    7.2820   -0.7860   20.6970 N   0  0  0  0  0  0  0  0  0  0  0  0
    8.9170    0.7530   21.0260 O   0  0  0  0  0  0  0  0  0  0  0  0
   13.8840   -1.8490   21.2740 Cl  0  0  0  0  0  0  0  0  0  0  0  0
    4.6763    3.4719   22.1619 H   0  0  0  0  0  0  0  0  0  0  0  0
    2.6142    3.2765   20.8028 H   0  0  0  0  0  0  0  0  0  0  0  0
   12.2249    1.2198   24.6546 H   0  0  0  0  0  0  0  0  0  0  0  0
    6.6112    1.9744   21.7320 H   0  0  0  0  0  0  0  0  0  0  0  0
    9.8763    0.5350   24.3454 H   0  0  0  0  0  0  0  0  0  0  0  0
    2.4472    1.5717   19.0045 H   0  0  0  0  0  0  0  0  0  0  0  0
   14.0077    0.1988   23.2842 H   0  0  0  0  0  0  0  0  0  0  0  0
   11.0892   -2.3009   21.3624 H   0  0  0  0  0  0  0  0  0  0  0  0
    7.3717    0.4975   19.1010 H   0  0  0  0  0  0  0  0  0  0  0  0
    5.8857   -1.7983   16.7015 H   0  0  0  0  0  0  0  0  0  0  0  0
    7.4399   -1.6778   17.5484 H   0  0  0  0  0  0  0  0  0  0  0  0
    6.6793   -0.2214   16.8788 H   0  0  0  0  0  0  0  0  0  0  0  0
    4.7589   -2.8637   18.5468 H   0  0  0  0  0  0  0  0  0  0  0  0
    4.7454   -2.1458   20.1691 H   0  0  0  0  0  0  0  0  0  0  0  0
    6.2323   -2.8770   19.5350 H   0  0  0  0  0  0  0  0  0  0  0  0
    8.7773   -2.2383   22.1737 H   0  0  0  0  0  0  0  0  0  0  0  0
    8.2516   -1.0144   23.3225 H   0  0  0  0  0  0  0  0  0  0  0  0
    3.7320   -0.5585   17.9177 H   0  0  0  0  0  0  0  0  0  0  0  0
    6.9056   -1.6875   20.9873 H   0  0  0  0  0  0  0  0  0  0  0  0
  1  2  1  0  0  0  0
  1  4  2  0  0  0  0
  2  6  2  0  0  0  0
  3  5  2  0  0  0  0
  3  7  1  0  0  0  0
  4  9  1  0  0  0  0
  5 10  1  0  0  0  0
  6 11  1  0  0  0  0
  7 12  2  0  0  0  0
  8 10  2  0  0  0  0
  8 12  1  0  0  0  0
  9 11  2  0  0  0  0
  9 14  1  0  0  0  0
 10 18  1  0  0  0  0
 11 19  1  0  0  0  0
 12 22  1  0  0  0  0
 13 18  1  0  0  0  0
 13 20  1  0  0  0  0
 13 21  2  0  0  0  0
 14 15  1  0  0  0  0
 14 20  1  1  0  0  0
 15 16  1  0  0  0  0
 15 17  1  0  0  0  0
 15 19  1  0  0  0  0
  1 23  1  0  0  0  0
  2 24  1  0  0  0  0
  3 25  1  0  0  0  0
  4 26  1  0  0  0  0
  5 27  1  0  0  0  0
  6 28  1  0  0  0  0
  7 29  1  0  0  0  0
  8 30  1  0  0  0  0
 14 31  1  0  0  0  0
 16 32  1  0  0  0  0
 16 33  1  0  0  0  0
 16 34  1  0  0  0  0
 17 35  1  0  0  0  0
 17 36  1  0  0  0  0
 17 37  1  0  0  0  0
 18 38  1  0  0  0  0
 18 39  1  0  0  0  0
 19 40  1  0  0  0  0
 20 41  1  0  0  0  0
M  END
> <compound>
RUB-POS-1325a9ea-24

> <compound_smiles>
CC1(C(c2ccccc2N1)NC(=O)Cc3cccc(c3)Cl)C

> <enantiomer_smiles>
CC1([C@@H](c2ccccc2N1)NC(=O)Cc3cccc(c3)Cl)C

> <scaffold>
chlorobenzene-linker

> <canonical_CID>
RUB-POS-1325a9ea-24

> <r_inhibition_at_20_uM>

> <r_inhibition_at_50_uM>

> <r_avg_IC50>

> <f_inhibition_at_20_uM>

> <f_inhibition_at_50_uM>

> <f_avg_IC50>
99.5

> <f_avg_pIC50>

> <relative_solubility_at_20_uM>

> <relative_solubility_at_100_uM>

> <trypsin_IC50>

> <NMR_std_ratio>

> <acrylamide>
False

> <chloroacetamide>
False

> <series>
3-aminopyridine-like

> <frag_id>

> <clash_score>
0

> <docking_score>
-3.980386972427368

> <overlap_score>
0.8844394087791443

> <MMFF_internal_energy>
70.08862361264804

> <docked_smiles>
CC1([C@@H](c2ccccc2N1)NC(=O)Cc3cccc(c3)Cl)C

$$$$
RUB-POS-1325a9ea-21_1
  -OEChem-07262101023D

 39 41  0     1  0  0  0  0  0999 V2000
    3.5390    2.7117   20.9337 C   0  0  0  0  0  0  0  0  0  0  0  0
    4.2568    2.0015   21.8909 C   0  0  0  0  0  0  0  0  0  0  0  0
   11.9780    0.4600   23.9150 C   0  0  0  0  0  0  0  0  0  0  0  0
    3.8224    2.5359   19.5811 C   0  0  0  0  0  0  0  0  0  0  0  0
    5.2572    1.1098   21.4997 C   0  0  0  0  0  0  0  0  0  0  0  0
   10.6560    0.0720   23.7350 C   0  0  0  0  0  0  0  0  0  0  0  0
   12.9840   -0.1200   23.1530 C   0  0  0  0  0  0  0  0  0  0  0  0
   11.3360   -1.5050   22.0650 C   0  0  0  0  0  0  0  0  0  0  0  0
    4.8181    1.6367   19.1739 C   0  0  0  0  0  0  0  0  0  0  0  0
    5.5470    0.9107   20.1416 C   0  0  0  0  0  0  0  0  0  0  0  0
   10.3220   -0.8940   22.7910 C   0  0  0  0  0  0  0  0  0  0  0  0
   12.6400   -1.1000   22.2390 C   0  0  0  0  0  0  0  0  0  0  0  0
    8.3880   -0.3240   21.3070 C   0  0  0  0  0  0  0  0  0  0  0  0
    5.1540    1.5121   17.7158 C   0  0  0  0  0  0  0  0  0  0  0  0
    5.9993   -1.0338   18.6557 C   0  0  0  0  0  0  0  0  0  0  0  0
    6.6129   -0.0508   19.6490 C   0  0  2  0  0  0  0  0  0  0  0  0
    8.8810   -1.1900   22.4510 C   0  0  0  0  0  0  0  0  0  0  0  0
    7.2820   -0.7860   20.6970 N   0  0  0  0  0  0  0  0  0  0  0  0
    8.9170    0.7530   21.0260 O   0  0  0  0  0  0  0  0  0  0  0  0
    6.0917   -0.3290   16.1269 O   0  0  0  0  0  0  0  0  0  0  0  0
    3.8402   -0.6914   17.2006 O   0  0  0  0  0  0  0  0  0  0  0  0
    5.2085   -0.2134   17.2722 S   0  0  0  0  0  0  0  0  0  0  0  0
   13.8840   -1.8490   21.2740 Cl  0  0  0  0  0  0  0  0  0  0  0  0
    2.7630    3.4071   21.2422 H   0  0  0  0  0  0  0  0  0  0  0  0
    4.0390    2.1422   22.9478 H   0  0  0  0  0  0  0  0  0  0  0  0
   12.2249    1.2198   24.6546 H   0  0  0  0  0  0  0  0  0  0  0  0
    3.2649    3.1095   18.8523 H   0  0  0  0  0  0  0  0  0  0  0  0
    5.8031    0.5733   22.2666 H   0  0  0  0  0  0  0  0  0  0  0  0
    9.8763    0.5350   24.3454 H   0  0  0  0  0  0  0  0  0  0  0  0
   14.0077    0.1988   23.2842 H   0  0  0  0  0  0  0  0  0  0  0  0
   11.0892   -2.3008   21.3624 H   0  0  0  0  0  0  0  0  0  0  0  0
    4.3996    1.9621   17.0836 H   0  0  0  0  0  0  0  0  0  0  0  0
    6.1324    1.9290   17.5174 H   0  0  0  0  0  0  0  0  0  0  0  0
    6.7735   -1.6801   18.2222 H   0  0  0  0  0  0  0  0  0  0  0  0
    5.2550   -1.6885   19.1240 H   0  0  0  0  0  0  0  0  0  0  0  0
    7.3700    0.5022   19.1076 H   0  0  0  0  0  0  0  0  0  0  0  0
    8.7773   -2.2383   22.1737 H   0  0  0  0  0  0  0  0  0  0  0  0
    8.2516   -1.0144   23.3225 H   0  0  0  0  0  0  0  0  0  0  0  0
    6.9048   -1.6813   20.9826 H   0  0  0  0  0  0  0  0  0  0  0  0
  1  2  1  0  0  0  0
  1  4  2  0  0  0  0
  2  5  2  0  0  0  0
  3  6  2  0  0  0  0
  3  7  1  0  0  0  0
  4  9  1  0  0  0  0
  5 10  1  0  0  0  0
  6 11  1  0  0  0  0
  7 12  2  0  0  0  0
  8 11  2  0  0  0  0
  8 12  1  0  0  0  0
  9 10  2  0  0  0  0
  9 14  1  0  0  0  0
 10 16  1  0  0  0  0
 11 17  1  0  0  0  0
 12 23  1  0  0  0  0
 13 17  1  0  0  0  0
 13 18  1  0  0  0  0
 13 19  2  0  0  0  0
 14 22  1  0  0  0  0
 15 16  1  0  0  0  0
 15 22  1  0  0  0  0
 16 18  1  1  0  0  0
 20 22  2  0  0  0  0
 21 22  2  0  0  0  0
  1 24  1  0  0  0  0
  2 25  1  0  0  0  0
  3 26  1  0  0  0  0
  4 27  1  0  0  0  0
  5 28  1  0  0  0  0
  6 29  1  0  0  0  0
  7 30  1  0  0  0  0
  8 31  1  0  0  0  0
 14 32  1  0  0  0  0
 14 33  1  0  0  0  0
 15 34  1  0  0  0  0
 15 35  1  0  0  0  0
 16 36  1  0  0  0  0
 17 37  1  0  0  0  0
 17 38  1  0  0  0  0
 18 39  1  0  0  0  0
M  END
> <compound>
RUB-POS-1325a9ea-21

> <compound_smiles>
c1ccc2c(c1)CS(=O)(=O)CC2NC(=O)Cc3cccc(c3)Cl

> <enantiomer_smiles>
c1ccc2c(c1)CS(=O)(=O)C[C@@H]2NC(=O)Cc3cccc(c3)Cl

> <scaffold>
chlorobenzene-linker

> <canonical_CID>
RUB-POS-1325a9ea-21

> <r_inhibition_at_20_uM>

> <r_inhibition_at_50_uM>

> <r_avg_IC50>

> <f_inhibition_at_20_uM>

> <f_inhibition_at_50_uM>

> <f_avg_IC50>
99.5

> <f_avg_pIC50>

> <relative_solubility_at_20_uM>

> <relative_solubility_at_100_uM>

> <trypsin_IC50>

> <NMR_std_ratio>

> <acrylamide>
False

> <chloroacetamide>
False

> <series>
3-aminopyridine-like

> <frag_id>

> <clash_score>
1.4448300526296696

> <docking_score>
-6.040239334106445

> <overlap_score>
0.9472123384475708

> <MMFF_internal_energy>
49.040951507768945

> <docked_smiles>
c1ccc2c(c1)CS(=O)(=O)C[C@@H]2NC(=O)Cc3cccc(c3)Cl

$$$$
RUB-POS-1325a9ea-21_2
  -OEChem-07262101023D

 39 41  0     1  0  0  0  0  0999 V2000
    5.2378    3.9173   20.6946 C   0  0  0  0  0  0  0  0  0  0  0  0
    5.8521    3.1336   21.6664 C   0  0  0  0  0  0  0  0  0  0  0  0
   11.9780    0.4600   23.9150 C   0  0  0  0  0  0  0  0  0  0  0  0
    5.0632    3.4164   19.4064 C   0  0  0  0  0  0  0  0  0  0  0  0
    6.2980    1.8483   21.3531 C   0  0  0  0  0  0  0  0  0  0  0  0
   10.6560    0.0720   23.7350 C   0  0  0  0  0  0  0  0  0  0  0  0
   12.9840   -0.1200   23.1530 C   0  0  0  0  0  0  0  0  0  0  0  0
   11.3360   -1.5050   22.0650 C   0  0  0  0  0  0  0  0  0  0  0  0
    5.5145    2.1308   19.0758 C   0  0  0  0  0  0  0  0  0  0  0  0
    6.1419    1.3327   20.0578 C   0  0  0  0  0  0  0  0  0  0  0  0
   10.3220   -0.8940   22.7910 C   0  0  0  0  0  0  0  0  0  0  0  0
   12.6400   -1.1000   22.2390 C   0  0  0  0  0  0  0  0  0  0  0  0
    8.3880   -0.3240   21.3070 C   0  0  0  0  0  0  0  0  0  0  0  0
    5.2559    1.5844   17.7014 C   0  0  0  0  0  0  0  0  0  0  0  0
    7.5365    0.0565   18.4388 C   0  0  0  0  0  0  0  0  0  0  0  0
    6.6127   -0.0509   19.6489 C   0  0  1  0  0  0  0  0  0  0  0  0
    8.8810   -1.1900   22.4510 C   0  0  0  0  0  0  0  0  0  0  0  0
    7.2820   -0.7860   20.6970 N   0  0  0  0  0  0  0  0  0  0  0  0
    8.9170    0.7530   21.0260 O   0  0  0  0  0  0  0  0  0  0  0  0
    6.3843   -0.1208   16.0849 O   0  0  0  0  0  0  0  0  0  0  0  0
    7.6250    1.9942   16.6686 O   0  0  0  0  0  0  0  0  0  0  0  0
    6.7645    0.8908   17.0531 S   0  0  0  0  0  0  0  0  0  0  0  0
   13.8840   -1.8490   21.2740 Cl  0  0  0  0  0  0  0  0  0  0  0  0
    4.8899    4.9164   20.9427 H   0  0  0  0  0  0  0  0  0  0  0  0
    5.9845    3.5229   22.6740 H   0  0  0  0  0  0  0  0  0  0  0  0
   12.2249    1.2198   24.6546 H   0  0  0  0  0  0  0  0  0  0  0  0
    4.5688    4.0347   18.6685 H   0  0  0  0  0  0  0  0  0  0  0  0
    6.7684    1.2579   22.1307 H   0  0  0  0  0  0  0  0  0  0  0  0
    9.8763    0.5350   24.3454 H   0  0  0  0  0  0  0  0  0  0  0  0
   14.0077    0.1988   23.2842 H   0  0  0  0  0  0  0  0  0  0  0  0
   11.0892   -2.3009   21.3624 H   0  0  0  0  0  0  0  0  0  0  0  0
    4.5247    0.7882   17.7436 H   0  0  0  0  0  0  0  0  0  0  0  0
    4.9559    2.3568   17.0052 H   0  0  0  0  0  0  0  0  0  0  0  0
    8.4665    0.5891   18.6721 H   0  0  0  0  0  0  0  0  0  0  0  0
    7.8165   -0.9411   18.0751 H   0  0  0  0  0  0  0  0  0  0  0  0
    5.7602   -0.6395   19.3343 H   0  0  0  0  0  0  0  0  0  0  0  0
    8.7773   -2.2383   22.1737 H   0  0  0  0  0  0  0  0  0  0  0  0
    8.2516   -1.0144   23.3225 H   0  0  0  0  0  0  0  0  0  0  0  0
    6.9048   -1.6814   20.9827 H   0  0  0  0  0  0  0  0  0  0  0  0
  1  2  1  0  0  0  0
  1  4  2  0  0  0  0
  2  5  2  0  0  0  0
  3  6  2  0  0  0  0
  3  7  1  0  0  0  0
  4  9  1  0  0  0  0
  5 10  1  0  0  0  0
  6 11  1  0  0  0  0
  7 12  2  0  0  0  0
  8 11  2  0  0  0  0
  8 12  1  0  0  0  0
  9 10  2  0  0  0  0
  9 14  1  0  0  0  0
 10 16  1  0  0  0  0
 11 17  1  0  0  0  0
 12 23  1  0  0  0  0
 13 17  1  0  0  0  0
 13 18  1  0  0  0  0
 13 19  2  0  0  0  0
 14 22  1  0  0  0  0
 15 16  1  0  0  0  0
 15 22  1  0  0  0  0
 16 18  1  6  0  0  0
 20 22  2  0  0  0  0
 21 22  2  0  0  0  0
  1 24  1  0  0  0  0
  2 25  1  0  0  0  0
  3 26  1  0  0  0  0
  4 27  1  0  0  0  0
  5 28  1  0  0  0  0
  6 29  1  0  0  0  0
  7 30  1  0  0  0  0
  8 31  1  0  0  0  0
 14 32  1  0  0  0  0
 14 33  1  0  0  0  0
 15 34  1  0  0  0  0
 15 35  1  0  0  0  0
 16 36  1  0  0  0  0
 17 37  1  0  0  0  0
 17 38  1  0  0  0  0
 18 39  1  0  0  0  0
M  END
> <compound>
RUB-POS-1325a9ea-21

> <compound_smiles>
c1ccc2c(c1)CS(=O)(=O)CC2NC(=O)Cc3cccc(c3)Cl

> <enantiomer_smiles>
c1ccc2c(c1)CS(=O)(=O)C[C@H]2NC(=O)Cc3cccc(c3)Cl

> <scaffold>
chlorobenzene-linker

> <canonical_CID>
RUB-POS-1325a9ea-21

> <r_inhibition_at_20_uM>

> <r_inhibition_at_50_uM>

> <r_avg_IC50>

> <f_inhibition_at_20_uM>

> <f_inhibition_at_50_uM>

> <f_avg_IC50>
99.5

> <f_avg_pIC50>

> <relative_solubility_at_20_uM>

> <relative_solubility_at_100_uM>

> <trypsin_IC50>

> <NMR_std_ratio>

> <acrylamide>
False

> <chloroacetamide>
False

> <series>
3-aminopyridine-like

> <frag_id>

> <clash_score>
1.2491449230380962

> <docking_score>
-3.2211551666259766

> <overlap_score>
0.8078036904335022

> <MMFF_internal_energy>
55.74790616576972

> <docked_smiles>
c1ccc2c(c1)CS(=O)(=O)C[C@H]2NC(=O)Cc3cccc(c3)Cl

$$$$
ROB-UNI-daaf9793-2_1
  -OEChem-07262101023D

 37 39  0     1  0  0  0  0  0999 V2000
    5.2228    2.8761   21.7040 C   0  0  0  0  0  0  0  0  0  0  0  0
    5.0457    3.8362   20.7112 C   0  0  0  0  0  0  0  0  0  0  0  0
   11.9780    0.4600   23.9150 C   0  0  0  0  0  0  0  0  0  0  0  0
    5.7486    1.6218   21.3837 C   0  0  0  0  0  0  0  0  0  0  0  0
   10.6560    0.0720   23.7350 C   0  0  0  0  0  0  0  0  0  0  0  0
    5.3953    3.5460   19.3949 C   0  0  0  0  0  0  0  0  0  0  0  0
   12.9840   -0.1200   23.1530 C   0  0  0  0  0  0  0  0  0  0  0  0
   11.3360   -1.5050   22.0650 C   0  0  0  0  0  0  0  0  0  0  0  0
    6.1279    1.3184   20.0679 C   0  0  0  0  0  0  0  0  0  0  0  0
   10.3220   -0.8940   22.7910 C   0  0  0  0  0  0  0  0  0  0  0  0
    5.9400    2.2972   19.0775 C   0  0  0  0  0  0  0  0  0  0  0  0
   12.6400   -1.1000   22.2390 C   0  0  0  0  0  0  0  0  0  0  0  0
    6.9434    0.8983   17.3222 C   0  0  0  0  0  0  0  0  0  0  0  0
    8.3880   -0.3240   21.3070 C   0  0  0  0  0  0  0  0  0  0  0  0
    7.5287    0.0509   18.4316 C   0  0  0  0  0  0  0  0  0  0  0  0
    6.6087   -0.0537   19.6475 C   0  0  1  0  0  0  0  0  0  0  0  0
    8.8810   -1.1900   22.4510 C   0  0  0  0  0  0  0  0  0  0  0  0
    6.2645    2.0253   17.7362 N   0  0  0  0  0  0  0  0  0  0  0  0
    7.2820   -0.7860   20.6970 N   0  0  0  0  0  0  0  0  0  0  0  0
    7.1525    0.6373   16.1377 O   0  0  0  0  0  0  0  0  0  0  0  0
    8.9170    0.7530   21.0260 O   0  0  0  0  0  0  0  0  0  0  0  0
   13.8840   -1.8490   21.2740 Cl  0  0  0  0  0  0  0  0  0  0  0  0
    4.9617    3.1051   22.7340 H   0  0  0  0  0  0  0  0  0  0  0  0
    4.6386    4.8101   20.9635 H   0  0  0  0  0  0  0  0  0  0  0  0
   12.2249    1.2198   24.6546 H   0  0  0  0  0  0  0  0  0  0  0  0
    5.8721    0.8813   22.1735 H   0  0  0  0  0  0  0  0  0  0  0  0
    9.8763    0.5350   24.3454 H   0  0  0  0  0  0  0  0  0  0  0  0
    5.2328    4.2936   18.6218 H   0  0  0  0  0  0  0  0  0  0  0  0
   14.0077    0.1988   23.2842 H   0  0  0  0  0  0  0  0  0  0  0  0
   11.0892   -2.3009   21.3624 H   0  0  0  0  0  0  0  0  0  0  0  0
    7.7000   -0.9466   18.0114 H   0  0  0  0  0  0  0  0  0  0  0  0
    8.5026    0.4569   18.7207 H   0  0  0  0  0  0  0  0  0  0  0  0
    5.7439   -0.6779   19.3464 H   0  0  0  0  0  0  0  0  0  0  0  0
    8.7773   -2.2383   22.1737 H   0  0  0  0  0  0  0  0  0  0  0  0
    8.2516   -1.0144   23.3225 H   0  0  0  0  0  0  0  0  0  0  0  0
    5.9813    2.7005   17.0301 H   0  0  0  0  0  0  0  0  0  0  0  0
    6.9051   -1.6839   20.9846 H   0  0  0  0  0  0  0  0  0  0  0  0
  1  2  1  0  0  0  0
  1  4  2  0  0  0  0
  2  6  2  0  0  0  0
  3  5  2  0  0  0  0
  3  7  1  0  0  0  0
  4  9  1  0  0  0  0
  5 10  1  0  0  0  0
  6 11  1  0  0  0  0
  7 12  2  0  0  0  0
  8 10  2  0  0  0  0
  8 12  1  0  0  0  0
  9 11  2  0  0  0  0
  9 16  1  0  0  0  0
 10 17  1  0  0  0  0
 11 18  1  0  0  0  0
 12 22  1  0  0  0  0
 13 15  1  0  0  0  0
 13 18  1  0  0  0  0
 13 20  2  0  0  0  0
 14 17  1  0  0  0  0
 14 19  1  0  0  0  0
 14 21  2  0  0  0  0
 15 16  1  0  0  0  0
 16 19  1  1  0  0  0
  1 23  1  0  0  0  0
  2 24  1  0  0  0  0
  3 25  1  0  0  0  0
  4 26  1  0  0  0  0
  5 27  1  0  0  0  0
  6 28  1  0  0  0  0
  7 29  1  0  0  0  0
  8 30  1  0  0  0  0
 15 31  1  0  0  0  0
 15 32  1  0  0  0  0
 16 33  1  0  0  0  0
 17 34  1  0  0  0  0
 17 35  1  0  0  0  0
 18 36  1  0  0  0  0
 19 37  1  0  0  0  0
M  END
> <compound>
ROB-UNI-daaf9793-2

> <compound_smiles>
c1ccc2c(c1)C(CC(=O)N2)NC(=O)Cc3cccc(c3)Cl

> <enantiomer_smiles>
c1ccc2c(c1)[C@@H](CC(=O)N2)NC(=O)Cc3cccc(c3)Cl

> <scaffold>
chlorobenzene-linker

> <clash_score>
1.3546073865610493

> <docking_score>
-2.8528780937194824

> <overlap_score>
0.7919995784759521

> <MMFF_internal_energy>
4.2659074558122745

> <docked_smiles>
c1ccc2c(c1)[C@@H](CC(=O)N2)NC(=O)Cc3cccc(c3)Cl

$$$$
ROB-UNI-daaf9793-2_2
  -OEChem-07262101023D

 37 39  0     1  0  0  0  0  0999 V2000
    4.6932    2.4979   21.7813 C   0  0  0  0  0  0  0  0  0  0  0  0
    3.6647    2.8514   20.9119 C   0  0  0  0  0  0  0  0  0  0  0  0
   11.9780    0.4600   23.9150 C   0  0  0  0  0  0  0  0  0  0  0  0
    5.6400    1.5438   21.3999 C   0  0  0  0  0  0  0  0  0  0  0  0
   10.6560    0.0720   23.7350 C   0  0  0  0  0  0  0  0  0  0  0  0
    3.5787    2.2511   19.6582 C   0  0  0  0  0  0  0  0  0  0  0  0
   12.9840   -0.1200   23.1530 C   0  0  0  0  0  0  0  0  0  0  0  0
   11.3360   -1.5050   22.0650 C   0  0  0  0  0  0  0  0  0  0  0  0
    5.5570    0.9112   20.1507 C   0  0  0  0  0  0  0  0  0  0  0  0
   10.3220   -0.8940   22.7910 C   0  0  0  0  0  0  0  0  0  0  0  0
    4.5150    1.2816   19.2838 C   0  0  0  0  0  0  0  0  0  0  0  0
   12.6400   -1.1000   22.2390 C   0  0  0  0  0  0  0  0  0  0  0  0
    5.1782   -0.3592   17.5772 C   0  0  0  0  0  0  0  0  0  0  0  0
    8.3880   -0.3240   21.3070 C   0  0  0  0  0  0  0  0  0  0  0  0
    5.9979   -1.0400   18.6524 C   0  0  0  0  0  0  0  0  0  0  0  0
    6.6086   -0.0539   19.6475 C   0  0  2  0  0  0  0  0  0  0  0  0
    8.8810   -1.1900   22.4510 C   0  0  0  0  0  0  0  0  0  0  0  0
    4.4150    0.7076   18.0037 N   0  0  0  0  0  0  0  0  0  0  0  0
    7.2820   -0.7860   20.6970 N   0  0  0  0  0  0  0  0  0  0  0  0
    5.1329   -0.8011   16.4293 O   0  0  0  0  0  0  0  0  0  0  0  0
    8.9170    0.7530   21.0260 O   0  0  0  0  0  0  0  0  0  0  0  0
   13.8840   -1.8490   21.2740 Cl  0  0  0  0  0  0  0  0  0  0  0  0
    4.7551    2.9568   22.7647 H   0  0  0  0  0  0  0  0  0  0  0  0
    2.9298    3.5915   21.2117 H   0  0  0  0  0  0  0  0  0  0  0  0
   12.2249    1.2198   24.6546 H   0  0  0  0  0  0  0  0  0  0  0  0
    6.4417    1.2865   22.0914 H   0  0  0  0  0  0  0  0  0  0  0  0
    9.8763    0.5350   24.3454 H   0  0  0  0  0  0  0  0  0  0  0  0
    2.7858    2.5499   18.9760 H   0  0  0  0  0  0  0  0  0  0  0  0
   14.0077    0.1988   23.2842 H   0  0  0  0  0  0  0  0  0  0  0  0
   11.0892   -2.3009   21.3624 H   0  0  0  0  0  0  0  0  0  0  0  0
    5.3719   -1.7717   19.1733 H   0  0  0  0  0  0  0  0  0  0  0  0
    6.7947   -1.5941   18.1422 H   0  0  0  0  0  0  0  0  0  0  0  0
    7.4020    0.5025   19.1080 H   0  0  0  0  0  0  0  0  0  0  0  0
    8.7773   -2.2383   22.1737 H   0  0  0  0  0  0  0  0  0  0  0  0
    8.2516   -1.0144   23.3225 H   0  0  0  0  0  0  0  0  0  0  0  0
    3.7369    1.1064   17.3581 H   0  0  0  0  0  0  0  0  0  0  0  0
    6.9051   -1.6840   20.9847 H   0  0  0  0  0  0  0  0  0  0  0  0
  1  2  1  0  0  0  0
  1  4  2  0  0  0  0
  2  6  2  0  0  0  0
  3  5  2  0  0  0  0
  3  7  1  0  0  0  0
  4  9  1  0  0  0  0
  5 10  1  0  0  0  0
  6 11  1  0  0  0  0
  7 12  2  0  0  0  0
  8 10  2  0  0  0  0
  8 12  1  0  0  0  0
  9 11  2  0  0  0  0
  9 16  1  0  0  0  0
 10 17  1  0  0  0  0
 11 18  1  0  0  0  0
 12 22  1  0  0  0  0
 13 15  1  0  0  0  0
 13 18  1  0  0  0  0
 13 20  2  0  0  0  0
 14 17  1  0  0  0  0
 14 19  1  0  0  0  0
 14 21  2  0  0  0  0
 15 16  1  0  0  0  0
 16 19  1  6  0  0  0
  1 23  1  0  0  0  0
  2 24  1  0  0  0  0
  3 25  1  0  0  0  0
  4 26  1  0  0  0  0
  5 27  1  0  0  0  0
  6 28  1  0  0  0  0
  7 29  1  0  0  0  0
  8 30  1  0  0  0  0
 15 31  1  0  0  0  0
 15 32  1  0  0  0  0
 16 33  1  0  0  0  0
 17 34  1  0  0  0  0
 17 35  1  0  0  0  0
 18 36  1  0  0  0  0
 19 37  1  0  0  0  0
M  END
> <compound>
ROB-UNI-daaf9793-2

> <compound_smiles>
c1ccc2c(c1)C(CC(=O)N2)NC(=O)Cc3cccc(c3)Cl

> <enantiomer_smiles>
c1ccc2c(c1)[C@H](CC(=O)N2)NC(=O)Cc3cccc(c3)Cl

> <scaffold>
chlorobenzene-linker

> <clash_score>
0.7374345868673973

> <docking_score>
-5.324054718017578

> <overlap_score>
0.9130384922027588

> <MMFF_internal_energy>
1.994301249483071

> <docked_smiles>
c1ccc2c(c1)[C@H](CC(=O)N2)NC(=O)Cc3cccc(c3)Cl

$$$$
ROB-UNI-daaf9793-1_1
  -OEChem-07262101023D

 35 37  0     0  0  0  0  0  0999 V2000
    4.1600    2.2130   21.2811 C   0  0  0  0  0  0  0  0  0  0  0  0
    3.5953    2.8123   20.1597 C   0  0  0  0  0  0  0  0  0  0  0  0
   11.9780    0.4600   23.9150 C   0  0  0  0  0  0  0  0  0  0  0  0
    5.1629    1.2481   21.1369 C   0  0  0  0  0  0  0  0  0  0  0  0
   10.6560    0.0720   23.7350 C   0  0  0  0  0  0  0  0  0  0  0  0
    4.0317    2.4487   18.8900 C   0  0  0  0  0  0  0  0  0  0  0  0
   12.9840   -0.1200   23.1530 C   0  0  0  0  0  0  0  0  0  0  0  0
   11.3360   -1.5050   22.0650 C   0  0  0  0  0  0  0  0  0  0  0  0
    5.6208    0.8637   19.8659 C   0  0  0  0  0  0  0  0  0  0  0  0
   10.3220   -0.8940   22.7910 C   0  0  0  0  0  0  0  0  0  0  0  0
    5.0353    1.4831   18.7480 C   0  0  0  0  0  0  0  0  0  0  0  0
   12.6400   -1.1000   22.2390 C   0  0  0  0  0  0  0  0  0  0  0  0
    7.0421   -0.4430   18.3834 C   0  0  0  0  0  0  0  0  0  0  0  0
    6.6807   -0.1527   19.6458 C   0  0  0  0  0  0  0  0  0  0  0  0
    6.4310    0.2051   17.1964 C   0  0  0  0  0  0  0  0  0  0  0  0
    8.3880   -0.3240   21.3070 C   0  0  0  0  0  0  0  0  0  0  0  0
    8.8810   -1.1900   22.4510 C   0  0  0  0  0  0  0  0  0  0  0  0
    5.4542    1.1384   17.4524 N   0  0  0  0  0  0  0  0  0  0  0  0
    7.2820   -0.7860   20.6970 N   0  0  0  0  0  0  0  0  0  0  0  0
    6.8027   -0.1038   16.0664 O   0  0  0  0  0  0  0  0  0  0  0  0
    8.9170    0.7530   21.0260 O   0  0  0  0  0  0  0  0  0  0  0  0
   13.8840   -1.8490   21.2740 Cl  0  0  0  0  0  0  0  0  0  0  0  0
    3.8209    2.4945   22.2741 H   0  0  0  0  0  0  0  0  0  0  0  0
    2.8171    3.5607   20.2754 H   0  0  0  0  0  0  0  0  0  0  0  0
   12.2249    1.2198   24.6546 H   0  0  0  0  0  0  0  0  0  0  0  0
    5.5714    0.8096   22.0431 H   0  0  0  0  0  0  0  0  0  0  0  0
    9.8763    0.5350   24.3454 H   0  0  0  0  0  0  0  0  0  0  0  0
    3.5869    2.9211   18.0179 H   0  0  0  0  0  0  0  0  0  0  0  0
   14.0077    0.1988   23.2842 H   0  0  0  0  0  0  0  0  0  0  0  0
   11.0892   -2.3009   21.3624 H   0  0  0  0  0  0  0  0  0  0  0  0
    7.8126   -1.1811   18.1772 H   0  0  0  0  0  0  0  0  0  0  0  0
    8.2535   -1.0146   23.3240 H   0  0  0  0  0  0  0  0  0  0  0  0
    8.7756   -2.2377   22.1724 H   0  0  0  0  0  0  0  0  0  0  0  0
    5.0095    1.6035   16.6660 H   0  0  0  0  0  0  0  0  0  0  0  0
    6.8587   -1.6467   21.0211 H   0  0  0  0  0  0  0  0  0  0  0  0
  1  2  1  0  0  0  0
  1  4  2  0  0  0  0
  2  6  2  0  0  0  0
  3  5  2  0  0  0  0
  3  7  1  0  0  0  0
  4  9  1  0  0  0  0
  5 10  1  0  0  0  0
  6 11  1  0  0  0  0
  7 12  2  0  0  0  0
  8 10  2  0  0  0  0
  8 12  1  0  0  0  0
  9 11  2  0  0  0  0
  9 14  1  0  0  0  0
 10 17  1  0  0  0  0
 11 18  1  0  0  0  0
 12 22  1  0  0  0  0
 13 14  2  0  0  0  0
 13 15  1  0  0  0  0
 14 19  1  0  0  0  0
 15 18  1  0  0  0  0
 15 20  2  0  0  0  0
 16 17  1  0  0  0  0
 16 19  1  0  0  0  0
 16 21  2  0  0  0  0
  1 23  1  0  0  0  0
  2 24  1  0  0  0  0
  3 25  1  0  0  0  0
  4 26  1  0  0  0  0
  5 27  1  0  0  0  0
  6 28  1  0  0  0  0
  7 29  1  0  0  0  0
  8 30  1  0  0  0  0
 13 31  1  0  0  0  0
 17 32  1  0  0  0  0
 17 33  1  0  0  0  0
 18 34  1  0  0  0  0
 19 35  1  0  0  0  0
M  END
> <compound>
ROB-UNI-daaf9793-1

> <compound_smiles>
c1ccc2c(c1)c(cc(=O)[nH]2)NC(=O)Cc3cccc(c3)Cl

> <enantiomer_smiles>
c1ccc2c(c1)c(cc(=O)[nH]2)NC(=O)Cc3cccc(c3)Cl

> <scaffold>
chlorobenzene-linker

> <clash_score>
0.7492217306452789

> <docking_score>
-6.952237129211426

> <overlap_score>
0.9812189936637878

> <MMFF_internal_energy>
46.62173876422463

> <docked_smiles>
c1ccc2c(c1)c(cc(=O)[nH]2)NC(=O)Cc3cccc(c3)Cl

$$$$
VLA-UNK-dc1d9354-1_1
  -OEChem-07262101023D

 33 35  0     0  0  0  0  0  0999 V2000
    4.1390    3.2102   21.5806 C   0  0  0  0  0  0  0  0  0  0  0  0
    4.9409    2.5339   22.5251 C   0  0  0  0  0  0  0  0  0  0  0  0
   11.9780    0.4600   23.9150 C   0  0  0  0  0  0  0  0  0  0  0  0
   10.6560    0.0720   23.7350 C   0  0  0  0  0  0  0  0  0  0  0  0
    4.1296    2.8272   20.2363 C   0  0  0  0  0  0  0  0  0  0  0  0
    5.7519    1.4586   22.1477 C   0  0  0  0  0  0  0  0  0  0  0  0
   12.9840   -0.1200   23.1530 C   0  0  0  0  0  0  0  0  0  0  0  0
   11.3360   -1.5050   22.0650 C   0  0  0  0  0  0  0  0  0  0  0  0
   10.3220   -0.8940   22.7910 C   0  0  0  0  0  0  0  0  0  0  0  0
    4.9353    1.7665   19.8871 C   0  0  0  0  0  0  0  0  0  0  0  0
    5.7296    1.0949   20.8179 C   0  0  0  0  0  0  0  0  0  0  0  0
   12.6400   -1.1000   22.2390 C   0  0  0  0  0  0  0  0  0  0  0  0
    6.0536    0.1054   18.7588 C   0  0  0  0  0  0  0  0  0  0  0  0
    8.3880   -0.3240   21.3070 C   0  0  0  0  0  0  0  0  0  0  0  0
    8.8810   -1.1900   22.4510 C   0  0  0  0  0  0  0  0  0  0  0  0
    5.1198    1.1785   18.6315 N   0  0  0  0  0  0  0  0  0  0  0  0
    6.4089    0.0861   20.1321 N   0  0  0  0  0  0  0  0  0  0  0  0
    7.2820   -0.7860   20.6970 N   0  0  0  0  0  0  0  0  0  0  0  0
    6.4499   -0.6283   17.8647 O   0  0  0  0  0  0  0  0  0  0  0  0
    8.9170    0.7530   21.0260 O   0  0  0  0  0  0  0  0  0  0  0  0
   13.8840   -1.8490   21.2740 Cl  0  0  0  0  0  0  0  0  0  0  0  0
    3.5196    4.0418   21.9066 H   0  0  0  0  0  0  0  0  0  0  0  0
    4.9258    2.8562   23.5633 H   0  0  0  0  0  0  0  0  0  0  0  0
   12.2249    1.2198   24.6546 H   0  0  0  0  0  0  0  0  0  0  0  0
    9.8763    0.5350   24.3454 H   0  0  0  0  0  0  0  0  0  0  0  0
    3.5148    3.3461   19.5107 H   0  0  0  0  0  0  0  0  0  0  0  0
    6.3647    0.9448   22.8785 H   0  0  0  0  0  0  0  0  0  0  0  0
   14.0077    0.1988   23.2842 H   0  0  0  0  0  0  0  0  0  0  0  0
   11.0892   -2.3008   21.3624 H   0  0  0  0  0  0  0  0  0  0  0  0
    8.7519   -2.2472   22.1528 H   0  0  0  0  0  0  0  0  0  0  0  0
    8.2467   -1.0628   23.3486 H   0  0  0  0  0  0  0  0  0  0  0  0
    4.6660    1.4663   17.7734 H   0  0  0  0  0  0  0  0  0  0  0  0
    7.0988   -1.7947   20.6588 H   0  0  0  0  0  0  0  0  0  0  0  0
  1  2  1  0  0  0  0
  1  5  2  0  0  0  0
  2  6  2  0  0  0  0
  3  4  2  0  0  0  0
  3  7  1  0  0  0  0
  4  9  1  0  0  0  0
  5 10  1  0  0  0  0
  6 11  1  0  0  0  0
  7 12  2  0  0  0  0
  8  9  2  0  0  0  0
  8 12  1  0  0  0  0
  9 15  1  0  0  0  0
 10 11  2  0  0  0  0
 10 16  1  0  0  0  0
 11 17  1  0  0  0  0
 12 21  1  0  0  0  0
 13 16  1  0  0  0  0
 13 17  1  0  0  0  0
 13 19  2  0  0  0  0
 14 15  1  0  0  0  0
 14 18  1  0  0  0  0
 14 20  2  0  0  0  0
 17 18  1  0  0  0  0
  1 22  1  0  0  0  0
  2 23  1  0  0  0  0
  3 24  1  0  0  0  0
  4 25  1  0  0  0  0
  5 26  1  0  0  0  0
  6 27  1  0  0  0  0
  7 28  1  0  0  0  0
  8 29  1  0  0  0  0
 15 30  1  0  0  0  0
 15 31  1  0  0  0  0
 16 32  1  0  0  0  0
 18 33  1  0  0  0  0
M  END
> <compound>
VLA-UNK-dc1d9354-1

> <compound_smiles>
c1ccc2c(c1)[nH]c(=O)n2NC(=O)Cc3cccc(c3)Cl

> <enantiomer_smiles>
c1ccc2c(c1)[nH]c(=O)n2NC(=O)Cc3cccc(c3)Cl

> <scaffold>
chlorobenzene-linker

> <clash_score>
0

> <docking_score>
-8.436223983764648

> <overlap_score>
0.8948495388031006

> <MMFF_internal_energy>
64.28560761881755

> <docked_smiles>
c1ccc2c(c1)[nH]c(=O)n2NC(=O)Cc3cccc(c3)Cl

$$$$
VLA-UNK-411a133b-1_1
  -OEChem-07262101023D

 27 28  0     0  0  0  0  0  0999 V2000
   11.9780    0.4600   23.9150 C   0  0  0  0  0  0  0  0  0  0  0  0
   10.6560    0.0720   23.7350 C   0  0  0  0  0  0  0  0  0  0  0  0
   12.9840   -0.1200   23.1530 C   0  0  0  0  0  0  0  0  0  0  0  0
   11.3360   -1.5050   22.0650 C   0  0  0  0  0  0  0  0  0  0  0  0
   10.3220   -0.8940   22.7910 C   0  0  0  0  0  0  0  0  0  0  0  0
   12.6400   -1.1000   22.2390 C   0  0  0  0  0  0  0  0  0  0  0  0
    6.5418   -0.1622   19.6645 C   0  0  0  0  0  0  0  0  0  0  0  0
    8.3880   -0.3240   21.3070 C   0  0  0  0  0  0  0  0  0  0  0  0
    5.6970    2.2445   17.3589 C   0  0  0  0  0  0  0  0  0  0  0  0
    8.8810   -1.1900   22.4510 C   0  0  0  0  0  0  0  0  0  0  0  0
    5.4319   -0.7521   19.1368 N   0  0  0  0  0  0  0  0  0  0  0  0
    6.8404    1.0209   19.1220 N   0  0  0  0  0  0  0  0  0  0  0  0
    4.9824    0.0811   18.2066 N   0  0  0  0  0  0  0  0  0  0  0  0
    5.8416    1.1093   18.2324 N   0  0  0  0  0  0  0  0  0  0  0  0
    7.2820   -0.7860   20.6970 N   0  0  0  0  0  0  0  0  0  0  0  0
    8.9170    0.7530   21.0260 O   0  0  0  0  0  0  0  0  0  0  0  0
   13.8840   -1.8490   21.2740 Cl  0  0  0  0  0  0  0  0  0  0  0  0
   12.2249    1.2198   24.6546 H   0  0  0  0  0  0  0  0  0  0  0  0
    9.8763    0.5350   24.3454 H   0  0  0  0  0  0  0  0  0  0  0  0
   14.0077    0.1988   23.2842 H   0  0  0  0  0  0  0  0  0  0  0  0
   11.0892   -2.3009   21.3624 H   0  0  0  0  0  0  0  0  0  0  0  0
    6.2555    2.0379   16.4421 H   0  0  0  0  0  0  0  0  0  0  0  0
    4.6378    2.3988   17.1347 H   0  0  0  0  0  0  0  0  0  0  0  0
    6.0913    3.1353   17.8556 H   0  0  0  0  0  0  0  0  0  0  0  0
    8.7709   -2.2387   22.1706 H   0  0  0  0  0  0  0  0  0  0  0  0
    8.2491   -1.0157   23.3232 H   0  0  0  0  0  0  0  0  0  0  0  0
    6.9372   -1.6894   21.0149 H   0  0  0  0  0  0  0  0  0  0  0  0
  1  2  2  0  0  0  0
  1  3  1  0  0  0  0
  2  5  1  0  0  0  0
  3  6  2  0  0  0  0
  4  5  2  0  0  0  0
  4  6  1  0  0  0  0
  5 10  1  0  0  0  0
  6 17  1  0  0  0  0
  7 11  1  0  0  0  0
  7 12  2  0  0  0  0
  7 15  1  0  0  0  0
  8 10  1  0  0  0  0
  8 15  1  0  0  0  0
  8 16  2  0  0  0  0
  9 14  1  0  0  0  0
 11 13  2  0  0  0  0
 12 14  1  0  0  0  0
 13 14  1  0  0  0  0
  1 18  1  0  0  0  0
  2 19  1  0  0  0  0
  3 20  1  0  0  0  0
  4 21  1  0  0  0  0
  9 22  1  0  0  0  0
  9 23  1  0  0  0  0
  9 24  1  0  0  0  0
 10 25  1  0  0  0  0
 10 26  1  0  0  0  0
 15 27  1  0  0  0  0
M  END
> <compound>
VLA-UNK-411a133b-1

> <compound_smiles>
Cn1nc(nn1)NC(=O)Cc2cccc(c2)Cl

> <enantiomer_smiles>
Cn1nc(nn1)NC(=O)Cc2cccc(c2)Cl

> <scaffold>
chlorobenzene-linker

> <clash_score>
0

> <docking_score>
-5.160737991333008

> <overlap_score>
0.756893515586853

> <MMFF_internal_energy>
-5.107031004065926

> <docked_smiles>
Cn1nc(nn1)NC(=O)Cc2cccc(c2)Cl

$$$$
PET-UNK-f92d7c0c-3_1
  -OEChem-07262101023D

 33 34  0     1  0  0  0  0  0999 V2000
   11.9780    0.4600   23.9150 C   0  0  0  0  0  0  0  0  0  0  0  0
   10.6560    0.0720   23.7350 C   0  0  0  0  0  0  0  0  0  0  0  0
   12.9840   -0.1200   23.1530 C   0  0  0  0  0  0  0  0  0  0  0  0
   11.3360   -1.5050   22.0650 C   0  0  0  0  0  0  0  0  0  0  0  0
   10.3220   -0.8940   22.7910 C   0  0  0  0  0  0  0  0  0  0  0  0
   12.6400   -1.1000   22.2390 C   0  0  0  0  0  0  0  0  0  0  0  0
    8.3880   -0.3240   21.3070 C   0  0  0  0  0  0  0  0  0  0  0  0
    5.4798   -0.3681   19.0740 C   0  0  0  0  0  0  0  0  0  0  0  0
    5.4443    0.4671   17.8137 C   0  0  0  0  0  0  0  0  0  0  0  0
    7.4521    0.9054   18.9112 C   0  0  0  0  0  0  0  0  0  0  0  0
    6.9649   -0.4677   19.3363 C   0  0  1  0  0  0  0  0  0  0  0  0
    6.3186   -1.6470   21.3720 C   0  0  0  0  0  0  0  0  0  0  0  0
    8.8810   -1.1900   22.4510 C   0  0  0  0  0  0  0  0  0  0  0  0
    7.2820   -0.7860   20.6970 N   0  0  0  0  0  0  0  0  0  0  0  0
    8.9170    0.7530   21.0260 O   0  0  0  0  0  0  0  0  0  0  0  0
    6.5560    1.3696   17.8901 O   0  0  0  0  0  0  0  0  0  0  0  0
   13.8840   -1.8490   21.2740 Cl  0  0  0  0  0  0  0  0  0  0  0  0
   12.2249    1.2198   24.6546 H   0  0  0  0  0  0  0  0  0  0  0  0
    9.8763    0.5350   24.3454 H   0  0  0  0  0  0  0  0  0  0  0  0
   14.0077    0.1988   23.2842 H   0  0  0  0  0  0  0  0  0  0  0  0
   11.0892   -2.3008   21.3624 H   0  0  0  0  0  0  0  0  0  0  0  0
    4.8982    0.0587   19.8916 H   0  0  0  0  0  0  0  0  0  0  0  0
    5.0837   -1.3659   18.8622 H   0  0  0  0  0  0  0  0  0  0  0  0
    5.5225   -0.1371   16.9069 H   0  0  0  0  0  0  0  0  0  0  0  0
    4.5307    1.0662   17.7573 H   0  0  0  0  0  0  0  0  0  0  0  0
    7.4939    1.6327   19.7274 H   0  0  0  0  0  0  0  0  0  0  0  0
    8.4504    0.8396   18.4647 H   0  0  0  0  0  0  0  0  0  0  0  0
    7.4388   -1.2643   18.7078 H   0  0  0  0  0  0  0  0  0  0  0  0
    5.5514   -1.0277   21.8598 H   0  0  0  0  0  0  0  0  0  0  0  0
    5.8408   -2.3101   20.6358 H   0  0  0  0  0  0  0  0  0  0  0  0
    6.8366   -2.2532   22.1297 H   0  0  0  0  0  0  0  0  0  0  0  0
    8.2650   -1.0078   23.3308 H   0  0  0  0  0  0  0  0  0  0  0  0
    8.7923   -2.2398   22.1736 H   0  0  0  0  0  0  0  0  0  0  0  0
  1  2  2  0  0  0  0
  1  3  1  0  0  0  0
  2  5  1  0  0  0  0
  3  6  2  0  0  0  0
  4  5  2  0  0  0  0
  4  6  1  0  0  0  0
  5 13  1  0  0  0  0
  6 17  1  0  0  0  0
  7 13  1  0  0  0  0
  7 14  1  0  0  0  0
  7 15  2  0  0  0  0
  8  9  1  0  0  0  0
  8 11  1  0  0  0  0
  9 16  1  0  0  0  0
 10 11  1  0  0  0  0
 10 16  1  0  0  0  0
 11 14  1  0  0  0  0
 12 14  1  0  0  0  0
  1 18  1  0  0  0  0
  2 19  1  0  0  0  0
  3 20  1  0  0  0  0
  4 21  1  0  0  0  0
  8 22  1  0  0  0  0
  8 23  1  0  0  0  0
  9 24  1  0  0  0  0
  9 25  1  0  0  0  0
 10 26  1  0  0  0  0
 10 27  1  0  0  0  0
 11 28  1  0  0  0  0
 12 29  1  0  0  0  0
 12 30  1  0  0  0  0
 12 31  1  0  0  0  0
 13 32  1  0  0  0  0
 13 33  1  0  0  0  0
M  END
> <compound>
PET-UNK-f92d7c0c-3

> <compound_smiles>
CN([C@H]1CCOC1)C(=O)Cc2cccc(c2)Cl

> <enantiomer_smiles>
CN([C@H]1CCOC1)C(=O)Cc2cccc(c2)Cl

> <scaffold>
chlorobenzene-linker

> <clash_score>
0

> <docking_score>
-6.359152793884277

> <overlap_score>
0.7390555739402771

> <MMFF_internal_energy>
68.15174442424478

> <docked_smiles>
CN([C@H]1CCOC1)C(=O)Cc2cccc(c2)Cl

$$$$
ROB-UNI-daaf9793-4_2
  -OEChem-07262101023D

 38 40  0     1  0  0  0  0  0999 V2000
    2.8970    1.1573   22.9412 C   0  0  0  0  0  0  0  0  0  0  0  0
    3.7792    2.2352   22.9493 C   0  0  0  0  0  0  0  0  0  0  0  0
   11.9780    0.4600   23.9150 C   0  0  0  0  0  0  0  0  0  0  0  0
    3.0634    0.1246   22.0189 C   0  0  0  0  0  0  0  0  0  0  0  0
    4.8347    2.2805   22.0380 C   0  0  0  0  0  0  0  0  0  0  0  0
   10.6560    0.0720   23.7350 C   0  0  0  0  0  0  0  0  0  0  0  0
   12.9840   -0.1200   23.1530 C   0  0  0  0  0  0  0  0  0  0  0  0
   11.3360   -1.5050   22.0650 C   0  0  0  0  0  0  0  0  0  0  0  0
    4.1215    0.1694   21.1032 C   0  0  0  0  0  0  0  0  0  0  0  0
    5.0249    1.2432   21.1142 C   0  0  0  0  0  0  0  0  0  0  0  0
   10.3220   -0.8940   22.7910 C   0  0  0  0  0  0  0  0  0  0  0  0
   12.6400   -1.1000   22.2390 C   0  0  0  0  0  0  0  0  0  0  0  0
    4.2771   -0.9277   20.1138 C   0  0  0  0  0  0  0  0  0  0  0  0
    8.3880   -0.3240   21.3070 C   0  0  0  0  0  0  0  0  0  0  0  0
    6.1612    1.3266   20.1294 C   0  0  0  0  0  0  0  0  0  0  0  0
    5.4102   -0.8354   19.1132 C   0  0  0  0  0  0  0  0  0  0  0  0
    6.6069   -0.0541   19.6463 C   0  0  2  0  0  0  0  0  0  0  0  0
    8.8810   -1.1900   22.4510 C   0  0  0  0  0  0  0  0  0  0  0  0
    7.2820   -0.7860   20.6970 N   0  0  0  0  0  0  0  0  0  0  0  0
    3.4729   -1.8550   20.0809 O   0  0  0  0  0  0  0  0  0  0  0  0
    8.9170    0.7530   21.0260 O   0  0  0  0  0  0  0  0  0  0  0  0
   13.8840   -1.8490   21.2740 Cl  0  0  0  0  0  0  0  0  0  0  0  0
    2.0817    1.1185   23.6578 H   0  0  0  0  0  0  0  0  0  0  0  0
    3.6470    3.0401   23.6664 H   0  0  0  0  0  0  0  0  0  0  0  0
   12.2249    1.2198   24.6546 H   0  0  0  0  0  0  0  0  0  0  0  0
    2.3626   -0.7057   22.0327 H   0  0  0  0  0  0  0  0  0  0  0  0
    5.5083    3.1339   22.0514 H   0  0  0  0  0  0  0  0  0  0  0  0
    9.8763    0.5350   24.3454 H   0  0  0  0  0  0  0  0  0  0  0  0
   14.0077    0.1988   23.2842 H   0  0  0  0  0  0  0  0  0  0  0  0
   11.0892   -2.3009   21.3624 H   0  0  0  0  0  0  0  0  0  0  0  0
    5.8511    1.9284   19.2599 H   0  0  0  0  0  0  0  0  0  0  0  0
    6.9980    1.8577   20.6115 H   0  0  0  0  0  0  0  0  0  0  0  0
    5.6938   -1.8615   18.8341 H   0  0  0  0  0  0  0  0  0  0  0  0
    5.0204   -0.3368   18.2128 H   0  0  0  0  0  0  0  0  0  0  0  0
    7.3455    0.0674   18.8371 H   0  0  0  0  0  0  0  0  0  0  0  0
    8.7773   -2.2383   22.1737 H   0  0  0  0  0  0  0  0  0  0  0  0
    8.2516   -1.0144   23.3225 H   0  0  0  0  0  0  0  0  0  0  0  0
    6.9052   -1.6847   20.9852 H   0  0  0  0  0  0  0  0  0  0  0  0
  1  2  1  0  0  0  0
  1  4  2  0  0  0  0
  2  5  2  0  0  0  0
  3  6  2  0  0  0  0
  3  7  1  0  0  0  0
  4  9  1  0  0  0  0
  5 10  1  0  0  0  0
  6 11  1  0  0  0  0
  7 12  2  0  0  0  0
  8 11  2  0  0  0  0
  8 12  1  0  0  0  0
  9 10  2  0  0  0  0
  9 13  1  0  0  0  0
 10 15  1  0  0  0  0
 11 18  1  0  0  0  0
 12 22  1  0  0  0  0
 13 16  1  0  0  0  0
 13 20  2  0  0  0  0
 14 18  1  0  0  0  0
 14 19  1  0  0  0  0
 14 21  2  0  0  0  0
 15 17  1  0  0  0  0
 16 17  1  0  0  0  0
 17 19  1  6  0  0  0
  1 23  1  0  0  0  0
  2 24  1  0  0  0  0
  3 25  1  0  0  0  0
  4 26  1  0  0  0  0
  5 27  1  0  0  0  0
  6 28  1  0  0  0  0
  7 29  1  0  0  0  0
  8 30  1  0  0  0  0
 15 31  1  0  0  0  0
 15 32  1  0  0  0  0
 16 33  1  0  0  0  0
 16 34  1  0  0  0  0
 17 35  1  0  0  0  0
 18 36  1  0  0  0  0
 18 37  1  0  0  0  0
 19 38  1  0  0  0  0
M  END
> <compound>
ROB-UNI-daaf9793-4

> <compound_smiles>
c1ccc2c(c1)CC(CC2=O)NC(=O)Cc3cccc(c3)Cl

> <enantiomer_smiles>
c1ccc2c(c1)C[C@H](CC2=O)NC(=O)Cc3cccc(c3)Cl

> <scaffold>
chlorobenzene-linker

> <clash_score>
2.823291320955321

> <docking_score>
-2.9677226543426514

> <overlap_score>
0.7830610871315002

> <MMFF_internal_energy>
61.693189781149236

> <docked_smiles>
c1ccc2c(c1)C[C@H](CC2=O)NC(=O)Cc3cccc(c3)Cl

$$$$
VLA-UNK-411a133b-2_1
  -OEChem-07262101023D

 27 28  0     0  0  0  0  0  0999 V2000
   11.9780    0.4600   23.9150 C   0  0  0  0  0  0  0  0  0  0  0  0
   10.6560    0.0720   23.7350 C   0  0  0  0  0  0  0  0  0  0  0  0
   12.9840   -0.1200   23.1530 C   0  0  0  0  0  0  0  0  0  0  0  0
   11.3360   -1.5050   22.0650 C   0  0  0  0  0  0  0  0  0  0  0  0
   10.3220   -0.8940   22.7910 C   0  0  0  0  0  0  0  0  0  0  0  0
   12.6400   -1.1000   22.2390 C   0  0  0  0  0  0  0  0  0  0  0  0
    6.5418   -0.1622   19.6645 C   0  0  0  0  0  0  0  0  0  0  0  0
    8.3880   -0.3240   21.3070 C   0  0  0  0  0  0  0  0  0  0  0  0
    4.7876   -1.9688   19.4187 C   0  0  0  0  0  0  0  0  0  0  0  0
    8.8810   -1.1900   22.4510 C   0  0  0  0  0  0  0  0  0  0  0  0
    6.7694    0.9891   19.0754 N   0  0  0  0  0  0  0  0  0  0  0  0
    5.7674    1.1331   18.1425 N   0  0  0  0  0  0  0  0  0  0  0  0
    4.9452    0.0911   18.1607 N   0  0  0  0  0  0  0  0  0  0  0  0
    5.4313   -0.7171   19.1130 N   0  0  0  0  0  0  0  0  0  0  0  0
    7.2820   -0.7860   20.6970 N   0  0  0  0  0  0  0  0  0  0  0  0
    8.9170    0.7530   21.0260 O   0  0  0  0  0  0  0  0  0  0  0  0
   13.8840   -1.8490   21.2740 Cl  0  0  0  0  0  0  0  0  0  0  0  0
   12.2249    1.2198   24.6546 H   0  0  0  0  0  0  0  0  0  0  0  0
    9.8763    0.5350   24.3454 H   0  0  0  0  0  0  0  0  0  0  0  0
   14.0077    0.1988   23.2842 H   0  0  0  0  0  0  0  0  0  0  0  0
   11.0892   -2.3009   21.3624 H   0  0  0  0  0  0  0  0  0  0  0  0
    4.0457   -1.7844   20.2002 H   0  0  0  0  0  0  0  0  0  0  0  0
    4.3055   -2.3598   18.5184 H   0  0  0  0  0  0  0  0  0  0  0  0
    5.5376   -2.6861   19.7636 H   0  0  0  0  0  0  0  0  0  0  0  0
    8.7709   -2.2387   22.1706 H   0  0  0  0  0  0  0  0  0  0  0  0
    8.2491   -1.0157   23.3232 H   0  0  0  0  0  0  0  0  0  0  0  0
    6.9372   -1.6894   21.0149 H   0  0  0  0  0  0  0  0  0  0  0  0
  1  2  2  0  0  0  0
  1  3  1  0  0  0  0
  2  5  1  0  0  0  0
  3  6  2  0  0  0  0
  4  5  2  0  0  0  0
  4  6  1  0  0  0  0
  5 10  1  0  0  0  0
  6 17  1  0  0  0  0
  7 11  2  0  0  0  0
  7 14  1  0  0  0  0
  7 15  1  0  0  0  0
  8 10  1  0  0  0  0
  8 15  1  0  0  0  0
  8 16  2  0  0  0  0
  9 14  1  0  0  0  0
 11 12  1  0  0  0  0
 12 13  2  0  0  0  0
 13 14  1  0  0  0  0
  1 18  1  0  0  0  0
  2 19  1  0  0  0  0
  3 20  1  0  0  0  0
  4 21  1  0  0  0  0
  9 22  1  0  0  0  0
  9 23  1  0  0  0  0
  9 24  1  0  0  0  0
 10 25  1  0  0  0  0
 10 26  1  0  0  0  0
 15 27  1  0  0  0  0
M  END
> <compound>
VLA-UNK-411a133b-2

> <compound_smiles>
Cn1c(nnn1)NC(=O)Cc2cccc(c2)Cl

> <enantiomer_smiles>
Cn1c(nnn1)NC(=O)Cc2cccc(c2)Cl

> <scaffold>
chlorobenzene-linker

> <clash_score>
0

> <docking_score>
-4.168363094329834

> <overlap_score>
0.7395604848861694

> <MMFF_internal_energy>
31.045204770148757

> <docked_smiles>
Cn1c(nnn1)NC(=O)Cc2cccc(c2)Cl

$$$$
ROB-UNI-daaf9793-3_1
  -OEChem-07262101023D

 36 38  0     0  0  0  0  0  0999 V2000
    2.5056    1.6483   17.7577 C   0  0  0  0  0  0  0  0  0  0  0  0
    3.1503    1.8407   16.5395 C   0  0  0  0  0  0  0  0  0  0  0  0
   11.9780    0.4600   23.9150 C   0  0  0  0  0  0  0  0  0  0  0  0
    3.1959    1.0868   18.8323 C   0  0  0  0  0  0  0  0  0  0  0  0
    4.4878    1.4725   16.3911 C   0  0  0  0  0  0  0  0  0  0  0  0
   10.6560    0.0720   23.7350 C   0  0  0  0  0  0  0  0  0  0  0  0
   12.9840   -0.1200   23.1530 C   0  0  0  0  0  0  0  0  0  0  0  0
    5.2528    0.1438   19.7719 C   0  0  0  0  0  0  0  0  0  0  0  0
   11.3360   -1.5050   22.0650 C   0  0  0  0  0  0  0  0  0  0  0  0
    7.2349   -0.0320   18.4052 C   0  0  0  0  0  0  0  0  0  0  0  0
    4.5425    0.7103   18.7009 C   0  0  0  0  0  0  0  0  0  0  0  0
    5.1981    0.9060   17.4620 C   0  0  0  0  0  0  0  0  0  0  0  0
   10.3220   -0.8940   22.7910 C   0  0  0  0  0  0  0  0  0  0  0  0
    6.5902   -0.2245   19.6235 C   0  0  0  0  0  0  0  0  0  0  0  0
    6.5446    0.5294   17.3306 C   0  0  0  0  0  0  0  0  0  0  0  0
   12.6400   -1.1000   22.2390 C   0  0  0  0  0  0  0  0  0  0  0  0
    8.3880   -0.3240   21.3070 C   0  0  0  0  0  0  0  0  0  0  0  0
    8.8810   -1.1900   22.4510 C   0  0  0  0  0  0  0  0  0  0  0  0
    7.2820   -0.7860   20.6970 N   0  0  0  0  0  0  0  0  0  0  0  0
    8.9170    0.7530   21.0260 O   0  0  0  0  0  0  0  0  0  0  0  0
    7.2188    0.6985   16.1547 O   0  0  0  0  0  0  0  0  0  0  0  0
   13.8840   -1.8490   21.2740 Cl  0  0  0  0  0  0  0  0  0  0  0  0
    1.4643    1.9350   17.8727 H   0  0  0  0  0  0  0  0  0  0  0  0
    2.6123    2.2778   15.7032 H   0  0  0  0  0  0  0  0  0  0  0  0
   12.2249    1.2198   24.6546 H   0  0  0  0  0  0  0  0  0  0  0  0
    2.6709    0.9461   19.7748 H   0  0  0  0  0  0  0  0  0  0  0  0
    4.9622    1.6367   15.4261 H   0  0  0  0  0  0  0  0  0  0  0  0
    9.8763    0.5350   24.3454 H   0  0  0  0  0  0  0  0  0  0  0  0
   14.0077    0.1988   23.2842 H   0  0  0  0  0  0  0  0  0  0  0  0
    4.7581   -0.0115   20.7296 H   0  0  0  0  0  0  0  0  0  0  0  0
   11.0892   -2.3009   21.3624 H   0  0  0  0  0  0  0  0  0  0  0  0
    8.2774   -0.3190   18.2860 H   0  0  0  0  0  0  0  0  0  0  0  0
    8.7774   -2.2383   22.1732 H   0  0  0  0  0  0  0  0  0  0  0  0
    8.2557   -1.0153   23.3257 H   0  0  0  0  0  0  0  0  0  0  0  0
    6.8983   -1.6629   21.0683 H   0  0  0  0  0  0  0  0  0  0  0  0
    8.1307    0.3847   16.2473 H   0  0  0  0  0  0  0  0  0  0  0  0
  1  2  1  0  0  0  0
  1  4  2  0  0  0  0
  2  5  2  0  0  0  0
  3  6  2  0  0  0  0
  3  7  1  0  0  0  0
  4 11  1  0  0  0  0
  5 12  1  0  0  0  0
  6 13  1  0  0  0  0
  7 16  2  0  0  0  0
  8 11  2  0  0  0  0
  8 14  1  0  0  0  0
  9 13  2  0  0  0  0
  9 16  1  0  0  0  0
 10 14  2  0  0  0  0
 10 15  1  0  0  0  0
 11 12  1  0  0  0  0
 12 15  2  0  0  0  0
 13 18  1  0  0  0  0
 14 19  1  0  0  0  0
 15 21  1  0  0  0  0
 16 22  1  0  0  0  0
 17 18  1  0  0  0  0
 17 19  1  0  0  0  0
 17 20  2  0  0  0  0
  1 23  1  0  0  0  0
  2 24  1  0  0  0  0
  3 25  1  0  0  0  0
  4 26  1  0  0  0  0
  5 27  1  0  0  0  0
  6 28  1  0  0  0  0
  7 29  1  0  0  0  0
  8 30  1  0  0  0  0
  9 31  1  0  0  0  0
 10 32  1  0  0  0  0
 18 33  1  0  0  0  0
 18 34  1  0  0  0  0
 19 35  1  0  0  0  0
 21 36  1  0  0  0  0
M  END
> <compound>
ROB-UNI-daaf9793-3

> <compound_smiles>
c1ccc2c(c1)CC(=CC2=O)NC(=O)Cc3cccc(c3)Cl

> <enantiomer_smiles>
c1ccc2c(c1)CC(=CC2=O)NC(=O)Cc3cccc(c3)Cl

> <scaffold>
chlorobenzene-linker

> <clash_score>
4.257043634219506

> <docking_score>
-1.2040631771087646

> <overlap_score>
0.848291277885437

> <MMFF_internal_energy>
66.8620486435055

> <docked_smiles>
c1ccc2c(c1)cc(cc2O)NC(=O)Cc3cccc(c3)Cl

$$$$
ROB-UNI-daaf9793-4_1
  -OEChem-07262101023D

 38 40  0     1  0  0  0  0  0999 V2000
    4.2131    3.5925   17.0477 C   0  0  0  0  0  0  0  0  0  0  0  0
    3.8609    3.7863   18.3812 C   0  0  0  0  0  0  0  0  0  0  0  0
   11.9780    0.4600   23.9150 C   0  0  0  0  0  0  0  0  0  0  0  0
    5.1866    2.6524   16.7114 C   0  0  0  0  0  0  0  0  0  0  0  0
    4.4774    3.0355   19.3825 C   0  0  0  0  0  0  0  0  0  0  0  0
   10.6560    0.0720   23.7350 C   0  0  0  0  0  0  0  0  0  0  0  0
   12.9840   -0.1200   23.1530 C   0  0  0  0  0  0  0  0  0  0  0  0
   11.3360   -1.5050   22.0650 C   0  0  0  0  0  0  0  0  0  0  0  0
    5.8067    1.8989   17.7153 C   0  0  0  0  0  0  0  0  0  0  0  0
    5.4469    2.0753   19.0601 C   0  0  0  0  0  0  0  0  0  0  0  0
   10.3220   -0.8940   22.7910 C   0  0  0  0  0  0  0  0  0  0  0  0
   12.6400   -1.1000   22.2390 C   0  0  0  0  0  0  0  0  0  0  0  0
    6.8585    0.9170   17.3456 C   0  0  0  0  0  0  0  0  0  0  0  0
    8.3880   -0.3240   21.3070 C   0  0  0  0  0  0  0  0  0  0  0  0
    6.1105    1.2928   20.1629 C   0  0  0  0  0  0  0  0  0  0  0  0
    7.5328    0.1367   18.4537 C   0  0  0  0  0  0  0  0  0  0  0  0
    6.6093   -0.0567   19.6500 C   0  0  1  0  0  0  0  0  0  0  0  0
    8.8810   -1.1900   22.4510 C   0  0  0  0  0  0  0  0  0  0  0  0
    7.2820   -0.7860   20.6970 N   0  0  0  0  0  0  0  0  0  0  0  0
    7.2033    0.7861   16.1744 O   0  0  0  0  0  0  0  0  0  0  0  0
    8.9170    0.7530   21.0260 O   0  0  0  0  0  0  0  0  0  0  0  0
   13.8840   -1.8490   21.2740 Cl  0  0  0  0  0  0  0  0  0  0  0  0
    3.7326    4.1780   16.2691 H   0  0  0  0  0  0  0  0  0  0  0  0
    3.1070    4.5236   18.6422 H   0  0  0  0  0  0  0  0  0  0  0  0
   12.2249    1.2198   24.6546 H   0  0  0  0  0  0  0  0  0  0  0  0
    5.4500    2.5251   15.6649 H   0  0  0  0  0  0  0  0  0  0  0  0
    4.1942    3.2027   20.4187 H   0  0  0  0  0  0  0  0  0  0  0  0
    9.8763    0.5350   24.3454 H   0  0  0  0  0  0  0  0  0  0  0  0
   14.0077    0.1988   23.2842 H   0  0  0  0  0  0  0  0  0  0  0  0
   11.0892   -2.3009   21.3624 H   0  0  0  0  0  0  0  0  0  0  0  0
    6.9414    1.8897   20.5596 H   0  0  0  0  0  0  0  0  0  0  0  0
    5.3955    1.1268   20.9785 H   0  0  0  0  0  0  0  0  0  0  0  0
    7.8173   -0.8419   18.0487 H   0  0  0  0  0  0  0  0  0  0  0  0
    8.4461    0.6745   18.7348 H   0  0  0  0  0  0  0  0  0  0  0  0
    5.7516   -0.6723   19.3491 H   0  0  0  0  0  0  0  0  0  0  0  0
    8.7773   -2.2383   22.1737 H   0  0  0  0  0  0  0  0  0  0  0  0
    8.2516   -1.0144   23.3225 H   0  0  0  0  0  0  0  0  0  0  0  0
    6.9052   -1.6847   20.9852 H   0  0  0  0  0  0  0  0  0  0  0  0
  1  2  1  0  0  0  0
  1  4  2  0  0  0  0
  2  5  2  0  0  0  0
  3  6  2  0  0  0  0
  3  7  1  0  0  0  0
  4  9  1  0  0  0  0
  5 10  1  0  0  0  0
  6 11  1  0  0  0  0
  7 12  2  0  0  0  0
  8 11  2  0  0  0  0
  8 12  1  0  0  0  0
  9 10  2  0  0  0  0
  9 13  1  0  0  0  0
 10 15  1  0  0  0  0
 11 18  1  0  0  0  0
 12 22  1  0  0  0  0
 13 16  1  0  0  0  0
 13 20  2  0  0  0  0
 14 18  1  0  0  0  0
 14 19  1  0  0  0  0
 14 21  2  0  0  0  0
 15 17  1  0  0  0  0
 16 17  1  0  0  0  0
 17 19  1  1  0  0  0
  1 23  1  0  0  0  0
  2 24  1  0  0  0  0
  3 25  1  0  0  0  0
  4 26  1  0  0  0  0
  5 27  1  0  0  0  0
  6 28  1  0  0  0  0
  7 29  1  0  0  0  0
  8 30  1  0  0  0  0
 15 31  1  0  0  0  0
 15 32  1  0  0  0  0
 16 33  1  0  0  0  0
 16 34  1  0  0  0  0
 17 35  1  0  0  0  0
 18 36  1  0  0  0  0
 18 37  1  0  0  0  0
 19 38  1  0  0  0  0
M  END
> <compound>
ROB-UNI-daaf9793-4

> <compound_smiles>
c1ccc2c(c1)CC(CC2=O)NC(=O)Cc3cccc(c3)Cl

> <enantiomer_smiles>
c1ccc2c(c1)C[C@@H](CC2=O)NC(=O)Cc3cccc(c3)Cl

> <scaffold>
chlorobenzene-linker

> <clash_score>
2.113548137879274

> <docking_score>
-0.2370225191116333

> <overlap_score>
0.8074585795402527

> <MMFF_internal_energy>
62.310320606981165

> <docked_smiles>
c1ccc2c(c1)C[C@@H](CC2=O)NC(=O)Cc3cccc(c3)Cl

$$$$
PET-UNK-f92d7c0c-2_1
  -OEChem-07262101023D

 37 39  0     1  0  0  0  0  0999 V2000
    3.6771    2.7740   21.0876 C   0  0  0  0  0  0  0  0  0  0  0  0
    4.8869    2.6296   21.7614 C   0  0  0  0  0  0  0  0  0  0  0  0
   11.9780    0.4600   23.9150 C   0  0  0  0  0  0  0  0  0  0  0  0
    3.4174    2.0091   19.9518 C   0  0  0  0  0  0  0  0  0  0  0  0
    5.8354    1.7125   21.3072 C   0  0  0  0  0  0  0  0  0  0  0  0
   10.6560    0.0720   23.7350 C   0  0  0  0  0  0  0  0  0  0  0  0
   12.9840   -0.1200   23.1530 C   0  0  0  0  0  0  0  0  0  0  0  0
   11.3360   -1.5050   22.0650 C   0  0  0  0  0  0  0  0  0  0  0  0
    4.3682    1.0932   19.4815 C   0  0  0  0  0  0  0  0  0  0  0  0
    5.5786    0.9192   20.1785 C   0  0  0  0  0  0  0  0  0  0  0  0
   10.3220   -0.8940   22.7910 C   0  0  0  0  0  0  0  0  0  0  0  0
   12.6400   -1.1000   22.2390 C   0  0  0  0  0  0  0  0  0  0  0  0
    8.3880   -0.3240   21.3070 C   0  0  0  0  0  0  0  0  0  0  0  0
    4.0663    0.2678   18.2579 C   0  0  0  0  0  0  0  0  0  0  0  0
    5.9889   -1.0391   18.6582 C   0  0  0  0  0  0  0  0  0  0  0  0
    6.6103   -0.0547   19.6495 C   0  0  2  0  0  0  0  0  0  0  0  0
    8.8810   -1.1900   22.4510 C   0  0  0  0  0  0  0  0  0  0  0  0
    7.2820   -0.7860   20.6970 N   0  0  0  0  0  0  0  0  0  0  0  0
    8.9170    0.7530   21.0260 O   0  0  0  0  0  0  0  0  0  0  0  0
    5.2388   -0.3152   17.6828 O   0  0  0  0  0  0  0  0  0  0  0  0
   13.8840   -1.8490   21.2740 Cl  0  0  0  0  0  0  0  0  0  0  0  0
    2.9372    3.4835   21.4453 H   0  0  0  0  0  0  0  0  0  0  0  0
    5.0940    3.2320   22.6415 H   0  0  0  0  0  0  0  0  0  0  0  0
   12.2249    1.2198   24.6546 H   0  0  0  0  0  0  0  0  0  0  0  0
    2.4701    2.1308   19.4323 H   0  0  0  0  0  0  0  0  0  0  0  0
    6.7799    1.6178   21.8396 H   0  0  0  0  0  0  0  0  0  0  0  0
    9.8763    0.5350   24.3454 H   0  0  0  0  0  0  0  0  0  0  0  0
   14.0077    0.1988   23.2842 H   0  0  0  0  0  0  0  0  0  0  0  0
   11.0892   -2.3009   21.3624 H   0  0  0  0  0  0  0  0  0  0  0  0
    3.3965   -0.5559   18.5193 H   0  0  0  0  0  0  0  0  0  0  0  0
    3.5748    0.8891   17.5026 H   0  0  0  0  0  0  0  0  0  0  0  0
    6.7557   -1.6405   18.1565 H   0  0  0  0  0  0  0  0  0  0  0  0
    5.3137   -1.7326   19.1681 H   0  0  0  0  0  0  0  0  0  0  0  0
    7.4031    0.5033   19.1080 H   0  0  0  0  0  0  0  0  0  0  0  0
    8.7773   -2.2383   22.1737 H   0  0  0  0  0  0  0  0  0  0  0  0
    8.2516   -1.0144   23.3225 H   0  0  0  0  0  0  0  0  0  0  0  0
    6.9051   -1.6836   20.9844 H   0  0  0  0  0  0  0  0  0  0  0  0
  1  2  1  0  0  0  0
  1  4  2  0  0  0  0
  2  5  2  0  0  0  0
  3  6  2  0  0  0  0
  3  7  1  0  0  0  0
  4  9  1  0  0  0  0
  5 10  1  0  0  0  0
  6 11  1  0  0  0  0
  7 12  2  0  0  0  0
  8 11  2  0  0  0  0
  8 12  1  0  0  0  0
  9 10  2  0  0  0  0
  9 14  1  0  0  0  0
 10 16  1  0  0  0  0
 11 17  1  0  0  0  0
 12 21  1  0  0  0  0
 13 17  1  0  0  0  0
 13 18  1  0  0  0  0
 13 19  2  0  0  0  0
 14 20  1  0  0  0  0
 15 16  1  0  0  0  0
 15 20  1  0  0  0  0
 16 18  1  0  0  0  0
  1 22  1  0  0  0  0
  2 23  1  0  0  0  0
  3 24  1  0  0  0  0
  4 25  1  0  0  0  0
  5 26  1  0  0  0  0
  6 27  1  0  0  0  0
  7 28  1  0  0  0  0
  8 29  1  0  0  0  0
 14 30  1  0  0  0  0
 14 31  1  0  0  0  0
 15 32  1  0  0  0  0
 15 33  1  0  0  0  0
 16 34  1  0  0  0  0
 17 35  1  0  0  0  0
 17 36  1  0  0  0  0
 18 37  1  0  0  0  0
M  END
> <compound>
PET-UNK-f92d7c0c-2

> <compound_smiles>
c1ccc2c(c1)COC[C@@H]2NC(=O)Cc3cccc(c3)Cl

> <enantiomer_smiles>
c1ccc2c(c1)COC[C@@H]2NC(=O)Cc3cccc(c3)Cl

> <scaffold>
chlorobenzene-linker

> <clash_score>
0

> <docking_score>
-6.655941963195801

> <overlap_score>
0.8886571526527405

> <MMFF_internal_energy>
74.00163615188345

> <docked_smiles>
c1ccc2c(c1)COC[C@@H]2NC(=O)Cc3cccc(c3)Cl

$$$$
PET-UNK-f92d7c0c-5_1
  -OEChem-07262101023D

 30 31  0     1  0  0  0  0  0999 V2000
   11.9780    0.4600   23.9150 C   0  0  0  0  0  0  0  0  0  0  0  0
   10.6560    0.0720   23.7350 C   0  0  0  0  0  0  0  0  0  0  0  0
   12.9840   -0.1200   23.1530 C   0  0  0  0  0  0  0  0  0  0  0  0
   11.3360   -1.5050   22.0650 C   0  0  0  0  0  0  0  0  0  0  0  0
   10.3220   -0.8940   22.7910 C   0  0  0  0  0  0  0  0  0  0  0  0
   12.6400   -1.1000   22.2390 C   0  0  0  0  0  0  0  0  0  0  0  0
    8.3880   -0.3240   21.3070 C   0  0  0  0  0  0  0  0  0  0  0  0
    7.4648    0.1412   18.4246 C   0  0  0  0  0  0  0  0  0  0  0  0
    6.4176    0.4043   17.3658 C   0  0  0  0  0  0  0  0  0  0  0  0
    5.4112   -0.7949   19.0911 C   0  0  0  0  0  0  0  0  0  0  0  0
    6.6136   -0.0616   19.6568 C   0  0  1  0  0  0  0  0  0  0  0  0
    8.8810   -1.1900   22.4510 C   0  0  0  0  0  0  0  0  0  0  0  0
    7.2820   -0.7860   20.6970 N   0  0  0  0  0  0  0  0  0  0  0  0
    8.9170    0.7530   21.0260 O   0  0  0  0  0  0  0  0  0  0  0  0
    5.2676   -0.3725   17.7265 O   0  0  0  0  0  0  0  0  0  0  0  0
   13.8840   -1.8490   21.2740 Cl  0  0  0  0  0  0  0  0  0  0  0  0
   12.2249    1.2198   24.6546 H   0  0  0  0  0  0  0  0  0  0  0  0
    9.8763    0.5350   24.3454 H   0  0  0  0  0  0  0  0  0  0  0  0
   14.0077    0.1988   23.2842 H   0  0  0  0  0  0  0  0  0  0  0  0
   11.0892   -2.3008   21.3624 H   0  0  0  0  0  0  0  0  0  0  0  0
    8.1247   -0.6923   18.1819 H   0  0  0  0  0  0  0  0  0  0  0  0
    8.0830    1.0344   18.5570 H   0  0  0  0  0  0  0  0  0  0  0  0
    6.1429    1.4596   17.2997 H   0  0  0  0  0  0  0  0  0  0  0  0
    6.7527    0.0677   16.3804 H   0  0  0  0  0  0  0  0  0  0  0  0
    5.4960   -1.8848   19.1356 H   0  0  0  0  0  0  0  0  0  0  0  0
    4.4975   -0.5044   19.6211 H   0  0  0  0  0  0  0  0  0  0  0  0
    6.3054    0.9132   20.1103 H   0  0  0  0  0  0  0  0  0  0  0  0
    8.7773   -2.2383   22.1737 H   0  0  0  0  0  0  0  0  0  0  0  0
    8.2516   -1.0144   23.3225 H   0  0  0  0  0  0  0  0  0  0  0  0
    6.9052   -1.6848   20.9853 H   0  0  0  0  0  0  0  0  0  0  0  0
  1  2  1  0  0  0  0
  1  3  2  0  0  0  0
  2  5  2  0  0  0  0
  3  6  1  0  0  0  0
  4  5  1  0  0  0  0
  4  6  2  0  0  0  0
  5 12  1  0  0  0  0
  6 16  1  0  0  0  0
  7 12  1  0  0  0  0
  7 13  1  0  0  0  0
  7 14  2  0  0  0  0
  8  9  1  0  0  0  0
  8 11  1  0  0  0  0
  9 15  1  0  0  0  0
 10 11  1  0  0  0  0
 10 15  1  0  0  0  0
 11 13  1  0  0  0  0
  1 17  1  0  0  0  0
  2 18  1  0  0  0  0
  3 19  1  0  0  0  0
  4 20  1  0  0  0  0
  8 21  1  0  0  0  0
  8 22  1  0  0  0  0
  9 23  1  0  0  0  0
  9 24  1  0  0  0  0
 10 25  1  0  0  0  0
 10 26  1  0  0  0  0
 11 27  1  0  0  0  0
 12 28  1  0  0  0  0
 12 29  1  0  0  0  0
 13 30  1  0  0  0  0
M  END
> <compound>
PET-UNK-f92d7c0c-5

> <compound_smiles>
c1cc(cc(c1)Cl)CC(=O)N[C@H]2CCOC2

> <enantiomer_smiles>
c1cc(cc(c1)Cl)CC(=O)N[C@H]2CCOC2

> <scaffold>
chlorobenzene-linker

> <clash_score>
0

> <docking_score>
-5.661849498748779

> <overlap_score>
0.7130839228630066

> <MMFF_internal_energy>
42.57257937036291

> <docked_smiles>
c1cc(cc(c1)Cl)CC(=O)N[C@H]2CCOC2

$$$$
PET-UNK-f92d7c0c-1_1
  -OEChem-07262101023D

 33 34  0     1  0  0  0  0  0999 V2000
   11.9780    0.4600   23.9150 C   0  0  0  0  0  0  0  0  0  0  0  0
   10.6560    0.0720   23.7350 C   0  0  0  0  0  0  0  0  0  0  0  0
   12.9840   -0.1200   23.1530 C   0  0  0  0  0  0  0  0  0  0  0  0
   11.3360   -1.5050   22.0650 C   0  0  0  0  0  0  0  0  0  0  0  0
   10.3220   -0.8940   22.7910 C   0  0  0  0  0  0  0  0  0  0  0  0
   12.6400   -1.1000   22.2390 C   0  0  0  0  0  0  0  0  0  0  0  0
    8.3880   -0.3240   21.3070 C   0  0  0  0  0  0  0  0  0  0  0  0
    4.7934    1.5844   19.1125 C   0  0  0  0  0  0  0  0  0  0  0  0
    5.5794    0.9097   20.2333 C   0  0  0  0  0  0  0  0  0  0  0  0
    4.2363    0.5483   18.1452 C   0  0  0  0  0  0  0  0  0  0  0  0
    5.9492   -1.0097   18.6543 C   0  0  0  0  0  0  0  0  0  0  0  0
    6.6089   -0.0595   19.6515 C   0  0  2  0  0  0  0  0  0  0  0  0
    8.8810   -1.1900   22.4510 C   0  0  0  0  0  0  0  0  0  0  0  0
    7.2820   -0.7860   20.6970 N   0  0  0  0  0  0  0  0  0  0  0  0
    8.9170    0.7530   21.0260 O   0  0  0  0  0  0  0  0  0  0  0  0
    5.2819   -0.2735   17.6269 O   0  0  0  0  0  0  0  0  0  0  0  0
   13.8840   -1.8490   21.2740 Cl  0  0  0  0  0  0  0  0  0  0  0  0
   12.2249    1.2198   24.6546 H   0  0  0  0  0  0  0  0  0  0  0  0
    9.8763    0.5350   24.3454 H   0  0  0  0  0  0  0  0  0  0  0  0
   14.0077    0.1988   23.2842 H   0  0  0  0  0  0  0  0  0  0  0  0
   11.0892   -2.3009   21.3624 H   0  0  0  0  0  0  0  0  0  0  0  0
    3.9832    2.1922   19.5286 H   0  0  0  0  0  0  0  0  0  0  0  0
    5.4678    2.2573   18.5688 H   0  0  0  0  0  0  0  0  0  0  0  0
    6.0724    1.6714   20.8486 H   0  0  0  0  0  0  0  0  0  0  0  0
    4.8803    0.3684   20.8840 H   0  0  0  0  0  0  0  0  0  0  0  0
    3.4816   -0.0832   18.6285 H   0  0  0  0  0  0  0  0  0  0  0  0
    3.7554    1.0495   17.2992 H   0  0  0  0  0  0  0  0  0  0  0  0
    6.7052   -1.6353   18.1673 H   0  0  0  0  0  0  0  0  0  0  0  0
    5.2291   -1.6776   19.1429 H   0  0  0  0  0  0  0  0  0  0  0  0
    7.3766    0.5252   19.1300 H   0  0  0  0  0  0  0  0  0  0  0  0
    8.7773   -2.2383   22.1737 H   0  0  0  0  0  0  0  0  0  0  0  0
    8.2516   -1.0144   23.3225 H   0  0  0  0  0  0  0  0  0  0  0  0
    6.9054   -1.6858   20.9860 H   0  0  0  0  0  0  0  0  0  0  0  0
  1  2  1  0  0  0  0
  1  3  2  0  0  0  0
  2  5  2  0  0  0  0
  3  6  1  0  0  0  0
  4  5  1  0  0  0  0
  4  6  2  0  0  0  0
  5 13  1  0  0  0  0
  6 17  1  0  0  0  0
  7 13  1  0  0  0  0
  7 14  1  0  0  0  0
  7 15  2  0  0  0  0
  8  9  1  0  0  0  0
  8 10  1  0  0  0  0
  9 12  1  0  0  0  0
 10 16  1  0  0  0  0
 11 12  1  0  0  0  0
 11 16  1  0  0  0  0
 12 14  1  0  0  0  0
  1 18  1  0  0  0  0
  2 19  1  0  0  0  0
  3 20  1  0  0  0  0
  4 21  1  0  0  0  0
  8 22  1  0  0  0  0
  8 23  1  0  0  0  0
  9 24  1  0  0  0  0
  9 25  1  0  0  0  0
 10 26  1  0  0  0  0
 10 27  1  0  0  0  0
 11 28  1  0  0  0  0
 11 29  1  0  0  0  0
 12 30  1  0  0  0  0
 13 31  1  0  0  0  0
 13 32  1  0  0  0  0
 14 33  1  0  0  0  0
M  END
> <compound>
PET-UNK-f92d7c0c-1

> <compound_smiles>
c1cc(cc(c1)Cl)CC(=O)N[C@@H]2CCCOC2

> <enantiomer_smiles>
c1cc(cc(c1)Cl)CC(=O)N[C@@H]2CCCOC2

> <scaffold>
chlorobenzene-linker

> <clash_score>
0

> <docking_score>
-6.202428340911865

> <overlap_score>
0.7755287289619446

> <MMFF_internal_energy>
44.28602075047097

> <docked_smiles>
c1cc(cc(c1)Cl)CC(=O)N[C@@H]2CCCOC2

$$$$
BEN-DND-02317c5c-8_1
  -OEChem-07262101023D

 31 33  0     0  0  0  0  0  0999 V2000
   11.9780    0.4600   23.9150 C   0  0  0  0  0  0  0  0  0  0  0  0
   10.6560    0.0720   23.7350 C   0  0  0  0  0  0  0  0  0  0  0  0
   12.9840   -0.1200   23.1530 C   0  0  0  0  0  0  0  0  0  0  0  0
   11.3360   -1.5050   22.0650 C   0  0  0  0  0  0  0  0  0  0  0  0
   10.3220   -0.8940   22.7910 C   0  0  0  0  0  0  0  0  0  0  0  0
   12.6400   -1.1000   22.2390 C   0  0  0  0  0  0  0  0  0  0  0  0
    4.9793    0.0930   18.1993 C   0  0  0  0  0  0  0  0  0  0  0  0
    6.5436   -0.2072   19.6961 C   0  0  0  0  0  0  0  0  0  0  0  0
    3.8109   -0.2708   17.4736 C   0  0  0  0  0  0  0  0  0  0  0  0
    3.2009   -1.4411   17.7472 C   0  0  0  0  0  0  0  0  0  0  0  0
    3.7091   -2.3452   18.7698 C   0  0  0  0  0  0  0  0  0  0  0  0
    4.8124   -2.0026   19.4556 C   0  0  0  0  0  0  0  0  0  0  0  0
    8.3880   -0.3240   21.3070 C   0  0  0  0  0  0  0  0  0  0  0  0
    8.8810   -1.1900   22.4510 C   0  0  0  0  0  0  0  0  0  0  0  0
    5.7766    1.1395   18.1642 N   0  0  0  0  0  0  0  0  0  0  0  0
    6.7643    0.9486   19.1102 N   0  0  0  0  0  0  0  0  0  0  0  0
    5.4313   -0.7937   19.1641 N   0  0  0  0  0  0  0  0  0  0  0  0
    7.2820   -0.7860   20.6970 N   0  0  0  0  0  0  0  0  0  0  0  0
    8.9170    0.7530   21.0260 O   0  0  0  0  0  0  0  0  0  0  0  0
   13.8840   -1.8490   21.2740 Cl  0  0  0  0  0  0  0  0  0  0  0  0
   12.2249    1.2198   24.6546 H   0  0  0  0  0  0  0  0  0  0  0  0
    9.8763    0.5350   24.3454 H   0  0  0  0  0  0  0  0  0  0  0  0
   14.0077    0.1988   23.2842 H   0  0  0  0  0  0  0  0  0  0  0  0
   11.0892   -2.3009   21.3624 H   0  0  0  0  0  0  0  0  0  0  0  0
    3.4255    0.3962   16.7109 H   0  0  0  0  0  0  0  0  0  0  0  0
    2.3092   -1.7416   17.2079 H   0  0  0  0  0  0  0  0  0  0  0  0
    3.1857   -3.2755   18.9532 H   0  0  0  0  0  0  0  0  0  0  0  0
    5.2395   -2.6316   20.2269 H   0  0  0  0  0  0  0  0  0  0  0  0
    8.7775   -2.2383   22.1732 H   0  0  0  0  0  0  0  0  0  0  0  0
    8.2557   -1.0153   23.3257 H   0  0  0  0  0  0  0  0  0  0  0  0
    6.9401   -1.7071   21.0292 H   0  0  0  0  0  0  0  0  0  0  0  0
  1  2  2  0  0  0  0
  1  3  1  0  0  0  0
  2  5  1  0  0  0  0
  3  6  2  0  0  0  0
  4  5  2  0  0  0  0
  4  6  1  0  0  0  0
  5 14  1  0  0  0  0
  6 20  1  0  0  0  0
  7  9  1  0  0  0  0
  7 15  2  0  0  0  0
  7 17  1  0  0  0  0
  8 16  2  0  0  0  0
  8 17  1  0  0  0  0
  8 18  1  0  0  0  0
  9 10  2  0  0  0  0
 10 11  1  0  0  0  0
 11 12  2  0  0  0  0
 12 17  1  0  0  0  0
 13 14  1  0  0  0  0
 13 18  1  0  0  0  0
 13 19  2  0  0  0  0
 15 16  1  0  0  0  0
  1 21  1  0  0  0  0
  2 22  1  0  0  0  0
  3 23  1  0  0  0  0
  4 24  1  0  0  0  0
  9 25  1  0  0  0  0
 10 26  1  0  0  0  0
 11 27  1  0  0  0  0
 12 28  1  0  0  0  0
 14 29  1  0  0  0  0
 14 30  1  0  0  0  0
 18 31  1  0  0  0  0
M  END
> <compound>
BEN-DND-02317c5c-8

> <compound_smiles>
c1ccn2c(c1)nnc2NC(=O)Cc3cccc(c3)Cl

> <enantiomer_smiles>
c1ccn2c(c1)nnc2NC(=O)Cc3cccc(c3)Cl

> <scaffold>
chlorobenzene-linker

> <clash_score>
4.0038431256247895

> <docking_score>
0.056696176528930664

> <overlap_score>
0.7417444586753845

> <MMFF_internal_energy>
61.745113280462355

> <docked_smiles>
c1ccn2c(c1)nnc2NC(=O)Cc3cccc(c3)Cl

$$$$
BEN-DND-02317c5c-9_1
  -OEChem-07262101023D

 33 35  0     0  0  0  0  0  0999 V2000
   11.9780    0.4600   23.9150 C   0  0  0  0  0  0  0  0  0  0  0  0
   10.6560    0.0720   23.7350 C   0  0  0  0  0  0  0  0  0  0  0  0
   12.9840   -0.1200   23.1530 C   0  0  0  0  0  0  0  0  0  0  0  0
   11.3360   -1.5050   22.0650 C   0  0  0  0  0  0  0  0  0  0  0  0
    5.9962    1.1137   18.0057 C   0  0  0  0  0  0  0  0  0  0  0  0
   10.3220   -0.8940   22.7910 C   0  0  0  0  0  0  0  0  0  0  0  0
   12.6400   -1.1000   22.2390 C   0  0  0  0  0  0  0  0  0  0  0  0
    5.0942    0.0858   18.0377 C   0  0  0  0  0  0  0  0  0  0  0  0
    6.5905   -0.2578   19.6509 C   0  0  0  0  0  0  0  0  0  0  0  0
    3.8976   -0.2208   17.2207 C   0  0  0  0  0  0  0  0  0  0  0  0
    3.2353   -1.3459   17.5457 C   0  0  0  0  0  0  0  0  0  0  0  0
    3.6893   -2.1962   18.6425 C   0  0  0  0  0  0  0  0  0  0  0  0
    4.7793   -1.9057   19.3777 C   0  0  0  0  0  0  0  0  0  0  0  0
    8.3880   -0.3240   21.3070 C   0  0  0  0  0  0  0  0  0  0  0  0
    8.8810   -1.1900   22.4510 C   0  0  0  0  0  0  0  0  0  0  0  0
    5.4891   -0.7602   19.0781 N   0  0  0  0  0  0  0  0  0  0  0  0
    6.9045    0.8745   19.0096 N   0  3  0  0  0  0  0  0  0  0  0  0
    7.2820   -0.7860   20.6970 N   0  0  0  0  0  0  0  0  0  0  0  0
    8.9170    0.7530   21.0260 O   0  0  0  0  0  0  0  0  0  0  0  0
   13.8840   -1.8490   21.2740 Cl  0  0  0  0  0  0  0  0  0  0  0  0
   12.2249    1.2198   24.6546 H   0  0  0  0  0  0  0  0  0  0  0  0
    9.8763    0.5350   24.3454 H   0  0  0  0  0  0  0  0  0  0  0  0
   14.0077    0.1988   23.2842 H   0  0  0  0  0  0  0  0  0  0  0  0
   11.0892   -2.3009   21.3624 H   0  0  0  0  0  0  0  0  0  0  0  0
    6.1353    1.9957   17.4128 H   0  0  0  0  0  0  0  0  0  0  0  0
    3.5885    0.4319   16.4143 H   0  0  0  0  0  0  0  0  0  0  0  0
    2.3481   -1.6497   17.0014 H   0  0  0  0  0  0  0  0  0  0  0  0
    3.1086   -3.0885   18.8513 H   0  0  0  0  0  0  0  0  0  0  0  0
    5.1321   -2.5230   20.1936 H   0  0  0  0  0  0  0  0  0  0  0  0
    8.7774   -2.2383   22.1732 H   0  0  0  0  0  0  0  0  0  0  0  0
    8.2557   -1.0153   23.3257 H   0  0  0  0  0  0  0  0  0  0  0  0
    7.6976    1.4695   19.2333 H   0  0  0  0  0  0  0  0  0  0  0  0
    6.8996   -1.6766   21.0807 H   0  0  0  0  0  0  0  0  0  0  0  0
  1  2  2  0  0  0  0
  1  3  1  0  0  0  0
  2  6  1  0  0  0  0
  3  7  2  0  0  0  0
  4  6  2  0  0  0  0
  4  7  1  0  0  0  0
  5  8  2  0  0  0  0
  5 17  1  0  0  0  0
  6 15  1  0  0  0  0
  7 20  1  0  0  0  0
  8 10  1  0  0  0  0
  8 16  1  0  0  0  0
  9 16  1  0  0  0  0
  9 17  2  0  0  0  0
  9 18  1  0  0  0  0
 10 11  2  0  0  0  0
 11 12  1  0  0  0  0
 12 13  2  0  0  0  0
 13 16  1  0  0  0  0
 14 15  1  0  0  0  0
 14 18  1  0  0  0  0
 14 19  2  0  0  0  0
  1 21  1  0  0  0  0
  2 22  1  0  0  0  0
  3 23  1  0  0  0  0
  4 24  1  0  0  0  0
  5 25  1  0  0  0  0
 10 26  1  0  0  0  0
 11 27  1  0  0  0  0
 12 28  1  0  0  0  0
 13 29  1  0  0  0  0
 15 30  1  0  0  0  0
 15 31  1  0  0  0  0
 17 32  1  0  0  0  0
 18 33  1  0  0  0  0
M  CHG  1  17   1
M  END
> <compound>
BEN-DND-02317c5c-9

> <compound_smiles>
c1ccn2c(c1)cnc2NC(=O)Cc3cccc(c3)Cl

> <enantiomer_smiles>
c1ccn2c(c1)cnc2NC(=O)Cc3cccc(c3)Cl

> <scaffold>
chlorobenzene-linker

> <clash_score>
3.9279841321802227

> <docking_score>
-0.9152788519859314

> <overlap_score>
0.7408018112182617

> <MMFF_internal_energy>
-63.003342387135774

> <docked_smiles>
c1ccn2c(c1)c[nH+]c2NC(=O)Cc3cccc(c3)Cl

$$$$
PET-UNK-f92d7c0c-4_1
  -OEChem-07262101023D

 30 31  0     1  0  0  0  0  0999 V2000
   11.9780    0.4600   23.9150 C   0  0  0  0  0  0  0  0  0  0  0  0
   10.6560    0.0720   23.7350 C   0  0  0  0  0  0  0  0  0  0  0  0
   12.9840   -0.1200   23.1530 C   0  0  0  0  0  0  0  0  0  0  0  0
   11.3360   -1.5050   22.0650 C   0  0  0  0  0  0  0  0  0  0  0  0
   10.3220   -0.8940   22.7910 C   0  0  0  0  0  0  0  0  0  0  0  0
   12.6400   -1.1000   22.2390 C   0  0  0  0  0  0  0  0  0  0  0  0
    8.3880   -0.3240   21.3070 C   0  0  0  0  0  0  0  0  0  0  0  0
    5.5054    0.8316   20.1619 C   0  0  0  0  0  0  0  0  0  0  0  0
    4.6859    1.0382   18.9053 C   0  0  0  0  0  0  0  0  0  0  0  0
    5.8618   -0.9632   18.6852 C   0  0  0  0  0  0  0  0  0  0  0  0
    6.6075   -0.0692   19.6569 C   0  0  2  0  0  0  0  0  0  0  0  0
    8.8810   -1.1900   22.4510 C   0  0  0  0  0  0  0  0  0  0  0  0
    7.2820   -0.7860   20.6970 N   0  0  0  0  0  0  0  0  0  0  0  0
    8.9170    0.7530   21.0260 O   0  0  0  0  0  0  0  0  0  0  0  0
    4.7988   -0.1676   18.1353 O   0  0  0  0  0  0  0  0  0  0  0  0
   13.8840   -1.8490   21.2740 Cl  0  0  0  0  0  0  0  0  0  0  0  0
   12.2249    1.2198   24.6546 H   0  0  0  0  0  0  0  0  0  0  0  0
    9.8763    0.5350   24.3454 H   0  0  0  0  0  0  0  0  0  0  0  0
   14.0077    0.1988   23.2842 H   0  0  0  0  0  0  0  0  0  0  0  0
   11.0892   -2.3009   21.3624 H   0  0  0  0  0  0  0  0  0  0  0  0
    5.8632    1.7707   20.5928 H   0  0  0  0  0  0  0  0  0  0  0  0
    4.8970    0.3151   20.9149 H   0  0  0  0  0  0  0  0  0  0  0  0
    3.6329    1.2426   19.1183 H   0  0  0  0  0  0  0  0  0  0  0  0
    5.0866    1.8592   18.3011 H   0  0  0  0  0  0  0  0  0  0  0  0
    6.4996   -1.3301   17.8756 H   0  0  0  0  0  0  0  0  0  0  0  0
    5.3988   -1.8229   19.1827 H   0  0  0  0  0  0  0  0  0  0  0  0
    7.3574    0.5237   19.1197 H   0  0  0  0  0  0  0  0  0  0  0  0
    8.7773   -2.2383   22.1737 H   0  0  0  0  0  0  0  0  0  0  0  0
    8.2516   -1.0144   23.3225 H   0  0  0  0  0  0  0  0  0  0  0  0
    6.9058   -1.6897   20.9891 H   0  0  0  0  0  0  0  0  0  0  0  0
  1  2  1  0  0  0  0
  1  3  2  0  0  0  0
  2  5  2  0  0  0  0
  3  6  1  0  0  0  0
  4  5  1  0  0  0  0
  4  6  2  0  0  0  0
  5 12  1  0  0  0  0
  6 16  1  0  0  0  0
  7 12  1  0  0  0  0
  7 13  1  0  0  0  0
  7 14  2  0  0  0  0
  8  9  1  0  0  0  0
  8 11  1  0  0  0  0
  9 15  1  0  0  0  0
 10 11  1  0  0  0  0
 10 15  1  0  0  0  0
 11 13  1  0  0  0  0
  1 17  1  0  0  0  0
  2 18  1  0  0  0  0
  3 19  1  0  0  0  0
  4 20  1  0  0  0  0
  8 21  1  0  0  0  0
  8 22  1  0  0  0  0
  9 23  1  0  0  0  0
  9 24  1  0  0  0  0
 10 25  1  0  0  0  0
 10 26  1  0  0  0  0
 11 27  1  0  0  0  0
 12 28  1  0  0  0  0
 12 29  1  0  0  0  0
 13 30  1  0  0  0  0
M  END
> <compound>
PET-UNK-f92d7c0c-4

> <compound_smiles>
c1cc(cc(c1)Cl)CC(=O)N[C@@H]2CCOC2

> <enantiomer_smiles>
c1cc(cc(c1)Cl)CC(=O)N[C@@H]2CCOC2

> <scaffold>
chlorobenzene-linker

> <clash_score>
0

> <docking_score>
-6.167241096496582

> <overlap_score>
0.744193971157074

> <MMFF_internal_energy>
40.855949090940925

> <docked_smiles>
c1cc(cc(c1)Cl)CC(=O)N[C@@H]2CCOC2

$$$$
PET-UNK-f92d7c0c-7_1
  -OEChem-07262101023D

 36 37  0     1  0  0  0  0  0999 V2000
   11.9780    0.4600   23.9150 C   0  0  0  0  0  0  0  0  0  0  0  0
   10.6560    0.0720   23.7350 C   0  0  0  0  0  0  0  0  0  0  0  0
   12.9840   -0.1200   23.1530 C   0  0  0  0  0  0  0  0  0  0  0  0
   11.3360   -1.5050   22.0650 C   0  0  0  0  0  0  0  0  0  0  0  0
   10.3220   -0.8940   22.7910 C   0  0  0  0  0  0  0  0  0  0  0  0
   12.6400   -1.1000   22.2390 C   0  0  0  0  0  0  0  0  0  0  0  0
    8.3880   -0.3240   21.3070 C   0  0  0  0  0  0  0  0  0  0  0  0
    5.5007    1.0904   17.9660 C   0  0  0  0  0  0  0  0  0  0  0  0
    5.6014    0.2170   19.2170 C   0  0  0  0  0  0  0  0  0  0  0  0
    6.4594    0.6111   16.8876 C   0  0  0  0  0  0  0  0  0  0  0  0
    8.0483    0.4151   18.6972 C   0  0  0  0  0  0  0  0  0  0  0  0
    6.9707   -0.4610   19.3283 C   0  0  1  0  0  0  0  0  0  0  0  0
    6.3179   -1.6518   21.3837 C   0  0  0  0  0  0  0  0  0  0  0  0
    8.8810   -1.1900   22.4510 C   0  0  0  0  0  0  0  0  0  0  0  0
    7.2820   -0.7860   20.6970 N   0  0  0  0  0  0  0  0  0  0  0  0
    8.9170    0.7530   21.0260 O   0  0  0  0  0  0  0  0  0  0  0  0
    7.8240    0.6524   17.3048 O   0  0  0  0  0  0  0  0  0  0  0  0
   13.8840   -1.8490   21.2740 Cl  0  0  0  0  0  0  0  0  0  0  0  0
   12.2249    1.2198   24.6546 H   0  0  0  0  0  0  0  0  0  0  0  0
    9.8763    0.5350   24.3454 H   0  0  0  0  0  0  0  0  0  0  0  0
   14.0077    0.1988   23.2842 H   0  0  0  0  0  0  0  0  0  0  0  0
   11.0892   -2.3009   21.3624 H   0  0  0  0  0  0  0  0  0  0  0  0
    4.4722    1.0348   17.5852 H   0  0  0  0  0  0  0  0  0  0  0  0
    5.7015    2.1381   18.2187 H   0  0  0  0  0  0  0  0  0  0  0  0
    5.4220    0.8462   20.1053 H   0  0  0  0  0  0  0  0  0  0  0  0
    4.7993   -0.5386   19.2027 H   0  0  0  0  0  0  0  0  0  0  0  0
    6.2271   -0.4330   16.6190 H   0  0  0  0  0  0  0  0  0  0  0  0
    6.3466    1.2035   15.9613 H   0  0  0  0  0  0  0  0  0  0  0  0
    8.1351    1.3905   19.2138 H   0  0  0  0  0  0  0  0  0  0  0  0
    9.0360   -0.0715   18.7858 H   0  0  0  0  0  0  0  0  0  0  0  0
    6.9245   -1.4140   18.7817 H   0  0  0  0  0  0  0  0  0  0  0  0
    5.5520   -1.0325   21.8734 H   0  0  0  0  0  0  0  0  0  0  0  0
    5.8377   -2.3182   20.6520 H   0  0  0  0  0  0  0  0  0  0  0  0
    6.8409   -2.2547   22.1407 H   0  0  0  0  0  0  0  0  0  0  0  0
    8.2650   -1.0078   23.3308 H   0  0  0  0  0  0  0  0  0  0  0  0
    8.7923   -2.2398   22.1736 H   0  0  0  0  0  0  0  0  0  0  0  0
  1  2  2  0  0  0  0
  1  3  1  0  0  0  0
  2  5  1  0  0  0  0
  3  6  2  0  0  0  0
  4  5  2  0  0  0  0
  4  6  1  0  0  0  0
  5 14  1  0  0  0  0
  6 18  1  0  0  0  0
  7 14  1  0  0  0  0
  7 15  1  0  0  0  0
  7 16  2  0  0  0  0
  8  9  1  0  0  0  0
  8 10  1  0  0  0  0
  9 12  1  0  0  0  0
 10 17  1  0  0  0  0
 11 12  1  0  0  0  0
 11 17  1  0  0  0  0
 12 15  1  0  0  0  0
 13 15  1  0  0  0  0
  1 19  1  0  0  0  0
  2 20  1  0  0  0  0
  3 21  1  0  0  0  0
  4 22  1  0  0  0  0
  8 23  1  0  0  0  0
  8 24  1  0  0  0  0
  9 25  1  0  0  0  0
  9 26  1  0  0  0  0
 10 27  1  0  0  0  0
 10 28  1  0  0  0  0
 11 29  1  0  0  0  0
 11 30  1  0  0  0  0
 12 31  1  0  0  0  0
 13 32  1  0  0  0  0
 13 33  1  0  0  0  0
 13 34  1  0  0  0  0
 14 35  1  0  0  0  0
 14 36  1  0  0  0  0
M  END
> <compound>
PET-UNK-f92d7c0c-7

> <compound_smiles>
CN([C@H]1CCCOC1)C(=O)Cc2cccc(c2)Cl

> <enantiomer_smiles>
CN([C@H]1CCCOC1)C(=O)Cc2cccc(c2)Cl

> <scaffold>
chlorobenzene-linker

> <clash_score>
0

> <docking_score>
-6.073703289031982

> <overlap_score>
0.7634340524673462

> <MMFF_internal_energy>
77.30944828813638

> <docked_smiles>
CN([C@H]1CCCOC1)C(=O)Cc2cccc(c2)Cl

$$$$
PET-UNK-f92d7c0c-6_1
  -OEChem-07262101023D

 33 34  0     1  0  0  0  0  0999 V2000
   11.9780    0.4600   23.9150 C   0  0  0  0  0  0  0  0  0  0  0  0
   10.6560    0.0720   23.7350 C   0  0  0  0  0  0  0  0  0  0  0  0
   12.9840   -0.1200   23.1530 C   0  0  0  0  0  0  0  0  0  0  0  0
   11.3360   -1.5050   22.0650 C   0  0  0  0  0  0  0  0  0  0  0  0
   10.3220   -0.8940   22.7910 C   0  0  0  0  0  0  0  0  0  0  0  0
   12.6400   -1.1000   22.2390 C   0  0  0  0  0  0  0  0  0  0  0  0
    8.3880   -0.3240   21.3070 C   0  0  0  0  0  0  0  0  0  0  0  0
    5.4824    2.0906   19.0206 C   0  0  0  0  0  0  0  0  0  0  0  0
    6.0868    1.2825   20.1656 C   0  0  0  0  0  0  0  0  0  0  0  0
    6.4529    2.1762   17.8501 C   0  0  0  0  0  0  0  0  0  0  0  0
    7.5223    0.1456   18.4447 C   0  0  0  0  0  0  0  0  0  0  0  0
    6.6088   -0.0595   19.6515 C   0  0  1  0  0  0  0  0  0  0  0  0
    8.8810   -1.1900   22.4510 C   0  0  0  0  0  0  0  0  0  0  0  0
    7.2820   -0.7860   20.6970 N   0  0  0  0  0  0  0  0  0  0  0  0
    8.9170    0.7530   21.0260 O   0  0  0  0  0  0  0  0  0  0  0  0
    6.8418    0.8722   17.4191 O   0  0  0  0  0  0  0  0  0  0  0  0
   13.8840   -1.8490   21.2740 Cl  0  0  0  0  0  0  0  0  0  0  0  0
   12.2249    1.2198   24.6546 H   0  0  0  0  0  0  0  0  0  0  0  0
    9.8763    0.5350   24.3454 H   0  0  0  0  0  0  0  0  0  0  0  0
   14.0077    0.1988   23.2842 H   0  0  0  0  0  0  0  0  0  0  0  0
   11.0892   -2.3009   21.3624 H   0  0  0  0  0  0  0  0  0  0  0  0
    4.5627    1.5930   18.6890 H   0  0  0  0  0  0  0  0  0  0  0  0
    5.2108    3.0940   19.3648 H   0  0  0  0  0  0  0  0  0  0  0  0
    6.9071    1.8577   20.6143 H   0  0  0  0  0  0  0  0  0  0  0  0
    5.3328    1.1287   20.9464 H   0  0  0  0  0  0  0  0  0  0  0  0
    5.9723    2.6776   17.0041 H   0  0  0  0  0  0  0  0  0  0  0  0
    7.3461    2.7547   18.1139 H   0  0  0  0  0  0  0  0  0  0  0  0
    8.4407    0.6812   18.7150 H   0  0  0  0  0  0  0  0  0  0  0  0
    7.8140   -0.8208   18.0196 H   0  0  0  0  0  0  0  0  0  0  0  0
    5.7503   -0.6704   19.3467 H   0  0  0  0  0  0  0  0  0  0  0  0
    8.7773   -2.2383   22.1737 H   0  0  0  0  0  0  0  0  0  0  0  0
    8.2516   -1.0144   23.3225 H   0  0  0  0  0  0  0  0  0  0  0  0
    6.9054   -1.6858   20.9861 H   0  0  0  0  0  0  0  0  0  0  0  0
  1  2  1  0  0  0  0
  1  3  2  0  0  0  0
  2  5  2  0  0  0  0
  3  6  1  0  0  0  0
  4  5  1  0  0  0  0
  4  6  2  0  0  0  0
  5 13  1  0  0  0  0
  6 17  1  0  0  0  0
  7 13  1  0  0  0  0
  7 14  1  0  0  0  0
  7 15  2  0  0  0  0
  8  9  1  0  0  0  0
  8 10  1  0  0  0  0
  9 12  1  0  0  0  0
 10 16  1  0  0  0  0
 11 12  1  0  0  0  0
 11 16  1  0  0  0  0
 12 14  1  0  0  0  0
  1 18  1  0  0  0  0
  2 19  1  0  0  0  0
  3 20  1  0  0  0  0
  4 21  1  0  0  0  0
  8 22  1  0  0  0  0
  8 23  1  0  0  0  0
  9 24  1  0  0  0  0
  9 25  1  0  0  0  0
 10 26  1  0  0  0  0
 10 27  1  0  0  0  0
 11 28  1  0  0  0  0
 11 29  1  0  0  0  0
 12 30  1  0  0  0  0
 13 31  1  0  0  0  0
 13 32  1  0  0  0  0
 14 33  1  0  0  0  0
M  END
> <compound>
PET-UNK-f92d7c0c-6

> <compound_smiles>
c1cc(cc(c1)Cl)CC(=O)N[C@H]2CCCOC2

> <enantiomer_smiles>
c1cc(cc(c1)Cl)CC(=O)N[C@H]2CCCOC2

> <scaffold>
chlorobenzene-linker

> <clash_score>
0

> <docking_score>
-5.728949069976807

> <overlap_score>
0.7469910979270935

> <MMFF_internal_energy>
43.685427535187245

> <docked_smiles>
c1cc(cc(c1)Cl)CC(=O)N[C@H]2CCCOC2

$$$$
PET-UNK-f92d7c0c-9_1
  -OEChem-07262101023D

 40 42  0     1  0  0  0  0  0999 V2000
    4.4290    2.6509   23.1208 C   0  0  0  0  0  0  0  0  0  0  0  0
    4.7186    1.3260   23.4353 C   0  0  0  0  0  0  0  0  0  0  0  0
   11.9780    0.4600   23.9150 C   0  0  0  0  0  0  0  0  0  0  0  0
    4.7321    3.1475   21.8544 C   0  0  0  0  0  0  0  0  0  0  0  0
    5.3214    0.4976   22.4878 C   0  0  0  0  0  0  0  0  0  0  0  0
   10.6560    0.0720   23.7350 C   0  0  0  0  0  0  0  0  0  0  0  0
   12.9840   -0.1200   23.1530 C   0  0  0  0  0  0  0  0  0  0  0  0
   11.3360   -1.5050   22.0650 C   0  0  0  0  0  0  0  0  0  0  0  0
    5.3277    2.3203   20.8922 C   0  0  0  0  0  0  0  0  0  0  0  0
    5.6532    0.9895   21.2160 C   0  0  0  0  0  0  0  0  0  0  0  0
   10.3220   -0.8940   22.7910 C   0  0  0  0  0  0  0  0  0  0  0  0
   12.6400   -1.1000   22.2390 C   0  0  0  0  0  0  0  0  0  0  0  0
    8.3880   -0.3240   21.3070 C   0  0  0  0  0  0  0  0  0  0  0  0
    5.6577    2.8788   19.5323 C   0  0  0  0  0  0  0  0  0  0  0  0
    6.8683    0.9208   19.0179 C   0  0  0  0  0  0  0  0  0  0  0  0
    6.2742    0.0972   20.1616 C   0  0  2  0  0  0  0  0  0  0  0  0
    7.0226   -2.2178   20.5331 C   0  0  0  0  0  0  0  0  0  0  0  0
    8.8810   -1.1900   22.4510 C   0  0  0  0  0  0  0  0  0  0  0  0
    7.2820   -0.7860   20.6970 N   0  0  0  0  0  0  0  0  0  0  0  0
    8.9170    0.7530   21.0260 O   0  0  0  0  0  0  0  0  0  0  0  0
    5.8948    1.8586   18.5586 O   0  0  0  0  0  0  0  0  0  0  0  0
   13.8840   -1.8490   21.2740 Cl  0  0  0  0  0  0  0  0  0  0  0  0
    3.9651    3.2963   23.8604 H   0  0  0  0  0  0  0  0  0  0  0  0
    4.4749    0.9352   24.4193 H   0  0  0  0  0  0  0  0  0  0  0  0
   12.2249    1.2198   24.6546 H   0  0  0  0  0  0  0  0  0  0  0  0
    4.5007    4.1834   21.6184 H   0  0  0  0  0  0  0  0  0  0  0  0
    5.5332   -0.5382   22.7465 H   0  0  0  0  0  0  0  0  0  0  0  0
    9.8763    0.5350   24.3454 H   0  0  0  0  0  0  0  0  0  0  0  0
   14.0077    0.1988   23.2842 H   0  0  0  0  0  0  0  0  0  0  0  0
   11.0892   -2.3009   21.3624 H   0  0  0  0  0  0  0  0  0  0  0  0
    4.8382    3.5152   19.1836 H   0  0  0  0  0  0  0  0  0  0  0  0
    6.5670    3.4836   19.5880 H   0  0  0  0  0  0  0  0  0  0  0  0
    7.7499    1.4749   19.3533 H   0  0  0  0  0  0  0  0  0  0  0  0
    7.1821    0.2820   18.1844 H   0  0  0  0  0  0  0  0  0  0  0  0
    5.4915   -0.5589   19.7248 H   0  0  0  0  0  0  0  0  0  0  0  0
    6.4614   -2.5912   21.4024 H   0  0  0  0  0  0  0  0  0  0  0  0
    6.4333   -2.3813   19.6187 H   0  0  0  0  0  0  0  0  0  0  0  0
    7.9782   -2.7569   20.4547 H   0  0  0  0  0  0  0  0  0  0  0  0
    8.2650   -1.0078   23.3308 H   0  0  0  0  0  0  0  0  0  0  0  0
    8.7923   -2.2398   22.1736 H   0  0  0  0  0  0  0  0  0  0  0  0
  1  2  2  0  0  0  0
  1  4  1  0  0  0  0
  2  5  1  0  0  0  0
  3  6  2  0  0  0  0
  3  7  1  0  0  0  0
  4  9  2  0  0  0  0
  5 10  2  0  0  0  0
  6 11  1  0  0  0  0
  7 12  2  0  0  0  0
  8 11  2  0  0  0  0
  8 12  1  0  0  0  0
  9 10  1  0  0  0  0
  9 14  1  0  0  0  0
 10 16  1  0  0  0  0
 11 18  1  0  0  0  0
 12 22  1  0  0  0  0
 13 18  1  0  0  0  0
 13 19  1  0  0  0  0
 13 20  2  0  0  0  0
 14 21  1  0  0  0  0
 15 16  1  0  0  0  0
 15 21  1  0  0  0  0
 16 19  1  0  0  0  0
 17 19  1  0  0  0  0
  1 23  1  0  0  0  0
  2 24  1  0  0  0  0
  3 25  1  0  0  0  0
  4 26  1  0  0  0  0
  5 27  1  0  0  0  0
  6 28  1  0  0  0  0
  7 29  1  0  0  0  0
  8 30  1  0  0  0  0
 14 31  1  0  0  0  0
 14 32  1  0  0  0  0
 15 33  1  0  0  0  0
 15 34  1  0  0  0  0
 16 35  1  0  0  0  0
 17 36  1  0  0  0  0
 17 37  1  0  0  0  0
 17 38  1  0  0  0  0
 18 39  1  0  0  0  0
 18 40  1  0  0  0  0
M  END
> <compound>
PET-UNK-f92d7c0c-9

> <compound_smiles>
CN([C@@H]1COCc2c1cccc2)C(=O)Cc3cccc(c3)Cl

> <enantiomer_smiles>
CN([C@@H]1COCc2c1cccc2)C(=O)Cc3cccc(c3)Cl

> <scaffold>
chlorobenzene-linker

> <clash_score>
0

> <docking_score>
-4.622767925262451

> <overlap_score>
0.7836822271347046

> <MMFF_internal_energy>
93.77994142768617

> <docked_smiles>
CN([C@@H]1COCc2c1cccc2)C(=O)Cc3cccc(c3)Cl

$$$$
PET-UNK-6314f867-2_1
  -OEChem-07262101023D

 35 37  0     0  0  0  0  0  0999 V2000
    2.3720    3.4720   20.2127 C   0  0  0  0  0  0  0  0  0  0  0  0
   11.9780    0.4600   23.9150 C   0  0  0  0  0  0  0  0  0  0  0  0
    4.0761    2.0254   21.1993 C   0  0  0  0  0  0  0  0  0  0  0  0
    5.1213    1.1102   21.0635 C   0  0  0  0  0  0  0  0  0  0  0  0
   10.6560    0.0720   23.7350 C   0  0  0  0  0  0  0  0  0  0  0  0
   12.9840   -0.1200   23.1530 C   0  0  0  0  0  0  0  0  0  0  0  0
    3.8506    2.1336   18.7976 C   0  0  0  0  0  0  0  0  0  0  0  0
   11.3360   -1.5050   22.0650 C   0  0  0  0  0  0  0  0  0  0  0  0
    5.3504    0.7762   17.4012 C   0  0  0  0  0  0  0  0  0  0  0  0
    6.9504   -0.5831   18.3323 C   0  0  0  0  0  0  0  0  0  0  0  0
    3.4422    2.5360   20.0690 C   0  0  0  0  0  0  0  0  0  0  0  0
    5.5456    0.6939   19.7909 C   0  0  0  0  0  0  0  0  0  0  0  0
    4.9012    1.2131   18.6490 C   0  0  0  0  0  0  0  0  0  0  0  0
   10.3220   -0.8940   22.7910 C   0  0  0  0  0  0  0  0  0  0  0  0
    6.5902   -0.2221   19.6216 C   0  0  0  0  0  0  0  0  0  0  0  0
   12.6400   -1.1000   22.2390 C   0  0  0  0  0  0  0  0  0  0  0  0
    8.3880   -0.3240   21.3070 C   0  0  0  0  0  0  0  0  0  0  0  0
    8.8810   -1.1900   22.4510 C   0  0  0  0  0  0  0  0  0  0  0  0
    1.5029    4.2322   20.3295 N   0  0  0  0  0  0  0  0  0  0  0  0
    6.3572   -0.1073   17.2168 N   0  0  0  0  0  0  0  0  0  0  0  0
    7.2820   -0.7860   20.6970 N   0  0  0  0  0  0  0  0  0  0  0  0
    8.9170    0.7530   21.0260 O   0  0  0  0  0  0  0  0  0  0  0  0
   13.8840   -1.8490   21.2740 Cl  0  0  0  0  0  0  0  0  0  0  0  0
   12.2249    1.2198   24.6546 H   0  0  0  0  0  0  0  0  0  0  0  0
    3.7676    2.3308   22.1965 H   0  0  0  0  0  0  0  0  0  0  0  0
    5.5918    0.7338   21.9690 H   0  0  0  0  0  0  0  0  0  0  0  0
    9.8763    0.5350   24.3454 H   0  0  0  0  0  0  0  0  0  0  0  0
   14.0077    0.1988   23.2842 H   0  0  0  0  0  0  0  0  0  0  0  0
    3.3547    2.5338   17.9146 H   0  0  0  0  0  0  0  0  0  0  0  0
   11.0892   -2.3009   21.3624 H   0  0  0  0  0  0  0  0  0  0  0  0
    4.8979    1.1364   16.4814 H   0  0  0  0  0  0  0  0  0  0  0  0
    7.7542   -1.2903   18.1481 H   0  0  0  0  0  0  0  0  0  0  0  0
    8.7774   -2.2383   22.1732 H   0  0  0  0  0  0  0  0  0  0  0  0
    8.2557   -1.0153   23.3257 H   0  0  0  0  0  0  0  0  0  0  0  0
    6.8981   -1.6619   21.0675 H   0  0  0  0  0  0  0  0  0  0  0  0
  1 11  1  0  0  0  0
  1 19  3  0  0  0  0
  2  5  1  0  0  0  0
  2  6  2  0  0  0  0
  3  4  2  0  0  0  0
  3 11  1  0  0  0  0
  4 12  1  0  0  0  0
  5 14  2  0  0  0  0
  6 16  1  0  0  0  0
  7 11  2  0  0  0  0
  7 13  1  0  0  0  0
  8 14  1  0  0  0  0
  8 16  2  0  0  0  0
  9 13  2  0  0  0  0
  9 20  1  0  0  0  0
 10 15  1  0  0  0  0
 10 20  2  0  0  0  0
 12 13  1  0  0  0  0
 12 15  2  0  0  0  0
 14 18  1  0  0  0  0
 15 21  1  0  0  0  0
 16 23  1  0  0  0  0
 17 18  1  0  0  0  0
 17 21  1  0  0  0  0
 17 22  2  0  0  0  0
  2 24  1  0  0  0  0
  3 25  1  0  0  0  0
  4 26  1  0  0  0  0
  5 27  1  0  0  0  0
  6 28  1  0  0  0  0
  7 29  1  0  0  0  0
  8 30  1  0  0  0  0
  9 31  1  0  0  0  0
 10 32  1  0  0  0  0
 18 33  1  0  0  0  0
 18 34  1  0  0  0  0
 21 35  1  0  0  0  0
M  END
> <compound>
PET-UNK-6314f867-2

> <compound_smiles>
c1cc(cc(c1)Cl)CC(=O)Nc2cncc3c2ccc(c3)C#N

> <enantiomer_smiles>
c1cc(cc(c1)Cl)CC(=O)Nc2cncc3c2ccc(c3)C#N

> <scaffold>
chlorobenzene-linker

> <clash_score>
0

> <docking_score>
-11.563516616821289

> <overlap_score>
1.0

> <MMFF_internal_energy>
109.45528025836215

> <docked_smiles>
c1cc(cc(c1)Cl)CC(=O)Nc2cncc3c2ccc(c3)C#N

$$$$
PET-UNK-f92d7c0c-8_1
  -OEChem-07262101023D

 37 39  0     1  0  0  0  0  0999 V2000
    5.1474    3.8223   20.8782 C   0  0  0  0  0  0  0  0  0  0  0  0
    5.0428    2.7379   21.7449 C   0  0  0  0  0  0  0  0  0  0  0  0
   11.9780    0.4600   23.9150 C   0  0  0  0  0  0  0  0  0  0  0  0
    5.7199    3.6538   19.6189 C   0  0  0  0  0  0  0  0  0  0  0  0
    5.5200    1.4848   21.3584 C   0  0  0  0  0  0  0  0  0  0  0  0
   10.6560    0.0720   23.7350 C   0  0  0  0  0  0  0  0  0  0  0  0
   12.9840   -0.1200   23.1530 C   0  0  0  0  0  0  0  0  0  0  0  0
   11.3360   -1.5050   22.0650 C   0  0  0  0  0  0  0  0  0  0  0  0
    6.1923    2.3967   19.2173 C   0  0  0  0  0  0  0  0  0  0  0  0
    6.1196    1.3044   20.1024 C   0  0  0  0  0  0  0  0  0  0  0  0
   10.3220   -0.8940   22.7910 C   0  0  0  0  0  0  0  0  0  0  0  0
   12.6400   -1.1000   22.2390 C   0  0  0  0  0  0  0  0  0  0  0  0
    8.3880   -0.3240   21.3070 C   0  0  0  0  0  0  0  0  0  0  0  0
    6.8182    2.2371   17.8560 C   0  0  0  0  0  0  0  0  0  0  0  0
    7.5320    0.0647   18.4348 C   0  0  0  0  0  0  0  0  0  0  0  0
    6.6105   -0.0548   19.6497 C   0  0  1  0  0  0  0  0  0  0  0  0
    8.8810   -1.1900   22.4510 C   0  0  0  0  0  0  0  0  0  0  0  0
    7.2820   -0.7860   20.6970 N   0  0  0  0  0  0  0  0  0  0  0  0
    8.9170    0.7530   21.0260 O   0  0  0  0  0  0  0  0  0  0  0  0
    6.8983    0.8707   17.4414 O   0  0  0  0  0  0  0  0  0  0  0  0
   13.8840   -1.8490   21.2740 Cl  0  0  0  0  0  0  0  0  0  0  0  0
    4.7809    4.7981   21.1819 H   0  0  0  0  0  0  0  0  0  0  0  0
    4.5887    2.8660   22.7235 H   0  0  0  0  0  0  0  0  0  0  0  0
   12.2249    1.2198   24.6546 H   0  0  0  0  0  0  0  0  0  0  0  0
    5.7957    4.5070   18.9491 H   0  0  0  0  0  0  0  0  0  0  0  0
    5.4226    0.6451   22.0441 H   0  0  0  0  0  0  0  0  0  0  0  0
    9.8763    0.5350   24.3454 H   0  0  0  0  0  0  0  0  0  0  0  0
   14.0077    0.1988   23.2842 H   0  0  0  0  0  0  0  0  0  0  0  0
   11.0892   -2.3009   21.3624 H   0  0  0  0  0  0  0  0  0  0  0  0
    6.2404    2.7972   17.1139 H   0  0  0  0  0  0  0  0  0  0  0  0
    7.8396    2.6272   17.8669 H   0  0  0  0  0  0  0  0  0  0  0  0
    8.4799    0.5369   18.7092 H   0  0  0  0  0  0  0  0  0  0  0  0
    7.7677   -0.9185   18.0118 H   0  0  0  0  0  0  0  0  0  0  0  0
    5.7432   -0.6792   19.3467 H   0  0  0  0  0  0  0  0  0  0  0  0
    8.7773   -2.2383   22.1737 H   0  0  0  0  0  0  0  0  0  0  0  0
    8.2516   -1.0144   23.3225 H   0  0  0  0  0  0  0  0  0  0  0  0
    6.9051   -1.6836   20.9843 H   0  0  0  0  0  0  0  0  0  0  0  0
  1  2  1  0  0  0  0
  1  4  2  0  0  0  0
  2  5  2  0  0  0  0
  3  6  2  0  0  0  0
  3  7  1  0  0  0  0
  4  9  1  0  0  0  0
  5 10  1  0  0  0  0
  6 11  1  0  0  0  0
  7 12  2  0  0  0  0
  8 11  2  0  0  0  0
  8 12  1  0  0  0  0
  9 10  2  0  0  0  0
  9 14  1  0  0  0  0
 10 16  1  0  0  0  0
 11 17  1  0  0  0  0
 12 21  1  0  0  0  0
 13 17  1  0  0  0  0
 13 18  1  0  0  0  0
 13 19  2  0  0  0  0
 14 20  1  0  0  0  0
 15 16  1  0  0  0  0
 15 20  1  0  0  0  0
 16 18  1  0  0  0  0
  1 22  1  0  0  0  0
  2 23  1  0  0  0  0
  3 24  1  0  0  0  0
  4 25  1  0  0  0  0
  5 26  1  0  0  0  0
  6 27  1  0  0  0  0
  7 28  1  0  0  0  0
  8 29  1  0  0  0  0
 14 30  1  0  0  0  0
 14 31  1  0  0  0  0
 15 32  1  0  0  0  0
 15 33  1  0  0  0  0
 16 34  1  0  0  0  0
 17 35  1  0  0  0  0
 17 36  1  0  0  0  0
 18 37  1  0  0  0  0
M  END
> <compound>
PET-UNK-f92d7c0c-8

> <compound_smiles>
c1ccc2c(c1)COC[C@H]2NC(=O)Cc3cccc(c3)Cl

> <enantiomer_smiles>
c1ccc2c(c1)COC[C@H]2NC(=O)Cc3cccc(c3)Cl

> <scaffold>
chlorobenzene-linker

> <clash_score>
1.2592172209034307

> <docking_score>
-4.842255592346191

> <overlap_score>
0.7736387848854065

> <MMFF_internal_energy>
73.83087898206938

> <docked_smiles>
c1ccc2c(c1)COC[C@H]2NC(=O)Cc3cccc(c3)Cl

$$$$
PET-UNK-6314f867-3_1
  -OEChem-07262101023D

 35 37  0     0  0  0  0  0  0999 V2000
    5.6126    0.7257   22.2458 C   0  0  0  0  0  0  0  0  0  0  0  0
    3.4288    2.5434   19.8998 C   0  0  0  0  0  0  0  0  0  0  0  0
   11.9780    0.4600   23.9150 C   0  0  0  0  0  0  0  0  0  0  0  0
    4.0282    2.0635   21.0620 C   0  0  0  0  0  0  0  0  0  0  0  0
    3.8760    2.1083   18.6525 C   0  0  0  0  0  0  0  0  0  0  0  0
   10.6560    0.0720   23.7350 C   0  0  0  0  0  0  0  0  0  0  0  0
   12.9840   -0.1200   23.1530 C   0  0  0  0  0  0  0  0  0  0  0  0
   11.3360   -1.5050   22.0650 C   0  0  0  0  0  0  0  0  0  0  0  0
    5.4183    0.7166   17.3386 C   0  0  0  0  0  0  0  0  0  0  0  0
    6.9898   -0.6159   18.3534 C   0  0  0  0  0  0  0  0  0  0  0  0
    5.0775    1.1463   20.9821 C   0  0  0  0  0  0  0  0  0  0  0  0
    4.9311    1.1855   18.5602 C   0  0  0  0  0  0  0  0  0  0  0  0
    5.5405    0.6973   19.7345 C   0  0  0  0  0  0  0  0  0  0  0  0
   10.3220   -0.8940   22.7910 C   0  0  0  0  0  0  0  0  0  0  0  0
    6.5902   -0.2216   19.6212 C   0  0  0  0  0  0  0  0  0  0  0  0
   12.6400   -1.1000   22.2390 C   0  0  0  0  0  0  0  0  0  0  0  0
    8.3880   -0.3240   21.3070 C   0  0  0  0  0  0  0  0  0  0  0  0
    8.8810   -1.1900   22.4510 C   0  0  0  0  0  0  0  0  0  0  0  0
    6.0453    0.3856   23.2675 N   0  0  0  0  0  0  0  0  0  0  0  0
    6.4306   -0.1703   17.2082 N   0  0  0  0  0  0  0  0  0  0  0  0
    7.2820   -0.7860   20.6970 N   0  0  0  0  0  0  0  0  0  0  0  0
    8.9170    0.7530   21.0260 O   0  0  0  0  0  0  0  0  0  0  0  0
   13.8840   -1.8490   21.2740 Cl  0  0  0  0  0  0  0  0  0  0  0  0
    2.6125    3.2570   19.9647 H   0  0  0  0  0  0  0  0  0  0  0  0
   12.2249    1.2198   24.6546 H   0  0  0  0  0  0  0  0  0  0  0  0
    3.6621    2.4175   22.0231 H   0  0  0  0  0  0  0  0  0  0  0  0
    3.3970    2.4931   17.7551 H   0  0  0  0  0  0  0  0  0  0  0  0
    9.8763    0.5350   24.3454 H   0  0  0  0  0  0  0  0  0  0  0  0
   14.0077    0.1988   23.2842 H   0  0  0  0  0  0  0  0  0  0  0  0
   11.0892   -2.3009   21.3624 H   0  0  0  0  0  0  0  0  0  0  0  0
    4.9938    1.0524   16.3964 H   0  0  0  0  0  0  0  0  0  0  0  0
    7.7988   -1.3265   18.2089 H   0  0  0  0  0  0  0  0  0  0  0  0
    8.7774   -2.2383   22.1732 H   0  0  0  0  0  0  0  0  0  0  0  0
    8.2557   -1.0153   23.3257 H   0  0  0  0  0  0  0  0  0  0  0  0
    6.8981   -1.6618   21.0673 H   0  0  0  0  0  0  0  0  0  0  0  0
  1 11  1  0  0  0  0
  1 19  3  0  0  0  0
  2  4  1  0  0  0  0
  2  5  2  0  0  0  0
  3  6  1  0  0  0  0
  3  7  2  0  0  0  0
  4 11  2  0  0  0  0
  5 12  1  0  0  0  0
  6 14  2  0  0  0  0
  7 16  1  0  0  0  0
  8 14  1  0  0  0  0
  8 16  2  0  0  0  0
  9 12  2  0  0  0  0
  9 20  1  0  0  0  0
 10 15  1  0  0  0  0
 10 20  2  0  0  0  0
 11 13  1  0  0  0  0
 12 13  1  0  0  0  0
 13 15  2  0  0  0  0
 14 18  1  0  0  0  0
 15 21  1  0  0  0  0
 16 23  1  0  0  0  0
 17 18  1  0  0  0  0
 17 21  1  0  0  0  0
 17 22  2  0  0  0  0
  2 24  1  0  0  0  0
  3 25  1  0  0  0  0
  4 26  1  0  0  0  0
  5 27  1  0  0  0  0
  6 28  1  0  0  0  0
  7 29  1  0  0  0  0
  8 30  1  0  0  0  0
  9 31  1  0  0  0  0
 10 32  1  0  0  0  0
 18 33  1  0  0  0  0
 18 34  1  0  0  0  0
 21 35  1  0  0  0  0
M  END
> <compound>
PET-UNK-6314f867-3

> <compound_smiles>
c1cc(cc(c1)Cl)CC(=O)Nc2cncc3c2c(ccc3)C#N

> <enantiomer_smiles>
c1cc(cc(c1)Cl)CC(=O)Nc2cncc3c2c(ccc3)C#N

> <scaffold>
chlorobenzene-linker

> <clash_score>
0

> <docking_score>
-11.443632125854492

> <overlap_score>
1.0

> <MMFF_internal_energy>
108.12837187705763

> <docked_smiles>
c1cc(cc(c1)Cl)CC(=O)Nc2cncc3c2c(ccc3)C#N

$$$$
EDJ-MED-cf4b0d25-1_1
  -OEChem-07262101023D

 59 62  0     1  0  0  0  0  0999 V2000
    2.4462   -0.6171   18.9969 C   0  0  0  0  0  0  0  0  0  0  0  0
    3.0435   -1.2247   20.0988 C   0  0  0  0  0  0  0  0  0  0  0  0
   11.9780    0.4600   23.9150 C   0  0  0  0  0  0  0  0  0  0  0  0
    3.2197    0.1230   18.1029 C   0  0  0  0  0  0  0  0  0  0  0  0
    4.4170   -1.0949   20.3118 C   0  0  0  0  0  0  0  0  0  0  0  0
   10.6560    0.0720   23.7350 C   0  0  0  0  0  0  0  0  0  0  0  0
   12.9840   -0.1200   23.1530 C   0  0  0  0  0  0  0  0  0  0  0  0
   11.3360   -1.5050   22.0650 C   0  0  0  0  0  0  0  0  0  0  0  0
    5.4239    0.9890   17.4449 C   0  0  0  0  0  0  0  0  0  0  0  0
    7.3052    0.5430   18.6845 C   0  0  0  0  0  0  0  0  0  0  0  0
    4.6027    0.2601   18.3073 C   0  0  0  0  0  0  0  0  0  0  0  0
    5.2111   -0.3535   19.4218 C   0  0  0  0  0  0  0  0  0  0  0  0
   10.3220   -0.8940   22.7910 C   0  0  0  0  0  0  0  0  0  0  0  0
    6.5904   -0.2048   19.6077 C   0  0  0  0  0  0  0  0  0  0  0  0
   12.6400   -1.1000   22.2390 C   0  0  0  0  0  0  0  0  0  0  0  0
    5.9868   -4.4261   27.6447 C   0  0  0  0  0  0  0  0  0  0  0  0
    7.7904   -1.9662   24.5505 C   0  0  0  0  0  0  0  0  0  0  0  0
    8.3880   -0.3240   21.3070 C   0  0  0  0  0  0  0  0  0  0  0  0
    4.1294   -6.9512   25.7223 C   0  0  0  0  0  0  0  0  0  0  0  0
    5.2531   -6.6162   24.7495 C   0  0  0  0  0  0  0  0  0  0  0  0
    4.6735   -6.4520   27.0519 C   0  0  0  0  0  0  0  0  0  0  0  0
    5.7579   -5.2741   25.2604 C   0  0  0  0  0  0  0  0  0  0  0  0
    6.8496   -3.3102   27.1125 C   0  0  0  0  0  0  0  0  0  0  0  0
    6.8760   -1.4704   25.6504 C   0  0  0  0  0  0  0  0  0  0  0  0
    8.8810   -1.1900   22.4510 C   0  0  1  0  0  0  0  0  0  0  0  0
    6.7573    1.1443   17.6071 N   0  0  0  0  0  0  0  0  0  0  0  0
    5.5135   -5.3170   26.6987 N   0  0  0  0  0  0  0  0  0  0  0  0
    7.2820   -0.7860   20.6970 N   0  0  0  0  0  0  0  0  0  0  0  0
    8.0376   -0.9810   23.6073 N   0  0  0  0  0  0  0  0  0  0  0  0
    5.7464   -4.5084   28.8503 O   0  0  0  0  0  0  0  0  0  0  0  0
    8.2417   -3.1080   24.5264 O   0  0  0  0  0  0  0  0  0  0  0  0
    8.9170    0.7530   21.0260 O   0  0  0  0  0  0  0  0  0  0  0  0
    6.1074   -2.5428   26.1872 O   0  0  0  0  0  0  0  0  0  0  0  0
   13.8840   -1.8490   21.2740 Cl  0  0  0  0  0  0  0  0  0  0  0  0
    1.3775   -0.7199   18.8335 H   0  0  0  0  0  0  0  0  0  0  0  0
    2.4393   -1.8009   20.7937 H   0  0  0  0  0  0  0  0  0  0  0  0
   12.2249    1.2198   24.6546 H   0  0  0  0  0  0  0  0  0  0  0  0
    2.7372    0.5907   17.2477 H   0  0  0  0  0  0  0  0  0  0  0  0
    4.8464   -1.5833   21.1836 H   0  0  0  0  0  0  0  0  0  0  0  0
    9.8763    0.5350   24.3454 H   0  0  0  0  0  0  0  0  0  0  0  0
   14.0077    0.1988   23.2842 H   0  0  0  0  0  0  0  0  0  0  0  0
   11.0892   -2.3009   21.3624 H   0  0  0  0  0  0  0  0  0  0  0  0
    5.0196    1.4865   16.5675 H   0  0  0  0  0  0  0  0  0  0  0  0
    8.3773    0.6873   18.7839 H   0  0  0  0  0  0  0  0  0  0  0  0
    3.2198   -6.4013   25.4532 H   0  0  0  0  0  0  0  0  0  0  0  0
    3.8979   -8.0197   25.7389 H   0  0  0  0  0  0  0  0  0  0  0  0
    6.0465   -7.3700   24.8151 H   0  0  0  0  0  0  0  0  0  0  0  0
    4.9058   -6.5658   23.7138 H   0  0  0  0  0  0  0  0  0  0  0  0
    3.8890   -6.1542   27.7538 H   0  0  0  0  0  0  0  0  0  0  0  0
    5.3120   -7.2014   27.5328 H   0  0  0  0  0  0  0  0  0  0  0  0
    6.8174   -5.1125   25.0442 H   0  0  0  0  0  0  0  0  0  0  0  0
    5.1759   -4.4436   24.8463 H   0  0  0  0  0  0  0  0  0  0  0  0
    7.7252   -3.7264   26.6226 H   0  0  0  0  0  0  0  0  0  0  0  0
    7.1575   -2.6757   27.9384 H   0  0  0  0  0  0  0  0  0  0  0  0
    7.4799   -1.0395   26.4548 H   0  0  0  0  0  0  0  0  0  0  0  0
    6.2004   -0.7030   25.2599 H   0  0  0  0  0  0  0  0  0  0  0  0
    8.7711   -2.2448   22.1651 H   0  0  0  0  0  0  0  0  0  0  0  0
    6.8975   -1.6551   21.0614 H   0  0  0  0  0  0  0  0  0  0  0  0
    7.6047   -0.0707   23.7333 H   0  0  0  0  0  0  0  0  0  0  0  0
  1  2  1  0  0  0  0
  1  4  2  0  0  0  0
  2  5  2  0  0  0  0
  3  6  2  0  0  0  0
  3  7  1  0  0  0  0
  4 11  1  0  0  0  0
  5 12  1  0  0  0  0
  6 13  1  0  0  0  0
  7 15  2  0  0  0  0
  8 13  2  0  0  0  0
  8 15  1  0  0  0  0
  9 11  2  0  0  0  0
  9 26  1  0  0  0  0
 10 14  1  0  0  0  0
 10 26  2  0  0  0  0
 11 12  1  0  0  0  0
 12 14  2  0  0  0  0
 13 25  1  0  0  0  0
 14 28  1  0  0  0  0
 15 34  1  0  0  0  0
 16 23  1  0  0  0  0
 16 27  1  0  0  0  0
 16 30  2  0  0  0  0
 17 24  1  0  0  0  0
 17 29  1  0  0  0  0
 17 31  2  0  0  0  0
 18 25  1  1  0  0  0
 18 28  1  0  0  0  0
 18 32  2  0  0  0  0
 19 20  1  0  0  0  0
 19 21  1  0  0  0  0
 20 22  1  0  0  0  0
 21 27  1  0  0  0  0
 22 27  1  0  0  0  0
 23 33  1  0  0  0  0
 24 33  1  0  0  0  0
 25 29  1  0  0  0  0
  1 35  1  0  0  0  0
  2 36  1  0  0  0  0
  3 37  1  0  0  0  0
  4 38  1  0  0  0  0
  5 39  1  0  0  0  0
  6 40  1  0  0  0  0
  7 41  1  0  0  0  0
  8 42  1  0  0  0  0
  9 43  1  0  0  0  0
 10 44  1  0  0  0  0
 19 45  1  0  0  0  0
 19 46  1  0  0  0  0
 20 47  1  0  0  0  0
 20 48  1  0  0  0  0
 21 49  1  0  0  0  0
 21 50  1  0  0  0  0
 22 51  1  0  0  0  0
 22 52  1  0  0  0  0
 23 53  1  0  0  0  0
 23 54  1  0  0  0  0
 24 55  1  0  0  0  0
 24 56  1  0  0  0  0
 25 57  1  0  0  0  0
 28 58  1  0  0  0  0
 29 59  1  0  0  0  0
M  END
> <compound>
EDJ-MED-cf4b0d25-1

> <compound_smiles>
c1ccc2c(c1)cncc2NC(=O)C(c3cccc(c3)Cl)NC(=O)COCC(=O)N4CCCC4

> <enantiomer_smiles>
c1ccc2c(c1)cncc2NC(=O)[C@@H](c3cccc(c3)Cl)NC(=O)COCC(=O)N4CCCC4

> <scaffold>
chlorobenzene-linker

> <canonical_CID>
EDJ-MED-cf4b0d25-1

> <r_inhibition_at_20_uM>

> <r_inhibition_at_50_uM>

> <r_avg_IC50>

> <f_inhibition_at_20_uM>

> <f_inhibition_at_50_uM>

> <f_avg_IC50>
7.33262892412536

> <f_avg_pIC50>

> <relative_solubility_at_20_uM>

> <relative_solubility_at_100_uM>

> <trypsin_IC50>

> <NMR_std_ratio>

> <acrylamide>
False

> <chloroacetamide>
False

> <series>
Ugi

> <frag_id>

> <clash_score>
7.591297441593901

> <docking_score>
-0.4976249933242798

> <overlap_score>
0.7739136815071106

> <MMFF_internal_energy>
152.57685069668244

> <docked_smiles>
c1ccc2c(c1)cncc2NC(=O)[C@@H](c3cccc(c3)Cl)NC(=O)COCC(=O)N4CCCC4

$$$$
VLA-UNK-4cf5aa07-2_1
  -OEChem-07262101023D

 31 33  0     0  0  0  0  0  0999 V2000
    3.1159    0.7081   19.9375 C   0  0  0  0  0  0  0  0  0  0  0  0
    2.9595    1.1686   18.5913 C   0  0  0  0  0  0  0  0  0  0  0  0
   11.9780    0.4600   23.9150 C   0  0  0  0  0  0  0  0  0  0  0  0
    4.3178    0.1859   20.4555 C   0  0  0  0  0  0  0  0  0  0  0  0
   10.6560    0.0720   23.7350 C   0  0  0  0  0  0  0  0  0  0  0  0
    3.9942    1.1512   17.6299 C   0  0  0  0  0  0  0  0  0  0  0  0
   12.9840   -0.1200   23.1530 C   0  0  0  0  0  0  0  0  0  0  0  0
   11.3360   -1.5050   22.0650 C   0  0  0  0  0  0  0  0  0  0  0  0
    5.3104    0.1837   19.4861 C   0  0  0  0  0  0  0  0  0  0  0  0
   10.3220   -0.8940   22.7910 C   0  0  0  0  0  0  0  0  0  0  0  0
    5.2052    0.6342   18.1222 C   0  0  0  0  0  0  0  0  0  0  0  0
   12.6400   -1.1000   22.2390 C   0  0  0  0  0  0  0  0  0  0  0  0
    6.5903   -0.2523   19.6462 C   0  0  0  0  0  0  0  0  0  0  0  0
    8.3880   -0.3240   21.3070 C   0  0  0  0  0  0  0  0  0  0  0  0
    8.8810   -1.1900   22.4510 C   0  0  0  0  0  0  0  0  0  0  0  0
    6.3945    0.4603   17.5178 N   0  0  0  0  0  0  0  0  0  0  0  0
    7.2820   -0.7860   20.6970 N   0  0  0  0  0  0  0  0  0  0  0  0
    8.9170    0.7530   21.0260 O   0  0  0  0  0  0  0  0  0  0  0  0
    7.2458   -0.0883   18.4672 O   0  0  0  0  0  0  0  0  0  0  0  0
   13.8840   -1.8490   21.2740 Cl  0  0  0  0  0  0  0  0  0  0  0  0
    2.2511    0.7664   20.5981 H   0  0  0  0  0  0  0  0  0  0  0  0
    1.9854    1.5553   18.2935 H   0  0  0  0  0  0  0  0  0  0  0  0
   12.2249    1.2198   24.6546 H   0  0  0  0  0  0  0  0  0  0  0  0
    4.4203   -0.1584   21.4749 H   0  0  0  0  0  0  0  0  0  0  0  0
    9.8763    0.5350   24.3454 H   0  0  0  0  0  0  0  0  0  0  0  0
    3.8551    1.5037   16.6167 H   0  0  0  0  0  0  0  0  0  0  0  0
   14.0077    0.1988   23.2842 H   0  0  0  0  0  0  0  0  0  0  0  0
   11.0892   -2.3009   21.3624 H   0  0  0  0  0  0  0  0  0  0  0  0
    8.7774   -2.2383   22.1732 H   0  0  0  0  0  0  0  0  0  0  0  0
    8.2557   -1.0153   23.3257 H   0  0  0  0  0  0  0  0  0  0  0  0
    6.8994   -1.6742   21.0786 H   0  0  0  0  0  0  0  0  0  0  0  0
  1  2  1  0  0  0  0
  1  4  2  0  0  0  0
  2  6  2  0  0  0  0
  3  5  2  0  0  0  0
  3  7  1  0  0  0  0
  4  9  1  0  0  0  0
  5 10  1  0  0  0  0
  6 11  1  0  0  0  0
  7 12  2  0  0  0  0
  8 10  2  0  0  0  0
  8 12  1  0  0  0  0
  9 11  1  0  0  0  0
  9 13  2  0  0  0  0
 10 15  1  0  0  0  0
 11 16  2  0  0  0  0
 12 20  1  0  0  0  0
 13 17  1  0  0  0  0
 13 19  1  0  0  0  0
 14 15  1  0  0  0  0
 14 17  1  0  0  0  0
 14 18  2  0  0  0  0
 16 19  1  0  0  0  0
  1 21  1  0  0  0  0
  2 22  1  0  0  0  0
  3 23  1  0  0  0  0
  4 24  1  0  0  0  0
  5 25  1  0  0  0  0
  6 26  1  0  0  0  0
  7 27  1  0  0  0  0
  8 28  1  0  0  0  0
 15 29  1  0  0  0  0
 15 30  1  0  0  0  0
 17 31  1  0  0  0  0
M  END
> <compound>
VLA-UNK-4cf5aa07-2

> <compound_smiles>
c1ccc2c(c1)c(on2)NC(=O)Cc3cccc(c3)Cl

> <enantiomer_smiles>
c1ccc2c(c1)c(on2)NC(=O)Cc3cccc(c3)Cl

> <scaffold>
chlorobenzene-linker

> <clash_score>
0

> <docking_score>
-4.435763359069824

> <overlap_score>
0.8674279451370239

> <MMFF_internal_energy>
74.39461281074266

> <docked_smiles>
c1ccc2c(c1)c(on2)NC(=O)Cc3cccc(c3)Cl

$$$$
EDJ-MED-cf4b0d25-1_2
  -OEChem-07262101023D

 59 62  0     1  0  0  0  0  0999 V2000
    2.4462   -0.6171   18.9968 C   0  0  0  0  0  0  0  0  0  0  0  0
    3.0435   -1.2247   20.0988 C   0  0  0  0  0  0  0  0  0  0  0  0
   11.9780    0.4600   23.9150 C   0  0  0  0  0  0  0  0  0  0  0  0
    3.2197    0.1230   18.1029 C   0  0  0  0  0  0  0  0  0  0  0  0
    4.4170   -1.0949   20.3118 C   0  0  0  0  0  0  0  0  0  0  0  0
   10.6560    0.0720   23.7350 C   0  0  0  0  0  0  0  0  0  0  0  0
   12.9840   -0.1200   23.1530 C   0  0  0  0  0  0  0  0  0  0  0  0
   11.3360   -1.5050   22.0650 C   0  0  0  0  0  0  0  0  0  0  0  0
    5.4239    0.9890   17.4448 C   0  0  0  0  0  0  0  0  0  0  0  0
    7.3052    0.5430   18.6845 C   0  0  0  0  0  0  0  0  0  0  0  0
    4.6027    0.2602   18.3073 C   0  0  0  0  0  0  0  0  0  0  0  0
    5.2111   -0.3534   19.4218 C   0  0  0  0  0  0  0  0  0  0  0  0
   10.3220   -0.8940   22.7910 C   0  0  0  0  0  0  0  0  0  0  0  0
    6.5904   -0.2048   19.6077 C   0  0  0  0  0  0  0  0  0  0  0  0
   12.6400   -1.1000   22.2390 C   0  0  0  0  0  0  0  0  0  0  0  0
    5.2229   -6.3967   23.6212 C   0  0  0  0  0  0  0  0  0  0  0  0
    8.4771   -3.5801   23.0250 C   0  0  0  0  0  0  0  0  0  0  0  0
    8.3880   -0.3240   21.3070 C   0  0  0  0  0  0  0  0  0  0  0  0
    5.2381   -6.9268   27.2599 C   0  0  0  0  0  0  0  0  0  0  0  0
    5.7994   -5.5132   27.1714 C   0  0  0  0  0  0  0  0  0  0  0  0
    4.5611   -7.1067   25.9099 C   0  0  0  0  0  0  0  0  0  0  0  0
    6.2618   -5.4195   25.7241 C   0  0  0  0  0  0  0  0  0  0  0  0
    6.1135   -5.4841   22.8168 C   0  0  0  0  0  0  0  0  0  0  0  0
    8.3552   -4.9390   22.3691 C   0  0  0  0  0  0  0  0  0  0  0  0
    8.8810   -1.1900   22.4510 C   0  0  2  0  0  0  0  0  0  0  0  0
    6.7573    1.1443   17.6071 N   0  0  0  0  0  0  0  0  0  0  0  0
    5.3537   -6.2990   24.9945 N   0  0  0  0  0  0  0  0  0  0  0  0
    7.2820   -0.7860   20.6970 N   0  0  0  0  0  0  0  0  0  0  0  0
    8.7222   -2.5825   22.0944 N   0  0  0  0  0  0  0  0  0  0  0  0
    4.4392   -7.1611   23.0560 O   0  0  0  0  0  0  0  0  0  0  0  0
    8.3665   -3.4154   24.2369 O   0  0  0  0  0  0  0  0  0  0  0  0
    8.9170    0.7530   21.0260 O   0  0  0  0  0  0  0  0  0  0  0  0
    7.4659   -5.7744   23.1040 O   0  0  0  0  0  0  0  0  0  0  0  0
   13.8840   -1.8490   21.2740 Cl  0  0  0  0  0  0  0  0  0  0  0  0
    1.3775   -0.7199   18.8334 H   0  0  0  0  0  0  0  0  0  0  0  0
    2.4393   -1.8009   20.7937 H   0  0  0  0  0  0  0  0  0  0  0  0
   12.2249    1.2198   24.6546 H   0  0  0  0  0  0  0  0  0  0  0  0
    2.7373    0.5907   17.2477 H   0  0  0  0  0  0  0  0  0  0  0  0
    4.8464   -1.5833   21.1836 H   0  0  0  0  0  0  0  0  0  0  0  0
    9.8763    0.5350   24.3454 H   0  0  0  0  0  0  0  0  0  0  0  0
   14.0077    0.1988   23.2842 H   0  0  0  0  0  0  0  0  0  0  0  0
   11.0892   -2.3008   21.3624 H   0  0  0  0  0  0  0  0  0  0  0  0
    5.0196    1.4865   16.5675 H   0  0  0  0  0  0  0  0  0  0  0  0
    8.3773    0.6873   18.7839 H   0  0  0  0  0  0  0  0  0  0  0  0
    6.0533   -7.6507   27.3759 H   0  0  0  0  0  0  0  0  0  0  0  0
    4.5439   -7.0475   28.0961 H   0  0  0  0  0  0  0  0  0  0  0  0
    5.0077   -4.7798   27.3650 H   0  0  0  0  0  0  0  0  0  0  0  0
    6.6127   -5.3429   27.8822 H   0  0  0  0  0  0  0  0  0  0  0  0
    4.5264   -8.1495   25.5811 H   0  0  0  0  0  0  0  0  0  0  0  0
    3.5426   -6.7031   25.9131 H   0  0  0  0  0  0  0  0  0  0  0  0
    6.2219   -4.3989   25.3343 H   0  0  0  0  0  0  0  0  0  0  0  0
    7.2774   -5.8114   25.6024 H   0  0  0  0  0  0  0  0  0  0  0  0
    5.9005   -4.4492   23.0692 H   0  0  0  0  0  0  0  0  0  0  0  0
    5.9284   -5.6500   21.7596 H   0  0  0  0  0  0  0  0  0  0  0  0
    7.9594   -4.8167   21.3563 H   0  0  0  0  0  0  0  0  0  0  0  0
    9.3373   -5.4188   22.3137 H   0  0  0  0  0  0  0  0  0  0  0  0
    8.2436   -1.0112   23.3272 H   0  0  0  0  0  0  0  0  0  0  0  0
    6.8975   -1.6551   21.0614 H   0  0  0  0  0  0  0  0  0  0  0  0
    8.7919   -2.8412   21.1145 H   0  0  0  0  0  0  0  0  0  0  0  0
  1  2  1  0  0  0  0
  1  4  2  0  0  0  0
  2  5  2  0  0  0  0
  3  6  2  0  0  0  0
  3  7  1  0  0  0  0
  4 11  1  0  0  0  0
  5 12  1  0  0  0  0
  6 13  1  0  0  0  0
  7 15  2  0  0  0  0
  8 13  2  0  0  0  0
  8 15  1  0  0  0  0
  9 11  2  0  0  0  0
  9 26  1  0  0  0  0
 10 14  1  0  0  0  0
 10 26  2  0  0  0  0
 11 12  1  0  0  0  0
 12 14  2  0  0  0  0
 13 25  1  0  0  0  0
 14 28  1  0  0  0  0
 15 34  1  0  0  0  0
 16 23  1  0  0  0  0
 16 27  1  0  0  0  0
 16 30  2  0  0  0  0
 17 24  1  0  0  0  0
 17 29  1  0  0  0  0
 17 31  2  0  0  0  0
 18 25  1  6  0  0  0
 18 28  1  0  0  0  0
 18 32  2  0  0  0  0
 19 20  1  0  0  0  0
 19 21  1  0  0  0  0
 20 22  1  0  0  0  0
 21 27  1  0  0  0  0
 22 27  1  0  0  0  0
 23 33  1  0  0  0  0
 24 33  1  0  0  0  0
 25 29  1  0  0  0  0
  1 35  1  0  0  0  0
  2 36  1  0  0  0  0
  3 37  1  0  0  0  0
  4 38  1  0  0  0  0
  5 39  1  0  0  0  0
  6 40  1  0  0  0  0
  7 41  1  0  0  0  0
  8 42  1  0  0  0  0
  9 43  1  0  0  0  0
 10 44  1  0  0  0  0
 19 45  1  0  0  0  0
 19 46  1  0  0  0  0
 20 47  1  0  0  0  0
 20 48  1  0  0  0  0
 21 49  1  0  0  0  0
 21 50  1  0  0  0  0
 22 51  1  0  0  0  0
 22 52  1  0  0  0  0
 23 53  1  0  0  0  0
 23 54  1  0  0  0  0
 24 55  1  0  0  0  0
 24 56  1  0  0  0  0
 25 57  1  0  0  0  0
 28 58  1  0  0  0  0
 29 59  1  0  0  0  0
M  END
> <compound>
EDJ-MED-cf4b0d25-1

> <compound_smiles>
c1ccc2c(c1)cncc2NC(=O)C(c3cccc(c3)Cl)NC(=O)COCC(=O)N4CCCC4

> <enantiomer_smiles>
c1ccc2c(c1)cncc2NC(=O)[C@H](c3cccc(c3)Cl)NC(=O)COCC(=O)N4CCCC4

> <scaffold>
chlorobenzene-linker

> <canonical_CID>
EDJ-MED-cf4b0d25-1

> <r_inhibition_at_20_uM>

> <r_inhibition_at_50_uM>

> <r_avg_IC50>

> <f_inhibition_at_20_uM>

> <f_inhibition_at_50_uM>

> <f_avg_IC50>
7.33262892412536

> <f_avg_pIC50>

> <relative_solubility_at_20_uM>

> <relative_solubility_at_100_uM>

> <trypsin_IC50>

> <NMR_std_ratio>

> <acrylamide>
False

> <chloroacetamide>
False

> <series>
Ugi

> <frag_id>

> <clash_score>
7.591275582652844

> <docking_score>
0.9699620008468628

> <overlap_score>
0.7743140459060669

> <MMFF_internal_energy>
152.37562260112966

> <docked_smiles>
c1ccc2c(c1)cncc2NC(=O)[C@H](c3cccc(c3)Cl)NC(=O)COCC(=O)N4CCCC4

$$$$
VLA-UNK-4cf5aa07-1_1
  -OEChem-07262101023D

 31 33  0     0  0  0  0  0  0999 V2000
    3.1097    0.6513   20.1099 C   0  0  0  0  0  0  0  0  0  0  0  0
    2.8298    1.1421   18.8026 C   0  0  0  0  0  0  0  0  0  0  0  0
   11.9780    0.4600   23.9150 C   0  0  0  0  0  0  0  0  0  0  0  0
    4.3644    0.1508   20.5049 C   0  0  0  0  0  0  0  0  0  0  0  0
   10.6560    0.0720   23.7350 C   0  0  0  0  0  0  0  0  0  0  0  0
    3.7815    1.1789   17.7631 C   0  0  0  0  0  0  0  0  0  0  0  0
   12.9840   -0.1200   23.1530 C   0  0  0  0  0  0  0  0  0  0  0  0
   11.3360   -1.5050   22.0650 C   0  0  0  0  0  0  0  0  0  0  0  0
    5.3019    0.1896   19.4720 C   0  0  0  0  0  0  0  0  0  0  0  0
   10.3220   -0.8940   22.7910 C   0  0  0  0  0  0  0  0  0  0  0  0
    5.0597    0.6855   18.1113 C   0  0  0  0  0  0  0  0  0  0  0  0
   12.6400   -1.1000   22.2390 C   0  0  0  0  0  0  0  0  0  0  0  0
    6.5903   -0.2531   19.6469 C   0  0  0  0  0  0  0  0  0  0  0  0
    8.3880   -0.3240   21.3070 C   0  0  0  0  0  0  0  0  0  0  0  0
    8.8810   -1.1900   22.4510 C   0  0  0  0  0  0  0  0  0  0  0  0
    6.1413    0.6042   17.3248 N   0  0  0  0  0  0  0  0  0  0  0  0
    7.2820   -0.7860   20.6970 N   0  0  0  0  0  0  0  0  0  0  0  0
    8.9170    0.7530   21.0260 O   0  0  0  0  0  0  0  0  0  0  0  0
    7.4144   -0.0402   18.1650 S   0  0  0  0  0  0  0  0  0  0  0  0
   13.8840   -1.8490   21.2740 Cl  0  0  0  0  0  0  0  0  0  0  0  0
    2.3045    0.6633   20.8439 H   0  0  0  0  0  0  0  0  0  0  0  0
    1.8245    1.5068   18.5964 H   0  0  0  0  0  0  0  0  0  0  0  0
   12.2249    1.2198   24.6546 H   0  0  0  0  0  0  0  0  0  0  0  0
    4.5474   -0.2166   21.5064 H   0  0  0  0  0  0  0  0  0  0  0  0
    9.8763    0.5350   24.3454 H   0  0  0  0  0  0  0  0  0  0  0  0
    3.5417    1.5583   16.7776 H   0  0  0  0  0  0  0  0  0  0  0  0
   14.0077    0.1988   23.2842 H   0  0  0  0  0  0  0  0  0  0  0  0
   11.0892   -2.3009   21.3624 H   0  0  0  0  0  0  0  0  0  0  0  0
    8.7775   -2.2383   22.1732 H   0  0  0  0  0  0  0  0  0  0  0  0
    8.2557   -1.0153   23.3257 H   0  0  0  0  0  0  0  0  0  0  0  0
    6.8995   -1.6745   21.0789 H   0  0  0  0  0  0  0  0  0  0  0  0
  1  2  1  0  0  0  0
  1  4  2  0  0  0  0
  2  6  2  0  0  0  0
  3  5  2  0  0  0  0
  3  7  1  0  0  0  0
  4  9  1  0  0  0  0
  5 10  1  0  0  0  0
  6 11  1  0  0  0  0
  7 12  2  0  0  0  0
  8 10  2  0  0  0  0
  8 12  1  0  0  0  0
  9 11  1  0  0  0  0
  9 13  2  0  0  0  0
 10 15  1  0  0  0  0
 11 16  2  0  0  0  0
 12 20  1  0  0  0  0
 13 17  1  0  0  0  0
 13 19  1  0  0  0  0
 14 15  1  0  0  0  0
 14 17  1  0  0  0  0
 14 18  2  0  0  0  0
 16 19  1  0  0  0  0
  1 21  1  0  0  0  0
  2 22  1  0  0  0  0
  3 23  1  0  0  0  0
  4 24  1  0  0  0  0
  5 25  1  0  0  0  0
  6 26  1  0  0  0  0
  7 27  1  0  0  0  0
  8 28  1  0  0  0  0
 15 29  1  0  0  0  0
 15 30  1  0  0  0  0
 17 31  1  0  0  0  0
M  END
> <compound>
VLA-UNK-4cf5aa07-1

> <compound_smiles>
c1ccc2c(c1)c(sn2)NC(=O)Cc3cccc(c3)Cl

> <enantiomer_smiles>
c1ccc2c(c1)c(sn2)NC(=O)Cc3cccc(c3)Cl

> <scaffold>
chlorobenzene-linker

> <clash_score>
0

> <docking_score>
-3.526698589324951

> <overlap_score>
0.8555795550346375

> <MMFF_internal_energy>
81.09531398904713

> <docked_smiles>
c1ccc2c(c1)c(sn2)NC(=O)Cc3cccc(c3)Cl

$$$$
PET-UNK-f4e47ebd-1_1
  -OEChem-07262101023D

 37 39  0     0  0  0  0  0  0999 V2000
   11.9780    0.4600   23.9150 C   0  0  0  0  0  0  0  0  0  0  0  0
   10.6560    0.0720   23.7350 C   0  0  0  0  0  0  0  0  0  0  0  0
   12.9840   -0.1200   23.1530 C   0  0  0  0  0  0  0  0  0  0  0  0
    5.1158    1.1148   21.0567 C   0  0  0  0  0  0  0  0  0  0  0  0
   11.3360   -1.5050   22.0650 C   0  0  0  0  0  0  0  0  0  0  0  0
    5.3475    0.7793   17.4007 C   0  0  0  0  0  0  0  0  0  0  0  0
    3.8655    2.1232   18.8429 C   0  0  0  0  0  0  0  0  0  0  0  0
    6.9480   -0.5814   18.3303 C   0  0  0  0  0  0  0  0  0  0  0  0
    5.5458    0.6938   19.7928 C   0  0  0  0  0  0  0  0  0  0  0  0
    4.9054    1.2102   18.6535 C   0  0  0  0  0  0  0  0  0  0  0  0
   10.3220   -0.8940   22.7910 C   0  0  0  0  0  0  0  0  0  0  0  0
    6.5902   -0.2223   19.6218 C   0  0  0  0  0  0  0  0  0  0  0  0
   12.6400   -1.1000   22.2390 C   0  0  0  0  0  0  0  0  0  0  0  0
    4.0724    2.0265   21.1288 C   0  0  0  0  0  0  0  0  0  0  0  0
    8.3880   -0.3240   21.3070 C   0  0  0  0  0  0  0  0  0  0  0  0
    4.3158    1.9018   23.4912 C   0  0  0  0  0  0  0  0  0  0  0  0
    8.8810   -1.1900   22.4510 C   0  0  0  0  0  0  0  0  0  0  0  0
    6.3536   -0.1040   17.2147 N   0  0  0  0  0  0  0  0  0  0  0  0
    3.4358    2.5419   20.0541 N   0  0  0  0  0  0  0  0  0  0  0  0
    7.2820   -0.7860   20.6970 N   0  0  0  0  0  0  0  0  0  0  0  0
    8.9170    0.7530   21.0260 O   0  0  0  0  0  0  0  0  0  0  0  0
    3.6438    2.4455   22.3616 O   0  0  0  0  0  0  0  0  0  0  0  0
   13.8840   -1.8490   21.2740 Cl  0  0  0  0  0  0  0  0  0  0  0  0
   12.2249    1.2198   24.6546 H   0  0  0  0  0  0  0  0  0  0  0  0
    9.8763    0.5350   24.3454 H   0  0  0  0  0  0  0  0  0  0  0  0
   14.0077    0.1988   23.2842 H   0  0  0  0  0  0  0  0  0  0  0  0
    5.5736    0.7492   21.9711 H   0  0  0  0  0  0  0  0  0  0  0  0
   11.0892   -2.3009   21.3624 H   0  0  0  0  0  0  0  0  0  0  0  0
    4.8916    1.1434   16.4846 H   0  0  0  0  0  0  0  0  0  0  0  0
    3.3340    2.5556   18.0000 H   0  0  0  0  0  0  0  0  0  0  0  0
    7.7514   -1.2883   18.1439 H   0  0  0  0  0  0  0  0  0  0  0  0
    3.8829    2.3129   24.4064 H   0  0  0  0  0  0  0  0  0  0  0  0
    5.3795    2.1471   23.4364 H   0  0  0  0  0  0  0  0  0  0  0  0
    4.1938    0.8161   23.4888 H   0  0  0  0  0  0  0  0  0  0  0  0
    8.7775   -2.2383   22.1732 H   0  0  0  0  0  0  0  0  0  0  0  0
    8.2557   -1.0153   23.3257 H   0  0  0  0  0  0  0  0  0  0  0  0
    6.8982   -1.6620   21.0676 H   0  0  0  0  0  0  0  0  0  0  0  0
  1  2  2  0  0  0  0
  1  3  1  0  0  0  0
  2 11  1  0  0  0  0
  3 13  2  0  0  0  0
  4  9  2  0  0  0  0
  4 14  1  0  0  0  0
  5 11  2  0  0  0  0
  5 13  1  0  0  0  0
  6 10  1  0  0  0  0
  6 18  2  0  0  0  0
  7 10  2  0  0  0  0
  7 19  1  0  0  0  0
  8 12  2  0  0  0  0
  8 18  1  0  0  0  0
  9 10  1  0  0  0  0
  9 12  1  0  0  0  0
 11 17  1  0  0  0  0
 12 20  1  0  0  0  0
 13 23  1  0  0  0  0
 14 19  2  0  0  0  0
 14 22  1  0  0  0  0
 15 17  1  0  0  0  0
 15 20  1  0  0  0  0
 15 21  2  0  0  0  0
 16 22  1  0  0  0  0
  1 24  1  0  0  0  0
  2 25  1  0  0  0  0
  3 26  1  0  0  0  0
  4 27  1  0  0  0  0
  5 28  1  0  0  0  0
  6 29  1  0  0  0  0
  7 30  1  0  0  0  0
  8 31  1  0  0  0  0
 16 32  1  0  0  0  0
 16 33  1  0  0  0  0
 16 34  1  0  0  0  0
 17 35  1  0  0  0  0
 17 36  1  0  0  0  0
 20 37  1  0  0  0  0
M  END
> <compound>
PET-UNK-f4e47ebd-1

> <compound_smiles>
COc1cc2c(cncc2NC(=O)Cc3cccc(c3)Cl)cn1

> <enantiomer_smiles>
COc1cc2c(cncc2NC(=O)Cc3cccc(c3)Cl)cn1

> <scaffold>
chlorobenzene-linker

> <clash_score>
0

> <docking_score>
-11.208894729614258

> <overlap_score>
1.0

> <MMFF_internal_energy>
90.16427720276921

> <docked_smiles>
COc1cc2c(cncc2NC(=O)Cc3cccc(c3)Cl)cn1

$$$$
PET-UNK-f4e47ebd-2_1
  -OEChem-07262101023D

 37 39  0     0  0  0  0  0  0999 V2000
   11.9780    0.4600   23.9150 C   0  0  0  0  0  0  0  0  0  0  0  0
   10.6560    0.0720   23.7350 C   0  0  0  0  0  0  0  0  0  0  0  0
   12.9840   -0.1200   23.1530 C   0  0  0  0  0  0  0  0  0  0  0  0
    3.8508    2.1362   18.8355 C   0  0  0  0  0  0  0  0  0  0  0  0
   11.3360   -1.5050   22.0650 C   0  0  0  0  0  0  0  0  0  0  0  0
    5.3366    0.7886   17.4117 C   0  0  0  0  0  0  0  0  0  0  0  0
    5.1045    1.1247   21.0460 C   0  0  0  0  0  0  0  0  0  0  0  0
    6.9424   -0.5774   18.3294 C   0  0  0  0  0  0  0  0  0  0  0  0
    4.8952    1.2196   18.6644 C   0  0  0  0  0  0  0  0  0  0  0  0
    5.5459    0.6937   19.7933 C   0  0  0  0  0  0  0  0  0  0  0  0
   10.3220   -0.8940   22.7910 C   0  0  0  0  0  0  0  0  0  0  0  0
    6.5902   -0.2229   19.6222 C   0  0  0  0  0  0  0  0  0  0  0  0
   12.6400   -1.1000   22.2390 C   0  0  0  0  0  0  0  0  0  0  0  0
    3.4986    2.4907   20.1283 C   0  0  0  0  0  0  0  0  0  0  0  0
    8.3880   -0.3240   21.3070 C   0  0  0  0  0  0  0  0  0  0  0  0
    2.1558    3.7185   21.6597 C   0  0  0  0  0  0  0  0  0  0  0  0
    8.8810   -1.1900   22.4510 C   0  0  0  0  0  0  0  0  0  0  0  0
    6.3424   -0.0953   17.2189 N   0  0  0  0  0  0  0  0  0  0  0  0
    4.0986    2.0086   21.2388 N   0  0  0  0  0  0  0  0  0  0  0  0
    7.2820   -0.7860   20.6970 N   0  0  0  0  0  0  0  0  0  0  0  0
    8.9170    0.7530   21.0260 O   0  0  0  0  0  0  0  0  0  0  0  0
    2.4789    3.3874   20.3146 O   0  0  0  0  0  0  0  0  0  0  0  0
   13.8840   -1.8490   21.2740 Cl  0  0  0  0  0  0  0  0  0  0  0  0
   12.2249    1.2198   24.6546 H   0  0  0  0  0  0  0  0  0  0  0  0
    9.8763    0.5350   24.3454 H   0  0  0  0  0  0  0  0  0  0  0  0
   14.0077    0.1988   23.2842 H   0  0  0  0  0  0  0  0  0  0  0  0
    3.3288    2.5602   17.9829 H   0  0  0  0  0  0  0  0  0  0  0  0
   11.0892   -2.3009   21.3624 H   0  0  0  0  0  0  0  0  0  0  0  0
    4.8782    1.1535   16.4963 H   0  0  0  0  0  0  0  0  0  0  0  0
    5.5534    0.7672   21.9682 H   0  0  0  0  0  0  0  0  0  0  0  0
    7.7446   -1.2839   18.1368 H   0  0  0  0  0  0  0  0  0  0  0  0
    1.3327    4.4372   21.6712 H   0  0  0  0  0  0  0  0  0  0  0  0
    3.0334    4.1455   22.1517 H   0  0  0  0  0  0  0  0  0  0  0  0
    1.8512    2.8107   22.1858 H   0  0  0  0  0  0  0  0  0  0  0  0
    8.7774   -2.2383   22.1732 H   0  0  0  0  0  0  0  0  0  0  0  0
    8.2557   -1.0153   23.3257 H   0  0  0  0  0  0  0  0  0  0  0  0
    6.8982   -1.6622   21.0678 H   0  0  0  0  0  0  0  0  0  0  0  0
  1  2  2  0  0  0  0
  1  3  1  0  0  0  0
  2 11  1  0  0  0  0
  3 13  2  0  0  0  0
  4  9  2  0  0  0  0
  4 14  1  0  0  0  0
  5 11  2  0  0  0  0
  5 13  1  0  0  0  0
  6  9  1  0  0  0  0
  6 18  2  0  0  0  0
  7 10  2  0  0  0  0
  7 19  1  0  0  0  0
  8 12  2  0  0  0  0
  8 18  1  0  0  0  0
  9 10  1  0  0  0  0
 10 12  1  0  0  0  0
 11 17  1  0  0  0  0
 12 20  1  0  0  0  0
 13 23  1  0  0  0  0
 14 19  2  0  0  0  0
 14 22  1  0  0  0  0
 15 17  1  0  0  0  0
 15 20  1  0  0  0  0
 15 21  2  0  0  0  0
 16 22  1  0  0  0  0
  1 24  1  0  0  0  0
  2 25  1  0  0  0  0
  3 26  1  0  0  0  0
  4 27  1  0  0  0  0
  5 28  1  0  0  0  0
  6 29  1  0  0  0  0
  7 30  1  0  0  0  0
  8 31  1  0  0  0  0
 16 32  1  0  0  0  0
 16 33  1  0  0  0  0
 16 34  1  0  0  0  0
 17 35  1  0  0  0  0
 17 36  1  0  0  0  0
 20 37  1  0  0  0  0
M  END
> <compound>
PET-UNK-f4e47ebd-2

> <compound_smiles>
COc1cc2cncc(c2cn1)NC(=O)Cc3cccc(c3)Cl

> <enantiomer_smiles>
COc1cc2cncc(c2cn1)NC(=O)Cc3cccc(c3)Cl

> <scaffold>
chlorobenzene-linker

> <clash_score>
0

> <docking_score>
-10.68441104888916

> <overlap_score>
1.0

> <MMFF_internal_energy>
79.08806955800414

> <docked_smiles>
COc1cc2cncc(c2cn1)NC(=O)Cc3cccc(c3)Cl

$$$$
PET-UNK-e274cad4-6_1
  -OEChem-07262101023D

 35 37  0     0  0  0  0  0  0999 V2000
   11.9780    0.4600   23.9150 C   0  0  0  0  0  0  0  0  0  0  0  0
   10.6560    0.0720   23.7350 C   0  0  0  0  0  0  0  0  0  0  0  0
   12.9840   -0.1200   23.1530 C   0  0  0  0  0  0  0  0  0  0  0  0
    3.8838    2.1020   19.1524 C   0  0  0  0  0  0  0  0  0  0  0  0
   11.3360   -1.5050   22.0650 C   0  0  0  0  0  0  0  0  0  0  0  0
    5.2803    0.8187   17.3728 C   0  0  0  0  0  0  0  0  0  0  0  0
    6.9087   -0.5565   18.3179 C   0  0  0  0  0  0  0  0  0  0  0  0
    3.9643    2.0868   20.5260 C   0  0  0  0  0  0  0  0  0  0  0  0
    4.8791    1.2182   18.6514 C   0  0  0  0  0  0  0  0  0  0  0  0
   10.3220   -0.8940   22.7910 C   0  0  0  0  0  0  0  0  0  0  0  0
    5.5461    0.6833   19.7546 C   0  0  0  0  0  0  0  0  0  0  0  0
    6.5901   -0.2280   19.6263 C   0  0  0  0  0  0  0  0  0  0  0  0
   12.6400   -1.1000   22.2390 C   0  0  0  0  0  0  0  0  0  0  0  0
    8.3880   -0.3240   21.3070 C   0  0  0  0  0  0  0  0  0  0  0  0
    5.3452    0.9583   22.2519 C   0  0  0  0  0  0  0  0  0  0  0  0
    8.8810   -1.1900   22.4510 C   0  0  0  0  0  0  0  0  0  0  0  0
    6.2937   -0.0668   17.2167 N   0  0  0  0  0  0  0  0  0  0  0  0
    4.9703    1.2279   20.8799 N   0  0  0  0  0  0  0  0  0  0  0  0
    7.2820   -0.7860   20.6970 N   0  0  0  0  0  0  0  0  0  0  0  0
    8.9170    0.7530   21.0260 O   0  0  0  0  0  0  0  0  0  0  0  0
   13.8840   -1.8490   21.2740 Cl  0  0  0  0  0  0  0  0  0  0  0  0
   12.2249    1.2198   24.6546 H   0  0  0  0  0  0  0  0  0  0  0  0
    9.8763    0.5350   24.3454 H   0  0  0  0  0  0  0  0  0  0  0  0
   14.0077    0.1988   23.2842 H   0  0  0  0  0  0  0  0  0  0  0  0
    3.1824    2.6860   18.5724 H   0  0  0  0  0  0  0  0  0  0  0  0
   11.0892   -2.3009   21.3624 H   0  0  0  0  0  0  0  0  0  0  0  0
    4.8175    1.1842   16.4639 H   0  0  0  0  0  0  0  0  0  0  0  0
    7.7090   -1.2599   18.1020 H   0  0  0  0  0  0  0  0  0  0  0  0
    3.3895    2.6140   21.2758 H   0  0  0  0  0  0  0  0  0  0  0  0
    4.7512    0.1106   22.6035 H   0  0  0  0  0  0  0  0  0  0  0  0
    6.4122    0.7230   22.2983 H   0  0  0  0  0  0  0  0  0  0  0  0
    5.1472    1.8444   22.8614 H   0  0  0  0  0  0  0  0  0  0  0  0
    8.7774   -2.2383   22.1732 H   0  0  0  0  0  0  0  0  0  0  0  0
    8.2557   -1.0153   23.3257 H   0  0  0  0  0  0  0  0  0  0  0  0
    6.8984   -1.6643   21.0696 H   0  0  0  0  0  0  0  0  0  0  0  0
  1  2  2  0  0  0  0
  1  3  1  0  0  0  0
  2 10  1  0  0  0  0
  3 13  2  0  0  0  0
  4  8  2  0  0  0  0
  4  9  1  0  0  0  0
  5 10  2  0  0  0  0
  5 13  1  0  0  0  0
  6  9  2  0  0  0  0
  6 17  1  0  0  0  0
  7 12  1  0  0  0  0
  7 17  2  0  0  0  0
  8 18  1  0  0  0  0
  9 11  1  0  0  0  0
 10 16  1  0  0  0  0
 11 12  2  0  0  0  0
 11 18  1  0  0  0  0
 12 19  1  0  0  0  0
 13 21  1  0  0  0  0
 14 16  1  0  0  0  0
 14 19  1  0  0  0  0
 14 20  2  0  0  0  0
 15 18  1  0  0  0  0
  1 22  1  0  0  0  0
  2 23  1  0  0  0  0
  3 24  1  0  0  0  0
  4 25  1  0  0  0  0
  5 26  1  0  0  0  0
  6 27  1  0  0  0  0
  7 28  1  0  0  0  0
  8 29  1  0  0  0  0
 15 30  1  0  0  0  0
 15 31  1  0  0  0  0
 15 32  1  0  0  0  0
 16 33  1  0  0  0  0
 16 34  1  0  0  0  0
 19 35  1  0  0  0  0
M  END
> <compound>
PET-UNK-e274cad4-6

> <compound_smiles>
Cn1ccc2c1c(cnc2)NC(=O)Cc3cccc(c3)Cl

> <enantiomer_smiles>
Cn1ccc2c1c(cnc2)NC(=O)Cc3cccc(c3)Cl

> <scaffold>
chlorobenzene-linker

> <clash_score>
0

> <docking_score>
-11.658190727233887

> <overlap_score>
0.9767248630523682

> <MMFF_internal_energy>
91.53450177718527

> <docked_smiles>
Cn1ccc2c1c(cnc2)NC(=O)Cc3cccc(c3)Cl

$$$$
PET-UNK-e274cad4-1_1
  -OEChem-07262101023D

 34 36  0     0  0  0  0  0  0999 V2000
   11.9780    0.4600   23.9150 C   0  0  0  0  0  0  0  0  0  0  0  0
   10.6560    0.0720   23.7350 C   0  0  0  0  0  0  0  0  0  0  0  0
   12.9840   -0.1200   23.1530 C   0  0  0  0  0  0  0  0  0  0  0  0
   11.3360   -1.5050   22.0650 C   0  0  0  0  0  0  0  0  0  0  0  0
    5.2125    0.7895   17.3915 C   0  0  0  0  0  0  0  0  0  0  0  0
    4.9106    2.8366   18.9782 C   0  0  0  0  0  0  0  0  0  0  0  0
    6.4232   -0.9144   18.4323 C   0  0  0  0  0  0  0  0  0  0  0  0
    5.3267    1.5591   18.5493 C   0  0  0  0  0  0  0  0  0  0  0  0
   10.3220   -0.8940   22.7910 C   0  0  0  0  0  0  0  0  0  0  0  0
    6.0112    1.0341   19.6385 C   0  0  0  0  0  0  0  0  0  0  0  0
    6.5901   -0.2287   19.6269 C   0  0  0  0  0  0  0  0  0  0  0  0
   12.6400   -1.1000   22.2390 C   0  0  0  0  0  0  0  0  0  0  0  0
    8.3880   -0.3240   21.3070 C   0  0  0  0  0  0  0  0  0  0  0  0
    6.5178    1.9519   21.9314 C   0  0  0  0  0  0  0  0  0  0  0  0
    8.8810   -1.1900   22.4510 C   0  0  0  0  0  0  0  0  0  0  0  0
    5.7652   -0.4478   17.3431 N   0  0  0  0  0  0  0  0  0  0  0  0
    5.2901    3.1116   20.2284 N   0  0  0  0  0  0  0  0  0  0  0  0
    5.9539    2.0045   20.6018 N   0  0  0  0  0  0  0  0  0  0  0  0
    7.2820   -0.7860   20.6970 N   0  0  0  0  0  0  0  0  0  0  0  0
    8.9170    0.7530   21.0260 O   0  0  0  0  0  0  0  0  0  0  0  0
   13.8840   -1.8490   21.2740 Cl  0  0  0  0  0  0  0  0  0  0  0  0
   12.2249    1.2198   24.6546 H   0  0  0  0  0  0  0  0  0  0  0  0
    9.8763    0.5350   24.3454 H   0  0  0  0  0  0  0  0  0  0  0  0
   14.0077    0.1988   23.2842 H   0  0  0  0  0  0  0  0  0  0  0  0
   11.0892   -2.3009   21.3624 H   0  0  0  0  0  0  0  0  0  0  0  0
    4.6963    1.1231   16.4997 H   0  0  0  0  0  0  0  0  0  0  0  0
    4.3461    3.5785   18.4313 H   0  0  0  0  0  0  0  0  0  0  0  0
    6.8342   -1.9130   18.3058 H   0  0  0  0  0  0  0  0  0  0  0  0
    7.5352    2.3488   21.8822 H   0  0  0  0  0  0  0  0  0  0  0  0
    5.9058    2.5520   22.6105 H   0  0  0  0  0  0  0  0  0  0  0  0
    6.5271    0.9152   22.2792 H   0  0  0  0  0  0  0  0  0  0  0  0
    8.7774   -2.2383   22.1732 H   0  0  0  0  0  0  0  0  0  0  0  0
    8.2557   -1.0153   23.3257 H   0  0  0  0  0  0  0  0  0  0  0  0
    6.8984   -1.6645   21.0699 H   0  0  0  0  0  0  0  0  0  0  0  0
  1  2  2  0  0  0  0
  1  3  1  0  0  0  0
  2  9  1  0  0  0  0
  3 12  2  0  0  0  0
  4  9  2  0  0  0  0
  4 12  1  0  0  0  0
  5  8  2  0  0  0  0
  5 16  1  0  0  0  0
  6  8  1  0  0  0  0
  6 17  2  0  0  0  0
  7 11  1  0  0  0  0
  7 16  2  0  0  0  0
  8 10  1  0  0  0  0
  9 15  1  0  0  0  0
 10 11  2  0  0  0  0
 10 18  1  0  0  0  0
 11 19  1  0  0  0  0
 12 21  1  0  0  0  0
 13 15  1  0  0  0  0
 13 19  1  0  0  0  0
 13 20  2  0  0  0  0
 14 18  1  0  0  0  0
 17 18  1  0  0  0  0
  1 22  1  0  0  0  0
  2 23  1  0  0  0  0
  3 24  1  0  0  0  0
  4 25  1  0  0  0  0
  5 26  1  0  0  0  0
  6 27  1  0  0  0  0
  7 28  1  0  0  0  0
 14 29  1  0  0  0  0
 14 30  1  0  0  0  0
 14 31  1  0  0  0  0
 15 32  1  0  0  0  0
 15 33  1  0  0  0  0
 19 34  1  0  0  0  0
M  END
> <compound>
PET-UNK-e274cad4-1

> <compound_smiles>
Cn1c2c(cncc2NC(=O)Cc3cccc(c3)Cl)cn1

> <enantiomer_smiles>
Cn1c2c(cncc2NC(=O)Cc3cccc(c3)Cl)cn1

> <scaffold>
chlorobenzene-linker

> <clash_score>
0

> <docking_score>
-6.326560974121094

> <overlap_score>
0.8466646671295166

> <MMFF_internal_energy>
88.97073225456816

> <docked_smiles>
Cn1c2c(cncc2NC(=O)Cc3cccc(c3)Cl)cn1

$$$$
PET-UNK-b1ef24dc-1_1
  -OEChem-07262101023D

 30 32  0     0  0  0  0  0  0999 V2000
   11.9780    0.4600   23.9150 C   0  0  0  0  0  0  0  0  0  0  0  0
   10.6560    0.0720   23.7350 C   0  0  0  0  0  0  0  0  0  0  0  0
   12.9840   -0.1200   23.1530 C   0  0  0  0  0  0  0  0  0  0  0  0
   11.3360   -1.5050   22.0650 C   0  0  0  0  0  0  0  0  0  0  0  0
    5.2445    0.8941   17.4132 C   0  0  0  0  0  0  0  0  0  0  0  0
    3.2873    0.9464   19.1428 C   0  0  0  0  0  0  0  0  0  0  0  0
    7.1700   -0.0127   18.3865 C   0  0  0  0  0  0  0  0  0  0  0  0
    4.5734    0.7157   18.6206 C   0  0  0  0  0  0  0  0  0  0  0  0
   10.3220   -0.8940   22.7910 C   0  0  0  0  0  0  0  0  0  0  0  0
    6.5901   -0.2304   19.6283 C   0  0  0  0  0  0  0  0  0  0  0  0
    5.2634    0.1622   19.6838 C   0  0  0  0  0  0  0  0  0  0  0  0
   12.6400   -1.1000   22.2390 C   0  0  0  0  0  0  0  0  0  0  0  0
    8.3880   -0.3240   21.3070 C   0  0  0  0  0  0  0  0  0  0  0  0
    8.8810   -1.1900   22.4510 C   0  0  0  0  0  0  0  0  0  0  0  0
    6.5471    0.5254   17.3064 N   0  0  0  0  0  0  0  0  0  0  0  0
    3.1828    0.5705   20.4212 N   0  0  0  0  0  0  0  0  0  0  0  0
    7.2820   -0.7860   20.6970 N   0  0  0  0  0  0  0  0  0  0  0  0
    8.9170    0.7530   21.0260 O   0  0  0  0  0  0  0  0  0  0  0  0
    4.4359    0.0742   20.7608 O   0  0  0  0  0  0  0  0  0  0  0  0
   13.8840   -1.8490   21.2740 Cl  0  0  0  0  0  0  0  0  0  0  0  0
   12.2249    1.2198   24.6546 H   0  0  0  0  0  0  0  0  0  0  0  0
    9.8763    0.5350   24.3454 H   0  0  0  0  0  0  0  0  0  0  0  0
   14.0077    0.1988   23.2842 H   0  0  0  0  0  0  0  0  0  0  0  0
   11.0892   -2.3009   21.3624 H   0  0  0  0  0  0  0  0  0  0  0  0
    4.7871    1.3182   16.5279 H   0  0  0  0  0  0  0  0  0  0  0  0
    2.4237    1.3705   18.6517 H   0  0  0  0  0  0  0  0  0  0  0  0
    8.2093   -0.2786   18.2097 H   0  0  0  0  0  0  0  0  0  0  0  0
    8.7774   -2.2383   22.1732 H   0  0  0  0  0  0  0  0  0  0  0  0
    8.2557   -1.0153   23.3257 H   0  0  0  0  0  0  0  0  0  0  0  0
    6.8985   -1.6652   21.0705 H   0  0  0  0  0  0  0  0  0  0  0  0
  1  2  1  0  0  0  0
  1  3  2  0  0  0  0
  2  9  2  0  0  0  0
  3 12  1  0  0  0  0
  4  9  1  0  0  0  0
  4 12  2  0  0  0  0
  5  8  2  0  0  0  0
  5 15  1  0  0  0  0
  6  8  1  0  0  0  0
  6 16  2  0  0  0  0
  7 10  1  0  0  0  0
  7 15  2  0  0  0  0
  8 11  1  0  0  0  0
  9 14  1  0  0  0  0
 10 11  2  0  0  0  0
 10 17  1  0  0  0  0
 11 19  1  0  0  0  0
 12 20  1  0  0  0  0
 13 14  1  0  0  0  0
 13 17  1  0  0  0  0
 13 18  2  0  0  0  0
 16 19  1  0  0  0  0
  1 21  1  0  0  0  0
  2 22  1  0  0  0  0
  3 23  1  0  0  0  0
  4 24  1  0  0  0  0
  5 25  1  0  0  0  0
  6 26  1  0  0  0  0
  7 27  1  0  0  0  0
 14 28  1  0  0  0  0
 14 29  1  0  0  0  0
 17 30  1  0  0  0  0
M  END
> <compound>
PET-UNK-b1ef24dc-1

> <compound_smiles>
c1cc(cc(c1)Cl)CC(=O)Nc2cncc3c2onc3

> <enantiomer_smiles>
c1cc(cc(c1)Cl)CC(=O)Nc2cncc3c2onc3

> <scaffold>
chlorobenzene-linker

> <canonical_CID>
PET-UNK-b1ef24dc-1

> <r_inhibition_at_20_uM>

> <r_inhibition_at_50_uM>

> <r_avg_IC50>

> <f_inhibition_at_20_uM>

> <f_inhibition_at_50_uM>

> <f_avg_IC50>
23.9366000986946

> <f_avg_pIC50>

> <relative_solubility_at_20_uM>

> <relative_solubility_at_100_uM>

> <trypsin_IC50>

> <NMR_std_ratio>

> <acrylamide>
False

> <chloroacetamide>
False

> <series>
3-aminopyridine-like

> <frag_id>

> <clash_score>
0

> <docking_score>
-6.752735137939453

> <overlap_score>
0.8833726048469543

> <MMFF_internal_energy>
72.14884371599375

> <docked_smiles>
c1cc(cc(c1)Cl)CC(=O)Nc2cncc3c2onc3

$$$$
PET-UNK-b1ef24dc-3_1
  -OEChem-07262101023D

 30 32  0     0  0  0  0  0  0999 V2000
   11.9780    0.4600   23.9150 C   0  0  0  0  0  0  0  0  0  0  0  0
   10.6560    0.0720   23.7350 C   0  0  0  0  0  0  0  0  0  0  0  0
   12.9840   -0.1200   23.1530 C   0  0  0  0  0  0  0  0  0  0  0  0
   11.3360   -1.5050   22.0650 C   0  0  0  0  0  0  0  0  0  0  0  0
    4.2269    0.1718   20.6733 C   0  0  0  0  0  0  0  0  0  0  0  0
    7.1974   -0.0203   18.3913 C   0  0  0  0  0  0  0  0  0  0  0  0
    5.2986    0.8950   17.3859 C   0  0  0  0  0  0  0  0  0  0  0  0
    5.2519    0.1631   19.7077 C   0  0  0  0  0  0  0  0  0  0  0  0
   10.3220   -0.8940   22.7910 C   0  0  0  0  0  0  0  0  0  0  0  0
    6.5901   -0.2283   19.6265 C   0  0  0  0  0  0  0  0  0  0  0  0
    4.6465    0.7111   18.5911 C   0  0  0  0  0  0  0  0  0  0  0  0
   12.6400   -1.1000   22.2390 C   0  0  0  0  0  0  0  0  0  0  0  0
    8.3880   -0.3240   21.3070 C   0  0  0  0  0  0  0  0  0  0  0  0
    8.8810   -1.1900   22.4510 C   0  0  0  0  0  0  0  0  0  0  0  0
    6.5975    0.5182   17.2987 N   0  0  0  0  0  0  0  0  0  0  0  0
    3.0848    0.6802   20.1998 N   0  0  0  0  0  0  0  0  0  0  0  0
    7.2820   -0.7860   20.6970 N   0  0  0  0  0  0  0  0  0  0  0  0
    8.9170    0.7530   21.0260 O   0  0  0  0  0  0  0  0  0  0  0  0
    3.3549    1.0211   18.8794 O   0  0  0  0  0  0  0  0  0  0  0  0
   13.8840   -1.8490   21.2740 Cl  0  0  0  0  0  0  0  0  0  0  0  0
   12.2249    1.2198   24.6546 H   0  0  0  0  0  0  0  0  0  0  0  0
    9.8763    0.5350   24.3454 H   0  0  0  0  0  0  0  0  0  0  0  0
   14.0077    0.1988   23.2842 H   0  0  0  0  0  0  0  0  0  0  0  0
   11.0892   -2.3009   21.3624 H   0  0  0  0  0  0  0  0  0  0  0  0
    4.2588   -0.1689   21.6981 H   0  0  0  0  0  0  0  0  0  0  0  0
    8.2380   -0.2938   18.2350 H   0  0  0  0  0  0  0  0  0  0  0  0
    4.8372    1.3228   16.5073 H   0  0  0  0  0  0  0  0  0  0  0  0
    8.7774   -2.2383   22.1732 H   0  0  0  0  0  0  0  0  0  0  0  0
    8.2557   -1.0153   23.3257 H   0  0  0  0  0  0  0  0  0  0  0  0
    6.8984   -1.6644   21.0697 H   0  0  0  0  0  0  0  0  0  0  0  0
  1  2  1  0  0  0  0
  1  3  2  0  0  0  0
  2  9  2  0  0  0  0
  3 12  1  0  0  0  0
  4  9  1  0  0  0  0
  4 12  2  0  0  0  0
  5  8  1  0  0  0  0
  5 16  2  0  0  0  0
  6 10  1  0  0  0  0
  6 15  2  0  0  0  0
  7 11  2  0  0  0  0
  7 15  1  0  0  0  0
  8 10  2  0  0  0  0
  8 11  1  0  0  0  0
  9 14  1  0  0  0  0
 10 17  1  0  0  0  0
 11 19  1  0  0  0  0
 12 20  1  0  0  0  0
 13 14  1  0  0  0  0
 13 17  1  0  0  0  0
 13 18  2  0  0  0  0
 16 19  1  0  0  0  0
  1 21  1  0  0  0  0
  2 22  1  0  0  0  0
  3 23  1  0  0  0  0
  4 24  1  0  0  0  0
  5 25  1  0  0  0  0
  6 26  1  0  0  0  0
  7 27  1  0  0  0  0
 14 28  1  0  0  0  0
 14 29  1  0  0  0  0
 17 30  1  0  0  0  0
M  END
> <compound>
PET-UNK-b1ef24dc-3

> <compound_smiles>
c1cc(cc(c1)Cl)CC(=O)Nc2cncc3c2cno3

> <enantiomer_smiles>
c1cc(cc(c1)Cl)CC(=O)Nc2cncc3c2cno3

> <scaffold>
chlorobenzene-linker

> <clash_score>
0

> <docking_score>
-6.766451835632324

> <overlap_score>
0.8825016021728516

> <MMFF_internal_energy>
78.33395746310224

> <docked_smiles>
c1cc(cc(c1)Cl)CC(=O)Nc2cncc3c2cno3

$$$$
EDJ-MED-076d6e64-1_1
  -OEChem-07262101023D

 30 32  0     0  0  0  0  0  0999 V2000
   11.9780    0.4600   23.9150 C   0  0  0  0  0  0  0  0  0  0  0  0
   10.6560    0.0720   23.7350 C   0  0  0  0  0  0  0  0  0  0  0  0
   12.9840   -0.1200   23.1530 C   0  0  0  0  0  0  0  0  0  0  0  0
   11.3360   -1.5050   22.0650 C   0  0  0  0  0  0  0  0  0  0  0  0
    4.1893    2.2655   19.2567 C   0  0  0  0  0  0  0  0  0  0  0  0
   10.3220   -0.8940   22.7910 C   0  0  0  0  0  0  0  0  0  0  0  0
   12.6400   -1.1000   22.2390 C   0  0  0  0  0  0  0  0  0  0  0  0
    5.6752    0.8012   19.9033 C   0  0  0  0  0  0  0  0  0  0  0  0
    6.9983   -0.4066   18.3649 C   0  0  0  0  0  0  0  0  0  0  0  0
    5.4956    1.0838   17.4958 C   0  0  0  0  0  0  0  0  0  0  0  0
    6.6801   -0.1576   19.6492 C   0  0  0  0  0  0  0  0  0  0  0  0
    8.3880   -0.3240   21.3070 C   0  0  0  0  0  0  0  0  0  0  0  0
    8.8810   -1.1900   22.4510 C   0  0  0  0  0  0  0  0  0  0  0  0
    4.1680    2.2262   20.5714 N   0  0  0  0  0  0  0  0  0  0  0  0
    5.1093    1.2985   20.9824 N   0  0  0  0  0  0  0  0  0  0  0  0
    6.4209    0.2008   17.2643 N   0  0  0  0  0  0  0  0  0  0  0  0
    5.1198    1.3876   18.7946 N   0  0  0  0  0  0  0  0  0  0  0  0
    7.2820   -0.7860   20.6970 N   0  0  0  0  0  0  0  0  0  0  0  0
    8.9170    0.7530   21.0260 O   0  0  0  0  0  0  0  0  0  0  0  0
   13.8840   -1.8490   21.2740 Cl  0  0  0  0  0  0  0  0  0  0  0  0
   12.2249    1.2198   24.6546 H   0  0  0  0  0  0  0  0  0  0  0  0
    9.8763    0.5350   24.3454 H   0  0  0  0  0  0  0  0  0  0  0  0
   14.0077    0.1988   23.2842 H   0  0  0  0  0  0  0  0  0  0  0  0
   11.0892   -2.3009   21.3624 H   0  0  0  0  0  0  0  0  0  0  0  0
    3.5764    2.8864   18.6192 H   0  0  0  0  0  0  0  0  0  0  0  0
    7.7656   -1.1365   18.1231 H   0  0  0  0  0  0  0  0  0  0  0  0
    4.9945    1.6053   16.6648 H   0  0  0  0  0  0  0  0  0  0  0  0
    8.2535   -1.0146   23.3240 H   0  0  0  0  0  0  0  0  0  0  0  0
    8.7756   -2.2377   22.1724 H   0  0  0  0  0  0  0  0  0  0  0  0
    6.8627   -1.6491   21.0266 H   0  0  0  0  0  0  0  0  0  0  0  0
  1  2  1  0  0  0  0
  1  3  2  0  0  0  0
  2  6  2  0  0  0  0
  3  7  1  0  0  0  0
  4  6  1  0  0  0  0
  4  7  2  0  0  0  0
  5 14  2  0  0  0  0
  5 17  1  0  0  0  0
  6 13  1  0  0  0  0
  7 20  1  0  0  0  0
  8 11  1  0  0  0  0
  8 15  2  0  0  0  0
  8 17  1  0  0  0  0
  9 11  2  0  0  0  0
  9 16  1  0  0  0  0
 10 16  2  0  0  0  0
 10 17  1  0  0  0  0
 11 18  1  0  0  0  0
 12 13  1  0  0  0  0
 12 18  1  0  0  0  0
 12 19  2  0  0  0  0
 14 15  1  0  0  0  0
  1 21  1  0  0  0  0
  2 22  1  0  0  0  0
  3 23  1  0  0  0  0
  4 24  1  0  0  0  0
  5 25  1  0  0  0  0
  9 26  1  0  0  0  0
 10 27  1  0  0  0  0
 13 28  1  0  0  0  0
 13 29  1  0  0  0  0
 18 30  1  0  0  0  0
M  END
> <compound>
EDJ-MED-076d6e64-1

> <compound_smiles>
c1cc(cc(c1)Cl)CC(=O)Nc2cncn3c2nnc3

> <enantiomer_smiles>
c1cc(cc(c1)Cl)CC(=O)Nc2cncn3c2nnc3

> <scaffold>
chlorobenzene-linker

> <clash_score>
0

> <docking_score>
-11.889805793762207

> <overlap_score>
0.9554508924484253

> <MMFF_internal_energy>
74.78472705155423

> <docked_smiles>
c1cc(cc(c1)Cl)CC(=O)Nc2cncn3c2nnc3

$$$$
PET-UNK-b1ef24dc-4_1
  -OEChem-07262101023D

 30 32  0     0  0  0  0  0  0999 V2000
   11.9780    0.4600   23.9150 C   0  0  0  0  0  0  0  0  0  0  0  0
   10.6560    0.0720   23.7350 C   0  0  0  0  0  0  0  0  0  0  0  0
   12.9840   -0.1200   23.1530 C   0  0  0  0  0  0  0  0  0  0  0  0
   11.3360   -1.5050   22.0650 C   0  0  0  0  0  0  0  0  0  0  0  0
    4.2957    0.1089   20.7918 C   0  0  0  0  0  0  0  0  0  0  0  0
    7.2125   -0.0259   18.4014 C   0  0  0  0  0  0  0  0  0  0  0  0
    5.3237    0.8829   17.3944 C   0  0  0  0  0  0  0  0  0  0  0  0
    5.2428    0.1609   19.7187 C   0  0  0  0  0  0  0  0  0  0  0  0
   10.3220   -0.8940   22.7910 C   0  0  0  0  0  0  0  0  0  0  0  0
    6.5902   -0.2262   19.6249 C   0  0  0  0  0  0  0  0  0  0  0  0
    4.6326    0.7123   18.5905 C   0  0  0  0  0  0  0  0  0  0  0  0
   12.6400   -1.1000   22.2390 C   0  0  0  0  0  0  0  0  0  0  0  0
    8.3880   -0.3240   21.3070 C   0  0  0  0  0  0  0  0  0  0  0  0
    8.8810   -1.1900   22.4510 C   0  0  0  0  0  0  0  0  0  0  0  0
    6.6202    0.5078   17.3120 N   0  0  0  0  0  0  0  0  0  0  0  0
    3.0693    0.5647   20.5576 N   0  0  0  0  0  0  0  0  0  0  0  0
    7.2820   -0.7860   20.6970 N   0  0  0  0  0  0  0  0  0  0  0  0
    8.9170    0.7530   21.0260 O   0  0  0  0  0  0  0  0  0  0  0  0
    3.0036    1.0886   18.9876 S   0  0  0  0  0  0  0  0  0  0  0  0
   13.8840   -1.8490   21.2740 Cl  0  0  0  0  0  0  0  0  0  0  0  0
   12.2249    1.2198   24.6546 H   0  0  0  0  0  0  0  0  0  0  0  0
    9.8763    0.5350   24.3454 H   0  0  0  0  0  0  0  0  0  0  0  0
   14.0077    0.1988   23.2842 H   0  0  0  0  0  0  0  0  0  0  0  0
   11.0892   -2.3009   21.3624 H   0  0  0  0  0  0  0  0  0  0  0  0
    4.4933   -0.2719   21.7855 H   0  0  0  0  0  0  0  0  0  0  0  0
    8.2534   -0.3008   18.2547 H   0  0  0  0  0  0  0  0  0  0  0  0
    4.8779    1.3084   16.5042 H   0  0  0  0  0  0  0  0  0  0  0  0
    8.7774   -2.2383   22.1732 H   0  0  0  0  0  0  0  0  0  0  0  0
    8.2557   -1.0153   23.3257 H   0  0  0  0  0  0  0  0  0  0  0  0
    6.8983   -1.6635   21.0689 H   0  0  0  0  0  0  0  0  0  0  0  0
  1  2  1  0  0  0  0
  1  3  2  0  0  0  0
  2  9  2  0  0  0  0
  3 12  1  0  0  0  0
  4  9  1  0  0  0  0
  4 12  2  0  0  0  0
  5  8  1  0  0  0  0
  5 16  2  0  0  0  0
  6 10  1  0  0  0  0
  6 15  2  0  0  0  0
  7 11  2  0  0  0  0
  7 15  1  0  0  0  0
  8 10  2  0  0  0  0
  8 11  1  0  0  0  0
  9 14  1  0  0  0  0
 10 17  1  0  0  0  0
 11 19  1  0  0  0  0
 12 20  1  0  0  0  0
 13 14  1  0  0  0  0
 13 17  1  0  0  0  0
 13 18  2  0  0  0  0
 16 19  1  0  0  0  0
  1 21  1  0  0  0  0
  2 22  1  0  0  0  0
  3 23  1  0  0  0  0
  4 24  1  0  0  0  0
  5 25  1  0  0  0  0
  6 26  1  0  0  0  0
  7 27  1  0  0  0  0
 14 28  1  0  0  0  0
 14 29  1  0  0  0  0
 17 30  1  0  0  0  0
M  END
> <compound>
PET-UNK-b1ef24dc-4

> <compound_smiles>
c1cc(cc(c1)Cl)CC(=O)Nc2cncc3c2cns3

> <enantiomer_smiles>
c1cc(cc(c1)Cl)CC(=O)Nc2cncc3c2cns3

> <scaffold>
chlorobenzene-linker

> <clash_score>
0

> <docking_score>
-6.632841110229492

> <overlap_score>
0.8755277395248413

> <MMFF_internal_energy>
76.43488764988858

> <docked_smiles>
c1cc(cc(c1)Cl)CC(=O)Nc2cncc3c2cns3

$$$$
PET-UNK-b1ef24dc-2_1
  -OEChem-07262101023D

 30 32  0     0  0  0  0  0  0999 V2000
   11.9780    0.4600   23.9150 C   0  0  0  0  0  0  0  0  0  0  0  0
   10.6560    0.0720   23.7350 C   0  0  0  0  0  0  0  0  0  0  0  0
   12.9840   -0.1200   23.1530 C   0  0  0  0  0  0  0  0  0  0  0  0
   11.3360   -1.5050   22.0650 C   0  0  0  0  0  0  0  0  0  0  0  0
    5.3064    0.8851   17.4020 C   0  0  0  0  0  0  0  0  0  0  0  0
    3.2401    1.0262   18.9603 C   0  0  0  0  0  0  0  0  0  0  0  0
    7.2018   -0.0232   18.4000 C   0  0  0  0  0  0  0  0  0  0  0  0
    4.5913    0.7237   18.5958 C   0  0  0  0  0  0  0  0  0  0  0  0
   10.3220   -0.8940   22.7910 C   0  0  0  0  0  0  0  0  0  0  0  0
    6.5902   -0.2272   19.6257 C   0  0  0  0  0  0  0  0  0  0  0  0
    5.2532    0.1666   19.6912 C   0  0  0  0  0  0  0  0  0  0  0  0
   12.6400   -1.1000   22.2390 C   0  0  0  0  0  0  0  0  0  0  0  0
    8.3880   -0.3240   21.3070 C   0  0  0  0  0  0  0  0  0  0  0  0
    8.8810   -1.1900   22.4510 C   0  0  0  0  0  0  0  0  0  0  0  0
    6.6041    0.5111   17.3135 N   0  0  0  0  0  0  0  0  0  0  0  0
    2.8567    0.7466   20.2017 N   0  0  0  0  0  0  0  0  0  0  0  0
    7.2820   -0.7860   20.6970 N   0  0  0  0  0  0  0  0  0  0  0  0
    8.9170    0.7530   21.0260 O   0  0  0  0  0  0  0  0  0  0  0  0
    4.1463    0.0879   21.0053 S   0  0  0  0  0  0  0  0  0  0  0  0
   13.8840   -1.8490   21.2740 Cl  0  0  0  0  0  0  0  0  0  0  0  0
   12.2249    1.2198   24.6546 H   0  0  0  0  0  0  0  0  0  0  0  0
    9.8763    0.5350   24.3454 H   0  0  0  0  0  0  0  0  0  0  0  0
   14.0077    0.1988   23.2842 H   0  0  0  0  0  0  0  0  0  0  0  0
   11.0892   -2.3009   21.3624 H   0  0  0  0  0  0  0  0  0  0  0  0
    4.8695    1.3089   16.5052 H   0  0  0  0  0  0  0  0  0  0  0  0
    2.4988    1.4660   18.3062 H   0  0  0  0  0  0  0  0  0  0  0  0
    8.2423   -0.2970   18.2463 H   0  0  0  0  0  0  0  0  0  0  0  0
    8.7774   -2.2383   22.1732 H   0  0  0  0  0  0  0  0  0  0  0  0
    8.2557   -1.0153   23.3257 H   0  0  0  0  0  0  0  0  0  0  0  0
    6.8984   -1.6639   21.0693 H   0  0  0  0  0  0  0  0  0  0  0  0
  1  2  1  0  0  0  0
  1  3  2  0  0  0  0
  2  9  2  0  0  0  0
  3 12  1  0  0  0  0
  4  9  1  0  0  0  0
  4 12  2  0  0  0  0
  5  8  2  0  0  0  0
  5 15  1  0  0  0  0
  6  8  1  0  0  0  0
  6 16  2  0  0  0  0
  7 10  1  0  0  0  0
  7 15  2  0  0  0  0
  8 11  1  0  0  0  0
  9 14  1  0  0  0  0
 10 11  2  0  0  0  0
 10 17  1  0  0  0  0
 11 19  1  0  0  0  0
 12 20  1  0  0  0  0
 13 14  1  0  0  0  0
 13 17  1  0  0  0  0
 13 18  2  0  0  0  0
 16 19  1  0  0  0  0
  1 21  1  0  0  0  0
  2 22  1  0  0  0  0
  3 23  1  0  0  0  0
  4 24  1  0  0  0  0
  5 25  1  0  0  0  0
  6 26  1  0  0  0  0
  7 27  1  0  0  0  0
 14 28  1  0  0  0  0
 14 29  1  0  0  0  0
 17 30  1  0  0  0  0
M  END
> <compound>
PET-UNK-b1ef24dc-2

> <compound_smiles>
c1cc(cc(c1)Cl)CC(=O)Nc2cncc3c2snc3

> <enantiomer_smiles>
c1cc(cc(c1)Cl)CC(=O)Nc2cncc3c2snc3

> <scaffold>
chlorobenzene-linker

> <clash_score>
0.6117646914029596

> <docking_score>
-7.266668319702148

> <overlap_score>
0.8745250701904297

> <MMFF_internal_energy>
74.97768058398765

> <docked_smiles>
c1cc(cc(c1)Cl)CC(=O)Nc2cncc3c2snc3

$$$$
EDJ-MED-cf4b0d25-5_2
  -OEChem-07262101023D

 55 57  0     1  0  0  0  0  0999 V2000
    2.4453   -0.6644   19.0345 C   0  0  0  0  0  0  0  0  0  0  0  0
    3.0521   -1.2620   20.1368 C   0  0  0  0  0  0  0  0  0  0  0  0
   11.9780    0.4600   23.9150 C   0  0  0  0  0  0  0  0  0  0  0  0
    3.2094    0.0755   18.1324 C   0  0  0  0  0  0  0  0  0  0  0  0
    4.4258   -1.1223   20.3419 C   0  0  0  0  0  0  0  0  0  0  0  0
   10.6560    0.0720   23.7350 C   0  0  0  0  0  0  0  0  0  0  0  0
   12.9840   -0.1200   23.1530 C   0  0  0  0  0  0  0  0  0  0  0  0
   11.3360   -1.5050   22.0650 C   0  0  0  0  0  0  0  0  0  0  0  0
    5.4047    0.9517   17.4581 C   0  0  0  0  0  0  0  0  0  0  0  0
    7.2951    0.5246   18.6905 C   0  0  0  0  0  0  0  0  0  0  0  0
    4.5925    0.2225   18.3289 C   0  0  0  0  0  0  0  0  0  0  0  0
    5.2106   -0.3809   19.4436 C   0  0  0  0  0  0  0  0  0  0  0  0
   10.3220   -0.8940   22.7910 C   0  0  0  0  0  0  0  0  0  0  0  0
    6.5899   -0.2225   19.6216 C   0  0  0  0  0  0  0  0  0  0  0  0
   12.6400   -1.1000   22.2390 C   0  0  0  0  0  0  0  0  0  0  0  0
    7.7914   -1.9673   24.5495 C   0  0  0  0  0  0  0  0  0  0  0  0
    5.4638   -4.4843   27.2241 C   0  0  0  0  0  0  0  0  0  0  0  0
    8.3880   -0.3240   21.3070 C   0  0  0  0  0  0  0  0  0  0  0  0
    6.4084   -6.3354   28.5476 C   0  0  0  0  0  0  0  0  0  0  0  0
    7.8819   -5.1999   26.9332 C   0  0  0  0  0  0  0  0  0  0  0  0
    6.8772   -1.4734   25.6503 C   0  0  0  0  0  0  0  0  0  0  0  0
    5.6658   -3.4200   26.1662 C   0  0  0  0  0  0  0  0  0  0  0  0
    8.8810   -1.1900   22.4510 C   0  0  2  0  0  0  0  0  0  0  0  0
    6.7379    1.1163   17.6125 N   0  0  0  0  0  0  0  0  0  0  0  0
    7.2820   -0.7860   20.6970 N   0  0  0  0  0  0  0  0  0  0  0  0
    8.0352   -0.9804   23.6107 N   0  0  0  0  0  0  0  0  0  0  0  0
    6.5569   -5.2911   27.5415 N   0  0  0  0  0  0  0  0  0  0  0  0
    8.2435   -3.1088   24.5240 O   0  0  0  0  0  0  0  0  0  0  0  0
    4.3514   -4.5954   27.7485 O   0  0  0  0  0  0  0  0  0  0  0  0
    8.9170    0.7530   21.0260 O   0  0  0  0  0  0  0  0  0  0  0  0
    6.6514   -2.4892   26.6044 O   0  0  0  0  0  0  0  0  0  0  0  0
   13.8840   -1.8490   21.2740 Cl  0  0  0  0  0  0  0  0  0  0  0  0
    1.3764   -0.7749   18.8773 H   0  0  0  0  0  0  0  0  0  0  0  0
    2.4552   -1.8381   20.8380 H   0  0  0  0  0  0  0  0  0  0  0  0
   12.2249    1.2198   24.6546 H   0  0  0  0  0  0  0  0  0  0  0  0
    2.7196    0.5352   17.2771 H   0  0  0  0  0  0  0  0  0  0  0  0
    4.8628   -1.6030   21.2142 H   0  0  0  0  0  0  0  0  0  0  0  0
    9.8763    0.5350   24.3454 H   0  0  0  0  0  0  0  0  0  0  0  0
   14.0077    0.1988   23.2842 H   0  0  0  0  0  0  0  0  0  0  0  0
   11.0892   -2.3009   21.3624 H   0  0  0  0  0  0  0  0  0  0  0  0
    4.9927    1.4416   16.5801 H   0  0  0  0  0  0  0  0  0  0  0  0
    8.3668    0.6763   18.7836 H   0  0  0  0  0  0  0  0  0  0  0  0
    6.0898   -7.2699   28.0626 H   0  0  0  0  0  0  0  0  0  0  0  0
    7.3712   -6.4954   29.0548 H   0  0  0  0  0  0  0  0  0  0  0  0
    5.6519   -6.0290   29.2851 H   0  0  0  0  0  0  0  0  0  0  0  0
    8.5033   -4.4991   27.5100 H   0  0  0  0  0  0  0  0  0  0  0  0
    8.3540   -6.1934   26.9325 H   0  0  0  0  0  0  0  0  0  0  0  0
    7.7861   -4.8388   25.8986 H   0  0  0  0  0  0  0  0  0  0  0  0
    7.3456   -0.6222   26.1538 H   0  0  0  0  0  0  0  0  0  0  0  0
    5.9186   -1.1559   25.2283 H   0  0  0  0  0  0  0  0  0  0  0  0
    5.9610   -3.8627   25.2114 H   0  0  0  0  0  0  0  0  0  0  0  0
    4.7239   -2.8869   25.9999 H   0  0  0  0  0  0  0  0  0  0  0  0
    8.7711   -2.2448   22.1651 H   0  0  0  0  0  0  0  0  0  0  0  0
    6.8984   -1.6618   21.0676 H   0  0  0  0  0  0  0  0  0  0  0  0
    7.6039   -0.0720   23.7399 H   0  0  0  0  0  0  0  0  0  0  0  0
  1  2  1  0  0  0  0
  1  4  2  0  0  0  0
  2  5  2  0  0  0  0
  3  6  2  0  0  0  0
  3  7  1  0  0  0  0
  4 11  1  0  0  0  0
  5 12  1  0  0  0  0
  6 13  1  0  0  0  0
  7 15  2  0  0  0  0
  8 13  2  0  0  0  0
  8 15  1  0  0  0  0
  9 11  2  0  0  0  0
  9 24  1  0  0  0  0
 10 14  1  0  0  0  0
 10 24  2  0  0  0  0
 11 12  1  0  0  0  0
 12 14  2  0  0  0  0
 13 23  1  0  0  0  0
 14 25  1  0  0  0  0
 15 32  1  0  0  0  0
 16 21  1  0  0  0  0
 16 26  1  0  0  0  0
 16 28  2  0  0  0  0
 17 22  1  0  0  0  0
 17 27  1  0  0  0  0
 17 29  2  0  0  0  0
 18 23  1  6  0  0  0
 18 25  1  0  0  0  0
 18 30  2  0  0  0  0
 19 27  1  0  0  0  0
 20 27  1  0  0  0  0
 21 31  1  0  0  0  0
 22 31  1  0  0  0  0
 23 26  1  0  0  0  0
  1 33  1  0  0  0  0
  2 34  1  0  0  0  0
  3 35  1  0  0  0  0
  4 36  1  0  0  0  0
  5 37  1  0  0  0  0
  6 38  1  0  0  0  0
  7 39  1  0  0  0  0
  8 40  1  0  0  0  0
  9 41  1  0  0  0  0
 10 42  1  0  0  0  0
 19 43  1  0  0  0  0
 19 44  1  0  0  0  0
 19 45  1  0  0  0  0
 20 46  1  0  0  0  0
 20 47  1  0  0  0  0
 20 48  1  0  0  0  0
 21 49  1  0  0  0  0
 21 50  1  0  0  0  0
 22 51  1  0  0  0  0
 22 52  1  0  0  0  0
 23 53  1  0  0  0  0
 25 54  1  0  0  0  0
 26 55  1  0  0  0  0
M  END
> <compound>
EDJ-MED-cf4b0d25-5

> <compound_smiles>
CN(C)C(=O)COCC(=O)NC(c1cccc(c1)Cl)C(=O)Nc2cncc3c2cccc3

> <enantiomer_smiles>
CN(C)C(=O)COCC(=O)N[C@H](c1cccc(c1)Cl)C(=O)Nc2cncc3c2cccc3

> <scaffold>
chlorobenzene-linker

> <canonical_CID>
EDJ-MED-cf4b0d25-5

> <r_inhibition_at_20_uM>

> <r_inhibition_at_50_uM>

> <r_avg_IC50>

> <f_inhibition_at_20_uM>

> <f_inhibition_at_50_uM>

> <f_avg_IC50>
5.40617223103952

> <f_avg_pIC50>

> <relative_solubility_at_20_uM>

> <relative_solubility_at_100_uM>

> <trypsin_IC50>

> <NMR_std_ratio>

> <acrylamide>
False

> <chloroacetamide>
False

> <series>
Ugi

> <frag_id>

> <clash_score>
7.634434759413347

> <docking_score>
-0.7025822401046753

> <overlap_score>
0.7769722938537598

> <MMFF_internal_energy>
153.03135564069106

> <docked_smiles>
CN(C)C(=O)COCC(=O)N[C@H](c1cccc(c1)Cl)C(=O)Nc2cncc3c2cccc3

$$$$
PET-UNK-158bee2a-1_1
  -OEChem-07262101023D

 31 33  0     0  0  0  0  0  0999 V2000
    3.1097    0.6513   20.1099 C   0  0  0  0  0  0  0  0  0  0  0  0
    2.8298    1.1421   18.8026 C   0  0  0  0  0  0  0  0  0  0  0  0
   11.9780    0.4600   23.9150 C   0  0  0  0  0  0  0  0  0  0  0  0
    4.3644    0.1508   20.5049 C   0  0  0  0  0  0  0  0  0  0  0  0
   10.6560    0.0720   23.7350 C   0  0  0  0  0  0  0  0  0  0  0  0
    3.7815    1.1789   17.7631 C   0  0  0  0  0  0  0  0  0  0  0  0
   12.9840   -0.1200   23.1530 C   0  0  0  0  0  0  0  0  0  0  0  0
   11.3360   -1.5050   22.0650 C   0  0  0  0  0  0  0  0  0  0  0  0
    5.3019    0.1896   19.4720 C   0  0  0  0  0  0  0  0  0  0  0  0
   10.3220   -0.8940   22.7910 C   0  0  0  0  0  0  0  0  0  0  0  0
    5.0597    0.6855   18.1113 C   0  0  0  0  0  0  0  0  0  0  0  0
   12.6400   -1.1000   22.2390 C   0  0  0  0  0  0  0  0  0  0  0  0
    6.5903   -0.2531   19.6469 C   0  0  0  0  0  0  0  0  0  0  0  0
    8.3880   -0.3240   21.3070 C   0  0  0  0  0  0  0  0  0  0  0  0
    8.8810   -1.1900   22.4510 C   0  0  0  0  0  0  0  0  0  0  0  0
    6.1413    0.6042   17.3248 N   0  0  0  0  0  0  0  0  0  0  0  0
    7.2820   -0.7860   20.6970 N   0  0  0  0  0  0  0  0  0  0  0  0
    8.9170    0.7530   21.0260 O   0  0  0  0  0  0  0  0  0  0  0  0
    7.4144   -0.0402   18.1650 S   0  0  0  0  0  0  0  0  0  0  0  0
   13.8840   -1.8490   21.2740 Cl  0  0  0  0  0  0  0  0  0  0  0  0
    2.3045    0.6633   20.8439 H   0  0  0  0  0  0  0  0  0  0  0  0
    1.8245    1.5068   18.5964 H   0  0  0  0  0  0  0  0  0  0  0  0
   12.2249    1.2198   24.6546 H   0  0  0  0  0  0  0  0  0  0  0  0
    4.5474   -0.2166   21.5064 H   0  0  0  0  0  0  0  0  0  0  0  0
    9.8763    0.5350   24.3454 H   0  0  0  0  0  0  0  0  0  0  0  0
    3.5417    1.5583   16.7776 H   0  0  0  0  0  0  0  0  0  0  0  0
   14.0077    0.1988   23.2842 H   0  0  0  0  0  0  0  0  0  0  0  0
   11.0892   -2.3009   21.3624 H   0  0  0  0  0  0  0  0  0  0  0  0
    8.7775   -2.2383   22.1732 H   0  0  0  0  0  0  0  0  0  0  0  0
    8.2557   -1.0153   23.3257 H   0  0  0  0  0  0  0  0  0  0  0  0
    6.8995   -1.6745   21.0789 H   0  0  0  0  0  0  0  0  0  0  0  0
  1  2  1  0  0  0  0
  1  4  2  0  0  0  0
  2  6  2  0  0  0  0
  3  5  2  0  0  0  0
  3  7  1  0  0  0  0
  4  9  1  0  0  0  0
  5 10  1  0  0  0  0
  6 11  1  0  0  0  0
  7 12  2  0  0  0  0
  8 10  2  0  0  0  0
  8 12  1  0  0  0  0
  9 11  1  0  0  0  0
  9 13  2  0  0  0  0
 10 15  1  0  0  0  0
 11 16  2  0  0  0  0
 12 20  1  0  0  0  0
 13 17  1  0  0  0  0
 13 19  1  0  0  0  0
 14 15  1  0  0  0  0
 14 17  1  0  0  0  0
 14 18  2  0  0  0  0
 16 19  1  0  0  0  0
  1 21  1  0  0  0  0
  2 22  1  0  0  0  0
  3 23  1  0  0  0  0
  4 24  1  0  0  0  0
  5 25  1  0  0  0  0
  6 26  1  0  0  0  0
  7 27  1  0  0  0  0
  8 28  1  0  0  0  0
 15 29  1  0  0  0  0
 15 30  1  0  0  0  0
 17 31  1  0  0  0  0
M  END
> <compound>
PET-UNK-158bee2a-1

> <compound_smiles>
c1ccc2c(c1)c(sn2)NC(=O)Cc3cccc(c3)Cl

> <enantiomer_smiles>
c1ccc2c(c1)c(sn2)NC(=O)Cc3cccc(c3)Cl

> <scaffold>
chlorobenzene-linker

> <clash_score>
0

> <docking_score>
-3.526698589324951

> <overlap_score>
0.8555795550346375

> <MMFF_internal_energy>
81.09531398904713

> <docked_smiles>
c1ccc2c(c1)c(sn2)NC(=O)Cc3cccc(c3)Cl

$$$$
PET-UNK-158bee2a-3_1
  -OEChem-07262101023D

 28 29  0     0  0  0  0  0  0999 V2000
   11.9780    0.4600   23.9150 C   0  0  0  0  0  0  0  0  0  0  0  0
   10.6560    0.0720   23.7350 C   0  0  0  0  0  0  0  0  0  0  0  0
   12.9840   -0.1200   23.1530 C   0  0  0  0  0  0  0  0  0  0  0  0
   11.3360   -1.5050   22.0650 C   0  0  0  0  0  0  0  0  0  0  0  0
    5.1191    0.7543   18.1275 C   0  0  0  0  0  0  0  0  0  0  0  0
   10.3220   -0.8940   22.7910 C   0  0  0  0  0  0  0  0  0  0  0  0
    5.3022    0.2578   19.4497 C   0  0  0  0  0  0  0  0  0  0  0  0
   12.6400   -1.1000   22.2390 C   0  0  0  0  0  0  0  0  0  0  0  0
    6.5908   -0.2043   19.6076 C   0  0  0  0  0  0  0  0  0  0  0  0
    8.3880   -0.3240   21.3070 C   0  0  0  0  0  0  0  0  0  0  0  0
    4.2528    0.2418   20.4932 C   0  0  0  0  0  0  0  0  0  0  0  0
    8.8810   -1.1900   22.4510 C   0  0  0  0  0  0  0  0  0  0  0  0
    6.1636    0.6958   17.3047 N   0  0  0  0  0  0  0  0  0  0  0  0
    7.2820   -0.7860   20.6970 N   0  0  0  0  0  0  0  0  0  0  0  0
    8.9170    0.7530   21.0260 O   0  0  0  0  0  0  0  0  0  0  0  0
    7.4342    0.0170   18.1334 S   0  0  0  0  0  0  0  0  0  0  0  0
   13.8840   -1.8490   21.2740 Cl  0  0  0  0  0  0  0  0  0  0  0  0
   12.2249    1.2198   24.6546 H   0  0  0  0  0  0  0  0  0  0  0  0
    9.8763    0.5350   24.3454 H   0  0  0  0  0  0  0  0  0  0  0  0
   14.0077    0.1988   23.2842 H   0  0  0  0  0  0  0  0  0  0  0  0
   11.0892   -2.3009   21.3624 H   0  0  0  0  0  0  0  0  0  0  0  0
    4.2050    1.1757   17.7313 H   0  0  0  0  0  0  0  0  0  0  0  0
    3.6794   -0.6974   20.4601 H   0  0  0  0  0  0  0  0  0  0  0  0
    4.6786    0.3430   21.5044 H   0  0  0  0  0  0  0  0  0  0  0  0
    3.5428    1.0762   20.3732 H   0  0  0  0  0  0  0  0  0  0  0  0
    8.7709   -2.2387   22.1706 H   0  0  0  0  0  0  0  0  0  0  0  0
    8.2491   -1.0157   23.3232 H   0  0  0  0  0  0  0  0  0  0  0  0
    6.8973   -1.6552   21.0612 H   0  0  0  0  0  0  0  0  0  0  0  0
  1  2  2  0  0  0  0
  1  3  1  0  0  0  0
  2  6  1  0  0  0  0
  3  8  2  0  0  0  0
  4  6  2  0  0  0  0
  4  8  1  0  0  0  0
  5  7  1  0  0  0  0
  5 13  2  0  0  0  0
  6 12  1  0  0  0  0
  7  9  2  0  0  0  0
  7 11  1  0  0  0  0
  8 17  1  0  0  0  0
  9 14  1  0  0  0  0
  9 16  1  0  0  0  0
 10 12  1  0  0  0  0
 10 14  1  0  0  0  0
 10 15  2  0  0  0  0
 13 16  1  0  0  0  0
  1 18  1  0  0  0  0
  2 19  1  0  0  0  0
  3 20  1  0  0  0  0
  4 21  1  0  0  0  0
  5 22  1  0  0  0  0
 11 23  1  0  0  0  0
 11 24  1  0  0  0  0
 11 25  1  0  0  0  0
 12 26  1  0  0  0  0
 12 27  1  0  0  0  0
 14 28  1  0  0  0  0
M  END
> <compound>
PET-UNK-158bee2a-3

> <compound_smiles>
Cc1cnsc1NC(=O)Cc2cccc(c2)Cl

> <enantiomer_smiles>
Cc1cnsc1NC(=O)Cc2cccc(c2)Cl

> <scaffold>
chlorobenzene-linker

> <clash_score>
0

> <docking_score>
-6.460943222045898

> <overlap_score>
0.7967537045478821

> <MMFF_internal_energy>
52.75167573158459

> <docked_smiles>
Cc1cnsc1NC(=O)Cc2cccc(c2)Cl

$$$$
PET-UNK-158bee2a-2_1
  -OEChem-07262101023D

 25 26  0     0  0  0  0  0  0999 V2000
   11.9780    0.4600   23.9150 C   0  0  0  0  0  0  0  0  0  0  0  0
   10.6560    0.0720   23.7350 C   0  0  0  0  0  0  0  0  0  0  0  0
   12.9840   -0.1200   23.1530 C   0  0  0  0  0  0  0  0  0  0  0  0
    6.8034    0.9384   18.8674 C   0  0  0  0  0  0  0  0  0  0  0  0
   11.3360   -1.5050   22.0650 C   0  0  0  0  0  0  0  0  0  0  0  0
    5.7980    1.0673   17.8669 C   0  0  0  0  0  0  0  0  0  0  0  0
   10.3220   -0.8940   22.7910 C   0  0  0  0  0  0  0  0  0  0  0  0
   12.6400   -1.1000   22.2390 C   0  0  0  0  0  0  0  0  0  0  0  0
    6.5908   -0.2043   19.6076 C   0  0  0  0  0  0  0  0  0  0  0  0
    8.3880   -0.3240   21.3070 C   0  0  0  0  0  0  0  0  0  0  0  0
    8.8810   -1.1900   22.4510 C   0  0  0  0  0  0  0  0  0  0  0  0
    4.8684    0.1164   17.8113 N   0  0  0  0  0  0  0  0  0  0  0  0
    7.2820   -0.7860   20.6970 N   0  0  0  0  0  0  0  0  0  0  0  0
    8.9170    0.7530   21.0260 O   0  0  0  0  0  0  0  0  0  0  0  0
    5.1950   -0.9930   19.0048 S   0  0  0  0  0  0  0  0  0  0  0  0
   13.8840   -1.8490   21.2740 Cl  0  0  0  0  0  0  0  0  0  0  0  0
   12.2249    1.2198   24.6546 H   0  0  0  0  0  0  0  0  0  0  0  0
    9.8763    0.5350   24.3454 H   0  0  0  0  0  0  0  0  0  0  0  0
   14.0077    0.1988   23.2842 H   0  0  0  0  0  0  0  0  0  0  0  0
    7.6178    1.6321   19.0290 H   0  0  0  0  0  0  0  0  0  0  0  0
   11.0892   -2.3009   21.3624 H   0  0  0  0  0  0  0  0  0  0  0  0
    5.7254    1.8721   17.1481 H   0  0  0  0  0  0  0  0  0  0  0  0
    8.7709   -2.2387   22.1706 H   0  0  0  0  0  0  0  0  0  0  0  0
    8.2491   -1.0157   23.3232 H   0  0  0  0  0  0  0  0  0  0  0  0
    6.8973   -1.6552   21.0612 H   0  0  0  0  0  0  0  0  0  0  0  0
  1  2  1  0  0  0  0
  1  3  2  0  0  0  0
  2  7  2  0  0  0  0
  3  8  1  0  0  0  0
  4  6  1  0  0  0  0
  4  9  2  0  0  0  0
  5  7  1  0  0  0  0
  5  8  2  0  0  0  0
  6 12  2  0  0  0  0
  7 11  1  0  0  0  0
  8 16  1  0  0  0  0
  9 13  1  0  0  0  0
  9 15  1  0  0  0  0
 10 11  1  0  0  0  0
 10 13  1  0  0  0  0
 10 14  2  0  0  0  0
 12 15  1  0  0  0  0
  1 17  1  0  0  0  0
  2 18  1  0  0  0  0
  3 19  1  0  0  0  0
  4 20  1  0  0  0  0
  5 21  1  0  0  0  0
  6 22  1  0  0  0  0
 11 23  1  0  0  0  0
 11 24  1  0  0  0  0
 13 25  1  0  0  0  0
M  END
> <compound>
PET-UNK-158bee2a-2

> <compound_smiles>
c1cc(cc(c1)Cl)CC(=O)Nc2ccns2

> <enantiomer_smiles>
c1cc(cc(c1)Cl)CC(=O)Nc2ccns2

> <scaffold>
chlorobenzene-linker

> <clash_score>
0

> <docking_score>
-5.470115661621094

> <overlap_score>
0.7209599614143372

> <MMFF_internal_energy>
31.749016052589926

> <docked_smiles>
c1cc(cc(c1)Cl)CC(=O)Nc2ccns2

$$$$
PET-UNK-158bee2a-4_1
  -OEChem-07262101023D

 24 25  0     0  0  0  0  0  0999 V2000
   11.9780    0.4600   23.9150 C   0  0  0  0  0  0  0  0  0  0  0  0
   10.6560    0.0720   23.7350 C   0  0  0  0  0  0  0  0  0  0  0  0
   12.9840   -0.1200   23.1530 C   0  0  0  0  0  0  0  0  0  0  0  0
   11.3360   -1.5050   22.0650 C   0  0  0  0  0  0  0  0  0  0  0  0
    5.7422    1.1478   18.1219 C   0  0  0  0  0  0  0  0  0  0  0  0
   10.3220   -0.8940   22.7910 C   0  0  0  0  0  0  0  0  0  0  0  0
   12.6400   -1.1000   22.2390 C   0  0  0  0  0  0  0  0  0  0  0  0
    6.5418   -0.1622   19.6645 C   0  0  0  0  0  0  0  0  0  0  0  0
    8.3880   -0.3240   21.3070 C   0  0  0  0  0  0  0  0  0  0  0  0
    8.8810   -1.1900   22.4510 C   0  0  0  0  0  0  0  0  0  0  0  0
    6.7452    0.9893   19.0631 N   0  0  0  0  0  0  0  0  0  0  0  0
    4.8012    0.2170   17.9639 N   0  0  0  0  0  0  0  0  0  0  0  0
    7.2820   -0.7860   20.6970 N   0  0  0  0  0  0  0  0  0  0  0  0
    8.9170    0.7530   21.0260 O   0  0  0  0  0  0  0  0  0  0  0  0
    5.1604   -0.9876   19.0686 S   0  0  0  0  0  0  0  0  0  0  0  0
   13.8840   -1.8490   21.2740 Cl  0  0  0  0  0  0  0  0  0  0  0  0
   12.2249    1.2198   24.6546 H   0  0  0  0  0  0  0  0  0  0  0  0
    9.8763    0.5350   24.3454 H   0  0  0  0  0  0  0  0  0  0  0  0
   14.0077    0.1988   23.2842 H   0  0  0  0  0  0  0  0  0  0  0  0
   11.0892   -2.3009   21.3624 H   0  0  0  0  0  0  0  0  0  0  0  0
    5.7101    2.0331   17.5024 H   0  0  0  0  0  0  0  0  0  0  0  0
    8.7709   -2.2387   22.1706 H   0  0  0  0  0  0  0  0  0  0  0  0
    8.2491   -1.0157   23.3232 H   0  0  0  0  0  0  0  0  0  0  0  0
    6.9372   -1.6894   21.0149 H   0  0  0  0  0  0  0  0  0  0  0  0
  1  2  1  0  0  0  0
  1  3  2  0  0  0  0
  2  6  2  0  0  0  0
  3  7  1  0  0  0  0
  4  6  1  0  0  0  0
  4  7  2  0  0  0  0
  5 11  1  0  0  0  0
  5 12  2  0  0  0  0
  6 10  1  0  0  0  0
  7 16  1  0  0  0  0
  8 11  2  0  0  0  0
  8 13  1  0  0  0  0
  8 15  1  0  0  0  0
  9 10  1  0  0  0  0
  9 13  1  0  0  0  0
  9 14  2  0  0  0  0
 12 15  1  0  0  0  0
  1 17  1  0  0  0  0
  2 18  1  0  0  0  0
  3 19  1  0  0  0  0
  4 20  1  0  0  0  0
  5 21  1  0  0  0  0
 10 22  1  0  0  0  0
 10 23  1  0  0  0  0
 13 24  1  0  0  0  0
M  END
> <compound>
PET-UNK-158bee2a-4

> <compound_smiles>
c1cc(cc(c1)Cl)CC(=O)Nc2ncns2

> <enantiomer_smiles>
c1cc(cc(c1)Cl)CC(=O)Nc2ncns2

> <scaffold>
chlorobenzene-linker

> <clash_score>
0

> <docking_score>
-5.246454238891602

> <overlap_score>
0.7247399687767029

> <MMFF_internal_energy>
17.097668677023606

> <docked_smiles>
c1cc(cc(c1)Cl)CC(=O)Nc2ncns2

$$$$
MIC-UNK-7574fcc6-1_1
  -OEChem-07262101023D

 34 36  0     0  0  0  0  0  0999 V2000
   11.9780    0.4600   23.9150 C   0  0  0  0  0  0  0  0  0  0  0  0
   10.6560    0.0720   23.7350 C   0  0  0  0  0  0  0  0  0  0  0  0
   12.9840   -0.1200   23.1530 C   0  0  0  0  0  0  0  0  0  0  0  0
    3.8572    2.1280   18.7605 C   0  0  0  0  0  0  0  0  0  0  0  0
   11.3360   -1.5050   22.0650 C   0  0  0  0  0  0  0  0  0  0  0  0
    4.0639    2.0358   21.1646 C   0  0  0  0  0  0  0  0  0  0  0  0
    5.3678    0.7613   17.3850 C   0  0  0  0  0  0  0  0  0  0  0  0
    6.9605   -0.5917   18.3376 C   0  0  0  0  0  0  0  0  0  0  0  0
    4.9089    1.2065   18.6263 C   0  0  0  0  0  0  0  0  0  0  0  0
    5.5443    0.6950   19.7767 C   0  0  0  0  0  0  0  0  0  0  0  0
   10.3220   -0.8940   22.7910 C   0  0  0  0  0  0  0  0  0  0  0  0
    6.5902   -0.2221   19.6216 C   0  0  0  0  0  0  0  0  0  0  0  0
    3.4388    2.5388   20.0259 C   0  0  0  0  0  0  0  0  0  0  0  0
    5.1101    1.1197   21.0430 C   0  0  0  0  0  0  0  0  0  0  0  0
   12.6400   -1.1000   22.2390 C   0  0  0  0  0  0  0  0  0  0  0  0
    8.3880   -0.3240   21.3070 C   0  0  0  0  0  0  0  0  0  0  0  0
    8.8810   -1.1900   22.4510 C   0  0  0  0  0  0  0  0  0  0  0  0
    6.3760   -0.1234   17.2143 N   0  0  0  0  0  0  0  0  0  0  0  0
    7.2820   -0.7860   20.6970 N   0  0  0  0  0  0  0  0  0  0  0  0
    8.9170    0.7530   21.0260 O   0  0  0  0  0  0  0  0  0  0  0  0
    2.4357    3.4182   20.1460 F   0  0  0  0  0  0  0  0  0  0  0  0
    5.6787    0.6646   22.1698 F   0  0  0  0  0  0  0  0  0  0  0  0
   13.8840   -1.8490   21.2740 Cl  0  0  0  0  0  0  0  0  0  0  0  0
   12.2249    1.2198   24.6546 H   0  0  0  0  0  0  0  0  0  0  0  0
    9.8763    0.5350   24.3454 H   0  0  0  0  0  0  0  0  0  0  0  0
   14.0077    0.1988   23.2842 H   0  0  0  0  0  0  0  0  0  0  0  0
    3.3575    2.5306   17.8824 H   0  0  0  0  0  0  0  0  0  0  0  0
   11.0892   -2.3009   21.3624 H   0  0  0  0  0  0  0  0  0  0  0  0
    3.7368    2.3569   22.1491 H   0  0  0  0  0  0  0  0  0  0  0  0
    4.9218    1.1150   16.4592 H   0  0  0  0  0  0  0  0  0  0  0  0
    7.7658   -1.2996   18.1632 H   0  0  0  0  0  0  0  0  0  0  0  0
    8.7774   -2.2383   22.1732 H   0  0  0  0  0  0  0  0  0  0  0  0
    8.2557   -1.0153   23.3257 H   0  0  0  0  0  0  0  0  0  0  0  0
    6.8981   -1.6619   21.0675 H   0  0  0  0  0  0  0  0  0  0  0  0
  1  2  1  0  0  0  0
  1  3  2  0  0  0  0
  2 11  2  0  0  0  0
  3 15  1  0  0  0  0
  4  9  1  0  0  0  0
  4 13  2  0  0  0  0
  5 11  1  0  0  0  0
  5 15  2  0  0  0  0
  6 13  1  0  0  0  0
  6 14  2  0  0  0  0
  7  9  2  0  0  0  0
  7 18  1  0  0  0  0
  8 12  1  0  0  0  0
  8 18  2  0  0  0  0
  9 10  1  0  0  0  0
 10 12  2  0  0  0  0
 10 14  1  0  0  0  0
 11 17  1  0  0  0  0
 12 19  1  0  0  0  0
 13 21  1  0  0  0  0
 14 22  1  0  0  0  0
 15 23  1  0  0  0  0
 16 17  1  0  0  0  0
 16 19  1  0  0  0  0
 16 20  2  0  0  0  0
  1 24  1  0  0  0  0
  2 25  1  0  0  0  0
  3 26  1  0  0  0  0
  4 27  1  0  0  0  0
  5 28  1  0  0  0  0
  6 29  1  0  0  0  0
  7 30  1  0  0  0  0
  8 31  1  0  0  0  0
 17 32  1  0  0  0  0
 17 33  1  0  0  0  0
 19 34  1  0  0  0  0
M  END
> <compound>
MIC-UNK-7574fcc6-1

> <compound_smiles>
c1cc(cc(c1)Cl)CC(=O)Nc2cncc3c2c(cc(c3)F)F

> <enantiomer_smiles>
c1cc(cc(c1)Cl)CC(=O)Nc2cncc3c2c(cc(c3)F)F

> <scaffold>
chlorobenzene-linker

> <clash_score>
0

> <docking_score>
-11.33585262298584

> <overlap_score>
1.013577938079834

> <MMFF_internal_energy>
82.6996894492196

> <docked_smiles>
c1cc(cc(c1)Cl)CC(=O)Nc2cncc3c2c(cc(c3)F)F

$$$$
ALP-POS-a9ad2217-2_2
  -OEChem-07262101023D

 66 70  0     1  0  0  0  0  0999 V2000
    2.4462   -0.6171   18.9968 C   0  0  0  0  0  0  0  0  0  0  0  0
    3.0435   -1.2247   20.0988 C   0  0  0  0  0  0  0  0  0  0  0  0
   11.9780    0.4600   23.9150 C   0  0  0  0  0  0  0  0  0  0  0  0
    3.2197    0.1230   18.1029 C   0  0  0  0  0  0  0  0  0  0  0  0
    4.4170   -1.0949   20.3118 C   0  0  0  0  0  0  0  0  0  0  0  0
   10.6560    0.0720   23.7350 C   0  0  0  0  0  0  0  0  0  0  0  0
   12.9840   -0.1200   23.1530 C   0  0  0  0  0  0  0  0  0  0  0  0
   11.3360   -1.5050   22.0650 C   0  0  0  0  0  0  0  0  0  0  0  0
    5.4239    0.9890   17.4448 C   0  0  0  0  0  0  0  0  0  0  0  0
    7.3052    0.5430   18.6845 C   0  0  0  0  0  0  0  0  0  0  0  0
    4.6027    0.2602   18.3073 C   0  0  0  0  0  0  0  0  0  0  0  0
    5.2111   -0.3534   19.4218 C   0  0  0  0  0  0  0  0  0  0  0  0
   10.3220   -0.8940   22.7910 C   0  0  0  0  0  0  0  0  0  0  0  0
    6.5904   -0.2048   19.6077 C   0  0  0  0  0  0  0  0  0  0  0  0
   12.6400   -1.1000   22.2390 C   0  0  0  0  0  0  0  0  0  0  0  0
    7.1862   -4.9469   27.0767 C   0  0  0  0  0  0  0  0  0  0  0  0
    7.7559   -1.9922   24.5394 C   0  0  0  0  0  0  0  0  0  0  0  0
    8.3880   -0.3240   21.3070 C   0  0  0  0  0  0  0  0  0  0  0  0
    4.6903   -7.1475   28.6417 C   0  0  0  0  0  0  0  0  0  0  0  0
    5.3311   -8.1022   27.6422 C   0  0  0  0  0  0  0  0  0  0  0  0
    6.7173   -4.9654   24.6165 C   0  0  0  0  0  0  0  0  0  0  0  0
    7.4560   -4.2458   23.5132 C   0  0  0  0  0  0  0  0  0  0  0  0
    5.7274   -6.0421   28.7658 C   0  0  0  0  0  0  0  0  0  0  0  0
    6.0107   -7.1604   26.6581 C   0  0  0  0  0  0  0  0  0  0  0  0
    7.7659   -5.0517   25.7062 C   0  0  1  0  0  0  0  0  0  0  0  0
    8.3847   -3.3238   24.2762 C   0  0  2  0  0  0  0  0  0  0  0  0
    7.4809    0.3650   23.7558 C   0  0  0  0  0  0  0  0  0  0  0  0
    8.8810   -1.1900   22.4510 C   0  0  2  0  0  0  0  0  0  0  0  0
    6.7573    1.1443   17.6071 N   0  0  0  0  0  0  0  0  0  0  0  0
    6.3646   -5.9920   27.4581 N   0  0  0  0  0  0  0  0  0  0  0  0
    7.2820   -0.7860   20.6970 N   0  0  0  0  0  0  0  0  0  0  0  0
    8.0284   -0.9787   23.6199 N   0  0  0  0  0  0  0  0  0  0  0  0
    7.4500   -3.9804   27.7937 O   0  0  0  0  0  0  0  0  0  0  0  0
    7.0403   -1.8507   25.5346 O   0  0  0  0  0  0  0  0  0  0  0  0
    8.9170    0.7530   21.0260 O   0  0  0  0  0  0  0  0  0  0  0  0
    8.6313   -3.9223   25.5491 O   0  0  0  0  0  0  0  0  0  0  0  0
   13.8840   -1.8490   21.2740 Cl  0  0  0  0  0  0  0  0  0  0  0  0
    1.3775   -0.7199   18.8335 H   0  0  0  0  0  0  0  0  0  0  0  0
    2.4393   -1.8009   20.7937 H   0  0  0  0  0  0  0  0  0  0  0  0
   12.2249    1.2198   24.6546 H   0  0  0  0  0  0  0  0  0  0  0  0
    2.7372    0.5907   17.2477 H   0  0  0  0  0  0  0  0  0  0  0  0
    4.8464   -1.5833   21.1836 H   0  0  0  0  0  0  0  0  0  0  0  0
    9.8763    0.5350   24.3454 H   0  0  0  0  0  0  0  0  0  0  0  0
   14.0077    0.1988   23.2842 H   0  0  0  0  0  0  0  0  0  0  0  0
   11.0892   -2.3008   21.3624 H   0  0  0  0  0  0  0  0  0  0  0  0
    5.0196    1.4865   16.5675 H   0  0  0  0  0  0  0  0  0  0  0  0
    8.3773    0.6873   18.7839 H   0  0  0  0  0  0  0  0  0  0  0  0
    3.7543   -6.7468   28.2353 H   0  0  0  0  0  0  0  0  0  0  0  0
    4.4756   -7.6300   29.5993 H   0  0  0  0  0  0  0  0  0  0  0  0
    6.0773   -8.7295   28.1440 H   0  0  0  0  0  0  0  0  0  0  0  0
    4.5973   -8.7534   27.1593 H   0  0  0  0  0  0  0  0  0  0  0  0
    5.8452   -4.3780   24.9322 H   0  0  0  0  0  0  0  0  0  0  0  0
    6.3505   -5.9520   24.3133 H   0  0  0  0  0  0  0  0  0  0  0  0
    8.0472   -4.9718   22.9420 H   0  0  0  0  0  0  0  0  0  0  0  0
    6.7873   -3.7303   22.8176 H   0  0  0  0  0  0  0  0  0  0  0  0
    5.2939   -5.0721   29.0267 H   0  0  0  0  0  0  0  0  0  0  0  0
    6.4987   -6.2940   29.5021 H   0  0  0  0  0  0  0  0  0  0  0  0
    6.8952   -7.6037   26.1930 H   0  0  0  0  0  0  0  0  0  0  0  0
    5.3187   -6.8328   25.8748 H   0  0  0  0  0  0  0  0  0  0  0  0
    8.3655   -5.9632   25.6343 H   0  0  0  0  0  0  0  0  0  0  0  0
    9.3304   -3.1610   23.7517 H   0  0  0  0  0  0  0  0  0  0  0  0
    8.1717    0.9850   24.3460 H   0  0  0  0  0  0  0  0  0  0  0  0
    7.3499    0.8101   22.7584 H   0  0  0  0  0  0  0  0  0  0  0  0
    6.5074    0.3143   24.2655 H   0  0  0  0  0  0  0  0  0  0  0  0
    8.7711   -2.2448   22.1651 H   0  0  0  0  0  0  0  0  0  0  0  0
    6.8975   -1.6551   21.0614 H   0  0  0  0  0  0  0  0  0  0  0  0
  1  2  1  0  0  0  0
  1  4  2  0  0  0  0
  2  5  2  0  0  0  0
  3  6  2  0  0  0  0
  3  7  1  0  0  0  0
  4 11  1  0  0  0  0
  5 12  1  0  0  0  0
  6 13  1  0  0  0  0
  7 15  2  0  0  0  0
  8 13  2  0  0  0  0
  8 15  1  0  0  0  0
  9 11  2  0  0  0  0
  9 29  1  0  0  0  0
 10 14  1  0  0  0  0
 10 29  2  0  0  0  0
 11 12  1  0  0  0  0
 12 14  2  0  0  0  0
 13 28  1  0  0  0  0
 14 31  1  0  0  0  0
 15 37  1  0  0  0  0
 16 25  1  0  0  0  0
 16 30  1  0  0  0  0
 16 33  2  0  0  0  0
 17 26  1  0  0  0  0
 17 32  1  0  0  0  0
 17 34  2  0  0  0  0
 18 28  1  6  0  0  0
 18 31  1  0  0  0  0
 18 35  2  0  0  0  0
 19 20  1  0  0  0  0
 19 23  1  0  0  0  0
 20 24  1  0  0  0  0
 21 22  1  0  0  0  0
 21 25  1  0  0  0  0
 22 26  1  0  0  0  0
 23 30  1  0  0  0  0
 24 30  1  0  0  0  0
 25 36  1  0  0  0  0
 26 36  1  0  0  0  0
 27 32  1  0  0  0  0
 28 32  1  0  0  0  0
  1 38  1  0  0  0  0
  2 39  1  0  0  0  0
  3 40  1  0  0  0  0
  4 41  1  0  0  0  0
  5 42  1  0  0  0  0
  6 43  1  0  0  0  0
  7 44  1  0  0  0  0
  8 45  1  0  0  0  0
  9 46  1  0  0  0  0
 10 47  1  0  0  0  0
 19 48  1  0  0  0  0
 19 49  1  0  0  0  0
 20 50  1  0  0  0  0
 20 51  1  0  0  0  0
 21 52  1  0  0  0  0
 21 53  1  0  0  0  0
 22 54  1  0  0  0  0
 22 55  1  0  0  0  0
 23 56  1  0  0  0  0
 23 57  1  0  0  0  0
 24 58  1  0  0  0  0
 24 59  1  0  0  0  0
 25 60  1  0  0  0  0
 26 61  1  0  0  0  0
 27 62  1  0  0  0  0
 27 63  1  0  0  0  0
 27 64  1  0  0  0  0
 28 65  1  0  0  0  0
 31 66  1  0  0  0  0
M  END
> <compound>
ALP-POS-a9ad2217-2

> <compound_smiles>
CN(C(c1cccc(c1)Cl)C(=O)Nc2cncc3c2cccc3)C(=O)[C@@H]4CC[C@@H](O4)C(=O)N5CCCC5

> <enantiomer_smiles>
CN([C@H](c1cccc(c1)Cl)C(=O)Nc2cncc3c2cccc3)C(=O)[C@@H]4CC[C@@H](O4)C(=O)N5CCCC5

> <scaffold>
chlorobenzene-linker

> <clash_score>
7.591275391847652

> <docking_score>
-1.745819091796875

> <overlap_score>
0.7716140747070312

> <MMFF_internal_energy>
198.21571147235727

> <docked_smiles>
CN([C@H](c1cccc(c1)Cl)C(=O)Nc2cncc3c2cccc3)C(=O)[C@@H]4CC[C@@H](O4)C(=O)N5CCCC5

$$$$
ALP-POS-a9ad2217-2_1
  -OEChem-07262101023D

 66 70  0     1  0  0  0  0  0999 V2000
    2.5650    1.0119   19.7905 C   0  0  0  0  0  0  0  0  0  0  0  0
    3.1657    0.4486   20.9139 C   0  0  0  0  0  0  0  0  0  0  0  0
   11.9780    0.4600   23.9150 C   0  0  0  0  0  0  0  0  0  0  0  0
    3.2959    1.1705   18.6133 C   0  0  0  0  0  0  0  0  0  0  0  0
    4.5001    0.0414   20.8653 C   0  0  0  0  0  0  0  0  0  0  0  0
   10.6560    0.0720   23.7350 C   0  0  0  0  0  0  0  0  0  0  0  0
   12.9840   -0.1200   23.1530 C   0  0  0  0  0  0  0  0  0  0  0  0
   11.3360   -1.5050   22.0650 C   0  0  0  0  0  0  0  0  0  0  0  0
    5.4171    0.8995   17.4014 C   0  0  0  0  0  0  0  0  0  0  0  0
    7.2639   -0.0211   18.4097 C   0  0  0  0  0  0  0  0  0  0  0  0
    4.6393    0.7642   18.5530 C   0  0  0  0  0  0  0  0  0  0  0  0
    5.2510    0.1935   19.6882 C   0  0  0  0  0  0  0  0  0  0  0  0
   10.3220   -0.8940   22.7910 C   0  0  0  0  0  0  0  0  0  0  0  0
    6.5904   -0.2048   19.6077 C   0  0  0  0  0  0  0  0  0  0  0  0
   12.6400   -1.1000   22.2390 C   0  0  0  0  0  0  0  0  0  0  0  0
    6.1391   -5.5277   25.5751 C   0  0  0  0  0  0  0  0  0  0  0  0
    8.4337   -3.5818   23.0372 C   0  0  0  0  0  0  0  0  0  0  0  0
    8.3880   -0.3240   21.3070 C   0  0  0  0  0  0  0  0  0  0  0  0
    3.2441   -5.2866   27.8294 C   0  0  0  0  0  0  0  0  0  0  0  0
    2.6376   -6.0537   26.6611 C   0  0  0  0  0  0  0  0  0  0  0  0
    5.4423   -4.5008   23.3996 C   0  0  0  0  0  0  0  0  0  0  0  0
    6.2443   -4.3574   22.1280 C   0  0  0  0  0  0  0  0  0  0  0  0
    4.7378   -5.4900   27.6282 C   0  0  0  0  0  0  0  0  0  0  0  0
    3.6102   -5.7703   25.5250 C   0  0  0  0  0  0  0  0  0  0  0  0
    6.1321   -5.6598   24.0892 C   0  0  1  0  0  0  0  0  0  0  0  0
    7.6391   -4.7573   22.5634 C   0  0  2  0  0  0  0  0  0  0  0  0
    8.8778   -2.9011   20.6738 C   0  0  0  0  0  0  0  0  0  0  0  0
    8.8810   -1.1900   22.4510 C   0  0  1  0  0  0  0  0  0  0  0  0
    6.7116    0.5212   17.3036 N   0  0  0  0  0  0  0  0  0  0  0  0
    4.9000   -5.5951   26.1855 N   0  0  0  0  0  0  0  0  0  0  0  0
    7.2820   -0.7860   20.6970 N   0  0  0  0  0  0  0  0  0  0  0  0
    8.7204   -2.5977   22.0905 N   0  0  0  0  0  0  0  0  0  0  0  0
    7.1998   -5.3755   26.1831 O   0  0  0  0  0  0  0  0  0  0  0  0
    8.7929   -3.5341   24.2167 O   0  0  0  0  0  0  0  0  0  0  0  0
    8.9170    0.7530   21.0260 O   0  0  0  0  0  0  0  0  0  0  0  0
    7.5030   -5.6395   23.6780 O   0  0  0  0  0  0  0  0  0  0  0  0
   13.8840   -1.8490   21.2740 Cl  0  0  0  0  0  0  0  0  0  0  0  0
    1.5267    1.3276   19.8311 H   0  0  0  0  0  0  0  0  0  0  0  0
    2.5946    0.3257   21.8297 H   0  0  0  0  0  0  0  0  0  0  0  0
   12.2249    1.2198   24.6546 H   0  0  0  0  0  0  0  0  0  0  0  0
    2.8114    1.6119   17.7455 H   0  0  0  0  0  0  0  0  0  0  0  0
    4.9338   -0.3933   21.7630 H   0  0  0  0  0  0  0  0  0  0  0  0
    9.8763    0.5350   24.3454 H   0  0  0  0  0  0  0  0  0  0  0  0
   14.0077    0.1988   23.2842 H   0  0  0  0  0  0  0  0  0  0  0  0
   11.0892   -2.3009   21.3624 H   0  0  0  0  0  0  0  0  0  0  0  0
    5.0078    1.3308   16.4920 H   0  0  0  0  0  0  0  0  0  0  0  0
    8.3038   -0.3142   18.2963 H   0  0  0  0  0  0  0  0  0  0  0  0
    2.9918   -4.2223   27.7546 H   0  0  0  0  0  0  0  0  0  0  0  0
    2.8971   -5.6593   28.7971 H   0  0  0  0  0  0  0  0  0  0  0  0
    2.6170   -7.1270   26.8841 H   0  0  0  0  0  0  0  0  0  0  0  0
    1.6197   -5.7265   26.4318 H   0  0  0  0  0  0  0  0  0  0  0  0
    5.5030   -3.5774   23.9901 H   0  0  0  0  0  0  0  0  0  0  0  0
    4.3807   -4.6984   23.2160 H   0  0  0  0  0  0  0  0  0  0  0  0
    5.8725   -5.0730   21.3847 H   0  0  0  0  0  0  0  0  0  0  0  0
    6.1820   -3.3548   21.6949 H   0  0  0  0  0  0  0  0  0  0  0  0
    5.3420   -4.6716   28.0308 H   0  0  0  0  0  0  0  0  0  0  0  0
    5.0793   -6.4323   28.0708 H   0  0  0  0  0  0  0  0  0  0  0  0
    3.6486   -6.5800   24.7914 H   0  0  0  0  0  0  0  0  0  0  0  0
    3.3659   -4.8331   25.0135 H   0  0  0  0  0  0  0  0  0  0  0  0
    5.6991   -6.6249   23.8125 H   0  0  0  0  0  0  0  0  0  0  0  0
    8.1975   -5.2513   21.7634 H   0  0  0  0  0  0  0  0  0  0  0  0
    7.9027   -2.8224   20.1709 H   0  0  0  0  0  0  0  0  0  0  0  0
    9.5820   -2.1870   20.2220 H   0  0  0  0  0  0  0  0  0  0  0  0
    9.2680   -3.9232   20.5591 H   0  0  0  0  0  0  0  0  0  0  0  0
    8.2436   -1.0112   23.3272 H   0  0  0  0  0  0  0  0  0  0  0  0
    6.8975   -1.6551   21.0614 H   0  0  0  0  0  0  0  0  0  0  0  0
  1  2  1  0  0  0  0
  1  4  2  0  0  0  0
  2  5  2  0  0  0  0
  3  6  2  0  0  0  0
  3  7  1  0  0  0  0
  4 11  1  0  0  0  0
  5 12  1  0  0  0  0
  6 13  1  0  0  0  0
  7 15  2  0  0  0  0
  8 13  2  0  0  0  0
  8 15  1  0  0  0  0
  9 11  2  0  0  0  0
  9 29  1  0  0  0  0
 10 14  1  0  0  0  0
 10 29  2  0  0  0  0
 11 12  1  0  0  0  0
 12 14  2  0  0  0  0
 13 28  1  0  0  0  0
 14 31  1  0  0  0  0
 15 37  1  0  0  0  0
 16 25  1  0  0  0  0
 16 30  1  0  0  0  0
 16 33  2  0  0  0  0
 17 26  1  0  0  0  0
 17 32  1  0  0  0  0
 17 34  2  0  0  0  0
 18 28  1  1  0  0  0
 18 31  1  0  0  0  0
 18 35  2  0  0  0  0
 19 20  1  0  0  0  0
 19 23  1  0  0  0  0
 20 24  1  0  0  0  0
 21 22  1  0  0  0  0
 21 25  1  0  0  0  0
 22 26  1  0  0  0  0
 23 30  1  0  0  0  0
 24 30  1  0  0  0  0
 25 36  1  0  0  0  0
 26 36  1  0  0  0  0
 27 32  1  0  0  0  0
 28 32  1  0  0  0  0
  1 38  1  0  0  0  0
  2 39  1  0  0  0  0
  3 40  1  0  0  0  0
  4 41  1  0  0  0  0
  5 42  1  0  0  0  0
  6 43  1  0  0  0  0
  7 44  1  0  0  0  0
  8 45  1  0  0  0  0
  9 46  1  0  0  0  0
 10 47  1  0  0  0  0
 19 48  1  0  0  0  0
 19 49  1  0  0  0  0
 20 50  1  0  0  0  0
 20 51  1  0  0  0  0
 21 52  1  0  0  0  0
 21 53  1  0  0  0  0
 22 54  1  0  0  0  0
 22 55  1  0  0  0  0
 23 56  1  0  0  0  0
 23 57  1  0  0  0  0
 24 58  1  0  0  0  0
 24 59  1  0  0  0  0
 25 60  1  0  0  0  0
 26 61  1  0  0  0  0
 27 62  1  0  0  0  0
 27 63  1  0  0  0  0
 27 64  1  0  0  0  0
 28 65  1  0  0  0  0
 31 66  1  0  0  0  0
M  END
> <compound>
ALP-POS-a9ad2217-2

> <compound_smiles>
CN(C(c1cccc(c1)Cl)C(=O)Nc2cncc3c2cccc3)C(=O)[C@@H]4CC[C@@H](O4)C(=O)N5CCCC5

> <enantiomer_smiles>
CN([C@@H](c1cccc(c1)Cl)C(=O)Nc2cncc3c2cccc3)C(=O)[C@@H]4CC[C@@H](O4)C(=O)N5CCCC5

> <scaffold>
chlorobenzene-linker

> <clash_score>
0.6117699453798908

> <docking_score>
-3.340082883834839

> <overlap_score>
0.8836489915847778

> <MMFF_internal_energy>
213.4727944289323

> <docked_smiles>
CN([C@@H](c1cccc(c1)Cl)C(=O)Nc2cncc3c2cccc3)C(=O)[C@@H]4CC[C@@H](O4)C(=O)N5CCCC5

$$$$
PET-UNK-10339a1d-1_1
  -OEChem-07262101023D

 66 70  0     1  0  0  0  0  0999 V2000
    2.5650    1.0119   19.7905 C   0  0  0  0  0  0  0  0  0  0  0  0
    3.1657    0.4486   20.9139 C   0  0  0  0  0  0  0  0  0  0  0  0
   11.9780    0.4600   23.9150 C   0  0  0  0  0  0  0  0  0  0  0  0
    3.2959    1.1705   18.6133 C   0  0  0  0  0  0  0  0  0  0  0  0
    4.5001    0.0414   20.8653 C   0  0  0  0  0  0  0  0  0  0  0  0
   10.6560    0.0720   23.7350 C   0  0  0  0  0  0  0  0  0  0  0  0
   12.9840   -0.1200   23.1530 C   0  0  0  0  0  0  0  0  0  0  0  0
   11.3360   -1.5050   22.0650 C   0  0  0  0  0  0  0  0  0  0  0  0
    5.4171    0.8995   17.4014 C   0  0  0  0  0  0  0  0  0  0  0  0
    7.2639   -0.0211   18.4097 C   0  0  0  0  0  0  0  0  0  0  0  0
    4.6393    0.7642   18.5530 C   0  0  0  0  0  0  0  0  0  0  0  0
    5.2510    0.1935   19.6882 C   0  0  0  0  0  0  0  0  0  0  0  0
   10.3220   -0.8940   22.7910 C   0  0  0  0  0  0  0  0  0  0  0  0
    6.5904   -0.2048   19.6077 C   0  0  0  0  0  0  0  0  0  0  0  0
   12.6400   -1.1000   22.2390 C   0  0  0  0  0  0  0  0  0  0  0  0
    6.1391   -5.5277   25.5751 C   0  0  0  0  0  0  0  0  0  0  0  0
    8.4337   -3.5818   23.0372 C   0  0  0  0  0  0  0  0  0  0  0  0
    8.3880   -0.3240   21.3070 C   0  0  0  0  0  0  0  0  0  0  0  0
    3.2441   -5.2866   27.8294 C   0  0  0  0  0  0  0  0  0  0  0  0
    2.6376   -6.0537   26.6611 C   0  0  0  0  0  0  0  0  0  0  0  0
    5.4423   -4.5008   23.3996 C   0  0  0  0  0  0  0  0  0  0  0  0
    6.2443   -4.3574   22.1280 C   0  0  0  0  0  0  0  0  0  0  0  0
    4.7378   -5.4900   27.6282 C   0  0  0  0  0  0  0  0  0  0  0  0
    3.6102   -5.7703   25.5250 C   0  0  0  0  0  0  0  0  0  0  0  0
    6.1321   -5.6598   24.0892 C   0  0  1  0  0  0  0  0  0  0  0  0
    7.6391   -4.7573   22.5634 C   0  0  2  0  0  0  0  0  0  0  0  0
    8.8778   -2.9011   20.6738 C   0  0  0  0  0  0  0  0  0  0  0  0
    8.8810   -1.1900   22.4510 C   0  0  1  0  0  0  0  0  0  0  0  0
    6.7116    0.5212   17.3036 N   0  0  0  0  0  0  0  0  0  0  0  0
    4.9000   -5.5951   26.1855 N   0  0  0  0  0  0  0  0  0  0  0  0
    7.2820   -0.7860   20.6970 N   0  0  0  0  0  0  0  0  0  0  0  0
    8.7204   -2.5977   22.0905 N   0  0  0  0  0  0  0  0  0  0  0  0
    7.1998   -5.3755   26.1831 O   0  0  0  0  0  0  0  0  0  0  0  0
    8.7929   -3.5341   24.2167 O   0  0  0  0  0  0  0  0  0  0  0  0
    8.9170    0.7530   21.0260 O   0  0  0  0  0  0  0  0  0  0  0  0
    7.5030   -5.6395   23.6780 O   0  0  0  0  0  0  0  0  0  0  0  0
   13.8840   -1.8490   21.2740 Cl  0  0  0  0  0  0  0  0  0  0  0  0
    1.5267    1.3276   19.8311 H   0  0  0  0  0  0  0  0  0  0  0  0
    2.5946    0.3257   21.8297 H   0  0  0  0  0  0  0  0  0  0  0  0
   12.2249    1.2198   24.6546 H   0  0  0  0  0  0  0  0  0  0  0  0
    2.8114    1.6119   17.7455 H   0  0  0  0  0  0  0  0  0  0  0  0
    4.9338   -0.3933   21.7630 H   0  0  0  0  0  0  0  0  0  0  0  0
    9.8763    0.5350   24.3454 H   0  0  0  0  0  0  0  0  0  0  0  0
   14.0077    0.1988   23.2842 H   0  0  0  0  0  0  0  0  0  0  0  0
   11.0892   -2.3009   21.3624 H   0  0  0  0  0  0  0  0  0  0  0  0
    5.0078    1.3308   16.4920 H   0  0  0  0  0  0  0  0  0  0  0  0
    8.3038   -0.3142   18.2963 H   0  0  0  0  0  0  0  0  0  0  0  0
    2.9918   -4.2223   27.7546 H   0  0  0  0  0  0  0  0  0  0  0  0
    2.8971   -5.6593   28.7971 H   0  0  0  0  0  0  0  0  0  0  0  0
    2.6170   -7.1270   26.8841 H   0  0  0  0  0  0  0  0  0  0  0  0
    1.6197   -5.7265   26.4318 H   0  0  0  0  0  0  0  0  0  0  0  0
    5.5030   -3.5774   23.9901 H   0  0  0  0  0  0  0  0  0  0  0  0
    4.3807   -4.6984   23.2160 H   0  0  0  0  0  0  0  0  0  0  0  0
    5.8725   -5.0730   21.3847 H   0  0  0  0  0  0  0  0  0  0  0  0
    6.1820   -3.3548   21.6949 H   0  0  0  0  0  0  0  0  0  0  0  0
    5.3420   -4.6716   28.0308 H   0  0  0  0  0  0  0  0  0  0  0  0
    5.0793   -6.4323   28.0708 H   0  0  0  0  0  0  0  0  0  0  0  0
    3.6486   -6.5800   24.7914 H   0  0  0  0  0  0  0  0  0  0  0  0
    3.3659   -4.8331   25.0135 H   0  0  0  0  0  0  0  0  0  0  0  0
    5.6991   -6.6249   23.8125 H   0  0  0  0  0  0  0  0  0  0  0  0
    8.1975   -5.2513   21.7634 H   0  0  0  0  0  0  0  0  0  0  0  0
    7.9027   -2.8224   20.1709 H   0  0  0  0  0  0  0  0  0  0  0  0
    9.5820   -2.1870   20.2220 H   0  0  0  0  0  0  0  0  0  0  0  0
    9.2680   -3.9232   20.5591 H   0  0  0  0  0  0  0  0  0  0  0  0
    8.2436   -1.0112   23.3272 H   0  0  0  0  0  0  0  0  0  0  0  0
    6.8975   -1.6551   21.0614 H   0  0  0  0  0  0  0  0  0  0  0  0
  1  2  1  0  0  0  0
  1  4  2  0  0  0  0
  2  5  2  0  0  0  0
  3  6  2  0  0  0  0
  3  7  1  0  0  0  0
  4 11  1  0  0  0  0
  5 12  1  0  0  0  0
  6 13  1  0  0  0  0
  7 15  2  0  0  0  0
  8 13  2  0  0  0  0
  8 15  1  0  0  0  0
  9 11  2  0  0  0  0
  9 29  1  0  0  0  0
 10 14  1  0  0  0  0
 10 29  2  0  0  0  0
 11 12  1  0  0  0  0
 12 14  2  0  0  0  0
 13 28  1  0  0  0  0
 14 31  1  0  0  0  0
 15 37  1  0  0  0  0
 16 25  1  0  0  0  0
 16 30  1  0  0  0  0
 16 33  2  0  0  0  0
 17 26  1  0  0  0  0
 17 32  1  0  0  0  0
 17 34  2  0  0  0  0
 18 28  1  1  0  0  0
 18 31  1  0  0  0  0
 18 35  2  0  0  0  0
 19 20  1  0  0  0  0
 19 23  1  0  0  0  0
 20 24  1  0  0  0  0
 21 22  1  0  0  0  0
 21 25  1  0  0  0  0
 22 26  1  0  0  0  0
 23 30  1  0  0  0  0
 24 30  1  0  0  0  0
 25 36  1  0  0  0  0
 26 36  1  0  0  0  0
 27 32  1  0  0  0  0
 28 32  1  0  0  0  0
  1 38  1  0  0  0  0
  2 39  1  0  0  0  0
  3 40  1  0  0  0  0
  4 41  1  0  0  0  0
  5 42  1  0  0  0  0
  6 43  1  0  0  0  0
  7 44  1  0  0  0  0
  8 45  1  0  0  0  0
  9 46  1  0  0  0  0
 10 47  1  0  0  0  0
 19 48  1  0  0  0  0
 19 49  1  0  0  0  0
 20 50  1  0  0  0  0
 20 51  1  0  0  0  0
 21 52  1  0  0  0  0
 21 53  1  0  0  0  0
 22 54  1  0  0  0  0
 22 55  1  0  0  0  0
 23 56  1  0  0  0  0
 23 57  1  0  0  0  0
 24 58  1  0  0  0  0
 24 59  1  0  0  0  0
 25 60  1  0  0  0  0
 26 61  1  0  0  0  0
 27 62  1  0  0  0  0
 27 63  1  0  0  0  0
 27 64  1  0  0  0  0
 28 65  1  0  0  0  0
 31 66  1  0  0  0  0
M  END
> <compound>
PET-UNK-10339a1d-1

> <compound_smiles>
CN(C(c1cccc(c1)Cl)C(=O)Nc2cncc3c2cccc3)C(=O)[C@@H]4CC[C@@H](O4)C(=O)N5CCCC5

> <enantiomer_smiles>
CN([C@@H](c1cccc(c1)Cl)C(=O)Nc2cncc3c2cccc3)C(=O)[C@@H]4CC[C@@H](O4)C(=O)N5CCCC5

> <scaffold>
chlorobenzene-linker

> <clash_score>
0.6117699453798908

> <docking_score>
-3.340082883834839

> <overlap_score>
0.8836489915847778

> <MMFF_internal_energy>
213.4727944289323

> <docked_smiles>
CN([C@@H](c1cccc(c1)Cl)C(=O)Nc2cncc3c2cccc3)C(=O)[C@@H]4CC[C@@H](O4)C(=O)N5CCCC5

$$$$
PET-UNK-10339a1d-1_2
  -OEChem-07262101023D

 66 70  0     1  0  0  0  0  0999 V2000
    2.4462   -0.6171   18.9968 C   0  0  0  0  0  0  0  0  0  0  0  0
    3.0435   -1.2247   20.0988 C   0  0  0  0  0  0  0  0  0  0  0  0
   11.9780    0.4600   23.9150 C   0  0  0  0  0  0  0  0  0  0  0  0
    3.2197    0.1230   18.1029 C   0  0  0  0  0  0  0  0  0  0  0  0
    4.4170   -1.0949   20.3118 C   0  0  0  0  0  0  0  0  0  0  0  0
   10.6560    0.0720   23.7350 C   0  0  0  0  0  0  0  0  0  0  0  0
   12.9840   -0.1200   23.1530 C   0  0  0  0  0  0  0  0  0  0  0  0
   11.3360   -1.5050   22.0650 C   0  0  0  0  0  0  0  0  0  0  0  0
    5.4239    0.9890   17.4448 C   0  0  0  0  0  0  0  0  0  0  0  0
    7.3052    0.5430   18.6845 C   0  0  0  0  0  0  0  0  0  0  0  0
    4.6027    0.2602   18.3073 C   0  0  0  0  0  0  0  0  0  0  0  0
    5.2111   -0.3534   19.4218 C   0  0  0  0  0  0  0  0  0  0  0  0
   10.3220   -0.8940   22.7910 C   0  0  0  0  0  0  0  0  0  0  0  0
    6.5904   -0.2048   19.6077 C   0  0  0  0  0  0  0  0  0  0  0  0
   12.6400   -1.1000   22.2390 C   0  0  0  0  0  0  0  0  0  0  0  0
    7.1862   -4.9469   27.0767 C   0  0  0  0  0  0  0  0  0  0  0  0
    7.7559   -1.9922   24.5394 C   0  0  0  0  0  0  0  0  0  0  0  0
    8.3880   -0.3240   21.3070 C   0  0  0  0  0  0  0  0  0  0  0  0
    4.6903   -7.1475   28.6417 C   0  0  0  0  0  0  0  0  0  0  0  0
    5.3311   -8.1022   27.6422 C   0  0  0  0  0  0  0  0  0  0  0  0
    6.7173   -4.9654   24.6165 C   0  0  0  0  0  0  0  0  0  0  0  0
    7.4560   -4.2458   23.5132 C   0  0  0  0  0  0  0  0  0  0  0  0
    5.7274   -6.0421   28.7658 C   0  0  0  0  0  0  0  0  0  0  0  0
    6.0107   -7.1604   26.6581 C   0  0  0  0  0  0  0  0  0  0  0  0
    7.7659   -5.0517   25.7062 C   0  0  1  0  0  0  0  0  0  0  0  0
    8.3847   -3.3238   24.2762 C   0  0  2  0  0  0  0  0  0  0  0  0
    7.4809    0.3650   23.7558 C   0  0  0  0  0  0  0  0  0  0  0  0
    8.8810   -1.1900   22.4510 C   0  0  2  0  0  0  0  0  0  0  0  0
    6.7573    1.1443   17.6071 N   0  0  0  0  0  0  0  0  0  0  0  0
    6.3646   -5.9920   27.4581 N   0  0  0  0  0  0  0  0  0  0  0  0
    7.2820   -0.7860   20.6970 N   0  0  0  0  0  0  0  0  0  0  0  0
    8.0284   -0.9787   23.6199 N   0  0  0  0  0  0  0  0  0  0  0  0
    7.4500   -3.9804   27.7937 O   0  0  0  0  0  0  0  0  0  0  0  0
    7.0403   -1.8507   25.5346 O   0  0  0  0  0  0  0  0  0  0  0  0
    8.9170    0.7530   21.0260 O   0  0  0  0  0  0  0  0  0  0  0  0
    8.6313   -3.9223   25.5491 O   0  0  0  0  0  0  0  0  0  0  0  0
   13.8840   -1.8490   21.2740 Cl  0  0  0  0  0  0  0  0  0  0  0  0
    1.3775   -0.7199   18.8335 H   0  0  0  0  0  0  0  0  0  0  0  0
    2.4393   -1.8009   20.7937 H   0  0  0  0  0  0  0  0  0  0  0  0
   12.2249    1.2198   24.6546 H   0  0  0  0  0  0  0  0  0  0  0  0
    2.7372    0.5907   17.2477 H   0  0  0  0  0  0  0  0  0  0  0  0
    4.8464   -1.5833   21.1836 H   0  0  0  0  0  0  0  0  0  0  0  0
    9.8763    0.5350   24.3454 H   0  0  0  0  0  0  0  0  0  0  0  0
   14.0077    0.1988   23.2842 H   0  0  0  0  0  0  0  0  0  0  0  0
   11.0892   -2.3008   21.3624 H   0  0  0  0  0  0  0  0  0  0  0  0
    5.0196    1.4865   16.5675 H   0  0  0  0  0  0  0  0  0  0  0  0
    8.3773    0.6873   18.7839 H   0  0  0  0  0  0  0  0  0  0  0  0
    3.7543   -6.7468   28.2353 H   0  0  0  0  0  0  0  0  0  0  0  0
    4.4756   -7.6300   29.5993 H   0  0  0  0  0  0  0  0  0  0  0  0
    6.0773   -8.7295   28.1440 H   0  0  0  0  0  0  0  0  0  0  0  0
    4.5973   -8.7534   27.1593 H   0  0  0  0  0  0  0  0  0  0  0  0
    5.8452   -4.3780   24.9322 H   0  0  0  0  0  0  0  0  0  0  0  0
    6.3505   -5.9520   24.3133 H   0  0  0  0  0  0  0  0  0  0  0  0
    8.0472   -4.9718   22.9420 H   0  0  0  0  0  0  0  0  0  0  0  0
    6.7873   -3.7303   22.8176 H   0  0  0  0  0  0  0  0  0  0  0  0
    5.2939   -5.0721   29.0267 H   0  0  0  0  0  0  0  0  0  0  0  0
    6.4987   -6.2940   29.5021 H   0  0  0  0  0  0  0  0  0  0  0  0
    6.8952   -7.6037   26.1930 H   0  0  0  0  0  0  0  0  0  0  0  0
    5.3187   -6.8328   25.8748 H   0  0  0  0  0  0  0  0  0  0  0  0
    8.3655   -5.9632   25.6343 H   0  0  0  0  0  0  0  0  0  0  0  0
    9.3304   -3.1610   23.7517 H   0  0  0  0  0  0  0  0  0  0  0  0
    8.1717    0.9850   24.3460 H   0  0  0  0  0  0  0  0  0  0  0  0
    7.3499    0.8101   22.7584 H   0  0  0  0  0  0  0  0  0  0  0  0
    6.5074    0.3143   24.2655 H   0  0  0  0  0  0  0  0  0  0  0  0
    8.7711   -2.2448   22.1651 H   0  0  0  0  0  0  0  0  0  0  0  0
    6.8975   -1.6551   21.0614 H   0  0  0  0  0  0  0  0  0  0  0  0
  1  2  1  0  0  0  0
  1  4  2  0  0  0  0
  2  5  2  0  0  0  0
  3  6  2  0  0  0  0
  3  7  1  0  0  0  0
  4 11  1  0  0  0  0
  5 12  1  0  0  0  0
  6 13  1  0  0  0  0
  7 15  2  0  0  0  0
  8 13  2  0  0  0  0
  8 15  1  0  0  0  0
  9 11  2  0  0  0  0
  9 29  1  0  0  0  0
 10 14  1  0  0  0  0
 10 29  2  0  0  0  0
 11 12  1  0  0  0  0
 12 14  2  0  0  0  0
 13 28  1  0  0  0  0
 14 31  1  0  0  0  0
 15 37  1  0  0  0  0
 16 25  1  0  0  0  0
 16 30  1  0  0  0  0
 16 33  2  0  0  0  0
 17 26  1  0  0  0  0
 17 32  1  0  0  0  0
 17 34  2  0  0  0  0
 18 28  1  6  0  0  0
 18 31  1  0  0  0  0
 18 35  2  0  0  0  0
 19 20  1  0  0  0  0
 19 23  1  0  0  0  0
 20 24  1  0  0  0  0
 21 22  1  0  0  0  0
 21 25  1  0  0  0  0
 22 26  1  0  0  0  0
 23 30  1  0  0  0  0
 24 30  1  0  0  0  0
 25 36  1  0  0  0  0
 26 36  1  0  0  0  0
 27 32  1  0  0  0  0
 28 32  1  0  0  0  0
  1 38  1  0  0  0  0
  2 39  1  0  0  0  0
  3 40  1  0  0  0  0
  4 41  1  0  0  0  0
  5 42  1  0  0  0  0
  6 43  1  0  0  0  0
  7 44  1  0  0  0  0
  8 45  1  0  0  0  0
  9 46  1  0  0  0  0
 10 47  1  0  0  0  0
 19 48  1  0  0  0  0
 19 49  1  0  0  0  0
 20 50  1  0  0  0  0
 20 51  1  0  0  0  0
 21 52  1  0  0  0  0
 21 53  1  0  0  0  0
 22 54  1  0  0  0  0
 22 55  1  0  0  0  0
 23 56  1  0  0  0  0
 23 57  1  0  0  0  0
 24 58  1  0  0  0  0
 24 59  1  0  0  0  0
 25 60  1  0  0  0  0
 26 61  1  0  0  0  0
 27 62  1  0  0  0  0
 27 63  1  0  0  0  0
 27 64  1  0  0  0  0
 28 65  1  0  0  0  0
 31 66  1  0  0  0  0
M  END
> <compound>
PET-UNK-10339a1d-1

> <compound_smiles>
CN(C(c1cccc(c1)Cl)C(=O)Nc2cncc3c2cccc3)C(=O)[C@@H]4CC[C@@H](O4)C(=O)N5CCCC5

> <enantiomer_smiles>
CN([C@H](c1cccc(c1)Cl)C(=O)Nc2cncc3c2cccc3)C(=O)[C@@H]4CC[C@@H](O4)C(=O)N5CCCC5

> <scaffold>
chlorobenzene-linker

> <clash_score>
7.591275391847652

> <docking_score>
-1.745819091796875

> <overlap_score>
0.7716140747070312

> <MMFF_internal_energy>
198.21571147235727

> <docked_smiles>
CN([C@H](c1cccc(c1)Cl)C(=O)Nc2cncc3c2cccc3)C(=O)[C@@H]4CC[C@@H](O4)C(=O)N5CCCC5

$$$$
EDJ-MED-cf4b0d25-5_1
  -OEChem-07262101023D

 55 57  0     1  0  0  0  0  0999 V2000
    2.4453   -0.6644   19.0345 C   0  0  0  0  0  0  0  0  0  0  0  0
    3.0521   -1.2620   20.1368 C   0  0  0  0  0  0  0  0  0  0  0  0
   11.9780    0.4600   23.9150 C   0  0  0  0  0  0  0  0  0  0  0  0
    3.2094    0.0755   18.1324 C   0  0  0  0  0  0  0  0  0  0  0  0
    4.4258   -1.1223   20.3419 C   0  0  0  0  0  0  0  0  0  0  0  0
   10.6560    0.0720   23.7350 C   0  0  0  0  0  0  0  0  0  0  0  0
   12.9840   -0.1200   23.1530 C   0  0  0  0  0  0  0  0  0  0  0  0
   11.3360   -1.5050   22.0650 C   0  0  0  0  0  0  0  0  0  0  0  0
    5.4047    0.9517   17.4581 C   0  0  0  0  0  0  0  0  0  0  0  0
    7.2951    0.5246   18.6905 C   0  0  0  0  0  0  0  0  0  0  0  0
    4.5925    0.2225   18.3289 C   0  0  0  0  0  0  0  0  0  0  0  0
    5.2106   -0.3809   19.4436 C   0  0  0  0  0  0  0  0  0  0  0  0
   10.3220   -0.8940   22.7910 C   0  0  0  0  0  0  0  0  0  0  0  0
    6.5899   -0.2225   19.6216 C   0  0  0  0  0  0  0  0  0  0  0  0
   12.6400   -1.1000   22.2390 C   0  0  0  0  0  0  0  0  0  0  0  0
    8.4771   -3.5808   23.0243 C   0  0  0  0  0  0  0  0  0  0  0  0
    6.4421   -4.8666   24.7105 C   0  0  0  0  0  0  0  0  0  0  0  0
    8.3880   -0.3240   21.3070 C   0  0  0  0  0  0  0  0  0  0  0  0
    6.8748   -3.8961   26.9335 C   0  0  0  0  0  0  0  0  0  0  0  0
    8.0622   -5.9667   26.3256 C   0  0  0  0  0  0  0  0  0  0  0  0
    8.3554   -4.9392   22.3674 C   0  0  0  0  0  0  0  0  0  0  0  0
    6.7188   -5.9652   23.7060 C   0  0  0  0  0  0  0  0  0  0  0  0
    8.8810   -1.1900   22.4510 C   0  0  1  0  0  0  0  0  0  0  0  0
    6.7379    1.1163   17.6125 N   0  0  0  0  0  0  0  0  0  0  0  0
    7.2820   -0.7860   20.6970 N   0  0  0  0  0  0  0  0  0  0  0  0
    8.7217   -2.5865   22.0933 N   0  0  0  0  0  0  0  0  0  0  0  0
    7.1153   -4.9268   25.9311 N   0  0  0  0  0  0  0  0  0  0  0  0
    8.3664   -3.4169   24.2363 O   0  0  0  0  0  0  0  0  0  0  0  0
    5.6367   -3.9794   24.4121 O   0  0  0  0  0  0  0  0  0  0  0  0
    8.9170    0.7530   21.0260 O   0  0  0  0  0  0  0  0  0  0  0  0
    8.0929   -5.9372   23.3309 O   0  0  0  0  0  0  0  0  0  0  0  0
   13.8840   -1.8490   21.2740 Cl  0  0  0  0  0  0  0  0  0  0  0  0
    1.3764   -0.7749   18.8773 H   0  0  0  0  0  0  0  0  0  0  0  0
    2.4552   -1.8381   20.8380 H   0  0  0  0  0  0  0  0  0  0  0  0
   12.2249    1.2198   24.6546 H   0  0  0  0  0  0  0  0  0  0  0  0
    2.7196    0.5352   17.2771 H   0  0  0  0  0  0  0  0  0  0  0  0
    4.8628   -1.6030   21.2142 H   0  0  0  0  0  0  0  0  0  0  0  0
    9.8763    0.5350   24.3454 H   0  0  0  0  0  0  0  0  0  0  0  0
   14.0077    0.1988   23.2842 H   0  0  0  0  0  0  0  0  0  0  0  0
   11.0892   -2.3009   21.3624 H   0  0  0  0  0  0  0  0  0  0  0  0
    4.9927    1.4416   16.5801 H   0  0  0  0  0  0  0  0  0  0  0  0
    8.3668    0.6763   18.7836 H   0  0  0  0  0  0  0  0  0  0  0  0
    6.0424   -4.2033   27.5837 H   0  0  0  0  0  0  0  0  0  0  0  0
    7.7816   -3.7562   27.5403 H   0  0  0  0  0  0  0  0  0  0  0  0
    6.6191   -2.9505   26.4329 H   0  0  0  0  0  0  0  0  0  0  0  0
    9.0780   -5.6722   26.0232 H   0  0  0  0  0  0  0  0  0  0  0  0
    8.0284   -6.0983   27.4172 H   0  0  0  0  0  0  0  0  0  0  0  0
    7.7933   -6.9131   25.8337 H   0  0  0  0  0  0  0  0  0  0  0  0
    7.5277   -4.9212   21.6519 H   0  0  0  0  0  0  0  0  0  0  0  0
    9.2810   -5.1845   21.8375 H   0  0  0  0  0  0  0  0  0  0  0  0
    6.4566   -6.9461   24.1108 H   0  0  0  0  0  0  0  0  0  0  0  0
    6.1044   -5.8073   22.8134 H   0  0  0  0  0  0  0  0  0  0  0  0
    8.2436   -1.0112   23.3272 H   0  0  0  0  0  0  0  0  0  0  0  0
    6.8984   -1.6618   21.0676 H   0  0  0  0  0  0  0  0  0  0  0  0
    8.7938   -2.8456   21.1158 H   0  0  0  0  0  0  0  0  0  0  0  0
  1  2  1  0  0  0  0
  1  4  2  0  0  0  0
  2  5  2  0  0  0  0
  3  6  2  0  0  0  0
  3  7  1  0  0  0  0
  4 11  1  0  0  0  0
  5 12  1  0  0  0  0
  6 13  1  0  0  0  0
  7 15  2  0  0  0  0
  8 13  2  0  0  0  0
  8 15  1  0  0  0  0
  9 11  2  0  0  0  0
  9 24  1  0  0  0  0
 10 14  1  0  0  0  0
 10 24  2  0  0  0  0
 11 12  1  0  0  0  0
 12 14  2  0  0  0  0
 13 23  1  0  0  0  0
 14 25  1  0  0  0  0
 15 32  1  0  0  0  0
 16 21  1  0  0  0  0
 16 26  1  0  0  0  0
 16 28  2  0  0  0  0
 17 22  1  0  0  0  0
 17 27  1  0  0  0  0
 17 29  2  0  0  0  0
 18 23  1  1  0  0  0
 18 25  1  0  0  0  0
 18 30  2  0  0  0  0
 19 27  1  0  0  0  0
 20 27  1  0  0  0  0
 21 31  1  0  0  0  0
 22 31  1  0  0  0  0
 23 26  1  0  0  0  0
  1 33  1  0  0  0  0
  2 34  1  0  0  0  0
  3 35  1  0  0  0  0
  4 36  1  0  0  0  0
  5 37  1  0  0  0  0
  6 38  1  0  0  0  0
  7 39  1  0  0  0  0
  8 40  1  0  0  0  0
  9 41  1  0  0  0  0
 10 42  1  0  0  0  0
 19 43  1  0  0  0  0
 19 44  1  0  0  0  0
 19 45  1  0  0  0  0
 20 46  1  0  0  0  0
 20 47  1  0  0  0  0
 20 48  1  0  0  0  0
 21 49  1  0  0  0  0
 21 50  1  0  0  0  0
 22 51  1  0  0  0  0
 22 52  1  0  0  0  0
 23 53  1  0  0  0  0
 25 54  1  0  0  0  0
 26 55  1  0  0  0  0
M  END
> <compound>
EDJ-MED-cf4b0d25-5

> <compound_smiles>
CN(C)C(=O)COCC(=O)NC(c1cccc(c1)Cl)C(=O)Nc2cncc3c2cccc3

> <enantiomer_smiles>
CN(C)C(=O)COCC(=O)N[C@@H](c1cccc(c1)Cl)C(=O)Nc2cncc3c2cccc3

> <scaffold>
chlorobenzene-linker

> <canonical_CID>
EDJ-MED-cf4b0d25-5

> <r_inhibition_at_20_uM>

> <r_inhibition_at_50_uM>

> <r_avg_IC50>

> <f_inhibition_at_20_uM>

> <f_inhibition_at_50_uM>

> <f_avg_IC50>
5.40617223103952

> <f_avg_pIC50>

> <relative_solubility_at_20_uM>

> <relative_solubility_at_100_uM>

> <trypsin_IC50>

> <NMR_std_ratio>

> <acrylamide>
False

> <chloroacetamide>
False

> <series>
Ugi

> <frag_id>

> <clash_score>
7.634436731753946

> <docking_score>
-0.7495030164718628

> <overlap_score>
0.7768850922584534

> <MMFF_internal_energy>
160.18165386191066

> <docked_smiles>
CN(C)C(=O)COCC(=O)N[C@@H](c1cccc(c1)Cl)C(=O)Nc2cncc3c2cccc3

$$$$
PET-UNK-1320d94d-1_1
  -OEChem-07262101023D

 59 62  0     1  0  0  0  0  0999 V2000
    2.5578    0.9697   19.8184 C   0  0  0  0  0  0  0  0  0  0  0  0
    3.1679    0.4166   20.9418 C   0  0  0  0  0  0  0  0  0  0  0  0
   11.9780    0.4600   23.9150 C   0  0  0  0  0  0  0  0  0  0  0  0
    3.2816    1.1263   18.6366 C   0  0  0  0  0  0  0  0  0  0  0  0
    4.5045    0.0176   20.8886 C   0  0  0  0  0  0  0  0  0  0  0  0
   10.6560    0.0720   23.7350 C   0  0  0  0  0  0  0  0  0  0  0  0
   12.9840   -0.1200   23.1530 C   0  0  0  0  0  0  0  0  0  0  0  0
   11.3360   -1.5050   22.0650 C   0  0  0  0  0  0  0  0  0  0  0  0
    5.3983    0.8618   17.4152 C   0  0  0  0  0  0  0  0  0  0  0  0
    7.2560   -0.0413   18.4191 C   0  0  0  0  0  0  0  0  0  0  0  0
    4.6272    0.7281   18.5716 C   0  0  0  0  0  0  0  0  0  0  0  0
    5.2484    0.1678   19.7068 C   0  0  0  0  0  0  0  0  0  0  0  0
   10.3220   -0.8940   22.7910 C   0  0  0  0  0  0  0  0  0  0  0  0
    6.5899   -0.2225   19.6216 C   0  0  0  0  0  0  0  0  0  0  0  0
   12.6400   -1.1000   22.2390 C   0  0  0  0  0  0  0  0  0  0  0  0
    7.7910   -1.9632   24.5478 C   0  0  0  0  0  0  0  0  0  0  0  0
    5.3444   -4.5823   26.2280 C   0  0  0  0  0  0  0  0  0  0  0  0
    8.3880   -0.3240   21.3070 C   0  0  0  0  0  0  0  0  0  0  0  0
    7.5075   -1.7545   27.0267 C   0  0  0  0  0  0  0  0  0  0  0  0
    7.0416   -3.1472   27.3786 C   0  0  0  0  0  0  0  0  0  0  0  0
    6.8923   -1.5286   25.6614 C   0  0  2  0  0  0  0  0  0  0  0  0
    5.6806   -3.2118   26.7163 C   0  0  1  0  0  0  0  0  0  0  0  0
    4.2029   -6.7462   26.7388 C   0  0  0  0  0  0  0  0  0  0  0  0
    4.1623   -4.9300   28.4058 C   0  0  0  0  0  0  0  0  0  0  0  0
    8.8810   -1.1900   22.4510 C   0  0  2  0  0  0  0  0  0  0  0  0
    6.6946    0.4912   17.3129 N   0  0  0  0  0  0  0  0  0  0  0  0
    7.2820   -0.7860   20.6970 N   0  0  0  0  0  0  0  0  0  0  0  0
    8.0352   -0.9804   23.6107 N   0  0  0  0  0  0  0  0  0  0  0  0
    4.5993   -5.3884   27.0896 N   0  0  0  0  0  0  0  0  0  0  0  0
    8.2327   -3.1063   24.5389 O   0  0  0  0  0  0  0  0  0  0  0  0
    5.7307   -4.9347   25.1104 O   0  0  0  0  0  0  0  0  0  0  0  0
    8.9170    0.7530   21.0260 O   0  0  0  0  0  0  0  0  0  0  0  0
    5.7278   -2.3523   25.5743 O   0  0  0  0  0  0  0  0  0  0  0  0
   13.8840   -1.8490   21.2740 Cl  0  0  0  0  0  0  0  0  0  0  0  0
    1.5177    1.2791   19.8626 H   0  0  0  0  0  0  0  0  0  0  0  0
    2.6022    0.2953   21.8613 H   0  0  0  0  0  0  0  0  0  0  0  0
   12.2249    1.2198   24.6546 H   0  0  0  0  0  0  0  0  0  0  0  0
    2.7899    1.5598   17.7688 H   0  0  0  0  0  0  0  0  0  0  0  0
    4.9456   -0.4092   21.7864 H   0  0  0  0  0  0  0  0  0  0  0  0
    9.8763    0.5350   24.3454 H   0  0  0  0  0  0  0  0  0  0  0  0
   14.0077    0.1988   23.2842 H   0  0  0  0  0  0  0  0  0  0  0  0
   11.0892   -2.3009   21.3624 H   0  0  0  0  0  0  0  0  0  0  0  0
    4.9815    1.2854   16.5055 H   0  0  0  0  0  0  0  0  0  0  0  0
    8.2971   -0.3285   18.3019 H   0  0  0  0  0  0  0  0  0  0  0  0
    7.1923   -1.0007   27.7577 H   0  0  0  0  0  0  0  0  0  0  0  0
    8.6050   -1.7248   26.9852 H   0  0  0  0  0  0  0  0  0  0  0  0
    7.7352   -3.9245   27.0514 H   0  0  0  0  0  0  0  0  0  0  0  0
    6.9251   -3.2243   28.4648 H   0  0  0  0  0  0  0  0  0  0  0  0
    6.5969   -0.4874   25.5071 H   0  0  0  0  0  0  0  0  0  0  0  0
    4.8799   -2.8795   27.3914 H   0  0  0  0  0  0  0  0  0  0  0  0
    4.9796   -7.4521   27.0682 H   0  0  0  0  0  0  0  0  0  0  0  0
    3.2518   -6.9900   27.2348 H   0  0  0  0  0  0  0  0  0  0  0  0
    4.0777   -6.8214   25.6486 H   0  0  0  0  0  0  0  0  0  0  0  0
    3.1759   -4.4510   28.3191 H   0  0  0  0  0  0  0  0  0  0  0  0
    4.0936   -5.7894   29.0890 H   0  0  0  0  0  0  0  0  0  0  0  0
    4.8886   -4.2045   28.8011 H   0  0  0  0  0  0  0  0  0  0  0  0
    8.7711   -2.2448   22.1651 H   0  0  0  0  0  0  0  0  0  0  0  0
    6.8984   -1.6618   21.0676 H   0  0  0  0  0  0  0  0  0  0  0  0
    7.6033   -0.0721   23.7386 H   0  0  0  0  0  0  0  0  0  0  0  0
  1  2  1  0  0  0  0
  1  4  2  0  0  0  0
  2  5  2  0  0  0  0
  3  6  2  0  0  0  0
  3  7  1  0  0  0  0
  4 11  1  0  0  0  0
  5 12  1  0  0  0  0
  6 13  1  0  0  0  0
  7 15  2  0  0  0  0
  8 13  2  0  0  0  0
  8 15  1  0  0  0  0
  9 11  2  0  0  0  0
  9 26  1  0  0  0  0
 10 14  1  0  0  0  0
 10 26  2  0  0  0  0
 11 12  1  0  0  0  0
 12 14  2  0  0  0  0
 13 25  1  0  0  0  0
 14 27  1  0  0  0  0
 15 34  1  0  0  0  0
 16 21  1  0  0  0  0
 16 28  1  0  0  0  0
 16 30  2  0  0  0  0
 17 22  1  0  0  0  0
 17 29  1  0  0  0  0
 17 31  2  0  0  0  0
 18 25  1  0  0  0  0
 18 27  1  0  0  0  0
 18 32  2  0  0  0  0
 19 20  1  0  0  0  0
 19 21  1  0  0  0  0
 20 22  1  0  0  0  0
 21 33  1  0  0  0  0
 22 33  1  0  0  0  0
 23 29  1  0  0  0  0
 24 29  1  0  0  0  0
 25 28  1  0  0  0  0
  1 35  1  0  0  0  0
  2 36  1  0  0  0  0
  3 37  1  0  0  0  0
  4 38  1  0  0  0  0
  5 39  1  0  0  0  0
  6 40  1  0  0  0  0
  7 41  1  0  0  0  0
  8 42  1  0  0  0  0
  9 43  1  0  0  0  0
 10 44  1  0  0  0  0
 19 45  1  0  0  0  0
 19 46  1  0  0  0  0
 20 47  1  0  0  0  0
 20 48  1  0  0  0  0
 21 49  1  0  0  0  0
 22 50  1  0  0  0  0
 23 51  1  0  0  0  0
 23 52  1  0  0  0  0
 23 53  1  0  0  0  0
 24 54  1  0  0  0  0
 24 55  1  0  0  0  0
 24 56  1  0  0  0  0
 25 57  1  0  0  0  0
 27 58  1  0  0  0  0
 28 59  1  0  0  0  0
M  END
> <compound>
PET-UNK-1320d94d-1

> <compound_smiles>
CN(C)C(=O)[C@H]1CC[C@H](O1)C(=O)N[C@H](c2cccc(c2)Cl)C(=O)Nc3cncc4c3cccc4

> <enantiomer_smiles>
CN(C)C(=O)[C@H]1CC[C@H](O1)C(=O)N[C@H](c2cccc(c2)Cl)C(=O)Nc3cncc4c3cccc4

> <scaffold>
chlorobenzene-linker

> <clash_score>
0.6126618092733563

> <docking_score>
-5.372323513031006

> <overlap_score>
0.8827046155929565

> <MMFF_internal_energy>
176.58675078656637

> <docked_smiles>
CN(C)C(=O)[C@H]1CC[C@H](O1)C(=O)N[C@H](c2cccc(c2)Cl)C(=O)Nc3cncc4c3cccc4

$$$$
PET-UNK-1320d94d-7_1
  -OEChem-07262101023D

 60 64  0     1  0  0  0  0  0999 V2000
    2.5650    1.0118   19.7905 C   0  0  0  0  0  0  0  0  0  0  0  0
    3.1657    0.4486   20.9139 C   0  0  0  0  0  0  0  0  0  0  0  0
   11.9780    0.4600   23.9150 C   0  0  0  0  0  0  0  0  0  0  0  0
    3.2959    1.1705   18.6133 C   0  0  0  0  0  0  0  0  0  0  0  0
    4.5001    0.0413   20.8653 C   0  0  0  0  0  0  0  0  0  0  0  0
   10.6560    0.0720   23.7350 C   0  0  0  0  0  0  0  0  0  0  0  0
   12.9840   -0.1200   23.1530 C   0  0  0  0  0  0  0  0  0  0  0  0
   11.3360   -1.5050   22.0650 C   0  0  0  0  0  0  0  0  0  0  0  0
    5.4171    0.8995   17.4014 C   0  0  0  0  0  0  0  0  0  0  0  0
    7.2639   -0.0211   18.4097 C   0  0  0  0  0  0  0  0  0  0  0  0
    4.6393    0.7642   18.5530 C   0  0  0  0  0  0  0  0  0  0  0  0
    5.2510    0.1935   19.6882 C   0  0  0  0  0  0  0  0  0  0  0  0
   10.3220   -0.8940   22.7910 C   0  0  0  0  0  0  0  0  0  0  0  0
    6.5904   -0.2048   19.6077 C   0  0  0  0  0  0  0  0  0  0  0  0
   12.6400   -1.1000   22.2390 C   0  0  0  0  0  0  0  0  0  0  0  0
    4.9269    1.1200   25.1398 C   0  0  0  0  0  0  0  0  0  0  0  0
    7.7879   -1.9599   24.5505 C   0  0  0  0  0  0  0  0  0  0  0  0
    8.3880   -0.3240   21.3070 C   0  0  0  0  0  0  0  0  0  0  0  0
    5.2036    4.7296   25.7849 C   0  0  0  0  0  0  0  0  0  0  0  0
    6.4473    4.2126   26.4969 C   0  0  0  0  0  0  0  0  0  0  0  0
    5.3640   -1.4290   25.4157 C   0  0  0  0  0  0  0  0  0  0  0  0
    4.8536    3.5873   24.8437 C   0  0  0  0  0  0  0  0  0  0  0  0
    6.1446    2.7321   26.6809 C   0  0  0  0  0  0  0  0  0  0  0  0
    5.4777   -0.0117   25.9699 C   0  0  1  0  0  0  0  0  0  0  0  0
    6.8687   -1.5101   25.6866 C   0  0  2  0  0  0  0  0  0  0  0  0
    8.8810   -1.1900   22.4510 C   0  0  1  0  0  0  0  0  0  0  0  0
    6.7116    0.5212   17.3036 N   0  0  0  0  0  0  0  0  0  0  0  0
    5.2962    2.3902   25.5435 N   0  0  0  0  0  0  0  0  0  0  0  0
    7.2820   -0.7860   20.6970 N   0  0  0  0  0  0  0  0  0  0  0  0
    8.0374   -0.9810   23.6076 N   0  0  0  0  0  0  0  0  0  0  0  0
    4.2035    0.8880   24.1699 O   0  0  0  0  0  0  0  0  0  0  0  0
    8.2273   -3.1038   24.5456 O   0  0  0  0  0  0  0  0  0  0  0  0
    8.9170    0.7530   21.0260 O   0  0  0  0  0  0  0  0  0  0  0  0
    6.9248   -0.0780   25.9276 O   0  0  0  0  0  0  0  0  0  0  0  0
   13.8840   -1.8490   21.2740 Cl  0  0  0  0  0  0  0  0  0  0  0  0
    1.5267    1.3276   19.8311 H   0  0  0  0  0  0  0  0  0  0  0  0
    2.5946    0.3257   21.8297 H   0  0  0  0  0  0  0  0  0  0  0  0
   12.2249    1.2198   24.6546 H   0  0  0  0  0  0  0  0  0  0  0  0
    2.8114    1.6119   17.7455 H   0  0  0  0  0  0  0  0  0  0  0  0
    4.9338   -0.3933   21.7630 H   0  0  0  0  0  0  0  0  0  0  0  0
    9.8763    0.5350   24.3454 H   0  0  0  0  0  0  0  0  0  0  0  0
   14.0077    0.1988   23.2842 H   0  0  0  0  0  0  0  0  0  0  0  0
   11.0892   -2.3009   21.3624 H   0  0  0  0  0  0  0  0  0  0  0  0
    5.0078    1.3308   16.4920 H   0  0  0  0  0  0  0  0  0  0  0  0
    8.3038   -0.3142   18.2963 H   0  0  0  0  0  0  0  0  0  0  0  0
    4.3936    4.8898   26.5062 H   0  0  0  0  0  0  0  0  0  0  0  0
    5.3882    5.6678   25.2542 H   0  0  0  0  0  0  0  0  0  0  0  0
    7.3291    4.3431   25.8585 H   0  0  0  0  0  0  0  0  0  0  0  0
    6.6265    4.7243   27.4464 H   0  0  0  0  0  0  0  0  0  0  0  0
    4.7473   -2.1092   26.0089 H   0  0  0  0  0  0  0  0  0  0  0  0
    5.0780   -1.4995   24.3620 H   0  0  0  0  0  0  0  0  0  0  0  0
    3.7863    3.5317   24.6109 H   0  0  0  0  0  0  0  0  0  0  0  0
    5.4168    3.6521   23.9062 H   0  0  0  0  0  0  0  0  0  0  0  0
    7.0472    2.1154   26.6985 H   0  0  0  0  0  0  0  0  0  0  0  0
    5.5682    2.5509   27.5945 H   0  0  0  0  0  0  0  0  0  0  0  0
    5.1392    0.0793   27.0065 H   0  0  0  0  0  0  0  0  0  0  0  0
    7.1067   -2.0456   26.6151 H   0  0  0  0  0  0  0  0  0  0  0  0
    8.7711   -2.2448   22.1651 H   0  0  0  0  0  0  0  0  0  0  0  0
    6.8975   -1.6551   21.0614 H   0  0  0  0  0  0  0  0  0  0  0  0
    7.6083   -0.0690   23.7324 H   0  0  0  0  0  0  0  0  0  0  0  0
  1  2  1  0  0  0  0
  1  4  2  0  0  0  0
  2  5  2  0  0  0  0
  3  6  2  0  0  0  0
  3  7  1  0  0  0  0
  4 11  1  0  0  0  0
  5 12  1  0  0  0  0
  6 13  1  0  0  0  0
  7 15  2  0  0  0  0
  8 13  2  0  0  0  0
  8 15  1  0  0  0  0
  9 11  2  0  0  0  0
  9 27  1  0  0  0  0
 10 14  1  0  0  0  0
 10 27  2  0  0  0  0
 11 12  1  0  0  0  0
 12 14  2  0  0  0  0
 13 26  1  0  0  0  0
 14 29  1  0  0  0  0
 15 35  1  0  0  0  0
 16 24  1  0  0  0  0
 16 28  1  0  0  0  0
 16 31  2  0  0  0  0
 17 25  1  0  0  0  0
 17 30  1  0  0  0  0
 17 32  2  0  0  0  0
 18 26  1  0  0  0  0
 18 29  1  0  0  0  0
 18 33  2  0  0  0  0
 19 20  1  0  0  0  0
 19 22  1  0  0  0  0
 20 23  1  0  0  0  0
 21 24  1  0  0  0  0
 21 25  1  0  0  0  0
 22 28  1  0  0  0  0
 23 28  1  0  0  0  0
 24 34  1  0  0  0  0
 25 34  1  0  0  0  0
 26 30  1  0  0  0  0
  1 36  1  0  0  0  0
  2 37  1  0  0  0  0
  3 38  1  0  0  0  0
  4 39  1  0  0  0  0
  5 40  1  0  0  0  0
  6 41  1  0  0  0  0
  7 42  1  0  0  0  0
  8 43  1  0  0  0  0
  9 44  1  0  0  0  0
 10 45  1  0  0  0  0
 19 46  1  0  0  0  0
 19 47  1  0  0  0  0
 20 48  1  0  0  0  0
 20 49  1  0  0  0  0
 21 50  1  0  0  0  0
 21 51  1  0  0  0  0
 22 52  1  0  0  0  0
 22 53  1  0  0  0  0
 23 54  1  0  0  0  0
 23 55  1  0  0  0  0
 24 56  1  0  0  0  0
 25 57  1  0  0  0  0
 26 58  1  0  0  0  0
 29 59  1  0  0  0  0
 30 60  1  0  0  0  0
M  END
> <compound>
PET-UNK-1320d94d-7

> <compound_smiles>
c1ccc2c(c1)cncc2NC(=O)[C@@H](c3cccc(c3)Cl)NC(=O)[C@@H]4C[C@@H](O4)C(=O)N5CCCC5

> <enantiomer_smiles>
c1ccc2c(c1)cncc2NC(=O)[C@@H](c3cccc(c3)Cl)NC(=O)[C@@H]4C[C@@H](O4)C(=O)N5CCCC5

> <scaffold>
chlorobenzene-linker

> <clash_score>
0

> <docking_score>
-4.4725236892700195

> <overlap_score>
0.8854843378067017

> <MMFF_internal_energy>
142.86287115137378

> <docked_smiles>
c1ccc2c(c1)cncc2NC(=O)[C@@H](c3cccc(c3)Cl)NC(=O)[C@@H]4C[C@@H](O4)C(=O)N5CCCC5

$$$$
PET-UNK-1320d94d-2_1
  -OEChem-07262101023D

 59 62  0     1  0  0  0  0  0999 V2000
    2.5578    0.9697   19.8184 C   0  0  0  0  0  0  0  0  0  0  0  0
    3.1679    0.4166   20.9418 C   0  0  0  0  0  0  0  0  0  0  0  0
   11.9780    0.4600   23.9150 C   0  0  0  0  0  0  0  0  0  0  0  0
    3.2816    1.1262   18.6366 C   0  0  0  0  0  0  0  0  0  0  0  0
    4.5045    0.0176   20.8886 C   0  0  0  0  0  0  0  0  0  0  0  0
   10.6560    0.0720   23.7350 C   0  0  0  0  0  0  0  0  0  0  0  0
   12.9840   -0.1200   23.1530 C   0  0  0  0  0  0  0  0  0  0  0  0
   11.3360   -1.5050   22.0650 C   0  0  0  0  0  0  0  0  0  0  0  0
    5.3982    0.8618   17.4152 C   0  0  0  0  0  0  0  0  0  0  0  0
    7.2560   -0.0413   18.4191 C   0  0  0  0  0  0  0  0  0  0  0  0
    4.6272    0.7281   18.5716 C   0  0  0  0  0  0  0  0  0  0  0  0
    5.2484    0.1678   19.7068 C   0  0  0  0  0  0  0  0  0  0  0  0
   10.3220   -0.8940   22.7910 C   0  0  0  0  0  0  0  0  0  0  0  0
    6.5899   -0.2225   19.6216 C   0  0  0  0  0  0  0  0  0  0  0  0
   12.6400   -1.1000   22.2390 C   0  0  0  0  0  0  0  0  0  0  0  0
    8.4778   -3.5792   23.0201 C   0  0  0  0  0  0  0  0  0  0  0  0
    5.2060   -5.7521   22.8569 C   0  0  0  0  0  0  0  0  0  0  0  0
    8.3880   -0.3240   21.3070 C   0  0  0  0  0  0  0  0  0  0  0  0
    7.6683   -4.9304   21.0722 C   0  0  0  0  0  0  0  0  0  0  0  0
    6.8979   -6.2293   21.0861 C   0  0  0  0  0  0  0  0  0  0  0  0
    8.3474   -4.9414   22.4263 C   0  0  2  0  0  0  0  0  0  0  0  0
    6.5258   -6.3841   22.5463 C   0  0  1  0  0  0  0  0  0  0  0  0
    2.9171   -6.3598   23.6555 C   0  0  0  0  0  0  0  0  0  0  0  0
    4.0100   -7.7476   21.9356 C   0  0  0  0  0  0  0  0  0  0  0  0
    8.8810   -1.1900   22.4510 C   0  0  1  0  0  0  0  0  0  0  0  0
    6.6946    0.4912   17.3129 N   0  0  0  0  0  0  0  0  0  0  0  0
    7.2820   -0.7860   20.6970 N   0  0  0  0  0  0  0  0  0  0  0  0
    8.7217   -2.5865   22.0933 N   0  0  0  0  0  0  0  0  0  0  0  0
    4.0881   -6.5864   22.8182 N   0  0  0  0  0  0  0  0  0  0  0  0
    8.3643   -3.4348   24.2317 O   0  0  0  0  0  0  0  0  0  0  0  0
    5.1635   -4.5490   23.1274 O   0  0  0  0  0  0  0  0  0  0  0  0
    8.9170    0.7530   21.0260 O   0  0  0  0  0  0  0  0  0  0  0  0
    7.5068   -5.6858   23.3141 O   0  0  0  0  0  0  0  0  0  0  0  0
   13.8840   -1.8490   21.2740 Cl  0  0  0  0  0  0  0  0  0  0  0  0
    1.5177    1.2791   19.8626 H   0  0  0  0  0  0  0  0  0  0  0  0
    2.6022    0.2953   21.8613 H   0  0  0  0  0  0  0  0  0  0  0  0
   12.2249    1.2198   24.6546 H   0  0  0  0  0  0  0  0  0  0  0  0
    2.7899    1.5597   17.7688 H   0  0  0  0  0  0  0  0  0  0  0  0
    4.9456   -0.4092   21.7864 H   0  0  0  0  0  0  0  0  0  0  0  0
    9.8763    0.5350   24.3454 H   0  0  0  0  0  0  0  0  0  0  0  0
   14.0077    0.1988   23.2842 H   0  0  0  0  0  0  0  0  0  0  0  0
   11.0892   -2.3009   21.3624 H   0  0  0  0  0  0  0  0  0  0  0  0
    4.9815    1.2854   16.5055 H   0  0  0  0  0  0  0  0  0  0  0  0
    8.2971   -0.3285   18.3019 H   0  0  0  0  0  0  0  0  0  0  0  0
    8.3829   -4.8658   20.2461 H   0  0  0  0  0  0  0  0  0  0  0  0
    6.9770   -4.0846   20.9741 H   0  0  0  0  0  0  0  0  0  0  0  0
    6.0420   -6.2247   20.4049 H   0  0  0  0  0  0  0  0  0  0  0  0
    7.5653   -7.0473   20.7887 H   0  0  0  0  0  0  0  0  0  0  0  0
    9.3289   -5.4237   22.3920 H   0  0  0  0  0  0  0  0  0  0  0  0
    6.4875   -7.4320   22.8560 H   0  0  0  0  0  0  0  0  0  0  0  0
    2.2058   -5.7104   23.1241 H   0  0  0  0  0  0  0  0  0  0  0  0
    2.4360   -7.3229   23.8813 H   0  0  0  0  0  0  0  0  0  0  0  0
    3.2255   -5.8751   24.5936 H   0  0  0  0  0  0  0  0  0  0  0  0
    4.4067   -8.6318   22.4561 H   0  0  0  0  0  0  0  0  0  0  0  0
    2.9611   -7.9263   21.6568 H   0  0  0  0  0  0  0  0  0  0  0  0
    4.6035   -7.5593   21.0287 H   0  0  0  0  0  0  0  0  0  0  0  0
    8.2436   -1.0112   23.3272 H   0  0  0  0  0  0  0  0  0  0  0  0
    6.8984   -1.6618   21.0676 H   0  0  0  0  0  0  0  0  0  0  0  0
    8.7928   -2.8447   21.1155 H   0  0  0  0  0  0  0  0  0  0  0  0
  1  2  1  0  0  0  0
  1  4  2  0  0  0  0
  2  5  2  0  0  0  0
  3  6  2  0  0  0  0
  3  7  1  0  0  0  0
  4 11  1  0  0  0  0
  5 12  1  0  0  0  0
  6 13  1  0  0  0  0
  7 15  2  0  0  0  0
  8 13  2  0  0  0  0
  8 15  1  0  0  0  0
  9 11  2  0  0  0  0
  9 26  1  0  0  0  0
 10 14  1  0  0  0  0
 10 26  2  0  0  0  0
 11 12  1  0  0  0  0
 12 14  2  0  0  0  0
 13 25  1  0  0  0  0
 14 27  1  0  0  0  0
 15 34  1  0  0  0  0
 16 21  1  0  0  0  0
 16 28  1  0  0  0  0
 16 30  2  0  0  0  0
 17 22  1  0  0  0  0
 17 29  1  0  0  0  0
 17 31  2  0  0  0  0
 18 25  1  0  0  0  0
 18 27  1  0  0  0  0
 18 32  2  0  0  0  0
 19 20  1  0  0  0  0
 19 21  1  0  0  0  0
 20 22  1  0  0  0  0
 21 33  1  0  0  0  0
 22 33  1  0  0  0  0
 23 29  1  0  0  0  0
 24 29  1  0  0  0  0
 25 28  1  0  0  0  0
  1 35  1  0  0  0  0
  2 36  1  0  0  0  0
  3 37  1  0  0  0  0
  4 38  1  0  0  0  0
  5 39  1  0  0  0  0
  6 40  1  0  0  0  0
  7 41  1  0  0  0  0
  8 42  1  0  0  0  0
  9 43  1  0  0  0  0
 10 44  1  0  0  0  0
 19 45  1  0  0  0  0
 19 46  1  0  0  0  0
 20 47  1  0  0  0  0
 20 48  1  0  0  0  0
 21 49  1  0  0  0  0
 22 50  1  0  0  0  0
 23 51  1  0  0  0  0
 23 52  1  0  0  0  0
 23 53  1  0  0  0  0
 24 54  1  0  0  0  0
 24 55  1  0  0  0  0
 24 56  1  0  0  0  0
 25 57  1  0  0  0  0
 27 58  1  0  0  0  0
 28 59  1  0  0  0  0
M  END
> <compound>
PET-UNK-1320d94d-2

> <compound_smiles>
CN(C)C(=O)[C@H]1CC[C@H](O1)C(=O)N[C@@H](c2cccc(c2)Cl)C(=O)Nc3cncc4c3cccc4

> <enantiomer_smiles>
CN(C)C(=O)[C@H]1CC[C@H](O1)C(=O)N[C@@H](c2cccc(c2)Cl)C(=O)Nc3cncc4c3cccc4

> <scaffold>
chlorobenzene-linker

> <clash_score>
1.333519274809408

> <docking_score>
-4.436668395996094

> <overlap_score>
0.8830636739730835

> <MMFF_internal_energy>
177.95463470643332

> <docked_smiles>
CN(C)C(=O)[C@H]1CC[C@H](O1)C(=O)N[C@@H](c2cccc(c2)Cl)C(=O)Nc3cncc4c3cccc4

$$$$
PET-UNK-1320d94d-4_1
  -OEChem-07262101023D

 64 68  0     1  0  0  0  0  0999 V2000
    2.5650    1.0119   19.7905 C   0  0  0  0  0  0  0  0  0  0  0  0
    3.1657    0.4486   20.9139 C   0  0  0  0  0  0  0  0  0  0  0  0
   11.9780    0.4600   23.9150 C   0  0  0  0  0  0  0  0  0  0  0  0
    3.2959    1.1705   18.6133 C   0  0  0  0  0  0  0  0  0  0  0  0
    4.5001    0.0414   20.8653 C   0  0  0  0  0  0  0  0  0  0  0  0
   10.6560    0.0720   23.7350 C   0  0  0  0  0  0  0  0  0  0  0  0
   12.9840   -0.1200   23.1530 C   0  0  0  0  0  0  0  0  0  0  0  0
   11.3360   -1.5050   22.0650 C   0  0  0  0  0  0  0  0  0  0  0  0
    5.4171    0.8995   17.4014 C   0  0  0  0  0  0  0  0  0  0  0  0
    7.2639   -0.0211   18.4097 C   0  0  0  0  0  0  0  0  0  0  0  0
    4.6393    0.7642   18.5530 C   0  0  0  0  0  0  0  0  0  0  0  0
    5.2510    0.1935   19.6882 C   0  0  0  0  0  0  0  0  0  0  0  0
   10.3220   -0.8940   22.7910 C   0  0  0  0  0  0  0  0  0  0  0  0
    6.5904   -0.2048   19.6077 C   0  0  0  0  0  0  0  0  0  0  0  0
   12.6400   -1.1000   22.2390 C   0  0  0  0  0  0  0  0  0  0  0  0
    6.2425   -6.2762   24.8151 C   0  0  0  0  0  0  0  0  0  0  0  0
    8.4778   -3.5791   23.0202 C   0  0  0  0  0  0  0  0  0  0  0  0
    8.3880   -0.3240   21.3070 C   0  0  0  0  0  0  0  0  0  0  0  0
    6.0486   -5.4996   22.4419 C   0  0  0  0  0  0  0  0  0  0  0  0
    7.1460   -5.0487   21.5075 C   0  0  0  0  0  0  0  0  0  0  0  0
    4.7360   -7.2573   26.5147 C   0  0  0  0  0  0  0  0  0  0  0  0
    4.9932   -8.4465   24.3764 C   0  0  0  0  0  0  0  0  0  0  0  0
    3.2399   -7.5227   26.4262 C   0  0  0  0  0  0  0  0  0  0  0  0
    3.4858   -8.6671   24.3798 C   0  0  0  0  0  0  0  0  0  0  0  0
    6.8015   -6.3612   23.4346 C   0  0  1  0  0  0  0  0  0  0  0  0
    8.3471   -4.9451   22.4249 C   0  0  2  0  0  0  0  0  0  0  0  0
    8.8810   -1.1900   22.4510 C   0  0  2  0  0  0  0  0  0  0  0  0
    6.7116    0.5212   17.3036 N   0  0  0  0  0  0  0  0  0  0  0  0
    5.3356   -7.2686   25.1805 N   0  0  0  0  0  0  0  0  0  0  0  0
    7.2820   -0.7860   20.6970 N   0  0  0  0  0  0  0  0  0  0  0  0
    8.7221   -2.5829   22.0943 N   0  0  0  0  0  0  0  0  0  0  0  0
    6.5939   -5.3536   25.5547 O   0  0  0  0  0  0  0  0  0  0  0  0
    8.3643   -3.4346   24.2318 O   0  0  0  0  0  0  0  0  0  0  0  0
    8.9170    0.7530   21.0260 O   0  0  0  0  0  0  0  0  0  0  0  0
    2.9956   -8.7425   25.7211 O   0  0  0  0  0  0  0  0  0  0  0  0
    8.1362   -5.8495   23.5098 O   0  0  0  0  0  0  0  0  0  0  0  0
   13.8840   -1.8490   21.2740 Cl  0  0  0  0  0  0  0  0  0  0  0  0
    1.5267    1.3276   19.8311 H   0  0  0  0  0  0  0  0  0  0  0  0
    2.5946    0.3257   21.8297 H   0  0  0  0  0  0  0  0  0  0  0  0
   12.2249    1.2198   24.6546 H   0  0  0  0  0  0  0  0  0  0  0  0
    2.8114    1.6120   17.7455 H   0  0  0  0  0  0  0  0  0  0  0  0
    4.9338   -0.3933   21.7630 H   0  0  0  0  0  0  0  0  0  0  0  0
    9.8763    0.5350   24.3454 H   0  0  0  0  0  0  0  0  0  0  0  0
   14.0077    0.1988   23.2842 H   0  0  0  0  0  0  0  0  0  0  0  0
   11.0892   -2.3008   21.3624 H   0  0  0  0  0  0  0  0  0  0  0  0
    5.0078    1.3308   16.4920 H   0  0  0  0  0  0  0  0  0  0  0  0
    8.3038   -0.3142   18.2963 H   0  0  0  0  0  0  0  0  0  0  0  0
    5.5826   -4.6304   22.9240 H   0  0  0  0  0  0  0  0  0  0  0  0
    5.2523   -6.0523   21.9317 H   0  0  0  0  0  0  0  0  0  0  0  0
    7.3235   -5.8284   20.7570 H   0  0  0  0  0  0  0  0  0  0  0  0
    6.9042   -4.1202   20.9820 H   0  0  0  0  0  0  0  0  0  0  0  0
    4.9264   -6.3092   27.0263 H   0  0  0  0  0  0  0  0  0  0  0  0
    5.2287   -8.0549   27.0831 H   0  0  0  0  0  0  0  0  0  0  0  0
    5.4995   -9.2975   24.8469 H   0  0  0  0  0  0  0  0  0  0  0  0
    5.3544   -8.3656   23.3499 H   0  0  0  0  0  0  0  0  0  0  0  0
    2.8206   -7.6311   27.4314 H   0  0  0  0  0  0  0  0  0  0  0  0
    2.7123   -6.6980   25.9324 H   0  0  0  0  0  0  0  0  0  0  0  0
    2.9613   -7.8702   23.8393 H   0  0  0  0  0  0  0  0  0  0  0  0
    3.2477   -9.6151   23.8869 H   0  0  0  0  0  0  0  0  0  0  0  0
    6.8465   -7.4088   23.1249 H   0  0  0  0  0  0  0  0  0  0  0  0
    9.2821   -5.1892   21.9130 H   0  0  0  0  0  0  0  0  0  0  0  0
    8.2436   -1.0112   23.3272 H   0  0  0  0  0  0  0  0  0  0  0  0
    6.8975   -1.6551   21.0614 H   0  0  0  0  0  0  0  0  0  0  0  0
    8.7931   -2.8404   21.1145 H   0  0  0  0  0  0  0  0  0  0  0  0
  1  2  1  0  0  0  0
  1  4  2  0  0  0  0
  2  5  2  0  0  0  0
  3  6  2  0  0  0  0
  3  7  1  0  0  0  0
  4 11  1  0  0  0  0
  5 12  1  0  0  0  0
  6 13  1  0  0  0  0
  7 15  2  0  0  0  0
  8 13  2  0  0  0  0
  8 15  1  0  0  0  0
  9 11  2  0  0  0  0
  9 28  1  0  0  0  0
 10 14  1  0  0  0  0
 10 28  2  0  0  0  0
 11 12  1  0  0  0  0
 12 14  2  0  0  0  0
 13 27  1  0  0  0  0
 14 30  1  0  0  0  0
 15 37  1  0  0  0  0
 16 25  1  0  0  0  0
 16 29  1  0  0  0  0
 16 32  2  0  0  0  0
 17 26  1  0  0  0  0
 17 31  1  0  0  0  0
 17 33  2  0  0  0  0
 18 27  1  0  0  0  0
 18 30  1  0  0  0  0
 18 34  2  0  0  0  0
 19 20  1  0  0  0  0
 19 25  1  0  0  0  0
 20 26  1  0  0  0  0
 21 23  1  0  0  0  0
 21 29  1  0  0  0  0
 22 24  1  0  0  0  0
 22 29  1  0  0  0  0
 23 35  1  0  0  0  0
 24 35  1  0  0  0  0
 25 36  1  0  0  0  0
 26 36  1  0  0  0  0
 27 31  1  0  0  0  0
  1 38  1  0  0  0  0
  2 39  1  0  0  0  0
  3 40  1  0  0  0  0
  4 41  1  0  0  0  0
  5 42  1  0  0  0  0
  6 43  1  0  0  0  0
  7 44  1  0  0  0  0
  8 45  1  0  0  0  0
  9 46  1  0  0  0  0
 10 47  1  0  0  0  0
 19 48  1  0  0  0  0
 19 49  1  0  0  0  0
 20 50  1  0  0  0  0
 20 51  1  0  0  0  0
 21 52  1  0  0  0  0
 21 53  1  0  0  0  0
 22 54  1  0  0  0  0
 22 55  1  0  0  0  0
 23 56  1  0  0  0  0
 23 57  1  0  0  0  0
 24 58  1  0  0  0  0
 24 59  1  0  0  0  0
 25 60  1  0  0  0  0
 26 61  1  0  0  0  0
 27 62  1  0  0  0  0
 30 63  1  0  0  0  0
 31 64  1  0  0  0  0
M  END
> <compound>
PET-UNK-1320d94d-4

> <compound_smiles>
c1ccc2c(c1)cncc2NC(=O)[C@H](c3cccc(c3)Cl)NC(=O)[C@@H]4CC[C@@H](O4)C(=O)N5CCOCC5

> <enantiomer_smiles>
c1ccc2c(c1)cncc2NC(=O)[C@H](c3cccc(c3)Cl)NC(=O)[C@@H]4CC[C@@H](O4)C(=O)N5CCOCC5

> <scaffold>
chlorobenzene-linker

> <clash_score>
0

> <docking_score>
-2.5951054096221924

> <overlap_score>
0.8794780373573303

> <MMFF_internal_energy>
224.72144569128855

> <docked_smiles>
c1ccc2c(c1)cncc2NC(=O)[C@H](c3cccc(c3)Cl)NC(=O)[C@@H]4CC[C@@H](O4)C(=O)N5CCOCC5

$$$$
PET-UNK-1320d94d-22_1
  -OEChem-07262101023D

 62 65  0     1  0  0  0  0  0999 V2000
    2.5578    0.9697   19.8184 C   0  0  0  0  0  0  0  0  0  0  0  0
    3.1679    0.4166   20.9418 C   0  0  0  0  0  0  0  0  0  0  0  0
   11.9780    0.4600   23.9150 C   0  0  0  0  0  0  0  0  0  0  0  0
    3.2816    1.1263   18.6366 C   0  0  0  0  0  0  0  0  0  0  0  0
    4.5045    0.0176   20.8886 C   0  0  0  0  0  0  0  0  0  0  0  0
   10.6560    0.0720   23.7350 C   0  0  0  0  0  0  0  0  0  0  0  0
   12.9840   -0.1200   23.1530 C   0  0  0  0  0  0  0  0  0  0  0  0
   11.3360   -1.5050   22.0650 C   0  0  0  0  0  0  0  0  0  0  0  0
    5.3982    0.8618   17.4152 C   0  0  0  0  0  0  0  0  0  0  0  0
    7.2560   -0.0413   18.4191 C   0  0  0  0  0  0  0  0  0  0  0  0
    4.6272    0.7281   18.5716 C   0  0  0  0  0  0  0  0  0  0  0  0
    5.2484    0.1678   19.7068 C   0  0  0  0  0  0  0  0  0  0  0  0
   10.3220   -0.8940   22.7910 C   0  0  0  0  0  0  0  0  0  0  0  0
    6.5899   -0.2225   19.6216 C   0  0  0  0  0  0  0  0  0  0  0  0
   12.6400   -1.1000   22.2390 C   0  0  0  0  0  0  0  0  0  0  0  0
    5.6264   -5.3758   25.0424 C   0  0  0  0  0  0  0  0  0  0  0  0
    8.4336   -3.5744   23.0456 C   0  0  0  0  0  0  0  0  0  0  0  0
    8.3880   -0.3240   21.3070 C   0  0  0  0  0  0  0  0  0  0  0  0
    5.4404   -5.5824   22.5522 C   0  0  0  0  0  0  0  0  0  0  0  0
    6.2387   -4.3694   22.1372 C   0  0  0  0  0  0  0  0  0  0  0  0
    6.1575   -6.0350   23.8074 C   0  0  1  0  0  0  0  0  0  0  0  0
    7.6432   -4.7444   22.5645 C   0  0  2  0  0  0  0  0  0  0  0  0
    5.8901   -5.0682   27.5086 C   0  0  0  0  0  0  0  0  0  0  0  0
    7.4676   -6.5206   26.2916 C   0  0  0  0  0  0  0  0  0  0  0  0
    8.8812   -2.8980   20.6735 C   0  0  0  0  0  0  0  0  0  0  0  0
    8.8810   -1.1900   22.4510 C   0  0  1  0  0  0  0  0  0  0  0  0
    6.6946    0.4912   17.3129 N   0  0  0  0  0  0  0  0  0  0  0  0
    7.2820   -0.7860   20.6970 N   0  0  0  0  0  0  0  0  0  0  0  0
    6.3008   -5.6437   26.2343 N   0  0  0  0  0  0  0  0  0  0  0  0
    8.7217   -2.5865   22.0933 N   0  0  0  0  0  0  0  0  0  0  0  0
    4.6386   -4.6414   24.9554 O   0  0  0  0  0  0  0  0  0  0  0  0
    8.7874   -3.5318   24.2269 O   0  0  0  0  0  0  0  0  0  0  0  0
    8.9170    0.7530   21.0260 O   0  0  0  0  0  0  0  0  0  0  0  0
    7.5230   -5.6332   23.6808 O   0  0  0  0  0  0  0  0  0  0  0  0
   13.8840   -1.8490   21.2740 Cl  0  0  0  0  0  0  0  0  0  0  0  0
    1.5177    1.2791   19.8626 H   0  0  0  0  0  0  0  0  0  0  0  0
    2.6022    0.2953   21.8613 H   0  0  0  0  0  0  0  0  0  0  0  0
   12.2249    1.2198   24.6546 H   0  0  0  0  0  0  0  0  0  0  0  0
    2.7899    1.5597   17.7688 H   0  0  0  0  0  0  0  0  0  0  0  0
    4.9456   -0.4092   21.7864 H   0  0  0  0  0  0  0  0  0  0  0  0
    9.8763    0.5350   24.3454 H   0  0  0  0  0  0  0  0  0  0  0  0
   14.0077    0.1988   23.2842 H   0  0  0  0  0  0  0  0  0  0  0  0
   11.0892   -2.3009   21.3624 H   0  0  0  0  0  0  0  0  0  0  0  0
    4.9815    1.2854   16.5055 H   0  0  0  0  0  0  0  0  0  0  0  0
    8.2971   -0.3285   18.3019 H   0  0  0  0  0  0  0  0  0  0  0  0
    4.4019   -5.2957   22.7612 H   0  0  0  0  0  0  0  0  0  0  0  0
    5.4135   -6.3597   21.7813 H   0  0  0  0  0  0  0  0  0  0  0  0
    6.2104   -4.2736   21.0473 H   0  0  0  0  0  0  0  0  0  0  0  0
    5.8669   -3.4418   22.5752 H   0  0  0  0  0  0  0  0  0  0  0  0
    6.1240   -7.1234   23.9296 H   0  0  0  0  0  0  0  0  0  0  0  0
    8.2074   -5.2333   21.7651 H   0  0  0  0  0  0  0  0  0  0  0  0
    5.1666   -5.7372   27.9975 H   0  0  0  0  0  0  0  0  0  0  0  0
    6.7708   -4.9449   28.1560 H   0  0  0  0  0  0  0  0  0  0  0  0
    5.4229   -4.0876   27.3344 H   0  0  0  0  0  0  0  0  0  0  0  0
    8.3809   -5.9270   26.1382 H   0  0  0  0  0  0  0  0  0  0  0  0
    7.5098   -7.0105   27.2755 H   0  0  0  0  0  0  0  0  0  0  0  0
    7.3907   -7.2849   25.5043 H   0  0  0  0  0  0  0  0  0  0  0  0
    7.9065   -2.8226   20.1693 H   0  0  0  0  0  0  0  0  0  0  0  0
    9.5851   -2.1854   20.2188 H   0  0  0  0  0  0  0  0  0  0  0  0
    9.2724   -3.9202   20.5642 H   0  0  0  0  0  0  0  0  0  0  0  0
    8.2436   -1.0112   23.3272 H   0  0  0  0  0  0  0  0  0  0  0  0
    6.8984   -1.6618   21.0676 H   0  0  0  0  0  0  0  0  0  0  0  0
  1  2  1  0  0  0  0
  1  4  2  0  0  0  0
  2  5  2  0  0  0  0
  3  6  2  0  0  0  0
  3  7  1  0  0  0  0
  4 11  1  0  0  0  0
  5 12  1  0  0  0  0
  6 13  1  0  0  0  0
  7 15  2  0  0  0  0
  8 13  2  0  0  0  0
  8 15  1  0  0  0  0
  9 11  2  0  0  0  0
  9 27  1  0  0  0  0
 10 14  1  0  0  0  0
 10 27  2  0  0  0  0
 11 12  1  0  0  0  0
 12 14  2  0  0  0  0
 13 26  1  0  0  0  0
 14 28  1  0  0  0  0
 15 35  1  0  0  0  0
 16 21  1  0  0  0  0
 16 29  1  0  0  0  0
 16 31  2  0  0  0  0
 17 22  1  0  0  0  0
 17 30  1  0  0  0  0
 17 32  2  0  0  0  0
 18 26  1  0  0  0  0
 18 28  1  0  0  0  0
 18 33  2  0  0  0  0
 19 20  1  0  0  0  0
 19 21  1  0  0  0  0
 20 22  1  0  0  0  0
 21 34  1  0  0  0  0
 22 34  1  0  0  0  0
 23 29  1  0  0  0  0
 24 29  1  0  0  0  0
 25 30  1  0  0  0  0
 26 30  1  0  0  0  0
  1 36  1  0  0  0  0
  2 37  1  0  0  0  0
  3 38  1  0  0  0  0
  4 39  1  0  0  0  0
  5 40  1  0  0  0  0
  6 41  1  0  0  0  0
  7 42  1  0  0  0  0
  8 43  1  0  0  0  0
  9 44  1  0  0  0  0
 10 45  1  0  0  0  0
 19 46  1  0  0  0  0
 19 47  1  0  0  0  0
 20 48  1  0  0  0  0
 20 49  1  0  0  0  0
 21 50  1  0  0  0  0
 22 51  1  0  0  0  0
 23 52  1  0  0  0  0
 23 53  1  0  0  0  0
 23 54  1  0  0  0  0
 24 55  1  0  0  0  0
 24 56  1  0  0  0  0
 24 57  1  0  0  0  0
 25 58  1  0  0  0  0
 25 59  1  0  0  0  0
 25 60  1  0  0  0  0
 26 61  1  0  0  0  0
 28 62  1  0  0  0  0
M  END
> <compound>
PET-UNK-1320d94d-22

> <compound_smiles>
CN(C)C(=O)[C@H]1CC[C@H](O1)C(=O)N(C)[C@@H](c2cccc(c2)Cl)C(=O)Nc3cncc4c3cccc4

> <enantiomer_smiles>
CN(C)C(=O)[C@H]1CC[C@H](O1)C(=O)N(C)[C@@H](c2cccc(c2)Cl)C(=O)Nc3cncc4c3cccc4

> <scaffold>
chlorobenzene-linker

> <clash_score>
1.2236996645135985

> <docking_score>
-5.761539936065674

> <overlap_score>
0.8855257034301758

> <MMFF_internal_energy>
204.02500925404394

> <docked_smiles>
CN(C)C(=O)[C@H]1CC[C@H](O1)C(=O)N(C)[C@@H](c2cccc(c2)Cl)C(=O)Nc3cncc4c3cccc4

$$$$
PET-UNK-1320d94d-21_1
  -OEChem-07262101023D

 62 65  0     1  0  0  0  0  0999 V2000
    2.5578    0.9697   19.8184 C   0  0  0  0  0  0  0  0  0  0  0  0
    3.1679    0.4166   20.9418 C   0  0  0  0  0  0  0  0  0  0  0  0
   11.9780    0.4600   23.9150 C   0  0  0  0  0  0  0  0  0  0  0  0
    3.2816    1.1263   18.6366 C   0  0  0  0  0  0  0  0  0  0  0  0
    4.5045    0.0176   20.8886 C   0  0  0  0  0  0  0  0  0  0  0  0
   10.6560    0.0720   23.7350 C   0  0  0  0  0  0  0  0  0  0  0  0
   12.9840   -0.1200   23.1530 C   0  0  0  0  0  0  0  0  0  0  0  0
   11.3360   -1.5050   22.0650 C   0  0  0  0  0  0  0  0  0  0  0  0
    5.3982    0.8618   17.4152 C   0  0  0  0  0  0  0  0  0  0  0  0
    7.2560   -0.0413   18.4191 C   0  0  0  0  0  0  0  0  0  0  0  0
    4.6272    0.7281   18.5716 C   0  0  0  0  0  0  0  0  0  0  0  0
    5.2484    0.1678   19.7068 C   0  0  0  0  0  0  0  0  0  0  0  0
   10.3220   -0.8940   22.7910 C   0  0  0  0  0  0  0  0  0  0  0  0
    6.5899   -0.2225   19.6216 C   0  0  0  0  0  0  0  0  0  0  0  0
   12.6400   -1.1000   22.2390 C   0  0  0  0  0  0  0  0  0  0  0  0
    4.0792    2.1917   24.1992 C   0  0  0  0  0  0  0  0  0  0  0  0
    7.4370    0.2587   23.8801 C   0  0  0  0  0  0  0  0  0  0  0  0
    8.3880   -0.3240   21.3070 C   0  0  0  0  0  0  0  0  0  0  0  0
    4.3353    0.2654   25.7812 C   0  0  0  0  0  0  0  0  0  0  0  0
    5.3608   -0.5471   25.0268 C   0  0  0  0  0  0  0  0  0  0  0  0
    4.7333    1.6887   25.4487 C   0  0  1  0  0  0  0  0  0  0  0  0
    6.5929    0.3310   25.1079 C   0  0  2  0  0  0  0  0  0  0  0  0
    2.1666    3.4751   23.2293 C   0  0  0  0  0  0  0  0  0  0  0  0
    2.3285    3.2017   25.6743 C   0  0  0  0  0  0  0  0  0  0  0  0
    7.8463   -2.1407   24.4803 C   0  0  0  0  0  0  0  0  0  0  0  0
    8.8810   -1.1900   22.4510 C   0  0  2  0  0  0  0  0  0  0  0  0
    6.6946    0.4912   17.3129 N   0  0  0  0  0  0  0  0  0  0  0  0
    7.2820   -0.7860   20.6970 N   0  0  0  0  0  0  0  0  0  0  0  0
    2.9044    2.9272   24.3603 N   0  0  0  0  0  0  0  0  0  0  0  0
    8.0352   -0.9804   23.6107 N   0  0  0  0  0  0  0  0  0  0  0  0
    4.5948    1.9401   23.1068 O   0  0  0  0  0  0  0  0  0  0  0  0
    7.5658    1.2652   23.1781 O   0  0  0  0  0  0  0  0  0  0  0  0
    8.9170    0.7530   21.0260 O   0  0  0  0  0  0  0  0  0  0  0  0
    6.1412    1.6864   25.2044 O   0  0  0  0  0  0  0  0  0  0  0  0
   13.8840   -1.8490   21.2740 Cl  0  0  0  0  0  0  0  0  0  0  0  0
    1.5177    1.2791   19.8626 H   0  0  0  0  0  0  0  0  0  0  0  0
    2.6022    0.2953   21.8613 H   0  0  0  0  0  0  0  0  0  0  0  0
   12.2249    1.2198   24.6546 H   0  0  0  0  0  0  0  0  0  0  0  0
    2.7899    1.5597   17.7688 H   0  0  0  0  0  0  0  0  0  0  0  0
    4.9456   -0.4092   21.7864 H   0  0  0  0  0  0  0  0  0  0  0  0
    9.8763    0.5350   24.3454 H   0  0  0  0  0  0  0  0  0  0  0  0
   14.0077    0.1988   23.2842 H   0  0  0  0  0  0  0  0  0  0  0  0
   11.0892   -2.3009   21.3624 H   0  0  0  0  0  0  0  0  0  0  0  0
    4.9815    1.2854   16.5055 H   0  0  0  0  0  0  0  0  0  0  0  0
    8.2971   -0.3285   18.3019 H   0  0  0  0  0  0  0  0  0  0  0  0
    3.3273    0.0317   25.4155 H   0  0  0  0  0  0  0  0  0  0  0  0
    4.3433    0.0686   26.8583 H   0  0  0  0  0  0  0  0  0  0  0  0
    5.5508   -1.4801   25.5665 H   0  0  0  0  0  0  0  0  0  0  0  0
    5.0488   -0.7933   24.0107 H   0  0  0  0  0  0  0  0  0  0  0  0
    4.5236    2.3773   26.2749 H   0  0  0  0  0  0  0  0  0  0  0  0
    7.2218    0.0914   25.9702 H   0  0  0  0  0  0  0  0  0  0  0  0
    1.4253    2.7396   22.8835 H   0  0  0  0  0  0  0  0  0  0  0  0
    1.6517    4.3964   23.5393 H   0  0  0  0  0  0  0  0  0  0  0  0
    2.8658    3.7032   22.4114 H   0  0  0  0  0  0  0  0  0  0  0  0
    2.7391    4.1443   26.0655 H   0  0  0  0  0  0  0  0  0  0  0  0
    1.2355    3.2872   25.5849 H   0  0  0  0  0  0  0  0  0  0  0  0
    2.5770    2.3802   26.3623 H   0  0  0  0  0  0  0  0  0  0  0  0
    6.9686   -2.7124   24.1444 H   0  0  0  0  0  0  0  0  0  0  0  0
    8.7396   -2.7810   24.4363 H   0  0  0  0  0  0  0  0  0  0  0  0
    7.6889   -1.8016   25.5149 H   0  0  0  0  0  0  0  0  0  0  0  0
    8.7711   -2.2448   22.1651 H   0  0  0  0  0  0  0  0  0  0  0  0
    6.8984   -1.6618   21.0676 H   0  0  0  0  0  0  0  0  0  0  0  0
  1  2  1  0  0  0  0
  1  4  2  0  0  0  0
  2  5  2  0  0  0  0
  3  6  2  0  0  0  0
  3  7  1  0  0  0  0
  4 11  1  0  0  0  0
  5 12  1  0  0  0  0
  6 13  1  0  0  0  0
  7 15  2  0  0  0  0
  8 13  2  0  0  0  0
  8 15  1  0  0  0  0
  9 11  2  0  0  0  0
  9 27  1  0  0  0  0
 10 14  1  0  0  0  0
 10 27  2  0  0  0  0
 11 12  1  0  0  0  0
 12 14  2  0  0  0  0
 13 26  1  0  0  0  0
 14 28  1  0  0  0  0
 15 35  1  0  0  0  0
 16 21  1  0  0  0  0
 16 29  1  0  0  0  0
 16 31  2  0  0  0  0
 17 22  1  0  0  0  0
 17 30  1  0  0  0  0
 17 32  2  0  0  0  0
 18 26  1  0  0  0  0
 18 28  1  0  0  0  0
 18 33  2  0  0  0  0
 19 20  1  0  0  0  0
 19 21  1  0  0  0  0
 20 22  1  0  0  0  0
 21 34  1  0  0  0  0
 22 34  1  0  0  0  0
 23 29  1  0  0  0  0
 24 29  1  0  0  0  0
 25 30  1  0  0  0  0
 26 30  1  0  0  0  0
  1 36  1  0  0  0  0
  2 37  1  0  0  0  0
  3 38  1  0  0  0  0
  4 39  1  0  0  0  0
  5 40  1  0  0  0  0
  6 41  1  0  0  0  0
  7 42  1  0  0  0  0
  8 43  1  0  0  0  0
  9 44  1  0  0  0  0
 10 45  1  0  0  0  0
 19 46  1  0  0  0  0
 19 47  1  0  0  0  0
 20 48  1  0  0  0  0
 20 49  1  0  0  0  0
 21 50  1  0  0  0  0
 22 51  1  0  0  0  0
 23 52  1  0  0  0  0
 23 53  1  0  0  0  0
 23 54  1  0  0  0  0
 24 55  1  0  0  0  0
 24 56  1  0  0  0  0
 24 57  1  0  0  0  0
 25 58  1  0  0  0  0
 25 59  1  0  0  0  0
 25 60  1  0  0  0  0
 26 61  1  0  0  0  0
 28 62  1  0  0  0  0
M  END
> <compound>
PET-UNK-1320d94d-21

> <compound_smiles>
CN(C)C(=O)[C@H]1CC[C@H](O1)C(=O)N(C)[C@H](c2cccc(c2)Cl)C(=O)Nc3cncc4c3cccc4

> <enantiomer_smiles>
CN(C)C(=O)[C@H]1CC[C@H](O1)C(=O)N(C)[C@H](c2cccc(c2)Cl)C(=O)Nc3cncc4c3cccc4

> <scaffold>
chlorobenzene-linker

> <clash_score>
0.6126672693428085

> <docking_score>
-4.609331130981445

> <overlap_score>
0.9009233713150024

> <MMFF_internal_energy>
213.3730889737207

> <docked_smiles>
CN(C)C(=O)[C@H]1CC[C@H](O1)C(=O)N(C)[C@H](c2cccc(c2)Cl)C(=O)Nc3cncc4c3cccc4

$$$$
PET-UNK-1320d94d-5_1
  -OEChem-07262101023D

 60 64  0     1  0  0  0  0  0999 V2000
    2.5578    0.9697   19.8184 C   0  0  0  0  0  0  0  0  0  0  0  0
    3.1679    0.4166   20.9418 C   0  0  0  0  0  0  0  0  0  0  0  0
   11.9780    0.4600   23.9150 C   0  0  0  0  0  0  0  0  0  0  0  0
    3.2816    1.1263   18.6366 C   0  0  0  0  0  0  0  0  0  0  0  0
    4.5045    0.0176   20.8886 C   0  0  0  0  0  0  0  0  0  0  0  0
   10.6560    0.0720   23.7350 C   0  0  0  0  0  0  0  0  0  0  0  0
   12.9840   -0.1200   23.1530 C   0  0  0  0  0  0  0  0  0  0  0  0
   11.3360   -1.5050   22.0650 C   0  0  0  0  0  0  0  0  0  0  0  0
    5.3983    0.8618   17.4152 C   0  0  0  0  0  0  0  0  0  0  0  0
    7.2560   -0.0413   18.4191 C   0  0  0  0  0  0  0  0  0  0  0  0
    4.6272    0.7281   18.5716 C   0  0  0  0  0  0  0  0  0  0  0  0
    5.2484    0.1678   19.7068 C   0  0  0  0  0  0  0  0  0  0  0  0
   10.3220   -0.8940   22.7910 C   0  0  0  0  0  0  0  0  0  0  0  0
    6.5899   -0.2225   19.6216 C   0  0  0  0  0  0  0  0  0  0  0  0
   12.6400   -1.1000   22.2390 C   0  0  0  0  0  0  0  0  0  0  0  0
    6.7931   -4.5335   27.3567 C   0  0  0  0  0  0  0  0  0  0  0  0
    7.7910   -1.9632   24.5478 C   0  0  0  0  0  0  0  0  0  0  0  0
    8.3880   -0.3240   21.3070 C   0  0  0  0  0  0  0  0  0  0  0  0
    7.8593   -2.2905   27.6802 C   0  0  0  0  0  0  0  0  0  0  0  0
    7.6764   -1.0355   26.8603 C   0  0  0  0  0  0  0  0  0  0  0  0
    5.7841   -6.1845   30.1556 C   0  0  0  0  0  0  0  0  0  0  0  0
    6.5689   -6.5705   28.8962 C   0  0  0  0  0  0  0  0  0  0  0  0
    6.0810   -4.7134   29.8402 C   0  0  0  0  0  0  0  0  0  0  0  0
    6.5854   -3.0567   27.3890 C   0  0  1  0  0  0  0  0  0  0  0  0
    6.8921   -1.5285   25.6616 C   0  0  2  0  0  0  0  0  0  0  0  0
    8.8810   -1.1900   22.4510 C   0  0  1  0  0  0  0  0  0  0  0  0
    6.6946    0.4912   17.3129 N   0  0  0  0  0  0  0  0  0  0  0  0
    6.5030   -5.1696   28.5314 N   0  0  0  0  0  0  0  0  0  0  0  0
    7.2820   -0.7860   20.6970 N   0  0  0  0  0  0  0  0  0  0  0  0
    8.0352   -0.9804   23.6107 N   0  0  0  0  0  0  0  0  0  0  0  0
    7.1891   -5.1037   26.3413 O   0  0  0  0  0  0  0  0  0  0  0  0
    8.2327   -3.1063   24.5389 O   0  0  0  0  0  0  0  0  0  0  0  0
    8.9170    0.7530   21.0260 O   0  0  0  0  0  0  0  0  0  0  0  0
    6.1594   -2.6825   26.0747 O   0  0  0  0  0  0  0  0  0  0  0  0
   13.8840   -1.8490   21.2740 Cl  0  0  0  0  0  0  0  0  0  0  0  0
    1.5177    1.2791   19.8626 H   0  0  0  0  0  0  0  0  0  0  0  0
    2.6022    0.2953   21.8613 H   0  0  0  0  0  0  0  0  0  0  0  0
   12.2249    1.2198   24.6546 H   0  0  0  0  0  0  0  0  0  0  0  0
    2.7899    1.5597   17.7688 H   0  0  0  0  0  0  0  0  0  0  0  0
    4.9456   -0.4092   21.7864 H   0  0  0  0  0  0  0  0  0  0  0  0
    9.8763    0.5350   24.3454 H   0  0  0  0  0  0  0  0  0  0  0  0
   14.0077    0.1988   23.2842 H   0  0  0  0  0  0  0  0  0  0  0  0
   11.0892   -2.3009   21.3624 H   0  0  0  0  0  0  0  0  0  0  0  0
    4.9815    1.2854   16.5055 H   0  0  0  0  0  0  0  0  0  0  0  0
    8.2971   -0.3285   18.3019 H   0  0  0  0  0  0  0  0  0  0  0  0
    8.7467   -2.8369   27.3386 H   0  0  0  0  0  0  0  0  0  0  0  0
    7.9919   -2.0875   28.7472 H   0  0  0  0  0  0  0  0  0  0  0  0
    7.0707   -0.3189   27.4284 H   0  0  0  0  0  0  0  0  0  0  0  0
    8.6235   -0.5513   26.6046 H   0  0  0  0  0  0  0  0  0  0  0  0
    4.7198   -6.4419   30.1115 H   0  0  0  0  0  0  0  0  0  0  0  0
    6.2008   -6.5535   31.0970 H   0  0  0  0  0  0  0  0  0  0  0  0
    7.5927   -6.9140   29.0663 H   0  0  0  0  0  0  0  0  0  0  0  0
    6.0467   -7.2376   28.2068 H   0  0  0  0  0  0  0  0  0  0  0  0
    5.2078   -4.0573   29.8310 H   0  0  0  0  0  0  0  0  0  0  0  0
    6.8964   -4.2652   30.4146 H   0  0  0  0  0  0  0  0  0  0  0  0
    5.7855   -2.8059   28.0948 H   0  0  0  0  0  0  0  0  0  0  0  0
    6.2050   -0.7699   25.2758 H   0  0  0  0  0  0  0  0  0  0  0  0
    8.7711   -2.2448   22.1651 H   0  0  0  0  0  0  0  0  0  0  0  0
    6.8984   -1.6618   21.0676 H   0  0  0  0  0  0  0  0  0  0  0  0
    7.6033   -0.0721   23.7386 H   0  0  0  0  0  0  0  0  0  0  0  0
  1  2  1  0  0  0  0
  1  4  2  0  0  0  0
  2  5  2  0  0  0  0
  3  6  2  0  0  0  0
  3  7  1  0  0  0  0
  4 11  1  0  0  0  0
  5 12  1  0  0  0  0
  6 13  1  0  0  0  0
  7 15  2  0  0  0  0
  8 13  2  0  0  0  0
  8 15  1  0  0  0  0
  9 11  2  0  0  0  0
  9 27  1  0  0  0  0
 10 14  1  0  0  0  0
 10 27  2  0  0  0  0
 11 12  1  0  0  0  0
 12 14  2  0  0  0  0
 13 26  1  0  0  0  0
 14 29  1  0  0  0  0
 15 35  1  0  0  0  0
 16 24  1  0  0  0  0
 16 28  1  0  0  0  0
 16 31  2  0  0  0  0
 17 25  1  0  0  0  0
 17 30  1  0  0  0  0
 17 32  2  0  0  0  0
 18 26  1  0  0  0  0
 18 29  1  0  0  0  0
 18 33  2  0  0  0  0
 19 20  1  0  0  0  0
 19 24  1  0  0  0  0
 20 25  1  0  0  0  0
 21 22  1  0  0  0  0
 21 23  1  0  0  0  0
 22 28  1  0  0  0  0
 23 28  1  0  0  0  0
 24 34  1  0  0  0  0
 25 34  1  0  0  0  0
 26 30  1  0  0  0  0
  1 36  1  0  0  0  0
  2 37  1  0  0  0  0
  3 38  1  0  0  0  0
  4 39  1  0  0  0  0
  5 40  1  0  0  0  0
  6 41  1  0  0  0  0
  7 42  1  0  0  0  0
  8 43  1  0  0  0  0
  9 44  1  0  0  0  0
 10 45  1  0  0  0  0
 19 46  1  0  0  0  0
 19 47  1  0  0  0  0
 20 48  1  0  0  0  0
 20 49  1  0  0  0  0
 21 50  1  0  0  0  0
 21 51  1  0  0  0  0
 22 52  1  0  0  0  0
 22 53  1  0  0  0  0
 23 54  1  0  0  0  0
 23 55  1  0  0  0  0
 24 56  1  0  0  0  0
 25 57  1  0  0  0  0
 26 58  1  0  0  0  0
 29 59  1  0  0  0  0
 30 60  1  0  0  0  0
M  END
> <compound>
PET-UNK-1320d94d-5

> <compound_smiles>
c1ccc2c(c1)cncc2NC(=O)[C@@H](c3cccc(c3)Cl)NC(=O)[C@@H]4CC[C@@H](O4)C(=O)N5CCC5

> <enantiomer_smiles>
c1ccc2c(c1)cncc2NC(=O)[C@@H](c3cccc(c3)Cl)NC(=O)[C@@H]4CC[C@@H](O4)C(=O)N5CCC5

> <scaffold>
chlorobenzene-linker

> <clash_score>
0.6126637004932489

> <docking_score>
-5.245978355407715

> <overlap_score>
0.879978597164154

> <MMFF_internal_energy>
181.53606799441056

> <docked_smiles>
c1ccc2c(c1)cncc2NC(=O)[C@@H](c3cccc(c3)Cl)NC(=O)[C@@H]4CC[C@@H](O4)C(=O)N5CCC5

$$$$
PET-UNK-1320d94d-8_1
  -OEChem-07262101023D

 60 64  0     1  0  0  0  0  0999 V2000
    2.5650    1.0119   19.7905 C   0  0  0  0  0  0  0  0  0  0  0  0
    3.1657    0.4486   20.9139 C   0  0  0  0  0  0  0  0  0  0  0  0
   11.9780    0.4600   23.9150 C   0  0  0  0  0  0  0  0  0  0  0  0
    3.2959    1.1705   18.6133 C   0  0  0  0  0  0  0  0  0  0  0  0
    4.5001    0.0414   20.8653 C   0  0  0  0  0  0  0  0  0  0  0  0
   10.6560    0.0720   23.7350 C   0  0  0  0  0  0  0  0  0  0  0  0
   12.9840   -0.1200   23.1530 C   0  0  0  0  0  0  0  0  0  0  0  0
   11.3360   -1.5050   22.0650 C   0  0  0  0  0  0  0  0  0  0  0  0
    5.4171    0.8995   17.4014 C   0  0  0  0  0  0  0  0  0  0  0  0
    7.2639   -0.0211   18.4097 C   0  0  0  0  0  0  0  0  0  0  0  0
    4.6393    0.7642   18.5530 C   0  0  0  0  0  0  0  0  0  0  0  0
    5.2510    0.1935   19.6882 C   0  0  0  0  0  0  0  0  0  0  0  0
   10.3220   -0.8940   22.7910 C   0  0  0  0  0  0  0  0  0  0  0  0
    6.5904   -0.2048   19.6077 C   0  0  0  0  0  0  0  0  0  0  0  0
   12.6400   -1.1000   22.2390 C   0  0  0  0  0  0  0  0  0  0  0  0
    5.2817   -6.1488   21.9373 C   0  0  0  0  0  0  0  0  0  0  0  0
    8.4779   -3.5755   23.0241 C   0  0  0  0  0  0  0  0  0  0  0  0
    8.3880   -0.3240   21.3070 C   0  0  0  0  0  0  0  0  0  0  0  0
    2.9776   -8.2639   23.8709 C   0  0  0  0  0  0  0  0  0  0  0  0
    4.2351   -8.3487   24.7269 C   0  0  0  0  0  0  0  0  0  0  0  0
    7.5364   -5.1346   21.1296 C   0  0  0  0  0  0  0  0  0  0  0  0
    3.2257   -7.0224   23.0281 C   0  0  0  0  0  0  0  0  0  0  0  0
    5.3321   -7.9123   23.7660 C   0  0  0  0  0  0  0  0  0  0  0  0
    6.7869   -6.2229   21.8930 C   0  0  1  0  0  0  0  0  0  0  0  0
    8.3433   -4.9741   22.4209 C   0  0  2  0  0  0  0  0  0  0  0  0
    8.8810   -1.1900   22.4510 C   0  0  2  0  0  0  0  0  0  0  0  0
    6.7116    0.5212   17.3036 N   0  0  0  0  0  0  0  0  0  0  0  0
    4.6706   -6.9806   22.8578 N   0  0  0  0  0  0  0  0  0  0  0  0
    7.2820   -0.7860   20.6970 N   0  0  0  0  0  0  0  0  0  0  0  0
    8.7221   -2.5829   22.0943 N   0  0  0  0  0  0  0  0  0  0  0  0
    4.6724   -5.3811   21.1908 O   0  0  0  0  0  0  0  0  0  0  0  0
    8.3651   -3.4264   24.2352 O   0  0  0  0  0  0  0  0  0  0  0  0
    8.9170    0.7530   21.0260 O   0  0  0  0  0  0  0  0  0  0  0  0
    7.3998   -5.8132   23.1407 O   0  0  0  0  0  0  0  0  0  0  0  0
   13.8840   -1.8490   21.2740 Cl  0  0  0  0  0  0  0  0  0  0  0  0
    1.5267    1.3276   19.8311 H   0  0  0  0  0  0  0  0  0  0  0  0
    2.5946    0.3257   21.8297 H   0  0  0  0  0  0  0  0  0  0  0  0
   12.2249    1.2198   24.6546 H   0  0  0  0  0  0  0  0  0  0  0  0
    2.8114    1.6120   17.7455 H   0  0  0  0  0  0  0  0  0  0  0  0
    4.9338   -0.3933   21.7630 H   0  0  0  0  0  0  0  0  0  0  0  0
    9.8763    0.5350   24.3454 H   0  0  0  0  0  0  0  0  0  0  0  0
   14.0077    0.1988   23.2842 H   0  0  0  0  0  0  0  0  0  0  0  0
   11.0892   -2.3009   21.3624 H   0  0  0  0  0  0  0  0  0  0  0  0
    5.0078    1.3308   16.4920 H   0  0  0  0  0  0  0  0  0  0  0  0
    8.3038   -0.3142   18.2963 H   0  0  0  0  0  0  0  0  0  0  0  0
    2.8960   -9.1491   23.2293 H   0  0  0  0  0  0  0  0  0  0  0  0
    2.0687   -8.1858   24.4741 H   0  0  0  0  0  0  0  0  0  0  0  0
    4.1668   -7.6487   25.5680 H   0  0  0  0  0  0  0  0  0  0  0  0
    4.4016   -9.3539   25.1236 H   0  0  0  0  0  0  0  0  0  0  0  0
    8.1066   -5.4852   20.2655 H   0  0  0  0  0  0  0  0  0  0  0  0
    6.9382   -4.2637   20.8453 H   0  0  0  0  0  0  0  0  0  0  0  0
    2.7187   -7.0503   22.0593 H   0  0  0  0  0  0  0  0  0  0  0  0
    2.9264   -6.1109   23.5574 H   0  0  0  0  0  0  0  0  0  0  0  0
    6.1742   -7.4355   24.2748 H   0  0  0  0  0  0  0  0  0  0  0  0
    5.7022   -8.7538   23.1706 H   0  0  0  0  0  0  0  0  0  0  0  0
    7.1088   -7.2364   21.6351 H   0  0  0  0  0  0  0  0  0  0  0  0
    9.3192   -5.4757   22.3792 H   0  0  0  0  0  0  0  0  0  0  0  0
    8.2436   -1.0112   23.3272 H   0  0  0  0  0  0  0  0  0  0  0  0
    6.8975   -1.6551   21.0614 H   0  0  0  0  0  0  0  0  0  0  0  0
    8.7935   -2.8443   21.1155 H   0  0  0  0  0  0  0  0  0  0  0  0
  1  2  1  0  0  0  0
  1  4  2  0  0  0  0
  2  5  2  0  0  0  0
  3  6  2  0  0  0  0
  3  7  1  0  0  0  0
  4 11  1  0  0  0  0
  5 12  1  0  0  0  0
  6 13  1  0  0  0  0
  7 15  2  0  0  0  0
  8 13  2  0  0  0  0
  8 15  1  0  0  0  0
  9 11  2  0  0  0  0
  9 27  1  0  0  0  0
 10 14  1  0  0  0  0
 10 27  2  0  0  0  0
 11 12  1  0  0  0  0
 12 14  2  0  0  0  0
 13 26  1  0  0  0  0
 14 29  1  0  0  0  0
 15 35  1  0  0  0  0
 16 24  1  0  0  0  0
 16 28  1  0  0  0  0
 16 31  2  0  0  0  0
 17 25  1  0  0  0  0
 17 30  1  0  0  0  0
 17 32  2  0  0  0  0
 18 26  1  0  0  0  0
 18 29  1  0  0  0  0
 18 33  2  0  0  0  0
 19 20  1  0  0  0  0
 19 22  1  0  0  0  0
 20 23  1  0  0  0  0
 21 24  1  0  0  0  0
 21 25  1  0  0  0  0
 22 28  1  0  0  0  0
 23 28  1  0  0  0  0
 24 34  1  0  0  0  0
 25 34  1  0  0  0  0
 26 30  1  0  0  0  0
  1 36  1  0  0  0  0
  2 37  1  0  0  0  0
  3 38  1  0  0  0  0
  4 39  1  0  0  0  0
  5 40  1  0  0  0  0
  6 41  1  0  0  0  0
  7 42  1  0  0  0  0
  8 43  1  0  0  0  0
  9 44  1  0  0  0  0
 10 45  1  0  0  0  0
 19 46  1  0  0  0  0
 19 47  1  0  0  0  0
 20 48  1  0  0  0  0
 20 49  1  0  0  0  0
 21 50  1  0  0  0  0
 21 51  1  0  0  0  0
 22 52  1  0  0  0  0
 22 53  1  0  0  0  0
 23 54  1  0  0  0  0
 23 55  1  0  0  0  0
 24 56  1  0  0  0  0
 25 57  1  0  0  0  0
 26 58  1  0  0  0  0
 29 59  1  0  0  0  0
 30 60  1  0  0  0  0
M  END
> <compound>
PET-UNK-1320d94d-8

> <compound_smiles>
c1ccc2c(c1)cncc2NC(=O)[C@H](c3cccc(c3)Cl)NC(=O)[C@@H]4C[C@@H](O4)C(=O)N5CCCC5

> <enantiomer_smiles>
c1ccc2c(c1)cncc2NC(=O)[C@H](c3cccc(c3)Cl)NC(=O)[C@@H]4C[C@@H](O4)C(=O)N5CCCC5

> <scaffold>
chlorobenzene-linker

> <clash_score>
0

> <docking_score>
-2.1305341720581055

> <overlap_score>
0.8838468194007874

> <MMFF_internal_energy>
151.75546881114852

> <docked_smiles>
c1ccc2c(c1)cncc2NC(=O)[C@H](c3cccc(c3)Cl)NC(=O)[C@@H]4C[C@@H](O4)C(=O)N5CCCC5

$$$$
PET-UNK-7f7e354d-7_1
  -OEChem-07262101023D

 31 33  0     0  0  0  0  0  0999 V2000
   11.9780    0.4600   23.9150 C   0  0  0  0  0  0  0  0  0  0  0  0
   10.6560    0.0720   23.7350 C   0  0  0  0  0  0  0  0  0  0  0  0
   12.9840   -0.1200   23.1530 C   0  0  0  0  0  0  0  0  0  0  0  0
    4.2438    0.1492   20.7142 C   0  0  0  0  0  0  0  0  0  0  0  0
   11.3360   -1.5050   22.0650 C   0  0  0  0  0  0  0  0  0  0  0  0
    7.2027   -0.0219   18.3937 C   0  0  0  0  0  0  0  0  0  0  0  0
    5.3081    0.8893   17.3816 C   0  0  0  0  0  0  0  0  0  0  0  0
    3.1138    0.6836   20.1385 C   0  0  0  0  0  0  0  0  0  0  0  0
    5.2480    0.1605   19.7108 C   0  0  0  0  0  0  0  0  0  0  0  0
   10.3220   -0.8940   22.7910 C   0  0  0  0  0  0  0  0  0  0  0  0
    6.5902   -0.2276   19.6260 C   0  0  0  0  0  0  0  0  0  0  0  0
    4.6459    0.7085   18.5835 C   0  0  0  0  0  0  0  0  0  0  0  0
   12.6400   -1.1000   22.2390 C   0  0  0  0  0  0  0  0  0  0  0  0
    8.3880   -0.3240   21.3070 C   0  0  0  0  0  0  0  0  0  0  0  0
    8.8810   -1.1900   22.4510 C   0  0  0  0  0  0  0  0  0  0  0  0
    6.6067    0.5137   17.2994 N   0  0  0  0  0  0  0  0  0  0  0  0
    7.2820   -0.7860   20.6970 N   0  0  0  0  0  0  0  0  0  0  0  0
    8.9170    0.7530   21.0260 O   0  0  0  0  0  0  0  0  0  0  0  0
    3.3483    1.0263   18.8444 O   0  0  0  0  0  0  0  0  0  0  0  0
   13.8840   -1.8490   21.2740 Cl  0  0  0  0  0  0  0  0  0  0  0  0
   12.2249    1.2198   24.6546 H   0  0  0  0  0  0  0  0  0  0  0  0
    9.8763    0.5350   24.3454 H   0  0  0  0  0  0  0  0  0  0  0  0
   14.0077    0.1988   23.2842 H   0  0  0  0  0  0  0  0  0  0  0  0
    4.3305   -0.2051   21.7318 H   0  0  0  0  0  0  0  0  0  0  0  0
   11.0892   -2.3009   21.3624 H   0  0  0  0  0  0  0  0  0  0  0  0
    8.2438   -0.2953   18.2413 H   0  0  0  0  0  0  0  0  0  0  0  0
    4.8502    1.3148   16.4995 H   0  0  0  0  0  0  0  0  0  0  0  0
    2.1140    0.8783   20.4982 H   0  0  0  0  0  0  0  0  0  0  0  0
    8.7774   -2.2383   22.1732 H   0  0  0  0  0  0  0  0  0  0  0  0
    8.2557   -1.0153   23.3257 H   0  0  0  0  0  0  0  0  0  0  0  0
    6.8984   -1.6641   21.0695 H   0  0  0  0  0  0  0  0  0  0  0  0
  1  2  1  0  0  0  0
  1  3  2  0  0  0  0
  2 10  2  0  0  0  0
  3 13  1  0  0  0  0
  4  8  2  0  0  0  0
  4  9  1  0  0  0  0
  5 10  1  0  0  0  0
  5 13  2  0  0  0  0
  6 11  1  0  0  0  0
  6 16  2  0  0  0  0
  7 12  2  0  0  0  0
  7 16  1  0  0  0  0
  8 19  1  0  0  0  0
  9 11  2  0  0  0  0
  9 12  1  0  0  0  0
 10 15  1  0  0  0  0
 11 17  1  0  0  0  0
 12 19  1  0  0  0  0
 13 20  1  0  0  0  0
 14 15  1  0  0  0  0
 14 17  1  0  0  0  0
 14 18  2  0  0  0  0
  1 21  1  0  0  0  0
  2 22  1  0  0  0  0
  3 23  1  0  0  0  0
  4 24  1  0  0  0  0
  5 25  1  0  0  0  0
  6 26  1  0  0  0  0
  7 27  1  0  0  0  0
  8 28  1  0  0  0  0
 15 29  1  0  0  0  0
 15 30  1  0  0  0  0
 17 31  1  0  0  0  0
M  END
> <compound>
PET-UNK-7f7e354d-7

> <compound_smiles>
c1cc(cc(c1)Cl)CC(=O)Nc2cncc3c2cco3

> <enantiomer_smiles>
c1cc(cc(c1)Cl)CC(=O)Nc2cncc3c2cco3

> <scaffold>
chlorobenzene-linker

> <clash_score>
0

> <docking_score>
-6.951895713806152

> <overlap_score>
0.8817248344421387

> <MMFF_internal_energy>
80.83620745601307

> <docked_smiles>
c1cc(cc(c1)Cl)CC(=O)Nc2cncc3c2cco3

$$$$
PET-UNK-1320d94d-3_1
  -OEChem-07262101023D

 64 68  0     1  0  0  0  0  0999 V2000
    2.4462   -0.6171   18.9969 C   0  0  0  0  0  0  0  0  0  0  0  0
    3.0435   -1.2247   20.0988 C   0  0  0  0  0  0  0  0  0  0  0  0
   11.9780    0.4600   23.9150 C   0  0  0  0  0  0  0  0  0  0  0  0
    3.2197    0.1230   18.1029 C   0  0  0  0  0  0  0  0  0  0  0  0
    4.4170   -1.0949   20.3118 C   0  0  0  0  0  0  0  0  0  0  0  0
   10.6560    0.0720   23.7350 C   0  0  0  0  0  0  0  0  0  0  0  0
   12.9840   -0.1200   23.1530 C   0  0  0  0  0  0  0  0  0  0  0  0
   11.3360   -1.5050   22.0650 C   0  0  0  0  0  0  0  0  0  0  0  0
    5.4239    0.9890   17.4449 C   0  0  0  0  0  0  0  0  0  0  0  0
    7.3052    0.5430   18.6845 C   0  0  0  0  0  0  0  0  0  0  0  0
    4.6027    0.2602   18.3073 C   0  0  0  0  0  0  0  0  0  0  0  0
    5.2111   -0.3534   19.4218 C   0  0  0  0  0  0  0  0  0  0  0  0
   10.3220   -0.8940   22.7910 C   0  0  0  0  0  0  0  0  0  0  0  0
    6.5904   -0.2048   19.6077 C   0  0  0  0  0  0  0  0  0  0  0  0
   12.6400   -1.1000   22.2390 C   0  0  0  0  0  0  0  0  0  0  0  0
    5.4047   -4.5852   26.2576 C   0  0  0  0  0  0  0  0  0  0  0  0
    7.7908   -1.9631   24.5479 C   0  0  0  0  0  0  0  0  0  0  0  0
    8.3880   -0.3240   21.3070 C   0  0  0  0  0  0  0  0  0  0  0  0
    7.0958   -3.1269   27.3916 C   0  0  0  0  0  0  0  0  0  0  0  0
    7.5349   -1.7310   27.0182 C   0  0  0  0  0  0  0  0  0  0  0  0
    4.9755   -6.9568   26.8166 C   0  0  0  0  0  0  0  0  0  0  0  0
    5.3091   -5.3758   28.6719 C   0  0  0  0  0  0  0  0  0  0  0  0
    5.8691   -7.9403   27.5587 C   0  0  0  0  0  0  0  0  0  0  0  0
    6.1852   -6.4283   29.3397 C   0  0  0  0  0  0  0  0  0  0  0  0
    5.7235   -3.2160   26.7565 C   0  0  1  0  0  0  0  0  0  0  0  0
    6.8920   -1.5280   25.6616 C   0  0  2  0  0  0  0  0  0  0  0  0
    8.8810   -1.1900   22.4510 C   0  0  1  0  0  0  0  0  0  0  0  0
    6.7573    1.1443   17.6071 N   0  0  0  0  0  0  0  0  0  0  0  0
    5.2821   -5.5846   27.2204 N   0  0  0  0  0  0  0  0  0  0  0  0
    7.2820   -0.7860   20.6970 N   0  0  0  0  0  0  0  0  0  0  0  0
    8.0374   -0.9810   23.6076 N   0  0  0  0  0  0  0  0  0  0  0  0
    5.2703   -4.7718   25.0456 O   0  0  0  0  0  0  0  0  0  0  0  0
    8.2324   -3.1061   24.5393 O   0  0  0  0  0  0  0  0  0  0  0  0
    8.9170    0.7530   21.0260 O   0  0  0  0  0  0  0  0  0  0  0  0
    5.7566   -7.7416   28.9703 O   0  0  0  0  0  0  0  0  0  0  0  0
    5.7344   -2.3626   25.6074 O   0  0  0  0  0  0  0  0  0  0  0  0
   13.8840   -1.8490   21.2740 Cl  0  0  0  0  0  0  0  0  0  0  0  0
    1.3775   -0.7199   18.8335 H   0  0  0  0  0  0  0  0  0  0  0  0
    2.4393   -1.8009   20.7937 H   0  0  0  0  0  0  0  0  0  0  0  0
   12.2249    1.2198   24.6546 H   0  0  0  0  0  0  0  0  0  0  0  0
    2.7372    0.5907   17.2477 H   0  0  0  0  0  0  0  0  0  0  0  0
    4.8464   -1.5833   21.1836 H   0  0  0  0  0  0  0  0  0  0  0  0
    9.8763    0.5350   24.3454 H   0  0  0  0  0  0  0  0  0  0  0  0
   14.0077    0.1988   23.2842 H   0  0  0  0  0  0  0  0  0  0  0  0
   11.0892   -2.3008   21.3624 H   0  0  0  0  0  0  0  0  0  0  0  0
    5.0196    1.4865   16.5675 H   0  0  0  0  0  0  0  0  0  0  0  0
    8.3773    0.6873   18.7839 H   0  0  0  0  0  0  0  0  0  0  0  0
    7.7906   -3.8660   26.9719 H   0  0  0  0  0  0  0  0  0  0  0  0
    7.0644   -3.2904   28.4742 H   0  0  0  0  0  0  0  0  0  0  0  0
    7.1128   -1.0164   27.7351 H   0  0  0  0  0  0  0  0  0  0  0  0
    8.6222   -1.6110   27.0194 H   0  0  0  0  0  0  0  0  0  0  0  0
    5.0820   -7.0844   25.7353 H   0  0  0  0  0  0  0  0  0  0  0  0
    3.9246   -7.1295   27.0772 H   0  0  0  0  0  0  0  0  0  0  0  0
    4.2729   -5.4749   29.0160 H   0  0  0  0  0  0  0  0  0  0  0  0
    5.6586   -4.3774   28.9396 H   0  0  0  0  0  0  0  0  0  0  0  0
    5.5546   -8.9661   27.3422 H   0  0  0  0  0  0  0  0  0  0  0  0
    6.9178   -7.8420   27.2538 H   0  0  0  0  0  0  0  0  0  0  0  0
    7.2418   -6.2974   29.0776 H   0  0  0  0  0  0  0  0  0  0  0  0
    6.1003   -6.3465   30.4280 H   0  0  0  0  0  0  0  0  0  0  0  0
    4.9310   -2.8819   27.4316 H   0  0  0  0  0  0  0  0  0  0  0  0
    6.6083   -0.4861   25.4890 H   0  0  0  0  0  0  0  0  0  0  0  0
    8.7711   -2.2448   22.1651 H   0  0  0  0  0  0  0  0  0  0  0  0
    6.8975   -1.6551   21.0614 H   0  0  0  0  0  0  0  0  0  0  0  0
    7.6050   -0.0708   23.7344 H   0  0  0  0  0  0  0  0  0  0  0  0
  1  2  1  0  0  0  0
  1  4  2  0  0  0  0
  2  5  2  0  0  0  0
  3  6  2  0  0  0  0
  3  7  1  0  0  0  0
  4 11  1  0  0  0  0
  5 12  1  0  0  0  0
  6 13  1  0  0  0  0
  7 15  2  0  0  0  0
  8 13  2  0  0  0  0
  8 15  1  0  0  0  0
  9 11  2  0  0  0  0
  9 28  1  0  0  0  0
 10 14  1  0  0  0  0
 10 28  2  0  0  0  0
 11 12  1  0  0  0  0
 12 14  2  0  0  0  0
 13 27  1  0  0  0  0
 14 30  1  0  0  0  0
 15 37  1  0  0  0  0
 16 25  1  0  0  0  0
 16 29  1  0  0  0  0
 16 32  2  0  0  0  0
 17 26  1  0  0  0  0
 17 31  1  0  0  0  0
 17 33  2  0  0  0  0
 18 27  1  0  0  0  0
 18 30  1  0  0  0  0
 18 34  2  0  0  0  0
 19 20  1  0  0  0  0
 19 25  1  0  0  0  0
 20 26  1  0  0  0  0
 21 23  1  0  0  0  0
 21 29  1  0  0  0  0
 22 24  1  0  0  0  0
 22 29  1  0  0  0  0
 23 35  1  0  0  0  0
 24 35  1  0  0  0  0
 25 36  1  0  0  0  0
 26 36  1  0  0  0  0
 27 31  1  0  0  0  0
  1 38  1  0  0  0  0
  2 39  1  0  0  0  0
  3 40  1  0  0  0  0
  4 41  1  0  0  0  0
  5 42  1  0  0  0  0
  6 43  1  0  0  0  0
  7 44  1  0  0  0  0
  8 45  1  0  0  0  0
  9 46  1  0  0  0  0
 10 47  1  0  0  0  0
 19 48  1  0  0  0  0
 19 49  1  0  0  0  0
 20 50  1  0  0  0  0
 20 51  1  0  0  0  0
 21 52  1  0  0  0  0
 21 53  1  0  0  0  0
 22 54  1  0  0  0  0
 22 55  1  0  0  0  0
 23 56  1  0  0  0  0
 23 57  1  0  0  0  0
 24 58  1  0  0  0  0
 24 59  1  0  0  0  0
 25 60  1  0  0  0  0
 26 61  1  0  0  0  0
 27 62  1  0  0  0  0
 30 63  1  0  0  0  0
 31 64  1  0  0  0  0
M  END
> <compound>
PET-UNK-1320d94d-3

> <compound_smiles>
c1ccc2c(c1)cncc2NC(=O)[C@@H](c3cccc(c3)Cl)NC(=O)[C@@H]4CC[C@@H](O4)C(=O)N5CCOCC5

> <enantiomer_smiles>
c1ccc2c(c1)cncc2NC(=O)[C@@H](c3cccc(c3)Cl)NC(=O)[C@@H]4CC[C@@H](O4)C(=O)N5CCOCC5

> <scaffold>
chlorobenzene-linker

> <clash_score>
7.591273095001368

> <docking_score>
0.26199984550476074

> <overlap_score>
0.7676877975463867

> <MMFF_internal_energy>
208.902300393363

> <docked_smiles>
c1ccc2c(c1)cncc2NC(=O)[C@@H](c3cccc(c3)Cl)NC(=O)[C@@H]4CC[C@@H](O4)C(=O)N5CCOCC5

$$$$
PET-UNK-1320d94d-9_1
  -OEChem-07262101023D

 66 70  0     1  0  0  0  0  0999 V2000
    2.5650    1.0119   19.7905 C   0  0  0  0  0  0  0  0  0  0  0  0
    3.1657    0.4486   20.9139 C   0  0  0  0  0  0  0  0  0  0  0  0
   11.9780    0.4600   23.9150 C   0  0  0  0  0  0  0  0  0  0  0  0
    3.2959    1.1705   18.6133 C   0  0  0  0  0  0  0  0  0  0  0  0
    4.5001    0.0414   20.8653 C   0  0  0  0  0  0  0  0  0  0  0  0
   10.6560    0.0720   23.7350 C   0  0  0  0  0  0  0  0  0  0  0  0
   12.9840   -0.1200   23.1530 C   0  0  0  0  0  0  0  0  0  0  0  0
   11.3360   -1.5050   22.0650 C   0  0  0  0  0  0  0  0  0  0  0  0
    5.4171    0.8995   17.4014 C   0  0  0  0  0  0  0  0  0  0  0  0
    7.2639   -0.0211   18.4097 C   0  0  0  0  0  0  0  0  0  0  0  0
    4.6393    0.7642   18.5530 C   0  0  0  0  0  0  0  0  0  0  0  0
    5.2510    0.1935   19.6882 C   0  0  0  0  0  0  0  0  0  0  0  0
   10.3220   -0.8940   22.7910 C   0  0  0  0  0  0  0  0  0  0  0  0
    6.5904   -0.2048   19.6077 C   0  0  0  0  0  0  0  0  0  0  0  0
   12.6400   -1.1000   22.2390 C   0  0  0  0  0  0  0  0  0  0  0  0
    4.5474   -3.7535   27.2758 C   0  0  0  0  0  0  0  0  0  0  0  0
    7.7881   -1.9600   24.5503 C   0  0  0  0  0  0  0  0  0  0  0  0
    8.3880   -0.3240   21.3070 C   0  0  0  0  0  0  0  0  0  0  0  0
    6.7949   -0.7533   28.0431 C   0  0  0  0  0  0  0  0  0  0  0  0
    0.9478   -4.4827   27.0950 C   0  0  0  0  0  0  0  0  0  0  0  0
    1.0469   -3.2829   26.1613 C   0  0  0  0  0  0  0  0  0  0  0  0
    5.9356   -1.9813   28.3280 C   0  0  0  0  0  0  0  0  0  0  0  0
    7.7016   -1.0027   26.8418 C   0  0  0  0  0  0  0  0  0  0  0  0
    2.3849   -4.9751   27.1661 C   0  0  0  0  0  0  0  0  0  0  0  0
    2.3738   -2.6507   26.5575 C   0  0  0  0  0  0  0  0  0  0  0  0
    5.2270   -2.4423   27.0594 C   0  0  1  0  0  0  0  0  0  0  0  0
    6.8908   -1.5212   25.6595 C   0  0  2  0  0  0  0  0  0  0  0  0
    8.8810   -1.1900   22.4510 C   0  0  1  0  0  0  0  0  0  0  0  0
    6.7116    0.5212   17.3036 N   0  0  0  0  0  0  0  0  0  0  0  0
    3.1901   -3.7726   27.0108 N   0  0  0  0  0  0  0  0  0  0  0  0
    7.2820   -0.7860   20.6970 N   0  0  0  0  0  0  0  0  0  0  0  0
    8.0374   -0.9810   23.6076 N   0  0  0  0  0  0  0  0  0  0  0  0
    5.1885   -4.7328   27.6602 O   0  0  0  0  0  0  0  0  0  0  0  0
    8.2276   -3.1039   24.5453 O   0  0  0  0  0  0  0  0  0  0  0  0
    8.9170    0.7530   21.0260 O   0  0  0  0  0  0  0  0  0  0  0  0
    6.1626   -2.6939   26.0141 O   0  0  0  0  0  0  0  0  0  0  0  0
   13.8840   -1.8490   21.2740 Cl  0  0  0  0  0  0  0  0  0  0  0  0
    1.5267    1.3276   19.8311 H   0  0  0  0  0  0  0  0  0  0  0  0
    2.5946    0.3257   21.8298 H   0  0  0  0  0  0  0  0  0  0  0  0
   12.2249    1.2198   24.6546 H   0  0  0  0  0  0  0  0  0  0  0  0
    2.8114    1.6119   17.7455 H   0  0  0  0  0  0  0  0  0  0  0  0
    4.9338   -0.3933   21.7630 H   0  0  0  0  0  0  0  0  0  0  0  0
    9.8763    0.5350   24.3454 H   0  0  0  0  0  0  0  0  0  0  0  0
   14.0077    0.1988   23.2842 H   0  0  0  0  0  0  0  0  0  0  0  0
   11.0892   -2.3009   21.3624 H   0  0  0  0  0  0  0  0  0  0  0  0
    5.0078    1.3308   16.4920 H   0  0  0  0  0  0  0  0  0  0  0  0
    8.3038   -0.3142   18.2963 H   0  0  0  0  0  0  0  0  0  0  0  0
    6.1454    0.1064   27.8374 H   0  0  0  0  0  0  0  0  0  0  0  0
    7.3957   -0.5004   28.9235 H   0  0  0  0  0  0  0  0  0  0  0  0
    0.6059   -4.1630   28.0864 H   0  0  0  0  0  0  0  0  0  0  0  0
    0.2612   -5.2466   26.7197 H   0  0  0  0  0  0  0  0  0  0  0  0
    1.0829   -3.6182   25.1180 H   0  0  0  0  0  0  0  0  0  0  0  0
    0.2048   -2.5949   26.2767 H   0  0  0  0  0  0  0  0  0  0  0  0
    6.5875   -2.7807   28.7043 H   0  0  0  0  0  0  0  0  0  0  0  0
    5.2090   -1.7633   29.1189 H   0  0  0  0  0  0  0  0  0  0  0  0
    8.2366   -0.0854   26.5707 H   0  0  0  0  0  0  0  0  0  0  0  0
    8.4607   -1.7425   27.1282 H   0  0  0  0  0  0  0  0  0  0  0  0
    2.6199   -5.4841   28.1056 H   0  0  0  0  0  0  0  0  0  0  0  0
    2.6231   -5.6448   26.3323 H   0  0  0  0  0  0  0  0  0  0  0  0
    2.8530   -2.1226   25.7288 H   0  0  0  0  0  0  0  0  0  0  0  0
    2.2530   -1.9622   27.4008 H   0  0  0  0  0  0  0  0  0  0  0  0
    4.4833   -1.7102   26.7207 H   0  0  0  0  0  0  0  0  0  0  0  0
    6.2038   -0.7609   25.2707 H   0  0  0  0  0  0  0  0  0  0  0  0
    8.7711   -2.2448   22.1651 H   0  0  0  0  0  0  0  0  0  0  0  0
    6.8975   -1.6551   21.0614 H   0  0  0  0  0  0  0  0  0  0  0  0
    7.6066   -0.0697   23.7315 H   0  0  0  0  0  0  0  0  0  0  0  0
  1  2  1  0  0  0  0
  1  4  2  0  0  0  0
  2  5  2  0  0  0  0
  3  6  2  0  0  0  0
  3  7  1  0  0  0  0
  4 11  1  0  0  0  0
  5 12  1  0  0  0  0
  6 13  1  0  0  0  0
  7 15  2  0  0  0  0
  8 13  2  0  0  0  0
  8 15  1  0  0  0  0
  9 11  2  0  0  0  0
  9 29  1  0  0  0  0
 10 14  1  0  0  0  0
 10 29  2  0  0  0  0
 11 12  1  0  0  0  0
 12 14  2  0  0  0  0
 13 28  1  0  0  0  0
 14 31  1  0  0  0  0
 15 37  1  0  0  0  0
 16 26  1  0  0  0  0
 16 30  1  0  0  0  0
 16 33  2  0  0  0  0
 17 27  1  0  0  0  0
 17 32  1  0  0  0  0
 17 34  2  0  0  0  0
 18 28  1  0  0  0  0
 18 31  1  0  0  0  0
 18 35  2  0  0  0  0
 19 22  1  0  0  0  0
 19 23  1  0  0  0  0
 20 21  1  0  0  0  0
 20 24  1  0  0  0  0
 21 25  1  0  0  0  0
 22 26  1  0  0  0  0
 23 27  1  0  0  0  0
 24 30  1  0  0  0  0
 25 30  1  0  0  0  0
 26 36  1  0  0  0  0
 27 36  1  0  0  0  0
 28 32  1  0  0  0  0
  1 38  1  0  0  0  0
  2 39  1  0  0  0  0
  3 40  1  0  0  0  0
  4 41  1  0  0  0  0
  5 42  1  0  0  0  0
  6 43  1  0  0  0  0
  7 44  1  0  0  0  0
  8 45  1  0  0  0  0
  9 46  1  0  0  0  0
 10 47  1  0  0  0  0
 19 48  1  0  0  0  0
 19 49  1  0  0  0  0
 20 50  1  0  0  0  0
 20 51  1  0  0  0  0
 21 52  1  0  0  0  0
 21 53  1  0  0  0  0
 22 54  1  0  0  0  0
 22 55  1  0  0  0  0
 23 56  1  0  0  0  0
 23 57  1  0  0  0  0
 24 58  1  0  0  0  0
 24 59  1  0  0  0  0
 25 60  1  0  0  0  0
 25 61  1  0  0  0  0
 26 62  1  0  0  0  0
 27 63  1  0  0  0  0
 28 64  1  0  0  0  0
 31 65  1  0  0  0  0
 32 66  1  0  0  0  0
M  END
> <compound>
PET-UNK-1320d94d-9

> <compound_smiles>
c1ccc2c(c1)cncc2NC(=O)[C@@H](c3cccc(c3)Cl)NC(=O)[C@@H]4CCC[C@@H](O4)C(=O)N5CCCC5

> <enantiomer_smiles>
c1ccc2c(c1)cncc2NC(=O)[C@@H](c3cccc(c3)Cl)NC(=O)[C@@H]4CCC[C@@H](O4)C(=O)N5CCCC5

> <scaffold>
chlorobenzene-linker

> <clash_score>
0

> <docking_score>
-3.7942538261413574

> <overlap_score>
0.8794968128204346

> <MMFF_internal_energy>
180.42150980675243

> <docked_smiles>
c1ccc2c(c1)cncc2NC(=O)[C@@H](c3cccc(c3)Cl)NC(=O)[C@@H]4CCC[C@@H](O4)C(=O)N5CCCC5

$$$$
PET-UNK-1320d94d-10_1
  -OEChem-07262101023D

 66 70  0     1  0  0  0  0  0999 V2000
    2.5650    1.0119   19.7905 C   0  0  0  0  0  0  0  0  0  0  0  0
    3.1657    0.4486   20.9139 C   0  0  0  0  0  0  0  0  0  0  0  0
   11.9780    0.4600   23.9150 C   0  0  0  0  0  0  0  0  0  0  0  0
    3.2959    1.1705   18.6133 C   0  0  0  0  0  0  0  0  0  0  0  0
    4.5001    0.0414   20.8653 C   0  0  0  0  0  0  0  0  0  0  0  0
   10.6560    0.0720   23.7350 C   0  0  0  0  0  0  0  0  0  0  0  0
   12.9840   -0.1200   23.1530 C   0  0  0  0  0  0  0  0  0  0  0  0
   11.3360   -1.5050   22.0650 C   0  0  0  0  0  0  0  0  0  0  0  0
    5.4171    0.8995   17.4014 C   0  0  0  0  0  0  0  0  0  0  0  0
    7.2639   -0.0211   18.4097 C   0  0  0  0  0  0  0  0  0  0  0  0
    4.6393    0.7642   18.5530 C   0  0  0  0  0  0  0  0  0  0  0  0
    5.2510    0.1935   19.6882 C   0  0  0  0  0  0  0  0  0  0  0  0
   10.3220   -0.8940   22.7910 C   0  0  0  0  0  0  0  0  0  0  0  0
    6.5904   -0.2048   19.6077 C   0  0  0  0  0  0  0  0  0  0  0  0
   12.6400   -1.1000   22.2390 C   0  0  0  0  0  0  0  0  0  0  0  0
   10.6551   -7.6234   23.1840 C   0  0  0  0  0  0  0  0  0  0  0  0
    8.4779   -3.5761   23.0235 C   0  0  0  0  0  0  0  0  0  0  0  0
    8.3880   -0.3240   21.3070 C   0  0  0  0  0  0  0  0  0  0  0  0
    6.9627   -7.0294   22.3750 C   0  0  0  0  0  0  0  0  0  0  0  0
   14.1801   -6.6405   22.8237 C   0  0  0  0  0  0  0  0  0  0  0  0
   13.4793   -5.3265   22.5021 C   0  0  0  0  0  0  0  0  0  0  0  0
    8.1920   -7.7717   22.8899 C   0  0  0  0  0  0  0  0  0  0  0  0
    7.0052   -5.5652   22.8012 C   0  0  0  0  0  0  0  0  0  0  0  0
   13.1048   -7.4259   23.5585 C   0  0  0  0  0  0  0  0  0  0  0  0
   12.0622   -5.7688   22.1655 C   0  0  0  0  0  0  0  0  0  0  0  0
    9.4644   -7.0195   22.5166 C   0  0  1  0  0  0  0  0  0  0  0  0
    8.3467   -4.9410   22.4338 C   0  0  2  0  0  0  0  0  0  0  0  0
    8.8810   -1.1900   22.4510 C   0  0  2  0  0  0  0  0  0  0  0  0
    6.7116    0.5212   17.3036 N   0  0  0  0  0  0  0  0  0  0  0  0
   11.8540   -6.9673   22.9722 N   0  0  0  0  0  0  0  0  0  0  0  0
    7.2820   -0.7860   20.6970 N   0  0  0  0  0  0  0  0  0  0  0  0
    8.7221   -2.5829   22.0943 N   0  0  0  0  0  0  0  0  0  0  0  0
   10.5364   -8.6367   23.8747 O   0  0  0  0  0  0  0  0  0  0  0  0
    8.3650   -3.4278   24.2346 O   0  0  0  0  0  0  0  0  0  0  0  0
    8.9170    0.7530   21.0260 O   0  0  0  0  0  0  0  0  0  0  0  0
    9.4262   -5.6793   23.0001 O   0  0  0  0  0  0  0  0  0  0  0  0
   13.8840   -1.8490   21.2740 Cl  0  0  0  0  0  0  0  0  0  0  0  0
    1.5267    1.3276   19.8311 H   0  0  0  0  0  0  0  0  0  0  0  0
    2.5946    0.3257   21.8297 H   0  0  0  0  0  0  0  0  0  0  0  0
   12.2249    1.2198   24.6546 H   0  0  0  0  0  0  0  0  0  0  0  0
    2.8114    1.6119   17.7455 H   0  0  0  0  0  0  0  0  0  0  0  0
    4.9338   -0.3933   21.7630 H   0  0  0  0  0  0  0  0  0  0  0  0
    9.8763    0.5350   24.3454 H   0  0  0  0  0  0  0  0  0  0  0  0
   14.0077    0.1988   23.2842 H   0  0  0  0  0  0  0  0  0  0  0  0
   11.0892   -2.3008   21.3624 H   0  0  0  0  0  0  0  0  0  0  0  0
    5.0078    1.3308   16.4920 H   0  0  0  0  0  0  0  0  0  0  0  0
    8.3038   -0.3142   18.2963 H   0  0  0  0  0  0  0  0  0  0  0  0
    6.9324   -7.0897   21.2801 H   0  0  0  0  0  0  0  0  0  0  0  0
    6.0499   -7.5053   22.7496 H   0  0  0  0  0  0  0  0  0  0  0  0
   14.4612   -7.1556   21.8976 H   0  0  0  0  0  0  0  0  0  0  0  0
   15.0798   -6.4954   23.4280 H   0  0  0  0  0  0  0  0  0  0  0  0
   13.4741   -4.6755   23.3844 H   0  0  0  0  0  0  0  0  0  0  0  0
   13.9573   -4.7907   21.6774 H   0  0  0  0  0  0  0  0  0  0  0  0
    8.1138   -7.8562   23.9818 H   0  0  0  0  0  0  0  0  0  0  0  0
    8.2158   -8.7925   22.4918 H   0  0  0  0  0  0  0  0  0  0  0  0
    6.1812   -5.0094   22.3395 H   0  0  0  0  0  0  0  0  0  0  0  0
    6.8545   -5.5160   23.8877 H   0  0  0  0  0  0  0  0  0  0  0  0
   13.2130   -8.5092   23.4505 H   0  0  0  0  0  0  0  0  0  0  0  0
   13.0828   -7.1776   24.6254 H   0  0  0  0  0  0  0  0  0  0  0  0
   11.3161   -5.0034   22.3951 H   0  0  0  0  0  0  0  0  0  0  0  0
   11.9718   -6.0544   21.1119 H   0  0  0  0  0  0  0  0  0  0  0  0
    9.6307   -7.0160   21.4321 H   0  0  0  0  0  0  0  0  0  0  0  0
    8.4779   -4.8648   21.3483 H   0  0  0  0  0  0  0  0  0  0  0  0
    8.2436   -1.0112   23.3272 H   0  0  0  0  0  0  0  0  0  0  0  0
    6.8975   -1.6551   21.0614 H   0  0  0  0  0  0  0  0  0  0  0  0
    8.7917   -2.8434   21.1152 H   0  0  0  0  0  0  0  0  0  0  0  0
  1  2  1  0  0  0  0
  1  4  2  0  0  0  0
  2  5  2  0  0  0  0
  3  6  2  0  0  0  0
  3  7  1  0  0  0  0
  4 11  1  0  0  0  0
  5 12  1  0  0  0  0
  6 13  1  0  0  0  0
  7 15  2  0  0  0  0
  8 13  2  0  0  0  0
  8 15  1  0  0  0  0
  9 11  2  0  0  0  0
  9 29  1  0  0  0  0
 10 14  1  0  0  0  0
 10 29  2  0  0  0  0
 11 12  1  0  0  0  0
 12 14  2  0  0  0  0
 13 28  1  0  0  0  0
 14 31  1  0  0  0  0
 15 37  1  0  0  0  0
 16 26  1  0  0  0  0
 16 30  1  0  0  0  0
 16 33  2  0  0  0  0
 17 27  1  0  0  0  0
 17 32  1  0  0  0  0
 17 34  2  0  0  0  0
 18 28  1  0  0  0  0
 18 31  1  0  0  0  0
 18 35  2  0  0  0  0
 19 22  1  0  0  0  0
 19 23  1  0  0  0  0
 20 21  1  0  0  0  0
 20 24  1  0  0  0  0
 21 25  1  0  0  0  0
 22 26  1  0  0  0  0
 23 27  1  0  0  0  0
 24 30  1  0  0  0  0
 25 30  1  0  0  0  0
 26 36  1  0  0  0  0
 27 36  1  0  0  0  0
 28 32  1  0  0  0  0
  1 38  1  0  0  0  0
  2 39  1  0  0  0  0
  3 40  1  0  0  0  0
  4 41  1  0  0  0  0
  5 42  1  0  0  0  0
  6 43  1  0  0  0  0
  7 44  1  0  0  0  0
  8 45  1  0  0  0  0
  9 46  1  0  0  0  0
 10 47  1  0  0  0  0
 19 48  1  0  0  0  0
 19 49  1  0  0  0  0
 20 50  1  0  0  0  0
 20 51  1  0  0  0  0
 21 52  1  0  0  0  0
 21 53  1  0  0  0  0
 22 54  1  0  0  0  0
 22 55  1  0  0  0  0
 23 56  1  0  0  0  0
 23 57  1  0  0  0  0
 24 58  1  0  0  0  0
 24 59  1  0  0  0  0
 25 60  1  0  0  0  0
 25 61  1  0  0  0  0
 26 62  1  0  0  0  0
 27 63  1  0  0  0  0
 28 64  1  0  0  0  0
 31 65  1  0  0  0  0
 32 66  1  0  0  0  0
M  END
> <compound>
PET-UNK-1320d94d-10

> <compound_smiles>
c1ccc2c(c1)cncc2NC(=O)[C@H](c3cccc(c3)Cl)NC(=O)[C@@H]4CCC[C@@H](O4)C(=O)N5CCCC5

> <enantiomer_smiles>
c1ccc2c(c1)cncc2NC(=O)[C@H](c3cccc(c3)Cl)NC(=O)[C@@H]4CCC[C@@H](O4)C(=O)N5CCCC5

> <scaffold>
chlorobenzene-linker

> <clash_score>
18.09246687202151

> <docking_score>
2.3950512409210205

> <overlap_score>
0.8798839449882507

> <MMFF_internal_energy>
175.1507374898697

> <docked_smiles>
c1ccc2c(c1)cncc2NC(=O)[C@H](c3cccc(c3)Cl)NC(=O)[C@@H]4CCC[C@@H](O4)C(=O)N5CCCC5

$$$$
PET-UNK-1320d94d-23_1
  -OEChem-07262101023D

 67 71  0     1  0  0  0  0  0999 V2000
    2.4462   -0.6171   18.9969 C   0  0  0  0  0  0  0  0  0  0  0  0
    3.0435   -1.2247   20.0988 C   0  0  0  0  0  0  0  0  0  0  0  0
   11.9780    0.4600   23.9150 C   0  0  0  0  0  0  0  0  0  0  0  0
    3.2197    0.1230   18.1029 C   0  0  0  0  0  0  0  0  0  0  0  0
    4.4170   -1.0949   20.3118 C   0  0  0  0  0  0  0  0  0  0  0  0
   10.6560    0.0720   23.7350 C   0  0  0  0  0  0  0  0  0  0  0  0
   12.9840   -0.1200   23.1530 C   0  0  0  0  0  0  0  0  0  0  0  0
   11.3360   -1.5050   22.0650 C   0  0  0  0  0  0  0  0  0  0  0  0
    5.4239    0.9890   17.4449 C   0  0  0  0  0  0  0  0  0  0  0  0
    7.3052    0.5430   18.6845 C   0  0  0  0  0  0  0  0  0  0  0  0
    4.6027    0.2602   18.3073 C   0  0  0  0  0  0  0  0  0  0  0  0
    5.2111   -0.3534   19.4218 C   0  0  0  0  0  0  0  0  0  0  0  0
   10.3220   -0.8940   22.7910 C   0  0  0  0  0  0  0  0  0  0  0  0
    6.5904   -0.2048   19.6077 C   0  0  0  0  0  0  0  0  0  0  0  0
   12.6400   -1.1000   22.2390 C   0  0  0  0  0  0  0  0  0  0  0  0
    7.1833   -4.9442   27.0791 C   0  0  0  0  0  0  0  0  0  0  0  0
    7.7552   -1.9915   24.5400 C   0  0  0  0  0  0  0  0  0  0  0  0
    8.3880   -0.3240   21.3070 C   0  0  0  0  0  0  0  0  0  0  0  0
    6.7128   -4.9632   24.6192 C   0  0  0  0  0  0  0  0  0  0  0  0
    7.4516   -4.2451   23.5151 C   0  0  0  0  0  0  0  0  0  0  0  0
    5.7291   -5.9522   28.8083 C   0  0  0  0  0  0  0  0  0  0  0  0
    6.0912   -7.2128   26.7269 C   0  0  0  0  0  0  0  0  0  0  0  0
    4.2559   -6.3241   28.7197 C   0  0  0  0  0  0  0  0  0  0  0  0
    4.6026   -7.5369   26.7279 C   0  0  0  0  0  0  0  0  0  0  0  0
    7.7620   -5.0504   25.7083 C   0  0  1  0  0  0  0  0  0  0  0  0
    8.3820   -3.3239   24.2770 C   0  0  2  0  0  0  0  0  0  0  0  0
    7.4828    0.3658   23.7556 C   0  0  0  0  0  0  0  0  0  0  0  0
    8.8810   -1.1900   22.4510 C   0  0  2  0  0  0  0  0  0  0  0  0
    6.7573    1.1443   17.6071 N   0  0  0  0  0  0  0  0  0  0  0  0
    6.3428   -5.9801   27.4807 N   0  0  0  0  0  0  0  0  0  0  0  0
    7.2820   -0.7860   20.6970 N   0  0  0  0  0  0  0  0  0  0  0  0
    8.0284   -0.9787   23.6199 N   0  0  0  0  0  0  0  0  0  0  0  0
    7.4622   -3.9681   27.7799 O   0  0  0  0  0  0  0  0  0  0  0  0
    7.0404   -1.8485   25.5356 O   0  0  0  0  0  0  0  0  0  0  0  0
    8.9170    0.7530   21.0260 O   0  0  0  0  0  0  0  0  0  0  0  0
    4.1040   -7.5875   28.0673 O   0  0  0  0  0  0  0  0  0  0  0  0
    8.6287   -3.9222   25.5500 O   0  0  0  0  0  0  0  0  0  0  0  0
   13.8840   -1.8490   21.2740 Cl  0  0  0  0  0  0  0  0  0  0  0  0
    1.3775   -0.7199   18.8335 H   0  0  0  0  0  0  0  0  0  0  0  0
    2.4393   -1.8009   20.7937 H   0  0  0  0  0  0  0  0  0  0  0  0
   12.2249    1.2198   24.6546 H   0  0  0  0  0  0  0  0  0  0  0  0
    2.7372    0.5907   17.2477 H   0  0  0  0  0  0  0  0  0  0  0  0
    4.8464   -1.5833   21.1836 H   0  0  0  0  0  0  0  0  0  0  0  0
    9.8763    0.5350   24.3454 H   0  0  0  0  0  0  0  0  0  0  0  0
   14.0077    0.1988   23.2842 H   0  0  0  0  0  0  0  0  0  0  0  0
   11.0892   -2.3009   21.3624 H   0  0  0  0  0  0  0  0  0  0  0  0
    5.0196    1.4865   16.5675 H   0  0  0  0  0  0  0  0  0  0  0  0
    8.3773    0.6873   18.7839 H   0  0  0  0  0  0  0  0  0  0  0  0
    5.8417   -4.3746   24.9353 H   0  0  0  0  0  0  0  0  0  0  0  0
    6.3445   -5.9494   24.3167 H   0  0  0  0  0  0  0  0  0  0  0  0
    8.0415   -4.9721   22.9438 H   0  0  0  0  0  0  0  0  0  0  0  0
    6.7831   -3.7290   22.8197 H   0  0  0  0  0  0  0  0  0  0  0  0
    5.8482   -4.9718   29.2789 H   0  0  0  0  0  0  0  0  0  0  0  0
    6.2693   -6.6883   29.4154 H   0  0  0  0  0  0  0  0  0  0  0  0
    6.6496   -8.0054   27.2387 H   0  0  0  0  0  0  0  0  0  0  0  0
    6.4574   -7.1520   25.7007 H   0  0  0  0  0  0  0  0  0  0  0  0
    3.8340   -6.4174   29.7253 H   0  0  0  0  0  0  0  0  0  0  0  0
    3.6783   -5.5602   28.1855 H   0  0  0  0  0  0  0  0  0  0  0  0
    4.0306   -6.8025   26.1485 H   0  0  0  0  0  0  0  0  0  0  0  0
    4.4357   -8.5196   26.2756 H   0  0  0  0  0  0  0  0  0  0  0  0
    8.3604   -5.9627   25.6364 H   0  0  0  0  0  0  0  0  0  0  0  0
    9.3276   -3.1627   23.7518 H   0  0  0  0  0  0  0  0  0  0  0  0
    8.1748    0.9852   24.3450 H   0  0  0  0  0  0  0  0  0  0  0  0
    7.3516    0.8106   22.7581 H   0  0  0  0  0  0  0  0  0  0  0  0
    6.5096    0.3166   24.2659 H   0  0  0  0  0  0  0  0  0  0  0  0
    8.7711   -2.2448   22.1651 H   0  0  0  0  0  0  0  0  0  0  0  0
    6.8975   -1.6551   21.0614 H   0  0  0  0  0  0  0  0  0  0  0  0
  1  2  1  0  0  0  0
  1  4  2  0  0  0  0
  2  5  2  0  0  0  0
  3  6  2  0  0  0  0
  3  7  1  0  0  0  0
  4 11  1  0  0  0  0
  5 12  1  0  0  0  0
  6 13  1  0  0  0  0
  7 15  2  0  0  0  0
  8 13  2  0  0  0  0
  8 15  1  0  0  0  0
  9 11  2  0  0  0  0
  9 29  1  0  0  0  0
 10 14  1  0  0  0  0
 10 29  2  0  0  0  0
 11 12  1  0  0  0  0
 12 14  2  0  0  0  0
 13 28  1  0  0  0  0
 14 31  1  0  0  0  0
 15 38  1  0  0  0  0
 16 25  1  0  0  0  0
 16 30  1  0  0  0  0
 16 33  2  0  0  0  0
 17 26  1  0  0  0  0
 17 32  1  0  0  0  0
 17 34  2  0  0  0  0
 18 28  1  0  0  0  0
 18 31  1  0  0  0  0
 18 35  2  0  0  0  0
 19 20  1  0  0  0  0
 19 25  1  0  0  0  0
 20 26  1  0  0  0  0
 21 23  1  0  0  0  0
 21 30  1  0  0  0  0
 22 24  1  0  0  0  0
 22 30  1  0  0  0  0
 23 36  1  0  0  0  0
 24 36  1  0  0  0  0
 25 37  1  0  0  0  0
 26 37  1  0  0  0  0
 27 32  1  0  0  0  0
 28 32  1  0  0  0  0
  1 39  1  0  0  0  0
  2 40  1  0  0  0  0
  3 41  1  0  0  0  0
  4 42  1  0  0  0  0
  5 43  1  0  0  0  0
  6 44  1  0  0  0  0
  7 45  1  0  0  0  0
  8 46  1  0  0  0  0
  9 47  1  0  0  0  0
 10 48  1  0  0  0  0
 19 49  1  0  0  0  0
 19 50  1  0  0  0  0
 20 51  1  0  0  0  0
 20 52  1  0  0  0  0
 21 53  1  0  0  0  0
 21 54  1  0  0  0  0
 22 55  1  0  0  0  0
 22 56  1  0  0  0  0
 23 57  1  0  0  0  0
 23 58  1  0  0  0  0
 24 59  1  0  0  0  0
 24 60  1  0  0  0  0
 25 61  1  0  0  0  0
 26 62  1  0  0  0  0
 27 63  1  0  0  0  0
 27 64  1  0  0  0  0
 27 65  1  0  0  0  0
 28 66  1  0  0  0  0
 31 67  1  0  0  0  0
M  END
> <compound>
PET-UNK-1320d94d-23

> <compound_smiles>
CN([C@H](c1cccc(c1)Cl)C(=O)Nc2cncc3c2cccc3)C(=O)[C@@H]4CC[C@@H](O4)C(=O)N5CCOCC5

> <enantiomer_smiles>
CN([C@H](c1cccc(c1)Cl)C(=O)Nc2cncc3c2cccc3)C(=O)[C@@H]4CC[C@@H](O4)C(=O)N5CCOCC5

> <scaffold>
chlorobenzene-linker

> <clash_score>
7.5912781385921715

> <docking_score>
-1.8335416316986084

> <overlap_score>
0.7698915004730225

> <MMFF_internal_energy>
244.2868843361597

> <docked_smiles>
CN([C@H](c1cccc(c1)Cl)C(=O)Nc2cncc3c2cccc3)C(=O)[C@@H]4CC[C@@H](O4)C(=O)N5CCOCC5

$$$$
PET-UNK-1320d94d-27_1
  -OEChem-07262101023D

 63 67  0     1  0  0  0  0  0999 V2000
    2.5650    1.0119   19.7905 C   0  0  0  0  0  0  0  0  0  0  0  0
    3.1657    0.4486   20.9139 C   0  0  0  0  0  0  0  0  0  0  0  0
   11.9780    0.4600   23.9150 C   0  0  0  0  0  0  0  0  0  0  0  0
    3.2959    1.1705   18.6133 C   0  0  0  0  0  0  0  0  0  0  0  0
    4.5001    0.0414   20.8653 C   0  0  0  0  0  0  0  0  0  0  0  0
   10.6560    0.0720   23.7350 C   0  0  0  0  0  0  0  0  0  0  0  0
   12.9840   -0.1200   23.1530 C   0  0  0  0  0  0  0  0  0  0  0  0
   11.3360   -1.5050   22.0650 C   0  0  0  0  0  0  0  0  0  0  0  0
    5.4171    0.8995   17.4014 C   0  0  0  0  0  0  0  0  0  0  0  0
    7.2639   -0.0211   18.4097 C   0  0  0  0  0  0  0  0  0  0  0  0
    4.6393    0.7642   18.5530 C   0  0  0  0  0  0  0  0  0  0  0  0
    5.2510    0.1935   19.6882 C   0  0  0  0  0  0  0  0  0  0  0  0
   10.3220   -0.8940   22.7910 C   0  0  0  0  0  0  0  0  0  0  0  0
    6.5904   -0.2048   19.6077 C   0  0  0  0  0  0  0  0  0  0  0  0
   12.6400   -1.1000   22.2390 C   0  0  0  0  0  0  0  0  0  0  0  0
    3.5141    1.5901   24.8341 C   0  0  0  0  0  0  0  0  0  0  0  0
    7.4310    0.2526   23.8920 C   0  0  0  0  0  0  0  0  0  0  0  0
    8.3880   -0.3240   21.3070 C   0  0  0  0  0  0  0  0  0  0  0  0
   -0.0749    1.4069   25.6134 C   0  0  0  0  0  0  0  0  0  0  0  0
    0.5311    1.2450   27.0019 C   0  0  0  0  0  0  0  0  0  0  0  0
    5.2012   -0.3660   25.1377 C   0  0  0  0  0  0  0  0  0  0  0  0
    1.0657    2.0209   24.8165 C   0  0  0  0  0  0  0  0  0  0  0  0
    1.9661    0.8351   26.7024 C   0  0  0  0  0  0  0  0  0  0  0  0
    4.6589    0.9820   25.6040 C   0  0  1  0  0  0  0  0  0  0  0  0
    6.5642    0.3313   25.1493 C   0  0  2  0  0  0  0  0  0  0  0  0
    7.8457   -2.1408   24.4800 C   0  0  0  0  0  0  0  0  0  0  0  0
    8.8810   -1.1900   22.4510 C   0  0  2  0  0  0  0  0  0  0  0  0
    6.7116    0.5212   17.3036 N   0  0  0  0  0  0  0  0  0  0  0  0
    2.2704    1.4801   25.4289 N   0  0  0  0  0  0  0  0  0  0  0  0
    7.2820   -0.7860   20.6970 N   0  0  0  0  0  0  0  0  0  0  0  0
    8.0284   -0.9787   23.6199 N   0  0  0  0  0  0  0  0  0  0  0  0
    3.7143    2.1448   23.7524 O   0  0  0  0  0  0  0  0  0  0  0  0
    7.5626    1.2572   23.1878 O   0  0  0  0  0  0  0  0  0  0  0  0
    8.9170    0.7530   21.0260 O   0  0  0  0  0  0  0  0  0  0  0  0
    5.9251    1.6258   25.3166 O   0  0  0  0  0  0  0  0  0  0  0  0
   13.8840   -1.8490   21.2740 Cl  0  0  0  0  0  0  0  0  0  0  0  0
    1.5267    1.3276   19.8311 H   0  0  0  0  0  0  0  0  0  0  0  0
    2.5946    0.3257   21.8297 H   0  0  0  0  0  0  0  0  0  0  0  0
   12.2249    1.2198   24.6546 H   0  0  0  0  0  0  0  0  0  0  0  0
    2.8114    1.6119   17.7455 H   0  0  0  0  0  0  0  0  0  0  0  0
    4.9338   -0.3933   21.7630 H   0  0  0  0  0  0  0  0  0  0  0  0
    9.8763    0.5350   24.3454 H   0  0  0  0  0  0  0  0  0  0  0  0
   14.0077    0.1988   23.2842 H   0  0  0  0  0  0  0  0  0  0  0  0
   11.0892   -2.3009   21.3624 H   0  0  0  0  0  0  0  0  0  0  0  0
    5.0078    1.3308   16.4920 H   0  0  0  0  0  0  0  0  0  0  0  0
    8.3038   -0.3142   18.2963 H   0  0  0  0  0  0  0  0  0  0  0  0
   -0.3428    0.4271   25.2008 H   0  0  0  0  0  0  0  0  0  0  0  0
   -0.9680    2.0380   25.6206 H   0  0  0  0  0  0  0  0  0  0  0  0
    0.5135    2.2029   27.5351 H   0  0  0  0  0  0  0  0  0  0  0  0
    0.0005    0.5022   27.6037 H   0  0  0  0  0  0  0  0  0  0  0  0
    5.0903   -1.1824   25.8559 H   0  0  0  0  0  0  0  0  0  0  0  0
    4.8570   -0.6951   24.1526 H   0  0  0  0  0  0  0  0  0  0  0  0
    1.0267    1.7786   23.7506 H   0  0  0  0  0  0  0  0  0  0  0  0
    1.0948    3.1102   24.9304 H   0  0  0  0  0  0  0  0  0  0  0  0
    2.6666    1.1499   27.4806 H   0  0  0  0  0  0  0  0  0  0  0  0
    2.0525   -0.2472   26.5581 H   0  0  0  0  0  0  0  0  0  0  0  0
    4.4562    1.0220   26.6786 H   0  0  0  0  0  0  0  0  0  0  0  0
    7.1551    0.0980   26.0448 H   0  0  0  0  0  0  0  0  0  0  0  0
    6.9697   -2.7138   24.1420 H   0  0  0  0  0  0  0  0  0  0  0  0
    8.7413   -2.7776   24.4309 H   0  0  0  0  0  0  0  0  0  0  0  0
    7.6885   -1.8084   25.5168 H   0  0  0  0  0  0  0  0  0  0  0  0
    8.7711   -2.2448   22.1651 H   0  0  0  0  0  0  0  0  0  0  0  0
    6.8975   -1.6551   21.0614 H   0  0  0  0  0  0  0  0  0  0  0  0
  1  2  1  0  0  0  0
  1  4  2  0  0  0  0
  2  5  2  0  0  0  0
  3  6  2  0  0  0  0
  3  7  1  0  0  0  0
  4 11  1  0  0  0  0
  5 12  1  0  0  0  0
  6 13  1  0  0  0  0
  7 15  2  0  0  0  0
  8 13  2  0  0  0  0
  8 15  1  0  0  0  0
  9 11  2  0  0  0  0
  9 28  1  0  0  0  0
 10 14  1  0  0  0  0
 10 28  2  0  0  0  0
 11 12  1  0  0  0  0
 12 14  2  0  0  0  0
 13 27  1  0  0  0  0
 14 30  1  0  0  0  0
 15 36  1  0  0  0  0
 16 24  1  0  0  0  0
 16 29  1  0  0  0  0
 16 32  2  0  0  0  0
 17 25  1  0  0  0  0
 17 31  1  0  0  0  0
 17 33  2  0  0  0  0
 18 27  1  0  0  0  0
 18 30  1  0  0  0  0
 18 34  2  0  0  0  0
 19 20  1  0  0  0  0
 19 22  1  0  0  0  0
 20 23  1  0  0  0  0
 21 24  1  0  0  0  0
 21 25  1  0  0  0  0
 22 29  1  0  0  0  0
 23 29  1  0  0  0  0
 24 35  1  0  0  0  0
 25 35  1  0  0  0  0
 26 31  1  0  0  0  0
 27 31  1  0  0  0  0
  1 37  1  0  0  0  0
  2 38  1  0  0  0  0
  3 39  1  0  0  0  0
  4 40  1  0  0  0  0
  5 41  1  0  0  0  0
  6 42  1  0  0  0  0
  7 43  1  0  0  0  0
  8 44  1  0  0  0  0
  9 45  1  0  0  0  0
 10 46  1  0  0  0  0
 19 47  1  0  0  0  0
 19 48  1  0  0  0  0
 20 49  1  0  0  0  0
 20 50  1  0  0  0  0
 21 51  1  0  0  0  0
 21 52  1  0  0  0  0
 22 53  1  0  0  0  0
 22 54  1  0  0  0  0
 23 55  1  0  0  0  0
 23 56  1  0  0  0  0
 24 57  1  0  0  0  0
 25 58  1  0  0  0  0
 26 59  1  0  0  0  0
 26 60  1  0  0  0  0
 26 61  1  0  0  0  0
 27 62  1  0  0  0  0
 30 63  1  0  0  0  0
M  END
> <compound>
PET-UNK-1320d94d-27

> <compound_smiles>
CN([C@H](c1cccc(c1)Cl)C(=O)Nc2cncc3c2cccc3)C(=O)[C@@H]4C[C@@H](O4)C(=O)N5CCCC5

> <enantiomer_smiles>
CN([C@H](c1cccc(c1)Cl)C(=O)Nc2cncc3c2cccc3)C(=O)[C@@H]4C[C@@H](O4)C(=O)N5CCCC5

> <scaffold>
chlorobenzene-linker

> <clash_score>
0

> <docking_score>
-3.869067668914795

> <overlap_score>
0.8920851945877075

> <MMFF_internal_energy>
189.485242845438

> <docked_smiles>
CN([C@H](c1cccc(c1)Cl)C(=O)Nc2cncc3c2cccc3)C(=O)[C@@H]4C[C@@H](O4)C(=O)N5CCCC5

$$$$
PET-UNK-1320d94d-6_1
  -OEChem-07262101023D

 60 64  0     1  0  0  0  0  0999 V2000
    2.5578    0.9697   19.8184 C   0  0  0  0  0  0  0  0  0  0  0  0
    3.1679    0.4166   20.9418 C   0  0  0  0  0  0  0  0  0  0  0  0
   11.9780    0.4600   23.9150 C   0  0  0  0  0  0  0  0  0  0  0  0
    3.2816    1.1263   18.6366 C   0  0  0  0  0  0  0  0  0  0  0  0
    4.5045    0.0176   20.8886 C   0  0  0  0  0  0  0  0  0  0  0  0
   10.6560    0.0720   23.7350 C   0  0  0  0  0  0  0  0  0  0  0  0
   12.9840   -0.1200   23.1530 C   0  0  0  0  0  0  0  0  0  0  0  0
   11.3360   -1.5050   22.0650 C   0  0  0  0  0  0  0  0  0  0  0  0
    5.3983    0.8618   17.4152 C   0  0  0  0  0  0  0  0  0  0  0  0
    7.2560   -0.0413   18.4191 C   0  0  0  0  0  0  0  0  0  0  0  0
    4.6272    0.7281   18.5716 C   0  0  0  0  0  0  0  0  0  0  0  0
    5.2484    0.1678   19.7068 C   0  0  0  0  0  0  0  0  0  0  0  0
   10.3220   -0.8940   22.7910 C   0  0  0  0  0  0  0  0  0  0  0  0
    6.5899   -0.2225   19.6216 C   0  0  0  0  0  0  0  0  0  0  0  0
   12.6400   -1.1000   22.2390 C   0  0  0  0  0  0  0  0  0  0  0  0
    5.9344   -6.2963   24.1432 C   0  0  0  0  0  0  0  0  0  0  0  0
    8.4778   -3.5792   23.0201 C   0  0  0  0  0  0  0  0  0  0  0  0
    8.3880   -0.3240   21.3070 C   0  0  0  0  0  0  0  0  0  0  0  0
    6.7064   -6.4997   21.7681 C   0  0  0  0  0  0  0  0  0  0  0  0
    7.1405   -5.0746   21.5200 C   0  0  0  0  0  0  0  0  0  0  0  0
    6.7730   -6.1102   27.4356 C   0  0  0  0  0  0  0  0  0  0  0  0
    5.4591   -6.0377   26.6486 C   0  0  0  0  0  0  0  0  0  0  0  0
    7.4236   -6.7631   26.2099 C   0  0  0  0  0  0  0  0  0  0  0  0
    7.0504   -6.6991   23.2298 C   0  0  1  0  0  0  0  0  0  0  0  0
    8.3474   -4.9414   22.4263 C   0  0  2  0  0  0  0  0  0  0  0  0
    8.8810   -1.1900   22.4510 C   0  0  2  0  0  0  0  0  0  0  0  0
    6.6946    0.4912   17.3129 N   0  0  0  0  0  0  0  0  0  0  0  0
    6.2474   -6.3477   25.4728 N   0  0  0  0  0  0  0  0  0  0  0  0
    7.2820   -0.7860   20.6970 N   0  0  0  0  0  0  0  0  0  0  0  0
    8.7217   -2.5865   22.0933 N   0  0  0  0  0  0  0  0  0  0  0  0
    4.8395   -5.9484   23.7038 O   0  0  0  0  0  0  0  0  0  0  0  0
    8.3643   -3.4348   24.2317 O   0  0  0  0  0  0  0  0  0  0  0  0
    8.9170    0.7530   21.0260 O   0  0  0  0  0  0  0  0  0  0  0  0
    8.1539   -5.8402   23.5240 O   0  0  0  0  0  0  0  0  0  0  0  0
   13.8840   -1.8490   21.2740 Cl  0  0  0  0  0  0  0  0  0  0  0  0
    1.5177    1.2791   19.8626 H   0  0  0  0  0  0  0  0  0  0  0  0
    2.6022    0.2953   21.8613 H   0  0  0  0  0  0  0  0  0  0  0  0
   12.2249    1.2198   24.6546 H   0  0  0  0  0  0  0  0  0  0  0  0
    2.7899    1.5597   17.7688 H   0  0  0  0  0  0  0  0  0  0  0  0
    4.9456   -0.4092   21.7864 H   0  0  0  0  0  0  0  0  0  0  0  0
    9.8763    0.5350   24.3454 H   0  0  0  0  0  0  0  0  0  0  0  0
   14.0077    0.1988   23.2842 H   0  0  0  0  0  0  0  0  0  0  0  0
   11.0892   -2.3009   21.3624 H   0  0  0  0  0  0  0  0  0  0  0  0
    4.9815    1.2854   16.5055 H   0  0  0  0  0  0  0  0  0  0  0  0
    8.2971   -0.3285   18.3019 H   0  0  0  0  0  0  0  0  0  0  0  0
    5.6284   -6.6010   21.5891 H   0  0  0  0  0  0  0  0  0  0  0  0
    7.2126   -7.2194   21.1163 H   0  0  0  0  0  0  0  0  0  0  0  0
    7.4504   -4.9691   20.4751 H   0  0  0  0  0  0  0  0  0  0  0  0
    6.3510   -4.3471   21.7195 H   0  0  0  0  0  0  0  0  0  0  0  0
    7.1917   -5.1303   27.6913 H   0  0  0  0  0  0  0  0  0  0  0  0
    6.7447   -6.7311   28.3355 H   0  0  0  0  0  0  0  0  0  0  0  0
    4.7269   -6.8152   26.8820 H   0  0  0  0  0  0  0  0  0  0  0  0
    4.9840   -5.0545   26.6224 H   0  0  0  0  0  0  0  0  0  0  0  0
    8.3540   -6.2974   25.8775 H   0  0  0  0  0  0  0  0  0  0  0  0
    7.5300   -7.8503   26.2579 H   0  0  0  0  0  0  0  0  0  0  0  0
    7.3495   -7.7330   23.4414 H   0  0  0  0  0  0  0  0  0  0  0  0
    9.2824   -5.1888   21.9128 H   0  0  0  0  0  0  0  0  0  0  0  0
    8.2436   -1.0112   23.3272 H   0  0  0  0  0  0  0  0  0  0  0  0
    6.8984   -1.6618   21.0676 H   0  0  0  0  0  0  0  0  0  0  0  0
    8.7928   -2.8447   21.1155 H   0  0  0  0  0  0  0  0  0  0  0  0
  1  2  1  0  0  0  0
  1  4  2  0  0  0  0
  2  5  2  0  0  0  0
  3  6  2  0  0  0  0
  3  7  1  0  0  0  0
  4 11  1  0  0  0  0
  5 12  1  0  0  0  0
  6 13  1  0  0  0  0
  7 15  2  0  0  0  0
  8 13  2  0  0  0  0
  8 15  1  0  0  0  0
  9 11  2  0  0  0  0
  9 27  1  0  0  0  0
 10 14  1  0  0  0  0
 10 27  2  0  0  0  0
 11 12  1  0  0  0  0
 12 14  2  0  0  0  0
 13 26  1  0  0  0  0
 14 29  1  0  0  0  0
 15 35  1  0  0  0  0
 16 24  1  0  0  0  0
 16 28  1  0  0  0  0
 16 31  2  0  0  0  0
 17 25  1  0  0  0  0
 17 30  1  0  0  0  0
 17 32  2  0  0  0  0
 18 26  1  0  0  0  0
 18 29  1  0  0  0  0
 18 33  2  0  0  0  0
 19 20  1  0  0  0  0
 19 24  1  0  0  0  0
 20 25  1  0  0  0  0
 21 22  1  0  0  0  0
 21 23  1  0  0  0  0
 22 28  1  0  0  0  0
 23 28  1  0  0  0  0
 24 34  1  0  0  0  0
 25 34  1  0  0  0  0
 26 30  1  0  0  0  0
  1 36  1  0  0  0  0
  2 37  1  0  0  0  0
  3 38  1  0  0  0  0
  4 39  1  0  0  0  0
  5 40  1  0  0  0  0
  6 41  1  0  0  0  0
  7 42  1  0  0  0  0
  8 43  1  0  0  0  0
  9 44  1  0  0  0  0
 10 45  1  0  0  0  0
 19 46  1  0  0  0  0
 19 47  1  0  0  0  0
 20 48  1  0  0  0  0
 20 49  1  0  0  0  0
 21 50  1  0  0  0  0
 21 51  1  0  0  0  0
 22 52  1  0  0  0  0
 22 53  1  0  0  0  0
 23 54  1  0  0  0  0
 23 55  1  0  0  0  0
 24 56  1  0  0  0  0
 25 57  1  0  0  0  0
 26 58  1  0  0  0  0
 29 59  1  0  0  0  0
 30 60  1  0  0  0  0
M  END
> <compound>
PET-UNK-1320d94d-6

> <compound_smiles>
c1ccc2c(c1)cncc2NC(=O)[C@H](c3cccc(c3)Cl)NC(=O)[C@@H]4CC[C@@H](O4)C(=O)N5CCC5

> <enantiomer_smiles>
c1ccc2c(c1)cncc2NC(=O)[C@H](c3cccc(c3)Cl)NC(=O)[C@@H]4CC[C@@H](O4)C(=O)N5CCC5

> <scaffold>
chlorobenzene-linker

> <clash_score>
0.6126642880517088

> <docking_score>
-4.164212226867676

> <overlap_score>
0.8803229331970215

> <MMFF_internal_energy>
173.87550923539334

> <docked_smiles>
c1ccc2c(c1)cncc2NC(=O)[C@H](c3cccc(c3)Cl)NC(=O)[C@@H]4CC[C@@H](O4)C(=O)N5CCC5

$$$$
EDJ-MED-6e43a462-1_1
  -OEChem-07262101023D

 37 39  0     0  0  0  0  0  0999 V2000
   11.9780    0.4600   23.9150 C   0  0  0  0  0  0  0  0  0  0  0  0
   10.6560    0.0720   23.7350 C   0  0  0  0  0  0  0  0  0  0  0  0
   12.9840   -0.1200   23.1530 C   0  0  0  0  0  0  0  0  0  0  0  0
   11.3360   -1.5050   22.0650 C   0  0  0  0  0  0  0  0  0  0  0  0
    5.4909   -0.3880   18.9879 C   0  0  0  0  0  0  0  0  0  0  0  0
   10.3220   -0.8940   22.7910 C   0  0  0  0  0  0  0  0  0  0  0  0
   12.6400   -1.1000   22.2390 C   0  0  0  0  0  0  0  0  0  0  0  0
    6.2597    0.0083   20.0509 C   0  0  0  0  0  0  0  0  0  0  0  0
    4.8842    1.6682   19.5256 C   0  0  0  0  0  0  0  0  0  0  0  0
    4.2591    3.0155   19.6310 C   0  0  0  0  0  0  0  0  0  0  0  0
    5.8087    3.3324   21.4921 C   0  0  0  0  0  0  0  0  0  0  0  0
    6.3531    2.1066   21.3701 C   0  0  0  0  0  0  0  0  0  0  0  0
    4.7430    3.8021   20.6110 C   0  0  0  0  0  0  0  0  0  0  0  0
    8.3880   -0.3240   21.3070 C   0  0  0  0  0  0  0  0  0  0  0  0
    4.8943    5.7283   21.8933 C   0  0  0  0  0  0  0  0  0  0  0  0
    8.8810   -1.1900   22.4510 C   0  0  0  0  0  0  0  0  0  0  0  0
    5.8658    1.2914   20.3696 N   0  0  0  0  0  0  0  0  0  0  0  0
    4.6500    0.6574   18.6849 N   0  3  0  0  0  0  0  0  0  0  0  0
    7.2820   -0.7860   20.6970 N   0  0  0  0  0  0  0  0  0  0  0  0
    8.9170    0.7530   21.0260 O   0  0  0  0  0  0  0  0  0  0  0  0
    4.2565    5.0725   20.8228 O   0  0  0  0  0  0  0  0  0  0  0  0
   13.8840   -1.8490   21.2740 Cl  0  0  0  0  0  0  0  0  0  0  0  0
   12.2249    1.2198   24.6546 H   0  0  0  0  0  0  0  0  0  0  0  0
    9.8763    0.5350   24.3454 H   0  0  0  0  0  0  0  0  0  0  0  0
   14.0077    0.1988   23.2842 H   0  0  0  0  0  0  0  0  0  0  0  0
   11.0892   -2.3009   21.3624 H   0  0  0  0  0  0  0  0  0  0  0  0
    5.4112   -1.2731   18.3875 H   0  0  0  0  0  0  0  0  0  0  0  0
    3.4712    3.3143   18.9525 H   0  0  0  0  0  0  0  0  0  0  0  0
    6.1671    4.0009   22.2685 H   0  0  0  0  0  0  0  0  0  0  0  0
    7.1429    1.7343   22.0091 H   0  0  0  0  0  0  0  0  0  0  0  0
    4.4695    6.7278   22.0144 H   0  0  0  0  0  0  0  0  0  0  0  0
    5.9663    5.7983   21.6922 H   0  0  0  0  0  0  0  0  0  0  0  0
    4.7340    5.1535   22.8085 H   0  0  0  0  0  0  0  0  0  0  0  0
    8.7774   -2.2383   22.1732 H   0  0  0  0  0  0  0  0  0  0  0  0
    8.2557   -1.0153   23.3257 H   0  0  0  0  0  0  0  0  0  0  0  0
    3.9596    0.6602   17.9391 H   0  0  0  0  0  0  0  0  0  0  0  0
    7.1527   -1.7824   20.6892 H   0  0  0  0  0  0  0  0  0  0  0  0
  1  2  2  0  0  0  0
  1  3  1  0  0  0  0
  2  6  1  0  0  0  0
  3  7  2  0  0  0  0
  4  6  2  0  0  0  0
  4  7  1  0  0  0  0
  5  8  2  0  0  0  0
  5 18  1  0  0  0  0
  6 16  1  0  0  0  0
  7 22  1  0  0  0  0
  8 17  1  0  0  0  0
  8 19  1  0  0  0  0
  9 10  1  0  0  0  0
  9 17  1  0  0  0  0
  9 18  2  0  0  0  0
 10 13  2  0  0  0  0
 11 12  2  0  0  0  0
 11 13  1  0  0  0  0
 12 17  1  0  0  0  0
 13 21  1  0  0  0  0
 14 16  1  0  0  0  0
 14 19  1  0  0  0  0
 14 20  2  0  0  0  0
 15 21  1  0  0  0  0
  1 23  1  0  0  0  0
  2 24  1  0  0  0  0
  3 25  1  0  0  0  0
  4 26  1  0  0  0  0
  5 27  1  0  0  0  0
 10 28  1  0  0  0  0
 11 29  1  0  0  0  0
 12 30  1  0  0  0  0
 15 31  1  0  0  0  0
 15 32  1  0  0  0  0
 15 33  1  0  0  0  0
 16 34  1  0  0  0  0
 16 35  1  0  0  0  0
 18 36  1  0  0  0  0
 19 37  1  0  0  0  0
M  CHG  1  18   1
M  END
> <compound>
EDJ-MED-6e43a462-1

> <compound_smiles>
COc1ccn2c(c1)ncc2NC(=O)Cc3cccc(c3)Cl

> <enantiomer_smiles>
COc1ccn2c(c1)ncc2NC(=O)Cc3cccc(c3)Cl

> <scaffold>
chlorobenzene-linker

> <clash_score>
0.645525015709898

> <docking_score>
-5.008033752441406

> <overlap_score>
0.8045593500137329

> <MMFF_internal_energy>
40.80108784825658

> <docked_smiles>
COc1ccn2c(c1)[nH+]cc2NC(=O)Cc3cccc(c3)Cl

$$$$
PET-UNK-1320d94d-29_1
  -OEChem-07262101023D

 69 73  0     1  0  0  0  0  0999 V2000
    8.3421    0.4891   15.8438 C   0  0  0  0  0  0  0  0  0  0  0  0
    9.0997   -0.0890   16.8597 C   0  0  0  0  0  0  0  0  0  0  0  0
   11.9780    0.4600   23.9150 C   0  0  0  0  0  0  0  0  0  0  0  0
    7.0110    0.8349   16.0756 C   0  0  0  0  0  0  0  0  0  0  0  0
    8.5296   -0.3240   18.1121 C   0  0  0  0  0  0  0  0  0  0  0  0
   10.6560    0.0720   23.7350 C   0  0  0  0  0  0  0  0  0  0  0  0
   12.9840   -0.1200   23.1530 C   0  0  0  0  0  0  0  0  0  0  0  0
   11.3360   -1.5050   22.0650 C   0  0  0  0  0  0  0  0  0  0  0  0
    5.1000    0.9293   17.6186 C   0  0  0  0  0  0  0  0  0  0  0  0
    5.2636    0.1605   19.7766 C   0  0  0  0  0  0  0  0  0  0  0  0
    6.4270    0.6031   17.3320 C   0  0  0  0  0  0  0  0  0  0  0  0
    7.1907    0.0179   18.3631 C   0  0  0  0  0  0  0  0  0  0  0  0
   10.3220   -0.8940   22.7910 C   0  0  0  0  0  0  0  0  0  0  0  0
    6.5904   -0.2048   19.6077 C   0  0  0  0  0  0  0  0  0  0  0  0
   12.6400   -1.1000   22.2390 C   0  0  0  0  0  0  0  0  0  0  0  0
    4.3920    3.2139   25.6652 C   0  0  0  0  0  0  0  0  0  0  0  0
    7.4307    0.2523   23.8926 C   0  0  0  0  0  0  0  0  0  0  0  0
    8.3880   -0.3240   21.3070 C   0  0  0  0  0  0  0  0  0  0  0  0
    3.6880   -0.3376   24.4272 C   0  0  0  0  0  0  0  0  0  0  0  0
    5.4403    5.3467   28.4712 C   0  0  0  0  0  0  0  0  0  0  0  0
    6.4411    4.2038   28.5872 C   0  0  0  0  0  0  0  0  0  0  0  0
    3.4045    1.1273   24.7452 C   0  0  0  0  0  0  0  0  0  0  0  0
    5.0613   -0.4878   23.7799 C   0  0  0  0  0  0  0  0  0  0  0  0
    4.9359    5.2105   27.0429 C   0  0  0  0  0  0  0  0  0  0  0  0
    5.7793    3.0884   27.7903 C   0  0  0  0  0  0  0  0  0  0  0  0
    4.5640    1.7379   25.5242 C   0  0  1  0  0  0  0  0  0  0  0  0
    6.1247    0.2171   24.6144 C   0  0  2  0  0  0  0  0  0  0  0  0
    7.8446   -2.1417   24.4786 C   0  0  0  0  0  0  0  0  0  0  0  0
    8.8810   -1.1900   22.4510 C   0  0  2  0  0  0  0  0  0  0  0  0
    4.5022    0.7221   18.8136 N   0  0  0  0  0  0  0  0  0  0  0  0
    5.0041    3.7830   26.7671 N   0  0  0  0  0  0  0  0  0  0  0  0
    7.2820   -0.7860   20.6970 N   0  0  0  0  0  0  0  0  0  0  0  0
    8.0284   -0.9787   23.6199 N   0  0  0  0  0  0  0  0  0  0  0  0
    3.7451    3.8493   24.8312 O   0  0  0  0  0  0  0  0  0  0  0  0
    7.9141    1.3425   23.5757 O   0  0  0  0  0  0  0  0  0  0  0  0
    8.9170    0.7530   21.0260 O   0  0  0  0  0  0  0  0  0  0  0  0
    5.7912    1.5882   24.8151 O   0  0  0  0  0  0  0  0  0  0  0  0
   13.8840   -1.8490   21.2740 Cl  0  0  0  0  0  0  0  0  0  0  0  0
    8.7883    0.6710   14.8704 H   0  0  0  0  0  0  0  0  0  0  0  0
   10.1363   -0.3573   16.6771 H   0  0  0  0  0  0  0  0  0  0  0  0
   12.2249    1.2198   24.6546 H   0  0  0  0  0  0  0  0  0  0  0  0
    6.4339    1.2855   15.2714 H   0  0  0  0  0  0  0  0  0  0  0  0
    9.1529   -0.7776   18.8792 H   0  0  0  0  0  0  0  0  0  0  0  0
    9.8763    0.5350   24.3454 H   0  0  0  0  0  0  0  0  0  0  0  0
   14.0077    0.1988   23.2842 H   0  0  0  0  0  0  0  0  0  0  0  0
   11.0892   -2.3009   21.3624 H   0  0  0  0  0  0  0  0  0  0  0  0
    4.4565    1.3827   16.8697 H   0  0  0  0  0  0  0  0  0  0  0  0
    4.7527    0.0090   20.7233 H   0  0  0  0  0  0  0  0  0  0  0  0
    3.6552   -0.9247   25.3532 H   0  0  0  0  0  0  0  0  0  0  0  0
    2.9125   -0.7369   23.7644 H   0  0  0  0  0  0  0  0  0  0  0  0
    4.6169    5.2017   29.1805 H   0  0  0  0  0  0  0  0  0  0  0  0
    5.8973    6.3214   28.6630 H   0  0  0  0  0  0  0  0  0  0  0  0
    7.3935    4.4875   28.1240 H   0  0  0  0  0  0  0  0  0  0  0  0
    6.6304    3.9201   29.6261 H   0  0  0  0  0  0  0  0  0  0  0  0
    3.2639    1.6665   23.7991 H   0  0  0  0  0  0  0  0  0  0  0  0
    2.4689    1.2213   25.3081 H   0  0  0  0  0  0  0  0  0  0  0  0
    5.3095   -1.5477   23.6533 H   0  0  0  0  0  0  0  0  0  0  0  0
    5.0209   -0.0469   22.7751 H   0  0  0  0  0  0  0  0  0  0  0  0
    3.9174    5.5864   26.9081 H   0  0  0  0  0  0  0  0  0  0  0  0
    5.5970    5.7185   26.3320 H   0  0  0  0  0  0  0  0  0  0  0  0
    6.5042    2.4045   27.3408 H   0  0  0  0  0  0  0  0  0  0  0  0
    5.0801    2.5153   28.4088 H   0  0  0  0  0  0  0  0  0  0  0  0
    4.6591    1.2959   26.5239 H   0  0  0  0  0  0  0  0  0  0  0  0
    6.2758   -0.2738   25.5826 H   0  0  0  0  0  0  0  0  0  0  0  0
    6.9689   -2.7142   24.1389 H   0  0  0  0  0  0  0  0  0  0  0  0
    8.7402   -2.7785   24.4300 H   0  0  0  0  0  0  0  0  0  0  0  0
    7.6861   -1.8104   25.5155 H   0  0  0  0  0  0  0  0  0  0  0  0
    8.7711   -2.2448   22.1651 H   0  0  0  0  0  0  0  0  0  0  0  0
    6.8975   -1.6551   21.0614 H   0  0  0  0  0  0  0  0  0  0  0  0
  1  2  1  0  0  0  0
  1  4  2  0  0  0  0
  2  5  2  0  0  0  0
  3  6  2  0  0  0  0
  3  7  1  0  0  0  0
  4 11  1  0  0  0  0
  5 12  1  0  0  0  0
  6 13  1  0  0  0  0
  7 15  2  0  0  0  0
  8 13  2  0  0  0  0
  8 15  1  0  0  0  0
  9 11  2  0  0  0  0
  9 30  1  0  0  0  0
 10 14  1  0  0  0  0
 10 30  2  0  0  0  0
 11 12  1  0  0  0  0
 12 14  2  0  0  0  0
 13 29  1  0  0  0  0
 14 32  1  0  0  0  0
 15 38  1  0  0  0  0
 16 26  1  0  0  0  0
 16 31  1  0  0  0  0
 16 34  2  0  0  0  0
 17 27  1  0  0  0  0
 17 33  1  0  0  0  0
 17 35  2  0  0  0  0
 18 29  1  0  0  0  0
 18 32  1  0  0  0  0
 18 36  2  0  0  0  0
 19 22  1  0  0  0  0
 19 23  1  0  0  0  0
 20 21  1  0  0  0  0
 20 24  1  0  0  0  0
 21 25  1  0  0  0  0
 22 26  1  0  0  0  0
 23 27  1  0  0  0  0
 24 31  1  0  0  0  0
 25 31  1  0  0  0  0
 26 37  1  0  0  0  0
 27 37  1  0  0  0  0
 28 33  1  0  0  0  0
 29 33  1  0  0  0  0
  1 39  1  0  0  0  0
  2 40  1  0  0  0  0
  3 41  1  0  0  0  0
  4 42  1  0  0  0  0
  5 43  1  0  0  0  0
  6 44  1  0  0  0  0
  7 45  1  0  0  0  0
  8 46  1  0  0  0  0
  9 47  1  0  0  0  0
 10 48  1  0  0  0  0
 19 49  1  0  0  0  0
 19 50  1  0  0  0  0
 20 51  1  0  0  0  0
 20 52  1  0  0  0  0
 21 53  1  0  0  0  0
 21 54  1  0  0  0  0
 22 55  1  0  0  0  0
 22 56  1  0  0  0  0
 23 57  1  0  0  0  0
 23 58  1  0  0  0  0
 24 59  1  0  0  0  0
 24 60  1  0  0  0  0
 25 61  1  0  0  0  0
 25 62  1  0  0  0  0
 26 63  1  0  0  0  0
 27 64  1  0  0  0  0
 28 65  1  0  0  0  0
 28 66  1  0  0  0  0
 28 67  1  0  0  0  0
 29 68  1  0  0  0  0
 32 69  1  0  0  0  0
M  END
> <compound>
PET-UNK-1320d94d-29

> <compound_smiles>
CN([C@H](c1cccc(c1)Cl)C(=O)Nc2cncc3c2cccc3)C(=O)[C@@H]4CCC[C@@H](O4)C(=O)N5CCCC5

> <enantiomer_smiles>
CN([C@H](c1cccc(c1)Cl)C(=O)Nc2cncc3c2cccc3)C(=O)[C@@H]4CCC[C@@H](O4)C(=O)N5CCCC5

> <scaffold>
chlorobenzene-linker

> <clash_score>
2.9401677819632313

> <docking_score>
1.7449606657028198

> <overlap_score>
0.8149846792221069

> <MMFF_internal_energy>
211.9920343457497

> <docked_smiles>
CN([C@H](c1cccc(c1)Cl)C(=O)Nc2cncc3c2cccc3)C(=O)[C@@H]4CCC[C@@H](O4)C(=O)N5CCCC5

$$$$
PET-UNK-1320d94d-28_1
  -OEChem-07262101023D

 63 67  0     1  0  0  0  0  0999 V2000
    2.5650    1.0119   19.7905 C   0  0  0  0  0  0  0  0  0  0  0  0
    3.1657    0.4486   20.9139 C   0  0  0  0  0  0  0  0  0  0  0  0
   11.9780    0.4600   23.9150 C   0  0  0  0  0  0  0  0  0  0  0  0
    3.2959    1.1705   18.6133 C   0  0  0  0  0  0  0  0  0  0  0  0
    4.5001    0.0414   20.8653 C   0  0  0  0  0  0  0  0  0  0  0  0
   10.6560    0.0720   23.7350 C   0  0  0  0  0  0  0  0  0  0  0  0
   12.9840   -0.1200   23.1530 C   0  0  0  0  0  0  0  0  0  0  0  0
   11.3360   -1.5050   22.0650 C   0  0  0  0  0  0  0  0  0  0  0  0
    5.4171    0.8995   17.4014 C   0  0  0  0  0  0  0  0  0  0  0  0
    7.2639   -0.0211   18.4097 C   0  0  0  0  0  0  0  0  0  0  0  0
    4.6393    0.7642   18.5530 C   0  0  0  0  0  0  0  0  0  0  0  0
    5.2510    0.1935   19.6882 C   0  0  0  0  0  0  0  0  0  0  0  0
   10.3220   -0.8940   22.7910 C   0  0  0  0  0  0  0  0  0  0  0  0
    6.5904   -0.2048   19.6077 C   0  0  0  0  0  0  0  0  0  0  0  0
   12.6400   -1.1000   22.2390 C   0  0  0  0  0  0  0  0  0  0  0  0
    5.5890   -6.7142   23.3945 C   0  0  0  0  0  0  0  0  0  0  0  0
    8.4337   -3.5842   23.0347 C   0  0  0  0  0  0  0  0  0  0  0  0
    8.3880   -0.3240   21.3070 C   0  0  0  0  0  0  0  0  0  0  0  0
    4.7777   -9.0882   26.0829 C   0  0  0  0  0  0  0  0  0  0  0  0
    6.2767   -8.9149   26.2929 C   0  0  0  0  0  0  0  0  0  0  0  0
    7.0437   -5.3748   21.7050 C   0  0  0  0  0  0  0  0  0  0  0  0
    4.4092   -7.8672   25.2544 C   0  0  0  0  0  0  0  0  0  0  0  0
    6.7449   -8.3482   24.9600 C   0  0  0  0  0  0  0  0  0  0  0  0
    6.9088   -6.5341   22.6881 C   0  0  1  0  0  0  0  0  0  0  0  0
    8.2942   -5.0143   22.5116 C   0  0  2  0  0  0  0  0  0  0  0  0
    8.8818   -2.8981   20.6736 C   0  0  0  0  0  0  0  0  0  0  0  0
    8.8810   -1.1900   22.4510 C   0  0  1  0  0  0  0  0  0  0  0  0
    6.7116    0.5212   17.3036 N   0  0  0  0  0  0  0  0  0  0  0  0
    5.6003   -7.5897   24.4651 N   0  0  0  0  0  0  0  0  0  0  0  0
    7.2820   -0.7860   20.6970 N   0  0  0  0  0  0  0  0  0  0  0  0
    8.7204   -2.5977   22.0905 N   0  0  0  0  0  0  0  0  0  0  0  0
    4.5901   -6.1000   23.0167 O   0  0  0  0  0  0  0  0  0  0  0  0
    8.2903   -3.3679   24.2410 O   0  0  0  0  0  0  0  0  0  0  0  0
    8.9170    0.7530   21.0260 O   0  0  0  0  0  0  0  0  0  0  0  0
    7.9256   -5.9634   23.5487 O   0  0  0  0  0  0  0  0  0  0  0  0
   13.8840   -1.8490   21.2740 Cl  0  0  0  0  0  0  0  0  0  0  0  0
    1.5267    1.3276   19.8311 H   0  0  0  0  0  0  0  0  0  0  0  0
    2.5946    0.3257   21.8297 H   0  0  0  0  0  0  0  0  0  0  0  0
   12.2249    1.2198   24.6546 H   0  0  0  0  0  0  0  0  0  0  0  0
    2.8114    1.6119   17.7455 H   0  0  0  0  0  0  0  0  0  0  0  0
    4.9338   -0.3933   21.7630 H   0  0  0  0  0  0  0  0  0  0  0  0
    9.8763    0.5350   24.3454 H   0  0  0  0  0  0  0  0  0  0  0  0
   14.0077    0.1988   23.2842 H   0  0  0  0  0  0  0  0  0  0  0  0
   11.0892   -2.3009   21.3624 H   0  0  0  0  0  0  0  0  0  0  0  0
    5.0078    1.3308   16.4920 H   0  0  0  0  0  0  0  0  0  0  0  0
    8.3038   -0.3142   18.2963 H   0  0  0  0  0  0  0  0  0  0  0  0
    4.5784  -10.0059   25.5172 H   0  0  0  0  0  0  0  0  0  0  0  0
    4.2282   -9.1348   27.0273 H   0  0  0  0  0  0  0  0  0  0  0  0
    6.4640   -8.1947   27.0982 H   0  0  0  0  0  0  0  0  0  0  0  0
    6.7733   -9.8557   26.5454 H   0  0  0  0  0  0  0  0  0  0  0  0
    7.2276   -5.6671   20.6679 H   0  0  0  0  0  0  0  0  0  0  0  0
    6.2397   -4.6336   21.7399 H   0  0  0  0  0  0  0  0  0  0  0  0
    3.5416   -8.0299   24.6085 H   0  0  0  0  0  0  0  0  0  0  0  0
    4.2191   -6.9939   25.8881 H   0  0  0  0  0  0  0  0  0  0  0  0
    7.6272   -7.7102   25.0587 H   0  0  0  0  0  0  0  0  0  0  0  0
    6.9563   -9.1440   24.2377 H   0  0  0  0  0  0  0  0  0  0  0  0
    7.2559   -7.4902   22.2847 H   0  0  0  0  0  0  0  0  0  0  0  0
    9.2233   -5.3445   22.0286 H   0  0  0  0  0  0  0  0  0  0  0  0
    7.9077   -2.8206   20.1685 H   0  0  0  0  0  0  0  0  0  0  0  0
    9.5854   -2.1816   20.2248 H   0  0  0  0  0  0  0  0  0  0  0  0
    9.2745   -3.9191   20.5579 H   0  0  0  0  0  0  0  0  0  0  0  0
    8.2436   -1.0112   23.3272 H   0  0  0  0  0  0  0  0  0  0  0  0
    6.8975   -1.6551   21.0614 H   0  0  0  0  0  0  0  0  0  0  0  0
  1  2  1  0  0  0  0
  1  4  2  0  0  0  0
  2  5  2  0  0  0  0
  3  6  2  0  0  0  0
  3  7  1  0  0  0  0
  4 11  1  0  0  0  0
  5 12  1  0  0  0  0
  6 13  1  0  0  0  0
  7 15  2  0  0  0  0
  8 13  2  0  0  0  0
  8 15  1  0  0  0  0
  9 11  2  0  0  0  0
  9 28  1  0  0  0  0
 10 14  1  0  0  0  0
 10 28  2  0  0  0  0
 11 12  1  0  0  0  0
 12 14  2  0  0  0  0
 13 27  1  0  0  0  0
 14 30  1  0  0  0  0
 15 36  1  0  0  0  0
 16 24  1  0  0  0  0
 16 29  1  0  0  0  0
 16 32  2  0  0  0  0
 17 25  1  0  0  0  0
 17 31  1  0  0  0  0
 17 33  2  0  0  0  0
 18 27  1  0  0  0  0
 18 30  1  0  0  0  0
 18 34  2  0  0  0  0
 19 20  1  0  0  0  0
 19 22  1  0  0  0  0
 20 23  1  0  0  0  0
 21 24  1  0  0  0  0
 21 25  1  0  0  0  0
 22 29  1  0  0  0  0
 23 29  1  0  0  0  0
 24 35  1  0  0  0  0
 25 35  1  0  0  0  0
 26 31  1  0  0  0  0
 27 31  1  0  0  0  0
  1 37  1  0  0  0  0
  2 38  1  0  0  0  0
  3 39  1  0  0  0  0
  4 40  1  0  0  0  0
  5 41  1  0  0  0  0
  6 42  1  0  0  0  0
  7 43  1  0  0  0  0
  8 44  1  0  0  0  0
  9 45  1  0  0  0  0
 10 46  1  0  0  0  0
 19 47  1  0  0  0  0
 19 48  1  0  0  0  0
 20 49  1  0  0  0  0
 20 50  1  0  0  0  0
 21 51  1  0  0  0  0
 21 52  1  0  0  0  0
 22 53  1  0  0  0  0
 22 54  1  0  0  0  0
 23 55  1  0  0  0  0
 23 56  1  0  0  0  0
 24 57  1  0  0  0  0
 25 58  1  0  0  0  0
 26 59  1  0  0  0  0
 26 60  1  0  0  0  0
 26 61  1  0  0  0  0
 27 62  1  0  0  0  0
 30 63  1  0  0  0  0
M  END
> <compound>
PET-UNK-1320d94d-28

> <compound_smiles>
CN([C@@H](c1cccc(c1)Cl)C(=O)Nc2cncc3c2cccc3)C(=O)[C@@H]4C[C@@H](O4)C(=O)N5CCCC5

> <enantiomer_smiles>
CN([C@@H](c1cccc(c1)Cl)C(=O)Nc2cncc3c2cccc3)C(=O)[C@@H]4C[C@@H](O4)C(=O)N5CCCC5

> <scaffold>
chlorobenzene-linker

> <clash_score>
4.1915172033995916

> <docking_score>
-1.283561110496521

> <overlap_score>
0.8859890103340149

> <MMFF_internal_energy>
180.78214879546977

> <docked_smiles>
CN([C@@H](c1cccc(c1)Cl)C(=O)Nc2cncc3c2cccc3)C(=O)[C@@H]4C[C@@H](O4)C(=O)N5CCCC5

$$$$
PET-UNK-1320d94d-26_1
  -OEChem-07262101023D

 63 67  0     1  0  0  0  0  0999 V2000
    2.5578    0.9697   19.8184 C   0  0  0  0  0  0  0  0  0  0  0  0
    3.1679    0.4166   20.9418 C   0  0  0  0  0  0  0  0  0  0  0  0
   11.9780    0.4600   23.9150 C   0  0  0  0  0  0  0  0  0  0  0  0
    3.2816    1.1263   18.6366 C   0  0  0  0  0  0  0  0  0  0  0  0
    4.5045    0.0176   20.8886 C   0  0  0  0  0  0  0  0  0  0  0  0
   10.6560    0.0720   23.7350 C   0  0  0  0  0  0  0  0  0  0  0  0
   12.9840   -0.1200   23.1530 C   0  0  0  0  0  0  0  0  0  0  0  0
   11.3360   -1.5050   22.0650 C   0  0  0  0  0  0  0  0  0  0  0  0
    5.3982    0.8618   17.4152 C   0  0  0  0  0  0  0  0  0  0  0  0
    7.2560   -0.0413   18.4191 C   0  0  0  0  0  0  0  0  0  0  0  0
    4.6272    0.7281   18.5716 C   0  0  0  0  0  0  0  0  0  0  0  0
    5.2484    0.1678   19.7068 C   0  0  0  0  0  0  0  0  0  0  0  0
   10.3220   -0.8940   22.7910 C   0  0  0  0  0  0  0  0  0  0  0  0
    6.5899   -0.2225   19.6216 C   0  0  0  0  0  0  0  0  0  0  0  0
   12.6400   -1.1000   22.2390 C   0  0  0  0  0  0  0  0  0  0  0  0
    5.6264   -5.3758   25.0425 C   0  0  0  0  0  0  0  0  0  0  0  0
    8.4336   -3.5744   23.0456 C   0  0  0  0  0  0  0  0  0  0  0  0
    8.3880   -0.3240   21.3070 C   0  0  0  0  0  0  0  0  0  0  0  0
    5.4404   -5.5824   22.5522 C   0  0  0  0  0  0  0  0  0  0  0  0
    6.2387   -4.3694   22.1372 C   0  0  0  0  0  0  0  0  0  0  0  0
    3.5208   -7.2973   26.9004 C   0  0  0  0  0  0  0  0  0  0  0  0
    3.9491   -5.8253   26.9277 C   0  0  0  0  0  0  0  0  0  0  0  0
    4.0384   -7.3787   25.4592 C   0  0  0  0  0  0  0  0  0  0  0  0
    6.1576   -6.0350   23.8074 C   0  0  1  0  0  0  0  0  0  0  0  0
    7.6432   -4.7444   22.5645 C   0  0  2  0  0  0  0  0  0  0  0  0
    8.8812   -2.8980   20.6735 C   0  0  0  0  0  0  0  0  0  0  0  0
    8.8810   -1.1900   22.4510 C   0  0  1  0  0  0  0  0  0  0  0  0
    6.6946    0.4912   17.3129 N   0  0  0  0  0  0  0  0  0  0  0  0
    4.6856   -6.1073   25.7120 N   0  0  0  0  0  0  0  0  0  0  0  0
    7.2820   -0.7860   20.6970 N   0  0  0  0  0  0  0  0  0  0  0  0
    8.7217   -2.5865   22.0933 N   0  0  0  0  0  0  0  0  0  0  0  0
    6.0261   -4.2694   25.4016 O   0  0  0  0  0  0  0  0  0  0  0  0
    8.7874   -3.5318   24.2269 O   0  0  0  0  0  0  0  0  0  0  0  0
    8.9170    0.7530   21.0260 O   0  0  0  0  0  0  0  0  0  0  0  0
    7.5230   -5.6332   23.6808 O   0  0  0  0  0  0  0  0  0  0  0  0
   13.8840   -1.8490   21.2740 Cl  0  0  0  0  0  0  0  0  0  0  0  0
    1.5177    1.2791   19.8626 H   0  0  0  0  0  0  0  0  0  0  0  0
    2.6022    0.2953   21.8613 H   0  0  0  0  0  0  0  0  0  0  0  0
   12.2249    1.2198   24.6546 H   0  0  0  0  0  0  0  0  0  0  0  0
    2.7899    1.5597   17.7688 H   0  0  0  0  0  0  0  0  0  0  0  0
    4.9456   -0.4092   21.7864 H   0  0  0  0  0  0  0  0  0  0  0  0
    9.8763    0.5350   24.3454 H   0  0  0  0  0  0  0  0  0  0  0  0
   14.0077    0.1988   23.2842 H   0  0  0  0  0  0  0  0  0  0  0  0
   11.0892   -2.3009   21.3624 H   0  0  0  0  0  0  0  0  0  0  0  0
    4.9815    1.2854   16.5055 H   0  0  0  0  0  0  0  0  0  0  0  0
    8.2971   -0.3285   18.3019 H   0  0  0  0  0  0  0  0  0  0  0  0
    4.4019   -5.2957   22.7612 H   0  0  0  0  0  0  0  0  0  0  0  0
    5.4135   -6.3597   21.7814 H   0  0  0  0  0  0  0  0  0  0  0  0
    6.2104   -4.2736   21.0473 H   0  0  0  0  0  0  0  0  0  0  0  0
    5.8669   -3.4418   22.5752 H   0  0  0  0  0  0  0  0  0  0  0  0
    4.0692   -7.9321   27.6055 H   0  0  0  0  0  0  0  0  0  0  0  0
    2.4484   -7.4740   27.0221 H   0  0  0  0  0  0  0  0  0  0  0  0
    3.1467   -5.0986   26.7754 H   0  0  0  0  0  0  0  0  0  0  0  0
    4.5763   -5.5371   27.7743 H   0  0  0  0  0  0  0  0  0  0  0  0
    4.7251   -8.2046   25.2607 H   0  0  0  0  0  0  0  0  0  0  0  0
    3.2729   -7.3158   24.6809 H   0  0  0  0  0  0  0  0  0  0  0  0
    6.1262   -7.1252   23.9249 H   0  0  0  0  0  0  0  0  0  0  0  0
    8.2074   -5.2333   21.7651 H   0  0  0  0  0  0  0  0  0  0  0  0
    7.9065   -2.8226   20.1693 H   0  0  0  0  0  0  0  0  0  0  0  0
    9.5852   -2.1854   20.2188 H   0  0  0  0  0  0  0  0  0  0  0  0
    9.2724   -3.9202   20.5642 H   0  0  0  0  0  0  0  0  0  0  0  0
    8.2436   -1.0112   23.3272 H   0  0  0  0  0  0  0  0  0  0  0  0
    6.8984   -1.6618   21.0676 H   0  0  0  0  0  0  0  0  0  0  0  0
  1  2  1  0  0  0  0
  1  4  2  0  0  0  0
  2  5  2  0  0  0  0
  3  6  2  0  0  0  0
  3  7  1  0  0  0  0
  4 11  1  0  0  0  0
  5 12  1  0  0  0  0
  6 13  1  0  0  0  0
  7 15  2  0  0  0  0
  8 13  2  0  0  0  0
  8 15  1  0  0  0  0
  9 11  2  0  0  0  0
  9 28  1  0  0  0  0
 10 14  1  0  0  0  0
 10 28  2  0  0  0  0
 11 12  1  0  0  0  0
 12 14  2  0  0  0  0
 13 27  1  0  0  0  0
 14 30  1  0  0  0  0
 15 36  1  0  0  0  0
 16 24  1  0  0  0  0
 16 29  1  0  0  0  0
 16 32  2  0  0  0  0
 17 25  1  0  0  0  0
 17 31  1  0  0  0  0
 17 33  2  0  0  0  0
 18 27  1  0  0  0  0
 18 30  1  0  0  0  0
 18 34  2  0  0  0  0
 19 20  1  0  0  0  0
 19 24  1  0  0  0  0
 20 25  1  0  0  0  0
 21 22  1  0  0  0  0
 21 23  1  0  0  0  0
 22 29  1  0  0  0  0
 23 29  1  0  0  0  0
 24 35  1  0  0  0  0
 25 35  1  0  0  0  0
 26 31  1  0  0  0  0
 27 31  1  0  0  0  0
  1 37  1  0  0  0  0
  2 38  1  0  0  0  0
  3 39  1  0  0  0  0
  4 40  1  0  0  0  0
  5 41  1  0  0  0  0
  6 42  1  0  0  0  0
  7 43  1  0  0  0  0
  8 44  1  0  0  0  0
  9 45  1  0  0  0  0
 10 46  1  0  0  0  0
 19 47  1  0  0  0  0
 19 48  1  0  0  0  0
 20 49  1  0  0  0  0
 20 50  1  0  0  0  0
 21 51  1  0  0  0  0
 21 52  1  0  0  0  0
 22 53  1  0  0  0  0
 22 54  1  0  0  0  0
 23 55  1  0  0  0  0
 23 56  1  0  0  0  0
 24 57  1  0  0  0  0
 25 58  1  0  0  0  0
 26 59  1  0  0  0  0
 26 60  1  0  0  0  0
 26 61  1  0  0  0  0
 27 62  1  0  0  0  0
 30 63  1  0  0  0  0
M  END
> <compound>
PET-UNK-1320d94d-26

> <compound_smiles>
CN([C@@H](c1cccc(c1)Cl)C(=O)Nc2cncc3c2cccc3)C(=O)[C@@H]4CC[C@@H](O4)C(=O)N5CCC5

> <enantiomer_smiles>
CN([C@@H](c1cccc(c1)Cl)C(=O)Nc2cncc3c2cccc3)C(=O)[C@@H]4CC[C@@H](O4)C(=O)N5CCC5

> <scaffold>
chlorobenzene-linker

> <clash_score>
1.223699084543671

> <docking_score>
-4.692511558532715

> <overlap_score>
0.8828812837600708

> <MMFF_internal_energy>
214.96263449681447

> <docked_smiles>
CN([C@@H](c1cccc(c1)Cl)C(=O)Nc2cncc3c2cccc3)C(=O)[C@@H]4CC[C@@H](O4)C(=O)N5CCC5

$$$$
EDJ-MED-6e43a462-2_1
  -OEChem-07262101023D

 37 39  0     0  0  0  0  0  0999 V2000
   11.9780    0.4600   23.9150 C   0  0  0  0  0  0  0  0  0  0  0  0
   10.6560    0.0720   23.7350 C   0  0  0  0  0  0  0  0  0  0  0  0
   12.9840   -0.1200   23.1530 C   0  0  0  0  0  0  0  0  0  0  0  0
   11.3360   -1.5050   22.0650 C   0  0  0  0  0  0  0  0  0  0  0  0
    5.4910   -0.3880   18.9879 C   0  0  0  0  0  0  0  0  0  0  0  0
   10.3220   -0.8940   22.7910 C   0  0  0  0  0  0  0  0  0  0  0  0
   12.6400   -1.1000   22.2390 C   0  0  0  0  0  0  0  0  0  0  0  0
    6.2597    0.0083   20.0509 C   0  0  0  0  0  0  0  0  0  0  0  0
    4.8841    1.6680   19.5262 C   0  0  0  0  0  0  0  0  0  0  0  0
    4.2595    3.0143   19.6328 C   0  0  0  0  0  0  0  0  0  0  0  0
    4.7375    3.8056   20.6100 C   0  0  0  0  0  0  0  0  0  0  0  0
    6.3522    2.1065   21.3703 C   0  0  0  0  0  0  0  0  0  0  0  0
    5.8063    3.3320   21.4914 C   0  0  0  0  0  0  0  0  0  0  0  0
    8.3880   -0.3240   21.3070 C   0  0  0  0  0  0  0  0  0  0  0  0
    7.2303    3.7478   23.2738 C   0  0  0  0  0  0  0  0  0  0  0  0
    8.8810   -1.1900   22.4510 C   0  0  0  0  0  0  0  0  0  0  0  0
    5.8656    1.2912   20.3698 N   0  0  0  0  0  0  0  0  0  0  0  0
    4.6501    0.6576   18.6850 N   0  3  0  0  0  0  0  0  0  0  0  0
    7.2820   -0.7860   20.6970 N   0  0  0  0  0  0  0  0  0  0  0  0
    8.9170    0.7530   21.0260 O   0  0  0  0  0  0  0  0  0  0  0  0
    6.2019    4.2399   22.4469 O   0  0  0  0  0  0  0  0  0  0  0  0
   13.8840   -1.8490   21.2740 Cl  0  0  0  0  0  0  0  0  0  0  0  0
   12.2249    1.2198   24.6546 H   0  0  0  0  0  0  0  0  0  0  0  0
    9.8763    0.5350   24.3454 H   0  0  0  0  0  0  0  0  0  0  0  0
   14.0077    0.1988   23.2842 H   0  0  0  0  0  0  0  0  0  0  0  0
   11.0892   -2.3009   21.3624 H   0  0  0  0  0  0  0  0  0  0  0  0
    5.4115   -1.2728   18.3874 H   0  0  0  0  0  0  0  0  0  0  0  0
    3.4715    3.3142   18.9553 H   0  0  0  0  0  0  0  0  0  0  0  0
    4.3406    4.8036   20.7600 H   0  0  0  0  0  0  0  0  0  0  0  0
    7.1425    1.7289   22.0065 H   0  0  0  0  0  0  0  0  0  0  0  0
    7.5023    4.5083   24.0099 H   0  0  0  0  0  0  0  0  0  0  0  0
    8.0988    3.4901   22.6625 H   0  0  0  0  0  0  0  0  0  0  0  0
    6.8734    2.8542   23.7914 H   0  0  0  0  0  0  0  0  0  0  0  0
    8.7774   -2.2383   22.1732 H   0  0  0  0  0  0  0  0  0  0  0  0
    8.2557   -1.0153   23.3257 H   0  0  0  0  0  0  0  0  0  0  0  0
    3.9595    0.6604   17.9394 H   0  0  0  0  0  0  0  0  0  0  0  0
    7.1527   -1.7824   20.6892 H   0  0  0  0  0  0  0  0  0  0  0  0
  1  2  2  0  0  0  0
  1  3  1  0  0  0  0
  2  6  1  0  0  0  0
  3  7  2  0  0  0  0
  4  6  2  0  0  0  0
  4  7  1  0  0  0  0
  5  8  2  0  0  0  0
  5 18  1  0  0  0  0
  6 16  1  0  0  0  0
  7 22  1  0  0  0  0
  8 17  1  0  0  0  0
  8 19  1  0  0  0  0
  9 10  1  0  0  0  0
  9 17  1  0  0  0  0
  9 18  2  0  0  0  0
 10 11  2  0  0  0  0
 11 13  1  0  0  0  0
 12 13  2  0  0  0  0
 12 17  1  0  0  0  0
 13 21  1  0  0  0  0
 14 16  1  0  0  0  0
 14 19  1  0  0  0  0
 14 20  2  0  0  0  0
 15 21  1  0  0  0  0
  1 23  1  0  0  0  0
  2 24  1  0  0  0  0
  3 25  1  0  0  0  0
  4 26  1  0  0  0  0
  5 27  1  0  0  0  0
 10 28  1  0  0  0  0
 11 29  1  0  0  0  0
 12 30  1  0  0  0  0
 15 31  1  0  0  0  0
 15 32  1  0  0  0  0
 15 33  1  0  0  0  0
 16 34  1  0  0  0  0
 16 35  1  0  0  0  0
 18 36  1  0  0  0  0
 19 37  1  0  0  0  0
M  CHG  1  18   1
M  END
> <compound>
EDJ-MED-6e43a462-2

> <compound_smiles>
COc1ccc2ncc(n2c1)NC(=O)Cc3cccc(c3)Cl

> <enantiomer_smiles>
COc1ccc2ncc(n2c1)NC(=O)Cc3cccc(c3)Cl

> <scaffold>
chlorobenzene-linker

> <clash_score>
0

> <docking_score>
-6.004606246948242

> <overlap_score>
0.8039490580558777

> <MMFF_internal_energy>
55.48928993664169

> <docked_smiles>
COc1ccc2[nH+]cc(n2c1)NC(=O)Cc3cccc(c3)Cl

$$$$
PET-UNK-1320d94d-25_1
  -OEChem-07262101023D

 63 67  0     1  0  0  0  0  0999 V2000
    2.5578    0.9697   19.8184 C   0  0  0  0  0  0  0  0  0  0  0  0
    3.1679    0.4166   20.9418 C   0  0  0  0  0  0  0  0  0  0  0  0
   11.9780    0.4600   23.9150 C   0  0  0  0  0  0  0  0  0  0  0  0
    3.2816    1.1263   18.6366 C   0  0  0  0  0  0  0  0  0  0  0  0
    4.5045    0.0176   20.8886 C   0  0  0  0  0  0  0  0  0  0  0  0
   10.6560    0.0720   23.7350 C   0  0  0  0  0  0  0  0  0  0  0  0
   12.9840   -0.1200   23.1530 C   0  0  0  0  0  0  0  0  0  0  0  0
   11.3360   -1.5050   22.0650 C   0  0  0  0  0  0  0  0  0  0  0  0
    5.3983    0.8618   17.4152 C   0  0  0  0  0  0  0  0  0  0  0  0
    7.2560   -0.0413   18.4191 C   0  0  0  0  0  0  0  0  0  0  0  0
    4.6272    0.7281   18.5716 C   0  0  0  0  0  0  0  0  0  0  0  0
    5.2484    0.1678   19.7068 C   0  0  0  0  0  0  0  0  0  0  0  0
   10.3220   -0.8940   22.7910 C   0  0  0  0  0  0  0  0  0  0  0  0
    6.5899   -0.2225   19.6216 C   0  0  0  0  0  0  0  0  0  0  0  0
   12.6400   -1.1000   22.2390 C   0  0  0  0  0  0  0  0  0  0  0  0
    4.0792    2.1917   24.1993 C   0  0  0  0  0  0  0  0  0  0  0  0
    7.4369    0.2586   23.8801 C   0  0  0  0  0  0  0  0  0  0  0  0
    8.3880   -0.3240   21.3070 C   0  0  0  0  0  0  0  0  0  0  0  0
    4.3353    0.2654   25.7812 C   0  0  0  0  0  0  0  0  0  0  0  0
    5.3608   -0.5471   25.0268 C   0  0  0  0  0  0  0  0  0  0  0  0
    1.4125    4.2439   24.7036 C   0  0  0  0  0  0  0  0  0  0  0  0
    2.0322    3.5568   23.4810 C   0  0  0  0  0  0  0  0  0  0  0  0
    2.1739    3.2547   25.5944 C   0  0  0  0  0  0  0  0  0  0  0  0
    4.7333    1.6887   25.4488 C   0  0  1  0  0  0  0  0  0  0  0  0
    6.5929    0.3310   25.1079 C   0  0  2  0  0  0  0  0  0  0  0  0
    7.8463   -2.1407   24.4803 C   0  0  0  0  0  0  0  0  0  0  0  0
    8.8810   -1.1900   22.4510 C   0  0  2  0  0  0  0  0  0  0  0  0
    6.6946    0.4912   17.3129 N   0  0  0  0  0  0  0  0  0  0  0  0
    2.9357    2.9101   24.4113 N   0  0  0  0  0  0  0  0  0  0  0  0
    7.2820   -0.7860   20.6970 N   0  0  0  0  0  0  0  0  0  0  0  0
    8.0352   -0.9804   23.6107 N   0  0  0  0  0  0  0  0  0  0  0  0
    4.5573    1.9649   23.0889 O   0  0  0  0  0  0  0  0  0  0  0  0
    7.5658    1.2652   23.1781 O   0  0  0  0  0  0  0  0  0  0  0  0
    8.9170    0.7530   21.0260 O   0  0  0  0  0  0  0  0  0  0  0  0
    6.1412    1.6864   25.2044 O   0  0  0  0  0  0  0  0  0  0  0  0
   13.8840   -1.8490   21.2740 Cl  0  0  0  0  0  0  0  0  0  0  0  0
    1.5177    1.2791   19.8626 H   0  0  0  0  0  0  0  0  0  0  0  0
    2.6022    0.2953   21.8613 H   0  0  0  0  0  0  0  0  0  0  0  0
   12.2249    1.2198   24.6546 H   0  0  0  0  0  0  0  0  0  0  0  0
    2.7899    1.5598   17.7688 H   0  0  0  0  0  0  0  0  0  0  0  0
    4.9456   -0.4092   21.7864 H   0  0  0  0  0  0  0  0  0  0  0  0
    9.8763    0.5350   24.3454 H   0  0  0  0  0  0  0  0  0  0  0  0
   14.0077    0.1988   23.2842 H   0  0  0  0  0  0  0  0  0  0  0  0
   11.0892   -2.3009   21.3624 H   0  0  0  0  0  0  0  0  0  0  0  0
    4.9815    1.2854   16.5055 H   0  0  0  0  0  0  0  0  0  0  0  0
    8.2971   -0.3285   18.3019 H   0  0  0  0  0  0  0  0  0  0  0  0
    3.3272    0.0317   25.4155 H   0  0  0  0  0  0  0  0  0  0  0  0
    4.3433    0.0685   26.8583 H   0  0  0  0  0  0  0  0  0  0  0  0
    5.5508   -1.4801   25.5665 H   0  0  0  0  0  0  0  0  0  0  0  0
    5.0488   -0.7933   24.0107 H   0  0  0  0  0  0  0  0  0  0  0  0
    1.7236    5.2869   24.8317 H   0  0  0  0  0  0  0  0  0  0  0  0
    0.3223    4.1871   24.7686 H   0  0  0  0  0  0  0  0  0  0  0  0
    1.3838    2.8470   22.9608 H   0  0  0  0  0  0  0  0  0  0  0  0
    2.5243    4.2241   22.7699 H   0  0  0  0  0  0  0  0  0  0  0  0
    2.7615    3.7108   26.3943 H   0  0  0  0  0  0  0  0  0  0  0  0
    1.5843    2.4167   25.9763 H   0  0  0  0  0  0  0  0  0  0  0  0
    4.5264    2.3749   26.2791 H   0  0  0  0  0  0  0  0  0  0  0  0
    7.2218    0.0914   25.9702 H   0  0  0  0  0  0  0  0  0  0  0  0
    6.9686   -2.7124   24.1444 H   0  0  0  0  0  0  0  0  0  0  0  0
    8.7396   -2.7810   24.4363 H   0  0  0  0  0  0  0  0  0  0  0  0
    7.6889   -1.8016   25.5149 H   0  0  0  0  0  0  0  0  0  0  0  0
    8.7711   -2.2448   22.1651 H   0  0  0  0  0  0  0  0  0  0  0  0
    6.8984   -1.6618   21.0676 H   0  0  0  0  0  0  0  0  0  0  0  0
  1  2  1  0  0  0  0
  1  4  2  0  0  0  0
  2  5  2  0  0  0  0
  3  6  2  0  0  0  0
  3  7  1  0  0  0  0
  4 11  1  0  0  0  0
  5 12  1  0  0  0  0
  6 13  1  0  0  0  0
  7 15  2  0  0  0  0
  8 13  2  0  0  0  0
  8 15  1  0  0  0  0
  9 11  2  0  0  0  0
  9 28  1  0  0  0  0
 10 14  1  0  0  0  0
 10 28  2  0  0  0  0
 11 12  1  0  0  0  0
 12 14  2  0  0  0  0
 13 27  1  0  0  0  0
 14 30  1  0  0  0  0
 15 36  1  0  0  0  0
 16 24  1  0  0  0  0
 16 29  1  0  0  0  0
 16 32  2  0  0  0  0
 17 25  1  0  0  0  0
 17 31  1  0  0  0  0
 17 33  2  0  0  0  0
 18 27  1  0  0  0  0
 18 30  1  0  0  0  0
 18 34  2  0  0  0  0
 19 20  1  0  0  0  0
 19 24  1  0  0  0  0
 20 25  1  0  0  0  0
 21 22  1  0  0  0  0
 21 23  1  0  0  0  0
 22 29  1  0  0  0  0
 23 29  1  0  0  0  0
 24 35  1  0  0  0  0
 25 35  1  0  0  0  0
 26 31  1  0  0  0  0
 27 31  1  0  0  0  0
  1 37  1  0  0  0  0
  2 38  1  0  0  0  0
  3 39  1  0  0  0  0
  4 40  1  0  0  0  0
  5 41  1  0  0  0  0
  6 42  1  0  0  0  0
  7 43  1  0  0  0  0
  8 44  1  0  0  0  0
  9 45  1  0  0  0  0
 10 46  1  0  0  0  0
 19 47  1  0  0  0  0
 19 48  1  0  0  0  0
 20 49  1  0  0  0  0
 20 50  1  0  0  0  0
 21 51  1  0  0  0  0
 21 52  1  0  0  0  0
 22 53  1  0  0  0  0
 22 54  1  0  0  0  0
 23 55  1  0  0  0  0
 23 56  1  0  0  0  0
 24 57  1  0  0  0  0
 25 58  1  0  0  0  0
 26 59  1  0  0  0  0
 26 60  1  0  0  0  0
 26 61  1  0  0  0  0
 27 62  1  0  0  0  0
 30 63  1  0  0  0  0
M  END
> <compound>
PET-UNK-1320d94d-25

> <compound_smiles>
CN([C@H](c1cccc(c1)Cl)C(=O)Nc2cncc3c2cccc3)C(=O)[C@@H]4CC[C@@H](O4)C(=O)N5CCC5

> <enantiomer_smiles>
CN([C@H](c1cccc(c1)Cl)C(=O)Nc2cncc3c2cccc3)C(=O)[C@@H]4CC[C@@H](O4)C(=O)N5CCC5

> <scaffold>
chlorobenzene-linker

> <clash_score>
0.6126632753759448

> <docking_score>
-4.264029502868652

> <overlap_score>
0.8979359269142151

> <MMFF_internal_energy>
216.28251258656005

> <docked_smiles>
CN([C@H](c1cccc(c1)Cl)C(=O)Nc2cncc3c2cccc3)C(=O)[C@@H]4CC[C@@H](O4)C(=O)N5CCC5

$$$$
EDJ-MED-6e43a462-9_1
  -OEChem-07262101023D

 33 35  0     0  0  0  0  0  0999 V2000
   11.9780    0.4600   23.9150 C   0  0  0  0  0  0  0  0  0  0  0  0
   10.6560    0.0720   23.7350 C   0  0  0  0  0  0  0  0  0  0  0  0
   12.9840   -0.1200   23.1530 C   0  0  0  0  0  0  0  0  0  0  0  0
   11.3360   -1.5050   22.0650 C   0  0  0  0  0  0  0  0  0  0  0  0
    5.4905   -0.3871   18.9879 C   0  0  0  0  0  0  0  0  0  0  0  0
   10.3220   -0.8940   22.7910 C   0  0  0  0  0  0  0  0  0  0  0  0
   12.6400   -1.1000   22.2390 C   0  0  0  0  0  0  0  0  0  0  0  0
    6.2597    0.0083   20.0509 C   0  0  0  0  0  0  0  0  0  0  0  0
    4.8835    1.6681   19.5289 C   0  0  0  0  0  0  0  0  0  0  0  0
    4.2587    3.0138   19.6372 C   0  0  0  0  0  0  0  0  0  0  0  0
    4.7368    3.8036   20.6155 C   0  0  0  0  0  0  0  0  0  0  0  0
    6.3525    2.1048   21.3737 C   0  0  0  0  0  0  0  0  0  0  0  0
    5.8044    3.3301   21.4953 C   0  0  0  0  0  0  0  0  0  0  0  0
    8.3880   -0.3240   21.3070 C   0  0  0  0  0  0  0  0  0  0  0  0
    8.8810   -1.1900   22.4510 C   0  0  0  0  0  0  0  0  0  0  0  0
    5.8654    1.2908   20.3716 N   0  0  0  0  0  0  0  0  0  0  0  0
    4.6493    0.6585   18.6866 N   0  3  0  0  0  0  0  0  0  0  0  0
    7.2820   -0.7860   20.6970 N   0  0  0  0  0  0  0  0  0  0  0  0
    8.9170    0.7530   21.0260 O   0  0  0  0  0  0  0  0  0  0  0  0
   13.8840   -1.8490   21.2740 Cl  0  0  0  0  0  0  0  0  0  0  0  0
    6.3617    4.4095   22.7233 Cl  0  0  0  0  0  0  0  0  0  0  0  0
   12.2249    1.2198   24.6546 H   0  0  0  0  0  0  0  0  0  0  0  0
    9.8763    0.5350   24.3454 H   0  0  0  0  0  0  0  0  0  0  0  0
   14.0077    0.1988   23.2842 H   0  0  0  0  0  0  0  0  0  0  0  0
   11.0892   -2.3008   21.3624 H   0  0  0  0  0  0  0  0  0  0  0  0
    5.4109   -1.2718   18.3872 H   0  0  0  0  0  0  0  0  0  0  0  0
    3.4716    3.3159   18.9595 H   0  0  0  0  0  0  0  0  0  0  0  0
    4.3345    4.8005   20.7593 H   0  0  0  0  0  0  0  0  0  0  0  0
    7.1440    1.7220   22.0058 H   0  0  0  0  0  0  0  0  0  0  0  0
    8.7774   -2.2383   22.1732 H   0  0  0  0  0  0  0  0  0  0  0  0
    8.2557   -1.0153   23.3257 H   0  0  0  0  0  0  0  0  0  0  0  0
    3.9582    0.6619   17.9415 H   0  0  0  0  0  0  0  0  0  0  0  0
    7.1527   -1.7824   20.6892 H   0  0  0  0  0  0  0  0  0  0  0  0
  1  2  1  0  0  0  0
  1  3  2  0  0  0  0
  2  6  2  0  0  0  0
  3  7  1  0  0  0  0
  4  6  1  0  0  0  0
  4  7  2  0  0  0  0
  5  8  2  0  0  0  0
  5 17  1  0  0  0  0
  6 15  1  0  0  0  0
  7 20  1  0  0  0  0
  8 16  1  0  0  0  0
  8 18  1  0  0  0  0
  9 10  1  0  0  0  0
  9 16  1  0  0  0  0
  9 17  2  0  0  0  0
 10 11  2  0  0  0  0
 11 13  1  0  0  0  0
 12 13  2  0  0  0  0
 12 16  1  0  0  0  0
 13 21  1  0  0  0  0
 14 15  1  0  0  0  0
 14 18  1  0  0  0  0
 14 19  2  0  0  0  0
  1 22  1  0  0  0  0
  2 23  1  0  0  0  0
  3 24  1  0  0  0  0
  4 25  1  0  0  0  0
  5 26  1  0  0  0  0
 10 27  1  0  0  0  0
 11 28  1  0  0  0  0
 12 29  1  0  0  0  0
 15 30  1  0  0  0  0
 15 31  1  0  0  0  0
 17 32  1  0  0  0  0
 18 33  1  0  0  0  0
M  CHG  1  17   1
M  END
> <compound>
EDJ-MED-6e43a462-9

> <compound_smiles>
c1cc(cc(c1)Cl)CC(=O)Nc2cnc3n2cc(cc3)Cl

> <enantiomer_smiles>
c1cc(cc(c1)Cl)CC(=O)Nc2cnc3n2cc(cc3)Cl

> <scaffold>
chlorobenzene-linker

> <clash_score>
0

> <docking_score>
-6.23950719833374

> <overlap_score>
0.8061544895172119

> <MMFF_internal_energy>
49.30187330502259

> <docked_smiles>
c1cc(cc(c1)Cl)CC(=O)Nc2c[nH+]c3n2cc(cc3)Cl

$$$$
EDJ-MED-6e43a462-3_1
  -OEChem-07262101023D

 37 39  0     0  0  0  0  0  0999 V2000
   11.9780    0.4600   23.9150 C   0  0  0  0  0  0  0  0  0  0  0  0
   10.6560    0.0720   23.7350 C   0  0  0  0  0  0  0  0  0  0  0  0
   12.9840   -0.1200   23.1530 C   0  0  0  0  0  0  0  0  0  0  0  0
   11.3360   -1.5050   22.0650 C   0  0  0  0  0  0  0  0  0  0  0  0
    5.9086   -0.0823   18.7292 C   0  0  0  0  0  0  0  0  0  0  0  0
   10.3220   -0.8940   22.7910 C   0  0  0  0  0  0  0  0  0  0  0  0
   12.6400   -1.1000   22.2390 C   0  0  0  0  0  0  0  0  0  0  0  0
    6.2596    0.0088   20.0508 C   0  0  0  0  0  0  0  0  0  0  0  0
    4.6438    1.4716   19.6558 C   0  0  0  0  0  0  0  0  0  0  0  0
    3.6545    2.5438   19.9467 C   0  0  0  0  0  0  0  0  0  0  0  0
    3.6316    2.9861   21.2143 C   0  0  0  0  0  0  0  0  0  0  0  0
    4.5357    2.4238   22.2099 C   0  0  0  0  0  0  0  0  0  0  0  0
    5.4277    1.4509   21.9293 C   0  0  0  0  0  0  0  0  0  0  0  0
    8.3880   -0.3240   21.3070 C   0  0  0  0  0  0  0  0  0  0  0  0
    7.0953    1.9376   23.4654 C   0  0  0  0  0  0  0  0  0  0  0  0
    8.8810   -1.1900   22.4510 C   0  0  0  0  0  0  0  0  0  0  0  0
    5.4591    0.9860   20.6185 N   0  0  0  0  0  0  0  0  0  0  0  0
    4.9088    0.8321   18.5145 N   0  3  0  0  0  0  0  0  0  0  0  0
    7.2820   -0.7860   20.6970 N   0  0  0  0  0  0  0  0  0  0  0  0
    8.9170    0.7530   21.0260 O   0  0  0  0  0  0  0  0  0  0  0  0
    6.2620    0.9509   22.9051 O   0  0  0  0  0  0  0  0  0  0  0  0
   13.8840   -1.8490   21.2740 Cl  0  0  0  0  0  0  0  0  0  0  0  0
   12.2249    1.2198   24.6546 H   0  0  0  0  0  0  0  0  0  0  0  0
    9.8763    0.5350   24.3454 H   0  0  0  0  0  0  0  0  0  0  0  0
   14.0077    0.1988   23.2842 H   0  0  0  0  0  0  0  0  0  0  0  0
   11.0892   -2.3009   21.3624 H   0  0  0  0  0  0  0  0  0  0  0  0
    6.2253   -0.6721   17.8915 H   0  0  0  0  0  0  0  0  0  0  0  0
    3.0058    2.9260   19.1702 H   0  0  0  0  0  0  0  0  0  0  0  0
    2.9463    3.7655   21.5261 H   0  0  0  0  0  0  0  0  0  0  0  0
    4.4619    2.8290   23.2146 H   0  0  0  0  0  0  0  0  0  0  0  0
    7.7324    1.4862   24.2299 H   0  0  0  0  0  0  0  0  0  0  0  0
    6.4812    2.7266   23.9069 H   0  0  0  0  0  0  0  0  0  0  0  0
    7.7212    2.3635   22.6777 H   0  0  0  0  0  0  0  0  0  0  0  0
    8.7774   -2.2383   22.1732 H   0  0  0  0  0  0  0  0  0  0  0  0
    8.2557   -1.0153   23.3257 H   0  0  0  0  0  0  0  0  0  0  0  0
    4.4433    0.9978   17.6263 H   0  0  0  0  0  0  0  0  0  0  0  0
    7.1526   -1.7822   20.6891 H   0  0  0  0  0  0  0  0  0  0  0  0
  1  2  2  0  0  0  0
  1  3  1  0  0  0  0
  2  6  1  0  0  0  0
  3  7  2  0  0  0  0
  4  6  2  0  0  0  0
  4  7  1  0  0  0  0
  5  8  2  0  0  0  0
  5 18  1  0  0  0  0
  6 16  1  0  0  0  0
  7 22  1  0  0  0  0
  8 17  1  0  0  0  0
  8 19  1  0  0  0  0
  9 10  1  0  0  0  0
  9 17  1  0  0  0  0
  9 18  2  0  0  0  0
 10 11  2  0  0  0  0
 11 12  1  0  0  0  0
 12 13  2  0  0  0  0
 13 17  1  0  0  0  0
 13 21  1  0  0  0  0
 14 16  1  0  0  0  0
 14 19  1  0  0  0  0
 14 20  2  0  0  0  0
 15 21  1  0  0  0  0
  1 23  1  0  0  0  0
  2 24  1  0  0  0  0
  3 25  1  0  0  0  0
  4 26  1  0  0  0  0
  5 27  1  0  0  0  0
 10 28  1  0  0  0  0
 11 29  1  0  0  0  0
 12 30  1  0  0  0  0
 15 31  1  0  0  0  0
 15 32  1  0  0  0  0
 15 33  1  0  0  0  0
 16 34  1  0  0  0  0
 16 35  1  0  0  0  0
 18 36  1  0  0  0  0
 19 37  1  0  0  0  0
M  CHG  1  18   1
M  END
> <compound>
EDJ-MED-6e43a462-3

> <compound_smiles>
COc1cccc2n1c(cn2)NC(=O)Cc3cccc(c3)Cl

> <enantiomer_smiles>
COc1cccc2n1c(cn2)NC(=O)Cc3cccc(c3)Cl

> <scaffold>
chlorobenzene-linker

> <clash_score>
0

> <docking_score>
-8.748222351074219

> <overlap_score>
0.907012939453125

> <MMFF_internal_energy>
29.49652722334965

> <docked_smiles>
COc1cccc2n1c(c[nH+]2)NC(=O)Cc3cccc(c3)Cl

$$$$
PET-UNK-1320d94d-24_1
  -OEChem-07262101023D

 67 71  0     1  0  0  0  0  0999 V2000
    2.4462   -0.6171   18.9969 C   0  0  0  0  0  0  0  0  0  0  0  0
    3.0435   -1.2247   20.0988 C   0  0  0  0  0  0  0  0  0  0  0  0
   11.9780    0.4600   23.9150 C   0  0  0  0  0  0  0  0  0  0  0  0
    3.2197    0.1230   18.1029 C   0  0  0  0  0  0  0  0  0  0  0  0
    4.4170   -1.0949   20.3118 C   0  0  0  0  0  0  0  0  0  0  0  0
   10.6560    0.0720   23.7350 C   0  0  0  0  0  0  0  0  0  0  0  0
   12.9840   -0.1200   23.1530 C   0  0  0  0  0  0  0  0  0  0  0  0
   11.3360   -1.5050   22.0650 C   0  0  0  0  0  0  0  0  0  0  0  0
    5.4239    0.9890   17.4449 C   0  0  0  0  0  0  0  0  0  0  0  0
    7.3052    0.5430   18.6845 C   0  0  0  0  0  0  0  0  0  0  0  0
    4.6027    0.2602   18.3073 C   0  0  0  0  0  0  0  0  0  0  0  0
    5.2111   -0.3534   19.4218 C   0  0  0  0  0  0  0  0  0  0  0  0
   10.3220   -0.8940   22.7910 C   0  0  0  0  0  0  0  0  0  0  0  0
    6.5904   -0.2048   19.6077 C   0  0  0  0  0  0  0  0  0  0  0  0
   12.6400   -1.1000   22.2390 C   0  0  0  0  0  0  0  0  0  0  0  0
    6.3284   -3.7898   26.2997 C   0  0  0  0  0  0  0  0  0  0  0  0
    8.4337   -3.5808   23.0382 C   0  0  0  0  0  0  0  0  0  0  0  0
    8.3880   -0.3240   21.3070 C   0  0  0  0  0  0  0  0  0  0  0  0
    8.7786   -4.2170   26.6035 C   0  0  0  0  0  0  0  0  0  0  0  0
    9.1388   -4.6360   25.1979 C   0  0  0  0  0  0  0  0  0  0  0  0
    4.5273   -5.0093   27.4786 C   0  0  0  0  0  0  0  0  0  0  0  0
    6.5165   -4.3566   28.7708 C   0  0  0  0  0  0  0  0  0  0  0  0
    4.5843   -6.3648   28.1685 C   0  0  0  0  0  0  0  0  0  0  0  0
    6.4873   -5.7386   29.4113 C   0  0  0  0  0  0  0  0  0  0  0  0
    7.6956   -3.1835   26.3718 C   0  0  1  0  0  0  0  0  0  0  0  0
    8.9503   -3.3504   24.4185 C   0  0  2  0  0  0  0  0  0  0  0  0
    8.8787   -2.9028   20.6743 C   0  0  0  0  0  0  0  0  0  0  0  0
    8.8810   -1.1900   22.4510 C   0  0  1  0  0  0  0  0  0  0  0  0
    6.7573    1.1443   17.6071 N   0  0  0  0  0  0  0  0  0  0  0  0
    5.8519   -4.3888   27.4637 N   0  0  0  0  0  0  0  0  0  0  0  0
    7.2820   -0.7860   20.6970 N   0  0  0  0  0  0  0  0  0  0  0  0
    8.7204   -2.5977   22.0905 N   0  0  0  0  0  0  0  0  0  0  0  0
    5.6988   -3.7388   25.2401 O   0  0  0  0  0  0  0  0  0  0  0  0
    7.7904   -4.6063   22.7998 O   0  0  0  0  0  0  0  0  0  0  0  0
    8.9170    0.7530   21.0260 O   0  0  0  0  0  0  0  0  0  0  0  0
    5.1459   -6.2299   29.4767 O   0  0  0  0  0  0  0  0  0  0  0  0
    7.9489   -2.5858   25.0988 O   0  0  0  0  0  0  0  0  0  0  0  0
   13.8840   -1.8490   21.2740 Cl  0  0  0  0  0  0  0  0  0  0  0  0
    1.3775   -0.7199   18.8335 H   0  0  0  0  0  0  0  0  0  0  0  0
    2.4393   -1.8009   20.7937 H   0  0  0  0  0  0  0  0  0  0  0  0
   12.2249    1.2198   24.6546 H   0  0  0  0  0  0  0  0  0  0  0  0
    2.7372    0.5907   17.2477 H   0  0  0  0  0  0  0  0  0  0  0  0
    4.8464   -1.5833   21.1836 H   0  0  0  0  0  0  0  0  0  0  0  0
    9.8763    0.5350   24.3454 H   0  0  0  0  0  0  0  0  0  0  0  0
   14.0077    0.1988   23.2842 H   0  0  0  0  0  0  0  0  0  0  0  0
   11.0892   -2.3009   21.3624 H   0  0  0  0  0  0  0  0  0  0  0  0
    5.0196    1.4865   16.5675 H   0  0  0  0  0  0  0  0  0  0  0  0
    8.3773    0.6873   18.7839 H   0  0  0  0  0  0  0  0  0  0  0  0
    8.4066   -5.0807   27.1711 H   0  0  0  0  0  0  0  0  0  0  0  0
    9.6305   -3.8089   27.1598 H   0  0  0  0  0  0  0  0  0  0  0  0
   10.1927   -4.9315   25.1687 H   0  0  0  0  0  0  0  0  0  0  0  0
    8.5371   -5.4711   24.8339 H   0  0  0  0  0  0  0  0  0  0  0  0
    4.1271   -5.1125   26.4657 H   0  0  0  0  0  0  0  0  0  0  0  0
    3.8721   -4.3288   28.0351 H   0  0  0  0  0  0  0  0  0  0  0  0
    5.9525   -3.6448   29.3849 H   0  0  0  0  0  0  0  0  0  0  0  0
    7.5457   -4.0004   28.7027 H   0  0  0  0  0  0  0  0  0  0  0  0
    3.5731   -6.7681   28.2818 H   0  0  0  0  0  0  0  0  0  0  0  0
    5.1686   -7.0888   27.5881 H   0  0  0  0  0  0  0  0  0  0  0  0
    7.1147   -6.4501   28.8615 H   0  0  0  0  0  0  0  0  0  0  0  0
    6.8689   -5.6817   30.4357 H   0  0  0  0  0  0  0  0  0  0  0  0
    7.7021   -2.3997   27.1356 H   0  0  0  0  0  0  0  0  0  0  0  0
    9.8732   -2.7653   24.3509 H   0  0  0  0  0  0  0  0  0  0  0  0
    7.9038   -2.8252   20.1707 H   0  0  0  0  0  0  0  0  0  0  0  0
    9.5828   -2.1889   20.2219 H   0  0  0  0  0  0  0  0  0  0  0  0
    9.2694   -3.9248   20.5610 H   0  0  0  0  0  0  0  0  0  0  0  0
    8.2436   -1.0112   23.3272 H   0  0  0  0  0  0  0  0  0  0  0  0
    6.8975   -1.6551   21.0614 H   0  0  0  0  0  0  0  0  0  0  0  0
  1  2  1  0  0  0  0
  1  4  2  0  0  0  0
  2  5  2  0  0  0  0
  3  6  2  0  0  0  0
  3  7  1  0  0  0  0
  4 11  1  0  0  0  0
  5 12  1  0  0  0  0
  6 13  1  0  0  0  0
  7 15  2  0  0  0  0
  8 13  2  0  0  0  0
  8 15  1  0  0  0  0
  9 11  2  0  0  0  0
  9 29  1  0  0  0  0
 10 14  1  0  0  0  0
 10 29  2  0  0  0  0
 11 12  1  0  0  0  0
 12 14  2  0  0  0  0
 13 28  1  0  0  0  0
 14 31  1  0  0  0  0
 15 38  1  0  0  0  0
 16 25  1  0  0  0  0
 16 30  1  0  0  0  0
 16 33  2  0  0  0  0
 17 26  1  0  0  0  0
 17 32  1  0  0  0  0
 17 34  2  0  0  0  0
 18 28  1  0  0  0  0
 18 31  1  0  0  0  0
 18 35  2  0  0  0  0
 19 20  1  0  0  0  0
 19 25  1  0  0  0  0
 20 26  1  0  0  0  0
 21 23  1  0  0  0  0
 21 30  1  0  0  0  0
 22 24  1  0  0  0  0
 22 30  1  0  0  0  0
 23 36  1  0  0  0  0
 24 36  1  0  0  0  0
 25 37  1  0  0  0  0
 26 37  1  0  0  0  0
 27 32  1  0  0  0  0
 28 32  1  0  0  0  0
  1 39  1  0  0  0  0
  2 40  1  0  0  0  0
  3 41  1  0  0  0  0
  4 42  1  0  0  0  0
  5 43  1  0  0  0  0
  6 44  1  0  0  0  0
  7 45  1  0  0  0  0
  8 46  1  0  0  0  0
  9 47  1  0  0  0  0
 10 48  1  0  0  0  0
 19 49  1  0  0  0  0
 19 50  1  0  0  0  0
 20 51  1  0  0  0  0
 20 52  1  0  0  0  0
 21 53  1  0  0  0  0
 21 54  1  0  0  0  0
 22 55  1  0  0  0  0
 22 56  1  0  0  0  0
 23 57  1  0  0  0  0
 23 58  1  0  0  0  0
 24 59  1  0  0  0  0
 24 60  1  0  0  0  0
 25 61  1  0  0  0  0
 26 62  1  0  0  0  0
 27 63  1  0  0  0  0
 27 64  1  0  0  0  0
 27 65  1  0  0  0  0
 28 66  1  0  0  0  0
 31 67  1  0  0  0  0
M  END
> <compound>
PET-UNK-1320d94d-24

> <compound_smiles>
CN([C@@H](c1cccc(c1)Cl)C(=O)Nc2cncc3c2cccc3)C(=O)[C@@H]4CC[C@@H](O4)C(=O)N5CCOCC5

> <enantiomer_smiles>
CN([C@@H](c1cccc(c1)Cl)C(=O)Nc2cncc3c2cccc3)C(=O)[C@@H]4CC[C@@H](O4)C(=O)N5CCOCC5

> <scaffold>
chlorobenzene-linker

> <clash_score>
8.203075144005293

> <docking_score>
0.17274892330169678

> <overlap_score>
0.7711603045463562

> <MMFF_internal_energy>
237.38829695316323

> <docked_smiles>
CN([C@@H](c1cccc(c1)Cl)C(=O)Nc2cncc3c2cccc3)C(=O)[C@@H]4CC[C@@H](O4)C(=O)N5CCOCC5

$$$$
EDJ-MED-6e43a462-5_1
  -OEChem-07262101023D

 32 34  0     0  0  0  0  0  0999 V2000
   11.9780    0.4600   23.9150 C   0  0  0  0  0  0  0  0  0  0  0  0
   10.6560    0.0720   23.7350 C   0  0  0  0  0  0  0  0  0  0  0  0
   12.9840   -0.1200   23.1530 C   0  0  0  0  0  0  0  0  0  0  0  0
   11.3360   -1.5050   22.0650 C   0  0  0  0  0  0  0  0  0  0  0  0
    5.4872   -0.3827   18.9876 C   0  0  0  0  0  0  0  0  0  0  0  0
   10.3220   -0.8940   22.7910 C   0  0  0  0  0  0  0  0  0  0  0  0
   12.6400   -1.1000   22.2390 C   0  0  0  0  0  0  0  0  0  0  0  0
    6.2599    0.0075   20.0510 C   0  0  0  0  0  0  0  0  0  0  0  0
    4.8863    1.6704   19.5368 C   0  0  0  0  0  0  0  0  0  0  0  0
    4.3279    2.9305   19.6680 C   0  0  0  0  0  0  0  0  0  0  0  0
    5.7289    3.3304   21.4160 C   0  0  0  0  0  0  0  0  0  0  0  0
    6.3244    2.1238   21.3559 C   0  0  0  0  0  0  0  0  0  0  0  0
    8.3880   -0.3240   21.3070 C   0  0  0  0  0  0  0  0  0  0  0  0
    8.8810   -1.1900   22.4510 C   0  0  0  0  0  0  0  0  0  0  0  0
    4.7137    3.7772   20.5788 N   0  0  0  0  0  0  0  0  0  0  0  0
    5.8653    1.2863   20.3710 N   0  0  0  0  0  0  0  0  0  0  0  0
    4.6458    0.6666   18.6904 N   0  3  0  0  0  0  0  0  0  0  0  0
    7.2820   -0.7860   20.6970 N   0  0  0  0  0  0  0  0  0  0  0  0
    8.9170    0.7530   21.0260 O   0  0  0  0  0  0  0  0  0  0  0  0
   13.8840   -1.8490   21.2740 Cl  0  0  0  0  0  0  0  0  0  0  0  0
   12.2249    1.2198   24.6546 H   0  0  0  0  0  0  0  0  0  0  0  0
    9.8763    0.5350   24.3454 H   0  0  0  0  0  0  0  0  0  0  0  0
   14.0077    0.1988   23.2842 H   0  0  0  0  0  0  0  0  0  0  0  0
   11.0892   -2.3009   21.3624 H   0  0  0  0  0  0  0  0  0  0  0  0
    5.4051   -1.2654   18.3843 H   0  0  0  0  0  0  0  0  0  0  0  0
    3.5285    3.1961   18.9586 H   0  0  0  0  0  0  0  0  0  0  0  0
    6.0448    4.0418   22.1722 H   0  0  0  0  0  0  0  0  0  0  0  0
    7.1137    1.7911   22.0155 H   0  0  0  0  0  0  0  0  0  0  0  0
    8.7774   -2.2383   22.1732 H   0  0  0  0  0  0  0  0  0  0  0  0
    8.2557   -1.0153   23.3257 H   0  0  0  0  0  0  0  0  0  0  0  0
    3.9535    0.6744   17.9463 H   0  0  0  0  0  0  0  0  0  0  0  0
    7.1528   -1.7827   20.6893 H   0  0  0  0  0  0  0  0  0  0  0  0
  1  2  1  0  0  0  0
  1  3  2  0  0  0  0
  2  6  2  0  0  0  0
  3  7  1  0  0  0  0
  4  6  1  0  0  0  0
  4  7  2  0  0  0  0
  5  8  2  0  0  0  0
  5 17  1  0  0  0  0
  6 14  1  0  0  0  0
  7 20  1  0  0  0  0
  8 16  1  0  0  0  0
  8 18  1  0  0  0  0
  9 10  1  0  0  0  0
  9 16  1  0  0  0  0
  9 17  2  0  0  0  0
 10 15  2  0  0  0  0
 11 12  2  0  0  0  0
 11 15  1  0  0  0  0
 12 16  1  0  0  0  0
 13 14  1  0  0  0  0
 13 18  1  0  0  0  0
 13 19  2  0  0  0  0
  1 21  1  0  0  0  0
  2 22  1  0  0  0  0
  3 23  1  0  0  0  0
  4 24  1  0  0  0  0
  5 25  1  0  0  0  0
 10 26  1  0  0  0  0
 11 27  1  0  0  0  0
 12 28  1  0  0  0  0
 14 29  1  0  0  0  0
 14 30  1  0  0  0  0
 17 31  1  0  0  0  0
 18 32  1  0  0  0  0
M  CHG  1  17   1
M  END
> <compound>
EDJ-MED-6e43a462-5

> <compound_smiles>
c1cc(cc(c1)Cl)CC(=O)Nc2cnc3n2ccnc3

> <enantiomer_smiles>
c1cc(cc(c1)Cl)CC(=O)Nc2cnc3n2ccnc3

> <scaffold>
chlorobenzene-linker

> <clash_score>
0

> <docking_score>
-6.009220123291016

> <overlap_score>
0.8103193044662476

> <MMFF_internal_energy>
119.65673678522957

> <docked_smiles>
c1cc(cc(c1)Cl)CC(=O)Nc2c[nH+]c3n2ccnc3

$$$$
EDJ-MED-6e43a462-7_1
  -OEChem-07262101023D

 32 34  0     0  0  0  0  0  0999 V2000
   11.9780    0.4600   23.9150 C   0  0  0  0  0  0  0  0  0  0  0  0
   10.6560    0.0720   23.7350 C   0  0  0  0  0  0  0  0  0  0  0  0
   12.9840   -0.1200   23.1530 C   0  0  0  0  0  0  0  0  0  0  0  0
   11.3360   -1.5050   22.0650 C   0  0  0  0  0  0  0  0  0  0  0  0
    5.8887   -0.0641   18.7366 C   0  0  0  0  0  0  0  0  0  0  0  0
   10.3220   -0.8940   22.7910 C   0  0  0  0  0  0  0  0  0  0  0  0
   12.6400   -1.1000   22.2390 C   0  0  0  0  0  0  0  0  0  0  0  0
    6.2603    0.0059   20.0513 C   0  0  0  0  0  0  0  0  0  0  0  0
    4.6417    1.4861   19.7103 C   0  0  0  0  0  0  0  0  0  0  0  0
    3.6711    2.5462   20.0240 C   0  0  0  0  0  0  0  0  0  0  0  0
    3.6676    2.9697   21.2885 C   0  0  0  0  0  0  0  0  0  0  0  0
    4.6430    2.3109   22.1984 C   0  0  0  0  0  0  0  0  0  0  0  0
    8.3880   -0.3240   21.3070 C   0  0  0  0  0  0  0  0  0  0  0  0
    8.8810   -1.1900   22.4510 C   0  0  0  0  0  0  0  0  0  0  0  0
    5.5156    1.3758   21.9701 N   0  0  0  0  0  0  0  0  0  0  0  0
    5.4721    0.9735   20.6295 N   0  0  0  0  0  0  0  0  0  0  0  0
    4.8872    0.8612   18.5534 N   0  3  0  0  0  0  0  0  0  0  0  0
    7.2820   -0.7860   20.6970 N   0  0  0  0  0  0  0  0  0  0  0  0
    8.9170    0.7530   21.0260 O   0  0  0  0  0  0  0  0  0  0  0  0
   13.8840   -1.8490   21.2740 Cl  0  0  0  0  0  0  0  0  0  0  0  0
   12.2249    1.2198   24.6546 H   0  0  0  0  0  0  0  0  0  0  0  0
    9.8763    0.5350   24.3454 H   0  0  0  0  0  0  0  0  0  0  0  0
   14.0077    0.1988   23.2842 H   0  0  0  0  0  0  0  0  0  0  0  0
   11.0892   -2.3009   21.3624 H   0  0  0  0  0  0  0  0  0  0  0  0
    6.1889   -0.6419   17.8849 H   0  0  0  0  0  0  0  0  0  0  0  0
    3.0117    2.9435   19.2643 H   0  0  0  0  0  0  0  0  0  0  0  0
    3.0112    3.7412   21.6651 H   0  0  0  0  0  0  0  0  0  0  0  0
    4.6010    2.6954   23.2318 H   0  0  0  0  0  0  0  0  0  0  0  0
    8.7774   -2.2383   22.1732 H   0  0  0  0  0  0  0  0  0  0  0  0
    8.2557   -1.0153   23.3257 H   0  0  0  0  0  0  0  0  0  0  0  0
    4.4081    1.0420   17.6754 H   0  0  0  0  0  0  0  0  0  0  0  0
    7.1531   -1.7833   20.6895 H   0  0  0  0  0  0  0  0  0  0  0  0
  1  2  1  0  0  0  0
  1  3  2  0  0  0  0
  2  6  2  0  0  0  0
  3  7  1  0  0  0  0
  4  6  1  0  0  0  0
  4  7  2  0  0  0  0
  5  8  2  0  0  0  0
  5 17  1  0  0  0  0
  6 14  1  0  0  0  0
  7 20  1  0  0  0  0
  8 16  1  0  0  0  0
  8 18  1  0  0  0  0
  9 10  1  0  0  0  0
  9 16  1  0  0  0  0
  9 17  2  0  0  0  0
 10 11  2  0  0  0  0
 11 12  1  0  0  0  0
 12 15  2  0  0  0  0
 13 14  1  0  0  0  0
 13 18  1  0  0  0  0
 13 19  2  0  0  0  0
 15 16  1  0  0  0  0
  1 21  1  0  0  0  0
  2 22  1  0  0  0  0
  3 23  1  0  0  0  0
  4 24  1  0  0  0  0
  5 25  1  0  0  0  0
 10 26  1  0  0  0  0
 11 27  1  0  0  0  0
 12 28  1  0  0  0  0
 14 29  1  0  0  0  0
 14 30  1  0  0  0  0
 17 31  1  0  0  0  0
 18 32  1  0  0  0  0
M  CHG  1  17   1
M  END
> <compound>
EDJ-MED-6e43a462-7

> <compound_smiles>
c1cc(cc(c1)Cl)CC(=O)Nc2cnc3n2nccc3

> <enantiomer_smiles>
c1cc(cc(c1)Cl)CC(=O)Nc2cnc3n2nccc3

> <scaffold>
chlorobenzene-linker

> <clash_score>
0

> <docking_score>
-8.787545204162598

> <overlap_score>
0.9027029275894165

> <MMFF_internal_energy>
87.84560100643046

> <docked_smiles>
c1cc(cc(c1)Cl)CC(=O)Nc2c[nH+]c3n2nccc3

$$$$
EDJ-MED-6e43a462-6_1
  -OEChem-07262101023D

 32 34  0     0  0  0  0  0  0999 V2000
   11.9780    0.4600   23.9150 C   0  0  0  0  0  0  0  0  0  0  0  0
   10.6560    0.0720   23.7350 C   0  0  0  0  0  0  0  0  0  0  0  0
   12.9840   -0.1200   23.1530 C   0  0  0  0  0  0  0  0  0  0  0  0
   11.3360   -1.5050   22.0650 C   0  0  0  0  0  0  0  0  0  0  0  0
    5.4844   -0.3793   18.9883 C   0  0  0  0  0  0  0  0  0  0  0  0
   10.3220   -0.8940   22.7910 C   0  0  0  0  0  0  0  0  0  0  0  0
   12.6400   -1.1000   22.2390 C   0  0  0  0  0  0  0  0  0  0  0  0
    6.2604    0.0054   20.0514 C   0  0  0  0  0  0  0  0  0  0  0  0
    4.8887    1.6800   19.5381 C   0  0  0  0  0  0  0  0  0  0  0  0
    4.3054    3.0240   19.6863 C   0  0  0  0  0  0  0  0  0  0  0  0
    4.8414    3.7454   20.6843 C   0  0  0  0  0  0  0  0  0  0  0  0
    6.3315    2.1108   21.3494 C   0  0  0  0  0  0  0  0  0  0  0  0
    8.3880   -0.3240   21.3070 C   0  0  0  0  0  0  0  0  0  0  0  0
    8.8810   -1.1900   22.4510 C   0  0  0  0  0  0  0  0  0  0  0  0
    5.8509    3.3096   21.5244 N   0  0  0  0  0  0  0  0  0  0  0  0
    5.8616    1.2760   20.3567 N   0  0  0  0  0  0  0  0  0  0  0  0
    4.6440    0.6764   18.6906 N   0  3  0  0  0  0  0  0  0  0  0  0
    7.2820   -0.7860   20.6970 N   0  0  0  0  0  0  0  0  0  0  0  0
    8.9170    0.7530   21.0260 O   0  0  0  0  0  0  0  0  0  0  0  0
   13.8840   -1.8490   21.2740 Cl  0  0  0  0  0  0  0  0  0  0  0  0
   12.2249    1.2198   24.6546 H   0  0  0  0  0  0  0  0  0  0  0  0
    9.8763    0.5350   24.3454 H   0  0  0  0  0  0  0  0  0  0  0  0
   14.0077    0.1988   23.2842 H   0  0  0  0  0  0  0  0  0  0  0  0
   11.0892   -2.3009   21.3624 H   0  0  0  0  0  0  0  0  0  0  0  0
    5.3973   -1.2599   18.3826 H   0  0  0  0  0  0  0  0  0  0  0  0
    3.5167    3.3807   19.0391 H   0  0  0  0  0  0  0  0  0  0  0  0
    4.4807    4.7504   20.8760 H   0  0  0  0  0  0  0  0  0  0  0  0
    7.1356    1.7469   22.0088 H   0  0  0  0  0  0  0  0  0  0  0  0
    8.7775   -2.2383   22.1732 H   0  0  0  0  0  0  0  0  0  0  0  0
    8.2557   -1.0153   23.3257 H   0  0  0  0  0  0  0  0  0  0  0  0
    3.9520    0.6862   17.9465 H   0  0  0  0  0  0  0  0  0  0  0  0
    7.1531   -1.7834   20.6895 H   0  0  0  0  0  0  0  0  0  0  0  0
  1  2  1  0  0  0  0
  1  3  2  0  0  0  0
  2  6  2  0  0  0  0
  3  7  1  0  0  0  0
  4  6  1  0  0  0  0
  4  7  2  0  0  0  0
  5  8  2  0  0  0  0
  5 17  1  0  0  0  0
  6 14  1  0  0  0  0
  7 20  1  0  0  0  0
  8 16  1  0  0  0  0
  8 18  1  0  0  0  0
  9 10  1  0  0  0  0
  9 16  1  0  0  0  0
  9 17  2  0  0  0  0
 10 11  2  0  0  0  0
 11 15  1  0  0  0  0
 12 15  2  0  0  0  0
 12 16  1  0  0  0  0
 13 14  1  0  0  0  0
 13 18  1  0  0  0  0
 13 19  2  0  0  0  0
  1 21  1  0  0  0  0
  2 22  1  0  0  0  0
  3 23  1  0  0  0  0
  4 24  1  0  0  0  0
  5 25  1  0  0  0  0
 10 26  1  0  0  0  0
 11 27  1  0  0  0  0
 12 28  1  0  0  0  0
 14 29  1  0  0  0  0
 14 30  1  0  0  0  0
 17 31  1  0  0  0  0
 18 32  1  0  0  0  0
M  CHG  1  17   1
M  END
> <compound>
EDJ-MED-6e43a462-6

> <compound_smiles>
c1cc(cc(c1)Cl)CC(=O)Nc2cnc3n2cncc3

> <enantiomer_smiles>
c1cc(cc(c1)Cl)CC(=O)Nc2cnc3n2cncc3

> <scaffold>
chlorobenzene-linker

> <clash_score>
0

> <docking_score>
-6.289130210876465

> <overlap_score>
0.8073573112487793

> <MMFF_internal_energy>
-17.977352724152695

> <docked_smiles>
c1cc(cc(c1)Cl)CC(=O)Nc2c[nH+]c3n2cncc3

$$$$
PET-UNK-ac320b15-3_1
  -OEChem-07262101023D

 57 60  0     1  0  0  0  0  0999 V2000
   11.9780    0.4600   23.9150 C   0  0  0  0  0  0  0  0  0  0  0  0
    5.8957    1.7145   18.3357 C   0  0  0  0  0  0  0  0  0  0  0  0
   10.6560    0.0720   23.7350 C   0  0  0  0  0  0  0  0  0  0  0  0
    6.5839    1.1722   19.4153 C   0  0  0  0  0  0  0  0  0  0  0  0
   12.9840   -0.1200   23.1530 C   0  0  0  0  0  0  0  0  0  0  0  0
   11.3360   -1.5050   22.0650 C   0  0  0  0  0  0  0  0  0  0  0  0
    5.2351    0.8436   17.4842 C   0  0  0  0  0  0  0  0  0  0  0  0
    5.8985   -0.9897   18.6994 C   0  0  0  0  0  0  0  0  0  0  0  0
   10.3220   -0.8940   22.7910 C   0  0  0  0  0  0  0  0  0  0  0  0
    6.5904   -0.2048   19.6077 C   0  0  0  0  0  0  0  0  0  0  0  0
   12.6400   -1.1000   22.2390 C   0  0  0  0  0  0  0  0  0  0  0  0
    5.1100    0.8446   23.8993 C   0  0  0  0  0  0  0  0  0  0  0  0
    7.7910   -1.9633   24.5477 C   0  0  0  0  0  0  0  0  0  0  0  0
    8.3880   -0.3240   21.3070 C   0  0  0  0  0  0  0  0  0  0  0  0
    6.4443    4.2468   23.4919 C   0  0  0  0  0  0  0  0  0  0  0  0
    6.6895    4.0161   24.9777 C   0  0  0  0  0  0  0  0  0  0  0  0
    4.6921   -1.4553   24.7984 C   0  0  0  0  0  0  0  0  0  0  0  0
    5.5893   -2.3014   25.6701 C   0  0  0  0  0  0  0  0  0  0  0  0
    6.2629    2.8350   22.9562 C   0  0  0  0  0  0  0  0  0  0  0  0
    5.7509    2.8629   25.3036 C   0  0  0  0  0  0  0  0  0  0  0  0
    5.1869   -0.0532   25.0881 C   0  0  1  0  0  0  0  0  0  0  0  0
    6.8922   -1.5285   25.6616 C   0  0  2  0  0  0  0  0  0  0  0  0
    8.8810   -1.1900   22.4510 C   0  0  2  0  0  0  0  0  0  0  0  0
    5.2187   -0.4993   17.6387 N   0  0  0  0  0  0  0  0  0  0  0  0
    5.6684    2.0992   24.0625 N   0  0  0  0  0  0  0  0  0  0  0  0
    7.2820   -0.7860   20.6970 N   0  0  0  0  0  0  0  0  0  0  0  0
    8.0374   -0.9810   23.6076 N   0  0  0  0  0  0  0  0  0  0  0  0
    4.5810    0.4557   22.8567 O   0  0  0  0  0  0  0  0  0  0  0  0
    8.2327   -3.1063   24.5389 O   0  0  0  0  0  0  0  0  0  0  0  0
    8.9170    0.7530   21.0260 O   0  0  0  0  0  0  0  0  0  0  0  0
    6.5745   -0.1567   25.4238 O   0  0  0  0  0  0  0  0  0  0  0  0
   13.8840   -1.8490   21.2740 Cl  0  0  0  0  0  0  0  0  0  0  0  0
   12.2249    1.2198   24.6546 H   0  0  0  0  0  0  0  0  0  0  0  0
    5.8771    2.7850   18.1662 H   0  0  0  0  0  0  0  0  0  0  0  0
    9.8763    0.5350   24.3454 H   0  0  0  0  0  0  0  0  0  0  0  0
    7.1114    1.8312   20.0999 H   0  0  0  0  0  0  0  0  0  0  0  0
   14.0077    0.1988   23.2842 H   0  0  0  0  0  0  0  0  0  0  0  0
   11.0892   -2.3008   21.3624 H   0  0  0  0  0  0  0  0  0  0  0  0
    4.6845    1.2167   16.6269 H   0  0  0  0  0  0  0  0  0  0  0  0
    5.8667   -2.0709   18.7968 H   0  0  0  0  0  0  0  0  0  0  0  0
    5.5272    4.8295   23.3460 H   0  0  0  0  0  0  0  0  0  0  0  0
    7.2722    4.7745   23.0104 H   0  0  0  0  0  0  0  0  0  0  0  0
    7.7308    3.7172   25.1467 H   0  0  0  0  0  0  0  0  0  0  0  0
    6.4817    4.9068   25.5772 H   0  0  0  0  0  0  0  0  0  0  0  0
    4.8256   -1.7274   23.7432 H   0  0  0  0  0  0  0  0  0  0  0  0
    3.6290   -1.5778   25.0322 H   0  0  0  0  0  0  0  0  0  0  0  0
    5.1836   -2.3257   26.6887 H   0  0  0  0  0  0  0  0  0  0  0  0
    5.6795   -3.3325   25.3159 H   0  0  0  0  0  0  0  0  0  0  0  0
    5.6246    2.7897   22.0689 H   0  0  0  0  0  0  0  0  0  0  0  0
    7.2252    2.3656   22.7236 H   0  0  0  0  0  0  0  0  0  0  0  0
    6.1160    2.2420   26.1261 H   0  0  0  0  0  0  0  0  0  0  0  0
    4.7442    3.2218   25.5435 H   0  0  0  0  0  0  0  0  0  0  0  0
    4.6586    0.4086   25.9266 H   0  0  0  0  0  0  0  0  0  0  0  0
    7.4385   -1.6264   26.6039 H   0  0  0  0  0  0  0  0  0  0  0  0
    8.7711   -2.2448   22.1651 H   0  0  0  0  0  0  0  0  0  0  0  0
    6.8975   -1.6551   21.0614 H   0  0  0  0  0  0  0  0  0  0  0  0
    7.6065   -0.0703   23.7357 H   0  0  0  0  0  0  0  0  0  0  0  0
  1  3  1  0  0  0  0
  1  5  2  0  0  0  0
  2  4  2  0  0  0  0
  2  7  1  0  0  0  0
  3  9  2  0  0  0  0
  4 10  1  0  0  0  0
  5 11  1  0  0  0  0
  6  9  1  0  0  0  0
  6 11  2  0  0  0  0
  7 24  2  0  0  0  0
  8 10  2  0  0  0  0
  8 24  1  0  0  0  0
  9 23  1  0  0  0  0
 10 26  1  0  0  0  0
 11 32  1  0  0  0  0
 12 21  1  0  0  0  0
 12 25  1  0  0  0  0
 12 28  2  0  0  0  0
 13 22  1  0  0  0  0
 13 27  1  0  0  0  0
 13 29  2  0  0  0  0
 14 23  1  0  0  0  0
 14 26  1  0  0  0  0
 14 30  2  0  0  0  0
 15 16  1  0  0  0  0
 15 19  1  0  0  0  0
 16 20  1  0  0  0  0
 17 18  1  0  0  0  0
 17 21  1  0  0  0  0
 18 22  1  0  0  0  0
 19 25  1  0  0  0  0
 20 25  1  0  0  0  0
 21 31  1  0  0  0  0
 22 31  1  0  0  0  0
 23 27  1  0  0  0  0
  1 33  1  0  0  0  0
  2 34  1  0  0  0  0
  3 35  1  0  0  0  0
  4 36  1  0  0  0  0
  5 37  1  0  0  0  0
  6 38  1  0  0  0  0
  7 39  1  0  0  0  0
  8 40  1  0  0  0  0
 15 41  1  0  0  0  0
 15 42  1  0  0  0  0
 16 43  1  0  0  0  0
 16 44  1  0  0  0  0
 17 45  1  0  0  0  0
 17 46  1  0  0  0  0
 18 47  1  0  0  0  0
 18 48  1  0  0  0  0
 19 49  1  0  0  0  0
 19 50  1  0  0  0  0
 20 51  1  0  0  0  0
 20 52  1  0  0  0  0
 21 53  1  0  0  0  0
 22 54  1  0  0  0  0
 23 55  1  0  0  0  0
 26 56  1  0  0  0  0
 27 57  1  0  0  0  0
M  END
> <compound>
PET-UNK-ac320b15-3

> <compound_smiles>
c1cc(cc(c1)Cl)[C@H](C(=O)Nc2cccnc2)NC(=O)[C@@H]3CC[C@@H](O3)C(=O)N4CCCC4

> <enantiomer_smiles>
c1cc(cc(c1)Cl)[C@H](C(=O)Nc2cccnc2)NC(=O)[C@@H]3CC[C@@H](O3)C(=O)N4CCCC4

> <scaffold>
chlorobenzene-linker

> <clash_score>
0

> <docking_score>
-4.103569030761719

> <overlap_score>
0.7595898509025574

> <MMFF_internal_energy>
129.42725875132493

> <docked_smiles>
c1cc(cc(c1)Cl)[C@H](C(=O)Nc2cccnc2)NC(=O)[C@@H]3CC[C@@H](O3)C(=O)N4CCCC4

$$$$
PET-UNK-ac320b15-10_1
  -OEChem-07262101023D

 63 67  0     1  0  0  0  0  0999 V2000
    2.5650    1.0118   19.7905 C   0  0  0  0  0  0  0  0  0  0  0  0
    3.1657    0.4486   20.9140 C   0  0  0  0  0  0  0  0  0  0  0  0
   11.9780    0.4600   23.9150 C   0  0  0  0  0  0  0  0  0  0  0  0
    3.2959    1.1704   18.6133 C   0  0  0  0  0  0  0  0  0  0  0  0
    4.5001    0.0413   20.8653 C   0  0  0  0  0  0  0  0  0  0  0  0
   10.6560    0.0720   23.7350 C   0  0  0  0  0  0  0  0  0  0  0  0
   12.9840   -0.1200   23.1530 C   0  0  0  0  0  0  0  0  0  0  0  0
   11.3360   -1.5050   22.0650 C   0  0  0  0  0  0  0  0  0  0  0  0
    5.4171    0.8994   17.4014 C   0  0  0  0  0  0  0  0  0  0  0  0
    7.2639   -0.0211   18.4097 C   0  0  0  0  0  0  0  0  0  0  0  0
    4.6393    0.7642   18.5530 C   0  0  0  0  0  0  0  0  0  0  0  0
    5.2510    0.1935   19.6882 C   0  0  0  0  0  0  0  0  0  0  0  0
   10.3220   -0.8940   22.7910 C   0  0  0  0  0  0  0  0  0  0  0  0
    6.5904   -0.2048   19.6077 C   0  0  0  0  0  0  0  0  0  0  0  0
   12.6400   -1.1000   22.2390 C   0  0  0  0  0  0  0  0  0  0  0  0
    5.0895   -5.5328   23.4045 C   0  0  0  0  0  0  0  0  0  0  0  0
    8.4779   -3.5767   23.0228 C   0  0  0  0  0  0  0  0  0  0  0  0
    8.3880   -0.3240   21.3070 C   0  0  0  0  0  0  0  0  0  0  0  0
    1.7042   -6.6695   22.5275 C   0  0  0  0  0  0  0  0  0  0  0  0
    2.4971   -7.9581   22.3488 C   0  0  0  0  0  0  0  0  0  0  0  0
    7.3670   -6.3288   24.0787 C   0  0  0  0  0  0  0  0  0  0  0  0
    8.6968   -6.0288   23.4288 C   0  0  0  0  0  0  0  0  0  0  0  0
    2.6209   -5.8270   23.4009 C   0  0  0  0  0  0  0  0  0  0  0  0
    3.9309   -7.4621   22.2247 C   0  0  0  0  0  0  0  0  0  0  0  0
    6.3912   -6.0968   22.9434 C   0  0  2  0  0  0  0  0  0  0  0  0
    8.3465   -4.9442   22.4310 C   0  0  1  0  0  0  0  0  0  0  0  0
    8.8810   -1.1900   22.4510 C   0  0  2  0  0  0  0  0  0  0  0  0
    6.7116    0.5212   17.3036 N   0  0  0  0  0  0  0  0  0  0  0  0
    3.9645   -6.2423   23.0256 N   0  0  0  0  0  0  0  0  0  0  0  0
    7.2820   -0.7860   20.6970 N   0  0  0  0  0  0  0  0  0  0  0  0
    8.7221   -2.5829   22.0943 N   0  0  0  0  0  0  0  0  0  0  0  0
    5.0599   -4.5037   24.0813 O   0  0  0  0  0  0  0  0  0  0  0  0
    8.3649   -3.4291   24.2341 O   0  0  0  0  0  0  0  0  0  0  0  0
    8.9170    0.7530   21.0260 O   0  0  0  0  0  0  0  0  0  0  0  0
    6.9717   -5.1112   22.0827 O   0  0  0  0  0  0  0  0  0  0  0  0
   13.8840   -1.8490   21.2740 Cl  0  0  0  0  0  0  0  0  0  0  0  0
    1.5267    1.3276   19.8311 H   0  0  0  0  0  0  0  0  0  0  0  0
    2.5946    0.3257   21.8298 H   0  0  0  0  0  0  0  0  0  0  0  0
   12.2249    1.2198   24.6546 H   0  0  0  0  0  0  0  0  0  0  0  0
    2.8114    1.6119   17.7455 H   0  0  0  0  0  0  0  0  0  0  0  0
    4.9338   -0.3933   21.7630 H   0  0  0  0  0  0  0  0  0  0  0  0
    9.8763    0.5350   24.3454 H   0  0  0  0  0  0  0  0  0  0  0  0
   14.0077    0.1988   23.2842 H   0  0  0  0  0  0  0  0  0  0  0  0
   11.0892   -2.3008   21.3624 H   0  0  0  0  0  0  0  0  0  0  0  0
    5.0078    1.3308   16.4920 H   0  0  0  0  0  0  0  0  0  0  0  0
    8.3038   -0.3142   18.2963 H   0  0  0  0  0  0  0  0  0  0  0  0
    1.5503   -6.1826   21.5573 H   0  0  0  0  0  0  0  0  0  0  0  0
    0.7280   -6.8421   22.9890 H   0  0  0  0  0  0  0  0  0  0  0  0
    2.3908   -8.5931   23.2363 H   0  0  0  0  0  0  0  0  0  0  0  0
    2.1742   -8.5275   21.4729 H   0  0  0  0  0  0  0  0  0  0  0  0
    7.3047   -7.3468   24.4782 H   0  0  0  0  0  0  0  0  0  0  0  0
    7.1925   -5.6401   24.9155 H   0  0  0  0  0  0  0  0  0  0  0  0
    9.4681   -5.7412   24.1491 H   0  0  0  0  0  0  0  0  0  0  0  0
    9.0458   -6.9206   22.8942 H   0  0  0  0  0  0  0  0  0  0  0  0
    2.4885   -4.7513   23.2522 H   0  0  0  0  0  0  0  0  0  0  0  0
    2.4868   -6.0559   24.4640 H   0  0  0  0  0  0  0  0  0  0  0  0
    4.6616   -8.1914   22.5845 H   0  0  0  0  0  0  0  0  0  0  0  0
    4.1725   -7.1910   21.1913 H   0  0  0  0  0  0  0  0  0  0  0  0
    6.2074   -7.0035   22.3617 H   0  0  0  0  0  0  0  0  0  0  0  0
    8.9667   -4.9916   21.5317 H   0  0  0  0  0  0  0  0  0  0  0  0
    8.2436   -1.0112   23.3272 H   0  0  0  0  0  0  0  0  0  0  0  0
    6.8975   -1.6551   21.0614 H   0  0  0  0  0  0  0  0  0  0  0  0
    8.7953   -2.8433   21.1154 H   0  0  0  0  0  0  0  0  0  0  0  0
  1  2  1  0  0  0  0
  1  4  2  0  0  0  0
  2  5  2  0  0  0  0
  3  6  2  0  0  0  0
  3  7  1  0  0  0  0
  4 11  1  0  0  0  0
  5 12  1  0  0  0  0
  6 13  1  0  0  0  0
  7 15  2  0  0  0  0
  8 13  2  0  0  0  0
  8 15  1  0  0  0  0
  9 11  2  0  0  0  0
  9 28  1  0  0  0  0
 10 14  1  0  0  0  0
 10 28  2  0  0  0  0
 11 12  1  0  0  0  0
 12 14  2  0  0  0  0
 13 27  1  0  0  0  0
 14 30  1  0  0  0  0
 15 36  1  0  0  0  0
 16 25  1  0  0  0  0
 16 29  1  0  0  0  0
 16 32  2  0  0  0  0
 17 26  1  0  0  0  0
 17 31  1  0  0  0  0
 17 33  2  0  0  0  0
 18 27  1  0  0  0  0
 18 30  1  0  0  0  0
 18 34  2  0  0  0  0
 19 20  1  0  0  0  0
 19 23  1  0  0  0  0
 20 24  1  0  0  0  0
 21 22  1  0  0  0  0
 21 25  1  0  0  0  0
 22 26  1  0  0  0  0
 23 29  1  0  0  0  0
 24 29  1  0  0  0  0
 25 35  1  0  0  0  0
 26 35  1  0  0  0  0
 27 31  1  0  0  0  0
  1 37  1  0  0  0  0
  2 38  1  0  0  0  0
  3 39  1  0  0  0  0
  4 40  1  0  0  0  0
  5 41  1  0  0  0  0
  6 42  1  0  0  0  0
  7 43  1  0  0  0  0
  8 44  1  0  0  0  0
  9 45  1  0  0  0  0
 10 46  1  0  0  0  0
 19 47  1  0  0  0  0
 19 48  1  0  0  0  0
 20 49  1  0  0  0  0
 20 50  1  0  0  0  0
 21 51  1  0  0  0  0
 21 52  1  0  0  0  0
 22 53  1  0  0  0  0
 22 54  1  0  0  0  0
 23 55  1  0  0  0  0
 23 56  1  0  0  0  0
 24 57  1  0  0  0  0
 24 58  1  0  0  0  0
 25 59  1  0  0  0  0
 26 60  1  0  0  0  0
 27 61  1  0  0  0  0
 30 62  1  0  0  0  0
 31 63  1  0  0  0  0
M  END
> <compound>
PET-UNK-ac320b15-10

> <compound_smiles>
c1ccc2c(c1)cncc2NC(=O)[C@H](c3cccc(c3)Cl)NC(=O)[C@H]4CC[C@H](O4)C(=O)N5CCCC5

> <enantiomer_smiles>
c1ccc2c(c1)cncc2NC(=O)[C@H](c3cccc(c3)Cl)NC(=O)[C@H]4CC[C@H](O4)C(=O)N5CCCC5

> <scaffold>
chlorobenzene-linker

> <clash_score>
0.6141233759404353

> <docking_score>
-3.399636745452881

> <overlap_score>
0.8815414309501648

> <MMFF_internal_energy>
168.89271471757408

> <docked_smiles>
c1ccc2c(c1)cncc2NC(=O)[C@H](c3cccc(c3)Cl)NC(=O)[C@H]4CC[C@H](O4)C(=O)N5CCCC5

$$$$
PET-UNK-ac320b15-5_1
  -OEChem-07262101023D

 63 67  0     1  0  0  0  0  0999 V2000
    2.5650    1.0119   19.7905 C   0  0  0  0  0  0  0  0  0  0  0  0
    3.1657    0.4486   20.9140 C   0  0  0  0  0  0  0  0  0  0  0  0
   11.9780    0.4600   23.9150 C   0  0  0  0  0  0  0  0  0  0  0  0
    3.2959    1.1705   18.6133 C   0  0  0  0  0  0  0  0  0  0  0  0
    4.5001    0.0414   20.8653 C   0  0  0  0  0  0  0  0  0  0  0  0
   10.6560    0.0720   23.7350 C   0  0  0  0  0  0  0  0  0  0  0  0
   12.9840   -0.1200   23.1530 C   0  0  0  0  0  0  0  0  0  0  0  0
   11.3360   -1.5050   22.0650 C   0  0  0  0  0  0  0  0  0  0  0  0
    5.4171    0.8995   17.4014 C   0  0  0  0  0  0  0  0  0  0  0  0
    7.2639   -0.0211   18.4097 C   0  0  0  0  0  0  0  0  0  0  0  0
    4.6393    0.7642   18.5530 C   0  0  0  0  0  0  0  0  0  0  0  0
    5.2510    0.1935   19.6882 C   0  0  0  0  0  0  0  0  0  0  0  0
   10.3220   -0.8940   22.7910 C   0  0  0  0  0  0  0  0  0  0  0  0
    6.5904   -0.2048   19.6077 C   0  0  0  0  0  0  0  0  0  0  0  0
   12.6400   -1.1000   22.2390 C   0  0  0  0  0  0  0  0  0  0  0  0
    5.1664   -2.9142   28.3307 C   0  0  0  0  0  0  0  0  0  0  0  0
    7.7880   -1.9599   24.5504 C   0  0  0  0  0  0  0  0  0  0  0  0
    8.3880   -0.3240   21.3070 C   0  0  0  0  0  0  0  0  0  0  0  0
    2.4570   -4.5620   30.1922 C   0  0  0  0  0  0  0  0  0  0  0  0
    2.4409   -5.3580   28.8932 C   0  0  0  0  0  0  0  0  0  0  0  0
    4.6146   -1.5981   26.2952 C   0  0  0  0  0  0  0  0  0  0  0  0
    5.5010   -1.1859   25.1466 C   0  0  0  0  0  0  0  0  0  0  0  0
    3.8333   -3.9151   30.1750 C   0  0  0  0  0  0  0  0  0  0  0  0
    3.1796   -4.4452   27.9245 C   0  0  0  0  0  0  0  0  0  0  0  0
    5.3332   -2.8155   26.8335 C   0  0  1  0  0  0  0  0  0  0  0  0
    6.8805   -1.5160   25.6721 C   0  0  1  0  0  0  0  0  0  0  0  0
    8.8810   -1.1900   22.4510 C   0  0  1  0  0  0  0  0  0  0  0  0
    6.7116    0.5212   17.3036 N   0  0  0  0  0  0  0  0  0  0  0  0
    4.1226   -3.7118   28.7631 N   0  0  0  0  0  0  0  0  0  0  0  0
    7.2820   -0.7860   20.6970 N   0  0  0  0  0  0  0  0  0  0  0  0
    8.0374   -0.9810   23.6076 N   0  0  0  0  0  0  0  0  0  0  0  0
    5.9332   -2.3134   29.0850 O   0  0  0  0  0  0  0  0  0  0  0  0
    8.2274   -3.1039   24.5455 O   0  0  0  0  0  0  0  0  0  0  0  0
    8.9170    0.7530   21.0260 O   0  0  0  0  0  0  0  0  0  0  0  0
    6.7292   -2.6256   26.5675 O   0  0  0  0  0  0  0  0  0  0  0  0
   13.8840   -1.8490   21.2740 Cl  0  0  0  0  0  0  0  0  0  0  0  0
    1.5267    1.3276   19.8311 H   0  0  0  0  0  0  0  0  0  0  0  0
    2.5946    0.3257   21.8298 H   0  0  0  0  0  0  0  0  0  0  0  0
   12.2249    1.2198   24.6546 H   0  0  0  0  0  0  0  0  0  0  0  0
    2.8114    1.6119   17.7455 H   0  0  0  0  0  0  0  0  0  0  0  0
    4.9338   -0.3933   21.7630 H   0  0  0  0  0  0  0  0  0  0  0  0
    9.8763    0.5350   24.3454 H   0  0  0  0  0  0  0  0  0  0  0  0
   14.0077    0.1988   23.2842 H   0  0  0  0  0  0  0  0  0  0  0  0
   11.0892   -2.3008   21.3624 H   0  0  0  0  0  0  0  0  0  0  0  0
    5.0078    1.3308   16.4920 H   0  0  0  0  0  0  0  0  0  0  0  0
    8.3038   -0.3142   18.2963 H   0  0  0  0  0  0  0  0  0  0  0  0
    1.6754   -3.7935   30.1745 H   0  0  0  0  0  0  0  0  0  0  0  0
    2.3027   -5.1952   31.0703 H   0  0  0  0  0  0  0  0  0  0  0  0
    2.9886   -6.2992   29.0202 H   0  0  0  0  0  0  0  0  0  0  0  0
    1.4256   -5.5887   28.5590 H   0  0  0  0  0  0  0  0  0  0  0  0
    4.4655   -0.8043   27.0273 H   0  0  0  0  0  0  0  0  0  0  0  0
    3.6368   -1.9012   25.9110 H   0  0  0  0  0  0  0  0  0  0  0  0
    5.2492   -1.6875   24.2113 H   0  0  0  0  0  0  0  0  0  0  0  0
    5.4169   -0.1064   24.9910 H   0  0  0  0  0  0  0  0  0  0  0  0
    3.8710   -2.9683   30.7219 H   0  0  0  0  0  0  0  0  0  0  0  0
    4.5993   -4.5867   30.5781 H   0  0  0  0  0  0  0  0  0  0  0  0
    3.6983   -4.9983   27.1369 H   0  0  0  0  0  0  0  0  0  0  0  0
    2.5024   -3.7167   27.4658 H   0  0  0  0  0  0  0  0  0  0  0  0
    4.9818   -3.7410   26.3898 H   0  0  0  0  0  0  0  0  0  0  0  0
    7.3455   -0.6772   26.1816 H   0  0  0  0  0  0  0  0  0  0  0  0
    8.7711   -2.2448   22.1651 H   0  0  0  0  0  0  0  0  0  0  0  0
    6.8975   -1.6551   21.0614 H   0  0  0  0  0  0  0  0  0  0  0  0
    7.6084   -0.0689   23.7325 H   0  0  0  0  0  0  0  0  0  0  0  0
  1  2  1  0  0  0  0
  1  4  2  0  0  0  0
  2  5  2  0  0  0  0
  3  6  2  0  0  0  0
  3  7  1  0  0  0  0
  4 11  1  0  0  0  0
  5 12  1  0  0  0  0
  6 13  1  0  0  0  0
  7 15  2  0  0  0  0
  8 13  2  0  0  0  0
  8 15  1  0  0  0  0
  9 11  2  0  0  0  0
  9 28  1  0  0  0  0
 10 14  1  0  0  0  0
 10 28  2  0  0  0  0
 11 12  1  0  0  0  0
 12 14  2  0  0  0  0
 13 27  1  0  0  0  0
 14 30  1  0  0  0  0
 15 36  1  0  0  0  0
 16 25  1  0  0  0  0
 16 29  1  0  0  0  0
 16 32  2  0  0  0  0
 17 26  1  0  0  0  0
 17 31  1  0  0  0  0
 17 33  2  0  0  0  0
 18 27  1  0  0  0  0
 18 30  1  0  0  0  0
 18 34  2  0  0  0  0
 19 20  1  0  0  0  0
 19 23  1  0  0  0  0
 20 24  1  0  0  0  0
 21 22  1  0  0  0  0
 21 25  1  0  0  0  0
 22 26  1  0  0  0  0
 23 29  1  0  0  0  0
 24 29  1  0  0  0  0
 25 35  1  0  0  0  0
 26 35  1  0  0  0  0
 27 31  1  0  0  0  0
  1 37  1  0  0  0  0
  2 38  1  0  0  0  0
  3 39  1  0  0  0  0
  4 40  1  0  0  0  0
  5 41  1  0  0  0  0
  6 42  1  0  0  0  0
  7 43  1  0  0  0  0
  8 44  1  0  0  0  0
  9 45  1  0  0  0  0
 10 46  1  0  0  0  0
 19 47  1  0  0  0  0
 19 48  1  0  0  0  0
 20 49  1  0  0  0  0
 20 50  1  0  0  0  0
 21 51  1  0  0  0  0
 21 52  1  0  0  0  0
 22 53  1  0  0  0  0
 22 54  1  0  0  0  0
 23 55  1  0  0  0  0
 23 56  1  0  0  0  0
 24 57  1  0  0  0  0
 24 58  1  0  0  0  0
 25 59  1  0  0  0  0
 26 60  1  0  0  0  0
 27 61  1  0  0  0  0
 30 62  1  0  0  0  0
 31 63  1  0  0  0  0
M  END
> <compound>
PET-UNK-ac320b15-5

> <compound_smiles>
c1ccc2c(c1)cncc2NC(=O)[C@@H](c3cccc(c3)Cl)NC(=O)[C@H]4CC[C@@H](O4)C(=O)N5CCCC5

> <enantiomer_smiles>
c1ccc2c(c1)cncc2NC(=O)[C@@H](c3cccc(c3)Cl)NC(=O)[C@H]4CC[C@@H](O4)C(=O)N5CCCC5

> <scaffold>
chlorobenzene-linker

> <clash_score>
0.7641212419619643

> <docking_score>
-3.212636709213257

> <overlap_score>
0.8812681436538696

> <MMFF_internal_energy>
175.30669752550648

> <docked_smiles>
c1ccc2c(c1)cncc2NC(=O)[C@@H](c3cccc(c3)Cl)NC(=O)[C@H]4CC[C@@H](O4)C(=O)N5CCCC5

$$$$
PET-UNK-ac320b15-7_1
  -OEChem-07262101023D

 63 67  0     1  0  0  0  0  0999 V2000
    2.5650    1.0118   19.7905 C   0  0  0  0  0  0  0  0  0  0  0  0
    3.1657    0.4486   20.9139 C   0  0  0  0  0  0  0  0  0  0  0  0
   11.9780    0.4600   23.9150 C   0  0  0  0  0  0  0  0  0  0  0  0
    3.2959    1.1705   18.6133 C   0  0  0  0  0  0  0  0  0  0  0  0
    4.5001    0.0413   20.8653 C   0  0  0  0  0  0  0  0  0  0  0  0
   10.6560    0.0720   23.7350 C   0  0  0  0  0  0  0  0  0  0  0  0
   12.9840   -0.1200   23.1530 C   0  0  0  0  0  0  0  0  0  0  0  0
   11.3360   -1.5050   22.0650 C   0  0  0  0  0  0  0  0  0  0  0  0
    5.4171    0.8995   17.4014 C   0  0  0  0  0  0  0  0  0  0  0  0
    7.2639   -0.0211   18.4097 C   0  0  0  0  0  0  0  0  0  0  0  0
    4.6393    0.7642   18.5530 C   0  0  0  0  0  0  0  0  0  0  0  0
    5.2510    0.1935   19.6882 C   0  0  0  0  0  0  0  0  0  0  0  0
   10.3220   -0.8940   22.7910 C   0  0  0  0  0  0  0  0  0  0  0  0
    6.5904   -0.2048   19.6077 C   0  0  0  0  0  0  0  0  0  0  0  0
   12.6400   -1.1000   22.2390 C   0  0  0  0  0  0  0  0  0  0  0  0
    5.4338   -2.8064   28.2731 C   0  0  0  0  0  0  0  0  0  0  0  0
    7.7883   -1.9603   24.5501 C   0  0  0  0  0  0  0  0  0  0  0  0
    8.3880   -0.3240   21.3070 C   0  0  0  0  0  0  0  0  0  0  0  0
    2.4333   -4.8538   28.8445 C   0  0  0  0  0  0  0  0  0  0  0  0
    3.4321   -5.9194   28.4108 C   0  0  0  0  0  0  0  0  0  0  0  0
    7.8168   -2.2955   27.7004 C   0  0  0  0  0  0  0  0  0  0  0  0
    7.6584   -1.0387   26.8740 C   0  0  0  0  0  0  0  0  0  0  0  0
    3.3308   -3.6968   29.2554 C   0  0  0  0  0  0  0  0  0  0  0  0
    4.5151   -5.1084   27.7134 C   0  0  0  0  0  0  0  0  0  0  0  0
    6.5769   -3.0927   27.3522 C   0  0  2  0  0  0  0  0  0  0  0  0
    6.8892   -1.5210   25.6617 C   0  0  2  0  0  0  0  0  0  0  0  0
    8.8810   -1.1900   22.4510 C   0  0  1  0  0  0  0  0  0  0  0  0
    6.7116    0.5212   17.3036 N   0  0  0  0  0  0  0  0  0  0  0  0
    4.4978   -3.8173   28.3940 N   0  0  0  0  0  0  0  0  0  0  0  0
    7.2820   -0.7860   20.6970 N   0  0  0  0  0  0  0  0  0  0  0  0
    8.0374   -0.9810   23.6076 N   0  0  0  0  0  0  0  0  0  0  0  0
    5.3685   -1.7313   28.8712 O   0  0  0  0  0  0  0  0  0  0  0  0
    8.2279   -3.1041   24.5449 O   0  0  0  0  0  0  0  0  0  0  0  0
    8.9170    0.7530   21.0260 O   0  0  0  0  0  0  0  0  0  0  0  0
    6.1494   -2.6798   26.0524 O   0  0  0  0  0  0  0  0  0  0  0  0
   13.8840   -1.8490   21.2740 Cl  0  0  0  0  0  0  0  0  0  0  0  0
    1.5267    1.3276   19.8311 H   0  0  0  0  0  0  0  0  0  0  0  0
    2.5946    0.3257   21.8298 H   0  0  0  0  0  0  0  0  0  0  0  0
   12.2249    1.2198   24.6546 H   0  0  0  0  0  0  0  0  0  0  0  0
    2.8114    1.6119   17.7455 H   0  0  0  0  0  0  0  0  0  0  0  0
    4.9338   -0.3933   21.7630 H   0  0  0  0  0  0  0  0  0  0  0  0
    9.8763    0.5350   24.3454 H   0  0  0  0  0  0  0  0  0  0  0  0
   14.0077    0.1988   23.2842 H   0  0  0  0  0  0  0  0  0  0  0  0
   11.0892   -2.3008   21.3624 H   0  0  0  0  0  0  0  0  0  0  0  0
    5.0078    1.3308   16.4920 H   0  0  0  0  0  0  0  0  0  0  0  0
    8.3038   -0.3142   18.2963 H   0  0  0  0  0  0  0  0  0  0  0  0
    1.8003   -4.5620   27.9982 H   0  0  0  0  0  0  0  0  0  0  0  0
    1.7890   -5.1943   29.6598 H   0  0  0  0  0  0  0  0  0  0  0  0
    3.8458   -6.4289   29.2890 H   0  0  0  0  0  0  0  0  0  0  0  0
    2.9822   -6.6688   27.7537 H   0  0  0  0  0  0  0  0  0  0  0  0
    8.7026   -2.8445   27.3609 H   0  0  0  0  0  0  0  0  0  0  0  0
    7.9347   -2.0913   28.7682 H   0  0  0  0  0  0  0  0  0  0  0  0
    7.0512   -0.3139   27.4294 H   0  0  0  0  0  0  0  0  0  0  0  0
    8.6146   -0.5635   26.6354 H   0  0  0  0  0  0  0  0  0  0  0  0
    2.8553   -2.7189   29.1347 H   0  0  0  0  0  0  0  0  0  0  0  0
    3.6706   -3.7989   30.2920 H   0  0  0  0  0  0  0  0  0  0  0  0
    5.5007   -5.5769   27.7796 H   0  0  0  0  0  0  0  0  0  0  0  0
    4.2696   -4.9351   26.6601 H   0  0  0  0  0  0  0  0  0  0  0  0
    6.7554   -4.1710   27.3578 H   0  0  0  0  0  0  0  0  0  0  0  0
    6.2046   -0.7623   25.2711 H   0  0  0  0  0  0  0  0  0  0  0  0
    8.7711   -2.2448   22.1651 H   0  0  0  0  0  0  0  0  0  0  0  0
    6.8975   -1.6551   21.0614 H   0  0  0  0  0  0  0  0  0  0  0  0
    7.6087   -0.0689   23.7332 H   0  0  0  0  0  0  0  0  0  0  0  0
  1  2  1  0  0  0  0
  1  4  2  0  0  0  0
  2  5  2  0  0  0  0
  3  6  2  0  0  0  0
  3  7  1  0  0  0  0
  4 11  1  0  0  0  0
  5 12  1  0  0  0  0
  6 13  1  0  0  0  0
  7 15  2  0  0  0  0
  8 13  2  0  0  0  0
  8 15  1  0  0  0  0
  9 11  2  0  0  0  0
  9 28  1  0  0  0  0
 10 14  1  0  0  0  0
 10 28  2  0  0  0  0
 11 12  1  0  0  0  0
 12 14  2  0  0  0  0
 13 27  1  0  0  0  0
 14 30  1  0  0  0  0
 15 36  1  0  0  0  0
 16 25  1  0  0  0  0
 16 29  1  0  0  0  0
 16 32  2  0  0  0  0
 17 26  1  0  0  0  0
 17 31  1  0  0  0  0
 17 33  2  0  0  0  0
 18 27  1  0  0  0  0
 18 30  1  0  0  0  0
 18 34  2  0  0  0  0
 19 20  1  0  0  0  0
 19 23  1  0  0  0  0
 20 24  1  0  0  0  0
 21 22  1  0  0  0  0
 21 25  1  0  0  0  0
 22 26  1  0  0  0  0
 23 29  1  0  0  0  0
 24 29  1  0  0  0  0
 25 35  1  0  0  0  0
 26 35  1  0  0  0  0
 27 31  1  0  0  0  0
  1 37  1  0  0  0  0
  2 38  1  0  0  0  0
  3 39  1  0  0  0  0
  4 40  1  0  0  0  0
  5 41  1  0  0  0  0
  6 42  1  0  0  0  0
  7 43  1  0  0  0  0
  8 44  1  0  0  0  0
  9 45  1  0  0  0  0
 10 46  1  0  0  0  0
 19 47  1  0  0  0  0
 19 48  1  0  0  0  0
 20 49  1  0  0  0  0
 20 50  1  0  0  0  0
 21 51  1  0  0  0  0
 21 52  1  0  0  0  0
 22 53  1  0  0  0  0
 22 54  1  0  0  0  0
 23 55  1  0  0  0  0
 23 56  1  0  0  0  0
 24 57  1  0  0  0  0
 24 58  1  0  0  0  0
 25 59  1  0  0  0  0
 26 60  1  0  0  0  0
 27 61  1  0  0  0  0
 30 62  1  0  0  0  0
 31 63  1  0  0  0  0
M  END
> <compound>
PET-UNK-ac320b15-7

> <compound_smiles>
c1ccc2c(c1)cncc2NC(=O)[C@@H](c3cccc(c3)Cl)NC(=O)[C@@H]4CC[C@H](O4)C(=O)N5CCCC5

> <enantiomer_smiles>
c1ccc2c(c1)cncc2NC(=O)[C@@H](c3cccc(c3)Cl)NC(=O)[C@@H]4CC[C@H](O4)C(=O)N5CCCC5

> <scaffold>
chlorobenzene-linker

> <clash_score>
0

> <docking_score>
-3.794178009033203

> <overlap_score>
0.8810949921607971

> <MMFF_internal_energy>
167.4175056185719

> <docked_smiles>
c1ccc2c(c1)cncc2NC(=O)[C@@H](c3cccc(c3)Cl)NC(=O)[C@@H]4CC[C@H](O4)C(=O)N5CCCC5

$$$$
EDJ-MED-6e43a462-10_1
  -OEChem-07262101023D

 35 37  0     0  0  0  0  0  0999 V2000
   11.9780    0.4600   23.9150 C   0  0  0  0  0  0  0  0  0  0  0  0
   10.6560    0.0720   23.7350 C   0  0  0  0  0  0  0  0  0  0  0  0
   12.9840   -0.1200   23.1530 C   0  0  0  0  0  0  0  0  0  0  0  0
   11.3360   -1.5050   22.0650 C   0  0  0  0  0  0  0  0  0  0  0  0
    5.4910   -0.3880   18.9879 C   0  0  0  0  0  0  0  0  0  0  0  0
   10.3220   -0.8940   22.7910 C   0  0  0  0  0  0  0  0  0  0  0  0
   12.6400   -1.1000   22.2390 C   0  0  0  0  0  0  0  0  0  0  0  0
    6.2597    0.0083   20.0509 C   0  0  0  0  0  0  0  0  0  0  0  0
    4.8843    1.6676   19.5265 C   0  0  0  0  0  0  0  0  0  0  0  0
    4.2606    3.0130   19.6334 C   0  0  0  0  0  0  0  0  0  0  0  0
    4.7394    3.8033   20.6108 C   0  0  0  0  0  0  0  0  0  0  0  0
    6.3535    2.1065   21.3706 C   0  0  0  0  0  0  0  0  0  0  0  0
    5.8094    3.3350   21.4961 C   0  0  0  0  0  0  0  0  0  0  0  0
    8.3880   -0.3240   21.3070 C   0  0  0  0  0  0  0  0  0  0  0  0
    8.8810   -1.1900   22.4510 C   0  0  0  0  0  0  0  0  0  0  0  0
    5.8657    1.2914   20.3698 N   0  0  0  0  0  0  0  0  0  0  0  0
    4.6501    0.6574   18.6852 N   0  3  0  0  0  0  0  0  0  0  0  0
    6.2327    4.2128   22.4598 N   0  0  0  0  0  0  0  0  0  0  0  0
    7.2820   -0.7860   20.6970 N   0  0  0  0  0  0  0  0  0  0  0  0
    8.9170    0.7530   21.0260 O   0  0  0  0  0  0  0  0  0  0  0  0
   13.8840   -1.8490   21.2740 Cl  0  0  0  0  0  0  0  0  0  0  0  0
   12.2249    1.2198   24.6546 H   0  0  0  0  0  0  0  0  0  0  0  0
    9.8763    0.5350   24.3454 H   0  0  0  0  0  0  0  0  0  0  0  0
   14.0077    0.1988   23.2842 H   0  0  0  0  0  0  0  0  0  0  0  0
   11.0892   -2.3009   21.3624 H   0  0  0  0  0  0  0  0  0  0  0  0
    5.4125   -1.2721   18.3863 H   0  0  0  0  0  0  0  0  0  0  0  0
    3.4728    3.3148   18.9565 H   0  0  0  0  0  0  0  0  0  0  0  0
    4.3345    4.7998   20.7541 H   0  0  0  0  0  0  0  0  0  0  0  0
    7.1449    1.7241   22.0035 H   0  0  0  0  0  0  0  0  0  0  0  0
    8.7775   -2.2383   22.1732 H   0  0  0  0  0  0  0  0  0  0  0  0
    8.2557   -1.0153   23.3257 H   0  0  0  0  0  0  0  0  0  0  0  0
    3.9590    0.6593   17.9400 H   0  0  0  0  0  0  0  0  0  0  0  0
    5.7990    5.1057   22.5068 H   0  0  0  0  0  0  0  0  0  0  0  0
    6.9573    3.9233   23.0752 H   0  0  0  0  0  0  0  0  0  0  0  0
    7.1527   -1.7824   20.6892 H   0  0  0  0  0  0  0  0  0  0  0  0
  1  2  1  0  0  0  0
  1  3  2  0  0  0  0
  2  6  2  0  0  0  0
  3  7  1  0  0  0  0
  4  6  1  0  0  0  0
  4  7  2  0  0  0  0
  5  8  2  0  0  0  0
  5 17  1  0  0  0  0
  6 15  1  0  0  0  0
  7 21  1  0  0  0  0
  8 16  1  0  0  0  0
  8 19  1  0  0  0  0
  9 10  1  0  0  0  0
  9 16  1  0  0  0  0
  9 17  2  0  0  0  0
 10 11  2  0  0  0  0
 11 13  1  0  0  0  0
 12 13  2  0  0  0  0
 12 16  1  0  0  0  0
 13 18  1  0  0  0  0
 14 15  1  0  0  0  0
 14 19  1  0  0  0  0
 14 20  2  0  0  0  0
  1 22  1  0  0  0  0
  2 23  1  0  0  0  0
  3 24  1  0  0  0  0
  4 25  1  0  0  0  0
  5 26  1  0  0  0  0
 10 27  1  0  0  0  0
 11 28  1  0  0  0  0
 12 29  1  0  0  0  0
 15 30  1  0  0  0  0
 15 31  1  0  0  0  0
 17 32  1  0  0  0  0
 18 33  1  0  0  0  0
 18 34  1  0  0  0  0
 19 35  1  0  0  0  0
M  CHG  1  17   1
M  END
> <compound>
EDJ-MED-6e43a462-10

> <compound_smiles>
c1cc(cc(c1)Cl)CC(=O)Nc2cnc3n2cc(cc3)N

> <enantiomer_smiles>
c1cc(cc(c1)Cl)CC(=O)Nc2cnc3n2cc(cc3)N

> <scaffold>
chlorobenzene-linker

> <clash_score>
0

> <docking_score>
-6.054318428039551

> <overlap_score>
0.8057358264923096

> <MMFF_internal_energy>
49.21275067114109

> <docked_smiles>
c1cc(cc(c1)Cl)CC(=O)Nc2c[nH+]c3n2cc(cc3)N

$$$$
MAT-POS-d8472c4f-2_1
  -OEChem-07262101023D

 57 60  0     1  0  0  0  0  0999 V2000
    3.4588    2.5718   20.0554 C   0  0  0  0  0  0  0  0  0  0  0  0
    4.0835    2.0505   21.1859 C   0  0  0  0  0  0  0  0  0  0  0  0
   11.9780    0.4600   23.9150 C   0  0  0  0  0  0  0  0  0  0  0  0
    3.8710    2.1742   18.7837 C   0  0  0  0  0  0  0  0  0  0  0  0
    5.1234    1.1291   21.0499 C   0  0  0  0  0  0  0  0  0  0  0  0
   10.6560    0.0720   23.7350 C   0  0  0  0  0  0  0  0  0  0  0  0
   12.9840   -0.1200   23.1530 C   0  0  0  0  0  0  0  0  0  0  0  0
   11.3360   -1.5050   22.0650 C   0  0  0  0  0  0  0  0  0  0  0  0
    5.3689    0.8151   17.3870 C   0  0  0  0  0  0  0  0  0  0  0  0
    6.9552   -0.5603   18.3181 C   0  0  0  0  0  0  0  0  0  0  0  0
    4.9163    1.2476   18.6351 C   0  0  0  0  0  0  0  0  0  0  0  0
    5.5514    0.7175   19.7772 C   0  0  0  0  0  0  0  0  0  0  0  0
   10.3220   -0.8940   22.7910 C   0  0  0  0  0  0  0  0  0  0  0  0
    6.5908   -0.2044   19.6077 C   0  0  0  0  0  0  0  0  0  0  0  0
   12.6400   -1.1000   22.2390 C   0  0  0  0  0  0  0  0  0  0  0  0
    7.1598   -6.8812   25.0905 C   0  0  0  0  0  0  0  0  0  0  0  0
    8.3880   -0.3240   21.3070 C   0  0  0  0  0  0  0  0  0  0  0  0
    6.9575   -6.6543   22.6059 C   0  0  0  0  0  0  0  0  0  0  0  0
    7.1314   -5.1668   22.4036 C   0  0  0  0  0  0  0  0  0  0  0  0
    7.8749   -6.9429   23.7794 C   0  0  1  0  0  0  0  0  0  0  0  0
    8.5926   -4.9752   22.7658 C   0  0  2  0  0  0  0  0  0  0  0  0
    5.4699   -7.9366   26.3611 C   0  0  0  0  0  0  0  0  0  0  0  0
    8.9247   -3.5669   23.2185 C   0  0  0  0  0  0  0  0  0  0  0  0
    8.8810   -1.1900   22.4510 C   0  0  1  0  0  0  0  0  0  0  0  0
    6.3708   -0.0740   17.2025 N   0  0  0  0  0  0  0  0  0  0  0  0
    7.2820   -0.7860   20.6970 N   0  0  0  0  0  0  0  0  0  0  0  0
    8.6454   -2.6234   22.1123 N   0  3  0  0  0  0  0  0  0  0  0  0
    7.3921   -6.0515   25.9594 O   0  0  0  0  0  0  0  0  0  0  0  0
    8.9170    0.7530   21.0260 O   0  0  0  0  0  0  0  0  0  0  0  0
    8.8583   -5.9042   23.8290 O   0  0  0  0  0  0  0  0  0  0  0  0
    6.2320   -7.8784   25.1511 O   0  0  0  0  0  0  0  0  0  0  0  0
   13.8840   -1.8490   21.2740 Cl  0  0  0  0  0  0  0  0  0  0  0  0
    2.6499    3.2883   20.1641 H   0  0  0  0  0  0  0  0  0  0  0  0
    3.7607    2.3613   22.1754 H   0  0  0  0  0  0  0  0  0  0  0  0
   12.2249    1.2198   24.6546 H   0  0  0  0  0  0  0  0  0  0  0  0
    3.3723    2.5910   17.9118 H   0  0  0  0  0  0  0  0  0  0  0  0
    5.5866    0.7453   21.9560 H   0  0  0  0  0  0  0  0  0  0  0  0
    9.8763    0.5350   24.3454 H   0  0  0  0  0  0  0  0  0  0  0  0
   14.0077    0.1988   23.2842 H   0  0  0  0  0  0  0  0  0  0  0  0
   11.0892   -2.3009   21.3624 H   0  0  0  0  0  0  0  0  0  0  0  0
    4.9234    1.1835   16.4670 H   0  0  0  0  0  0  0  0  0  0  0  0
    7.7549   -1.2720   18.1337 H   0  0  0  0  0  0  0  0  0  0  0  0
    5.9155   -6.9434   22.7718 H   0  0  0  0  0  0  0  0  0  0  0  0
    7.3191   -7.1862   21.7176 H   0  0  0  0  0  0  0  0  0  0  0  0
    6.8984   -4.8385   21.3868 H   0  0  0  0  0  0  0  0  0  0  0  0
    6.4792   -4.6221   23.0969 H   0  0  0  0  0  0  0  0  0  0  0  0
    8.3683   -7.9157   23.6962 H   0  0  0  0  0  0  0  0  0  0  0  0
    9.2335   -5.2541   21.9206 H   0  0  0  0  0  0  0  0  0  0  0  0
    4.7604   -8.7658   26.3061 H   0  0  0  0  0  0  0  0  0  0  0  0
    4.9350   -6.9940   26.5015 H   0  0  0  0  0  0  0  0  0  0  0  0
    6.1492   -8.0965   27.2017 H   0  0  0  0  0  0  0  0  0  0  0  0
    9.9827   -3.4653   23.4707 H   0  0  0  0  0  0  0  0  0  0  0  0
    8.3078   -3.2621   24.0669 H   0  0  0  0  0  0  0  0  0  0  0  0
    8.2445   -1.0188   23.3300 H   0  0  0  0  0  0  0  0  0  0  0  0
    6.8974   -1.6551   21.0612 H   0  0  0  0  0  0  0  0  0  0  0  0
    9.2243   -2.8708   21.2953 H   0  0  0  0  0  0  0  0  0  0  0  0
    7.6685   -2.7376   21.8019 H   0  0  0  0  0  0  0  0  0  0  0  0
  1  2  1  0  0  0  0
  1  4  2  0  0  0  0
  2  5  2  0  0  0  0
  3  6  2  0  0  0  0
  3  7  1  0  0  0  0
  4 11  1  0  0  0  0
  5 12  1  0  0  0  0
  6 13  1  0  0  0  0
  7 15  2  0  0  0  0
  8 13  2  0  0  0  0
  8 15  1  0  0  0  0
  9 11  2  0  0  0  0
  9 25  1  0  0  0  0
 10 14  1  0  0  0  0
 10 25  2  0  0  0  0
 11 12  1  0  0  0  0
 12 14  2  0  0  0  0
 13 24  1  0  0  0  0
 14 26  1  0  0  0  0
 15 32  1  0  0  0  0
 16 20  1  0  0  0  0
 16 28  2  0  0  0  0
 16 31  1  0  0  0  0
 17 24  1  1  0  0  0
 17 26  1  0  0  0  0
 17 29  2  0  0  0  0
 18 19  1  0  0  0  0
 18 20  1  0  0  0  0
 19 21  1  0  0  0  0
 20 30  1  0  0  0  0
 21 23  1  0  0  0  0
 21 30  1  0  0  0  0
 22 31  1  0  0  0  0
 23 27  1  0  0  0  0
 24 27  1  0  0  0  0
  1 33  1  0  0  0  0
  2 34  1  0  0  0  0
  3 35  1  0  0  0  0
  4 36  1  0  0  0  0
  5 37  1  0  0  0  0
  6 38  1  0  0  0  0
  7 39  1  0  0  0  0
  8 40  1  0  0  0  0
  9 41  1  0  0  0  0
 10 42  1  0  0  0  0
 18 43  1  0  0  0  0
 18 44  1  0  0  0  0
 19 45  1  0  0  0  0
 19 46  1  0  0  0  0
 20 47  1  0  0  0  0
 21 48  1  0  0  0  0
 22 49  1  0  0  0  0
 22 50  1  0  0  0  0
 22 51  1  0  0  0  0
 23 52  1  0  0  0  0
 23 53  1  0  0  0  0
 24 54  1  0  0  0  0
 26 55  1  0  0  0  0
 27 56  1  0  0  0  0
 27 57  1  0  0  0  0
M  CHG  1  27   1
M  END
> <compound>
MAT-POS-d8472c4f-2

> <compound_smiles>
COC(=O)[C@H]1CC[C@H](O1)CNC(c2cccc(c2)Cl)C(=O)Nc3cncc4c3cccc4

> <enantiomer_smiles>
COC(=O)[C@H]1CC[C@H](O1)CN[C@@H](c2cccc(c2)Cl)C(=O)Nc3cncc4c3cccc4

> <scaffold>
chlorobenzene-linker

> <canonical_CID>
MAT-POS-d8472c4f-2

> <r_inhibition_at_20_uM>

> <r_inhibition_at_50_uM>

> <r_avg_IC50>

> <f_inhibition_at_20_uM>

> <f_inhibition_at_50_uM>

> <f_avg_IC50>
1.71512725254952

> <f_avg_pIC50>

> <relative_solubility_at_20_uM>

> <relative_solubility_at_100_uM>

> <trypsin_IC50>

> <NMR_std_ratio>

> <acrylamide>
False

> <chloroacetamide>
False

> <series>
3-aminopyridine-like

> <frag_id>

> <clash_score>
0.6227131947023227

> <docking_score>
-7.298168182373047

> <overlap_score>
0.9725269079208374

> <MMFF_internal_energy>
216.36156802798342

> <docked_smiles>
COC(=O)[C@H]1CC[C@H](O1)C[NH2+][C@@H](c2cccc(c2)Cl)C(=O)Nc3cncc4c3cccc4

$$$$
PET-UNK-ac320b15-8_1
  -OEChem-07262101023D

 63 67  0     1  0  0  0  0  0999 V2000
    2.5650    1.0119   19.7905 C   0  0  0  0  0  0  0  0  0  0  0  0
    3.1657    0.4486   20.9139 C   0  0  0  0  0  0  0  0  0  0  0  0
   11.9780    0.4600   23.9150 C   0  0  0  0  0  0  0  0  0  0  0  0
    3.2959    1.1705   18.6133 C   0  0  0  0  0  0  0  0  0  0  0  0
    4.5001    0.0414   20.8653 C   0  0  0  0  0  0  0  0  0  0  0  0
   10.6560    0.0720   23.7350 C   0  0  0  0  0  0  0  0  0  0  0  0
   12.9840   -0.1200   23.1530 C   0  0  0  0  0  0  0  0  0  0  0  0
   11.3360   -1.5050   22.0650 C   0  0  0  0  0  0  0  0  0  0  0  0
    5.4171    0.8995   17.4014 C   0  0  0  0  0  0  0  0  0  0  0  0
    7.2639   -0.0211   18.4097 C   0  0  0  0  0  0  0  0  0  0  0  0
    4.6393    0.7642   18.5530 C   0  0  0  0  0  0  0  0  0  0  0  0
    5.2510    0.1935   19.6882 C   0  0  0  0  0  0  0  0  0  0  0  0
   10.3220   -0.8940   22.7910 C   0  0  0  0  0  0  0  0  0  0  0  0
    6.5904   -0.2048   19.6077 C   0  0  0  0  0  0  0  0  0  0  0  0
   12.6400   -1.1000   22.2390 C   0  0  0  0  0  0  0  0  0  0  0  0
   10.2731   -7.4094   21.5405 C   0  0  0  0  0  0  0  0  0  0  0  0
    8.4779   -3.5757   23.0238 C   0  0  0  0  0  0  0  0  0  0  0  0
    8.3880   -0.3240   21.3070 C   0  0  0  0  0  0  0  0  0  0  0  0
   12.4000   -8.1371   18.6306 C   0  0  0  0  0  0  0  0  0  0  0  0
   13.3139   -7.2209   19.4347 C   0  0  0  0  0  0  0  0  0  0  0  0
    9.6286   -6.4356   23.7550 C   0  0  0  0  0  0  0  0  0  0  0  0
    8.1990   -6.0195   23.4892 C   0  0  0  0  0  0  0  0  0  0  0  0
   11.3911   -8.6036   19.6686 C   0  0  0  0  0  0  0  0  0  0  0  0
   12.3477   -6.5163   20.3766 C   0  0  0  0  0  0  0  0  0  0  0  0
   10.3070   -6.2011   22.4212 C   0  0  2  0  0  0  0  0  0  0  0  0
    8.3463   -4.9436   22.4335 C   0  0  2  0  0  0  0  0  0  0  0  0
    8.8810   -1.1900   22.4510 C   0  0  2  0  0  0  0  0  0  0  0  0
    6.7116    0.5212   17.3036 N   0  0  0  0  0  0  0  0  0  0  0  0
   11.2807   -7.4876   20.5965 N   0  0  0  0  0  0  0  0  0  0  0  0
    7.2820   -0.7860   20.6970 N   0  0  0  0  0  0  0  0  0  0  0  0
    8.7221   -2.5829   22.0943 N   0  0  0  0  0  0  0  0  0  0  0  0
    9.3928   -8.2598   21.6814 O   0  0  0  0  0  0  0  0  0  0  0  0
    8.3651   -3.4270   24.2350 O   0  0  0  0  0  0  0  0  0  0  0  0
    8.9170    0.7530   21.0260 O   0  0  0  0  0  0  0  0  0  0  0  0
    9.5675   -5.1903   21.7328 O   0  0  0  0  0  0  0  0  0  0  0  0
   13.8840   -1.8490   21.2740 Cl  0  0  0  0  0  0  0  0  0  0  0  0
    1.5267    1.3276   19.8311 H   0  0  0  0  0  0  0  0  0  0  0  0
    2.5946    0.3257   21.8298 H   0  0  0  0  0  0  0  0  0  0  0  0
   12.2249    1.2198   24.6546 H   0  0  0  0  0  0  0  0  0  0  0  0
    2.8114    1.6120   17.7455 H   0  0  0  0  0  0  0  0  0  0  0  0
    4.9338   -0.3933   21.7630 H   0  0  0  0  0  0  0  0  0  0  0  0
    9.8763    0.5350   24.3454 H   0  0  0  0  0  0  0  0  0  0  0  0
   14.0077    0.1988   23.2842 H   0  0  0  0  0  0  0  0  0  0  0  0
   11.0892   -2.3009   21.3624 H   0  0  0  0  0  0  0  0  0  0  0  0
    5.0078    1.3308   16.4920 H   0  0  0  0  0  0  0  0  0  0  0  0
    8.3038   -0.3142   18.2963 H   0  0  0  0  0  0  0  0  0  0  0  0
   11.8965   -7.5692   17.8394 H   0  0  0  0  0  0  0  0  0  0  0  0
   12.9430   -8.9676   18.1712 H   0  0  0  0  0  0  0  0  0  0  0  0
   14.0360   -7.8153   20.0068 H   0  0  0  0  0  0  0  0  0  0  0  0
   13.8646   -6.5210   18.8001 H   0  0  0  0  0  0  0  0  0  0  0  0
   10.0688   -5.7664   24.5032 H   0  0  0  0  0  0  0  0  0  0  0  0
    9.7119   -7.4602   24.1277 H   0  0  0  0  0  0  0  0  0  0  0  0
    7.6457   -6.8695   23.0722 H   0  0  0  0  0  0  0  0  0  0  0  0
    7.6773   -5.6894   24.3925 H   0  0  0  0  0  0  0  0  0  0  0  0
   10.4161   -8.8532   19.2398 H   0  0  0  0  0  0  0  0  0  0  0  0
   11.7617   -9.4680   20.2306 H   0  0  0  0  0  0  0  0  0  0  0  0
   12.8167   -6.2241   21.3200 H   0  0  0  0  0  0  0  0  0  0  0  0
   11.9040   -5.6320   19.9067 H   0  0  0  0  0  0  0  0  0  0  0  0
   11.3489   -5.8888   22.5289 H   0  0  0  0  0  0  0  0  0  0  0  0
    7.5120   -4.9342   21.7259 H   0  0  0  0  0  0  0  0  0  0  0  0
    8.2436   -1.0112   23.3272 H   0  0  0  0  0  0  0  0  0  0  0  0
    6.8975   -1.6551   21.0614 H   0  0  0  0  0  0  0  0  0  0  0  0
    8.7943   -2.8441   21.1155 H   0  0  0  0  0  0  0  0  0  0  0  0
  1  2  1  0  0  0  0
  1  4  2  0  0  0  0
  2  5  2  0  0  0  0
  3  6  2  0  0  0  0
  3  7  1  0  0  0  0
  4 11  1  0  0  0  0
  5 12  1  0  0  0  0
  6 13  1  0  0  0  0
  7 15  2  0  0  0  0
  8 13  2  0  0  0  0
  8 15  1  0  0  0  0
  9 11  2  0  0  0  0
  9 28  1  0  0  0  0
 10 14  1  0  0  0  0
 10 28  2  0  0  0  0
 11 12  1  0  0  0  0
 12 14  2  0  0  0  0
 13 27  1  0  0  0  0
 14 30  1  0  0  0  0
 15 36  1  0  0  0  0
 16 25  1  0  0  0  0
 16 29  1  0  0  0  0
 16 32  2  0  0  0  0
 17 26  1  0  0  0  0
 17 31  1  0  0  0  0
 17 33  2  0  0  0  0
 18 27  1  0  0  0  0
 18 30  1  0  0  0  0
 18 34  2  0  0  0  0
 19 20  1  0  0  0  0
 19 23  1  0  0  0  0
 20 24  1  0  0  0  0
 21 22  1  0  0  0  0
 21 25  1  0  0  0  0
 22 26  1  0  0  0  0
 23 29  1  0  0  0  0
 24 29  1  0  0  0  0
 25 35  1  0  0  0  0
 26 35  1  0  0  0  0
 27 31  1  0  0  0  0
  1 37  1  0  0  0  0
  2 38  1  0  0  0  0
  3 39  1  0  0  0  0
  4 40  1  0  0  0  0
  5 41  1  0  0  0  0
  6 42  1  0  0  0  0
  7 43  1  0  0  0  0
  8 44  1  0  0  0  0
  9 45  1  0  0  0  0
 10 46  1  0  0  0  0
 19 47  1  0  0  0  0
 19 48  1  0  0  0  0
 20 49  1  0  0  0  0
 20 50  1  0  0  0  0
 21 51  1  0  0  0  0
 21 52  1  0  0  0  0
 22 53  1  0  0  0  0
 22 54  1  0  0  0  0
 23 55  1  0  0  0  0
 23 56  1  0  0  0  0
 24 57  1  0  0  0  0
 24 58  1  0  0  0  0
 25 59  1  0  0  0  0
 26 60  1  0  0  0  0
 27 61  1  0  0  0  0
 30 62  1  0  0  0  0
 31 63  1  0  0  0  0
M  END
> <compound>
PET-UNK-ac320b15-8

> <compound_smiles>
c1ccc2c(c1)cncc2NC(=O)[C@H](c3cccc(c3)Cl)NC(=O)[C@@H]4CC[C@H](O4)C(=O)N5CCCC5

> <enantiomer_smiles>
c1ccc2c(c1)cncc2NC(=O)[C@H](c3cccc(c3)Cl)NC(=O)[C@@H]4CC[C@H](O4)C(=O)N5CCCC5

> <scaffold>
chlorobenzene-linker

> <clash_score>
10.312025631625408

> <docking_score>
4.351085186004639

> <overlap_score>
0.8815231323242188

> <MMFF_internal_energy>
161.37627149295994

> <docked_smiles>
c1ccc2c(c1)cncc2NC(=O)[C@H](c3cccc(c3)Cl)NC(=O)[C@@H]4CC[C@H](O4)C(=O)N5CCCC5

$$$$
EDJ-MED-6e43a462-4_1
  -OEChem-07262101023D

 32 34  0     0  0  0  0  0  0999 V2000
   11.9780    0.4600   23.9150 C   0  0  0  0  0  0  0  0  0  0  0  0
   10.6560    0.0720   23.7350 C   0  0  0  0  0  0  0  0  0  0  0  0
   12.9840   -0.1200   23.1530 C   0  0  0  0  0  0  0  0  0  0  0  0
   11.3360   -1.5050   22.0650 C   0  0  0  0  0  0  0  0  0  0  0  0
    5.4915   -0.3860   18.9895 C   0  0  0  0  0  0  0  0  0  0  0  0
   10.3220   -0.8940   22.7910 C   0  0  0  0  0  0  0  0  0  0  0  0
   12.6400   -1.1000   22.2390 C   0  0  0  0  0  0  0  0  0  0  0  0
    6.2597    0.0084   20.0508 C   0  0  0  0  0  0  0  0  0  0  0  0
    4.8860    1.6768   19.5308 C   0  0  0  0  0  0  0  0  0  0  0  0
    5.8107    3.3146   21.4839 C   0  0  0  0  0  0  0  0  0  0  0  0
    6.3547    2.0972   21.3663 C   0  0  0  0  0  0  0  0  0  0  0  0
    4.7294    3.6805   20.5247 C   0  0  0  0  0  0  0  0  0  0  0  0
    8.3880   -0.3240   21.3070 C   0  0  0  0  0  0  0  0  0  0  0  0
    8.8810   -1.1900   22.4510 C   0  0  0  0  0  0  0  0  0  0  0  0
    4.2540    2.9333   19.5756 N   0  0  0  0  0  0  0  0  0  0  0  0
    5.8666    1.2914   20.3696 N   0  0  0  0  0  0  0  0  0  0  0  0
    4.6544    0.6615   18.6904 N   0  3  0  0  0  0  0  0  0  0  0  0
    7.2820   -0.7860   20.6970 N   0  0  0  0  0  0  0  0  0  0  0  0
    8.9170    0.7530   21.0260 O   0  0  0  0  0  0  0  0  0  0  0  0
   13.8840   -1.8490   21.2740 Cl  0  0  0  0  0  0  0  0  0  0  0  0
   12.2249    1.2198   24.6546 H   0  0  0  0  0  0  0  0  0  0  0  0
    9.8763    0.5350   24.3454 H   0  0  0  0  0  0  0  0  0  0  0  0
   14.0077    0.1988   23.2842 H   0  0  0  0  0  0  0  0  0  0  0  0
   11.0892   -2.3009   21.3624 H   0  0  0  0  0  0  0  0  0  0  0  0
    5.4090   -1.2702   18.3887 H   0  0  0  0  0  0  0  0  0  0  0  0
    6.1170    4.0312   22.2333 H   0  0  0  0  0  0  0  0  0  0  0  0
    7.1442    1.7258   22.0060 H   0  0  0  0  0  0  0  0  0  0  0  0
    4.3133    4.6918   20.6613 H   0  0  0  0  0  0  0  0  0  0  0  0
    8.7774   -2.2383   22.1732 H   0  0  0  0  0  0  0  0  0  0  0  0
    8.2557   -1.0153   23.3257 H   0  0  0  0  0  0  0  0  0  0  0  0
    3.9618    0.6676   17.9469 H   0  0  0  0  0  0  0  0  0  0  0  0
    7.1527   -1.7824   20.6892 H   0  0  0  0  0  0  0  0  0  0  0  0
  1  2  1  0  0  0  0
  1  3  2  0  0  0  0
  2  6  2  0  0  0  0
  3  7  1  0  0  0  0
  4  6  1  0  0  0  0
  4  7  2  0  0  0  0
  5  8  2  0  0  0  0
  5 17  1  0  0  0  0
  6 14  1  0  0  0  0
  7 20  1  0  0  0  0
  8 16  1  0  0  0  0
  8 18  1  0  0  0  0
  9 15  1  0  0  0  0
  9 16  1  0  0  0  0
  9 17  2  0  0  0  0
 10 11  2  0  0  0  0
 10 12  1  0  0  0  0
 11 16  1  0  0  0  0
 12 15  2  0  0  0  0
 13 14  1  0  0  0  0
 13 18  1  0  0  0  0
 13 19  2  0  0  0  0
  1 21  1  0  0  0  0
  2 22  1  0  0  0  0
  3 23  1  0  0  0  0
  4 24  1  0  0  0  0
  5 25  1  0  0  0  0
 10 26  1  0  0  0  0
 11 27  1  0  0  0  0
 12 28  1  0  0  0  0
 14 29  1  0  0  0  0
 14 30  1  0  0  0  0
 17 31  1  0  0  0  0
 18 32  1  0  0  0  0
M  CHG  1  17   1
M  END
> <compound>
EDJ-MED-6e43a462-4

> <compound_smiles>
c1cc(cc(c1)Cl)CC(=O)Nc2cnc3n2cccn3

> <enantiomer_smiles>
c1cc(cc(c1)Cl)CC(=O)Nc2cnc3n2cccn3

> <scaffold>
chlorobenzene-linker

> <clash_score>
0

> <docking_score>
-6.787875652313232

> <overlap_score>
0.811553955078125

> <MMFF_internal_energy>
-19.092287538591158

> <docked_smiles>
c1cc(cc(c1)Cl)CC(=O)Nc2c[nH+]c3n2cccn3

$$$$
MAT-POS-d8472c4f-2_2
  -OEChem-07262101023D

 57 60  0     1  0  0  0  0  0999 V2000
    2.5657    1.0132   19.7899 C   0  0  0  0  0  0  0  0  0  0  0  0
    3.1660    0.4495   20.9134 C   0  0  0  0  0  0  0  0  0  0  0  0
   11.9780    0.4600   23.9150 C   0  0  0  0  0  0  0  0  0  0  0  0
    3.2969    1.1719   18.6130 C   0  0  0  0  0  0  0  0  0  0  0  0
    4.5003    0.0420   20.8649 C   0  0  0  0  0  0  0  0  0  0  0  0
   10.6560    0.0720   23.7350 C   0  0  0  0  0  0  0  0  0  0  0  0
   12.9840   -0.1200   23.1530 C   0  0  0  0  0  0  0  0  0  0  0  0
   11.3360   -1.5050   22.0650 C   0  0  0  0  0  0  0  0  0  0  0  0
    5.4182    0.9006   17.4014 C   0  0  0  0  0  0  0  0  0  0  0  0
    7.2646   -0.0206   18.4099 C   0  0  0  0  0  0  0  0  0  0  0  0
    4.6401    0.7653   18.5528 C   0  0  0  0  0  0  0  0  0  0  0  0
    5.2515    0.1942   19.6880 C   0  0  0  0  0  0  0  0  0  0  0  0
   10.3220   -0.8940   22.7910 C   0  0  0  0  0  0  0  0  0  0  0  0
    6.5908   -0.2044   19.6077 C   0  0  0  0  0  0  0  0  0  0  0  0
   12.6400   -1.1000   22.2390 C   0  0  0  0  0  0  0  0  0  0  0  0
    4.6104   -4.0282   26.1688 C   0  0  0  0  0  0  0  0  0  0  0  0
    8.3880   -0.3240   21.3070 C   0  0  0  0  0  0  0  0  0  0  0  0
    6.0583   -2.6716   27.6950 C   0  0  0  0  0  0  0  0  0  0  0  0
    7.3918   -2.7022   26.9846 C   0  0  0  0  0  0  0  0  0  0  0  0
    5.0666   -2.6559   26.5468 C   0  0  1  0  0  0  0  0  0  0  0  0
    7.1050   -1.8614   25.7543 C   0  0  2  0  0  0  0  0  0  0  0  0
    3.4045   -5.8953   26.9712 C   0  0  0  0  0  0  0  0  0  0  0  0
    8.0207   -2.1665   24.5852 C   0  0  0  0  0  0  0  0  0  0  0  0
    8.8810   -1.1900   22.4510 C   0  0  2  0  0  0  0  0  0  0  0  0
    6.7126    0.5221   17.3038 N   0  0  0  0  0  0  0  0  0  0  0  0
    7.2820   -0.7860   20.6970 N   0  0  0  0  0  0  0  0  0  0  0  0
    7.9727   -1.0406   23.6249 N   0  3  0  0  0  0  0  0  0  0  0  0
    4.8482   -4.5568   25.0912 O   0  0  0  0  0  0  0  0  0  0  0  0
    8.9170    0.7530   21.0260 O   0  0  0  0  0  0  0  0  0  0  0  0
    5.7435   -2.1451   25.3938 O   0  0  0  0  0  0  0  0  0  0  0  0
    3.9045   -4.5740   27.1998 O   0  0  0  0  0  0  0  0  0  0  0  0
   13.8840   -1.8490   21.2740 Cl  0  0  0  0  0  0  0  0  0  0  0  0
    1.5274    1.3292   19.8304 H   0  0  0  0  0  0  0  0  0  0  0  0
    2.5946    0.3266   21.8290 H   0  0  0  0  0  0  0  0  0  0  0  0
   12.2249    1.2198   24.6546 H   0  0  0  0  0  0  0  0  0  0  0  0
    2.8126    1.6137   17.7451 H   0  0  0  0  0  0  0  0  0  0  0  0
    4.9337   -0.3930   21.7626 H   0  0  0  0  0  0  0  0  0  0  0  0
    9.8763    0.5350   24.3454 H   0  0  0  0  0  0  0  0  0  0  0  0
   14.0077    0.1988   23.2842 H   0  0  0  0  0  0  0  0  0  0  0  0
   11.0892   -2.3009   21.3624 H   0  0  0  0  0  0  0  0  0  0  0  0
    5.0092    1.3323   16.4920 H   0  0  0  0  0  0  0  0  0  0  0  0
    8.3044   -0.3139   18.2966 H   0  0  0  0  0  0  0  0  0  0  0  0
    5.9251   -3.5069   28.3889 H   0  0  0  0  0  0  0  0  0  0  0  0
    5.9729   -1.7396   28.2668 H   0  0  0  0  0  0  0  0  0  0  0  0
    8.2128   -2.3063   27.5888 H   0  0  0  0  0  0  0  0  0  0  0  0
    7.6378   -3.7344   26.7074 H   0  0  0  0  0  0  0  0  0  0  0  0
    4.1868   -2.0422   26.7613 H   0  0  0  0  0  0  0  0  0  0  0  0
    7.1619   -0.7943   26.0014 H   0  0  0  0  0  0  0  0  0  0  0  0
    2.8576   -6.2364   27.8535 H   0  0  0  0  0  0  0  0  0  0  0  0
    4.2384   -6.5703   26.7626 H   0  0  0  0  0  0  0  0  0  0  0  0
    2.7299   -5.8764   26.1119 H   0  0  0  0  0  0  0  0  0  0  0  0
    7.7016   -3.0629   24.0485 H   0  0  0  0  0  0  0  0  0  0  0  0
    9.0593   -2.2736   24.9061 H   0  0  0  0  0  0  0  0  0  0  0  0
    8.7698   -2.2472   22.1731 H   0  0  0  0  0  0  0  0  0  0  0  0
    6.8974   -1.6551   21.0612 H   0  0  0  0  0  0  0  0  0  0  0  0
    7.0063   -0.9190   23.2860 H   0  0  0  0  0  0  0  0  0  0  0  0
    8.2055   -0.1625   24.1133 H   0  0  0  0  0  0  0  0  0  0  0  0
  1  2  1  0  0  0  0
  1  4  2  0  0  0  0
  2  5  2  0  0  0  0
  3  6  2  0  0  0  0
  3  7  1  0  0  0  0
  4 11  1  0  0  0  0
  5 12  1  0  0  0  0
  6 13  1  0  0  0  0
  7 15  2  0  0  0  0
  8 13  2  0  0  0  0
  8 15  1  0  0  0  0
  9 11  2  0  0  0  0
  9 25  1  0  0  0  0
 10 14  1  0  0  0  0
 10 25  2  0  0  0  0
 11 12  1  0  0  0  0
 12 14  2  0  0  0  0
 13 24  1  0  0  0  0
 14 26  1  0  0  0  0
 15 32  1  0  0  0  0
 16 20  1  0  0  0  0
 16 28  2  0  0  0  0
 16 31  1  0  0  0  0
 17 24  1  6  0  0  0
 17 26  1  0  0  0  0
 17 29  2  0  0  0  0
 18 19  1  0  0  0  0
 18 20  1  0  0  0  0
 19 21  1  0  0  0  0
 20 30  1  0  0  0  0
 21 23  1  0  0  0  0
 21 30  1  0  0  0  0
 22 31  1  0  0  0  0
 23 27  1  0  0  0  0
 24 27  1  0  0  0  0
  1 33  1  0  0  0  0
  2 34  1  0  0  0  0
  3 35  1  0  0  0  0
  4 36  1  0  0  0  0
  5 37  1  0  0  0  0
  6 38  1  0  0  0  0
  7 39  1  0  0  0  0
  8 40  1  0  0  0  0
  9 41  1  0  0  0  0
 10 42  1  0  0  0  0
 18 43  1  0  0  0  0
 18 44  1  0  0  0  0
 19 45  1  0  0  0  0
 19 46  1  0  0  0  0
 20 47  1  0  0  0  0
 21 48  1  0  0  0  0
 22 49  1  0  0  0  0
 22 50  1  0  0  0  0
 22 51  1  0  0  0  0
 23 52  1  0  0  0  0
 23 53  1  0  0  0  0
 24 54  1  0  0  0  0
 26 55  1  0  0  0  0
 27 56  1  0  0  0  0
 27 57  1  0  0  0  0
M  CHG  1  27   1
M  END
> <compound>
MAT-POS-d8472c4f-2

> <compound_smiles>
COC(=O)[C@H]1CC[C@H](O1)CNC(c2cccc(c2)Cl)C(=O)Nc3cncc4c3cccc4

> <enantiomer_smiles>
COC(=O)[C@H]1CC[C@H](O1)CN[C@H](c2cccc(c2)Cl)C(=O)Nc3cncc4c3cccc4

> <scaffold>
chlorobenzene-linker

> <canonical_CID>
MAT-POS-d8472c4f-2

> <r_inhibition_at_20_uM>

> <r_inhibition_at_50_uM>

> <r_avg_IC50>

> <f_inhibition_at_20_uM>

> <f_inhibition_at_50_uM>

> <f_avg_IC50>
1.71512725254952

> <f_avg_pIC50>

> <relative_solubility_at_20_uM>

> <relative_solubility_at_100_uM>

> <trypsin_IC50>

> <NMR_std_ratio>

> <acrylamide>
False

> <chloroacetamide>
False

> <series>
3-aminopyridine-like

> <frag_id>

> <clash_score>
0

> <docking_score>
-4.973223686218262

> <overlap_score>
0.8885818123817444

> <MMFF_internal_energy>
188.50489191164837

> <docked_smiles>
COC(=O)[C@H]1CC[C@H](O1)C[NH2+][C@H](c2cccc(c2)Cl)C(=O)Nc3cncc4c3cccc4

$$$$
PET-UNK-1320d94d-30_1
  -OEChem-07262101023D

 69 73  0     1  0  0  0  0  0999 V2000
    2.5650    1.0119   19.7905 C   0  0  0  0  0  0  0  0  0  0  0  0
    3.1657    0.4486   20.9139 C   0  0  0  0  0  0  0  0  0  0  0  0
   11.9780    0.4600   23.9150 C   0  0  0  0  0  0  0  0  0  0  0  0
    3.2959    1.1705   18.6133 C   0  0  0  0  0  0  0  0  0  0  0  0
    4.5001    0.0414   20.8653 C   0  0  0  0  0  0  0  0  0  0  0  0
   10.6560    0.0720   23.7350 C   0  0  0  0  0  0  0  0  0  0  0  0
   12.9840   -0.1200   23.1530 C   0  0  0  0  0  0  0  0  0  0  0  0
   11.3360   -1.5050   22.0650 C   0  0  0  0  0  0  0  0  0  0  0  0
    5.4171    0.8995   17.4014 C   0  0  0  0  0  0  0  0  0  0  0  0
    7.2639   -0.0211   18.4097 C   0  0  0  0  0  0  0  0  0  0  0  0
    4.6393    0.7642   18.5530 C   0  0  0  0  0  0  0  0  0  0  0  0
    5.2510    0.1935   19.6882 C   0  0  0  0  0  0  0  0  0  0  0  0
   10.3220   -0.8940   22.7910 C   0  0  0  0  0  0  0  0  0  0  0  0
    6.5904   -0.2048   19.6077 C   0  0  0  0  0  0  0  0  0  0  0  0
   12.6400   -1.1000   22.2390 C   0  0  0  0  0  0  0  0  0  0  0  0
    5.1738   -1.9045   25.8104 C   0  0  0  0  0  0  0  0  0  0  0  0
    8.4337   -3.5835   23.0354 C   0  0  0  0  0  0  0  0  0  0  0  0
    8.3880   -0.3240   21.3070 C   0  0  0  0  0  0  0  0  0  0  0  0
    8.2932   -3.8618   26.8492 C   0  0  0  0  0  0  0  0  0  0  0  0
    3.6418    1.3592   26.5333 C   0  0  0  0  0  0  0  0  0  0  0  0
    5.0436    1.7843   26.1147 C   0  0  0  0  0  0  0  0  0  0  0  0
    6.8596   -3.3465   26.9301 C   0  0  0  0  0  0  0  0  0  0  0  0
    8.6375   -4.2609   25.4175 C   0  0  0  0  0  0  0  0  0  0  0  0
    3.5299   -0.0457   25.9617 C   0  0  0  0  0  0  0  0  0  0  0  0
    5.8492    0.5019   26.2681 C   0  0  0  0  0  0  0  0  0  0  0  0
    6.6191   -2.2712   25.8766 C   0  0  1  0  0  0  0  0  0  0  0  0
    8.2932   -3.1329   24.4514 C   0  0  2  0  0  0  0  0  0  0  0  0
    8.8832   -2.8994   20.6740 C   0  0  0  0  0  0  0  0  0  0  0  0
    8.8810   -1.1900   22.4510 C   0  0  1  0  0  0  0  0  0  0  0  0
    6.7116    0.5212   17.3036 N   0  0  0  0  0  0  0  0  0  0  0  0
    4.8891   -0.5648   26.0024 N   0  0  0  0  0  0  0  0  0  0  0  0
    7.2820   -0.7860   20.6970 N   0  0  0  0  0  0  0  0  0  0  0  0
    8.7204   -2.5977   22.0905 N   0  0  0  0  0  0  0  0  0  0  0  0
    4.3207   -2.7660   25.5913 O   0  0  0  0  0  0  0  0  0  0  0  0
    8.2935   -4.7798   22.7677 O   0  0  0  0  0  0  0  0  0  0  0  0
    8.9170    0.7530   21.0260 O   0  0  0  0  0  0  0  0  0  0  0  0
    6.9238   -2.7569   24.5718 O   0  0  0  0  0  0  0  0  0  0  0  0
   13.8840   -1.8490   21.2740 Cl  0  0  0  0  0  0  0  0  0  0  0  0
    1.5267    1.3276   19.8311 H   0  0  0  0  0  0  0  0  0  0  0  0
    2.5946    0.3257   21.8297 H   0  0  0  0  0  0  0  0  0  0  0  0
   12.2249    1.2198   24.6546 H   0  0  0  0  0  0  0  0  0  0  0  0
    2.8114    1.6120   17.7455 H   0  0  0  0  0  0  0  0  0  0  0  0
    4.9338   -0.3933   21.7630 H   0  0  0  0  0  0  0  0  0  0  0  0
    9.8763    0.5350   24.3454 H   0  0  0  0  0  0  0  0  0  0  0  0
   14.0077    0.1988   23.2842 H   0  0  0  0  0  0  0  0  0  0  0  0
   11.0892   -2.3009   21.3624 H   0  0  0  0  0  0  0  0  0  0  0  0
    5.0078    1.3308   16.4920 H   0  0  0  0  0  0  0  0  0  0  0  0
    8.3038   -0.3142   18.2963 H   0  0  0  0  0  0  0  0  0  0  0  0
    8.9823   -3.0770   27.1846 H   0  0  0  0  0  0  0  0  0  0  0  0
    8.4257   -4.7165   27.5216 H   0  0  0  0  0  0  0  0  0  0  0  0
    3.5656    1.3320   27.6267 H   0  0  0  0  0  0  0  0  0  0  0  0
    2.8703    2.0313   26.1473 H   0  0  0  0  0  0  0  0  0  0  0  0
    5.0429    2.1090   25.0674 H   0  0  0  0  0  0  0  0  0  0  0  0
    5.4330    2.5993   26.7312 H   0  0  0  0  0  0  0  0  0  0  0  0
    6.1778   -4.1912   26.7653 H   0  0  0  0  0  0  0  0  0  0  0  0
    6.6498   -2.9583   27.9333 H   0  0  0  0  0  0  0  0  0  0  0  0
    9.6981   -4.5258   25.3399 H   0  0  0  0  0  0  0  0  0  0  0  0
    8.0637   -5.1613   25.1612 H   0  0  0  0  0  0  0  0  0  0  0  0
    2.8490   -0.6881   26.5279 H   0  0  0  0  0  0  0  0  0  0  0  0
    3.2111   -0.0299   24.9135 H   0  0  0  0  0  0  0  0  0  0  0  0
    6.6965    0.4517   25.5790 H   0  0  0  0  0  0  0  0  0  0  0  0
    6.2124    0.3778   27.2940 H   0  0  0  0  0  0  0  0  0  0  0  0
    7.2047   -1.3658   26.0794 H   0  0  0  0  0  0  0  0  0  0  0  0
    8.9336   -2.2564   24.6024 H   0  0  0  0  0  0  0  0  0  0  0  0
    7.9094   -2.8232   20.1681 H   0  0  0  0  0  0  0  0  0  0  0  0
    9.5866   -2.1827   20.2251 H   0  0  0  0  0  0  0  0  0  0  0  0
    9.2768   -3.9202   20.5596 H   0  0  0  0  0  0  0  0  0  0  0  0
    8.2436   -1.0112   23.3272 H   0  0  0  0  0  0  0  0  0  0  0  0
    6.8975   -1.6551   21.0614 H   0  0  0  0  0  0  0  0  0  0  0  0
  1  2  1  0  0  0  0
  1  4  2  0  0  0  0
  2  5  2  0  0  0  0
  3  6  2  0  0  0  0
  3  7  1  0  0  0  0
  4 11  1  0  0  0  0
  5 12  1  0  0  0  0
  6 13  1  0  0  0  0
  7 15  2  0  0  0  0
  8 13  2  0  0  0  0
  8 15  1  0  0  0  0
  9 11  2  0  0  0  0
  9 30  1  0  0  0  0
 10 14  1  0  0  0  0
 10 30  2  0  0  0  0
 11 12  1  0  0  0  0
 12 14  2  0  0  0  0
 13 29  1  0  0  0  0
 14 32  1  0  0  0  0
 15 38  1  0  0  0  0
 16 26  1  0  0  0  0
 16 31  1  0  0  0  0
 16 34  2  0  0  0  0
 17 27  1  0  0  0  0
 17 33  1  0  0  0  0
 17 35  2  0  0  0  0
 18 29  1  0  0  0  0
 18 32  1  0  0  0  0
 18 36  2  0  0  0  0
 19 22  1  0  0  0  0
 19 23  1  0  0  0  0
 20 21  1  0  0  0  0
 20 24  1  0  0  0  0
 21 25  1  0  0  0  0
 22 26  1  0  0  0  0
 23 27  1  0  0  0  0
 24 31  1  0  0  0  0
 25 31  1  0  0  0  0
 26 37  1  0  0  0  0
 27 37  1  0  0  0  0
 28 33  1  0  0  0  0
 29 33  1  0  0  0  0
  1 39  1  0  0  0  0
  2 40  1  0  0  0  0
  3 41  1  0  0  0  0
  4 42  1  0  0  0  0
  5 43  1  0  0  0  0
  6 44  1  0  0  0  0
  7 45  1  0  0  0  0
  8 46  1  0  0  0  0
  9 47  1  0  0  0  0
 10 48  1  0  0  0  0
 19 49  1  0  0  0  0
 19 50  1  0  0  0  0
 20 51  1  0  0  0  0
 20 52  1  0  0  0  0
 21 53  1  0  0  0  0
 21 54  1  0  0  0  0
 22 55  1  0  0  0  0
 22 56  1  0  0  0  0
 23 57  1  0  0  0  0
 23 58  1  0  0  0  0
 24 59  1  0  0  0  0
 24 60  1  0  0  0  0
 25 61  1  0  0  0  0
 25 62  1  0  0  0  0
 26 63  1  0  0  0  0
 27 64  1  0  0  0  0
 28 65  1  0  0  0  0
 28 66  1  0  0  0  0
 28 67  1  0  0  0  0
 29 68  1  0  0  0  0
 32 69  1  0  0  0  0
M  END
> <compound>
PET-UNK-1320d94d-30

> <compound_smiles>
CN([C@@H](c1cccc(c1)Cl)C(=O)Nc2cncc3c2cccc3)C(=O)[C@@H]4CCC[C@@H](O4)C(=O)N5CCCC5

> <enantiomer_smiles>
CN([C@@H](c1cccc(c1)Cl)C(=O)Nc2cncc3c2cccc3)C(=O)[C@@H]4CCC[C@@H](O4)C(=O)N5CCCC5

> <scaffold>
chlorobenzene-linker

> <clash_score>
0.6108933473728447

> <docking_score>
-4.31252908706665

> <overlap_score>
0.882491409778595

> <MMFF_internal_energy>
202.99544625914314

> <docked_smiles>
CN([C@@H](c1cccc(c1)Cl)C(=O)Nc2cncc3c2cccc3)C(=O)[C@@H]4CCC[C@@H](O4)C(=O)N5CCCC5

$$$$
EDJ-MED-6e43a462-13_1
  -OEChem-07262101023D

 41 43  0     0  0  0  0  0  0999 V2000
   11.9780    0.4600   23.9150 C   0  0  0  0  0  0  0  0  0  0  0  0
   10.6560    0.0720   23.7350 C   0  0  0  0  0  0  0  0  0  0  0  0
   12.9840   -0.1200   23.1530 C   0  0  0  0  0  0  0  0  0  0  0  0
   11.3360   -1.5050   22.0650 C   0  0  0  0  0  0  0  0  0  0  0  0
    5.4910   -0.3880   18.9879 C   0  0  0  0  0  0  0  0  0  0  0  0
   10.3220   -0.8940   22.7910 C   0  0  0  0  0  0  0  0  0  0  0  0
   12.6400   -1.1000   22.2390 C   0  0  0  0  0  0  0  0  0  0  0  0
    6.2597    0.0083   20.0509 C   0  0  0  0  0  0  0  0  0  0  0  0
    4.8843    1.6676   19.5265 C   0  0  0  0  0  0  0  0  0  0  0  0
    4.2606    3.0130   19.6334 C   0  0  0  0  0  0  0  0  0  0  0  0
    4.7394    3.8033   20.6108 C   0  0  0  0  0  0  0  0  0  0  0  0
    6.3535    2.1065   21.3706 C   0  0  0  0  0  0  0  0  0  0  0  0
    5.8094    3.3350   21.4961 C   0  0  0  0  0  0  0  0  0  0  0  0
    8.3880   -0.3240   21.3070 C   0  0  0  0  0  0  0  0  0  0  0  0
    5.6424    5.5358   22.5860 C   0  0  0  0  0  0  0  0  0  0  0  0
    7.1016    3.7822   23.5436 C   0  0  0  0  0  0  0  0  0  0  0  0
    8.8810   -1.1900   22.4510 C   0  0  0  0  0  0  0  0  0  0  0  0
    5.8657    1.2914   20.3698 N   0  0  0  0  0  0  0  0  0  0  0  0
    4.6501    0.6574   18.6852 N   0  3  0  0  0  0  0  0  0  0  0  0
    7.2820   -0.7860   20.6970 N   0  0  0  0  0  0  0  0  0  0  0  0
    6.2327    4.2128   22.4598 N   0  0  0  0  0  0  0  0  0  0  0  0
    8.9170    0.7530   21.0260 O   0  0  0  0  0  0  0  0  0  0  0  0
   13.8840   -1.8490   21.2740 Cl  0  0  0  0  0  0  0  0  0  0  0  0
   12.2249    1.2198   24.6546 H   0  0  0  0  0  0  0  0  0  0  0  0
    9.8763    0.5350   24.3454 H   0  0  0  0  0  0  0  0  0  0  0  0
   14.0077    0.1988   23.2842 H   0  0  0  0  0  0  0  0  0  0  0  0
   11.0892   -2.3009   21.3624 H   0  0  0  0  0  0  0  0  0  0  0  0
    5.4125   -1.2721   18.3863 H   0  0  0  0  0  0  0  0  0  0  0  0
    3.4728    3.3148   18.9565 H   0  0  0  0  0  0  0  0  0  0  0  0
    4.3345    4.7998   20.7541 H   0  0  0  0  0  0  0  0  0  0  0  0
    7.1449    1.7241   22.0035 H   0  0  0  0  0  0  0  0  0  0  0  0
    6.1230    6.0747   23.4159 H   0  0  0  0  0  0  0  0  0  0  0  0
    5.7923    6.0948   21.6505 H   0  0  0  0  0  0  0  0  0  0  0  0
    4.5653    5.4390   22.7867 H   0  0  0  0  0  0  0  0  0  0  0  0
    7.3195    4.6368   24.2011 H   0  0  0  0  0  0  0  0  0  0  0  0
    6.6011    2.9924   24.1230 H   0  0  0  0  0  0  0  0  0  0  0  0
    8.0415    3.3915   23.1267 H   0  0  0  0  0  0  0  0  0  0  0  0
    8.7775   -2.2383   22.1732 H   0  0  0  0  0  0  0  0  0  0  0  0
    8.2557   -1.0153   23.3257 H   0  0  0  0  0  0  0  0  0  0  0  0
    3.9590    0.6593   17.9400 H   0  0  0  0  0  0  0  0  0  0  0  0
    7.1527   -1.7824   20.6892 H   0  0  0  0  0  0  0  0  0  0  0  0
  1  2  2  0  0  0  0
  1  3  1  0  0  0  0
  2  6  1  0  0  0  0
  3  7  2  0  0  0  0
  4  6  2  0  0  0  0
  4  7  1  0  0  0  0
  5  8  2  0  0  0  0
  5 19  1  0  0  0  0
  6 17  1  0  0  0  0
  7 23  1  0  0  0  0
  8 18  1  0  0  0  0
  8 20  1  0  0  0  0
  9 10  1  0  0  0  0
  9 18  1  0  0  0  0
  9 19  2  0  0  0  0
 10 11  2  0  0  0  0
 11 13  1  0  0  0  0
 12 13  2  0  0  0  0
 12 18  1  0  0  0  0
 13 21  1  0  0  0  0
 14 17  1  0  0  0  0
 14 20  1  0  0  0  0
 14 22  2  0  0  0  0
 15 21  1  0  0  0  0
 16 21  1  0  0  0  0
  1 24  1  0  0  0  0
  2 25  1  0  0  0  0
  3 26  1  0  0  0  0
  4 27  1  0  0  0  0
  5 28  1  0  0  0  0
 10 29  1  0  0  0  0
 11 30  1  0  0  0  0
 12 31  1  0  0  0  0
 15 32  1  0  0  0  0
 15 33  1  0  0  0  0
 15 34  1  0  0  0  0
 16 35  1  0  0  0  0
 16 36  1  0  0  0  0
 16 37  1  0  0  0  0
 17 38  1  0  0  0  0
 17 39  1  0  0  0  0
 19 40  1  0  0  0  0
 20 41  1  0  0  0  0
M  CHG  1  19   1
M  END
> <compound>
EDJ-MED-6e43a462-13

> <compound_smiles>
CN(C)c1ccc2ncc(n2c1)NC(=O)Cc3cccc(c3)Cl

> <enantiomer_smiles>
CN(C)c1ccc2ncc(n2c1)NC(=O)Cc3cccc(c3)Cl

> <scaffold>
chlorobenzene-linker

> <clash_score>
0

> <docking_score>
-6.047049045562744

> <overlap_score>
0.8021605014801025

> <MMFF_internal_energy>
61.04324951868355

> <docked_smiles>
CN(C)c1ccc2[nH+]cc(n2c1)NC(=O)Cc3cccc(c3)Cl

$$$$
PET-UNK-ac320b15-6_1
  -OEChem-07262101023D

 63 67  0     1  0  0  0  0  0999 V2000
    2.5650    1.0119   19.7905 C   0  0  0  0  0  0  0  0  0  0  0  0
    3.1657    0.4486   20.9139 C   0  0  0  0  0  0  0  0  0  0  0  0
   11.9780    0.4600   23.9150 C   0  0  0  0  0  0  0  0  0  0  0  0
    3.2959    1.1705   18.6133 C   0  0  0  0  0  0  0  0  0  0  0  0
    4.5001    0.0414   20.8653 C   0  0  0  0  0  0  0  0  0  0  0  0
   10.6560    0.0720   23.7350 C   0  0  0  0  0  0  0  0  0  0  0  0
   12.9840   -0.1200   23.1530 C   0  0  0  0  0  0  0  0  0  0  0  0
   11.3360   -1.5050   22.0650 C   0  0  0  0  0  0  0  0  0  0  0  0
    5.4171    0.8995   17.4014 C   0  0  0  0  0  0  0  0  0  0  0  0
    7.2639   -0.0211   18.4097 C   0  0  0  0  0  0  0  0  0  0  0  0
    4.6393    0.7642   18.5530 C   0  0  0  0  0  0  0  0  0  0  0  0
    5.2510    0.1935   19.6882 C   0  0  0  0  0  0  0  0  0  0  0  0
   10.3220   -0.8940   22.7910 C   0  0  0  0  0  0  0  0  0  0  0  0
    6.5904   -0.2048   19.6077 C   0  0  0  0  0  0  0  0  0  0  0  0
   12.6400   -1.1000   22.2390 C   0  0  0  0  0  0  0  0  0  0  0  0
    6.1496   -7.3783   22.2411 C   0  0  0  0  0  0  0  0  0  0  0  0
    8.4779   -3.5755   23.0241 C   0  0  0  0  0  0  0  0  0  0  0  0
    8.3880   -0.3240   21.3070 C   0  0  0  0  0  0  0  0  0  0  0  0
    3.0367   -8.4819   20.6246 C   0  0  0  0  0  0  0  0  0  0  0  0
    2.8604   -6.9691   20.5886 C   0  0  0  0  0  0  0  0  0  0  0  0
    7.3987   -6.3286   24.1143 C   0  0  0  0  0  0  0  0  0  0  0  0
    8.7190   -6.0120   23.4478 C   0  0  0  0  0  0  0  0  0  0  0  0
    4.5340   -8.6427   20.8370 C   0  0  0  0  0  0  0  0  0  0  0  0
    3.8475   -6.4853   21.6416 C   0  0  0  0  0  0  0  0  0  0  0  0
    6.3922   -6.0962   23.0094 C   0  0  1  0  0  0  0  0  0  0  0  0
    8.3446   -4.9605   22.4267 C   0  0  1  0  0  0  0  0  0  0  0  0
    8.8810   -1.1900   22.4510 C   0  0  2  0  0  0  0  0  0  0  0  0
    6.7116    0.5212   17.3036 N   0  0  0  0  0  0  0  0  0  0  0  0
    4.9182   -7.4770   21.6194 N   0  0  0  0  0  0  0  0  0  0  0  0
    7.2820   -0.7860   20.6970 N   0  0  0  0  0  0  0  0  0  0  0  0
    8.7221   -2.5829   22.0943 N   0  0  0  0  0  0  0  0  0  0  0  0
    7.0187   -8.2501   22.1916 O   0  0  0  0  0  0  0  0  0  0  0  0
    8.3651   -3.4265   24.2352 O   0  0  0  0  0  0  0  0  0  0  0  0
    8.9170    0.7530   21.0260 O   0  0  0  0  0  0  0  0  0  0  0  0
    6.9650   -5.1531   22.0979 O   0  0  0  0  0  0  0  0  0  0  0  0
   13.8840   -1.8490   21.2740 Cl  0  0  0  0  0  0  0  0  0  0  0  0
    1.5267    1.3276   19.8311 H   0  0  0  0  0  0  0  0  0  0  0  0
    2.5946    0.3257   21.8298 H   0  0  0  0  0  0  0  0  0  0  0  0
   12.2249    1.2198   24.6546 H   0  0  0  0  0  0  0  0  0  0  0  0
    2.8114    1.6119   17.7455 H   0  0  0  0  0  0  0  0  0  0  0  0
    4.9338   -0.3933   21.7630 H   0  0  0  0  0  0  0  0  0  0  0  0
    9.8763    0.5350   24.3454 H   0  0  0  0  0  0  0  0  0  0  0  0
   14.0077    0.1988   23.2842 H   0  0  0  0  0  0  0  0  0  0  0  0
   11.0892   -2.3009   21.3624 H   0  0  0  0  0  0  0  0  0  0  0  0
    5.0078    1.3308   16.4920 H   0  0  0  0  0  0  0  0  0  0  0  0
    8.3038   -0.3142   18.2963 H   0  0  0  0  0  0  0  0  0  0  0  0
    2.4848   -8.9069   21.4713 H   0  0  0  0  0  0  0  0  0  0  0  0
    2.6897   -8.9634   19.7062 H   0  0  0  0  0  0  0  0  0  0  0  0
    3.1374   -6.5800   19.6017 H   0  0  0  0  0  0  0  0  0  0  0  0
    1.8332   -6.6643   20.8068 H   0  0  0  0  0  0  0  0  0  0  0  0
    7.3696   -7.3332   24.5452 H   0  0  0  0  0  0  0  0  0  0  0  0
    7.2175   -5.6094   24.9215 H   0  0  0  0  0  0  0  0  0  0  0  0
    9.4867   -5.6902   24.1579 H   0  0  0  0  0  0  0  0  0  0  0  0
    9.0897   -6.9073   22.9344 H   0  0  0  0  0  0  0  0  0  0  0  0
    4.7983   -9.5676   21.3582 H   0  0  0  0  0  0  0  0  0  0  0  0
    5.0820   -8.6024   19.8891 H   0  0  0  0  0  0  0  0  0  0  0  0
    4.2319   -5.4839   21.4302 H   0  0  0  0  0  0  0  0  0  0  0  0
    3.4021   -6.4956   22.6423 H   0  0  0  0  0  0  0  0  0  0  0  0
    5.4354   -5.7413   23.3802 H   0  0  0  0  0  0  0  0  0  0  0  0
    8.9615   -5.0066   21.5332 H   0  0  0  0  0  0  0  0  0  0  0  0
    8.2436   -1.0112   23.3272 H   0  0  0  0  0  0  0  0  0  0  0  0
    6.8975   -1.6551   21.0614 H   0  0  0  0  0  0  0  0  0  0  0  0
    8.7936   -2.8443   21.1155 H   0  0  0  0  0  0  0  0  0  0  0  0
  1  2  1  0  0  0  0
  1  4  2  0  0  0  0
  2  5  2  0  0  0  0
  3  6  2  0  0  0  0
  3  7  1  0  0  0  0
  4 11  1  0  0  0  0
  5 12  1  0  0  0  0
  6 13  1  0  0  0  0
  7 15  2  0  0  0  0
  8 13  2  0  0  0  0
  8 15  1  0  0  0  0
  9 11  2  0  0  0  0
  9 28  1  0  0  0  0
 10 14  1  0  0  0  0
 10 28  2  0  0  0  0
 11 12  1  0  0  0  0
 12 14  2  0  0  0  0
 13 27  1  0  0  0  0
 14 30  1  0  0  0  0
 15 36  1  0  0  0  0
 16 25  1  0  0  0  0
 16 29  1  0  0  0  0
 16 32  2  0  0  0  0
 17 26  1  0  0  0  0
 17 31  1  0  0  0  0
 17 33  2  0  0  0  0
 18 27  1  0  0  0  0
 18 30  1  0  0  0  0
 18 34  2  0  0  0  0
 19 20  1  0  0  0  0
 19 23  1  0  0  0  0
 20 24  1  0  0  0  0
 21 22  1  0  0  0  0
 21 25  1  0  0  0  0
 22 26  1  0  0  0  0
 23 29  1  0  0  0  0
 24 29  1  0  0  0  0
 25 35  1  0  0  0  0
 26 35  1  0  0  0  0
 27 31  1  0  0  0  0
  1 37  1  0  0  0  0
  2 38  1  0  0  0  0
  3 39  1  0  0  0  0
  4 40  1  0  0  0  0
  5 41  1  0  0  0  0
  6 42  1  0  0  0  0
  7 43  1  0  0  0  0
  8 44  1  0  0  0  0
  9 45  1  0  0  0  0
 10 46  1  0  0  0  0
 19 47  1  0  0  0  0
 19 48  1  0  0  0  0
 20 49  1  0  0  0  0
 20 50  1  0  0  0  0
 21 51  1  0  0  0  0
 21 52  1  0  0  0  0
 22 53  1  0  0  0  0
 22 54  1  0  0  0  0
 23 55  1  0  0  0  0
 23 56  1  0  0  0  0
 24 57  1  0  0  0  0
 24 58  1  0  0  0  0
 25 59  1  0  0  0  0
 26 60  1  0  0  0  0
 27 61  1  0  0  0  0
 30 62  1  0  0  0  0
 31 63  1  0  0  0  0
M  END
> <compound>
PET-UNK-ac320b15-6

> <compound_smiles>
c1ccc2c(c1)cncc2NC(=O)[C@H](c3cccc(c3)Cl)NC(=O)[C@H]4CC[C@@H](O4)C(=O)N5CCCC5

> <enantiomer_smiles>
c1ccc2c(c1)cncc2NC(=O)[C@H](c3cccc(c3)Cl)NC(=O)[C@H]4CC[C@@H](O4)C(=O)N5CCCC5

> <scaffold>
chlorobenzene-linker

> <clash_score>
2.846714982246954

> <docking_score>
0.8969085216522217

> <overlap_score>
0.8815630674362183

> <MMFF_internal_energy>
162.64967132725434

> <docked_smiles>
c1ccc2c(c1)cncc2NC(=O)[C@H](c3cccc(c3)Cl)NC(=O)[C@H]4CC[C@@H](O4)C(=O)N5CCCC5

$$$$
EDJ-MED-6e43a462-8_1
  -OEChem-07262101023D

 33 35  0     0  0  0  0  0  0999 V2000
   11.9780    0.4600   23.9150 C   0  0  0  0  0  0  0  0  0  0  0  0
   10.6560    0.0720   23.7350 C   0  0  0  0  0  0  0  0  0  0  0  0
   12.9840   -0.1200   23.1530 C   0  0  0  0  0  0  0  0  0  0  0  0
   11.3360   -1.5050   22.0650 C   0  0  0  0  0  0  0  0  0  0  0  0
    5.4901   -0.3864   18.9879 C   0  0  0  0  0  0  0  0  0  0  0  0
   10.3220   -0.8940   22.7910 C   0  0  0  0  0  0  0  0  0  0  0  0
   12.6400   -1.1000   22.2390 C   0  0  0  0  0  0  0  0  0  0  0  0
    6.2597    0.0083   20.0509 C   0  0  0  0  0  0  0  0  0  0  0  0
    4.8841    1.6694   19.5283 C   0  0  0  0  0  0  0  0  0  0  0  0
    4.2592    3.0173   19.6359 C   0  0  0  0  0  0  0  0  0  0  0  0
    4.7392    3.8055   20.6142 C   0  0  0  0  0  0  0  0  0  0  0  0
    6.3530    2.1058   21.3724 C   0  0  0  0  0  0  0  0  0  0  0  0
    5.8028    3.3279   21.4877 C   0  0  0  0  0  0  0  0  0  0  0  0
    8.3880   -0.3240   21.3070 C   0  0  0  0  0  0  0  0  0  0  0  0
    8.8810   -1.1900   22.4510 C   0  0  0  0  0  0  0  0  0  0  0  0
    5.8664    1.2908   20.3714 N   0  0  0  0  0  0  0  0  0  0  0  0
    4.6492    0.6595   18.6865 N   0  3  0  0  0  0  0  0  0  0  0  0
    7.2820   -0.7860   20.6970 N   0  0  0  0  0  0  0  0  0  0  0  0
    8.9170    0.7530   21.0260 O   0  0  0  0  0  0  0  0  0  0  0  0
    6.2370    4.1688   22.4497 F   0  0  0  0  0  0  0  0  0  0  0  0
   13.8840   -1.8490   21.2740 Cl  0  0  0  0  0  0  0  0  0  0  0  0
   12.2249    1.2198   24.6546 H   0  0  0  0  0  0  0  0  0  0  0  0
    9.8763    0.5350   24.3454 H   0  0  0  0  0  0  0  0  0  0  0  0
   14.0077    0.1988   23.2842 H   0  0  0  0  0  0  0  0  0  0  0  0
   11.0892   -2.3009   21.3624 H   0  0  0  0  0  0  0  0  0  0  0  0
    5.4102   -1.2714   18.3876 H   0  0  0  0  0  0  0  0  0  0  0  0
    3.4726    3.3201   18.9579 H   0  0  0  0  0  0  0  0  0  0  0  0
    4.3520    4.8050   20.7738 H   0  0  0  0  0  0  0  0  0  0  0  0
    7.1424    1.7359   22.0131 H   0  0  0  0  0  0  0  0  0  0  0  0
    8.7775   -2.2383   22.1732 H   0  0  0  0  0  0  0  0  0  0  0  0
    8.2557   -1.0153   23.3257 H   0  0  0  0  0  0  0  0  0  0  0  0
    3.9578    0.6628   17.9418 H   0  0  0  0  0  0  0  0  0  0  0  0
    7.1527   -1.7824   20.6892 H   0  0  0  0  0  0  0  0  0  0  0  0
  1  2  1  0  0  0  0
  1  3  2  0  0  0  0
  2  6  2  0  0  0  0
  3  7  1  0  0  0  0
  4  6  1  0  0  0  0
  4  7  2  0  0  0  0
  5  8  2  0  0  0  0
  5 17  1  0  0  0  0
  6 15  1  0  0  0  0
  7 21  1  0  0  0  0
  8 16  1  0  0  0  0
  8 18  1  0  0  0  0
  9 10  1  0  0  0  0
  9 16  1  0  0  0  0
  9 17  2  0  0  0  0
 10 11  2  0  0  0  0
 11 13  1  0  0  0  0
 12 13  2  0  0  0  0
 12 16  1  0  0  0  0
 13 20  1  0  0  0  0
 14 15  1  0  0  0  0
 14 18  1  0  0  0  0
 14 19  2  0  0  0  0
  1 22  1  0  0  0  0
  2 23  1  0  0  0  0
  3 24  1  0  0  0  0
  4 25  1  0  0  0  0
  5 26  1  0  0  0  0
 10 27  1  0  0  0  0
 11 28  1  0  0  0  0
 12 29  1  0  0  0  0
 15 30  1  0  0  0  0
 15 31  1  0  0  0  0
 17 32  1  0  0  0  0
 18 33  1  0  0  0  0
M  CHG  1  17   1
M  END
> <compound>
EDJ-MED-6e43a462-8

> <compound_smiles>
c1cc(cc(c1)Cl)CC(=O)Nc2cnc3n2cc(cc3)F

> <enantiomer_smiles>
c1cc(cc(c1)Cl)CC(=O)Nc2cnc3n2cc(cc3)F

> <scaffold>
chlorobenzene-linker

> <clash_score>
0

> <docking_score>
-6.053778648376465

> <overlap_score>
0.8056855797767639

> <MMFF_internal_energy>
48.11959052953909

> <docked_smiles>
c1cc(cc(c1)Cl)CC(=O)Nc2c[nH+]c3n2cc(cc3)F

$$$$
PET-UNK-ac320b15-4_1
  -OEChem-07262101023D

 57 60  0     1  0  0  0  0  0999 V2000
   11.9780    0.4600   23.9150 C   0  0  0  0  0  0  0  0  0  0  0  0
    5.8957    1.7145   18.3357 C   0  0  0  0  0  0  0  0  0  0  0  0
   10.6560    0.0720   23.7350 C   0  0  0  0  0  0  0  0  0  0  0  0
    6.5839    1.1722   19.4153 C   0  0  0  0  0  0  0  0  0  0  0  0
   12.9840   -0.1200   23.1530 C   0  0  0  0  0  0  0  0  0  0  0  0
   11.3360   -1.5050   22.0650 C   0  0  0  0  0  0  0  0  0  0  0  0
    5.2351    0.8436   17.4842 C   0  0  0  0  0  0  0  0  0  0  0  0
    5.8985   -0.9897   18.6994 C   0  0  0  0  0  0  0  0  0  0  0  0
   10.3220   -0.8940   22.7910 C   0  0  0  0  0  0  0  0  0  0  0  0
    6.5904   -0.2048   19.6077 C   0  0  0  0  0  0  0  0  0  0  0  0
   12.6400   -1.1000   22.2390 C   0  0  0  0  0  0  0  0  0  0  0  0
    6.4950   -6.3587   24.4157 C   0  0  0  0  0  0  0  0  0  0  0  0
    7.5460   -3.2835   22.2823 C   0  0  0  0  0  0  0  0  0  0  0  0
    8.3880   -0.3240   21.3070 C   0  0  0  0  0  0  0  0  0  0  0  0
    7.8148   -5.9979   27.8288 C   0  0  0  0  0  0  0  0  0  0  0  0
    9.0099   -5.5329   27.0061 C   0  0  0  0  0  0  0  0  0  0  0  0
    6.3702   -6.7089   21.9377 C   0  0  0  0  0  0  0  0  0  0  0  0
    6.2498   -5.2732   21.4849 C   0  0  0  0  0  0  0  0  0  0  0  0
    6.6595   -5.8711   26.8479 C   0  0  0  0  0  0  0  0  0  0  0  0
    8.7149   -6.1004   25.6248 C   0  0  0  0  0  0  0  0  0  0  0  0
    7.2659   -6.5966   23.1543 C   0  0  1  0  0  0  0  0  0  0  0  0
    7.6096   -4.7067   21.8399 C   0  0  2  0  0  0  0  0  0  0  0  0
    8.8810   -1.1900   22.4510 C   0  0  1  0  0  0  0  0  0  0  0  0
    5.2187   -0.4993   17.6387 N   0  0  0  0  0  0  0  0  0  0  0  0
    7.2577   -6.1260   25.5457 N   0  0  0  0  0  0  0  0  0  0  0  0
    7.2820   -0.7860   20.6970 N   0  0  0  0  0  0  0  0  0  0  0  0
    8.7221   -2.5829   22.0943 N   0  0  0  0  0  0  0  0  0  0  0  0
    5.2631   -6.3717   24.4061 O   0  0  0  0  0  0  0  0  0  0  0  0
    6.5061   -2.8452   22.7599 O   0  0  0  0  0  0  0  0  0  0  0  0
    8.9170    0.7530   21.0260 O   0  0  0  0  0  0  0  0  0  0  0  0
    8.0999   -5.4529   22.9593 O   0  0  0  0  0  0  0  0  0  0  0  0
   13.8840   -1.8490   21.2740 Cl  0  0  0  0  0  0  0  0  0  0  0  0
   12.2249    1.2198   24.6546 H   0  0  0  0  0  0  0  0  0  0  0  0
    5.8771    2.7850   18.1662 H   0  0  0  0  0  0  0  0  0  0  0  0
    9.8763    0.5350   24.3454 H   0  0  0  0  0  0  0  0  0  0  0  0
    7.1114    1.8312   20.0999 H   0  0  0  0  0  0  0  0  0  0  0  0
   14.0077    0.1988   23.2842 H   0  0  0  0  0  0  0  0  0  0  0  0
   11.0892   -2.3008   21.3624 H   0  0  0  0  0  0  0  0  0  0  0  0
    4.6845    1.2167   16.6269 H   0  0  0  0  0  0  0  0  0  0  0  0
    5.8667   -2.0709   18.7968 H   0  0  0  0  0  0  0  0  0  0  0  0
    7.9461   -7.0443   28.1284 H   0  0  0  0  0  0  0  0  0  0  0  0
    7.6686   -5.3940   28.7286 H   0  0  0  0  0  0  0  0  0  0  0  0
    9.0389   -4.4376   26.9680 H   0  0  0  0  0  0  0  0  0  0  0  0
    9.9596   -5.8922   27.4119 H   0  0  0  0  0  0  0  0  0  0  0  0
    5.3794   -7.1083   22.1935 H   0  0  0  0  0  0  0  0  0  0  0  0
    6.7935   -7.3660   21.1691 H   0  0  0  0  0  0  0  0  0  0  0  0
    6.1142   -5.2480   20.3987 H   0  0  0  0  0  0  0  0  0  0  0  0
    5.4124   -4.7480   21.9484 H   0  0  0  0  0  0  0  0  0  0  0  0
    5.8453   -6.5738   27.0482 H   0  0  0  0  0  0  0  0  0  0  0  0
    6.2528   -4.8538   26.8337 H   0  0  0  0  0  0  0  0  0  0  0  0
    9.1439   -5.4965   24.8208 H   0  0  0  0  0  0  0  0  0  0  0  0
    9.0736   -7.1311   25.5307 H   0  0  0  0  0  0  0  0  0  0  0  0
    7.9022   -7.4779   23.2818 H   0  0  0  0  0  0  0  0  0  0  0  0
    8.3211   -4.7815   21.0112 H   0  0  0  0  0  0  0  0  0  0  0  0
    8.2436   -1.0112   23.3272 H   0  0  0  0  0  0  0  0  0  0  0  0
    6.8975   -1.6551   21.0614 H   0  0  0  0  0  0  0  0  0  0  0  0
    9.5148   -3.0695   21.6866 H   0  0  0  0  0  0  0  0  0  0  0  0
  1  3  1  0  0  0  0
  1  5  2  0  0  0  0
  2  4  2  0  0  0  0
  2  7  1  0  0  0  0
  3  9  2  0  0  0  0
  4 10  1  0  0  0  0
  5 11  1  0  0  0  0
  6  9  1  0  0  0  0
  6 11  2  0  0  0  0
  7 24  2  0  0  0  0
  8 10  2  0  0  0  0
  8 24  1  0  0  0  0
  9 23  1  0  0  0  0
 10 26  1  0  0  0  0
 11 32  1  0  0  0  0
 12 21  1  0  0  0  0
 12 25  1  0  0  0  0
 12 28  2  0  0  0  0
 13 22  1  0  0  0  0
 13 27  1  0  0  0  0
 13 29  2  0  0  0  0
 14 23  1  0  0  0  0
 14 26  1  0  0  0  0
 14 30  2  0  0  0  0
 15 16  1  0  0  0  0
 15 19  1  0  0  0  0
 16 20  1  0  0  0  0
 17 18  1  0  0  0  0
 17 21  1  0  0  0  0
 18 22  1  0  0  0  0
 19 25  1  0  0  0  0
 20 25  1  0  0  0  0
 21 31  1  0  0  0  0
 22 31  1  0  0  0  0
 23 27  1  0  0  0  0
  1 33  1  0  0  0  0
  2 34  1  0  0  0  0
  3 35  1  0  0  0  0
  4 36  1  0  0  0  0
  5 37  1  0  0  0  0
  6 38  1  0  0  0  0
  7 39  1  0  0  0  0
  8 40  1  0  0  0  0
 15 41  1  0  0  0  0
 15 42  1  0  0  0  0
 16 43  1  0  0  0  0
 16 44  1  0  0  0  0
 17 45  1  0  0  0  0
 17 46  1  0  0  0  0
 18 47  1  0  0  0  0
 18 48  1  0  0  0  0
 19 49  1  0  0  0  0
 19 50  1  0  0  0  0
 20 51  1  0  0  0  0
 20 52  1  0  0  0  0
 21 53  1  0  0  0  0
 22 54  1  0  0  0  0
 23 55  1  0  0  0  0
 26 56  1  0  0  0  0
 27 57  1  0  0  0  0
M  END
> <compound>
PET-UNK-ac320b15-4

> <compound_smiles>
c1cc(cc(c1)Cl)[C@@H](C(=O)Nc2cccnc2)NC(=O)[C@@H]3CC[C@@H](O3)C(=O)N4CCCC4

> <enantiomer_smiles>
c1cc(cc(c1)Cl)[C@@H](C(=O)Nc2cccnc2)NC(=O)[C@@H]3CC[C@@H](O3)C(=O)N4CCCC4

> <scaffold>
chlorobenzene-linker

> <clash_score>
0

> <docking_score>
-5.372932434082031

> <overlap_score>
0.742178738117218

> <MMFF_internal_energy>
135.72781986613313

> <docked_smiles>
c1cc(cc(c1)Cl)[C@@H](C(=O)Nc2cccnc2)NC(=O)[C@@H]3CC[C@@H](O3)C(=O)N4CCCC4

$$$$
PET-UNK-ac320b15-9_1
  -OEChem-07262101023D

 63 67  0     1  0  0  0  0  0999 V2000
    2.5650    1.0119   19.7905 C   0  0  0  0  0  0  0  0  0  0  0  0
    3.1657    0.4486   20.9139 C   0  0  0  0  0  0  0  0  0  0  0  0
   11.9780    0.4600   23.9150 C   0  0  0  0  0  0  0  0  0  0  0  0
    3.2959    1.1705   18.6133 C   0  0  0  0  0  0  0  0  0  0  0  0
    4.5001    0.0414   20.8653 C   0  0  0  0  0  0  0  0  0  0  0  0
   10.6560    0.0720   23.7350 C   0  0  0  0  0  0  0  0  0  0  0  0
   12.9840   -0.1200   23.1530 C   0  0  0  0  0  0  0  0  0  0  0  0
   11.3360   -1.5050   22.0650 C   0  0  0  0  0  0  0  0  0  0  0  0
    5.4171    0.8995   17.4014 C   0  0  0  0  0  0  0  0  0  0  0  0
    7.2639   -0.0211   18.4097 C   0  0  0  0  0  0  0  0  0  0  0  0
    4.6393    0.7642   18.5530 C   0  0  0  0  0  0  0  0  0  0  0  0
    5.2510    0.1935   19.6882 C   0  0  0  0  0  0  0  0  0  0  0  0
   10.3220   -0.8940   22.7910 C   0  0  0  0  0  0  0  0  0  0  0  0
    6.5904   -0.2048   19.6077 C   0  0  0  0  0  0  0  0  0  0  0  0
   12.6400   -1.1000   22.2390 C   0  0  0  0  0  0  0  0  0  0  0  0
    5.5566   -4.6204   26.3926 C   0  0  0  0  0  0  0  0  0  0  0  0
    7.7893   -1.9613   24.5493 C   0  0  0  0  0  0  0  0  0  0  0  0
    8.3880   -0.3240   21.3070 C   0  0  0  0  0  0  0  0  0  0  0  0
    6.1429   -7.0297   29.1079 C   0  0  0  0  0  0  0  0  0  0  0  0
    5.4654   -5.8965   29.8682 C   0  0  0  0  0  0  0  0  0  0  0  0
    4.7763   -2.5138   25.2841 C   0  0  0  0  0  0  0  0  0  0  0  0
    5.4974   -1.1920   25.1669 C   0  0  0  0  0  0  0  0  0  0  0  0
    5.7556   -6.7471   27.6646 C   0  0  0  0  0  0  0  0  0  0  0  0
    5.6326   -4.7088   28.9309 C   0  0  0  0  0  0  0  0  0  0  0  0
    5.4364   -3.1372   26.4968 C   0  0  2  0  0  0  0  0  0  0  0  0
    6.8902   -1.5236   25.6618 C   0  0  1  0  0  0  0  0  0  0  0  0
    8.8810   -1.1900   22.4510 C   0  0  1  0  0  0  0  0  0  0  0  0
    6.7116    0.5212   17.3036 N   0  0  0  0  0  0  0  0  0  0  0  0
    5.6407   -5.2978   27.5954 N   0  0  0  0  0  0  0  0  0  0  0  0
    7.2820   -0.7860   20.6970 N   0  0  0  0  0  0  0  0  0  0  0  0
    8.0374   -0.9810   23.6076 N   0  0  0  0  0  0  0  0  0  0  0  0
    5.5709   -5.1694   25.2898 O   0  0  0  0  0  0  0  0  0  0  0  0
    8.2296   -3.1049   24.5427 O   0  0  0  0  0  0  0  0  0  0  0  0
    8.9170    0.7530   21.0260 O   0  0  0  0  0  0  0  0  0  0  0  0
    6.7740   -2.6308   26.5563 O   0  0  0  0  0  0  0  0  0  0  0  0
   13.8840   -1.8490   21.2740 Cl  0  0  0  0  0  0  0  0  0  0  0  0
    1.5267    1.3276   19.8311 H   0  0  0  0  0  0  0  0  0  0  0  0
    2.5946    0.3257   21.8297 H   0  0  0  0  0  0  0  0  0  0  0  0
   12.2249    1.2198   24.6546 H   0  0  0  0  0  0  0  0  0  0  0  0
    2.8114    1.6120   17.7455 H   0  0  0  0  0  0  0  0  0  0  0  0
    4.9338   -0.3933   21.7630 H   0  0  0  0  0  0  0  0  0  0  0  0
    9.8763    0.5350   24.3454 H   0  0  0  0  0  0  0  0  0  0  0  0
   14.0077    0.1988   23.2842 H   0  0  0  0  0  0  0  0  0  0  0  0
   11.0892   -2.3008   21.3624 H   0  0  0  0  0  0  0  0  0  0  0  0
    5.0078    1.3308   16.4920 H   0  0  0  0  0  0  0  0  0  0  0  0
    8.3038   -0.3142   18.2963 H   0  0  0  0  0  0  0  0  0  0  0  0
    7.2309   -6.9687   29.2285 H   0  0  0  0  0  0  0  0  0  0  0  0
    5.8100   -8.0150   29.4457 H   0  0  0  0  0  0  0  0  0  0  0  0
    4.4017   -6.1205   30.0110 H   0  0  0  0  0  0  0  0  0  0  0  0
    5.9189   -5.7232   30.8481 H   0  0  0  0  0  0  0  0  0  0  0  0
    3.6942   -2.4021   25.4119 H   0  0  0  0  0  0  0  0  0  0  0  0
    4.9366   -3.1123   24.3780 H   0  0  0  0  0  0  0  0  0  0  0  0
    5.4694   -0.7795   24.1541 H   0  0  0  0  0  0  0  0  0  0  0  0
    5.0307   -0.4657   25.8433 H   0  0  0  0  0  0  0  0  0  0  0  0
    6.4892   -7.1159   26.9416 H   0  0  0  0  0  0  0  0  0  0  0  0
    4.7751   -7.1705   27.4202 H   0  0  0  0  0  0  0  0  0  0  0  0
    4.8293   -3.9744   29.0342 H   0  0  0  0  0  0  0  0  0  0  0  0
    6.5964   -4.2113   29.0834 H   0  0  0  0  0  0  0  0  0  0  0  0
    4.9239   -2.8798   27.4271 H   0  0  0  0  0  0  0  0  0  0  0  0
    7.3607   -0.6796   26.1734 H   0  0  0  0  0  0  0  0  0  0  0  0
    8.7711   -2.2448   22.1651 H   0  0  0  0  0  0  0  0  0  0  0  0
    6.8975   -1.6551   21.0614 H   0  0  0  0  0  0  0  0  0  0  0  0
    7.6086   -0.0691   23.7345 H   0  0  0  0  0  0  0  0  0  0  0  0
  1  2  1  0  0  0  0
  1  4  2  0  0  0  0
  2  5  2  0  0  0  0
  3  6  2  0  0  0  0
  3  7  1  0  0  0  0
  4 11  1  0  0  0  0
  5 12  1  0  0  0  0
  6 13  1  0  0  0  0
  7 15  2  0  0  0  0
  8 13  2  0  0  0  0
  8 15  1  0  0  0  0
  9 11  2  0  0  0  0
  9 28  1  0  0  0  0
 10 14  1  0  0  0  0
 10 28  2  0  0  0  0
 11 12  1  0  0  0  0
 12 14  2  0  0  0  0
 13 27  1  0  0  0  0
 14 30  1  0  0  0  0
 15 36  1  0  0  0  0
 16 25  1  0  0  0  0
 16 29  1  0  0  0  0
 16 32  2  0  0  0  0
 17 26  1  0  0  0  0
 17 31  1  0  0  0  0
 17 33  2  0  0  0  0
 18 27  1  0  0  0  0
 18 30  1  0  0  0  0
 18 34  2  0  0  0  0
 19 20  1  0  0  0  0
 19 23  1  0  0  0  0
 20 24  1  0  0  0  0
 21 22  1  0  0  0  0
 21 25  1  0  0  0  0
 22 26  1  0  0  0  0
 23 29  1  0  0  0  0
 24 29  1  0  0  0  0
 25 35  1  0  0  0  0
 26 35  1  0  0  0  0
 27 31  1  0  0  0  0
  1 37  1  0  0  0  0
  2 38  1  0  0  0  0
  3 39  1  0  0  0  0
  4 40  1  0  0  0  0
  5 41  1  0  0  0  0
  6 42  1  0  0  0  0
  7 43  1  0  0  0  0
  8 44  1  0  0  0  0
  9 45  1  0  0  0  0
 10 46  1  0  0  0  0
 19 47  1  0  0  0  0
 19 48  1  0  0  0  0
 20 49  1  0  0  0  0
 20 50  1  0  0  0  0
 21 51  1  0  0  0  0
 21 52  1  0  0  0  0
 22 53  1  0  0  0  0
 22 54  1  0  0  0  0
 23 55  1  0  0  0  0
 23 56  1  0  0  0  0
 24 57  1  0  0  0  0
 24 58  1  0  0  0  0
 25 59  1  0  0  0  0
 26 60  1  0  0  0  0
 27 61  1  0  0  0  0
 30 62  1  0  0  0  0
 31 63  1  0  0  0  0
M  END
> <compound>
PET-UNK-ac320b15-9

> <compound_smiles>
c1ccc2c(c1)cncc2NC(=O)[C@@H](c3cccc(c3)Cl)NC(=O)[C@H]4CC[C@H](O4)C(=O)N5CCCC5

> <enantiomer_smiles>
c1ccc2c(c1)cncc2NC(=O)[C@@H](c3cccc(c3)Cl)NC(=O)[C@H]4CC[C@H](O4)C(=O)N5CCCC5

> <scaffold>
chlorobenzene-linker

> <clash_score>
0

> <docking_score>
-4.889894008636475

> <overlap_score>
0.8811337947845459

> <MMFF_internal_energy>
173.32153437787198

> <docked_smiles>
c1ccc2c(c1)cncc2NC(=O)[C@@H](c3cccc(c3)Cl)NC(=O)[C@H]4CC[C@H](O4)C(=O)N5CCCC5

$$$$
PET-UNK-b38839dc-1_1
  -OEChem-07262101023D

 38 40  0     0  0  0  0  0  0999 V2000
   11.9780    0.4600   23.9150 C   0  0  0  0  0  0  0  0  0  0  0  0
   10.6560    0.0720   23.7350 C   0  0  0  0  0  0  0  0  0  0  0  0
   12.9840   -0.1200   23.1530 C   0  0  0  0  0  0  0  0  0  0  0  0
    5.1213    1.1103   21.0633 C   0  0  0  0  0  0  0  0  0  0  0  0
    3.8508    2.1337   18.7973 C   0  0  0  0  0  0  0  0  0  0  0  0
   11.3360   -1.5050   22.0650 C   0  0  0  0  0  0  0  0  0  0  0  0
    5.3506    0.7762   17.4011 C   0  0  0  0  0  0  0  0  0  0  0  0
    6.9505   -0.5832   18.3323 C   0  0  0  0  0  0  0  0  0  0  0  0
    5.5456    0.6940   19.7908 C   0  0  0  0  0  0  0  0  0  0  0  0
    4.9014    1.2132   18.6488 C   0  0  0  0  0  0  0  0  0  0  0  0
   10.3220   -0.8940   22.7910 C   0  0  0  0  0  0  0  0  0  0  0  0
    6.5902   -0.2221   19.6216 C   0  0  0  0  0  0  0  0  0  0  0  0
    4.0761    2.0256   21.1991 C   0  0  0  0  0  0  0  0  0  0  0  0
    3.4423    2.5362   20.0687 C   0  0  0  0  0  0  0  0  0  0  0  0
   12.6400   -1.1000   22.2390 C   0  0  0  0  0  0  0  0  0  0  0  0
    8.3880   -0.3240   21.3070 C   0  0  0  0  0  0  0  0  0  0  0  0
    4.3688    1.8569   23.5532 C   0  0  0  0  0  0  0  0  0  0  0  0
    8.8810   -1.1900   22.4510 C   0  0  0  0  0  0  0  0  0  0  0  0
    6.3574   -0.1074   17.2168 N   0  0  0  0  0  0  0  0  0  0  0  0
    7.2820   -0.7860   20.6970 N   0  0  0  0  0  0  0  0  0  0  0  0
    8.9170    0.7530   21.0260 O   0  0  0  0  0  0  0  0  0  0  0  0
    3.6765    2.4191   22.4397 O   0  0  0  0  0  0  0  0  0  0  0  0
    2.4382    3.4145   20.1967 F   0  0  0  0  0  0  0  0  0  0  0  0
   13.8840   -1.8490   21.2740 Cl  0  0  0  0  0  0  0  0  0  0  0  0
   12.2249    1.2198   24.6546 H   0  0  0  0  0  0  0  0  0  0  0  0
    9.8763    0.5350   24.3454 H   0  0  0  0  0  0  0  0  0  0  0  0
   14.0077    0.1988   23.2842 H   0  0  0  0  0  0  0  0  0  0  0  0
    5.5956    0.7300   21.9658 H   0  0  0  0  0  0  0  0  0  0  0  0
    3.3451    2.5417   17.9254 H   0  0  0  0  0  0  0  0  0  0  0  0
   11.0892   -2.3009   21.3624 H   0  0  0  0  0  0  0  0  0  0  0  0
    4.8980    1.1364   16.4811 H   0  0  0  0  0  0  0  0  0  0  0  0
    7.7535   -1.2911   18.1480 H   0  0  0  0  0  0  0  0  0  0  0  0
    3.9513    2.2546   24.4814 H   0  0  0  0  0  0  0  0  0  0  0  0
    5.4315    2.1027   23.4844 H   0  0  0  0  0  0  0  0  0  0  0  0
    4.2462    0.7714   23.5368 H   0  0  0  0  0  0  0  0  0  0  0  0
    8.7774   -2.2383   22.1732 H   0  0  0  0  0  0  0  0  0  0  0  0
    8.2557   -1.0153   23.3257 H   0  0  0  0  0  0  0  0  0  0  0  0
    6.8981   -1.6619   21.0675 H   0  0  0  0  0  0  0  0  0  0  0  0
  1  2  2  0  0  0  0
  1  3  1  0  0  0  0
  2 11  1  0  0  0  0
  3 15  2  0  0  0  0
  4  9  2  0  0  0  0
  4 13  1  0  0  0  0
  5 10  2  0  0  0  0
  5 14  1  0  0  0  0
  6 11  2  0  0  0  0
  6 15  1  0  0  0  0
  7 10  1  0  0  0  0
  7 19  2  0  0  0  0
  8 12  2  0  0  0  0
  8 19  1  0  0  0  0
  9 10  1  0  0  0  0
  9 12  1  0  0  0  0
 11 18  1  0  0  0  0
 12 20  1  0  0  0  0
 13 14  2  0  0  0  0
 13 22  1  0  0  0  0
 14 23  1  0  0  0  0
 15 24  1  0  0  0  0
 16 18  1  0  0  0  0
 16 20  1  0  0  0  0
 16 21  2  0  0  0  0
 17 22  1  0  0  0  0
  1 25  1  0  0  0  0
  2 26  1  0  0  0  0
  3 27  1  0  0  0  0
  4 28  1  0  0  0  0
  5 29  1  0  0  0  0
  6 30  1  0  0  0  0
  7 31  1  0  0  0  0
  8 32  1  0  0  0  0
 17 33  1  0  0  0  0
 17 34  1  0  0  0  0
 17 35  1  0  0  0  0
 18 36  1  0  0  0  0
 18 37  1  0  0  0  0
 20 38  1  0  0  0  0
M  END
> <compound>
PET-UNK-b38839dc-1

> <compound_smiles>
COc1cc2c(cc1F)cncc2NC(=O)Cc3cccc(c3)Cl

> <enantiomer_smiles>
COc1cc2c(cc1F)cncc2NC(=O)Cc3cccc(c3)Cl

> <scaffold>
chlorobenzene-linker

> <clash_score>
0

> <docking_score>
-11.076208114624023

> <overlap_score>
1.015511155128479

> <MMFF_internal_energy>
113.20123645949207

> <docked_smiles>
COc1cc2c(cc1F)cncc2NC(=O)Cc3cccc(c3)Cl

$$$$
MAT-POS-8293a91a-7_1
  -OEChem-07262101023D

 63 67  0     1  0  0  0  0  0999 V2000
    2.5650    1.0119   19.7905 C   0  0  0  0  0  0  0  0  0  0  0  0
    3.1657    0.4486   20.9139 C   0  0  0  0  0  0  0  0  0  0  0  0
   11.9780    0.4600   23.9150 C   0  0  0  0  0  0  0  0  0  0  0  0
    3.2959    1.1705   18.6133 C   0  0  0  0  0  0  0  0  0  0  0  0
    4.5001    0.0414   20.8653 C   0  0  0  0  0  0  0  0  0  0  0  0
   10.6560    0.0720   23.7350 C   0  0  0  0  0  0  0  0  0  0  0  0
   12.9840   -0.1200   23.1530 C   0  0  0  0  0  0  0  0  0  0  0  0
   11.3360   -1.5050   22.0650 C   0  0  0  0  0  0  0  0  0  0  0  0
    5.4171    0.8995   17.4014 C   0  0  0  0  0  0  0  0  0  0  0  0
    7.2639   -0.0211   18.4097 C   0  0  0  0  0  0  0  0  0  0  0  0
    4.6393    0.7642   18.5530 C   0  0  0  0  0  0  0  0  0  0  0  0
    5.2510    0.1935   19.6882 C   0  0  0  0  0  0  0  0  0  0  0  0
   10.3220   -0.8940   22.7910 C   0  0  0  0  0  0  0  0  0  0  0  0
    6.5904   -0.2048   19.6077 C   0  0  0  0  0  0  0  0  0  0  0  0
   12.6400   -1.1000   22.2390 C   0  0  0  0  0  0  0  0  0  0  0  0
    5.5566   -4.6204   26.3926 C   0  0  0  0  0  0  0  0  0  0  0  0
    7.7893   -1.9613   24.5493 C   0  0  0  0  0  0  0  0  0  0  0  0
    8.3880   -0.3240   21.3070 C   0  0  0  0  0  0  0  0  0  0  0  0
    6.1429   -7.0297   29.1079 C   0  0  0  0  0  0  0  0  0  0  0  0
    5.4654   -5.8965   29.8682 C   0  0  0  0  0  0  0  0  0  0  0  0
    4.7763   -2.5138   25.2841 C   0  0  0  0  0  0  0  0  0  0  0  0
    5.4974   -1.1920   25.1669 C   0  0  0  0  0  0  0  0  0  0  0  0
    5.7556   -6.7471   27.6646 C   0  0  0  0  0  0  0  0  0  0  0  0
    5.6326   -4.7088   28.9309 C   0  0  0  0  0  0  0  0  0  0  0  0
    5.4364   -3.1372   26.4968 C   0  0  2  0  0  0  0  0  0  0  0  0
    6.8902   -1.5236   25.6618 C   0  0  1  0  0  0  0  0  0  0  0  0
    8.8810   -1.1900   22.4510 C   0  0  1  0  0  0  0  0  0  0  0  0
    6.7116    0.5212   17.3036 N   0  0  0  0  0  0  0  0  0  0  0  0
    5.6407   -5.2978   27.5954 N   0  0  0  0  0  0  0  0  0  0  0  0
    7.2820   -0.7860   20.6970 N   0  0  0  0  0  0  0  0  0  0  0  0
    8.0374   -0.9810   23.6076 N   0  0  0  0  0  0  0  0  0  0  0  0
    5.5709   -5.1694   25.2898 O   0  0  0  0  0  0  0  0  0  0  0  0
    8.2296   -3.1049   24.5427 O   0  0  0  0  0  0  0  0  0  0  0  0
    8.9170    0.7530   21.0260 O   0  0  0  0  0  0  0  0  0  0  0  0
    6.7740   -2.6308   26.5563 O   0  0  0  0  0  0  0  0  0  0  0  0
   13.8840   -1.8490   21.2740 Cl  0  0  0  0  0  0  0  0  0  0  0  0
    1.5267    1.3276   19.8311 H   0  0  0  0  0  0  0  0  0  0  0  0
    2.5946    0.3257   21.8297 H   0  0  0  0  0  0  0  0  0  0  0  0
   12.2249    1.2198   24.6546 H   0  0  0  0  0  0  0  0  0  0  0  0
    2.8114    1.6120   17.7455 H   0  0  0  0  0  0  0  0  0  0  0  0
    4.9338   -0.3933   21.7630 H   0  0  0  0  0  0  0  0  0  0  0  0
    9.8763    0.5350   24.3454 H   0  0  0  0  0  0  0  0  0  0  0  0
   14.0077    0.1988   23.2842 H   0  0  0  0  0  0  0  0  0  0  0  0
   11.0892   -2.3008   21.3624 H   0  0  0  0  0  0  0  0  0  0  0  0
    5.0078    1.3308   16.4920 H   0  0  0  0  0  0  0  0  0  0  0  0
    8.3038   -0.3142   18.2963 H   0  0  0  0  0  0  0  0  0  0  0  0
    7.2309   -6.9687   29.2285 H   0  0  0  0  0  0  0  0  0  0  0  0
    5.8100   -8.0150   29.4457 H   0  0  0  0  0  0  0  0  0  0  0  0
    4.4017   -6.1205   30.0110 H   0  0  0  0  0  0  0  0  0  0  0  0
    5.9189   -5.7232   30.8481 H   0  0  0  0  0  0  0  0  0  0  0  0
    3.6942   -2.4021   25.4119 H   0  0  0  0  0  0  0  0  0  0  0  0
    4.9366   -3.1123   24.3780 H   0  0  0  0  0  0  0  0  0  0  0  0
    5.4694   -0.7795   24.1541 H   0  0  0  0  0  0  0  0  0  0  0  0
    5.0307   -0.4657   25.8433 H   0  0  0  0  0  0  0  0  0  0  0  0
    6.4892   -7.1159   26.9416 H   0  0  0  0  0  0  0  0  0  0  0  0
    4.7751   -7.1705   27.4202 H   0  0  0  0  0  0  0  0  0  0  0  0
    4.8293   -3.9744   29.0342 H   0  0  0  0  0  0  0  0  0  0  0  0
    6.5964   -4.2113   29.0834 H   0  0  0  0  0  0  0  0  0  0  0  0
    4.9239   -2.8798   27.4271 H   0  0  0  0  0  0  0  0  0  0  0  0
    7.3607   -0.6796   26.1734 H   0  0  0  0  0  0  0  0  0  0  0  0
    8.7711   -2.2448   22.1651 H   0  0  0  0  0  0  0  0  0  0  0  0
    6.8975   -1.6551   21.0614 H   0  0  0  0  0  0  0  0  0  0  0  0
    7.6086   -0.0691   23.7345 H   0  0  0  0  0  0  0  0  0  0  0  0
  1  2  1  0  0  0  0
  1  4  2  0  0  0  0
  2  5  2  0  0  0  0
  3  6  2  0  0  0  0
  3  7  1  0  0  0  0
  4 11  1  0  0  0  0
  5 12  1  0  0  0  0
  6 13  1  0  0  0  0
  7 15  2  0  0  0  0
  8 13  2  0  0  0  0
  8 15  1  0  0  0  0
  9 11  2  0  0  0  0
  9 28  1  0  0  0  0
 10 14  1  0  0  0  0
 10 28  2  0  0  0  0
 11 12  1  0  0  0  0
 12 14  2  0  0  0  0
 13 27  1  0  0  0  0
 14 30  1  0  0  0  0
 15 36  1  0  0  0  0
 16 25  1  0  0  0  0
 16 29  1  0  0  0  0
 16 32  2  0  0  0  0
 17 26  1  0  0  0  0
 17 31  1  0  0  0  0
 17 33  2  0  0  0  0
 18 27  1  1  0  0  0
 18 30  1  0  0  0  0
 18 34  2  0  0  0  0
 19 20  1  0  0  0  0
 19 23  1  0  0  0  0
 20 24  1  0  0  0  0
 21 22  1  0  0  0  0
 21 25  1  0  0  0  0
 22 26  1  0  0  0  0
 23 29  1  0  0  0  0
 24 29  1  0  0  0  0
 25 35  1  0  0  0  0
 26 35  1  0  0  0  0
 27 31  1  0  0  0  0
  1 37  1  0  0  0  0
  2 38  1  0  0  0  0
  3 39  1  0  0  0  0
  4 40  1  0  0  0  0
  5 41  1  0  0  0  0
  6 42  1  0  0  0  0
  7 43  1  0  0  0  0
  8 44  1  0  0  0  0
  9 45  1  0  0  0  0
 10 46  1  0  0  0  0
 19 47  1  0  0  0  0
 19 48  1  0  0  0  0
 20 49  1  0  0  0  0
 20 50  1  0  0  0  0
 21 51  1  0  0  0  0
 21 52  1  0  0  0  0
 22 53  1  0  0  0  0
 22 54  1  0  0  0  0
 23 55  1  0  0  0  0
 23 56  1  0  0  0  0
 24 57  1  0  0  0  0
 24 58  1  0  0  0  0
 25 59  1  0  0  0  0
 26 60  1  0  0  0  0
 27 61  1  0  0  0  0
 30 62  1  0  0  0  0
 31 63  1  0  0  0  0
M  END
> <compound>
MAT-POS-8293a91a-7

> <compound_smiles>
c1ccc2c(c1)cncc2NC(=O)C(c3cccc(c3)Cl)NC(=O)[C@H]4CC[C@H](O4)C(=O)N5CCCC5

> <enantiomer_smiles>
c1ccc2c(c1)cncc2NC(=O)[C@@H](c3cccc(c3)Cl)NC(=O)[C@H]4CC[C@H](O4)C(=O)N5CCCC5

> <scaffold>
chlorobenzene-linker

> <canonical_CID>
MAT-POS-8293a91a-7

> <r_inhibition_at_20_uM>

> <r_inhibition_at_50_uM>

> <r_avg_IC50>

> <f_inhibition_at_20_uM>

> <f_inhibition_at_50_uM>

> <f_avg_IC50>
19.3550865764734

> <f_avg_pIC50>

> <relative_solubility_at_20_uM>

> <relative_solubility_at_100_uM>

> <trypsin_IC50>

> <NMR_std_ratio>

> <acrylamide>
False

> <chloroacetamide>
False

> <series>
Ugi

> <frag_id>

> <clash_score>
0

> <docking_score>
-4.889894008636475

> <overlap_score>
0.8811337947845459

> <MMFF_internal_energy>
173.32153437787198

> <docked_smiles>
c1ccc2c(c1)cncc2NC(=O)[C@@H](c3cccc(c3)Cl)NC(=O)[C@H]4CC[C@H](O4)C(=O)N5CCCC5

$$$$
BEN-DND-1e24cf73-3_1
  -OEChem-07262101023D

 40 42  0     0  0  0  0  0  0999 V2000
    7.4154    3.6997   23.4557 C   0  0  0  0  0  0  0  0  0  0  0  0
    6.8363    2.4698   23.7680 C   0  0  0  0  0  0  0  0  0  0  0  0
    7.4830    4.1218   22.1279 C   0  0  0  0  0  0  0  0  0  0  0  0
   11.9780    0.4600   23.9150 C   0  0  0  0  0  0  0  0  0  0  0  0
   10.6560    0.0720   23.7350 C   0  0  0  0  0  0  0  0  0  0  0  0
    6.3249    1.6618   22.7524 C   0  0  0  0  0  0  0  0  0  0  0  0
    6.9717    3.3138   21.1124 C   0  0  0  0  0  0  0  0  0  0  0  0
   12.9840   -0.1200   23.1530 C   0  0  0  0  0  0  0  0  0  0  0  0
   11.3360   -1.5050   22.0650 C   0  0  0  0  0  0  0  0  0  0  0  0
    5.5043   -0.4407   19.0038 C   0  0  0  0  0  0  0  0  0  0  0  0
   10.3220   -0.8940   22.7910 C   0  0  0  0  0  0  0  0  0  0  0  0
    6.3926    2.0838   21.4246 C   0  0  0  0  0  0  0  0  0  0  0  0
   12.6400   -1.1000   22.2390 C   0  0  0  0  0  0  0  0  0  0  0  0
    6.2693   -0.0307   20.0591 C   0  0  0  0  0  0  0  0  0  0  0  0
    4.8817    1.6145   19.5414 C   0  0  0  0  0  0  0  0  0  0  0  0
    8.3880   -0.3240   21.3070 C   0  0  0  0  0  0  0  0  0  0  0  0
    4.1568    2.9109   19.5255 C   0  0  0  0  0  0  0  0  0  0  0  0
    8.8810   -1.1900   22.4510 C   0  0  0  0  0  0  0  0  0  0  0  0
    5.8631    1.2444   20.3705 N   0  0  0  0  0  0  0  0  0  0  0  0
    4.6545    0.5969   18.7047 N   0  3  0  0  0  0  0  0  0  0  0  0
    7.2820   -0.7860   20.6970 N   0  0  0  0  0  0  0  0  0  0  0  0
    8.9170    0.7530   21.0260 O   0  0  0  0  0  0  0  0  0  0  0  0
   13.8840   -1.8490   21.2740 Cl  0  0  0  0  0  0  0  0  0  0  0  0
    7.8142    4.3284   24.2466 H   0  0  0  0  0  0  0  0  0  0  0  0
    6.7853    2.1403   24.8016 H   0  0  0  0  0  0  0  0  0  0  0  0
    7.9353    5.0786   21.8843 H   0  0  0  0  0  0  0  0  0  0  0  0
   12.2249    1.2198   24.6546 H   0  0  0  0  0  0  0  0  0  0  0  0
    9.8763    0.5350   24.3454 H   0  0  0  0  0  0  0  0  0  0  0  0
    5.8758    0.7043   23.0023 H   0  0  0  0  0  0  0  0  0  0  0  0
    7.0287    3.6477   20.0800 H   0  0  0  0  0  0  0  0  0  0  0  0
   14.0077    0.1988   23.2842 H   0  0  0  0  0  0  0  0  0  0  0  0
   11.0892   -2.3009   21.3624 H   0  0  0  0  0  0  0  0  0  0  0  0
    5.4305   -1.3278   18.4064 H   0  0  0  0  0  0  0  0  0  0  0  0
    4.6636    3.6308   18.8677 H   0  0  0  0  0  0  0  0  0  0  0  0
    3.1224    2.7916   19.1711 H   0  0  0  0  0  0  0  0  0  0  0  0
    4.0935    3.3512   20.5317 H   0  0  0  0  0  0  0  0  0  0  0  0
    8.7709   -2.2387   22.1706 H   0  0  0  0  0  0  0  0  0  0  0  0
    8.2491   -1.0157   23.3232 H   0  0  0  0  0  0  0  0  0  0  0  0
    3.9605    0.5919   17.9621 H   0  0  0  0  0  0  0  0  0  0  0  0
    7.1590   -1.7964   20.6938 H   0  0  0  0  0  0  0  0  0  0  0  0
  1  2  1  0  0  0  0
  1  3  2  0  0  0  0
  2  6  2  0  0  0  0
  3  7  1  0  0  0  0
  4  5  2  0  0  0  0
  4  8  1  0  0  0  0
  5 11  1  0  0  0  0
  6 12  1  0  0  0  0
  7 12  2  0  0  0  0
  8 13  2  0  0  0  0
  9 11  2  0  0  0  0
  9 13  1  0  0  0  0
 10 14  2  0  0  0  0
 10 20  1  0  0  0  0
 11 18  1  0  0  0  0
 12 19  1  0  0  0  0
 13 23  1  0  0  0  0
 14 19  1  0  0  0  0
 14 21  1  0  0  0  0
 15 17  1  0  0  0  0
 15 19  1  0  0  0  0
 15 20  2  0  0  0  0
 16 18  1  0  0  0  0
 16 21  1  0  0  0  0
 16 22  2  0  0  0  0
  1 24  1  0  0  0  0
  2 25  1  0  0  0  0
  3 26  1  0  0  0  0
  4 27  1  0  0  0  0
  5 28  1  0  0  0  0
  6 29  1  0  0  0  0
  7 30  1  0  0  0  0
  8 31  1  0  0  0  0
  9 32  1  0  0  0  0
 10 33  1  0  0  0  0
 17 34  1  0  0  0  0
 17 35  1  0  0  0  0
 17 36  1  0  0  0  0
 18 37  1  0  0  0  0
 18 38  1  0  0  0  0
 20 39  1  0  0  0  0
 21 40  1  0  0  0  0
M  CHG  1  20   1
M  END
> <compound>
BEN-DND-1e24cf73-3

> <compound_smiles>
Cc1ncc(n1c2ccccc2)NC(=O)Cc3cccc(c3)Cl

> <enantiomer_smiles>
Cc1ncc(n1c2ccccc2)NC(=O)Cc3cccc(c3)Cl

> <scaffold>
chlorobenzene-linker

> <clash_score>
0

> <docking_score>
-5.528239727020264

> <overlap_score>
0.8000393509864807

> <MMFF_internal_energy>
68.39650906792015

> <docked_smiles>
Cc1[nH+]cc(n1c2ccccc2)NC(=O)Cc3cccc(c3)Cl

$$$$
MAT-POS-8293a91a-2_2
  -OEChem-07262101023D

 63 67  0     1  0  0  0  0  0999 V2000
    2.5650    1.0119   19.7905 C   0  0  0  0  0  0  0  0  0  0  0  0
    3.1657    0.4486   20.9139 C   0  0  0  0  0  0  0  0  0  0  0  0
   11.9780    0.4600   23.9150 C   0  0  0  0  0  0  0  0  0  0  0  0
    3.2959    1.1705   18.6133 C   0  0  0  0  0  0  0  0  0  0  0  0
    4.5001    0.0414   20.8653 C   0  0  0  0  0  0  0  0  0  0  0  0
   10.6560    0.0720   23.7350 C   0  0  0  0  0  0  0  0  0  0  0  0
   12.9840   -0.1200   23.1530 C   0  0  0  0  0  0  0  0  0  0  0  0
   11.3360   -1.5050   22.0650 C   0  0  0  0  0  0  0  0  0  0  0  0
    5.4171    0.8995   17.4014 C   0  0  0  0  0  0  0  0  0  0  0  0
    7.2639   -0.0211   18.4097 C   0  0  0  0  0  0  0  0  0  0  0  0
    4.6393    0.7642   18.5530 C   0  0  0  0  0  0  0  0  0  0  0  0
    5.2510    0.1935   19.6882 C   0  0  0  0  0  0  0  0  0  0  0  0
   10.3220   -0.8940   22.7910 C   0  0  0  0  0  0  0  0  0  0  0  0
    6.5904   -0.2048   19.6077 C   0  0  0  0  0  0  0  0  0  0  0  0
   12.6400   -1.1000   22.2390 C   0  0  0  0  0  0  0  0  0  0  0  0
    6.1496   -7.3783   22.2411 C   0  0  0  0  0  0  0  0  0  0  0  0
    8.4779   -3.5755   23.0241 C   0  0  0  0  0  0  0  0  0  0  0  0
    8.3880   -0.3240   21.3070 C   0  0  0  0  0  0  0  0  0  0  0  0
    3.0367   -8.4819   20.6246 C   0  0  0  0  0  0  0  0  0  0  0  0
    2.8604   -6.9691   20.5886 C   0  0  0  0  0  0  0  0  0  0  0  0
    7.3987   -6.3286   24.1143 C   0  0  0  0  0  0  0  0  0  0  0  0
    8.7190   -6.0120   23.4478 C   0  0  0  0  0  0  0  0  0  0  0  0
    4.5340   -8.6427   20.8370 C   0  0  0  0  0  0  0  0  0  0  0  0
    3.8475   -6.4853   21.6416 C   0  0  0  0  0  0  0  0  0  0  0  0
    6.3922   -6.0962   23.0094 C   0  0  1  0  0  0  0  0  0  0  0  0
    8.3446   -4.9605   22.4267 C   0  0  1  0  0  0  0  0  0  0  0  0
    8.8810   -1.1900   22.4510 C   0  0  2  0  0  0  0  0  0  0  0  0
    6.7116    0.5212   17.3036 N   0  0  0  0  0  0  0  0  0  0  0  0
    4.9182   -7.4770   21.6194 N   0  0  0  0  0  0  0  0  0  0  0  0
    7.2820   -0.7860   20.6970 N   0  0  0  0  0  0  0  0  0  0  0  0
    8.7221   -2.5829   22.0943 N   0  0  0  0  0  0  0  0  0  0  0  0
    7.0187   -8.2501   22.1916 O   0  0  0  0  0  0  0  0  0  0  0  0
    8.3651   -3.4265   24.2352 O   0  0  0  0  0  0  0  0  0  0  0  0
    8.9170    0.7530   21.0260 O   0  0  0  0  0  0  0  0  0  0  0  0
    6.9650   -5.1531   22.0979 O   0  0  0  0  0  0  0  0  0  0  0  0
   13.8840   -1.8490   21.2740 Cl  0  0  0  0  0  0  0  0  0  0  0  0
    1.5267    1.3276   19.8311 H   0  0  0  0  0  0  0  0  0  0  0  0
    2.5946    0.3257   21.8298 H   0  0  0  0  0  0  0  0  0  0  0  0
   12.2249    1.2198   24.6546 H   0  0  0  0  0  0  0  0  0  0  0  0
    2.8114    1.6119   17.7455 H   0  0  0  0  0  0  0  0  0  0  0  0
    4.9338   -0.3933   21.7630 H   0  0  0  0  0  0  0  0  0  0  0  0
    9.8763    0.5350   24.3454 H   0  0  0  0  0  0  0  0  0  0  0  0
   14.0077    0.1988   23.2842 H   0  0  0  0  0  0  0  0  0  0  0  0
   11.0892   -2.3009   21.3624 H   0  0  0  0  0  0  0  0  0  0  0  0
    5.0078    1.3308   16.4920 H   0  0  0  0  0  0  0  0  0  0  0  0
    8.3038   -0.3142   18.2963 H   0  0  0  0  0  0  0  0  0  0  0  0
    2.4848   -8.9069   21.4713 H   0  0  0  0  0  0  0  0  0  0  0  0
    2.6897   -8.9634   19.7062 H   0  0  0  0  0  0  0  0  0  0  0  0
    3.1374   -6.5800   19.6017 H   0  0  0  0  0  0  0  0  0  0  0  0
    1.8332   -6.6643   20.8068 H   0  0  0  0  0  0  0  0  0  0  0  0
    7.3696   -7.3332   24.5452 H   0  0  0  0  0  0  0  0  0  0  0  0
    7.2175   -5.6094   24.9215 H   0  0  0  0  0  0  0  0  0  0  0  0
    9.4867   -5.6902   24.1579 H   0  0  0  0  0  0  0  0  0  0  0  0
    9.0897   -6.9073   22.9344 H   0  0  0  0  0  0  0  0  0  0  0  0
    4.7983   -9.5676   21.3582 H   0  0  0  0  0  0  0  0  0  0  0  0
    5.0820   -8.6024   19.8891 H   0  0  0  0  0  0  0  0  0  0  0  0
    4.2319   -5.4839   21.4302 H   0  0  0  0  0  0  0  0  0  0  0  0
    3.4021   -6.4956   22.6423 H   0  0  0  0  0  0  0  0  0  0  0  0
    5.4354   -5.7413   23.3802 H   0  0  0  0  0  0  0  0  0  0  0  0
    8.9615   -5.0066   21.5332 H   0  0  0  0  0  0  0  0  0  0  0  0
    8.2436   -1.0112   23.3272 H   0  0  0  0  0  0  0  0  0  0  0  0
    6.8975   -1.6551   21.0614 H   0  0  0  0  0  0  0  0  0  0  0  0
    8.7936   -2.8443   21.1155 H   0  0  0  0  0  0  0  0  0  0  0  0
  1  2  1  0  0  0  0
  1  4  2  0  0  0  0
  2  5  2  0  0  0  0
  3  6  2  0  0  0  0
  3  7  1  0  0  0  0
  4 11  1  0  0  0  0
  5 12  1  0  0  0  0
  6 13  1  0  0  0  0
  7 15  2  0  0  0  0
  8 13  2  0  0  0  0
  8 15  1  0  0  0  0
  9 11  2  0  0  0  0
  9 28  1  0  0  0  0
 10 14  1  0  0  0  0
 10 28  2  0  0  0  0
 11 12  1  0  0  0  0
 12 14  2  0  0  0  0
 13 27  1  0  0  0  0
 14 30  1  0  0  0  0
 15 36  1  0  0  0  0
 16 25  1  0  0  0  0
 16 29  1  0  0  0  0
 16 32  2  0  0  0  0
 17 26  1  0  0  0  0
 17 31  1  0  0  0  0
 17 33  2  0  0  0  0
 18 27  1  6  0  0  0
 18 30  1  0  0  0  0
 18 34  2  0  0  0  0
 19 20  1  0  0  0  0
 19 23  1  0  0  0  0
 20 24  1  0  0  0  0
 21 22  1  0  0  0  0
 21 25  1  0  0  0  0
 22 26  1  0  0  0  0
 23 29  1  0  0  0  0
 24 29  1  0  0  0  0
 25 35  1  0  0  0  0
 26 35  1  0  0  0  0
 27 31  1  0  0  0  0
  1 37  1  0  0  0  0
  2 38  1  0  0  0  0
  3 39  1  0  0  0  0
  4 40  1  0  0  0  0
  5 41  1  0  0  0  0
  6 42  1  0  0  0  0
  7 43  1  0  0  0  0
  8 44  1  0  0  0  0
  9 45  1  0  0  0  0
 10 46  1  0  0  0  0
 19 47  1  0  0  0  0
 19 48  1  0  0  0  0
 20 49  1  0  0  0  0
 20 50  1  0  0  0  0
 21 51  1  0  0  0  0
 21 52  1  0  0  0  0
 22 53  1  0  0  0  0
 22 54  1  0  0  0  0
 23 55  1  0  0  0  0
 23 56  1  0  0  0  0
 24 57  1  0  0  0  0
 24 58  1  0  0  0  0
 25 59  1  0  0  0  0
 26 60  1  0  0  0  0
 27 61  1  0  0  0  0
 30 62  1  0  0  0  0
 31 63  1  0  0  0  0
M  END
> <compound>
MAT-POS-8293a91a-2

> <compound_smiles>
c1ccc2c(c1)cncc2NC(=O)C(c3cccc(c3)Cl)NC(=O)[C@H]4CC[C@@H](O4)C(=O)N5CCCC5

> <enantiomer_smiles>
c1ccc2c(c1)cncc2NC(=O)[C@H](c3cccc(c3)Cl)NC(=O)[C@H]4CC[C@@H](O4)C(=O)N5CCCC5

> <scaffold>
chlorobenzene-linker

> <canonical_CID>
MAT-POS-8293a91a-2

> <r_inhibition_at_20_uM>

> <r_inhibition_at_50_uM>

> <r_avg_IC50>

> <f_inhibition_at_20_uM>

> <f_inhibition_at_50_uM>

> <f_avg_IC50>
2.37556311448805

> <f_avg_pIC50>

> <relative_solubility_at_20_uM>

> <relative_solubility_at_100_uM>

> <trypsin_IC50>

> <NMR_std_ratio>

> <acrylamide>
False

> <chloroacetamide>
False

> <series>
Ugi

> <frag_id>

> <clash_score>
2.846714982246954

> <docking_score>
0.8969085216522217

> <overlap_score>
0.8815630674362183

> <MMFF_internal_energy>
162.64967132725434

> <docked_smiles>
c1ccc2c(c1)cncc2NC(=O)[C@H](c3cccc(c3)Cl)NC(=O)[C@H]4CC[C@@H](O4)C(=O)N5CCCC5

$$$$
BEN-DND-1e24cf73-1_1
  -OEChem-07262101023D

 36 38  0     0  0  0  0  0  0999 V2000
    3.9734    2.2181   23.2907 C   0  0  0  0  0  0  0  0  0  0  0  0
    3.9692    2.9984   22.1346 C   0  0  0  0  0  0  0  0  0  0  0  0
    4.5117    0.9315   23.2618 C   0  0  0  0  0  0  0  0  0  0  0  0
   11.9780    0.4600   23.9150 C   0  0  0  0  0  0  0  0  0  0  0  0
   10.6560    0.0720   23.7350 C   0  0  0  0  0  0  0  0  0  0  0  0
    4.5031    2.4923   20.9495 C   0  0  0  0  0  0  0  0  0  0  0  0
    5.0457    0.4254   22.0768 C   0  0  0  0  0  0  0  0  0  0  0  0
   12.9840   -0.1200   23.1530 C   0  0  0  0  0  0  0  0  0  0  0  0
   11.3360   -1.5050   22.0650 C   0  0  0  0  0  0  0  0  0  0  0  0
    6.7422   -0.3737   18.2516 C   0  0  0  0  0  0  0  0  0  0  0  0
    5.1616    1.0341   18.4760 C   0  0  0  0  0  0  0  0  0  0  0  0
   10.3220   -0.8940   22.7910 C   0  0  0  0  0  0  0  0  0  0  0  0
    5.0414    1.2057   20.9206 C   0  0  0  0  0  0  0  0  0  0  0  0
   12.6400   -1.1000   22.2390 C   0  0  0  0  0  0  0  0  0  0  0  0
    6.5908   -0.2043   19.6076 C   0  0  0  0  0  0  0  0  0  0  0  0
    8.3880   -0.3240   21.3070 C   0  0  0  0  0  0  0  0  0  0  0  0
    8.8810   -1.1900   22.4510 C   0  0  0  0  0  0  0  0  0  0  0  0
    5.8498    0.4001   17.5527 N   0  0  0  0  0  0  0  0  0  0  0  0
    5.5750    0.7007   19.7359 N   0  0  0  0  0  0  0  0  0  0  0  0
    7.2820   -0.7860   20.6970 N   0  0  0  0  0  0  0  0  0  0  0  0
    8.9170    0.7530   21.0260 O   0  0  0  0  0  0  0  0  0  0  0  0
   13.8840   -1.8490   21.2740 Cl  0  0  0  0  0  0  0  0  0  0  0  0
    3.5594    2.6123   24.2140 H   0  0  0  0  0  0  0  0  0  0  0  0
    3.5513    4.0006   22.1572 H   0  0  0  0  0  0  0  0  0  0  0  0
    4.5159    0.3250   24.1629 H   0  0  0  0  0  0  0  0  0  0  0  0
   12.2249    1.2198   24.6546 H   0  0  0  0  0  0  0  0  0  0  0  0
    9.8763    0.5350   24.3454 H   0  0  0  0  0  0  0  0  0  0  0  0
    4.4943    3.1113   20.0557 H   0  0  0  0  0  0  0  0  0  0  0  0
    5.4628   -0.5787   22.0684 H   0  0  0  0  0  0  0  0  0  0  0  0
   14.0077    0.1988   23.2842 H   0  0  0  0  0  0  0  0  0  0  0  0
   11.0892   -2.3009   21.3624 H   0  0  0  0  0  0  0  0  0  0  0  0
    7.4476   -1.0123   17.7390 H   0  0  0  0  0  0  0  0  0  0  0  0
    4.3615    1.7384   18.2889 H   0  0  0  0  0  0  0  0  0  0  0  0
    8.7709   -2.2387   22.1706 H   0  0  0  0  0  0  0  0  0  0  0  0
    8.2491   -1.0157   23.3232 H   0  0  0  0  0  0  0  0  0  0  0  0
    6.8973   -1.6552   21.0612 H   0  0  0  0  0  0  0  0  0  0  0  0
  1  2  1  0  0  0  0
  1  3  2  0  0  0  0
  2  6  2  0  0  0  0
  3  7  1  0  0  0  0
  4  5  2  0  0  0  0
  4  8  1  0  0  0  0
  5 12  1  0  0  0  0
  6 13  1  0  0  0  0
  7 13  2  0  0  0  0
  8 14  2  0  0  0  0
  9 12  2  0  0  0  0
  9 14  1  0  0  0  0
 10 15  2  0  0  0  0
 10 18  1  0  0  0  0
 11 18  2  0  0  0  0
 11 19  1  0  0  0  0
 12 17  1  0  0  0  0
 13 19  1  0  0  0  0
 14 22  1  0  0  0  0
 15 19  1  0  0  0  0
 15 20  1  0  0  0  0
 16 17  1  0  0  0  0
 16 20  1  0  0  0  0
 16 21  2  0  0  0  0
  1 23  1  0  0  0  0
  2 24  1  0  0  0  0
  3 25  1  0  0  0  0
  4 26  1  0  0  0  0
  5 27  1  0  0  0  0
  6 28  1  0  0  0  0
  7 29  1  0  0  0  0
  8 30  1  0  0  0  0
  9 31  1  0  0  0  0
 10 32  1  0  0  0  0
 11 33  1  0  0  0  0
 17 34  1  0  0  0  0
 17 35  1  0  0  0  0
 20 36  1  0  0  0  0
M  END
> <compound>
BEN-DND-1e24cf73-1

> <compound_smiles>
c1ccc(cc1)n2cncc2NC(=O)Cc3cccc(c3)Cl

> <enantiomer_smiles>
c1ccc(cc1)n2cncc2NC(=O)Cc3cccc(c3)Cl

> <scaffold>
chlorobenzene-linker

> <clash_score>
0

> <docking_score>
-8.925228118896484

> <overlap_score>
0.9204748868942261

> <MMFF_internal_energy>
124.96521001682015

> <docked_smiles>
c1ccc(cc1)n2cncc2NC(=O)Cc3cccc(c3)Cl

$$$$
MAT-POS-8293a91a-2_1
  -OEChem-07262101023D

 63 67  0     1  0  0  0  0  0999 V2000
    2.5650    1.0119   19.7905 C   0  0  0  0  0  0  0  0  0  0  0  0
    3.1657    0.4486   20.9140 C   0  0  0  0  0  0  0  0  0  0  0  0
   11.9780    0.4600   23.9150 C   0  0  0  0  0  0  0  0  0  0  0  0
    3.2959    1.1705   18.6133 C   0  0  0  0  0  0  0  0  0  0  0  0
    4.5001    0.0414   20.8653 C   0  0  0  0  0  0  0  0  0  0  0  0
   10.6560    0.0720   23.7350 C   0  0  0  0  0  0  0  0  0  0  0  0
   12.9840   -0.1200   23.1530 C   0  0  0  0  0  0  0  0  0  0  0  0
   11.3360   -1.5050   22.0650 C   0  0  0  0  0  0  0  0  0  0  0  0
    5.4171    0.8995   17.4014 C   0  0  0  0  0  0  0  0  0  0  0  0
    7.2639   -0.0211   18.4097 C   0  0  0  0  0  0  0  0  0  0  0  0
    4.6393    0.7642   18.5530 C   0  0  0  0  0  0  0  0  0  0  0  0
    5.2510    0.1935   19.6882 C   0  0  0  0  0  0  0  0  0  0  0  0
   10.3220   -0.8940   22.7910 C   0  0  0  0  0  0  0  0  0  0  0  0
    6.5904   -0.2048   19.6077 C   0  0  0  0  0  0  0  0  0  0  0  0
   12.6400   -1.1000   22.2390 C   0  0  0  0  0  0  0  0  0  0  0  0
    5.1664   -2.9142   28.3307 C   0  0  0  0  0  0  0  0  0  0  0  0
    7.7880   -1.9599   24.5504 C   0  0  0  0  0  0  0  0  0  0  0  0
    8.3880   -0.3240   21.3070 C   0  0  0  0  0  0  0  0  0  0  0  0
    2.4570   -4.5620   30.1922 C   0  0  0  0  0  0  0  0  0  0  0  0
    2.4409   -5.3580   28.8932 C   0  0  0  0  0  0  0  0  0  0  0  0
    4.6146   -1.5981   26.2952 C   0  0  0  0  0  0  0  0  0  0  0  0
    5.5010   -1.1859   25.1466 C   0  0  0  0  0  0  0  0  0  0  0  0
    3.8333   -3.9151   30.1750 C   0  0  0  0  0  0  0  0  0  0  0  0
    3.1796   -4.4452   27.9245 C   0  0  0  0  0  0  0  0  0  0  0  0
    5.3332   -2.8155   26.8335 C   0  0  1  0  0  0  0  0  0  0  0  0
    6.8805   -1.5160   25.6721 C   0  0  1  0  0  0  0  0  0  0  0  0
    8.8810   -1.1900   22.4510 C   0  0  1  0  0  0  0  0  0  0  0  0
    6.7116    0.5212   17.3036 N   0  0  0  0  0  0  0  0  0  0  0  0
    4.1226   -3.7118   28.7631 N   0  0  0  0  0  0  0  0  0  0  0  0
    7.2820   -0.7860   20.6970 N   0  0  0  0  0  0  0  0  0  0  0  0
    8.0374   -0.9810   23.6076 N   0  0  0  0  0  0  0  0  0  0  0  0
    5.9332   -2.3134   29.0850 O   0  0  0  0  0  0  0  0  0  0  0  0
    8.2274   -3.1039   24.5455 O   0  0  0  0  0  0  0  0  0  0  0  0
    8.9170    0.7530   21.0260 O   0  0  0  0  0  0  0  0  0  0  0  0
    6.7292   -2.6256   26.5675 O   0  0  0  0  0  0  0  0  0  0  0  0
   13.8840   -1.8490   21.2740 Cl  0  0  0  0  0  0  0  0  0  0  0  0
    1.5267    1.3276   19.8311 H   0  0  0  0  0  0  0  0  0  0  0  0
    2.5946    0.3257   21.8298 H   0  0  0  0  0  0  0  0  0  0  0  0
   12.2249    1.2198   24.6546 H   0  0  0  0  0  0  0  0  0  0  0  0
    2.8114    1.6119   17.7455 H   0  0  0  0  0  0  0  0  0  0  0  0
    4.9338   -0.3933   21.7630 H   0  0  0  0  0  0  0  0  0  0  0  0
    9.8763    0.5350   24.3454 H   0  0  0  0  0  0  0  0  0  0  0  0
   14.0077    0.1988   23.2842 H   0  0  0  0  0  0  0  0  0  0  0  0
   11.0892   -2.3008   21.3624 H   0  0  0  0  0  0  0  0  0  0  0  0
    5.0078    1.3308   16.4920 H   0  0  0  0  0  0  0  0  0  0  0  0
    8.3038   -0.3142   18.2963 H   0  0  0  0  0  0  0  0  0  0  0  0
    1.6754   -3.7935   30.1745 H   0  0  0  0  0  0  0  0  0  0  0  0
    2.3027   -5.1952   31.0703 H   0  0  0  0  0  0  0  0  0  0  0  0
    2.9886   -6.2992   29.0202 H   0  0  0  0  0  0  0  0  0  0  0  0
    1.4256   -5.5887   28.5590 H   0  0  0  0  0  0  0  0  0  0  0  0
    4.4655   -0.8043   27.0273 H   0  0  0  0  0  0  0  0  0  0  0  0
    3.6368   -1.9012   25.9110 H   0  0  0  0  0  0  0  0  0  0  0  0
    5.2492   -1.6875   24.2113 H   0  0  0  0  0  0  0  0  0  0  0  0
    5.4169   -0.1064   24.9910 H   0  0  0  0  0  0  0  0  0  0  0  0
    3.8710   -2.9683   30.7219 H   0  0  0  0  0  0  0  0  0  0  0  0
    4.5993   -4.5867   30.5781 H   0  0  0  0  0  0  0  0  0  0  0  0
    3.6983   -4.9983   27.1369 H   0  0  0  0  0  0  0  0  0  0  0  0
    2.5024   -3.7167   27.4658 H   0  0  0  0  0  0  0  0  0  0  0  0
    4.9818   -3.7410   26.3898 H   0  0  0  0  0  0  0  0  0  0  0  0
    7.3455   -0.6772   26.1816 H   0  0  0  0  0  0  0  0  0  0  0  0
    8.7711   -2.2448   22.1651 H   0  0  0  0  0  0  0  0  0  0  0  0
    6.8975   -1.6551   21.0614 H   0  0  0  0  0  0  0  0  0  0  0  0
    7.6084   -0.0689   23.7325 H   0  0  0  0  0  0  0  0  0  0  0  0
  1  2  1  0  0  0  0
  1  4  2  0  0  0  0
  2  5  2  0  0  0  0
  3  6  2  0  0  0  0
  3  7  1  0  0  0  0
  4 11  1  0  0  0  0
  5 12  1  0  0  0  0
  6 13  1  0  0  0  0
  7 15  2  0  0  0  0
  8 13  2  0  0  0  0
  8 15  1  0  0  0  0
  9 11  2  0  0  0  0
  9 28  1  0  0  0  0
 10 14  1  0  0  0  0
 10 28  2  0  0  0  0
 11 12  1  0  0  0  0
 12 14  2  0  0  0  0
 13 27  1  0  0  0  0
 14 30  1  0  0  0  0
 15 36  1  0  0  0  0
 16 25  1  0  0  0  0
 16 29  1  0  0  0  0
 16 32  2  0  0  0  0
 17 26  1  0  0  0  0
 17 31  1  0  0  0  0
 17 33  2  0  0  0  0
 18 27  1  1  0  0  0
 18 30  1  0  0  0  0
 18 34  2  0  0  0  0
 19 20  1  0  0  0  0
 19 23  1  0  0  0  0
 20 24  1  0  0  0  0
 21 22  1  0  0  0  0
 21 25  1  0  0  0  0
 22 26  1  0  0  0  0
 23 29  1  0  0  0  0
 24 29  1  0  0  0  0
 25 35  1  0  0  0  0
 26 35  1  0  0  0  0
 27 31  1  0  0  0  0
  1 37  1  0  0  0  0
  2 38  1  0  0  0  0
  3 39  1  0  0  0  0
  4 40  1  0  0  0  0
  5 41  1  0  0  0  0
  6 42  1  0  0  0  0
  7 43  1  0  0  0  0
  8 44  1  0  0  0  0
  9 45  1  0  0  0  0
 10 46  1  0  0  0  0
 19 47  1  0  0  0  0
 19 48  1  0  0  0  0
 20 49  1  0  0  0  0
 20 50  1  0  0  0  0
 21 51  1  0  0  0  0
 21 52  1  0  0  0  0
 22 53  1  0  0  0  0
 22 54  1  0  0  0  0
 23 55  1  0  0  0  0
 23 56  1  0  0  0  0
 24 57  1  0  0  0  0
 24 58  1  0  0  0  0
 25 59  1  0  0  0  0
 26 60  1  0  0  0  0
 27 61  1  0  0  0  0
 30 62  1  0  0  0  0
 31 63  1  0  0  0  0
M  END
> <compound>
MAT-POS-8293a91a-2

> <compound_smiles>
c1ccc2c(c1)cncc2NC(=O)C(c3cccc(c3)Cl)NC(=O)[C@H]4CC[C@@H](O4)C(=O)N5CCCC5

> <enantiomer_smiles>
c1ccc2c(c1)cncc2NC(=O)[C@@H](c3cccc(c3)Cl)NC(=O)[C@H]4CC[C@@H](O4)C(=O)N5CCCC5

> <scaffold>
chlorobenzene-linker

> <canonical_CID>
MAT-POS-8293a91a-2

> <r_inhibition_at_20_uM>

> <r_inhibition_at_50_uM>

> <r_avg_IC50>

> <f_inhibition_at_20_uM>

> <f_inhibition_at_50_uM>

> <f_avg_IC50>
2.37556311448805

> <f_avg_pIC50>

> <relative_solubility_at_20_uM>

> <relative_solubility_at_100_uM>

> <trypsin_IC50>

> <NMR_std_ratio>

> <acrylamide>
False

> <chloroacetamide>
False

> <series>
Ugi

> <frag_id>

> <clash_score>
0.7641212419619643

> <docking_score>
-3.212636709213257

> <overlap_score>
0.8812681436538696

> <MMFF_internal_energy>
175.30669752550648

> <docked_smiles>
c1ccc2c(c1)cncc2NC(=O)[C@@H](c3cccc(c3)Cl)NC(=O)[C@H]4CC[C@@H](O4)C(=O)N5CCCC5

$$$$
EDJ-MED-6e43a462-12_1
  -OEChem-07262101023D

 38 40  0     0  0  0  0  0  0999 V2000
   11.9780    0.4600   23.9150 C   0  0  0  0  0  0  0  0  0  0  0  0
   10.6560    0.0720   23.7350 C   0  0  0  0  0  0  0  0  0  0  0  0
   12.9840   -0.1200   23.1530 C   0  0  0  0  0  0  0  0  0  0  0  0
   11.3360   -1.5050   22.0650 C   0  0  0  0  0  0  0  0  0  0  0  0
    5.4910   -0.3880   18.9879 C   0  0  0  0  0  0  0  0  0  0  0  0
   10.3220   -0.8940   22.7910 C   0  0  0  0  0  0  0  0  0  0  0  0
   12.6400   -1.1000   22.2390 C   0  0  0  0  0  0  0  0  0  0  0  0
    6.2597    0.0083   20.0509 C   0  0  0  0  0  0  0  0  0  0  0  0
    4.8843    1.6676   19.5265 C   0  0  0  0  0  0  0  0  0  0  0  0
    4.2606    3.0130   19.6334 C   0  0  0  0  0  0  0  0  0  0  0  0
    4.7394    3.8033   20.6108 C   0  0  0  0  0  0  0  0  0  0  0  0
    6.3535    2.1065   21.3706 C   0  0  0  0  0  0  0  0  0  0  0  0
    5.8094    3.3350   21.4961 C   0  0  0  0  0  0  0  0  0  0  0  0
    8.3880   -0.3240   21.3070 C   0  0  0  0  0  0  0  0  0  0  0  0
    7.5883    4.1810   22.9269 C   0  0  0  0  0  0  0  0  0  0  0  0
    8.8810   -1.1900   22.4510 C   0  0  0  0  0  0  0  0  0  0  0  0
    5.8657    1.2914   20.3698 N   0  0  0  0  0  0  0  0  0  0  0  0
    4.6501    0.6574   18.6852 N   0  3  0  0  0  0  0  0  0  0  0  0
    7.2820   -0.7860   20.6970 N   0  0  0  0  0  0  0  0  0  0  0  0
    6.2327    4.2128   22.4598 N   0  0  0  0  0  0  0  0  0  0  0  0
    8.9170    0.7530   21.0260 O   0  0  0  0  0  0  0  0  0  0  0  0
   13.8840   -1.8490   21.2740 Cl  0  0  0  0  0  0  0  0  0  0  0  0
   12.2249    1.2198   24.6546 H   0  0  0  0  0  0  0  0  0  0  0  0
    9.8763    0.5350   24.3454 H   0  0  0  0  0  0  0  0  0  0  0  0
   14.0077    0.1988   23.2842 H   0  0  0  0  0  0  0  0  0  0  0  0
   11.0892   -2.3009   21.3624 H   0  0  0  0  0  0  0  0  0  0  0  0
    5.4125   -1.2721   18.3863 H   0  0  0  0  0  0  0  0  0  0  0  0
    3.4728    3.3148   18.9565 H   0  0  0  0  0  0  0  0  0  0  0  0
    4.3345    4.7998   20.7541 H   0  0  0  0  0  0  0  0  0  0  0  0
    7.1449    1.7241   22.0035 H   0  0  0  0  0  0  0  0  0  0  0  0
    8.1398    3.3886   22.3998 H   0  0  0  0  0  0  0  0  0  0  0  0
    8.0661    5.1523   22.7315 H   0  0  0  0  0  0  0  0  0  0  0  0
    7.5988    3.9781   24.0079 H   0  0  0  0  0  0  0  0  0  0  0  0
    8.7775   -2.2383   22.1732 H   0  0  0  0  0  0  0  0  0  0  0  0
    8.2557   -1.0153   23.3257 H   0  0  0  0  0  0  0  0  0  0  0  0
    3.9590    0.6593   17.9400 H   0  0  0  0  0  0  0  0  0  0  0  0
    7.1527   -1.7824   20.6892 H   0  0  0  0  0  0  0  0  0  0  0  0
    5.5599    4.8524   22.8019 H   0  0  0  0  0  0  0  0  0  0  0  0
  1  2  2  0  0  0  0
  1  3  1  0  0  0  0
  2  6  1  0  0  0  0
  3  7  2  0  0  0  0
  4  6  2  0  0  0  0
  4  7  1  0  0  0  0
  5  8  2  0  0  0  0
  5 18  1  0  0  0  0
  6 16  1  0  0  0  0
  7 22  1  0  0  0  0
  8 17  1  0  0  0  0
  8 19  1  0  0  0  0
  9 10  1  0  0  0  0
  9 17  1  0  0  0  0
  9 18  2  0  0  0  0
 10 11  2  0  0  0  0
 11 13  1  0  0  0  0
 12 13  2  0  0  0  0
 12 17  1  0  0  0  0
 13 20  1  0  0  0  0
 14 16  1  0  0  0  0
 14 19  1  0  0  0  0
 14 21  2  0  0  0  0
 15 20  1  0  0  0  0
  1 23  1  0  0  0  0
  2 24  1  0  0  0  0
  3 25  1  0  0  0  0
  4 26  1  0  0  0  0
  5 27  1  0  0  0  0
 10 28  1  0  0  0  0
 11 29  1  0  0  0  0
 12 30  1  0  0  0  0
 15 31  1  0  0  0  0
 15 32  1  0  0  0  0
 15 33  1  0  0  0  0
 16 34  1  0  0  0  0
 16 35  1  0  0  0  0
 18 36  1  0  0  0  0
 19 37  1  0  0  0  0
 20 38  1  0  0  0  0
M  CHG  1  18   1
M  END
> <compound>
EDJ-MED-6e43a462-12

> <compound_smiles>
CNc1ccc2ncc(n2c1)NC(=O)Cc3cccc(c3)Cl

> <enantiomer_smiles>
CNc1ccc2ncc(n2c1)NC(=O)Cc3cccc(c3)Cl

> <scaffold>
chlorobenzene-linker

> <clash_score>
0

> <docking_score>
-6.2273712158203125

> <overlap_score>
0.8040006756782532

> <MMFF_internal_energy>
56.53939203677047

> <docked_smiles>
CNc1ccc2[nH+]cc(n2c1)NC(=O)Cc3cccc(c3)Cl

$$$$
MAT-POS-8293a91a-6_2
  -OEChem-07262101023D

 63 67  0     1  0  0  0  0  0999 V2000
    2.5650    1.0119   19.7905 C   0  0  0  0  0  0  0  0  0  0  0  0
    3.1657    0.4486   20.9139 C   0  0  0  0  0  0  0  0  0  0  0  0
   11.9780    0.4600   23.9150 C   0  0  0  0  0  0  0  0  0  0  0  0
    3.2959    1.1705   18.6133 C   0  0  0  0  0  0  0  0  0  0  0  0
    4.5001    0.0414   20.8653 C   0  0  0  0  0  0  0  0  0  0  0  0
   10.6560    0.0720   23.7350 C   0  0  0  0  0  0  0  0  0  0  0  0
   12.9840   -0.1200   23.1530 C   0  0  0  0  0  0  0  0  0  0  0  0
   11.3360   -1.5050   22.0650 C   0  0  0  0  0  0  0  0  0  0  0  0
    5.4171    0.8995   17.4014 C   0  0  0  0  0  0  0  0  0  0  0  0
    7.2639   -0.0211   18.4097 C   0  0  0  0  0  0  0  0  0  0  0  0
    4.6393    0.7642   18.5530 C   0  0  0  0  0  0  0  0  0  0  0  0
    5.2510    0.1935   19.6882 C   0  0  0  0  0  0  0  0  0  0  0  0
   10.3220   -0.8940   22.7910 C   0  0  0  0  0  0  0  0  0  0  0  0
    6.5904   -0.2048   19.6077 C   0  0  0  0  0  0  0  0  0  0  0  0
   12.6400   -1.1000   22.2390 C   0  0  0  0  0  0  0  0  0  0  0  0
   10.2731   -7.4094   21.5405 C   0  0  0  0  0  0  0  0  0  0  0  0
    8.4779   -3.5757   23.0238 C   0  0  0  0  0  0  0  0  0  0  0  0
    8.3880   -0.3240   21.3070 C   0  0  0  0  0  0  0  0  0  0  0  0
   12.4000   -8.1371   18.6306 C   0  0  0  0  0  0  0  0  0  0  0  0
   13.3139   -7.2209   19.4347 C   0  0  0  0  0  0  0  0  0  0  0  0
    9.6286   -6.4356   23.7550 C   0  0  0  0  0  0  0  0  0  0  0  0
    8.1990   -6.0195   23.4892 C   0  0  0  0  0  0  0  0  0  0  0  0
   11.3911   -8.6036   19.6686 C   0  0  0  0  0  0  0  0  0  0  0  0
   12.3477   -6.5163   20.3766 C   0  0  0  0  0  0  0  0  0  0  0  0
   10.3070   -6.2011   22.4212 C   0  0  2  0  0  0  0  0  0  0  0  0
    8.3463   -4.9436   22.4335 C   0  0  2  0  0  0  0  0  0  0  0  0
    8.8810   -1.1900   22.4510 C   0  0  2  0  0  0  0  0  0  0  0  0
    6.7116    0.5212   17.3036 N   0  0  0  0  0  0  0  0  0  0  0  0
   11.2807   -7.4876   20.5965 N   0  0  0  0  0  0  0  0  0  0  0  0
    7.2820   -0.7860   20.6970 N   0  0  0  0  0  0  0  0  0  0  0  0
    8.7221   -2.5829   22.0943 N   0  0  0  0  0  0  0  0  0  0  0  0
    9.3928   -8.2598   21.6814 O   0  0  0  0  0  0  0  0  0  0  0  0
    8.3651   -3.4270   24.2350 O   0  0  0  0  0  0  0  0  0  0  0  0
    8.9170    0.7530   21.0260 O   0  0  0  0  0  0  0  0  0  0  0  0
    9.5675   -5.1903   21.7328 O   0  0  0  0  0  0  0  0  0  0  0  0
   13.8840   -1.8490   21.2740 Cl  0  0  0  0  0  0  0  0  0  0  0  0
    1.5267    1.3276   19.8311 H   0  0  0  0  0  0  0  0  0  0  0  0
    2.5946    0.3257   21.8298 H   0  0  0  0  0  0  0  0  0  0  0  0
   12.2249    1.2198   24.6546 H   0  0  0  0  0  0  0  0  0  0  0  0
    2.8114    1.6120   17.7455 H   0  0  0  0  0  0  0  0  0  0  0  0
    4.9338   -0.3933   21.7630 H   0  0  0  0  0  0  0  0  0  0  0  0
    9.8763    0.5350   24.3454 H   0  0  0  0  0  0  0  0  0  0  0  0
   14.0077    0.1988   23.2842 H   0  0  0  0  0  0  0  0  0  0  0  0
   11.0892   -2.3009   21.3624 H   0  0  0  0  0  0  0  0  0  0  0  0
    5.0078    1.3308   16.4920 H   0  0  0  0  0  0  0  0  0  0  0  0
    8.3038   -0.3142   18.2963 H   0  0  0  0  0  0  0  0  0  0  0  0
   11.8965   -7.5692   17.8394 H   0  0  0  0  0  0  0  0  0  0  0  0
   12.9430   -8.9676   18.1712 H   0  0  0  0  0  0  0  0  0  0  0  0
   14.0360   -7.8153   20.0068 H   0  0  0  0  0  0  0  0  0  0  0  0
   13.8646   -6.5210   18.8001 H   0  0  0  0  0  0  0  0  0  0  0  0
   10.0688   -5.7664   24.5032 H   0  0  0  0  0  0  0  0  0  0  0  0
    9.7119   -7.4602   24.1277 H   0  0  0  0  0  0  0  0  0  0  0  0
    7.6457   -6.8695   23.0722 H   0  0  0  0  0  0  0  0  0  0  0  0
    7.6773   -5.6894   24.3925 H   0  0  0  0  0  0  0  0  0  0  0  0
   10.4161   -8.8532   19.2398 H   0  0  0  0  0  0  0  0  0  0  0  0
   11.7617   -9.4680   20.2306 H   0  0  0  0  0  0  0  0  0  0  0  0
   12.8167   -6.2241   21.3200 H   0  0  0  0  0  0  0  0  0  0  0  0
   11.9040   -5.6320   19.9067 H   0  0  0  0  0  0  0  0  0  0  0  0
   11.3489   -5.8888   22.5289 H   0  0  0  0  0  0  0  0  0  0  0  0
    7.5120   -4.9342   21.7259 H   0  0  0  0  0  0  0  0  0  0  0  0
    8.2436   -1.0112   23.3272 H   0  0  0  0  0  0  0  0  0  0  0  0
    6.8975   -1.6551   21.0614 H   0  0  0  0  0  0  0  0  0  0  0  0
    8.7943   -2.8441   21.1155 H   0  0  0  0  0  0  0  0  0  0  0  0
  1  2  1  0  0  0  0
  1  4  2  0  0  0  0
  2  5  2  0  0  0  0
  3  6  2  0  0  0  0
  3  7  1  0  0  0  0
  4 11  1  0  0  0  0
  5 12  1  0  0  0  0
  6 13  1  0  0  0  0
  7 15  2  0  0  0  0
  8 13  2  0  0  0  0
  8 15  1  0  0  0  0
  9 11  2  0  0  0  0
  9 28  1  0  0  0  0
 10 14  1  0  0  0  0
 10 28  2  0  0  0  0
 11 12  1  0  0  0  0
 12 14  2  0  0  0  0
 13 27  1  0  0  0  0
 14 30  1  0  0  0  0
 15 36  1  0  0  0  0
 16 25  1  0  0  0  0
 16 29  1  0  0  0  0
 16 32  2  0  0  0  0
 17 26  1  0  0  0  0
 17 31  1  0  0  0  0
 17 33  2  0  0  0  0
 18 27  1  6  0  0  0
 18 30  1  0  0  0  0
 18 34  2  0  0  0  0
 19 20  1  0  0  0  0
 19 23  1  0  0  0  0
 20 24  1  0  0  0  0
 21 22  1  0  0  0  0
 21 25  1  0  0  0  0
 22 26  1  0  0  0  0
 23 29  1  0  0  0  0
 24 29  1  0  0  0  0
 25 35  1  0  0  0  0
 26 35  1  0  0  0  0
 27 31  1  0  0  0  0
  1 37  1  0  0  0  0
  2 38  1  0  0  0  0
  3 39  1  0  0  0  0
  4 40  1  0  0  0  0
  5 41  1  0  0  0  0
  6 42  1  0  0  0  0
  7 43  1  0  0  0  0
  8 44  1  0  0  0  0
  9 45  1  0  0  0  0
 10 46  1  0  0  0  0
 19 47  1  0  0  0  0
 19 48  1  0  0  0  0
 20 49  1  0  0  0  0
 20 50  1  0  0  0  0
 21 51  1  0  0  0  0
 21 52  1  0  0  0  0
 22 53  1  0  0  0  0
 22 54  1  0  0  0  0
 23 55  1  0  0  0  0
 23 56  1  0  0  0  0
 24 57  1  0  0  0  0
 24 58  1  0  0  0  0
 25 59  1  0  0  0  0
 26 60  1  0  0  0  0
 27 61  1  0  0  0  0
 30 62  1  0  0  0  0
 31 63  1  0  0  0  0
M  END
> <compound>
MAT-POS-8293a91a-6

> <compound_smiles>
c1ccc2c(c1)cncc2NC(=O)C(c3cccc(c3)Cl)NC(=O)[C@@H]4CC[C@H](O4)C(=O)N5CCCC5

> <enantiomer_smiles>
c1ccc2c(c1)cncc2NC(=O)[C@H](c3cccc(c3)Cl)NC(=O)[C@@H]4CC[C@H](O4)C(=O)N5CCCC5

> <scaffold>
chlorobenzene-linker

> <canonical_CID>
MAT-POS-8293a91a-6

> <r_inhibition_at_20_uM>

> <r_inhibition_at_50_uM>

> <r_avg_IC50>

> <f_inhibition_at_20_uM>

> <f_inhibition_at_50_uM>

> <f_avg_IC50>
4.48414378133439

> <f_avg_pIC50>

> <relative_solubility_at_20_uM>

> <relative_solubility_at_100_uM>

> <trypsin_IC50>

> <NMR_std_ratio>

> <acrylamide>
False

> <chloroacetamide>
False

> <series>
Ugi

> <frag_id>

> <clash_score>
10.312025631625408

> <docking_score>
4.351085186004639

> <overlap_score>
0.8815231323242188

> <MMFF_internal_energy>
161.37627149295994

> <docked_smiles>
c1ccc2c(c1)cncc2NC(=O)[C@H](c3cccc(c3)Cl)NC(=O)[C@@H]4CC[C@H](O4)C(=O)N5CCCC5

$$$$
EDJ-MED-6e43a462-11_1
  -OEChem-07262101023D

 37 39  0     0  0  0  0  0  0999 V2000
   11.9780    0.4600   23.9150 C   0  0  0  0  0  0  0  0  0  0  0  0
   10.6560    0.0720   23.7350 C   0  0  0  0  0  0  0  0  0  0  0  0
   12.9840   -0.1200   23.1530 C   0  0  0  0  0  0  0  0  0  0  0  0
   11.3360   -1.5050   22.0650 C   0  0  0  0  0  0  0  0  0  0  0  0
    5.4891   -0.3816   18.9909 C   0  0  0  0  0  0  0  0  0  0  0  0
   10.3220   -0.8940   22.7910 C   0  0  0  0  0  0  0  0  0  0  0  0
   12.6400   -1.1000   22.2390 C   0  0  0  0  0  0  0  0  0  0  0  0
    6.2601    0.0068   20.0511 C   0  0  0  0  0  0  0  0  0  0  0  0
    4.8894    1.6752   19.5485 C   0  0  0  0  0  0  0  0  0  0  0  0
    8.3880   -0.3240   21.3070 C   0  0  0  0  0  0  0  0  0  0  0  0
    4.2117    2.9954   19.6212 C   0  0  0  0  0  0  0  0  0  0  0  0
    4.9609    3.9876   20.5045 C   0  0  0  0  0  0  0  0  0  0  0  0
    5.4772    3.2964   21.7710 C   0  0  0  0  0  0  0  0  0  0  0  0
    6.4257    2.1429   21.4312 C   0  0  0  0  0  0  0  0  0  0  0  0
    8.8810   -1.1900   22.4510 C   0  0  0  0  0  0  0  0  0  0  0  0
    5.8692    1.2887   20.3848 N   0  0  0  0  0  0  0  0  0  0  0  0
    4.6525    0.6676   18.7016 N   0  3  0  0  0  0  0  0  0  0  0  0
    7.2820   -0.7860   20.6970 N   0  0  0  0  0  0  0  0  0  0  0  0
    8.9170    0.7530   21.0260 O   0  0  0  0  0  0  0  0  0  0  0  0
   13.8840   -1.8490   21.2740 Cl  0  0  0  0  0  0  0  0  0  0  0  0
   12.2249    1.2198   24.6546 H   0  0  0  0  0  0  0  0  0  0  0  0
    9.8763    0.5350   24.3454 H   0  0  0  0  0  0  0  0  0  0  0  0
   14.0077    0.1988   23.2842 H   0  0  0  0  0  0  0  0  0  0  0  0
   11.0892   -2.3009   21.3624 H   0  0  0  0  0  0  0  0  0  0  0  0
    5.4034   -1.2627   18.3862 H   0  0  0  0  0  0  0  0  0  0  0  0
    4.1660    3.3472   18.5860 H   0  0  0  0  0  0  0  0  0  0  0  0
    3.1977    2.8147   19.9872 H   0  0  0  0  0  0  0  0  0  0  0  0
    5.7885    4.4375   19.9458 H   0  0  0  0  0  0  0  0  0  0  0  0
    4.2834    4.7996   20.7948 H   0  0  0  0  0  0  0  0  0  0  0  0
    6.0076    4.0317   22.3885 H   0  0  0  0  0  0  0  0  0  0  0  0
    4.6368    2.9197   22.3640 H   0  0  0  0  0  0  0  0  0  0  0  0
    7.3921    2.5364   21.0997 H   0  0  0  0  0  0  0  0  0  0  0  0
    6.5898    1.5140   22.3141 H   0  0  0  0  0  0  0  0  0  0  0  0
    8.7774   -2.2383   22.1732 H   0  0  0  0  0  0  0  0  0  0  0  0
    8.2557   -1.0153   23.3257 H   0  0  0  0  0  0  0  0  0  0  0  0
    3.9608    0.6800   17.9571 H   0  0  0  0  0  0  0  0  0  0  0  0
    7.1529   -1.7829   20.6894 H   0  0  0  0  0  0  0  0  0  0  0  0
  1  2  1  0  0  0  0
  1  3  2  0  0  0  0
  2  6  2  0  0  0  0
  3  7  1  0  0  0  0
  4  6  1  0  0  0  0
  4  7  2  0  0  0  0
  5  8  2  0  0  0  0
  5 17  1  0  0  0  0
  6 15  1  0  0  0  0
  7 20  1  0  0  0  0
  8 16  1  0  0  0  0
  8 18  1  0  0  0  0
  9 11  1  0  0  0  0
  9 16  1  0  0  0  0
  9 17  2  0  0  0  0
 10 15  1  0  0  0  0
 10 18  1  0  0  0  0
 10 19  2  0  0  0  0
 11 12  1  0  0  0  0
 12 13  1  0  0  0  0
 13 14  1  0  0  0  0
 14 16  1  0  0  0  0
  1 21  1  0  0  0  0
  2 22  1  0  0  0  0
  3 23  1  0  0  0  0
  4 24  1  0  0  0  0
  5 25  1  0  0  0  0
 11 26  1  0  0  0  0
 11 27  1  0  0  0  0
 12 28  1  0  0  0  0
 12 29  1  0  0  0  0
 13 30  1  0  0  0  0
 13 31  1  0  0  0  0
 14 32  1  0  0  0  0
 14 33  1  0  0  0  0
 15 34  1  0  0  0  0
 15 35  1  0  0  0  0
 17 36  1  0  0  0  0
 18 37  1  0  0  0  0
M  CHG  1  17   1
M  END
> <compound>
EDJ-MED-6e43a462-11

> <compound_smiles>
c1cc(cc(c1)Cl)CC(=O)Nc2cnc3n2CCCC3

> <enantiomer_smiles>
c1cc(cc(c1)Cl)CC(=O)Nc2cnc3n2CCCC3

> <scaffold>
chlorobenzene-linker

> <clash_score>
0.6156378819523681

> <docking_score>
-6.209263801574707

> <overlap_score>
0.8059618473052979

> <MMFF_internal_energy>
27.777213372815194

> <docked_smiles>
c1cc(cc(c1)Cl)CC(=O)Nc2c[nH+]c3n2CCCC3

$$$$
BEN-DND-1e24cf73-2_1
  -OEChem-07262101023D

 39 41  0     0  0  0  0  0  0999 V2000
    7.5631    3.5763   23.4718 C   0  0  0  0  0  0  0  0  0  0  0  0
    7.6133    4.0110   22.1474 C   0  0  0  0  0  0  0  0  0  0  0  0
   11.9780    0.4600   23.9150 C   0  0  0  0  0  0  0  0  0  0  0  0
    6.9616    2.3569   23.7833 C   0  0  0  0  0  0  0  0  0  0  0  0
   10.6560    0.0720   23.7350 C   0  0  0  0  0  0  0  0  0  0  0  0
    7.0619    3.2265   21.1345 C   0  0  0  0  0  0  0  0  0  0  0  0
   12.9840   -0.1200   23.1530 C   0  0  0  0  0  0  0  0  0  0  0  0
   11.3360   -1.5050   22.0650 C   0  0  0  0  0  0  0  0  0  0  0  0
    5.4469   -0.3399   19.0015 C   0  0  0  0  0  0  0  0  0  0  0  0
    4.9113    1.6373   19.5796 C   0  0  0  0  0  0  0  0  0  0  0  0
   10.3220   -0.8940   22.7910 C   0  0  0  0  0  0  0  0  0  0  0  0
    6.4103    1.5723   22.7704 C   0  0  0  0  0  0  0  0  0  0  0  0
    6.4604    2.0071   21.4460 C   0  0  0  0  0  0  0  0  0  0  0  0
   12.6400   -1.1000   22.2390 C   0  0  0  0  0  0  0  0  0  0  0  0
    6.2693   -0.0307   20.0591 C   0  0  0  0  0  0  0  0  0  0  0  0
    8.3880   -0.3240   21.3070 C   0  0  0  0  0  0  0  0  0  0  0  0
    5.7726    0.2709   23.1374 C   0  0  0  0  0  0  0  0  0  0  0  0
    8.8810   -1.1900   22.4510 C   0  0  0  0  0  0  0  0  0  0  0  0
    4.6041    0.7027   18.7077 N   0  0  0  0  0  0  0  0  0  0  0  0
    5.9148    1.2391   20.4184 N   0  0  0  0  0  0  0  0  0  0  0  0
    7.2820   -0.7860   20.6970 N   0  0  0  0  0  0  0  0  0  0  0  0
    8.9170    0.7530   21.0260 O   0  0  0  0  0  0  0  0  0  0  0  0
   13.8840   -1.8490   21.2740 Cl  0  0  0  0  0  0  0  0  0  0  0  0
    7.9929    4.1870   24.2605 H   0  0  0  0  0  0  0  0  0  0  0  0
    8.0814    4.9606   21.9049 H   0  0  0  0  0  0  0  0  0  0  0  0
   12.2249    1.2198   24.6546 H   0  0  0  0  0  0  0  0  0  0  0  0
    6.9276    2.0277   24.8185 H   0  0  0  0  0  0  0  0  0  0  0  0
    9.8763    0.5350   24.3454 H   0  0  0  0  0  0  0  0  0  0  0  0
    7.1090    3.5800   20.1073 H   0  0  0  0  0  0  0  0  0  0  0  0
   14.0077    0.1988   23.2842 H   0  0  0  0  0  0  0  0  0  0  0  0
   11.0892   -2.3009   21.3624 H   0  0  0  0  0  0  0  0  0  0  0  0
    5.4160   -1.2590   18.4336 H   0  0  0  0  0  0  0  0  0  0  0  0
    4.4431    2.6107   19.6465 H   0  0  0  0  0  0  0  0  0  0  0  0
    4.7085    0.4183   23.3525 H   0  0  0  0  0  0  0  0  0  0  0  0
    5.8686   -0.4589   22.3248 H   0  0  0  0  0  0  0  0  0  0  0  0
    6.2517   -0.1682   24.0207 H   0  0  0  0  0  0  0  0  0  0  0  0
    8.7709   -2.2387   22.1706 H   0  0  0  0  0  0  0  0  0  0  0  0
    8.2491   -1.0157   23.3232 H   0  0  0  0  0  0  0  0  0  0  0  0
    7.1590   -1.7964   20.6938 H   0  0  0  0  0  0  0  0  0  0  0  0
  1  2  1  0  0  0  0
  1  4  2  0  0  0  0
  2  6  2  0  0  0  0
  3  5  2  0  0  0  0
  3  7  1  0  0  0  0
  4 12  1  0  0  0  0
  5 11  1  0  0  0  0
  6 13  1  0  0  0  0
  7 14  2  0  0  0  0
  8 11  2  0  0  0  0
  8 14  1  0  0  0  0
  9 15  2  0  0  0  0
  9 19  1  0  0  0  0
 10 19  2  0  0  0  0
 10 20  1  0  0  0  0
 11 18  1  0  0  0  0
 12 13  2  0  0  0  0
 12 17  1  0  0  0  0
 13 20  1  0  0  0  0
 14 23  1  0  0  0  0
 15 20  1  0  0  0  0
 15 21  1  0  0  0  0
 16 18  1  0  0  0  0
 16 21  1  0  0  0  0
 16 22  2  0  0  0  0
  1 24  1  0  0  0  0
  2 25  1  0  0  0  0
  3 26  1  0  0  0  0
  4 27  1  0  0  0  0
  5 28  1  0  0  0  0
  6 29  1  0  0  0  0
  7 30  1  0  0  0  0
  8 31  1  0  0  0  0
  9 32  1  0  0  0  0
 10 33  1  0  0  0  0
 17 34  1  0  0  0  0
 17 35  1  0  0  0  0
 17 36  1  0  0  0  0
 18 37  1  0  0  0  0
 18 38  1  0  0  0  0
 21 39  1  0  0  0  0
M  END
> <compound>
BEN-DND-1e24cf73-2

> <compound_smiles>
Cc1ccccc1n2cncc2NC(=O)Cc3cccc(c3)Cl

> <enantiomer_smiles>
Cc1ccccc1n2cncc2NC(=O)Cc3cccc(c3)Cl

> <scaffold>
chlorobenzene-linker

> <clash_score>
0

> <docking_score>
-5.7198686599731445

> <overlap_score>
0.7743728756904602

> <MMFF_internal_energy>
130.64493532794347

> <docked_smiles>
Cc1ccccc1n2cncc2NC(=O)Cc3cccc(c3)Cl

$$$$
MAT-POS-8293a91a-6_1
  -OEChem-07262101023D

 63 67  0     1  0  0  0  0  0999 V2000
    2.5650    1.0118   19.7905 C   0  0  0  0  0  0  0  0  0  0  0  0
    3.1657    0.4486   20.9139 C   0  0  0  0  0  0  0  0  0  0  0  0
   11.9780    0.4600   23.9150 C   0  0  0  0  0  0  0  0  0  0  0  0
    3.2959    1.1705   18.6133 C   0  0  0  0  0  0  0  0  0  0  0  0
    4.5001    0.0413   20.8653 C   0  0  0  0  0  0  0  0  0  0  0  0
   10.6560    0.0720   23.7350 C   0  0  0  0  0  0  0  0  0  0  0  0
   12.9840   -0.1200   23.1530 C   0  0  0  0  0  0  0  0  0  0  0  0
   11.3360   -1.5050   22.0650 C   0  0  0  0  0  0  0  0  0  0  0  0
    5.4171    0.8995   17.4014 C   0  0  0  0  0  0  0  0  0  0  0  0
    7.2639   -0.0211   18.4097 C   0  0  0  0  0  0  0  0  0  0  0  0
    4.6393    0.7642   18.5530 C   0  0  0  0  0  0  0  0  0  0  0  0
    5.2510    0.1935   19.6882 C   0  0  0  0  0  0  0  0  0  0  0  0
   10.3220   -0.8940   22.7910 C   0  0  0  0  0  0  0  0  0  0  0  0
    6.5904   -0.2048   19.6077 C   0  0  0  0  0  0  0  0  0  0  0  0
   12.6400   -1.1000   22.2390 C   0  0  0  0  0  0  0  0  0  0  0  0
    5.4338   -2.8064   28.2731 C   0  0  0  0  0  0  0  0  0  0  0  0
    7.7883   -1.9603   24.5501 C   0  0  0  0  0  0  0  0  0  0  0  0
    8.3880   -0.3240   21.3070 C   0  0  0  0  0  0  0  0  0  0  0  0
    2.4333   -4.8538   28.8445 C   0  0  0  0  0  0  0  0  0  0  0  0
    3.4321   -5.9194   28.4108 C   0  0  0  0  0  0  0  0  0  0  0  0
    7.8168   -2.2955   27.7004 C   0  0  0  0  0  0  0  0  0  0  0  0
    7.6584   -1.0387   26.8740 C   0  0  0  0  0  0  0  0  0  0  0  0
    3.3308   -3.6968   29.2554 C   0  0  0  0  0  0  0  0  0  0  0  0
    4.5151   -5.1084   27.7134 C   0  0  0  0  0  0  0  0  0  0  0  0
    6.5769   -3.0927   27.3522 C   0  0  2  0  0  0  0  0  0  0  0  0
    6.8892   -1.5210   25.6617 C   0  0  2  0  0  0  0  0  0  0  0  0
    8.8810   -1.1900   22.4510 C   0  0  1  0  0  0  0  0  0  0  0  0
    6.7116    0.5212   17.3036 N   0  0  0  0  0  0  0  0  0  0  0  0
    4.4978   -3.8173   28.3940 N   0  0  0  0  0  0  0  0  0  0  0  0
    7.2820   -0.7860   20.6970 N   0  0  0  0  0  0  0  0  0  0  0  0
    8.0374   -0.9810   23.6076 N   0  0  0  0  0  0  0  0  0  0  0  0
    5.3685   -1.7313   28.8712 O   0  0  0  0  0  0  0  0  0  0  0  0
    8.2279   -3.1041   24.5449 O   0  0  0  0  0  0  0  0  0  0  0  0
    8.9170    0.7530   21.0260 O   0  0  0  0  0  0  0  0  0  0  0  0
    6.1494   -2.6798   26.0524 O   0  0  0  0  0  0  0  0  0  0  0  0
   13.8840   -1.8490   21.2740 Cl  0  0  0  0  0  0  0  0  0  0  0  0
    1.5267    1.3276   19.8311 H   0  0  0  0  0  0  0  0  0  0  0  0
    2.5946    0.3257   21.8298 H   0  0  0  0  0  0  0  0  0  0  0  0
   12.2249    1.2198   24.6546 H   0  0  0  0  0  0  0  0  0  0  0  0
    2.8114    1.6119   17.7455 H   0  0  0  0  0  0  0  0  0  0  0  0
    4.9338   -0.3933   21.7630 H   0  0  0  0  0  0  0  0  0  0  0  0
    9.8763    0.5350   24.3454 H   0  0  0  0  0  0  0  0  0  0  0  0
   14.0077    0.1988   23.2842 H   0  0  0  0  0  0  0  0  0  0  0  0
   11.0892   -2.3008   21.3624 H   0  0  0  0  0  0  0  0  0  0  0  0
    5.0078    1.3308   16.4920 H   0  0  0  0  0  0  0  0  0  0  0  0
    8.3038   -0.3142   18.2963 H   0  0  0  0  0  0  0  0  0  0  0  0
    1.8003   -4.5620   27.9982 H   0  0  0  0  0  0  0  0  0  0  0  0
    1.7890   -5.1943   29.6598 H   0  0  0  0  0  0  0  0  0  0  0  0
    3.8458   -6.4289   29.2890 H   0  0  0  0  0  0  0  0  0  0  0  0
    2.9822   -6.6688   27.7537 H   0  0  0  0  0  0  0  0  0  0  0  0
    8.7026   -2.8445   27.3609 H   0  0  0  0  0  0  0  0  0  0  0  0
    7.9347   -2.0913   28.7682 H   0  0  0  0  0  0  0  0  0  0  0  0
    7.0512   -0.3139   27.4294 H   0  0  0  0  0  0  0  0  0  0  0  0
    8.6146   -0.5635   26.6354 H   0  0  0  0  0  0  0  0  0  0  0  0
    2.8553   -2.7189   29.1347 H   0  0  0  0  0  0  0  0  0  0  0  0
    3.6706   -3.7989   30.2920 H   0  0  0  0  0  0  0  0  0  0  0  0
    5.5007   -5.5769   27.7796 H   0  0  0  0  0  0  0  0  0  0  0  0
    4.2696   -4.9351   26.6601 H   0  0  0  0  0  0  0  0  0  0  0  0
    6.7554   -4.1710   27.3578 H   0  0  0  0  0  0  0  0  0  0  0  0
    6.2046   -0.7623   25.2711 H   0  0  0  0  0  0  0  0  0  0  0  0
    8.7711   -2.2448   22.1651 H   0  0  0  0  0  0  0  0  0  0  0  0
    6.8975   -1.6551   21.0614 H   0  0  0  0  0  0  0  0  0  0  0  0
    7.6087   -0.0689   23.7332 H   0  0  0  0  0  0  0  0  0  0  0  0
  1  2  1  0  0  0  0
  1  4  2  0  0  0  0
  2  5  2  0  0  0  0
  3  6  2  0  0  0  0
  3  7  1  0  0  0  0
  4 11  1  0  0  0  0
  5 12  1  0  0  0  0
  6 13  1  0  0  0  0
  7 15  2  0  0  0  0
  8 13  2  0  0  0  0
  8 15  1  0  0  0  0
  9 11  2  0  0  0  0
  9 28  1  0  0  0  0
 10 14  1  0  0  0  0
 10 28  2  0  0  0  0
 11 12  1  0  0  0  0
 12 14  2  0  0  0  0
 13 27  1  0  0  0  0
 14 30  1  0  0  0  0
 15 36  1  0  0  0  0
 16 25  1  0  0  0  0
 16 29  1  0  0  0  0
 16 32  2  0  0  0  0
 17 26  1  0  0  0  0
 17 31  1  0  0  0  0
 17 33  2  0  0  0  0
 18 27  1  1  0  0  0
 18 30  1  0  0  0  0
 18 34  2  0  0  0  0
 19 20  1  0  0  0  0
 19 23  1  0  0  0  0
 20 24  1  0  0  0  0
 21 22  1  0  0  0  0
 21 25  1  0  0  0  0
 22 26  1  0  0  0  0
 23 29  1  0  0  0  0
 24 29  1  0  0  0  0
 25 35  1  0  0  0  0
 26 35  1  0  0  0  0
 27 31  1  0  0  0  0
  1 37  1  0  0  0  0
  2 38  1  0  0  0  0
  3 39  1  0  0  0  0
  4 40  1  0  0  0  0
  5 41  1  0  0  0  0
  6 42  1  0  0  0  0
  7 43  1  0  0  0  0
  8 44  1  0  0  0  0
  9 45  1  0  0  0  0
 10 46  1  0  0  0  0
 19 47  1  0  0  0  0
 19 48  1  0  0  0  0
 20 49  1  0  0  0  0
 20 50  1  0  0  0  0
 21 51  1  0  0  0  0
 21 52  1  0  0  0  0
 22 53  1  0  0  0  0
 22 54  1  0  0  0  0
 23 55  1  0  0  0  0
 23 56  1  0  0  0  0
 24 57  1  0  0  0  0
 24 58  1  0  0  0  0
 25 59  1  0  0  0  0
 26 60  1  0  0  0  0
 27 61  1  0  0  0  0
 30 62  1  0  0  0  0
 31 63  1  0  0  0  0
M  END
> <compound>
MAT-POS-8293a91a-6

> <compound_smiles>
c1ccc2c(c1)cncc2NC(=O)C(c3cccc(c3)Cl)NC(=O)[C@@H]4CC[C@H](O4)C(=O)N5CCCC5

> <enantiomer_smiles>
c1ccc2c(c1)cncc2NC(=O)[C@@H](c3cccc(c3)Cl)NC(=O)[C@@H]4CC[C@H](O4)C(=O)N5CCCC5

> <scaffold>
chlorobenzene-linker

> <canonical_CID>
MAT-POS-8293a91a-6

> <r_inhibition_at_20_uM>

> <r_inhibition_at_50_uM>

> <r_avg_IC50>

> <f_inhibition_at_20_uM>

> <f_inhibition_at_50_uM>

> <f_avg_IC50>
4.48414378133439

> <f_avg_pIC50>

> <relative_solubility_at_20_uM>

> <relative_solubility_at_100_uM>

> <trypsin_IC50>

> <NMR_std_ratio>

> <acrylamide>
False

> <chloroacetamide>
False

> <series>
Ugi

> <frag_id>

> <clash_score>
0

> <docking_score>
-3.794178009033203

> <overlap_score>
0.8810949921607971

> <MMFF_internal_energy>
167.4175056185719

> <docked_smiles>
c1ccc2c(c1)cncc2NC(=O)[C@@H](c3cccc(c3)Cl)NC(=O)[C@@H]4CC[C@H](O4)C(=O)N5CCCC5

$$$$
BEN-DND-1e24cf73-7_1
  -OEChem-07262101023D

 44 46  0     0  0  0  0  0  0999 V2000
   11.9780    0.4600   23.9150 C   0  0  0  0  0  0  0  0  0  0  0  0
    5.2759    0.8818   24.3614 C   0  0  0  0  0  0  0  0  0  0  0  0
   10.6560    0.0720   23.7350 C   0  0  0  0  0  0  0  0  0  0  0  0
    5.2508    0.4584   23.0326 C   0  0  0  0  0  0  0  0  0  0  0  0
    5.5443    2.2170   24.6630 C   0  0  0  0  0  0  0  0  0  0  0  0
   12.9840   -0.1200   23.1530 C   0  0  0  0  0  0  0  0  0  0  0  0
   11.3360   -1.5050   22.0650 C   0  0  0  0  0  0  0  0  0  0  0  0
    5.7629    2.7053   22.3070 C   0  0  0  0  0  0  0  0  0  0  0  0
    5.9037   -0.1231   18.7458 C   0  0  0  0  0  0  0  0  0  0  0  0
   10.3220   -0.8940   22.7910 C   0  0  0  0  0  0  0  0  0  0  0  0
    5.4944    1.3701   22.0054 C   0  0  0  0  0  0  0  0  0  0  0  0
    5.7879    3.1287   23.6358 C   0  0  0  0  0  0  0  0  0  0  0  0
   12.6400   -1.1000   22.2390 C   0  0  0  0  0  0  0  0  0  0  0  0
    6.2693   -0.0307   20.0591 C   0  0  0  0  0  0  0  0  0  0  0  0
    4.6332    1.4170   19.7021 C   0  0  0  0  0  0  0  0  0  0  0  0
    8.3880   -0.3240   21.3070 C   0  0  0  0  0  0  0  0  0  0  0  0
    3.6007    2.4690   19.8852 C   0  0  0  0  0  0  0  0  0  0  0  0
    6.0611    4.7958   25.3097 C   0  0  0  0  0  0  0  0  0  0  0  0
    8.8810   -1.1900   22.4510 C   0  0  0  0  0  0  0  0  0  0  0  0
    5.4674    0.9300   20.6265 N   0  0  0  0  0  0  0  0  0  0  0  0
    4.8894    0.7836   18.5529 N   0  3  0  0  0  0  0  0  0  0  0  0
    7.2820   -0.7860   20.6970 N   0  0  0  0  0  0  0  0  0  0  0  0
    8.9170    0.7530   21.0260 O   0  0  0  0  0  0  0  0  0  0  0  0
    6.0505    4.4312   23.9303 O   0  0  0  0  0  0  0  0  0  0  0  0
   13.8840   -1.8490   21.2740 Cl  0  0  0  0  0  0  0  0  0  0  0  0
   12.2249    1.2198   24.6546 H   0  0  0  0  0  0  0  0  0  0  0  0
    5.0855    0.1723   25.1612 H   0  0  0  0  0  0  0  0  0  0  0  0
    9.8763    0.5350   24.3454 H   0  0  0  0  0  0  0  0  0  0  0  0
    5.0407   -0.5829   22.8043 H   0  0  0  0  0  0  0  0  0  0  0  0
    5.5625    2.5403   25.7002 H   0  0  0  0  0  0  0  0  0  0  0  0
   14.0077    0.1988   23.2842 H   0  0  0  0  0  0  0  0  0  0  0  0
   11.0892   -2.3009   21.3624 H   0  0  0  0  0  0  0  0  0  0  0  0
    5.9540    3.4162   21.5072 H   0  0  0  0  0  0  0  0  0  0  0  0
    6.2136   -0.7051   17.9005 H   0  0  0  0  0  0  0  0  0  0  0  0
    4.0224    3.4648   19.6890 H   0  0  0  0  0  0  0  0  0  0  0  0
    2.7462    2.3192   19.2090 H   0  0  0  0  0  0  0  0  0  0  0  0
    3.1948    2.4638   20.9076 H   0  0  0  0  0  0  0  0  0  0  0  0
    6.2831    5.8616   25.4039 H   0  0  0  0  0  0  0  0  0  0  0  0
    6.8161    4.2075   25.8372 H   0  0  0  0  0  0  0  0  0  0  0  0
    5.0774    4.5915   25.7390 H   0  0  0  0  0  0  0  0  0  0  0  0
    8.7709   -2.2387   22.1706 H   0  0  0  0  0  0  0  0  0  0  0  0
    8.2491   -1.0157   23.3232 H   0  0  0  0  0  0  0  0  0  0  0  0
    4.4082    0.9478   17.6728 H   0  0  0  0  0  0  0  0  0  0  0  0
    7.1590   -1.7964   20.6938 H   0  0  0  0  0  0  0  0  0  0  0  0
  1  3  2  0  0  0  0
  1  6  1  0  0  0  0
  2  4  2  0  0  0  0
  2  5  1  0  0  0  0
  3 10  1  0  0  0  0
  4 11  1  0  0  0  0
  5 12  2  0  0  0  0
  6 13  2  0  0  0  0
  7 10  2  0  0  0  0
  7 13  1  0  0  0  0
  8 11  2  0  0  0  0
  8 12  1  0  0  0  0
  9 14  2  0  0  0  0
  9 21  1  0  0  0  0
 10 19  1  0  0  0  0
 11 20  1  0  0  0  0
 12 24  1  0  0  0  0
 13 25  1  0  0  0  0
 14 20  1  0  0  0  0
 14 22  1  0  0  0  0
 15 17  1  0  0  0  0
 15 20  1  0  0  0  0
 15 21  2  0  0  0  0
 16 19  1  0  0  0  0
 16 22  1  0  0  0  0
 16 23  2  0  0  0  0
 18 24  1  0  0  0  0
  1 26  1  0  0  0  0
  2 27  1  0  0  0  0
  3 28  1  0  0  0  0
  4 29  1  0  0  0  0
  5 30  1  0  0  0  0
  6 31  1  0  0  0  0
  7 32  1  0  0  0  0
  8 33  1  0  0  0  0
  9 34  1  0  0  0  0
 17 35  1  0  0  0  0
 17 36  1  0  0  0  0
 17 37  1  0  0  0  0
 18 38  1  0  0  0  0
 18 39  1  0  0  0  0
 18 40  1  0  0  0  0
 19 41  1  0  0  0  0
 19 42  1  0  0  0  0
 21 43  1  0  0  0  0
 22 44  1  0  0  0  0
M  CHG  1  21   1
M  END
> <compound>
BEN-DND-1e24cf73-7

> <compound_smiles>
Cc1ncc(n1c2cccc(c2)OC)NC(=O)Cc3cccc(c3)Cl

> <enantiomer_smiles>
Cc1ncc(n1c2cccc(c2)OC)NC(=O)Cc3cccc(c3)Cl

> <scaffold>
chlorobenzene-linker

> <clash_score>
0

> <docking_score>
-7.882584571838379

> <overlap_score>
0.8599382638931274

> <MMFF_internal_energy>
79.01918194702289

> <docked_smiles>
Cc1[nH+]cc(n1c2cccc(c2)OC)NC(=O)Cc3cccc(c3)Cl

$$$$
PET-UNK-b38839dc-2_1
  -OEChem-07262101023D

 38 40  0     0  0  0  0  0  0999 V2000
   11.9780    0.4600   23.9150 C   0  0  0  0  0  0  0  0  0  0  0  0
   10.6560    0.0720   23.7350 C   0  0  0  0  0  0  0  0  0  0  0  0
   12.9840   -0.1200   23.1530 C   0  0  0  0  0  0  0  0  0  0  0  0
    5.1220    1.1111   21.0632 C   0  0  0  0  0  0  0  0  0  0  0  0
    3.8527    2.1360   18.7972 C   0  0  0  0  0  0  0  0  0  0  0  0
   11.3360   -1.5050   22.0650 C   0  0  0  0  0  0  0  0  0  0  0  0
    5.3519    0.7776   17.4010 C   0  0  0  0  0  0  0  0  0  0  0  0
    6.9505   -0.5832   18.3323 C   0  0  0  0  0  0  0  0  0  0  0  0
    5.5463    0.6948   19.7908 C   0  0  0  0  0  0  0  0  0  0  0  0
    4.9027    1.2146   18.6487 C   0  0  0  0  0  0  0  0  0  0  0  0
   10.3220   -0.8940   22.7910 C   0  0  0  0  0  0  0  0  0  0  0  0
    6.5902   -0.2221   19.6216 C   0  0  0  0  0  0  0  0  0  0  0  0
    4.0774    2.0272   21.1989 C   0  0  0  0  0  0  0  0  0  0  0  0
   12.6400   -1.1000   22.2390 C   0  0  0  0  0  0  0  0  0  0  0  0
    3.4442    2.5384   20.0685 C   0  0  0  0  0  0  0  0  0  0  0  0
    8.3880   -0.3240   21.3070 C   0  0  0  0  0  0  0  0  0  0  0  0
    4.3545    3.5418   23.0114 C   0  0  0  0  0  0  0  0  0  0  0  0
    8.8810   -1.1900   22.4510 C   0  0  0  0  0  0  0  0  0  0  0  0
    6.3580   -0.1067   17.2167 N   0  0  0  0  0  0  0  0  0  0  0  0
    7.2820   -0.7860   20.6970 N   0  0  0  0  0  0  0  0  0  0  0  0
    8.9170    0.7530   21.0260 O   0  0  0  0  0  0  0  0  0  0  0  0
    3.6982    2.4062   22.4528 O   0  0  0  0  0  0  0  0  0  0  0  0
   13.8840   -1.8490   21.2740 Cl  0  0  0  0  0  0  0  0  0  0  0  0
    2.1481    3.6682   20.2118 Cl  0  0  0  0  0  0  0  0  0  0  0  0
   12.2249    1.2198   24.6546 H   0  0  0  0  0  0  0  0  0  0  0  0
    9.8763    0.5350   24.3454 H   0  0  0  0  0  0  0  0  0  0  0  0
   14.0077    0.1988   23.2842 H   0  0  0  0  0  0  0  0  0  0  0  0
    5.5965    0.7298   21.9650 H   0  0  0  0  0  0  0  0  0  0  0  0
    3.3573    2.5365   17.9145 H   0  0  0  0  0  0  0  0  0  0  0  0
   11.0892   -2.3009   21.3624 H   0  0  0  0  0  0  0  0  0  0  0  0
    4.8991    1.1384   16.4815 H   0  0  0  0  0  0  0  0  0  0  0  0
    7.7537   -1.2908   18.1479 H   0  0  0  0  0  0  0  0  0  0  0  0
    3.9599    3.7362   24.0116 H   0  0  0  0  0  0  0  0  0  0  0  0
    4.1918    4.4106   22.3686 H   0  0  0  0  0  0  0  0  0  0  0  0
    5.4255    3.3362   23.0783 H   0  0  0  0  0  0  0  0  0  0  0  0
    8.7775   -2.2383   22.1732 H   0  0  0  0  0  0  0  0  0  0  0  0
    8.2557   -1.0153   23.3257 H   0  0  0  0  0  0  0  0  0  0  0  0
    6.8981   -1.6619   21.0675 H   0  0  0  0  0  0  0  0  0  0  0  0
  1  2  2  0  0  0  0
  1  3  1  0  0  0  0
  2 11  1  0  0  0  0
  3 14  2  0  0  0  0
  4  9  2  0  0  0  0
  4 13  1  0  0  0  0
  5 10  2  0  0  0  0
  5 15  1  0  0  0  0
  6 11  2  0  0  0  0
  6 14  1  0  0  0  0
  7 10  1  0  0  0  0
  7 19  2  0  0  0  0
  8 12  2  0  0  0  0
  8 19  1  0  0  0  0
  9 10  1  0  0  0  0
  9 12  1  0  0  0  0
 11 18  1  0  0  0  0
 12 20  1  0  0  0  0
 13 15  2  0  0  0  0
 13 22  1  0  0  0  0
 14 23  1  0  0  0  0
 15 24  1  0  0  0  0
 16 18  1  0  0  0  0
 16 20  1  0  0  0  0
 16 21  2  0  0  0  0
 17 22  1  0  0  0  0
  1 25  1  0  0  0  0
  2 26  1  0  0  0  0
  3 27  1  0  0  0  0
  4 28  1  0  0  0  0
  5 29  1  0  0  0  0
  6 30  1  0  0  0  0
  7 31  1  0  0  0  0
  8 32  1  0  0  0  0
 17 33  1  0  0  0  0
 17 34  1  0  0  0  0
 17 35  1  0  0  0  0
 18 36  1  0  0  0  0
 18 37  1  0  0  0  0
 20 38  1  0  0  0  0
M  END
> <compound>
PET-UNK-b38839dc-2

> <compound_smiles>
COc1cc2c(cc1Cl)cncc2NC(=O)Cc3cccc(c3)Cl

> <enantiomer_smiles>
COc1cc2c(cc1Cl)cncc2NC(=O)Cc3cccc(c3)Cl

> <scaffold>
chlorobenzene-linker

> <clash_score>
0

> <docking_score>
-11.32673454284668

> <overlap_score>
1.0

> <MMFF_internal_energy>
112.1279923597893

> <docked_smiles>
COc1cc2c(cc1Cl)cncc2NC(=O)Cc3cccc(c3)Cl

$$$$
BEN-DND-1e24cf73-4_1
  -OEChem-07262101023D

 40 42  0     0  0  0  0  0  0999 V2000
    5.4092    0.7286   24.3612 C   0  0  0  0  0  0  0  0  0  0  0  0
    5.7007    2.0482   24.7063 C   0  0  0  0  0  0  0  0  0  0  0  0
   11.9780    0.4600   23.9150 C   0  0  0  0  0  0  0  0  0  0  0  0
   10.6560    0.0720   23.7350 C   0  0  0  0  0  0  0  0  0  0  0  0
    5.3461    0.3565   23.0183 C   0  0  0  0  0  0  0  0  0  0  0  0
    5.9289    2.9959   23.7086 C   0  0  0  0  0  0  0  0  0  0  0  0
   12.9840   -0.1200   23.1530 C   0  0  0  0  0  0  0  0  0  0  0  0
   11.3360   -1.5050   22.0650 C   0  0  0  0  0  0  0  0  0  0  0  0
    5.8226   -0.0411   18.7587 C   0  0  0  0  0  0  0  0  0  0  0  0
    4.6460    1.4279   19.7527 C   0  0  0  0  0  0  0  0  0  0  0  0
   10.3220   -0.8940   22.7910 C   0  0  0  0  0  0  0  0  0  0  0  0
    5.5742    1.3042   22.0206 C   0  0  0  0  0  0  0  0  0  0  0  0
    5.8656    2.6239   22.3657 C   0  0  0  0  0  0  0  0  0  0  0  0
   12.6400   -1.1000   22.2390 C   0  0  0  0  0  0  0  0  0  0  0  0
    6.2693   -0.0307   20.0591 C   0  0  0  0  0  0  0  0  0  0  0  0
    8.3880   -0.3240   21.3070 C   0  0  0  0  0  0  0  0  0  0  0  0
    7.4377    3.7389   20.9724 C   0  0  0  0  0  0  0  0  0  0  0  0
    8.8810   -1.1900   22.4510 C   0  0  0  0  0  0  0  0  0  0  0  0
    4.8123    0.8693   18.5744 N   0  0  0  0  0  0  0  0  0  0  0  0
    5.5065    0.9155   20.6835 N   0  0  0  0  0  0  0  0  0  0  0  0
    7.2820   -0.7860   20.6970 N   0  0  0  0  0  0  0  0  0  0  0  0
    8.9170    0.7530   21.0260 O   0  0  0  0  0  0  0  0  0  0  0  0
    6.0912    3.5689   21.4089 O   0  0  0  0  0  0  0  0  0  0  0  0
   13.8840   -1.8490   21.2740 Cl  0  0  0  0  0  0  0  0  0  0  0  0
    5.2324   -0.0096   25.1380 H   0  0  0  0  0  0  0  0  0  0  0  0
    5.7491    2.3382   25.7518 H   0  0  0  0  0  0  0  0  0  0  0  0
   12.2249    1.2198   24.6546 H   0  0  0  0  0  0  0  0  0  0  0  0
    9.8763    0.5350   24.3454 H   0  0  0  0  0  0  0  0  0  0  0  0
    5.1196   -0.6763   22.7644 H   0  0  0  0  0  0  0  0  0  0  0  0
    6.1533    4.0226   23.9848 H   0  0  0  0  0  0  0  0  0  0  0  0
   14.0077    0.1988   23.2842 H   0  0  0  0  0  0  0  0  0  0  0  0
   11.0892   -2.3009   21.3624 H   0  0  0  0  0  0  0  0  0  0  0  0
    6.1749   -0.6561   17.9427 H   0  0  0  0  0  0  0  0  0  0  0  0
    3.9242    2.2003   19.9843 H   0  0  0  0  0  0  0  0  0  0  0  0
    7.4785    4.5209   20.2102 H   0  0  0  0  0  0  0  0  0  0  0  0
    7.8108    2.7967   20.5633 H   0  0  0  0  0  0  0  0  0  0  0  0
    8.0536    4.0326   21.8257 H   0  0  0  0  0  0  0  0  0  0  0  0
    8.7709   -2.2387   22.1706 H   0  0  0  0  0  0  0  0  0  0  0  0
    8.2491   -1.0157   23.3232 H   0  0  0  0  0  0  0  0  0  0  0  0
    7.1590   -1.7964   20.6938 H   0  0  0  0  0  0  0  0  0  0  0  0
  1  2  1  0  0  0  0
  1  5  2  0  0  0  0
  2  6  2  0  0  0  0
  3  4  2  0  0  0  0
  3  7  1  0  0  0  0
  4 11  1  0  0  0  0
  5 12  1  0  0  0  0
  6 13  1  0  0  0  0
  7 14  2  0  0  0  0
  8 11  2  0  0  0  0
  8 14  1  0  0  0  0
  9 15  2  0  0  0  0
  9 19  1  0  0  0  0
 10 19  2  0  0  0  0
 10 20  1  0  0  0  0
 11 18  1  0  0  0  0
 12 13  2  0  0  0  0
 12 20  1  0  0  0  0
 13 23  1  0  0  0  0
 14 24  1  0  0  0  0
 15 20  1  0  0  0  0
 15 21  1  0  0  0  0
 16 18  1  0  0  0  0
 16 21  1  0  0  0  0
 16 22  2  0  0  0  0
 17 23  1  0  0  0  0
  1 25  1  0  0  0  0
  2 26  1  0  0  0  0
  3 27  1  0  0  0  0
  4 28  1  0  0  0  0
  5 29  1  0  0  0  0
  6 30  1  0  0  0  0
  7 31  1  0  0  0  0
  8 32  1  0  0  0  0
  9 33  1  0  0  0  0
 10 34  1  0  0  0  0
 17 35  1  0  0  0  0
 17 36  1  0  0  0  0
 17 37  1  0  0  0  0
 18 38  1  0  0  0  0
 18 39  1  0  0  0  0
 21 40  1  0  0  0  0
M  END
> <compound>
BEN-DND-1e24cf73-4

> <compound_smiles>
COc1ccccc1n2cncc2NC(=O)Cc3cccc(c3)Cl

> <enantiomer_smiles>
COc1ccccc1n2cncc2NC(=O)Cc3cccc(c3)Cl

> <scaffold>
chlorobenzene-linker

> <clash_score>
0

> <docking_score>
-6.123516082763672

> <overlap_score>
0.8162801265716553

> <MMFF_internal_energy>
131.948012096991

> <docked_smiles>
COc1ccccc1n2cncc2NC(=O)Cc3cccc(c3)Cl

$$$$
PET-UNK-d899bab6-1_1
  -OEChem-07262101023D

 42 44  0     0  0  0  0  0  0999 V2000
   11.9780    0.4600   23.9150 C   0  0  0  0  0  0  0  0  0  0  0  0
    3.8546    2.1377   18.7958 C   0  0  0  0  0  0  0  0  0  0  0  0
   10.6560    0.0720   23.7350 C   0  0  0  0  0  0  0  0  0  0  0  0
    3.4457    2.5405   20.0669 C   0  0  0  0  0  0  0  0  0  0  0  0
   12.9840   -0.1200   23.1530 C   0  0  0  0  0  0  0  0  0  0  0  0
    5.1222    1.1122   21.0624 C   0  0  0  0  0  0  0  0  0  0  0  0
   11.3360   -1.5050   22.0650 C   0  0  0  0  0  0  0  0  0  0  0  0
    5.3535    0.7784   17.4003 C   0  0  0  0  0  0  0  0  0  0  0  0
    6.9509   -0.5833   18.3324 C   0  0  0  0  0  0  0  0  0  0  0  0
    4.9040    1.2157   18.6478 C   0  0  0  0  0  0  0  0  0  0  0  0
    5.5468    0.6955   19.7902 C   0  0  0  0  0  0  0  0  0  0  0  0
   10.3220   -0.8940   22.7910 C   0  0  0  0  0  0  0  0  0  0  0  0
    4.0781    2.0289   21.1977 C   0  0  0  0  0  0  0  0  0  0  0  0
    6.5902   -0.2220   19.6215 C   0  0  0  0  0  0  0  0  0  0  0  0
   12.6400   -1.1000   22.2390 C   0  0  0  0  0  0  0  0  0  0  0  0
    8.3880   -0.3240   21.3070 C   0  0  0  0  0  0  0  0  0  0  0  0
    2.6241    1.7104   23.1838 C   0  0  0  0  0  0  0  0  0  0  0  0
    4.2778    3.5840   23.1218 C   0  0  0  0  0  0  0  0  0  0  0  0
    8.8810   -1.1900   22.4510 C   0  0  0  0  0  0  0  0  0  0  0  0
    6.3592   -0.1065   17.2165 N   0  0  0  0  0  0  0  0  0  0  0  0
    7.2820   -0.7860   20.6970 N   0  0  0  0  0  0  0  0  0  0  0  0
    3.6622    2.4384   22.4822 N   0  0  0  0  0  0  0  0  0  0  0  0
    8.9170    0.7530   21.0260 O   0  0  0  0  0  0  0  0  0  0  0  0
   13.8840   -1.8490   21.2740 Cl  0  0  0  0  0  0  0  0  0  0  0  0
   12.2249    1.2198   24.6546 H   0  0  0  0  0  0  0  0  0  0  0  0
    3.3502    2.5474   17.9238 H   0  0  0  0  0  0  0  0  0  0  0  0
    9.8763    0.5350   24.3454 H   0  0  0  0  0  0  0  0  0  0  0  0
    2.6317    3.2542   20.1635 H   0  0  0  0  0  0  0  0  0  0  0  0
   14.0077    0.1988   23.2842 H   0  0  0  0  0  0  0  0  0  0  0  0
    5.5994    0.7286   21.9624 H   0  0  0  0  0  0  0  0  0  0  0  0
   11.0892   -2.3009   21.3624 H   0  0  0  0  0  0  0  0  0  0  0  0
    4.9018    1.1394   16.4804 H   0  0  0  0  0  0  0  0  0  0  0  0
    7.7544   -1.2907   18.1489 H   0  0  0  0  0  0  0  0  0  0  0  0
    2.4426    2.1807   24.1615 H   0  0  0  0  0  0  0  0  0  0  0  0
    1.6981    1.7294   22.5904 H   0  0  0  0  0  0  0  0  0  0  0  0
    2.9434    0.6683   23.3319 H   0  0  0  0  0  0  0  0  0  0  0  0
    3.8210    3.7423   24.1098 H   0  0  0  0  0  0  0  0  0  0  0  0
    5.3559    3.4015   23.2414 H   0  0  0  0  0  0  0  0  0  0  0  0
    4.1240    4.4778   22.4994 H   0  0  0  0  0  0  0  0  0  0  0  0
    8.7774   -2.2383   22.1732 H   0  0  0  0  0  0  0  0  0  0  0  0
    8.2557   -1.0153   23.3257 H   0  0  0  0  0  0  0  0  0  0  0  0
    6.8981   -1.6619   21.0674 H   0  0  0  0  0  0  0  0  0  0  0  0
  1  3  2  0  0  0  0
  1  5  1  0  0  0  0
  2  4  2  0  0  0  0
  2 10  1  0  0  0  0
  3 12  1  0  0  0  0
  4 13  1  0  0  0  0
  5 15  2  0  0  0  0
  6 11  1  0  0  0  0
  6 13  2  0  0  0  0
  7 12  2  0  0  0  0
  7 15  1  0  0  0  0
  8 10  1  0  0  0  0
  8 20  2  0  0  0  0
  9 14  2  0  0  0  0
  9 20  1  0  0  0  0
 10 11  2  0  0  0  0
 11 14  1  0  0  0  0
 12 19  1  0  0  0  0
 13 22  1  0  0  0  0
 14 21  1  0  0  0  0
 15 24  1  0  0  0  0
 16 19  1  0  0  0  0
 16 21  1  0  0  0  0
 16 23  2  0  0  0  0
 17 22  1  0  0  0  0
 18 22  1  0  0  0  0
  1 25  1  0  0  0  0
  2 26  1  0  0  0  0
  3 27  1  0  0  0  0
  4 28  1  0  0  0  0
  5 29  1  0  0  0  0
  6 30  1  0  0  0  0
  7 31  1  0  0  0  0
  8 32  1  0  0  0  0
  9 33  1  0  0  0  0
 17 34  1  0  0  0  0
 17 35  1  0  0  0  0
 17 36  1  0  0  0  0
 18 37  1  0  0  0  0
 18 38  1  0  0  0  0
 18 39  1  0  0  0  0
 19 40  1  0  0  0  0
 19 41  1  0  0  0  0
 21 42  1  0  0  0  0
M  END
> <compound>
PET-UNK-d899bab6-1

> <compound_smiles>
CN(C)c1ccc2cncc(c2c1)NC(=O)Cc3cccc(c3)Cl

> <enantiomer_smiles>
CN(C)c1ccc2cncc(c2c1)NC(=O)Cc3cccc(c3)Cl

> <scaffold>
chlorobenzene-linker

> <clash_score>
0

> <docking_score>
-11.397878646850586

> <overlap_score>
1.0

> <MMFF_internal_energy>
109.89504413044368

> <docked_smiles>
CN(C)c1ccc2cncc(c2c1)NC(=O)Cc3cccc(c3)Cl

$$$$
PET-UNK-d899bab6-3_1
  -OEChem-07262101023D

 41 43  0     0  0  0  0  0  0999 V2000
   11.9780    0.4600   23.9150 C   0  0  0  0  0  0  0  0  0  0  0  0
   10.6560    0.0720   23.7350 C   0  0  0  0  0  0  0  0  0  0  0  0
   12.9840   -0.1200   23.1530 C   0  0  0  0  0  0  0  0  0  0  0  0
    5.1157    1.1148   21.0566 C   0  0  0  0  0  0  0  0  0  0  0  0
   11.3360   -1.5050   22.0650 C   0  0  0  0  0  0  0  0  0  0  0  0
    5.3476    0.7792   17.4006 C   0  0  0  0  0  0  0  0  0  0  0  0
    3.8656    2.1232   18.8428 C   0  0  0  0  0  0  0  0  0  0  0  0
    6.9480   -0.5815   18.3303 C   0  0  0  0  0  0  0  0  0  0  0  0
    5.5458    0.6938   19.7928 C   0  0  0  0  0  0  0  0  0  0  0  0
    4.9054    1.2101   18.6534 C   0  0  0  0  0  0  0  0  0  0  0  0
   10.3220   -0.8940   22.7910 C   0  0  0  0  0  0  0  0  0  0  0  0
    6.5902   -0.2224   19.6218 C   0  0  0  0  0  0  0  0  0  0  0  0
   12.6400   -1.1000   22.2390 C   0  0  0  0  0  0  0  0  0  0  0  0
    4.0724    2.0265   21.1286 C   0  0  0  0  0  0  0  0  0  0  0  0
    8.3880   -0.3240   21.3070 C   0  0  0  0  0  0  0  0  0  0  0  0
    4.3166    1.9061   23.5956 C   0  0  0  0  0  0  0  0  0  0  0  0
    2.5872    3.3933   22.5730 C   0  0  0  0  0  0  0  0  0  0  0  0
    8.8810   -1.1900   22.4510 C   0  0  0  0  0  0  0  0  0  0  0  0
    6.3537   -0.1042   17.2148 N   0  0  0  0  0  0  0  0  0  0  0  0
    3.4358    2.5419   20.0539 N   0  0  0  0  0  0  0  0  0  0  0  0
    7.2820   -0.7860   20.6970 N   0  0  0  0  0  0  0  0  0  0  0  0
    3.6591    2.4350   22.4218 N   0  0  0  0  0  0  0  0  0  0  0  0
    8.9170    0.7530   21.0260 O   0  0  0  0  0  0  0  0  0  0  0  0
   13.8840   -1.8490   21.2740 Cl  0  0  0  0  0  0  0  0  0  0  0  0
   12.2249    1.2198   24.6546 H   0  0  0  0  0  0  0  0  0  0  0  0
    9.8763    0.5350   24.3454 H   0  0  0  0  0  0  0  0  0  0  0  0
   14.0077    0.1988   23.2842 H   0  0  0  0  0  0  0  0  0  0  0  0
    5.5773    0.7436   21.9676 H   0  0  0  0  0  0  0  0  0  0  0  0
   11.0892   -2.3009   21.3624 H   0  0  0  0  0  0  0  0  0  0  0  0
    4.8917    1.1445   16.4848 H   0  0  0  0  0  0  0  0  0  0  0  0
    3.3332    2.5549   18.0004 H   0  0  0  0  0  0  0  0  0  0  0  0
    7.7521   -1.2879   18.1442 H   0  0  0  0  0  0  0  0  0  0  0  0
    3.8598    2.3380   24.4983 H   0  0  0  0  0  0  0  0  0  0  0  0
    4.2056    0.8120   23.6163 H   0  0  0  0  0  0  0  0  0  0  0  0
    5.3851    2.1658   23.5655 H   0  0  0  0  0  0  0  0  0  0  0  0
    2.4122    3.5828   23.6424 H   0  0  0  0  0  0  0  0  0  0  0  0
    2.8635    4.3341   22.0745 H   0  0  0  0  0  0  0  0  0  0  0  0
    1.6700    2.9923   22.1169 H   0  0  0  0  0  0  0  0  0  0  0  0
    8.7774   -2.2383   22.1732 H   0  0  0  0  0  0  0  0  0  0  0  0
    8.2557   -1.0153   23.3257 H   0  0  0  0  0  0  0  0  0  0  0  0
    6.8982   -1.6621   21.0676 H   0  0  0  0  0  0  0  0  0  0  0  0
  1  2  2  0  0  0  0
  1  3  1  0  0  0  0
  2 11  1  0  0  0  0
  3 13  2  0  0  0  0
  4  9  2  0  0  0  0
  4 14  1  0  0  0  0
  5 11  2  0  0  0  0
  5 13  1  0  0  0  0
  6 10  1  0  0  0  0
  6 19  2  0  0  0  0
  7 10  2  0  0  0  0
  7 20  1  0  0  0  0
  8 12  2  0  0  0  0
  8 19  1  0  0  0  0
  9 10  1  0  0  0  0
  9 12  1  0  0  0  0
 11 18  1  0  0  0  0
 12 21  1  0  0  0  0
 13 24  1  0  0  0  0
 14 20  2  0  0  0  0
 14 22  1  0  0  0  0
 15 18  1  0  0  0  0
 15 21  1  0  0  0  0
 15 23  2  0  0  0  0
 16 22  1  0  0  0  0
 17 22  1  0  0  0  0
  1 25  1  0  0  0  0
  2 26  1  0  0  0  0
  3 27  1  0  0  0  0
  4 28  1  0  0  0  0
  5 29  1  0  0  0  0
  6 30  1  0  0  0  0
  7 31  1  0  0  0  0
  8 32  1  0  0  0  0
 16 33  1  0  0  0  0
 16 34  1  0  0  0  0
 16 35  1  0  0  0  0
 17 36  1  0  0  0  0
 17 37  1  0  0  0  0
 17 38  1  0  0  0  0
 18 39  1  0  0  0  0
 18 40  1  0  0  0  0
 21 41  1  0  0  0  0
M  END
> <compound>
PET-UNK-d899bab6-3

> <compound_smiles>
CN(C)c1cc2c(cncc2NC(=O)Cc3cccc(c3)Cl)cn1

> <enantiomer_smiles>
CN(C)c1cc2c(cncc2NC(=O)Cc3cccc(c3)Cl)cn1

> <scaffold>
chlorobenzene-linker

> <clash_score>
0

> <docking_score>
-11.217096328735352

> <overlap_score>
1.0

> <MMFF_internal_energy>
68.19422954140573

> <docked_smiles>
CN(C)c1cc2c(cncc2NC(=O)Cc3cccc(c3)Cl)cn1

$$$$
MAT-POS-8293a91a-7_2
  -OEChem-07262101023D

 63 67  0     1  0  0  0  0  0999 V2000
    2.5650    1.0119   19.7905 C   0  0  0  0  0  0  0  0  0  0  0  0
    3.1657    0.4486   20.9139 C   0  0  0  0  0  0  0  0  0  0  0  0
   11.9780    0.4600   23.9150 C   0  0  0  0  0  0  0  0  0  0  0  0
    3.2959    1.1705   18.6133 C   0  0  0  0  0  0  0  0  0  0  0  0
    4.5001    0.0414   20.8653 C   0  0  0  0  0  0  0  0  0  0  0  0
   10.6560    0.0720   23.7350 C   0  0  0  0  0  0  0  0  0  0  0  0
   12.9840   -0.1200   23.1530 C   0  0  0  0  0  0  0  0  0  0  0  0
   11.3360   -1.5050   22.0650 C   0  0  0  0  0  0  0  0  0  0  0  0
    5.4171    0.8995   17.4014 C   0  0  0  0  0  0  0  0  0  0  0  0
    7.2639   -0.0211   18.4097 C   0  0  0  0  0  0  0  0  0  0  0  0
    4.6393    0.7642   18.5530 C   0  0  0  0  0  0  0  0  0  0  0  0
    5.2510    0.1935   19.6882 C   0  0  0  0  0  0  0  0  0  0  0  0
   10.3220   -0.8940   22.7910 C   0  0  0  0  0  0  0  0  0  0  0  0
    6.5904   -0.2048   19.6077 C   0  0  0  0  0  0  0  0  0  0  0  0
   12.6400   -1.1000   22.2390 C   0  0  0  0  0  0  0  0  0  0  0  0
    5.0848   -5.4350   23.4017 C   0  0  0  0  0  0  0  0  0  0  0  0
    8.4779   -3.5757   23.0238 C   0  0  0  0  0  0  0  0  0  0  0  0
    8.3880   -0.3240   21.3070 C   0  0  0  0  0  0  0  0  0  0  0  0
    1.8505   -7.0969   23.9485 C   0  0  0  0  0  0  0  0  0  0  0  0
    2.8132   -8.2548   24.1797 C   0  0  0  0  0  0  0  0  0  0  0  0
    7.3360   -6.2963   24.0835 C   0  0  0  0  0  0  0  0  0  0  0  0
    8.6717   -6.0413   23.4265 C   0  0  0  0  0  0  0  0  0  0  0  0
    2.7438   -5.8769   24.1122 C   0  0  0  0  0  0  0  0  0  0  0  0
    4.0940   -7.7721   23.5135 C   0  0  0  0  0  0  0  0  0  0  0  0
    6.3643   -6.0523   22.9468 C   0  0  2  0  0  0  0  0  0  0  0  0
    8.3462   -4.9452   22.4328 C   0  0  1  0  0  0  0  0  0  0  0  0
    8.8810   -1.1900   22.4510 C   0  0  2  0  0  0  0  0  0  0  0  0
    6.7116    0.5212   17.3036 N   0  0  0  0  0  0  0  0  0  0  0  0
    4.0528   -6.3200   23.6554 N   0  0  0  0  0  0  0  0  0  0  0  0
    7.2820   -0.7860   20.6970 N   0  0  0  0  0  0  0  0  0  0  0  0
    8.7221   -2.5829   22.0943 N   0  0  0  0  0  0  0  0  0  0  0  0
    4.9942   -4.2137   23.5361 O   0  0  0  0  0  0  0  0  0  0  0  0
    8.3651   -3.4270   24.2350 O   0  0  0  0  0  0  0  0  0  0  0  0
    8.9170    0.7530   21.0260 O   0  0  0  0  0  0  0  0  0  0  0  0
    6.9749   -5.1045   22.0640 O   0  0  0  0  0  0  0  0  0  0  0  0
   13.8840   -1.8490   21.2740 Cl  0  0  0  0  0  0  0  0  0  0  0  0
    1.5267    1.3276   19.8311 H   0  0  0  0  0  0  0  0  0  0  0  0
    2.5946    0.3257   21.8297 H   0  0  0  0  0  0  0  0  0  0  0  0
   12.2249    1.2198   24.6546 H   0  0  0  0  0  0  0  0  0  0  0  0
    2.8114    1.6120   17.7455 H   0  0  0  0  0  0  0  0  0  0  0  0
    4.9338   -0.3933   21.7630 H   0  0  0  0  0  0  0  0  0  0  0  0
    9.8763    0.5350   24.3454 H   0  0  0  0  0  0  0  0  0  0  0  0
   14.0077    0.1988   23.2842 H   0  0  0  0  0  0  0  0  0  0  0  0
   11.0892   -2.3008   21.3624 H   0  0  0  0  0  0  0  0  0  0  0  0
    5.0078    1.3308   16.4920 H   0  0  0  0  0  0  0  0  0  0  0  0
    8.3038   -0.3142   18.2963 H   0  0  0  0  0  0  0  0  0  0  0  0
    1.4467   -7.1385   22.9300 H   0  0  0  0  0  0  0  0  0  0  0  0
    1.0154   -7.1025   24.6544 H   0  0  0  0  0  0  0  0  0  0  0  0
    2.9763   -8.4015   25.2539 H   0  0  0  0  0  0  0  0  0  0  0  0
    2.4470   -9.1923   23.7523 H   0  0  0  0  0  0  0  0  0  0  0  0
    7.2766   -7.3465   24.3856 H   0  0  0  0  0  0  0  0  0  0  0  0
    7.1658   -5.6737   24.9632 H   0  0  0  0  0  0  0  0  0  0  0  0
    9.4008   -5.7050   24.1747 H   0  0  0  0  0  0  0  0  0  0  0  0
    9.0880   -6.9328   22.9458 H   0  0  0  0  0  0  0  0  0  0  0  0
    2.4012   -5.0119   23.5367 H   0  0  0  0  0  0  0  0  0  0  0  0
    2.8395   -5.5860   25.1642 H   0  0  0  0  0  0  0  0  0  0  0  0
    4.9925   -8.1892   23.9761 H   0  0  0  0  0  0  0  0  0  0  0  0
    4.1001   -8.0040   22.4430 H   0  0  0  0  0  0  0  0  0  0  0  0
    6.1265   -6.9668   22.3958 H   0  0  0  0  0  0  0  0  0  0  0  0
    8.9611   -5.0149   21.5286 H   0  0  0  0  0  0  0  0  0  0  0  0
    8.2436   -1.0112   23.3272 H   0  0  0  0  0  0  0  0  0  0  0  0
    6.8975   -1.6551   21.0614 H   0  0  0  0  0  0  0  0  0  0  0  0
    8.7922   -2.8438   21.1153 H   0  0  0  0  0  0  0  0  0  0  0  0
  1  2  1  0  0  0  0
  1  4  2  0  0  0  0
  2  5  2  0  0  0  0
  3  6  2  0  0  0  0
  3  7  1  0  0  0  0
  4 11  1  0  0  0  0
  5 12  1  0  0  0  0
  6 13  1  0  0  0  0
  7 15  2  0  0  0  0
  8 13  2  0  0  0  0
  8 15  1  0  0  0  0
  9 11  2  0  0  0  0
  9 28  1  0  0  0  0
 10 14  1  0  0  0  0
 10 28  2  0  0  0  0
 11 12  1  0  0  0  0
 12 14  2  0  0  0  0
 13 27  1  0  0  0  0
 14 30  1  0  0  0  0
 15 36  1  0  0  0  0
 16 25  1  0  0  0  0
 16 29  1  0  0  0  0
 16 32  2  0  0  0  0
 17 26  1  0  0  0  0
 17 31  1  0  0  0  0
 17 33  2  0  0  0  0
 18 27  1  6  0  0  0
 18 30  1  0  0  0  0
 18 34  2  0  0  0  0
 19 20  1  0  0  0  0
 19 23  1  0  0  0  0
 20 24  1  0  0  0  0
 21 22  1  0  0  0  0
 21 25  1  0  0  0  0
 22 26  1  0  0  0  0
 23 29  1  0  0  0  0
 24 29  1  0  0  0  0
 25 35  1  0  0  0  0
 26 35  1  0  0  0  0
 27 31  1  0  0  0  0
  1 37  1  0  0  0  0
  2 38  1  0  0  0  0
  3 39  1  0  0  0  0
  4 40  1  0  0  0  0
  5 41  1  0  0  0  0
  6 42  1  0  0  0  0
  7 43  1  0  0  0  0
  8 44  1  0  0  0  0
  9 45  1  0  0  0  0
 10 46  1  0  0  0  0
 19 47  1  0  0  0  0
 19 48  1  0  0  0  0
 20 49  1  0  0  0  0
 20 50  1  0  0  0  0
 21 51  1  0  0  0  0
 21 52  1  0  0  0  0
 22 53  1  0  0  0  0
 22 54  1  0  0  0  0
 23 55  1  0  0  0  0
 23 56  1  0  0  0  0
 24 57  1  0  0  0  0
 24 58  1  0  0  0  0
 25 59  1  0  0  0  0
 26 60  1  0  0  0  0
 27 61  1  0  0  0  0
 30 62  1  0  0  0  0
 31 63  1  0  0  0  0
M  END
> <compound>
MAT-POS-8293a91a-7

> <compound_smiles>
c1ccc2c(c1)cncc2NC(=O)C(c3cccc(c3)Cl)NC(=O)[C@H]4CC[C@H](O4)C(=O)N5CCCC5

> <enantiomer_smiles>
c1ccc2c(c1)cncc2NC(=O)[C@H](c3cccc(c3)Cl)NC(=O)[C@H]4CC[C@H](O4)C(=O)N5CCCC5

> <scaffold>
chlorobenzene-linker

> <canonical_CID>
MAT-POS-8293a91a-7

> <r_inhibition_at_20_uM>

> <r_inhibition_at_50_uM>

> <r_avg_IC50>

> <f_inhibition_at_20_uM>

> <f_inhibition_at_50_uM>

> <f_avg_IC50>
19.3550865764734

> <f_avg_pIC50>

> <relative_solubility_at_20_uM>

> <relative_solubility_at_100_uM>

> <trypsin_IC50>

> <NMR_std_ratio>

> <acrylamide>
False

> <chloroacetamide>
False

> <series>
Ugi

> <frag_id>

> <clash_score>
0

> <docking_score>
-2.943063259124756

> <overlap_score>
0.8815256357192993

> <MMFF_internal_energy>
166.59509759140226

> <docked_smiles>
c1ccc2c(c1)cncc2NC(=O)[C@H](c3cccc(c3)Cl)NC(=O)[C@H]4CC[C@H](O4)C(=O)N5CCCC5

$$$$
BEN-DND-1e24cf73-5_1
  -OEChem-07262101023D

 36 38  0     0  0  0  0  0  0999 V2000
    4.5147    0.9231   23.2615 C   0  0  0  0  0  0  0  0  0  0  0  0
    3.9753    2.2090   23.2954 C   0  0  0  0  0  0  0  0  0  0  0  0
   11.9780    0.4600   23.9150 C   0  0  0  0  0  0  0  0  0  0  0  0
   10.6560    0.0720   23.7350 C   0  0  0  0  0  0  0  0  0  0  0  0
    5.0479    0.4215   22.0741 C   0  0  0  0  0  0  0  0  0  0  0  0
    3.9689    2.9932   22.1419 C   0  0  0  0  0  0  0  0  0  0  0  0
   12.9840   -0.1200   23.1530 C   0  0  0  0  0  0  0  0  0  0  0  0
   11.3360   -1.5050   22.0650 C   0  0  0  0  0  0  0  0  0  0  0  0
    6.7422   -0.3737   18.2516 C   0  0  0  0  0  0  0  0  0  0  0  0
    5.1616    1.0341   18.4760 C   0  0  0  0  0  0  0  0  0  0  0  0
   10.3220   -0.8940   22.7910 C   0  0  0  0  0  0  0  0  0  0  0  0
    5.0414    1.2057   20.9206 C   0  0  0  0  0  0  0  0  0  0  0  0
    4.5019    2.4916   20.9545 C   0  0  0  0  0  0  0  0  0  0  0  0
   12.6400   -1.1000   22.2390 C   0  0  0  0  0  0  0  0  0  0  0  0
    6.5908   -0.2043   19.6076 C   0  0  0  0  0  0  0  0  0  0  0  0
    8.3880   -0.3240   21.3070 C   0  0  0  0  0  0  0  0  0  0  0  0
    8.8810   -1.1900   22.4510 C   0  0  0  0  0  0  0  0  0  0  0  0
    5.8498    0.4001   17.5527 N   0  0  0  0  0  0  0  0  0  0  0  0
    5.5750    0.7007   19.7359 N   0  0  0  0  0  0  0  0  0  0  0  0
    7.2820   -0.7860   20.6970 N   0  0  0  0  0  0  0  0  0  0  0  0
    8.9170    0.7530   21.0260 O   0  0  0  0  0  0  0  0  0  0  0  0
    4.4899    3.2564   19.8531 F   0  0  0  0  0  0  0  0  0  0  0  0
   13.8840   -1.8490   21.2740 Cl  0  0  0  0  0  0  0  0  0  0  0  0
    4.5198    0.3130   24.1597 H   0  0  0  0  0  0  0  0  0  0  0  0
    3.5601    2.5995   24.2199 H   0  0  0  0  0  0  0  0  0  0  0  0
   12.2249    1.2198   24.6546 H   0  0  0  0  0  0  0  0  0  0  0  0
    9.8763    0.5350   24.3454 H   0  0  0  0  0  0  0  0  0  0  0  0
    5.4647   -0.5827   22.0619 H   0  0  0  0  0  0  0  0  0  0  0  0
    3.5489    3.9942   22.1684 H   0  0  0  0  0  0  0  0  0  0  0  0
   14.0077    0.1988   23.2842 H   0  0  0  0  0  0  0  0  0  0  0  0
   11.0892   -2.3009   21.3624 H   0  0  0  0  0  0  0  0  0  0  0  0
    7.4476   -1.0123   17.7390 H   0  0  0  0  0  0  0  0  0  0  0  0
    4.3615    1.7384   18.2889 H   0  0  0  0  0  0  0  0  0  0  0  0
    8.7709   -2.2387   22.1706 H   0  0  0  0  0  0  0  0  0  0  0  0
    8.2491   -1.0157   23.3232 H   0  0  0  0  0  0  0  0  0  0  0  0
    6.8973   -1.6552   21.0612 H   0  0  0  0  0  0  0  0  0  0  0  0
  1  2  1  0  0  0  0
  1  5  2  0  0  0  0
  2  6  2  0  0  0  0
  3  4  2  0  0  0  0
  3  7  1  0  0  0  0
  4 11  1  0  0  0  0
  5 12  1  0  0  0  0
  6 13  1  0  0  0  0
  7 14  2  0  0  0  0
  8 11  2  0  0  0  0
  8 14  1  0  0  0  0
  9 15  2  0  0  0  0
  9 18  1  0  0  0  0
 10 18  2  0  0  0  0
 10 19  1  0  0  0  0
 11 17  1  0  0  0  0
 12 13  2  0  0  0  0
 12 19  1  0  0  0  0
 13 22  1  0  0  0  0
 14 23  1  0  0  0  0
 15 19  1  0  0  0  0
 15 20  1  0  0  0  0
 16 17  1  0  0  0  0
 16 20  1  0  0  0  0
 16 21  2  0  0  0  0
  1 24  1  0  0  0  0
  2 25  1  0  0  0  0
  3 26  1  0  0  0  0
  4 27  1  0  0  0  0
  5 28  1  0  0  0  0
  6 29  1  0  0  0  0
  7 30  1  0  0  0  0
  8 31  1  0  0  0  0
  9 32  1  0  0  0  0
 10 33  1  0  0  0  0
 17 34  1  0  0  0  0
 17 35  1  0  0  0  0
 20 36  1  0  0  0  0
M  END
> <compound>
BEN-DND-1e24cf73-5

> <compound_smiles>
c1ccc(c(c1)n2cncc2NC(=O)Cc3cccc(c3)Cl)F

> <enantiomer_smiles>
c1ccc(c(c1)n2cncc2NC(=O)Cc3cccc(c3)Cl)F

> <scaffold>
chlorobenzene-linker

> <clash_score>
0

> <docking_score>
-8.542462348937988

> <overlap_score>
0.9392030239105225

> <MMFF_internal_energy>
118.9080399192924

> <docked_smiles>
c1ccc(c(c1)n2cncc2NC(=O)Cc3cccc(c3)Cl)F

$$$$
BEN-DND-1e24cf73-6_1
  -OEChem-07262101023D

 40 42  0     0  0  0  0  0  0999 V2000
   11.9780    0.4600   23.9150 C   0  0  0  0  0  0  0  0  0  0  0  0
    3.9688    2.9975   22.1354 C   0  0  0  0  0  0  0  0  0  0  0  0
   10.6560    0.0720   23.7350 C   0  0  0  0  0  0  0  0  0  0  0  0
    4.5030    2.4922   20.9502 C   0  0  0  0  0  0  0  0  0  0  0  0
    3.9730    2.2165   23.2912 C   0  0  0  0  0  0  0  0  0  0  0  0
   12.9840   -0.1200   23.1530 C   0  0  0  0  0  0  0  0  0  0  0  0
   11.3360   -1.5050   22.0650 C   0  0  0  0  0  0  0  0  0  0  0  0
    5.0456    0.4247   22.0763 C   0  0  0  0  0  0  0  0  0  0  0  0
    6.7422   -0.3737   18.2516 C   0  0  0  0  0  0  0  0  0  0  0  0
    5.1616    1.0341   18.4760 C   0  0  0  0  0  0  0  0  0  0  0  0
   10.3220   -0.8940   22.7910 C   0  0  0  0  0  0  0  0  0  0  0  0
    5.0414    1.2057   20.9206 C   0  0  0  0  0  0  0  0  0  0  0  0
    4.5114    0.9301   23.2616 C   0  0  0  0  0  0  0  0  0  0  0  0
   12.6400   -1.1000   22.2390 C   0  0  0  0  0  0  0  0  0  0  0  0
    6.5908   -0.2043   19.6076 C   0  0  0  0  0  0  0  0  0  0  0  0
    8.3880   -0.3240   21.3070 C   0  0  0  0  0  0  0  0  0  0  0  0
    3.9533    0.7473   25.5661 C   0  0  0  0  0  0  0  0  0  0  0  0
    8.8810   -1.1900   22.4510 C   0  0  0  0  0  0  0  0  0  0  0  0
    5.8498    0.4001   17.5527 N   0  0  0  0  0  0  0  0  0  0  0  0
    5.5750    0.7007   19.7359 N   0  0  0  0  0  0  0  0  0  0  0  0
    7.2820   -0.7860   20.6970 N   0  0  0  0  0  0  0  0  0  0  0  0
    8.9170    0.7530   21.0260 O   0  0  0  0  0  0  0  0  0  0  0  0
    4.5154    0.1682   24.3895 O   0  0  0  0  0  0  0  0  0  0  0  0
   13.8840   -1.8490   21.2740 Cl  0  0  0  0  0  0  0  0  0  0  0  0
   12.2249    1.2198   24.6546 H   0  0  0  0  0  0  0  0  0  0  0  0
    3.5494    3.9991   22.1587 H   0  0  0  0  0  0  0  0  0  0  0  0
    9.8763    0.5350   24.3454 H   0  0  0  0  0  0  0  0  0  0  0  0
    4.4930    3.1112   20.0565 H   0  0  0  0  0  0  0  0  0  0  0  0
    3.5553    2.6165   24.2113 H   0  0  0  0  0  0  0  0  0  0  0  0
   14.0077    0.1988   23.2842 H   0  0  0  0  0  0  0  0  0  0  0  0
   11.0892   -2.3009   21.3624 H   0  0  0  0  0  0  0  0  0  0  0  0
    5.4633   -0.5798   22.0611 H   0  0  0  0  0  0  0  0  0  0  0  0
    7.4476   -1.0123   17.7390 H   0  0  0  0  0  0  0  0  0  0  0  0
    4.3615    1.7384   18.2889 H   0  0  0  0  0  0  0  0  0  0  0  0
    4.0202    0.0345   26.3916 H   0  0  0  0  0  0  0  0  0  0  0  0
    2.9086    1.0096   25.3808 H   0  0  0  0  0  0  0  0  0  0  0  0
    4.5138    1.6499   25.8208 H   0  0  0  0  0  0  0  0  0  0  0  0
    8.7709   -2.2387   22.1706 H   0  0  0  0  0  0  0  0  0  0  0  0
    8.2491   -1.0157   23.3232 H   0  0  0  0  0  0  0  0  0  0  0  0
    6.8973   -1.6552   21.0612 H   0  0  0  0  0  0  0  0  0  0  0  0
  1  3  2  0  0  0  0
  1  6  1  0  0  0  0
  2  4  1  0  0  0  0
  2  5  2  0  0  0  0
  3 11  1  0  0  0  0
  4 12  2  0  0  0  0
  5 13  1  0  0  0  0
  6 14  2  0  0  0  0
  7 11  2  0  0  0  0
  7 14  1  0  0  0  0
  8 12  1  0  0  0  0
  8 13  2  0  0  0  0
  9 15  2  0  0  0  0
  9 19  1  0  0  0  0
 10 19  2  0  0  0  0
 10 20  1  0  0  0  0
 11 18  1  0  0  0  0
 12 20  1  0  0  0  0
 13 23  1  0  0  0  0
 14 24  1  0  0  0  0
 15 20  1  0  0  0  0
 15 21  1  0  0  0  0
 16 18  1  0  0  0  0
 16 21  1  0  0  0  0
 16 22  2  0  0  0  0
 17 23  1  0  0  0  0
  1 25  1  0  0  0  0
  2 26  1  0  0  0  0
  3 27  1  0  0  0  0
  4 28  1  0  0  0  0
  5 29  1  0  0  0  0
  6 30  1  0  0  0  0
  7 31  1  0  0  0  0
  8 32  1  0  0  0  0
  9 33  1  0  0  0  0
 10 34  1  0  0  0  0
 17 35  1  0  0  0  0
 17 36  1  0  0  0  0
 17 37  1  0  0  0  0
 18 38  1  0  0  0  0
 18 39  1  0  0  0  0
 21 40  1  0  0  0  0
M  END
> <compound>
BEN-DND-1e24cf73-6

> <compound_smiles>
COc1cccc(c1)n2cncc2NC(=O)Cc3cccc(c3)Cl

> <enantiomer_smiles>
COc1cccc(c1)n2cncc2NC(=O)Cc3cccc(c3)Cl

> <scaffold>
chlorobenzene-linker

> <clash_score>
0

> <docking_score>
-8.594496726989746

> <overlap_score>
0.9169846177101135

> <MMFF_internal_energy>
128.7161580034278

> <docked_smiles>
COc1cccc(c1)n2cncc2NC(=O)Cc3cccc(c3)Cl

$$$$
EDJ-MED-b24713dc-2_1
  -OEChem-07262101023D

 36 38  0     0  0  0  0  0  0999 V2000
   11.9780    0.4600   23.9150 C   0  0  0  0  0  0  0  0  0  0  0  0
   10.6560    0.0720   23.7350 C   0  0  0  0  0  0  0  0  0  0  0  0
   12.9840   -0.1200   23.1530 C   0  0  0  0  0  0  0  0  0  0  0  0
   11.3360   -1.5050   22.0650 C   0  0  0  0  0  0  0  0  0  0  0  0
    5.5100    0.9607   20.6909 C   0  0  0  0  0  0  0  0  0  0  0  0
   10.3220   -0.8940   22.7910 C   0  0  0  0  0  0  0  0  0  0  0  0
   12.6400   -1.1000   22.2390 C   0  0  0  0  0  0  0  0  0  0  0  0
    6.2595    0.0092   20.0507 C   0  0  0  0  0  0  0  0  0  0  0  0
    4.8627    0.9011   18.5802 C   0  0  0  0  0  0  0  0  0  0  0  0
    4.2021    1.1186   17.2666 C   0  0  0  0  0  0  0  0  0  0  0  0
    4.6453    0.3488   16.2599 C   0  0  0  0  0  0  0  0  0  0  0  0
    5.7075   -0.6249   16.4837 C   0  0  0  0  0  0  0  0  0  0  0  0
    6.3007   -0.8136   17.6843 C   0  0  0  0  0  0  0  0  0  0  0  0
    8.3880   -0.3240   21.3070 C   0  0  0  0  0  0  0  0  0  0  0  0
    7.3880   -1.8238   17.8732 C   0  0  0  0  0  0  0  0  0  0  0  0
    8.8810   -1.1900   22.4510 C   0  0  0  0  0  0  0  0  0  0  0  0
    5.8429   -0.0163   18.7301 N   0  0  0  0  0  0  0  0  0  0  0  0
    4.6563    1.4944   19.7582 N   0  3  0  0  0  0  0  0  0  0  0  0
    7.2820   -0.7860   20.6970 N   0  0  0  0  0  0  0  0  0  0  0  0
    8.9170    0.7530   21.0260 O   0  0  0  0  0  0  0  0  0  0  0  0
   13.8840   -1.8490   21.2740 Cl  0  0  0  0  0  0  0  0  0  0  0  0
   12.2249    1.2198   24.6546 H   0  0  0  0  0  0  0  0  0  0  0  0
    9.8763    0.5350   24.3454 H   0  0  0  0  0  0  0  0  0  0  0  0
   14.0077    0.1988   23.2842 H   0  0  0  0  0  0  0  0  0  0  0  0
   11.0892   -2.3009   21.3624 H   0  0  0  0  0  0  0  0  0  0  0  0
    5.4527    1.3475   21.6893 H   0  0  0  0  0  0  0  0  0  0  0  0
    3.4177    1.8547   17.1536 H   0  0  0  0  0  0  0  0  0  0  0  0
    4.2276    0.4315   15.2631 H   0  0  0  0  0  0  0  0  0  0  0  0
    6.0077   -1.2072   15.6175 H   0  0  0  0  0  0  0  0  0  0  0  0
    8.3554   -1.3609   17.6848 H   0  0  0  0  0  0  0  0  0  0  0  0
    7.2430   -2.6530   17.1819 H   0  0  0  0  0  0  0  0  0  0  0  0
    7.3616   -2.2048   18.8933 H   0  0  0  0  0  0  0  0  0  0  0  0
    8.7774   -2.2383   22.1732 H   0  0  0  0  0  0  0  0  0  0  0  0
    8.2557   -1.0153   23.3257 H   0  0  0  0  0  0  0  0  0  0  0  0
    3.9739    2.2264   19.9358 H   0  0  0  0  0  0  0  0  0  0  0  0
    7.1526   -1.7821   20.6891 H   0  0  0  0  0  0  0  0  0  0  0  0
  1  2  2  0  0  0  0
  1  3  1  0  0  0  0
  2  6  1  0  0  0  0
  3  7  2  0  0  0  0
  4  6  2  0  0  0  0
  4  7  1  0  0  0  0
  5  8  2  0  0  0  0
  5 18  1  0  0  0  0
  6 16  1  0  0  0  0
  7 21  1  0  0  0  0
  8 17  1  0  0  0  0
  8 19  1  0  0  0  0
  9 10  1  0  0  0  0
  9 17  1  0  0  0  0
  9 18  2  0  0  0  0
 10 11  2  0  0  0  0
 11 12  1  0  0  0  0
 12 13  2  0  0  0  0
 13 15  1  0  0  0  0
 13 17  1  0  0  0  0
 14 16  1  0  0  0  0
 14 19  1  0  0  0  0
 14 20  2  0  0  0  0
  1 22  1  0  0  0  0
  2 23  1  0  0  0  0
  3 24  1  0  0  0  0
  4 25  1  0  0  0  0
  5 26  1  0  0  0  0
 10 27  1  0  0  0  0
 11 28  1  0  0  0  0
 12 29  1  0  0  0  0
 15 30  1  0  0  0  0
 15 31  1  0  0  0  0
 15 32  1  0  0  0  0
 16 33  1  0  0  0  0
 16 34  1  0  0  0  0
 18 35  1  0  0  0  0
 19 36  1  0  0  0  0
M  CHG  1  18   1
M  END
> <compound>
EDJ-MED-b24713dc-2

> <compound_smiles>
Cc1cccc2n1c(cn2)NC(=O)Cc3cccc(c3)Cl

> <enantiomer_smiles>
Cc1cccc2n1c(cn2)NC(=O)Cc3cccc(c3)Cl

> <scaffold>
chlorobenzene-linker

> <clash_score>
0.6341254772866083

> <docking_score>
-3.087197780609131

> <overlap_score>
0.8650801181793213

> <MMFF_internal_energy>
52.90020362085454

> <docked_smiles>
Cc1cccc2n1c(c[nH+]2)NC(=O)Cc3cccc(c3)Cl

$$$$
EDJ-MED-b24713dc-1_1
  -OEChem-07262101023D

 36 38  0     0  0  0  0  0  0999 V2000
   11.9780    0.4600   23.9150 C   0  0  0  0  0  0  0  0  0  0  0  0
   10.6560    0.0720   23.7350 C   0  0  0  0  0  0  0  0  0  0  0  0
   12.9840   -0.1200   23.1530 C   0  0  0  0  0  0  0  0  0  0  0  0
   11.3360   -1.5050   22.0650 C   0  0  0  0  0  0  0  0  0  0  0  0
    5.4908   -0.3875   18.9880 C   0  0  0  0  0  0  0  0  0  0  0  0
   10.3220   -0.8940   22.7910 C   0  0  0  0  0  0  0  0  0  0  0  0
   12.6400   -1.1000   22.2390 C   0  0  0  0  0  0  0  0  0  0  0  0
    6.2597    0.0083   20.0509 C   0  0  0  0  0  0  0  0  0  0  0  0
    4.8854    1.6687   19.5269 C   0  0  0  0  0  0  0  0  0  0  0  0
    4.2608    3.0157   19.6327 C   0  0  0  0  0  0  0  0  0  0  0  0
    5.8072    3.3319   21.4891 C   0  0  0  0  0  0  0  0  0  0  0  0
    6.3527    2.1068   21.3682 C   0  0  0  0  0  0  0  0  0  0  0  0
    4.7347    3.8153   20.6097 C   0  0  0  0  0  0  0  0  0  0  0  0
    8.3880   -0.3240   21.3070 C   0  0  0  0  0  0  0  0  0  0  0  0
    4.2185    5.1980   20.8556 C   0  0  0  0  0  0  0  0  0  0  0  0
    8.8810   -1.1900   22.4510 C   0  0  0  0  0  0  0  0  0  0  0  0
    5.8666    1.2913   20.3694 N   0  0  0  0  0  0  0  0  0  0  0  0
    4.6500    0.6583   18.6859 N   0  3  0  0  0  0  0  0  0  0  0  0
    7.2820   -0.7860   20.6970 N   0  0  0  0  0  0  0  0  0  0  0  0
    8.9170    0.7530   21.0260 O   0  0  0  0  0  0  0  0  0  0  0  0
   13.8840   -1.8490   21.2740 Cl  0  0  0  0  0  0  0  0  0  0  0  0
   12.2249    1.2198   24.6546 H   0  0  0  0  0  0  0  0  0  0  0  0
    9.8763    0.5350   24.3454 H   0  0  0  0  0  0  0  0  0  0  0  0
   14.0077    0.1988   23.2842 H   0  0  0  0  0  0  0  0  0  0  0  0
   11.0892   -2.3009   21.3624 H   0  0  0  0  0  0  0  0  0  0  0  0
    5.4102   -1.2720   18.3874 H   0  0  0  0  0  0  0  0  0  0  0  0
    3.4742    3.3038   18.9471 H   0  0  0  0  0  0  0  0  0  0  0  0
    6.1628    4.0026   22.2652 H   0  0  0  0  0  0  0  0  0  0  0  0
    7.1422    1.7356   22.0083 H   0  0  0  0  0  0  0  0  0  0  0  0
    3.3921    5.1602   21.5635 H   0  0  0  0  0  0  0  0  0  0  0  0
    3.8728    5.6328   19.9187 H   0  0  0  0  0  0  0  0  0  0  0  0
    5.0150    5.8199   21.2618 H   0  0  0  0  0  0  0  0  0  0  0  0
    8.7774   -2.2383   22.1732 H   0  0  0  0  0  0  0  0  0  0  0  0
    8.2557   -1.0153   23.3257 H   0  0  0  0  0  0  0  0  0  0  0  0
    3.9588    0.6621   17.9410 H   0  0  0  0  0  0  0  0  0  0  0  0
    7.1527   -1.7824   20.6892 H   0  0  0  0  0  0  0  0  0  0  0  0
  1  2  2  0  0  0  0
  1  3  1  0  0  0  0
  2  6  1  0  0  0  0
  3  7  2  0  0  0  0
  4  6  2  0  0  0  0
  4  7  1  0  0  0  0
  5  8  2  0  0  0  0
  5 18  1  0  0  0  0
  6 16  1  0  0  0  0
  7 21  1  0  0  0  0
  8 17  1  0  0  0  0
  8 19  1  0  0  0  0
  9 10  1  0  0  0  0
  9 17  1  0  0  0  0
  9 18  2  0  0  0  0
 10 13  2  0  0  0  0
 11 12  2  0  0  0  0
 11 13  1  0  0  0  0
 12 17  1  0  0  0  0
 13 15  1  0  0  0  0
 14 16  1  0  0  0  0
 14 19  1  0  0  0  0
 14 20  2  0  0  0  0
  1 22  1  0  0  0  0
  2 23  1  0  0  0  0
  3 24  1  0  0  0  0
  4 25  1  0  0  0  0
  5 26  1  0  0  0  0
 10 27  1  0  0  0  0
 11 28  1  0  0  0  0
 12 29  1  0  0  0  0
 15 30  1  0  0  0  0
 15 31  1  0  0  0  0
 15 32  1  0  0  0  0
 16 33  1  0  0  0  0
 16 34  1  0  0  0  0
 18 35  1  0  0  0  0
 19 36  1  0  0  0  0
M  CHG  1  18   1
M  END
> <compound>
EDJ-MED-b24713dc-1

> <compound_smiles>
Cc1ccn2c(c1)ncc2NC(=O)Cc3cccc(c3)Cl

> <enantiomer_smiles>
Cc1ccn2c(c1)ncc2NC(=O)Cc3cccc(c3)Cl

> <scaffold>
chlorobenzene-linker

> <clash_score>
0.6371099173932289

> <docking_score>
-5.49830436706543

> <overlap_score>
0.8062582612037659

> <MMFF_internal_energy>
41.81687360566017

> <docked_smiles>
Cc1ccn2c(c1)[nH+]cc2NC(=O)Cc3cccc(c3)Cl

$$$$
PET-UNK-d899bab6-2_1
  -OEChem-07262101023D

 42 44  0     0  0  0  0  0  0999 V2000
   11.9780    0.4600   23.9150 C   0  0  0  0  0  0  0  0  0  0  0  0
   10.6560    0.0720   23.7350 C   0  0  0  0  0  0  0  0  0  0  0  0
   12.9840   -0.1200   23.1530 C   0  0  0  0  0  0  0  0  0  0  0  0
    5.1215    1.1111   21.0627 C   0  0  0  0  0  0  0  0  0  0  0  0
    3.8523    2.1351   18.7962 C   0  0  0  0  0  0  0  0  0  0  0  0
   11.3360   -1.5050   22.0650 C   0  0  0  0  0  0  0  0  0  0  0  0
    5.3519    0.7768   17.4006 C   0  0  0  0  0  0  0  0  0  0  0  0
    6.9508   -0.5834   18.3324 C   0  0  0  0  0  0  0  0  0  0  0  0
    5.5460    0.6945   19.7904 C   0  0  0  0  0  0  0  0  0  0  0  0
    4.9025    1.2140   18.6481 C   0  0  0  0  0  0  0  0  0  0  0  0
   10.3220   -0.8940   22.7910 C   0  0  0  0  0  0  0  0  0  0  0  0
    4.0767    2.0270   21.1980 C   0  0  0  0  0  0  0  0  0  0  0  0
    6.5902   -0.2221   19.6216 C   0  0  0  0  0  0  0  0  0  0  0  0
    3.4435    2.5378   20.0673 C   0  0  0  0  0  0  0  0  0  0  0  0
   12.6400   -1.1000   22.2390 C   0  0  0  0  0  0  0  0  0  0  0  0
    8.3880   -0.3240   21.3070 C   0  0  0  0  0  0  0  0  0  0  0  0
    4.3152    1.9091   23.6657 C   0  0  0  0  0  0  0  0  0  0  0  0
    2.5885    3.3957   22.6376 C   0  0  0  0  0  0  0  0  0  0  0  0
    8.8810   -1.1900   22.4510 C   0  0  0  0  0  0  0  0  0  0  0  0
    6.3583   -0.1074   17.2167 N   0  0  0  0  0  0  0  0  0  0  0  0
    7.2820   -0.7860   20.6970 N   0  0  0  0  0  0  0  0  0  0  0  0
    3.6625    2.4350   22.4836 N   0  0  0  0  0  0  0  0  0  0  0  0
    8.9170    0.7530   21.0260 O   0  0  0  0  0  0  0  0  0  0  0  0
    2.4388    3.4170   20.1894 F   0  0  0  0  0  0  0  0  0  0  0  0
   13.8840   -1.8490   21.2740 Cl  0  0  0  0  0  0  0  0  0  0  0  0
   12.2249    1.2198   24.6546 H   0  0  0  0  0  0  0  0  0  0  0  0
    9.8763    0.5350   24.3454 H   0  0  0  0  0  0  0  0  0  0  0  0
   14.0077    0.1988   23.2842 H   0  0  0  0  0  0  0  0  0  0  0  0
    5.5981    0.7276   21.9630 H   0  0  0  0  0  0  0  0  0  0  0  0
    3.3467    2.5435   17.9242 H   0  0  0  0  0  0  0  0  0  0  0  0
   11.0892   -2.3009   21.3624 H   0  0  0  0  0  0  0  0  0  0  0  0
    4.8992    1.1371   16.4808 H   0  0  0  0  0  0  0  0  0  0  0  0
    7.7534   -1.2920   18.1486 H   0  0  0  0  0  0  0  0  0  0  0  0
    3.8536    2.3443   24.5643 H   0  0  0  0  0  0  0  0  0  0  0  0
    4.2039    0.8150   23.6898 H   0  0  0  0  0  0  0  0  0  0  0  0
    5.3838    2.1685   23.6404 H   0  0  0  0  0  0  0  0  0  0  0  0
    2.4143    3.5834   23.7074 H   0  0  0  0  0  0  0  0  0  0  0  0
    2.8648    4.3372   22.1404 H   0  0  0  0  0  0  0  0  0  0  0  0
    1.6708    2.9958   22.1815 H   0  0  0  0  0  0  0  0  0  0  0  0
    8.7774   -2.2383   22.1732 H   0  0  0  0  0  0  0  0  0  0  0  0
    8.2557   -1.0153   23.3257 H   0  0  0  0  0  0  0  0  0  0  0  0
    6.8981   -1.6619   21.0675 H   0  0  0  0  0  0  0  0  0  0  0  0
  1  2  2  0  0  0  0
  1  3  1  0  0  0  0
  2 11  1  0  0  0  0
  3 15  2  0  0  0  0
  4  9  2  0  0  0  0
  4 12  1  0  0  0  0
  5 10  2  0  0  0  0
  5 14  1  0  0  0  0
  6 11  2  0  0  0  0
  6 15  1  0  0  0  0
  7 10  1  0  0  0  0
  7 20  2  0  0  0  0
  8 13  2  0  0  0  0
  8 20  1  0  0  0  0
  9 10  1  0  0  0  0
  9 13  1  0  0  0  0
 11 19  1  0  0  0  0
 12 14  2  0  0  0  0
 12 22  1  0  0  0  0
 13 21  1  0  0  0  0
 14 24  1  0  0  0  0
 15 25  1  0  0  0  0
 16 19  1  0  0  0  0
 16 21  1  0  0  0  0
 16 23  2  0  0  0  0
 17 22  1  0  0  0  0
 18 22  1  0  0  0  0
  1 26  1  0  0  0  0
  2 27  1  0  0  0  0
  3 28  1  0  0  0  0
  4 29  1  0  0  0  0
  5 30  1  0  0  0  0
  6 31  1  0  0  0  0
  7 32  1  0  0  0  0
  8 33  1  0  0  0  0
 17 34  1  0  0  0  0
 17 35  1  0  0  0  0
 17 36  1  0  0  0  0
 18 37  1  0  0  0  0
 18 38  1  0  0  0  0
 18 39  1  0  0  0  0
 19 40  1  0  0  0  0
 19 41  1  0  0  0  0
 21 42  1  0  0  0  0
M  END
> <compound>
PET-UNK-d899bab6-2

> <compound_smiles>
CN(C)c1cc2c(cc1F)cncc2NC(=O)Cc3cccc(c3)Cl

> <enantiomer_smiles>
CN(C)c1cc2c(cc1F)cncc2NC(=O)Cc3cccc(c3)Cl

> <scaffold>
chlorobenzene-linker

> <clash_score>
0

> <docking_score>
-11.09017276763916

> <overlap_score>
1.0150190591812134

> <MMFF_internal_energy>
121.99123736272323

> <docked_smiles>
CN(C)c1cc2c(cc1F)cncc2NC(=O)Cc3cccc(c3)Cl

$$$$
EDJ-MED-b24713dc-3_1
  -OEChem-07262101023D

 36 38  0     0  0  0  0  0  0999 V2000
   11.9780    0.4600   23.9150 C   0  0  0  0  0  0  0  0  0  0  0  0
   10.6560    0.0720   23.7350 C   0  0  0  0  0  0  0  0  0  0  0  0
   12.9840   -0.1200   23.1530 C   0  0  0  0  0  0  0  0  0  0  0  0
   11.3360   -1.5050   22.0650 C   0  0  0  0  0  0  0  0  0  0  0  0
    5.4907   -0.3874   18.9879 C   0  0  0  0  0  0  0  0  0  0  0  0
   10.3220   -0.8940   22.7910 C   0  0  0  0  0  0  0  0  0  0  0  0
   12.6400   -1.1000   22.2390 C   0  0  0  0  0  0  0  0  0  0  0  0
    6.2597    0.0084   20.0508 C   0  0  0  0  0  0  0  0  0  0  0  0
    4.8849    1.6680   19.5278 C   0  0  0  0  0  0  0  0  0  0  0  0
    4.2619    3.0130   19.6359 C   0  0  0  0  0  0  0  0  0  0  0  0
    4.7408    3.8013   20.6143 C   0  0  0  0  0  0  0  0  0  0  0  0
    6.3527    2.1043   21.3731 C   0  0  0  0  0  0  0  0  0  0  0  0
    5.8122    3.3352   21.5044 C   0  0  0  0  0  0  0  0  0  0  0  0
    8.3880   -0.3240   21.3070 C   0  0  0  0  0  0  0  0  0  0  0  0
    6.2673    4.2983   22.5585 C   0  0  0  0  0  0  0  0  0  0  0  0
    8.8810   -1.1900   22.4510 C   0  0  0  0  0  0  0  0  0  0  0  0
    5.8656    1.2912   20.3710 N   0  0  0  0  0  0  0  0  0  0  0  0
    4.6501    0.6583   18.6860 N   0  3  0  0  0  0  0  0  0  0  0  0
    7.2820   -0.7860   20.6970 N   0  0  0  0  0  0  0  0  0  0  0  0
    8.9170    0.7530   21.0260 O   0  0  0  0  0  0  0  0  0  0  0  0
   13.8840   -1.8490   21.2740 Cl  0  0  0  0  0  0  0  0  0  0  0  0
   12.2249    1.2198   24.6546 H   0  0  0  0  0  0  0  0  0  0  0  0
    9.8763    0.5350   24.3454 H   0  0  0  0  0  0  0  0  0  0  0  0
   14.0077    0.1988   23.2842 H   0  0  0  0  0  0  0  0  0  0  0  0
   11.0892   -2.3009   21.3624 H   0  0  0  0  0  0  0  0  0  0  0  0
    5.4110   -1.2720   18.3871 H   0  0  0  0  0  0  0  0  0  0  0  0
    3.4748    3.3163   18.9587 H   0  0  0  0  0  0  0  0  0  0  0  0
    4.3407    4.7989   20.7611 H   0  0  0  0  0  0  0  0  0  0  0  0
    7.1431    1.7200   22.0059 H   0  0  0  0  0  0  0  0  0  0  0  0
    5.6769    4.1559   23.4613 H   0  0  0  0  0  0  0  0  0  0  0  0
    6.1423    5.3181   22.1993 H   0  0  0  0  0  0  0  0  0  0  0  0
    7.3188    4.1256   22.7804 H   0  0  0  0  0  0  0  0  0  0  0  0
    8.7774   -2.2383   22.1732 H   0  0  0  0  0  0  0  0  0  0  0  0
    8.2557   -1.0153   23.3257 H   0  0  0  0  0  0  0  0  0  0  0  0
    3.9601    0.6621   17.9398 H   0  0  0  0  0  0  0  0  0  0  0  0
    7.1527   -1.7824   20.6892 H   0  0  0  0  0  0  0  0  0  0  0  0
  1  2  2  0  0  0  0
  1  3  1  0  0  0  0
  2  6  1  0  0  0  0
  3  7  2  0  0  0  0
  4  6  2  0  0  0  0
  4  7  1  0  0  0  0
  5  8  2  0  0  0  0
  5 18  1  0  0  0  0
  6 16  1  0  0  0  0
  7 21  1  0  0  0  0
  8 17  1  0  0  0  0
  8 19  1  0  0  0  0
  9 10  1  0  0  0  0
  9 17  1  0  0  0  0
  9 18  2  0  0  0  0
 10 11  2  0  0  0  0
 11 13  1  0  0  0  0
 12 13  2  0  0  0  0
 12 17  1  0  0  0  0
 13 15  1  0  0  0  0
 14 16  1  0  0  0  0
 14 19  1  0  0  0  0
 14 20  2  0  0  0  0
  1 22  1  0  0  0  0
  2 23  1  0  0  0  0
  3 24  1  0  0  0  0
  4 25  1  0  0  0  0
  5 26  1  0  0  0  0
 10 27  1  0  0  0  0
 11 28  1  0  0  0  0
 12 29  1  0  0  0  0
 15 30  1  0  0  0  0
 15 31  1  0  0  0  0
 15 32  1  0  0  0  0
 16 33  1  0  0  0  0
 16 34  1  0  0  0  0
 18 35  1  0  0  0  0
 19 36  1  0  0  0  0
M  CHG  1  18   1
M  END
> <compound>
EDJ-MED-b24713dc-3

> <compound_smiles>
Cc1ccc2ncc(n2c1)NC(=O)Cc3cccc(c3)Cl

> <enantiomer_smiles>
Cc1ccc2ncc(n2c1)NC(=O)Cc3cccc(c3)Cl

> <scaffold>
chlorobenzene-linker

> <clash_score>
0

> <docking_score>
-6.228944778442383

> <overlap_score>
0.8058695793151855

> <MMFF_internal_energy>
43.687378873627324

> <docked_smiles>
Cc1ccc2[nH+]cc(n2c1)NC(=O)Cc3cccc(c3)Cl

$$$$
MAT-POS-29385cc1-3_1
  -OEChem-07262101023D

 37 39  0     0  0  0  0  0  0999 V2000
   11.9780    0.4600   23.9150 C   0  0  0  0  0  0  0  0  0  0  0  0
    5.1217    1.1103   21.0637 C   0  0  0  0  0  0  0  0  0  0  0  0
   10.6560    0.0720   23.7350 C   0  0  0  0  0  0  0  0  0  0  0  0
    4.0766    2.0257   21.1998 C   0  0  0  0  0  0  0  0  0  0  0  0
   12.9840   -0.1200   23.1530 C   0  0  0  0  0  0  0  0  0  0  0  0
    3.8510    2.1343   18.7981 C   0  0  0  0  0  0  0  0  0  0  0  0
   11.3360   -1.5050   22.0650 C   0  0  0  0  0  0  0  0  0  0  0  0
    5.3505    0.7768   17.4014 C   0  0  0  0  0  0  0  0  0  0  0  0
    6.9503   -0.5830   18.3322 C   0  0  0  0  0  0  0  0  0  0  0  0
    5.5458    0.6941   19.7911 C   0  0  0  0  0  0  0  0  0  0  0  0
    4.9015    1.2136   18.6493 C   0  0  0  0  0  0  0  0  0  0  0  0
    3.4427    2.5366   20.0695 C   0  0  0  0  0  0  0  0  0  0  0  0
   10.3220   -0.8940   22.7910 C   0  0  0  0  0  0  0  0  0  0  0  0
    6.5902   -0.2221   19.6216 C   0  0  0  0  0  0  0  0  0  0  0  0
   12.6400   -1.1000   22.2390 C   0  0  0  0  0  0  0  0  0  0  0  0
    8.3880   -0.3240   21.3070 C   0  0  0  0  0  0  0  0  0  0  0  0
    2.3265    3.5142   20.2200 C   0  0  0  0  0  0  0  0  0  0  0  0
    8.8810   -1.1900   22.4510 C   0  0  0  0  0  0  0  0  0  0  0  0
    6.3571   -0.1069   17.2168 N   0  0  0  0  0  0  0  0  0  0  0  0
    7.2820   -0.7860   20.6970 N   0  0  0  0  0  0  0  0  0  0  0  0
    8.9170    0.7530   21.0260 O   0  0  0  0  0  0  0  0  0  0  0  0
   13.8840   -1.8490   21.2740 Cl  0  0  0  0  0  0  0  0  0  0  0  0
   12.2249    1.2198   24.6546 H   0  0  0  0  0  0  0  0  0  0  0  0
    5.5910    0.7339   21.9698 H   0  0  0  0  0  0  0  0  0  0  0  0
    9.8763    0.5350   24.3454 H   0  0  0  0  0  0  0  0  0  0  0  0
    3.7631    2.3341   22.1938 H   0  0  0  0  0  0  0  0  0  0  0  0
   14.0077    0.1988   23.2842 H   0  0  0  0  0  0  0  0  0  0  0  0
    3.3504    2.5377   17.9202 H   0  0  0  0  0  0  0  0  0  0  0  0
   11.0892   -2.3009   21.3624 H   0  0  0  0  0  0  0  0  0  0  0  0
    4.8991    1.1389   16.4815 H   0  0  0  0  0  0  0  0  0  0  0  0
    7.7538   -1.2903   18.1473 H   0  0  0  0  0  0  0  0  0  0  0  0
    2.7158    4.5396   20.2303 H   0  0  0  0  0  0  0  0  0  0  0  0
    1.6046    3.4243   19.3980 H   0  0  0  0  0  0  0  0  0  0  0  0
    1.7705    3.3437   21.1511 H   0  0  0  0  0  0  0  0  0  0  0  0
    8.7775   -2.2383   22.1732 H   0  0  0  0  0  0  0  0  0  0  0  0
    8.2557   -1.0153   23.3257 H   0  0  0  0  0  0  0  0  0  0  0  0
    6.8981   -1.6619   21.0675 H   0  0  0  0  0  0  0  0  0  0  0  0
  1  3  2  0  0  0  0
  1  5  1  0  0  0  0
  2  4  2  0  0  0  0
  2 10  1  0  0  0  0
  3 13  1  0  0  0  0
  4 12  1  0  0  0  0
  5 15  2  0  0  0  0
  6 11  1  0  0  0  0
  6 12  2  0  0  0  0
  7 13  2  0  0  0  0
  7 15  1  0  0  0  0
  8 11  2  0  0  0  0
  8 19  1  0  0  0  0
  9 14  1  0  0  0  0
  9 19  2  0  0  0  0
 10 11  1  0  0  0  0
 10 14  2  0  0  0  0
 12 17  1  0  0  0  0
 13 18  1  0  0  0  0
 14 20  1  0  0  0  0
 15 22  1  0  0  0  0
 16 18  1  0  0  0  0
 16 20  1  0  0  0  0
 16 21  2  0  0  0  0
  1 23  1  0  0  0  0
  2 24  1  0  0  0  0
  3 25  1  0  0  0  0
  4 26  1  0  0  0  0
  5 27  1  0  0  0  0
  6 28  1  0  0  0  0
  7 29  1  0  0  0  0
  8 30  1  0  0  0  0
  9 31  1  0  0  0  0
 17 32  1  0  0  0  0
 17 33  1  0  0  0  0
 17 34  1  0  0  0  0
 18 35  1  0  0  0  0
 18 36  1  0  0  0  0
 20 37  1  0  0  0  0
M  END
> <compound>
MAT-POS-29385cc1-3

> <compound_smiles>
Cc1ccc2c(c1)cncc2NC(=O)Cc3cccc(c3)Cl

> <enantiomer_smiles>
Cc1ccc2c(c1)cncc2NC(=O)Cc3cccc(c3)Cl

> <scaffold>
chlorobenzene-linker

> <clash_score>
0

> <docking_score>
-11.531936645507812

> <overlap_score>
1.0

> <MMFF_internal_energy>
102.21877137138577

> <docked_smiles>
Cc1ccc2c(c1)cncc2NC(=O)Cc3cccc(c3)Cl

$$$$
EDJ-MED-b24713dc-4_1
  -OEChem-07262101023D

 36 38  0     0  0  0  0  0  0999 V2000
   11.9780    0.4600   23.9150 C   0  0  0  0  0  0  0  0  0  0  0  0
   10.6560    0.0720   23.7350 C   0  0  0  0  0  0  0  0  0  0  0  0
   12.9840   -0.1200   23.1530 C   0  0  0  0  0  0  0  0  0  0  0  0
   11.3360   -1.5050   22.0650 C   0  0  0  0  0  0  0  0  0  0  0  0
    5.4911   -0.3874   18.9884 C   0  0  0  0  0  0  0  0  0  0  0  0
   10.3220   -0.8940   22.7910 C   0  0  0  0  0  0  0  0  0  0  0  0
   12.6400   -1.1000   22.2390 C   0  0  0  0  0  0  0  0  0  0  0  0
    6.2597    0.0084   20.0509 C   0  0  0  0  0  0  0  0  0  0  0  0
    4.8828    1.6701   19.5282 C   0  0  0  0  0  0  0  0  0  0  0  0
    5.8101    3.3271   21.4970 C   0  0  0  0  0  0  0  0  0  0  0  0
    4.7441    3.8049   20.6215 C   0  0  0  0  0  0  0  0  0  0  0  0
    6.3541    2.1024   21.3726 C   0  0  0  0  0  0  0  0  0  0  0  0
    4.2556    3.0237   19.6379 C   0  0  0  0  0  0  0  0  0  0  0  0
    8.3880   -0.3240   21.3070 C   0  0  0  0  0  0  0  0  0  0  0  0
    3.1745    3.3999   18.6879 C   0  0  0  0  0  0  0  0  0  0  0  0
    8.8810   -1.1900   22.4510 C   0  0  0  0  0  0  0  0  0  0  0  0
    5.8653    1.2909   20.3709 N   0  0  0  0  0  0  0  0  0  0  0  0
    4.6501    0.6579   18.6869 N   0  3  0  0  0  0  0  0  0  0  0  0
    7.2820   -0.7860   20.6970 N   0  0  0  0  0  0  0  0  0  0  0  0
    8.9170    0.7530   21.0260 O   0  0  0  0  0  0  0  0  0  0  0  0
   13.8840   -1.8490   21.2740 Cl  0  0  0  0  0  0  0  0  0  0  0  0
   12.2249    1.2198   24.6546 H   0  0  0  0  0  0  0  0  0  0  0  0
    9.8763    0.5350   24.3454 H   0  0  0  0  0  0  0  0  0  0  0  0
   14.0077    0.1988   23.2842 H   0  0  0  0  0  0  0  0  0  0  0  0
   11.0892   -2.3009   21.3624 H   0  0  0  0  0  0  0  0  0  0  0  0
    5.4110   -1.2718   18.3875 H   0  0  0  0  0  0  0  0  0  0  0  0
    6.1581    4.0051   22.2690 H   0  0  0  0  0  0  0  0  0  0  0  0
    4.3646    4.8058   20.7940 H   0  0  0  0  0  0  0  0  0  0  0  0
    7.1442    1.7286   22.0106 H   0  0  0  0  0  0  0  0  0  0  0  0
    2.2017    3.1180   19.0957 H   0  0  0  0  0  0  0  0  0  0  0  0
    3.3198    2.8911   17.7325 H   0  0  0  0  0  0  0  0  0  0  0  0
    3.1871    4.4778   18.5126 H   0  0  0  0  0  0  0  0  0  0  0  0
    8.7775   -2.2383   22.1732 H   0  0  0  0  0  0  0  0  0  0  0  0
    8.2557   -1.0153   23.3257 H   0  0  0  0  0  0  0  0  0  0  0  0
    3.9599    0.6596   17.9410 H   0  0  0  0  0  0  0  0  0  0  0  0
    7.1527   -1.7824   20.6892 H   0  0  0  0  0  0  0  0  0  0  0  0
  1  2  2  0  0  0  0
  1  3  1  0  0  0  0
  2  6  1  0  0  0  0
  3  7  2  0  0  0  0
  4  6  2  0  0  0  0
  4  7  1  0  0  0  0
  5  8  2  0  0  0  0
  5 18  1  0  0  0  0
  6 16  1  0  0  0  0
  7 21  1  0  0  0  0
  8 17  1  0  0  0  0
  8 19  1  0  0  0  0
  9 13  1  0  0  0  0
  9 17  1  0  0  0  0
  9 18  2  0  0  0  0
 10 11  1  0  0  0  0
 10 12  2  0  0  0  0
 11 13  2  0  0  0  0
 12 17  1  0  0  0  0
 13 15  1  0  0  0  0
 14 16  1  0  0  0  0
 14 19  1  0  0  0  0
 14 20  2  0  0  0  0
  1 22  1  0  0  0  0
  2 23  1  0  0  0  0
  3 24  1  0  0  0  0
  4 25  1  0  0  0  0
  5 26  1  0  0  0  0
 10 27  1  0  0  0  0
 11 28  1  0  0  0  0
 12 29  1  0  0  0  0
 15 30  1  0  0  0  0
 15 31  1  0  0  0  0
 15 32  1  0  0  0  0
 16 33  1  0  0  0  0
 16 34  1  0  0  0  0
 18 35  1  0  0  0  0
 19 36  1  0  0  0  0
M  CHG  1  18   1
M  END
> <compound>
EDJ-MED-b24713dc-4

> <compound_smiles>
Cc1cccn2c1ncc2NC(=O)Cc3cccc(c3)Cl

> <enantiomer_smiles>
Cc1cccn2c1ncc2NC(=O)Cc3cccc(c3)Cl

> <scaffold>
chlorobenzene-linker

> <clash_score>
0

> <docking_score>
-5.110431671142578

> <overlap_score>
0.8189157843589783

> <MMFF_internal_energy>
42.68041751126343

> <docked_smiles>
Cc1cccn2c1[nH+]cc2NC(=O)Cc3cccc(c3)Cl

$$$$
MAT-POS-29385cc1-2_1
  -OEChem-07262101023D

 38 40  0     0  0  0  0  0  0999 V2000
   11.9780    0.4600   23.9150 C   0  0  0  0  0  0  0  0  0  0  0  0
   10.6560    0.0720   23.7350 C   0  0  0  0  0  0  0  0  0  0  0  0
   12.9840   -0.1200   23.1530 C   0  0  0  0  0  0  0  0  0  0  0  0
    3.8524    2.1365   18.7992 C   0  0  0  0  0  0  0  0  0  0  0  0
    5.1226    1.1107   21.0643 C   0  0  0  0  0  0  0  0  0  0  0  0
   11.3360   -1.5050   22.0650 C   0  0  0  0  0  0  0  0  0  0  0  0
    5.3509    0.7787   17.4018 C   0  0  0  0  0  0  0  0  0  0  0  0
    6.9500   -0.5825   18.3319 C   0  0  0  0  0  0  0  0  0  0  0  0
    4.9023    1.2152   18.6499 C   0  0  0  0  0  0  0  0  0  0  0  0
    5.5463    0.6948   19.7915 C   0  0  0  0  0  0  0  0  0  0  0  0
   10.3220   -0.8940   22.7910 C   0  0  0  0  0  0  0  0  0  0  0  0
    6.5902   -0.2219   19.6215 C   0  0  0  0  0  0  0  0  0  0  0  0
    3.4445    2.5384   20.0709 C   0  0  0  0  0  0  0  0  0  0  0  0
    4.0781    2.0267   21.2009 C   0  0  0  0  0  0  0  0  0  0  0  0
   12.6400   -1.1000   22.2390 C   0  0  0  0  0  0  0  0  0  0  0  0
    8.3880   -0.3240   21.3070 C   0  0  0  0  0  0  0  0  0  0  0  0
    1.8219    3.9139   19.0074 C   0  0  0  0  0  0  0  0  0  0  0  0
    8.8810   -1.1900   22.4510 C   0  0  0  0  0  0  0  0  0  0  0  0
    6.3570   -0.1056   17.2168 N   0  0  0  0  0  0  0  0  0  0  0  0
    7.2820   -0.7860   20.6970 N   0  0  0  0  0  0  0  0  0  0  0  0
    8.9170    0.7530   21.0260 O   0  0  0  0  0  0  0  0  0  0  0  0
    2.4254    3.4309   20.2064 O   0  0  0  0  0  0  0  0  0  0  0  0
    3.6887    2.4099   22.4247 F   0  0  0  0  0  0  0  0  0  0  0  0
   13.8840   -1.8490   21.2740 Cl  0  0  0  0  0  0  0  0  0  0  0  0
   12.2249    1.2198   24.6546 H   0  0  0  0  0  0  0  0  0  0  0  0
    9.8763    0.5350   24.3454 H   0  0  0  0  0  0  0  0  0  0  0  0
   14.0077    0.1988   23.2842 H   0  0  0  0  0  0  0  0  0  0  0  0
    3.3506    2.5427   17.9233 H   0  0  0  0  0  0  0  0  0  0  0  0
    5.5918    0.7335   21.9702 H   0  0  0  0  0  0  0  0  0  0  0  0
   11.0892   -2.3009   21.3624 H   0  0  0  0  0  0  0  0  0  0  0  0
    4.8986    1.1404   16.4824 H   0  0  0  0  0  0  0  0  0  0  0  0
    7.7532   -1.2899   18.1470 H   0  0  0  0  0  0  0  0  0  0  0  0
    1.0243    4.6176   19.2579 H   0  0  0  0  0  0  0  0  0  0  0  0
    1.4157    3.0736   18.4387 H   0  0  0  0  0  0  0  0  0  0  0  0
    2.5800    4.4241   18.4084 H   0  0  0  0  0  0  0  0  0  0  0  0
    8.7774   -2.2383   22.1732 H   0  0  0  0  0  0  0  0  0  0  0  0
    8.2557   -1.0153   23.3257 H   0  0  0  0  0  0  0  0  0  0  0  0
    6.8981   -1.6619   21.0674 H   0  0  0  0  0  0  0  0  0  0  0  0
  1  2  2  0  0  0  0
  1  3  1  0  0  0  0
  2 11  1  0  0  0  0
  3 15  2  0  0  0  0
  4  9  2  0  0  0  0
  4 13  1  0  0  0  0
  5 10  2  0  0  0  0
  5 14  1  0  0  0  0
  6 11  2  0  0  0  0
  6 15  1  0  0  0  0
  7  9  1  0  0  0  0
  7 19  2  0  0  0  0
  8 12  2  0  0  0  0
  8 19  1  0  0  0  0
  9 10  1  0  0  0  0
 10 12  1  0  0  0  0
 11 18  1  0  0  0  0
 12 20  1  0  0  0  0
 13 14  2  0  0  0  0
 13 22  1  0  0  0  0
 14 23  1  0  0  0  0
 15 24  1  0  0  0  0
 16 18  1  0  0  0  0
 16 20  1  0  0  0  0
 16 21  2  0  0  0  0
 17 22  1  0  0  0  0
  1 25  1  0  0  0  0
  2 26  1  0  0  0  0
  3 27  1  0  0  0  0
  4 28  1  0  0  0  0
  5 29  1  0  0  0  0
  6 30  1  0  0  0  0
  7 31  1  0  0  0  0
  8 32  1  0  0  0  0
 17 33  1  0  0  0  0
 17 34  1  0  0  0  0
 17 35  1  0  0  0  0
 18 36  1  0  0  0  0
 18 37  1  0  0  0  0
 20 38  1  0  0  0  0
M  END
> <compound>
MAT-POS-29385cc1-2

> <compound_smiles>
COc1cc2cncc(c2cc1F)NC(=O)Cc3cccc(c3)Cl

> <enantiomer_smiles>
COc1cc2cncc(c2cc1F)NC(=O)Cc3cccc(c3)Cl

> <scaffold>
chlorobenzene-linker

> <clash_score>
0

> <docking_score>
-10.669181823730469

> <overlap_score>
1.0122233629226685

> <MMFF_internal_energy>
112.6686356165847

> <docked_smiles>
COc1cc2cncc(c2cc1F)NC(=O)Cc3cccc(c3)Cl

$$$$
MAT-POS-c0609ef7-1_1
  -OEChem-07262101023D

 37 39  0     0  0  0  0  0  0999 V2000
   11.9780    0.4600   23.9150 C   0  0  0  0  0  0  0  0  0  0  0  0
    5.1217    1.1103   21.0637 C   0  0  0  0  0  0  0  0  0  0  0  0
   10.6560    0.0720   23.7350 C   0  0  0  0  0  0  0  0  0  0  0  0
    4.0766    2.0257   21.1998 C   0  0  0  0  0  0  0  0  0  0  0  0
   12.9840   -0.1200   23.1530 C   0  0  0  0  0  0  0  0  0  0  0  0
    3.8510    2.1343   18.7981 C   0  0  0  0  0  0  0  0  0  0  0  0
   11.3360   -1.5050   22.0650 C   0  0  0  0  0  0  0  0  0  0  0  0
    5.3505    0.7768   17.4014 C   0  0  0  0  0  0  0  0  0  0  0  0
    6.9503   -0.5830   18.3322 C   0  0  0  0  0  0  0  0  0  0  0  0
    5.5458    0.6941   19.7911 C   0  0  0  0  0  0  0  0  0  0  0  0
    4.9015    1.2136   18.6493 C   0  0  0  0  0  0  0  0  0  0  0  0
    3.4427    2.5366   20.0695 C   0  0  0  0  0  0  0  0  0  0  0  0
   10.3220   -0.8940   22.7910 C   0  0  0  0  0  0  0  0  0  0  0  0
    6.5902   -0.2221   19.6216 C   0  0  0  0  0  0  0  0  0  0  0  0
   12.6400   -1.1000   22.2390 C   0  0  0  0  0  0  0  0  0  0  0  0
    8.3880   -0.3240   21.3070 C   0  0  0  0  0  0  0  0  0  0  0  0
    8.8810   -1.1900   22.4510 C   0  0  0  0  0  0  0  0  0  0  0  0
    2.3265    3.5142   20.2200 C   0  0  0  0  0  0  0  0  0  0  0  0
    6.3571   -0.1069   17.2168 N   0  0  0  0  0  0  0  0  0  0  0  0
    7.2820   -0.7860   20.6970 N   0  0  0  0  0  0  0  0  0  0  0  0
    8.9170    0.7530   21.0260 O   0  0  0  0  0  0  0  0  0  0  0  0
    2.2919    4.3743   19.1685 F   0  0  0  0  0  0  0  0  0  0  0  0
    2.4970    4.2741   21.3336 F   0  0  0  0  0  0  0  0  0  0  0  0
   13.8840   -1.8490   21.2740 Cl  0  0  0  0  0  0  0  0  0  0  0  0
   12.2249    1.2198   24.6546 H   0  0  0  0  0  0  0  0  0  0  0  0
    5.5910    0.7339   21.9698 H   0  0  0  0  0  0  0  0  0  0  0  0
    9.8763    0.5350   24.3454 H   0  0  0  0  0  0  0  0  0  0  0  0
    3.7631    2.3341   22.1938 H   0  0  0  0  0  0  0  0  0  0  0  0
   14.0077    0.1988   23.2842 H   0  0  0  0  0  0  0  0  0  0  0  0
    3.3504    2.5377   17.9202 H   0  0  0  0  0  0  0  0  0  0  0  0
   11.0892   -2.3009   21.3624 H   0  0  0  0  0  0  0  0  0  0  0  0
    4.8991    1.1389   16.4815 H   0  0  0  0  0  0  0  0  0  0  0  0
    7.7538   -1.2903   18.1473 H   0  0  0  0  0  0  0  0  0  0  0  0
    8.7775   -2.2383   22.1732 H   0  0  0  0  0  0  0  0  0  0  0  0
    8.2557   -1.0153   23.3257 H   0  0  0  0  0  0  0  0  0  0  0  0
    1.3510    3.0293   20.2901 H   0  0  0  0  0  0  0  0  0  0  0  0
    6.8981   -1.6619   21.0675 H   0  0  0  0  0  0  0  0  0  0  0  0
  1  3  1  0  0  0  0
  1  5  2  0  0  0  0
  2  4  2  0  0  0  0
  2 10  1  0  0  0  0
  3 13  2  0  0  0  0
  4 12  1  0  0  0  0
  5 15  1  0  0  0  0
  6 11  1  0  0  0  0
  6 12  2  0  0  0  0
  7 13  1  0  0  0  0
  7 15  2  0  0  0  0
  8 11  2  0  0  0  0
  8 19  1  0  0  0  0
  9 14  1  0  0  0  0
  9 19  2  0  0  0  0
 10 11  1  0  0  0  0
 10 14  2  0  0  0  0
 12 18  1  0  0  0  0
 13 17  1  0  0  0  0
 14 20  1  0  0  0  0
 15 24  1  0  0  0  0
 16 17  1  0  0  0  0
 16 20  1  0  0  0  0
 16 21  2  0  0  0  0
 18 22  1  0  0  0  0
 18 23  1  0  0  0  0
  1 25  1  0  0  0  0
  2 26  1  0  0  0  0
  3 27  1  0  0  0  0
  4 28  1  0  0  0  0
  5 29  1  0  0  0  0
  6 30  1  0  0  0  0
  7 31  1  0  0  0  0
  8 32  1  0  0  0  0
  9 33  1  0  0  0  0
 17 34  1  0  0  0  0
 17 35  1  0  0  0  0
 18 36  1  0  0  0  0
 20 37  1  0  0  0  0
M  END
> <compound>
MAT-POS-c0609ef7-1

> <compound_smiles>
c1cc(cc(c1)Cl)CC(=O)Nc2cncc3c2ccc(c3)C(F)F

> <enantiomer_smiles>
c1cc(cc(c1)Cl)CC(=O)Nc2cncc3c2ccc(c3)C(F)F

> <scaffold>
chlorobenzene-linker

> <clash_score>
0

> <docking_score>
-10.580900192260742

> <overlap_score>
1.0

> <MMFF_internal_energy>
117.3623360111649

> <docked_smiles>
c1cc(cc(c1)Cl)CC(=O)Nc2cncc3c2ccc(c3)C(F)F

$$$$
MAT-POS-29385cc1-4_1
  -OEChem-07262101023D

 37 39  0     0  0  0  0  0  0999 V2000
   11.9780    0.4600   23.9150 C   0  0  0  0  0  0  0  0  0  0  0  0
   10.6560    0.0720   23.7350 C   0  0  0  0  0  0  0  0  0  0  0  0
   12.9840   -0.1200   23.1530 C   0  0  0  0  0  0  0  0  0  0  0  0
    3.3256    1.1507   18.5304 C   0  0  0  0  0  0  0  0  0  0  0  0
    3.1383    0.4621   20.8372 C   0  0  0  0  0  0  0  0  0  0  0  0
   11.3360   -1.5050   22.0650 C   0  0  0  0  0  0  0  0  0  0  0  0
    5.4737    0.8548   17.3728 C   0  0  0  0  0  0  0  0  0  0  0  0
    7.2925   -0.0580   18.4375 C   0  0  0  0  0  0  0  0  0  0  0  0
    4.6684    0.7387   18.5075 C   0  0  0  0  0  0  0  0  0  0  0  0
    5.2509    0.1820   19.6649 C   0  0  0  0  0  0  0  0  0  0  0  0
   10.3220   -0.8940   22.7910 C   0  0  0  0  0  0  0  0  0  0  0  0
    4.4718    0.0494   20.8259 C   0  0  0  0  0  0  0  0  0  0  0  0
    6.5902   -0.2222   19.6217 C   0  0  0  0  0  0  0  0  0  0  0  0
    2.5665    1.0116   19.6920 C   0  0  0  0  0  0  0  0  0  0  0  0
   12.6400   -1.1000   22.2390 C   0  0  0  0  0  0  0  0  0  0  0  0
    8.3880   -0.3240   21.3070 C   0  0  0  0  0  0  0  0  0  0  0  0
    4.9736   -0.5250   22.1150 C   0  0  0  0  0  0  0  0  0  0  0  0
    8.8810   -1.1900   22.4510 C   0  0  0  0  0  0  0  0  0  0  0  0
    6.7686    0.4704   17.3111 N   0  0  0  0  0  0  0  0  0  0  0  0
    7.2820   -0.7860   20.6970 N   0  0  0  0  0  0  0  0  0  0  0  0
    8.9170    0.7530   21.0260 O   0  0  0  0  0  0  0  0  0  0  0  0
    1.2869    1.4075   19.7065 F   0  0  0  0  0  0  0  0  0  0  0  0
   13.8840   -1.8490   21.2740 Cl  0  0  0  0  0  0  0  0  0  0  0  0
   12.2249    1.2198   24.6546 H   0  0  0  0  0  0  0  0  0  0  0  0
    9.8763    0.5350   24.3454 H   0  0  0  0  0  0  0  0  0  0  0  0
   14.0077    0.1988   23.2842 H   0  0  0  0  0  0  0  0  0  0  0  0
    2.8627    1.5821   17.6459 H   0  0  0  0  0  0  0  0  0  0  0  0
    2.5332    0.3609   21.7346 H   0  0  0  0  0  0  0  0  0  0  0  0
   11.0892   -2.3009   21.3624 H   0  0  0  0  0  0  0  0  0  0  0  0
    5.0867    1.2750   16.4485 H   0  0  0  0  0  0  0  0  0  0  0  0
    8.3339   -0.3551   18.3509 H   0  0  0  0  0  0  0  0  0  0  0  0
    4.8066   -1.6067   22.1343 H   0  0  0  0  0  0  0  0  0  0  0  0
    6.0443   -0.3306   22.2404 H   0  0  0  0  0  0  0  0  0  0  0  0
    4.4610   -0.0731   22.9713 H   0  0  0  0  0  0  0  0  0  0  0  0
    8.7774   -2.2383   22.1732 H   0  0  0  0  0  0  0  0  0  0  0  0
    8.2557   -1.0153   23.3257 H   0  0  0  0  0  0  0  0  0  0  0  0
    6.8982   -1.6620   21.0675 H   0  0  0  0  0  0  0  0  0  0  0  0
  1  2  2  0  0  0  0
  1  3  1  0  0  0  0
  2 11  1  0  0  0  0
  3 15  2  0  0  0  0
  4  9  2  0  0  0  0
  4 14  1  0  0  0  0
  5 12  1  0  0  0  0
  5 14  2  0  0  0  0
  6 11  2  0  0  0  0
  6 15  1  0  0  0  0
  7  9  1  0  0  0  0
  7 19  2  0  0  0  0
  8 13  2  0  0  0  0
  8 19  1  0  0  0  0
  9 10  1  0  0  0  0
 10 12  2  0  0  0  0
 10 13  1  0  0  0  0
 11 18  1  0  0  0  0
 12 17  1  0  0  0  0
 13 20  1  0  0  0  0
 14 22  1  0  0  0  0
 15 23  1  0  0  0  0
 16 18  1  0  0  0  0
 16 20  1  0  0  0  0
 16 21  2  0  0  0  0
  1 24  1  0  0  0  0
  2 25  1  0  0  0  0
  3 26  1  0  0  0  0
  4 27  1  0  0  0  0
  5 28  1  0  0  0  0
  6 29  1  0  0  0  0
  7 30  1  0  0  0  0
  8 31  1  0  0  0  0
 17 32  1  0  0  0  0
 17 33  1  0  0  0  0
 17 34  1  0  0  0  0
 18 35  1  0  0  0  0
 18 36  1  0  0  0  0
 20 37  1  0  0  0  0
M  END
> <compound>
MAT-POS-29385cc1-4

> <compound_smiles>
Cc1cc(cc2c1c(cnc2)NC(=O)Cc3cccc(c3)Cl)F

> <enantiomer_smiles>
Cc1cc(cc2c1c(cnc2)NC(=O)Cc3cccc(c3)Cl)F

> <scaffold>
chlorobenzene-linker

> <clash_score>
0

> <docking_score>
-5.498110771179199

> <overlap_score>
0.9064662456512451

> <MMFF_internal_energy>
103.05066635734661

> <docked_smiles>
Cc1cc(cc2c1c(cnc2)NC(=O)Cc3cccc(c3)Cl)F

$$$$
MAT-POS-29385cc1-1_1
  -OEChem-07262101023D

 38 40  0     0  0  0  0  0  0999 V2000
   11.9780    0.4600   23.9150 C   0  0  0  0  0  0  0  0  0  0  0  0
   10.6560    0.0720   23.7350 C   0  0  0  0  0  0  0  0  0  0  0  0
   12.9840   -0.1200   23.1530 C   0  0  0  0  0  0  0  0  0  0  0  0
    5.1213    1.1103   21.0633 C   0  0  0  0  0  0  0  0  0  0  0  0
    3.8508    2.1337   18.7973 C   0  0  0  0  0  0  0  0  0  0  0  0
   11.3360   -1.5050   22.0650 C   0  0  0  0  0  0  0  0  0  0  0  0
    5.3506    0.7762   17.4011 C   0  0  0  0  0  0  0  0  0  0  0  0
    6.9505   -0.5832   18.3323 C   0  0  0  0  0  0  0  0  0  0  0  0
    5.5456    0.6940   19.7908 C   0  0  0  0  0  0  0  0  0  0  0  0
    4.9014    1.2132   18.6488 C   0  0  0  0  0  0  0  0  0  0  0  0
   10.3220   -0.8940   22.7910 C   0  0  0  0  0  0  0  0  0  0  0  0
    6.5902   -0.2221   19.6216 C   0  0  0  0  0  0  0  0  0  0  0  0
    4.0761    2.0256   21.1991 C   0  0  0  0  0  0  0  0  0  0  0  0
    3.4423    2.5362   20.0687 C   0  0  0  0  0  0  0  0  0  0  0  0
   12.6400   -1.1000   22.2390 C   0  0  0  0  0  0  0  0  0  0  0  0
    8.3880   -0.3240   21.3070 C   0  0  0  0  0  0  0  0  0  0  0  0
    4.3688    1.8569   23.5532 C   0  0  0  0  0  0  0  0  0  0  0  0
    8.8810   -1.1900   22.4510 C   0  0  0  0  0  0  0  0  0  0  0  0
    6.3574   -0.1074   17.2168 N   0  0  0  0  0  0  0  0  0  0  0  0
    7.2820   -0.7860   20.6970 N   0  0  0  0  0  0  0  0  0  0  0  0
    8.9170    0.7530   21.0260 O   0  0  0  0  0  0  0  0  0  0  0  0
    3.6765    2.4191   22.4397 O   0  0  0  0  0  0  0  0  0  0  0  0
    2.4382    3.4145   20.1967 F   0  0  0  0  0  0  0  0  0  0  0  0
   13.8840   -1.8490   21.2740 Cl  0  0  0  0  0  0  0  0  0  0  0  0
   12.2249    1.2198   24.6546 H   0  0  0  0  0  0  0  0  0  0  0  0
    9.8763    0.5350   24.3454 H   0  0  0  0  0  0  0  0  0  0  0  0
   14.0077    0.1988   23.2842 H   0  0  0  0  0  0  0  0  0  0  0  0
    5.5956    0.7300   21.9658 H   0  0  0  0  0  0  0  0  0  0  0  0
    3.3451    2.5417   17.9254 H   0  0  0  0  0  0  0  0  0  0  0  0
   11.0892   -2.3009   21.3624 H   0  0  0  0  0  0  0  0  0  0  0  0
    4.8980    1.1364   16.4811 H   0  0  0  0  0  0  0  0  0  0  0  0
    7.7535   -1.2911   18.1480 H   0  0  0  0  0  0  0  0  0  0  0  0
    3.9513    2.2546   24.4814 H   0  0  0  0  0  0  0  0  0  0  0  0
    5.4315    2.1027   23.4844 H   0  0  0  0  0  0  0  0  0  0  0  0
    4.2462    0.7714   23.5368 H   0  0  0  0  0  0  0  0  0  0  0  0
    8.7774   -2.2383   22.1732 H   0  0  0  0  0  0  0  0  0  0  0  0
    8.2557   -1.0153   23.3257 H   0  0  0  0  0  0  0  0  0  0  0  0
    6.8981   -1.6619   21.0675 H   0  0  0  0  0  0  0  0  0  0  0  0
  1  2  2  0  0  0  0
  1  3  1  0  0  0  0
  2 11  1  0  0  0  0
  3 15  2  0  0  0  0
  4  9  2  0  0  0  0
  4 13  1  0  0  0  0
  5 10  2  0  0  0  0
  5 14  1  0  0  0  0
  6 11  2  0  0  0  0
  6 15  1  0  0  0  0
  7 10  1  0  0  0  0
  7 19  2  0  0  0  0
  8 12  2  0  0  0  0
  8 19  1  0  0  0  0
  9 10  1  0  0  0  0
  9 12  1  0  0  0  0
 11 18  1  0  0  0  0
 12 20  1  0  0  0  0
 13 14  2  0  0  0  0
 13 22  1  0  0  0  0
 14 23  1  0  0  0  0
 15 24  1  0  0  0  0
 16 18  1  0  0  0  0
 16 20  1  0  0  0  0
 16 21  2  0  0  0  0
 17 22  1  0  0  0  0
  1 25  1  0  0  0  0
  2 26  1  0  0  0  0
  3 27  1  0  0  0  0
  4 28  1  0  0  0  0
  5 29  1  0  0  0  0
  6 30  1  0  0  0  0
  7 31  1  0  0  0  0
  8 32  1  0  0  0  0
 17 33  1  0  0  0  0
 17 34  1  0  0  0  0
 17 35  1  0  0  0  0
 18 36  1  0  0  0  0
 18 37  1  0  0  0  0
 20 38  1  0  0  0  0
M  END
> <compound>
MAT-POS-29385cc1-1

> <compound_smiles>
COc1cc2c(cc1F)cncc2NC(=O)Cc3cccc(c3)Cl

> <enantiomer_smiles>
COc1cc2c(cc1F)cncc2NC(=O)Cc3cccc(c3)Cl

> <scaffold>
chlorobenzene-linker

> <clash_score>
0

> <docking_score>
-11.076208114624023

> <overlap_score>
1.015511155128479

> <MMFF_internal_energy>
113.20123645949207

> <docked_smiles>
COc1cc2c(cc1F)cncc2NC(=O)Cc3cccc(c3)Cl

$$$$
MAT-POS-7174c657-6_1
  -OEChem-07262101023D

 63 67  0     1  0  0  0  0  0999 V2000
    2.5650    1.0118   19.7905 C   0  0  0  0  0  0  0  0  0  0  0  0
    3.1657    0.4486   20.9139 C   0  0  0  0  0  0  0  0  0  0  0  0
   11.9780    0.4600   23.9150 C   0  0  0  0  0  0  0  0  0  0  0  0
    3.2959    1.1705   18.6133 C   0  0  0  0  0  0  0  0  0  0  0  0
    4.5001    0.0413   20.8653 C   0  0  0  0  0  0  0  0  0  0  0  0
   10.6560    0.0720   23.7350 C   0  0  0  0  0  0  0  0  0  0  0  0
   12.9840   -0.1200   23.1530 C   0  0  0  0  0  0  0  0  0  0  0  0
   11.3360   -1.5050   22.0650 C   0  0  0  0  0  0  0  0  0  0  0  0
    5.4171    0.8995   17.4014 C   0  0  0  0  0  0  0  0  0  0  0  0
    7.2639   -0.0211   18.4097 C   0  0  0  0  0  0  0  0  0  0  0  0
    4.6393    0.7642   18.5530 C   0  0  0  0  0  0  0  0  0  0  0  0
    5.2510    0.1935   19.6882 C   0  0  0  0  0  0  0  0  0  0  0  0
   10.3220   -0.8940   22.7910 C   0  0  0  0  0  0  0  0  0  0  0  0
    6.5904   -0.2048   19.6077 C   0  0  0  0  0  0  0  0  0  0  0  0
   12.6400   -1.1000   22.2390 C   0  0  0  0  0  0  0  0  0  0  0  0
    8.1155   -2.9598   28.3367 C   0  0  0  0  0  0  0  0  0  0  0  0
    7.7907   -1.9629   24.5480 C   0  0  0  0  0  0  0  0  0  0  0  0
    8.3880   -0.3240   21.3070 C   0  0  0  0  0  0  0  0  0  0  0  0
    8.7751   -6.5609   28.6807 C   0  0  0  0  0  0  0  0  0  0  0  0
    7.7245   -6.5636   27.5773 C   0  0  0  0  0  0  0  0  0  0  0  0
    6.9679   -0.7886   27.8952 C   0  0  0  0  0  0  0  0  0  0  0  0
    7.5125   -0.4527   26.5272 C   0  0  0  0  0  0  0  0  0  0  0  0
    9.2871   -5.1290   28.6562 C   0  0  0  0  0  0  0  0  0  0  0  0
    7.0746   -5.1946   27.7215 C   0  0  0  0  0  0  0  0  0  0  0  0
    6.8632   -2.2993   27.8539 C   0  0  1  0  0  0  0  0  0  0  0  0
    6.8943   -1.5288   25.6585 C   0  0  2  0  0  0  0  0  0  0  0  0
    8.8810   -1.1900   22.4510 C   0  0  1  0  0  0  0  0  0  0  0  0
    6.7116    0.5212   17.3036 N   0  0  0  0  0  0  0  0  0  0  0  0
    8.1393   -4.3389   28.2358 N   0  0  0  0  0  0  0  0  0  0  0  0
    7.2820   -0.7860   20.6970 N   0  0  0  0  0  0  0  0  0  0  0  0
    8.0374   -0.9810   23.6076 N   0  0  0  0  0  0  0  0  0  0  0  0
    9.0448   -2.2851   28.7828 O   0  0  0  0  0  0  0  0  0  0  0  0
    8.2321   -3.1060   24.5396 O   0  0  0  0  0  0  0  0  0  0  0  0
    8.9170    0.7530   21.0260 O   0  0  0  0  0  0  0  0  0  0  0  0
    6.6984   -2.6794   26.4873 O   0  0  0  0  0  0  0  0  0  0  0  0
   13.8840   -1.8490   21.2740 Cl  0  0  0  0  0  0  0  0  0  0  0  0
    1.5267    1.3276   19.8311 H   0  0  0  0  0  0  0  0  0  0  0  0
    2.5946    0.3257   21.8297 H   0  0  0  0  0  0  0  0  0  0  0  0
   12.2249    1.2198   24.6546 H   0  0  0  0  0  0  0  0  0  0  0  0
    2.8114    1.6119   17.7455 H   0  0  0  0  0  0  0  0  0  0  0  0
    4.9338   -0.3933   21.7630 H   0  0  0  0  0  0  0  0  0  0  0  0
    9.8763    0.5350   24.3454 H   0  0  0  0  0  0  0  0  0  0  0  0
   14.0077    0.1988   23.2842 H   0  0  0  0  0  0  0  0  0  0  0  0
   11.0892   -2.3009   21.3624 H   0  0  0  0  0  0  0  0  0  0  0  0
    5.0078    1.3308   16.4920 H   0  0  0  0  0  0  0  0  0  0  0  0
    8.3038   -0.3142   18.2963 H   0  0  0  0  0  0  0  0  0  0  0  0
    8.3082   -6.7813   29.6478 H   0  0  0  0  0  0  0  0  0  0  0  0
    9.5680   -7.2925   28.5023 H   0  0  0  0  0  0  0  0  0  0  0  0
    8.2069   -6.6532   26.5968 H   0  0  0  0  0  0  0  0  0  0  0  0
    7.0068   -7.3811   27.6878 H   0  0  0  0  0  0  0  0  0  0  0  0
    7.5874   -0.4017   28.7087 H   0  0  0  0  0  0  0  0  0  0  0  0
    5.9630   -0.3627   27.9986 H   0  0  0  0  0  0  0  0  0  0  0  0
    7.2468    0.5560   26.1971 H   0  0  0  0  0  0  0  0  0  0  0  0
    8.6072   -0.5180   26.5324 H   0  0  0  0  0  0  0  0  0  0  0  0
    9.6615   -4.7889   29.6263 H   0  0  0  0  0  0  0  0  0  0  0  0
   10.0752   -4.9957   27.9068 H   0  0  0  0  0  0  0  0  0  0  0  0
    6.6828   -4.8125   26.7751 H   0  0  0  0  0  0  0  0  0  0  0  0
    6.2694   -5.2102   28.4639 H   0  0  0  0  0  0  0  0  0  0  0  0
    6.0288   -2.6759   28.4501 H   0  0  0  0  0  0  0  0  0  0  0  0
    5.9247   -1.2249   25.2525 H   0  0  0  0  0  0  0  0  0  0  0  0
    8.7711   -2.2448   22.1651 H   0  0  0  0  0  0  0  0  0  0  0  0
    6.8975   -1.6551   21.0614 H   0  0  0  0  0  0  0  0  0  0  0  0
    7.6073   -0.0699   23.7357 H   0  0  0  0  0  0  0  0  0  0  0  0
  1  2  1  0  0  0  0
  1  4  2  0  0  0  0
  2  5  2  0  0  0  0
  3  6  2  0  0  0  0
  3  7  1  0  0  0  0
  4 11  1  0  0  0  0
  5 12  1  0  0  0  0
  6 13  1  0  0  0  0
  7 15  2  0  0  0  0
  8 13  2  0  0  0  0
  8 15  1  0  0  0  0
  9 11  2  0  0  0  0
  9 28  1  0  0  0  0
 10 14  1  0  0  0  0
 10 28  2  0  0  0  0
 11 12  1  0  0  0  0
 12 14  2  0  0  0  0
 13 27  1  0  0  0  0
 14 30  1  0  0  0  0
 15 36  1  0  0  0  0
 16 25  1  0  0  0  0
 16 29  1  0  0  0  0
 16 32  2  0  0  0  0
 17 26  1  0  0  0  0
 17 31  1  0  0  0  0
 17 33  2  0  0  0  0
 18 27  1  0  0  0  0
 18 30  1  0  0  0  0
 18 34  2  0  0  0  0
 19 20  1  0  0  0  0
 19 23  1  0  0  0  0
 20 24  1  0  0  0  0
 21 22  1  0  0  0  0
 21 25  1  0  0  0  0
 22 26  1  0  0  0  0
 23 29  1  0  0  0  0
 24 29  1  0  0  0  0
 25 35  1  0  0  0  0
 26 35  1  0  0  0  0
 27 31  1  0  0  0  0
  1 37  1  0  0  0  0
  2 38  1  0  0  0  0
  3 39  1  0  0  0  0
  4 40  1  0  0  0  0
  5 41  1  0  0  0  0
  6 42  1  0  0  0  0
  7 43  1  0  0  0  0
  8 44  1  0  0  0  0
  9 45  1  0  0  0  0
 10 46  1  0  0  0  0
 19 47  1  0  0  0  0
 19 48  1  0  0  0  0
 20 49  1  0  0  0  0
 20 50  1  0  0  0  0
 21 51  1  0  0  0  0
 21 52  1  0  0  0  0
 22 53  1  0  0  0  0
 22 54  1  0  0  0  0
 23 55  1  0  0  0  0
 23 56  1  0  0  0  0
 24 57  1  0  0  0  0
 24 58  1  0  0  0  0
 25 59  1  0  0  0  0
 26 60  1  0  0  0  0
 27 61  1  0  0  0  0
 30 62  1  0  0  0  0
 31 63  1  0  0  0  0
M  END
> <compound>
MAT-POS-7174c657-6

> <compound_smiles>
c1ccc2c(c1)cncc2NC(=O)[C@@H](c3cccc(c3)Cl)NC(=O)[C@@H]4CC[C@@H](O4)C(=O)N5CCCC5

> <enantiomer_smiles>
c1ccc2c(c1)cncc2NC(=O)[C@@H](c3cccc(c3)Cl)NC(=O)[C@@H]4CC[C@@H](O4)C(=O)N5CCCC5

> <scaffold>
chlorobenzene-linker

> <clash_score>
0

> <docking_score>
-1.9341751337051392

> <overlap_score>
0.8810680508613586

> <MMFF_internal_energy>
169.7250207873146

> <docked_smiles>
c1ccc2c(c1)cncc2NC(=O)[C@@H](c3cccc(c3)Cl)NC(=O)[C@@H]4CC[C@@H](O4)C(=O)N5CCCC5

$$$$
MAT-POS-7174c657-5_1
  -OEChem-07262101023D

 63 67  0     1  0  0  0  0  0999 V2000
    2.5650    1.0119   19.7905 C   0  0  0  0  0  0  0  0  0  0  0  0
    3.1657    0.4486   20.9139 C   0  0  0  0  0  0  0  0  0  0  0  0
   11.9780    0.4600   23.9150 C   0  0  0  0  0  0  0  0  0  0  0  0
    3.2959    1.1705   18.6133 C   0  0  0  0  0  0  0  0  0  0  0  0
    4.5001    0.0414   20.8653 C   0  0  0  0  0  0  0  0  0  0  0  0
   10.6560    0.0720   23.7350 C   0  0  0  0  0  0  0  0  0  0  0  0
   12.9840   -0.1200   23.1530 C   0  0  0  0  0  0  0  0  0  0  0  0
   11.3360   -1.5050   22.0650 C   0  0  0  0  0  0  0  0  0  0  0  0
    5.4171    0.8995   17.4014 C   0  0  0  0  0  0  0  0  0  0  0  0
    7.2639   -0.0211   18.4097 C   0  0  0  0  0  0  0  0  0  0  0  0
    4.6393    0.7642   18.5530 C   0  0  0  0  0  0  0  0  0  0  0  0
    5.2510    0.1935   19.6882 C   0  0  0  0  0  0  0  0  0  0  0  0
   10.3220   -0.8940   22.7910 C   0  0  0  0  0  0  0  0  0  0  0  0
    6.5904   -0.2048   19.6077 C   0  0  0  0  0  0  0  0  0  0  0  0
   12.6400   -1.1000   22.2390 C   0  0  0  0  0  0  0  0  0  0  0  0
    5.9343   -6.2955   24.1444 C   0  0  0  0  0  0  0  0  0  0  0  0
    8.4778   -3.5789   23.0204 C   0  0  0  0  0  0  0  0  0  0  0  0
    8.3880   -0.3240   21.3070 C   0  0  0  0  0  0  0  0  0  0  0  0
    5.8555   -6.4636   27.8169 C   0  0  0  0  0  0  0  0  0  0  0  0
    7.3526   -6.3347   27.5655 C   0  0  0  0  0  0  0  0  0  0  0  0
    6.7063   -6.4997   21.7694 C   0  0  0  0  0  0  0  0  0  0  0  0
    7.1404   -5.0747   21.5209 C   0  0  0  0  0  0  0  0  0  0  0  0
    5.2500   -5.9696   26.5121 C   0  0  0  0  0  0  0  0  0  0  0  0
    7.4894   -6.7390   26.1043 C   0  0  0  0  0  0  0  0  0  0  0  0
    7.0503   -6.6987   23.2312 C   0  0  1  0  0  0  0  0  0  0  0  0
    8.3474   -4.9413   22.4271 C   0  0  2  0  0  0  0  0  0  0  0  0
    8.8810   -1.1900   22.4510 C   0  0  2  0  0  0  0  0  0  0  0  0
    6.7116    0.5212   17.3036 N   0  0  0  0  0  0  0  0  0  0  0  0
    6.2250   -6.3374   25.4959 N   0  0  0  0  0  0  0  0  0  0  0  0
    7.2820   -0.7860   20.6970 N   0  0  0  0  0  0  0  0  0  0  0  0
    8.7221   -2.5829   22.0943 N   0  0  0  0  0  0  0  0  0  0  0  0
    4.8450   -5.9499   23.6840 O   0  0  0  0  0  0  0  0  0  0  0  0
    8.3644   -3.4342   24.2320 O   0  0  0  0  0  0  0  0  0  0  0  0
    8.9170    0.7530   21.0260 O   0  0  0  0  0  0  0  0  0  0  0  0
    8.1538   -5.8397   23.5251 O   0  0  0  0  0  0  0  0  0  0  0  0
   13.8840   -1.8490   21.2740 Cl  0  0  0  0  0  0  0  0  0  0  0  0
    1.5267    1.3276   19.8311 H   0  0  0  0  0  0  0  0  0  0  0  0
    2.5946    0.3257   21.8297 H   0  0  0  0  0  0  0  0  0  0  0  0
   12.2249    1.2198   24.6546 H   0  0  0  0  0  0  0  0  0  0  0  0
    2.8114    1.6120   17.7455 H   0  0  0  0  0  0  0  0  0  0  0  0
    4.9338   -0.3933   21.7630 H   0  0  0  0  0  0  0  0  0  0  0  0
    9.8763    0.5350   24.3454 H   0  0  0  0  0  0  0  0  0  0  0  0
   14.0077    0.1988   23.2842 H   0  0  0  0  0  0  0  0  0  0  0  0
   11.0892   -2.3008   21.3624 H   0  0  0  0  0  0  0  0  0  0  0  0
    5.0078    1.3308   16.4920 H   0  0  0  0  0  0  0  0  0  0  0  0
    8.3038   -0.3142   18.2963 H   0  0  0  0  0  0  0  0  0  0  0  0
    5.5896   -7.5137   27.9859 H   0  0  0  0  0  0  0  0  0  0  0  0
    5.5264   -5.8780   28.6797 H   0  0  0  0  0  0  0  0  0  0  0  0
    7.6704   -5.2943   27.7026 H   0  0  0  0  0  0  0  0  0  0  0  0
    7.9429   -6.9693   28.2322 H   0  0  0  0  0  0  0  0  0  0  0  0
    5.6285   -6.6036   21.5839 H   0  0  0  0  0  0  0  0  0  0  0  0
    7.2157   -7.2215   21.1205 H   0  0  0  0  0  0  0  0  0  0  0  0
    7.4525   -4.9699   20.4766 H   0  0  0  0  0  0  0  0  0  0  0  0
    6.3509   -4.3470   21.7187 H   0  0  0  0  0  0  0  0  0  0  0  0
    4.2735   -6.4128   26.2955 H   0  0  0  0  0  0  0  0  0  0  0  0
    5.1532   -4.8783   26.5006 H   0  0  0  0  0  0  0  0  0  0  0  0
    8.3367   -6.2554   25.6109 H   0  0  0  0  0  0  0  0  0  0  0  0
    7.5829   -7.8251   25.9968 H   0  0  0  0  0  0  0  0  0  0  0  0
    7.3402   -7.7309   23.4507 H   0  0  0  0  0  0  0  0  0  0  0  0
    9.2826   -5.1878   21.9140 H   0  0  0  0  0  0  0  0  0  0  0  0
    8.2436   -1.0112   23.3272 H   0  0  0  0  0  0  0  0  0  0  0  0
    6.8975   -1.6551   21.0614 H   0  0  0  0  0  0  0  0  0  0  0  0
    8.7949   -2.8409   21.1147 H   0  0  0  0  0  0  0  0  0  0  0  0
  1  2  1  0  0  0  0
  1  4  2  0  0  0  0
  2  5  2  0  0  0  0
  3  6  2  0  0  0  0
  3  7  1  0  0  0  0
  4 11  1  0  0  0  0
  5 12  1  0  0  0  0
  6 13  1  0  0  0  0
  7 15  2  0  0  0  0
  8 13  2  0  0  0  0
  8 15  1  0  0  0  0
  9 11  2  0  0  0  0
  9 28  1  0  0  0  0
 10 14  1  0  0  0  0
 10 28  2  0  0  0  0
 11 12  1  0  0  0  0
 12 14  2  0  0  0  0
 13 27  1  0  0  0  0
 14 30  1  0  0  0  0
 15 36  1  0  0  0  0
 16 25  1  0  0  0  0
 16 29  1  0  0  0  0
 16 32  2  0  0  0  0
 17 26  1  0  0  0  0
 17 31  1  0  0  0  0
 17 33  2  0  0  0  0
 18 27  1  0  0  0  0
 18 30  1  0  0  0  0
 18 34  2  0  0  0  0
 19 20  1  0  0  0  0
 19 23  1  0  0  0  0
 20 24  1  0  0  0  0
 21 22  1  0  0  0  0
 21 25  1  0  0  0  0
 22 26  1  0  0  0  0
 23 29  1  0  0  0  0
 24 29  1  0  0  0  0
 25 35  1  0  0  0  0
 26 35  1  0  0  0  0
 27 31  1  0  0  0  0
  1 37  1  0  0  0  0
  2 38  1  0  0  0  0
  3 39  1  0  0  0  0
  4 40  1  0  0  0  0
  5 41  1  0  0  0  0
  6 42  1  0  0  0  0
  7 43  1  0  0  0  0
  8 44  1  0  0  0  0
  9 45  1  0  0  0  0
 10 46  1  0  0  0  0
 19 47  1  0  0  0  0
 19 48  1  0  0  0  0
 20 49  1  0  0  0  0
 20 50  1  0  0  0  0
 21 51  1  0  0  0  0
 21 52  1  0  0  0  0
 22 53  1  0  0  0  0
 22 54  1  0  0  0  0
 23 55  1  0  0  0  0
 23 56  1  0  0  0  0
 24 57  1  0  0  0  0
 24 58  1  0  0  0  0
 25 59  1  0  0  0  0
 26 60  1  0  0  0  0
 27 61  1  0  0  0  0
 30 62  1  0  0  0  0
 31 63  1  0  0  0  0
M  END
> <compound>
MAT-POS-7174c657-5

> <compound_smiles>
c1ccc2c(c1)cncc2NC(=O)[C@H](c3cccc(c3)Cl)NC(=O)[C@@H]4CC[C@@H](O4)C(=O)N5CCCC5

> <enantiomer_smiles>
c1ccc2c(c1)cncc2NC(=O)[C@H](c3cccc(c3)Cl)NC(=O)[C@@H]4CC[C@@H](O4)C(=O)N5CCCC5

> <scaffold>
chlorobenzene-linker

> <clash_score>
0

> <docking_score>
-3.9025931358337402

> <overlap_score>
0.8814209699630737

> <MMFF_internal_energy>
169.82979819728192

> <docked_smiles>
c1ccc2c(c1)cncc2NC(=O)[C@H](c3cccc(c3)Cl)NC(=O)[C@@H]4CC[C@@H](O4)C(=O)N5CCCC5

$$$$
