JOH-MSK-a63-10
 OpenBabel03242009303D

 30 31  0  0  0  0  0  0  0  0999 V2000
    8.1302   -1.5400   27.2029 C   0  0  0  0  0  0  0  0  0  0  0  0
    8.2728   -2.3407   28.3345 C   0  0  0  0  0  0  0  0  0  0  0  0
    8.7478   -1.8887   25.9963 C   0  0  0  0  0  0  0  0  0  0  0  0
    9.0347   -3.5120   28.2973 C   0  0  0  0  0  0  0  0  0  0  0  0
   10.8222   -4.8471   25.4445 C   0  0  0  0  0  0  0  0  0  0  0  0
    9.5209   -3.0651   25.9347 C   0  0  0  0  0  0  0  0  0  0  0  0
   10.2679   -3.7078   24.9082 C   0  0  0  0  0  0  0  0  0  0  0  0
    9.6463   -3.8480   27.0843 C   0  0  0  0  0  0  0  0  0  0  0  0
    9.9363   -0.1804   23.4414 C   0  0  0  0  0  0  0  0  0  0  0  0
   12.1524   -0.0179   24.3551 C   0  0  0  0  0  0  0  0  0  0  0  0
   10.4281   -3.2442   23.5149 C   0  0  0  0  0  0  0  0  0  0  0  0
   11.4138   -2.0728   23.3529 C   0  0  0  0  0  0  0  0  0  0  0  0
   10.4414   -4.9232   26.7574 N   0  0  0  0  0  0  0  0  0  0  0  0
   11.0153   -0.9196   24.1145 N   0  0  0  0  0  0  0  0  0  0  0  0
    7.5323   -0.6342   27.2564 H   0  0  0  0  0  0  0  0  0  0  0  0
    7.7845   -2.0509   29.2613 H   0  0  0  0  0  0  0  0  0  0  0  0
    8.6262   -1.2544   25.1228 H   0  0  0  0  0  0  0  0  0  0  0  0
    9.1460   -4.1341   29.1789 H   0  0  0  0  0  0  0  0  0  0  0  0
   11.4520   -5.6115   25.0104 H   0  0  0  0  0  0  0  0  0  0  0  0
    9.0860   -0.8547   23.2615 H   0  0  0  0  0  0  0  0  0  0  0  0
    9.6124    0.6561   24.0781 H   0  0  0  0  0  0  0  0  0  0  0  0
   10.3036    0.2106   22.4810 H   0  0  0  0  0  0  0  0  0  0  0  0
   12.9593   -0.5706   24.8585 H   0  0  0  0  0  0  0  0  0  0  0  0
   12.5196    0.3731   23.3947 H   0  0  0  0  0  0  0  0  0  0  0  0
   11.8285    0.8186   24.9918 H   0  0  0  0  0  0  0  0  0  0  0  0
    9.4496   -2.9233   23.1064 H   0  0  0  0  0  0  0  0  0  0  0  0
   10.7487   -4.0710   22.8494 H   0  0  0  0  0  0  0  0  0  0  0  0
   12.4139   -2.3506   23.7005 H   0  0  0  0  0  0  0  0  0  0  0  0
   11.4898   -1.7661   22.3045 H   0  0  0  0  0  0  0  0  0  0  0  0
   10.7055   -5.6615   27.3951 H   0  0  0  0  0  0  0  0  0  0  0  0
  1  2  1  0  0  0  0
  1  3  2  0  0  0  0
  1 15  1  0  0  0  0
  2  4  2  0  0  0  0
  2 16  1  0  0  0  0
  3  6  1  0  0  0  0
  3 17  1  0  0  0  0
  4  8  1  0  0  0  0
  4 18  1  0  0  0  0
  5  7  2  0  0  0  0
  5 13  1  0  0  0  0
  5 19  1  0  0  0  0
  6  7  1  0  0  0  0
  6  8  2  0  0  0  0
  7 11  1  0  0  0  0
  8 13  1  0  0  0  0
  9 14  1  0  0  0  0
  9 20  1  0  0  0  0
  9 21  1  0  0  0  0
  9 22  1  0  0  0  0
 10 14  1  0  0  0  0
 10 23  1  0  0  0  0
 10 24  1  0  0  0  0
 10 25  1  0  0  0  0
 11 12  1  0  0  0  0
 11 26  1  0  0  0  0
 11 27  1  0  0  0  0
 12 14  1  0  0  0  0
 12 28  1  0  0  0  0
 12 29  1  0  0  0  0
 13 30  1  0  0  0  0
M  END
>  <Chemgauss4 Score>
-5.55167675018311

>  <Number of Confs>
16

$$$$
