AGN-NEW-891-5
 OpenBabel03242009303D

 37 38  0  0  0  0  0  0  0  0999 V2000
    5.8177   -6.0886   22.1139 C   0  0  0  0  0  0  0  0  0  0  0  0
    6.8403   -5.5458   22.8839 C   0  0  0  0  0  0  0  0  0  0  0  0
   10.8508   -2.9239   24.7656 C   0  0  0  0  0  0  0  0  0  0  0  0
   10.1016   -0.6542   24.4136 C   0  0  0  0  0  0  0  0  0  0  0  0
    9.0766   -2.0123   26.1288 C   0  0  0  0  0  0  0  0  0  0  0  0
    4.6220   -6.3922   22.7449 C   0  0  0  0  0  0  0  0  0  0  0  0
    5.4065   -5.6638   24.7776 C   0  0  0  0  0  0  0  0  0  0  0  0
    6.6390   -5.3263   24.2420 C   0  0  0  0  0  0  0  0  0  0  0  0
   10.9427   -1.7146   24.0765 C   0  0  0  0  0  0  0  0  0  0  0  0
    9.9177   -3.0728   25.7917 C   0  0  0  0  0  0  0  0  0  0  0  0
    9.1685   -0.8030   25.4397 C   0  0  0  0  0  0  0  0  0  0  0  0
    7.7027   -4.7532   25.0848 C   0  0  0  0  0  0  0  0  0  0  0  0
    8.6381   -5.4668   25.7236 C   0  0  0  0  0  0  0  0  0  0  0  0
   12.9809   -0.4603   23.2854 C   0  0  0  0  0  0  0  0  0  0  0  0
   11.2802   -1.2826   21.6161 C   0  0  0  0  0  0  0  0  0  0  0  0
   11.9414   -1.5555   22.9804 C   0  0  0  0  0  0  0  0  0  0  0  0
    4.3892   -6.1930   24.0616 N   0  0  0  0  0  0  0  0  0  0  0  0
   11.0871   -5.2724   26.5567 O   0  0  0  0  0  0  0  0  0  0  0  0
    9.2490   -4.3058   27.9732 O   0  0  0  0  0  0  0  0  0  0  0  0
    9.8044   -4.5861   26.6549 S   0  0  0  0  0  0  0  0  0  0  0  0
    8.1325    0.5062   25.8573 Cl  0  0  0  0  0  0  0  0  0  0  0  0
    5.9521   -6.2683   21.0535 H   0  0  0  0  0  0  0  0  0  0  0  0
    7.7882   -5.2992   22.4121 H   0  0  0  0  0  0  0  0  0  0  0  0
   11.5077   -3.7494   24.5016 H   0  0  0  0  0  0  0  0  0  0  0  0
   10.1780    0.2869   23.8737 H   0  0  0  0  0  0  0  0  0  0  0  0
    8.3494   -2.1322   26.9286 H   0  0  0  0  0  0  0  0  0  0  0  0
    3.7938   -6.8182   22.1882 H   0  0  0  0  0  0  0  0  0  0  0  0
    5.1856   -5.5170   25.8311 H   0  0  0  0  0  0  0  0  0  0  0  0
    7.7077   -3.6674   25.1566 H   0  0  0  0  0  0  0  0  0  0  0  0
    8.7096   -6.5460   25.6828 H   0  0  0  0  0  0  0  0  0  0  0  0
   12.5072    0.5174   23.4258 H   0  0  0  0  0  0  0  0  0  0  0  0
   13.7100   -0.3627   22.4737 H   0  0  0  0  0  0  0  0  0  0  0  0
   13.5305   -0.6997   24.2027 H   0  0  0  0  0  0  0  0  0  0  0  0
   10.6876   -0.3617   21.6558 H   0  0  0  0  0  0  0  0  0  0  0  0
   10.6110   -2.0994   21.3248 H   0  0  0  0  0  0  0  0  0  0  0  0
   12.0264   -1.1656   20.8226 H   0  0  0  0  0  0  0  0  0  0  0  0
   12.5157   -2.4934   22.8570 H   0  0  0  0  0  0  0  0  0  0  0  0
  1  2  2  0  0  0  0
  1  6  1  0  0  0  0
  1 22  1  0  0  0  0
  2  8  1  0  0  0  0
  2 23  1  0  0  0  0
  3  9  2  0  0  0  0
  3 10  1  0  0  0  0
  3 24  1  0  0  0  0
  4  9  1  0  0  0  0
  4 11  2  0  0  0  0
  4 25  1  0  0  0  0
  5 10  2  0  0  0  0
  5 11  1  0  0  0  0
  5 26  1  0  0  0  0
  6 17  2  0  0  0  0
  6 27  1  0  0  0  0
  7  8  2  0  0  0  0
  7 17  1  0  0  0  0
  7 28  1  0  0  0  0
  8 12  1  0  0  0  0
  9 16  1  0  0  0  0
 10 20  1  0  0  0  0
 11 21  1  0  0  0  0
 12 13  2  0  0  0  0
 12 29  1  0  0  0  0
 13 20  1  0  0  0  0
 13 30  1  0  0  0  0
 14 16  1  0  0  0  0
 14 31  1  0  0  0  0
 14 32  1  0  0  0  0
 14 33  1  0  0  0  0
 15 16  1  0  0  0  0
 15 34  1  0  0  0  0
 15 35  1  0  0  0  0
 15 36  1  0  0  0  0
 16 37  1  0  0  0  0
 18 20  2  0  0  0  0
 19 20  2  0  0  0  0
M  END
>  <Chemgauss4 Score>
-5.04507303237915

>  <Number of Confs>
98

$$$$
