PAT-UNK-b2d-1
 OpenBabel03242009303D

 35 36  0  0  0  0  0  0  0  0999 V2000
    5.6678   -5.9192   26.7832 C   0  0  0  0  0  0  0  0  0  0  0  0
    8.7743   -5.0434   28.6376 C   0  0  0  0  0  0  0  0  0  0  0  0
    7.4769   -5.4789   28.3682 C   0  0  0  0  0  0  0  0  0  0  0  0
    9.5921   -4.6022   27.5973 C   0  0  0  0  0  0  0  0  0  0  0  0
    7.8151   -5.0321   26.0180 C   0  0  0  0  0  0  0  0  0  0  0  0
    6.9973   -5.4733   27.0583 C   0  0  0  0  0  0  0  0  0  0  0  0
    9.1125   -4.5966   26.2875 C   0  0  0  0  0  0  0  0  0  0  0  0
   12.2062    0.1253   23.6053 C   0  0  0  0  0  0  0  0  0  0  0  0
   11.4101   -2.2373   23.1234 C   0  0  0  0  0  0  0  0  0  0  0  0
   10.9208   -1.1498   25.2860 C   0  0  0  0  0  0  0  0  0  0  0  0
    9.9886   -2.8055   23.1219 C   0  0  0  0  0  0  0  0  0  0  0  0
    9.5099   -1.7376   25.2343 C   0  0  0  0  0  0  0  0  0  0  0  0
   12.9221    0.1085   22.2781 C   0  0  0  0  0  0  0  0  0  0  0  0
    9.9930   -4.1218   25.1680 C   0  0  0  0  0  0  0  0  0  0  0  0
    4.5881   -6.2813   26.5598 N   0  0  0  0  0  0  0  0  0  0  0  0
   11.4999   -1.0279   23.9483 N   0  0  0  0  0  0  0  0  0  0  0  0
    9.4123   -2.9827   24.4613 N   0  0  0  0  0  0  0  0  0  0  0  0
   12.2703    1.1338   24.3129 O   0  0  0  0  0  0  0  0  0  0  0  0
    9.1484   -5.0486   29.6572 H   0  0  0  0  0  0  0  0  0  0  0  0
    6.8511   -5.8195   29.1897 H   0  0  0  0  0  0  0  0  0  0  0  0
   10.6013   -4.2642   27.8174 H   0  0  0  0  0  0  0  0  0  0  0  0
    7.4469   -5.0265   24.9941 H   0  0  0  0  0  0  0  0  0  0  0  0
   12.1133   -2.9659   23.5471 H   0  0  0  0  0  0  0  0  0  0  0  0
   11.7226   -2.0498   22.0936 H   0  0  0  0  0  0  0  0  0  0  0  0
   10.8970   -0.1762   25.7878 H   0  0  0  0  0  0  0  0  0  0  0  0
   11.5872   -1.7990   25.8686 H   0  0  0  0  0  0  0  0  0  0  0  0
    9.3368   -2.1546   22.4986 H   0  0  0  0  0  0  0  0  0  0  0  0
   10.0144   -3.7845   22.6000 H   0  0  0  0  0  0  0  0  0  0  0  0
    9.1813   -1.9251   26.2778 H   0  0  0  0  0  0  0  0  0  0  0  0
    8.8083   -0.9721   24.8358 H   0  0  0  0  0  0  0  0  0  0  0  0
   12.2534    0.4815   21.5095 H   0  0  0  0  0  0  0  0  0  0  0  0
   13.2205   -0.9094   22.0481 H   0  0  0  0  0  0  0  0  0  0  0  0
   13.8029    0.7393   22.3418 H   0  0  0  0  0  0  0  0  0  0  0  0
   10.9733   -3.8173   25.5503 H   0  0  0  0  0  0  0  0  0  0  0  0
   10.1624   -4.9187   24.4363 H   0  0  0  0  0  0  0  0  0  0  0  0
  1  6  1  0  0  0  0
  1 15  3  0  0  0  0
  2  3  1  0  0  0  0
  2  4  2  0  0  0  0
  2 19  1  0  0  0  0
  3  6  2  0  0  0  0
  3 20  1  0  0  0  0
  4  7  1  0  0  0  0
  4 21  1  0  0  0  0
  5  6  1  0  0  0  0
  5  7  2  0  0  0  0
  5 22  1  0  0  0  0
  7 14  1  0  0  0  0
  8 13  1  0  0  0  0
  8 16  1  0  0  0  0
  8 18  2  0  0  0  0
  9 11  1  0  0  0  0
  9 16  1  0  0  0  0
  9 23  1  0  0  0  0
  9 24  1  0  0  0  0
 10 12  1  0  0  0  0
 10 16  1  0  0  0  0
 10 25  1  0  0  0  0
 10 26  1  0  0  0  0
 11 17  1  0  0  0  0
 11 27  1  0  0  0  0
 11 28  1  0  0  0  0
 12 17  1  0  0  0  0
 12 29  1  0  0  0  0
 12 30  1  0  0  0  0
 13 31  1  0  0  0  0
 13 32  1  0  0  0  0
 13 33  1  0  0  0  0
 14 17  1  0  0  0  0
 14 34  1  0  0  0  0
 14 35  1  0  0  0  0
M  END
>  <Chemgauss4 Score>
-4.65229272842407

>  <Number of Confs>
36

$$$$
