KIM-UNI-7d1-4
 OpenBabel03242009303D

 40 42  0  0  1  0  0  0  0  0999 V2000
    5.2253   -5.6019   24.5929 C   0  0  0  0  0  0  0  0  0  0  0  0
    5.2263   -5.8314   23.2162 C   0  0  0  0  0  0  0  0  0  0  0  0
    7.5869   -5.3522   23.1400 C   0  0  0  0  0  0  0  0  0  0  0  0
    7.5968   -5.1238   24.5254 C   0  0  0  0  0  0  0  0  0  0  0  0
    6.4007   -5.2329   25.2644 C   0  0  0  0  0  0  0  0  0  0  0  0
    6.4059   -5.7039   22.4897 C   0  0  0  0  0  0  0  0  0  0  0  0
   11.8103   -0.4492   23.2863 C   0  0  0  0  0  0  0  0  0  0  0  0
    8.8193   -5.0270   26.7204 C   0  0  0  0  0  0  0  0  0  0  0  0
    7.5276   -4.4828   27.3241 C   0  0  0  0  0  0  0  0  0  0  0  0
   10.8288   -1.5127   25.3749 C   0  0  0  0  0  0  0  0  0  0  0  0
    9.6427   -1.6364   23.2203 C   0  0  0  0  0  0  0  0  0  0  0  0
   10.4837   -2.9829   25.6190 C   0  0  0  0  0  0  0  0  0  0  0  0
    9.3259   -3.1046   23.5026 C   0  0  0  0  0  0  0  0  0  0  0  0
    8.8904   -4.7456   25.2135 C   0  0  2  0  0  0  0  0  0  0  0  0
   12.0634   -0.7878   21.8389 C   0  0  0  0  0  0  0  0  0  0  0  0
    6.3745   -5.0320   26.6391 N   0  0  0  0  0  0  0  0  0  0  0  0
   10.8381   -1.2032   23.9421 N   0  0  0  0  0  0  0  0  0  0  0  0
    9.2266   -3.3472   24.9492 N   0  0  0  0  0  0  0  0  0  0  0  0
   12.4546    0.4600   23.8154 O   0  0  0  0  0  0  0  0  0  0  0  0
    6.4071   -5.9843   20.7921 Cl  0  0  0  0  0  0  0  0  0  0  0  0
    4.2924   -5.7101   25.1422 H   0  0  0  0  0  0  0  0  0  0  0  0
    4.2971   -6.1099   22.7256 H   0  0  0  0  0  0  0  0  0  0  0  0
    8.5117   -5.2571   22.5745 H   0  0  0  0  0  0  0  0  0  0  0  0
    9.6867   -4.6026   27.2408 H   0  0  0  0  0  0  0  0  0  0  0  0
    8.8623   -6.1120   26.8891 H   0  0  0  0  0  0  0  0  0  0  0  0
    7.4751   -4.7475   28.3856 H   0  0  0  0  0  0  0  0  0  0  0  0
    7.5019   -3.3887   27.2630 H   0  0  0  0  0  0  0  0  0  0  0  0
   10.0777   -0.8607   25.8378 H   0  0  0  0  0  0  0  0  0  0  0  0
   11.7876   -1.2859   25.8452 H   0  0  0  0  0  0  0  0  0  0  0  0
    9.7644   -1.4851   22.1428 H   0  0  0  0  0  0  0  0  0  0  0  0
    8.8162   -0.9939   23.5485 H   0  0  0  0  0  0  0  0  0  0  0  0
   11.3115   -3.6169   25.2742 H   0  0  0  0  0  0  0  0  0  0  0  0
   10.3838   -3.1360   26.7004 H   0  0  0  0  0  0  0  0  0  0  0  0
    8.3711   -3.3476   23.0206 H   0  0  0  0  0  0  0  0  0  0  0  0
   10.0944   -3.7430   23.0468 H   0  0  0  0  0  0  0  0  0  0  0  0
    9.6999   -5.3828   24.8008 H   0  0  0  0  0  0  0  0  0  0  0  0
   11.4068   -0.1907   21.2147 H   0  0  0  0  0  0  0  0  0  0  0  0
   11.8663   -1.8434   21.6811 H   0  0  0  0  0  0  0  0  0  0  0  0
   13.0998   -0.5723   21.5998 H   0  0  0  0  0  0  0  0  0  0  0  0
    5.4836   -5.0562   27.1209 H   0  0  0  0  0  0  0  0  0  0  0  0
  1  2  2  0  0  0  0
  1  5  1  0  0  0  0
  1 21  1  0  0  0  0
  2  6  1  0  0  0  0
  2 22  1  0  0  0  0
  3  4  1  0  0  0  0
  3  6  2  0  0  0  0
  3 23  1  0  0  0  0
  4  5  2  0  0  0  0
  4 14  1  0  0  0  0
  5 16  1  0  0  0  0
  6 20  1  0  0  0  0
  7 15  1  0  0  0  0
  7 17  1  0  0  0  0
  7 19  2  0  0  0  0
  8  9  1  0  0  0  0
  8 14  1  0  0  0  0
  8 24  1  0  0  0  0
  8 25  1  0  0  0  0
  9 16  1  0  0  0  0
  9 26  1  0  0  0  0
  9 27  1  0  0  0  0
 10 12  1  0  0  0  0
 10 17  1  0  0  0  0
 10 28  1  0  0  0  0
 10 29  1  0  0  0  0
 11 13  1  0  0  0  0
 11 17  1  0  0  0  0
 11 30  1  0  0  0  0
 11 31  1  0  0  0  0
 12 18  1  0  0  0  0
 12 32  1  0  0  0  0
 12 33  1  0  0  0  0
 13 18  1  0  0  0  0
 13 34  1  0  0  0  0
 13 35  1  0  0  0  0
 14 18  1  0  0  0  0
 14 36  1  6  0  0  0
 15 37  1  0  0  0  0
 15 38  1  0  0  0  0
 15 39  1  0  0  0  0
 16 40  1  0  0  0  0
M  END
>  <Chemgauss4 Score>
-5.09683990478516

>  <Number of Confs>
4

$$$$
