s_22____9156166____58844
  -OEChem-03222023333D

 32 33  0     0  0  0  0  0  0999 V2000
   12.2697    0.4963   22.7027 C   0  0  0  0  0  0  0  0  0  0  0  0
   11.9199   -0.8578   22.7583 C   0  0  0  0  0  0  0  0  0  0  0  0
   10.1792   -0.3962   24.3896 C   0  0  0  0  0  0  0  0  0  0  0  0
   10.6879    3.1827   24.6110 C   0  0  0  0  0  0  0  0  0  0  0  0
   11.5667    1.4210   23.5003 C   0  0  0  0  0  0  0  0  0  0  0  0
   10.8904   -1.2949   23.5894 C   0  0  0  0  0  0  0  0  0  0  0  0
   11.6488    2.8286   23.6923 C   0  0  0  0  0  0  0  0  0  0  0  0
   10.5398    0.9543   24.3237 C   0  0  0  0  0  0  0  0  0  0  0  0
    9.8859    6.0553   23.3975 C   0  0  0  0  0  0  0  0  0  0  0  0
   10.5408   -2.7459   23.6288 C   0  0  0  0  0  0  0  0  0  0  0  0
    8.6273    6.2886   22.6295 C   0  0  0  0  0  0  0  0  0  0  0  0
   12.5911    3.7525   23.0291 C   0  0  0  0  0  0  0  0  0  0  0  0
   12.2251    5.2399   23.1836 C   0  0  0  0  0  0  0  0  0  0  0  0
   10.0243    2.0455   24.9862 N   0  0  0  0  0  0  0  0  0  0  0  0
   10.9261    5.5376   22.6425 N   0  0  0  0  0  0  0  0  0  0  0  0
    9.9231    6.3241   24.5925 O   0  0  0  0  0  0  0  0  0  0  0  0
   13.0753    0.8225   22.0512 H   0  0  0  0  0  0  0  0  0  0  0  0
   12.4658   -1.5683   22.1418 H   0  0  0  0  0  0  0  0  0  0  0  0
    9.3771   -0.7303   25.0401 H   0  0  0  0  0  0  0  0  0  0  0  0
   10.4150    4.1404   25.0320 H   0  0  0  0  0  0  0  0  0  0  0  0
   11.1273   -3.2576   24.4009 H   0  0  0  0  0  0  0  0  0  0  0  0
    9.4752   -2.8916   23.8457 H   0  0  0  0  0  0  0  0  0  0  0  0
   10.7384   -3.2280   22.6632 H   0  0  0  0  0  0  0  0  0  0  0  0
    7.9629    5.4097   22.6340 H   0  0  0  0  0  0  0  0  0  0  0  0
    8.0253    7.1108   23.0487 H   0  0  0  0  0  0  0  0  0  0  0  0
    8.7642    6.5429   21.5663 H   0  0  0  0  0  0  0  0  0  0  0  0
   12.6452    3.5273   21.9456 H   0  0  0  0  0  0  0  0  0  0  0  0
   13.6270    3.6033   23.3953 H   0  0  0  0  0  0  0  0  0  0  0  0
   12.2018    5.5309   24.2386 H   0  0  0  0  0  0  0  0  0  0  0  0
   12.9513    5.8781   22.6694 H   0  0  0  0  0  0  0  0  0  0  0  0
    9.2660    2.0115   25.6535 H   0  0  0  0  0  0  0  0  0  0  0  0
   10.7623    5.3585   21.6530 H   0  0  0  0  0  0  0  0  0  0  0  0
  1  2  2  0  0  0  0
  1  5  1  0  0  0  0
  2  6  1  0  0  0  0
  3  6  2  0  0  0  0
  3  8  1  0  0  0  0
  4  7  2  0  0  0  0
  4 14  1  0  0  0  0
  5  7  1  0  0  0  0
  5  8  2  0  0  0  0
  6 10  1  0  0  0  0
  7 12  1  0  0  0  0
  8 14  1  0  0  0  0
  9 11  1  0  0  0  0
  9 15  1  0  0  0  0
  9 16  2  0  0  0  0
 12 13  1  0  0  0  0
 13 15  1  0  0  0  0
  1 17  1  0  0  0  0
  2 18  1  0  0  0  0
  3 19  1  0  0  0  0
  4 20  1  0  0  0  0
 10 21  1  0  0  0  0
 10 22  1  0  0  0  0
 10 23  1  0  0  0  0
 11 24  1  0  0  0  0
 11 25  1  0  0  0  0
 11 26  1  0  0  0  0
 12 27  1  0  0  0  0
 12 28  1  0  0  0  0
 13 29  1  0  0  0  0
 13 30  1  0  0  0  0
 14 31  1  0  0  0  0
 15 32  1  0  0  0  0
M  END
> <Hybrid2>
-8.699586

$$$$
s_22____9226532____8794444
  -OEChem-03222023343D

 37 38  0     0  0  0  0  0  0999 V2000
    9.0955    5.4769   24.0112 C   0  0  0  0  0  0  0  0  0  0  0  0
    9.9024   -2.0995   24.4830 C   0  0  0  0  0  0  0  0  0  0  0  0
    9.8625   -0.9765   25.3142 C   0  0  0  0  0  0  0  0  0  0  0  0
   10.6723   -2.1069   23.3216 C   0  0  0  0  0  0  0  0  0  0  0  0
   11.6205    2.1512   24.8204 C   0  0  0  0  0  0  0  0  0  0  0  0
   11.4032    0.1571   23.7783 C   0  0  0  0  0  0  0  0  0  0  0  0
   12.0270    1.4347   23.7185 C   0  0  0  0  0  0  0  0  0  0  0  0
   10.6227    0.1359   24.9361 C   0  0  0  0  0  0  0  0  0  0  0  0
   11.4278   -0.9868   22.9559 C   0  0  0  0  0  0  0  0  0  0  0  0
   11.4892    5.0804   23.5030 C   0  0  0  0  0  0  0  0  0  0  0  0
   14.3605   -0.8488   20.8607 C   0  0  0  0  0  0  0  0  0  0  0  0
   10.1890    5.7246   23.0655 C   0  0  0  0  0  0  0  0  0  0  0  0
   12.9463    1.9228   22.6700 C   0  0  0  0  0  0  0  0  0  0  0  0
   13.1879    3.4426   22.7056 C   0  0  0  0  0  0  0  0  0  0  0  0
   13.5080   -1.5046   21.9260 C   0  0  0  0  0  0  0  0  0  0  0  0
    8.2278    5.2834   24.7568 N   0  0  0  0  0  0  0  0  0  0  0  0
   10.7738    1.3594   25.5489 N   0  0  0  0  0  0  0  0  0  0  0  0
   11.9687    4.1893   22.5476 N   0  0  0  0  0  0  0  0  0  0  0  0
   12.0411    5.3282   24.5721 O   0  0  0  0  0  0  0  0  0  0  0  0
   12.1715   -1.0314   21.8063 O   0  0  0  0  0  0  0  0  0  0  0  0
    9.3232   -2.9804   24.7479 H   0  0  0  0  0  0  0  0  0  0  0  0
    9.2628   -0.9724   26.2182 H   0  0  0  0  0  0  0  0  0  0  0  0
   10.6824   -2.9958   22.6952 H   0  0  0  0  0  0  0  0  0  0  0  0
   11.8563    3.1526   25.1524 H   0  0  0  0  0  0  0  0  0  0  0  0
   13.9919   -1.0934   19.8606 H   0  0  0  0  0  0  0  0  0  0  0  0
   14.3596    0.2395   20.9814 H   0  0  0  0  0  0  0  0  0  0  0  0
   15.4018   -1.1773   20.9435 H   0  0  0  0  0  0  0  0  0  0  0  0
    9.9216    5.3319   22.0781 H   0  0  0  0  0  0  0  0  0  0  0  0
   10.3552    6.8031   22.9637 H   0  0  0  0  0  0  0  0  0  0  0  0
   12.5503    1.6653   21.6680 H   0  0  0  0  0  0  0  0  0  0  0  0
   13.9264    1.4072   22.7219 H   0  0  0  0  0  0  0  0  0  0  0  0
   13.6235    3.7482   23.6622 H   0  0  0  0  0  0  0  0  0  0  0  0
   13.8697    3.7505   21.9061 H   0  0  0  0  0  0  0  0  0  0  0  0
   13.8819   -1.2559   22.9236 H   0  0  0  0  0  0  0  0  0  0  0  0
   13.5093   -2.5918   21.8034 H   0  0  0  0  0  0  0  0  0  0  0  0
   10.3234    1.6330   26.4113 H   0  0  0  0  0  0  0  0  0  0  0  0
   11.4290    4.0592   21.6933 H   0  0  0  0  0  0  0  0  0  0  0  0
  1 12  1  0  0  0  0
  1 16  3  0  0  0  0
  2  3  1  0  0  0  0
  2  4  2  0  0  0  0
  3  8  2  0  0  0  0
  4  9  1  0  0  0  0
  5  7  2  0  0  0  0
  5 17  1  0  0  0  0
  6  7  1  0  0  0  0
  6  8  1  0  0  0  0
  6  9  2  0  0  0  0
  7 13  1  0  0  0  0
  8 17  1  0  0  0  0
  9 20  1  0  0  0  0
 10 12  1  0  0  0  0
 10 18  1  0  0  0  0
 10 19  2  0  0  0  0
 11 15  1  0  0  0  0
 13 14  1  0  0  0  0
 14 18  1  0  0  0  0
 15 20  1  0  0  0  0
  2 21  1  0  0  0  0
  3 22  1  0  0  0  0
  4 23  1  0  0  0  0
  5 24  1  0  0  0  0
 11 25  1  0  0  0  0
 11 26  1  0  0  0  0
 11 27  1  0  0  0  0
 12 28  1  0  0  0  0
 12 29  1  0  0  0  0
 13 30  1  0  0  0  0
 13 31  1  0  0  0  0
 14 32  1  0  0  0  0
 14 33  1  0  0  0  0
 15 34  1  0  0  0  0
 15 35  1  0  0  0  0
 17 36  1  0  0  0  0
 18 37  1  0  0  0  0
M  END
> <Hybrid2>
-7.800301

$$$$
s_22____13978824____13040272
  -OEChem-03222023373D

 39 40  0     0  0  0  0  0  0999 V2000
   11.4748   -2.0842   22.9133 C   0  0  0  0  0  0  0  0  0  0  0  0
   10.3965   -1.9573   23.4259 C   0  0  0  0  0  0  0  0  0  0  0  0
    9.9566    4.1853   23.1732 C   0  0  0  0  0  0  0  0  0  0  0  0
    9.0924    5.1937   23.6150 C   0  0  0  0  0  0  0  0  0  0  0  0
   10.9513    6.4548   24.5415 C   0  0  0  0  0  0  0  0  0  0  0  0
   13.5850    4.1483   23.6140 C   0  0  0  0  0  0  0  0  0  0  0  0
   11.3389    4.3093   23.4169 C   0  0  0  0  0  0  0  0  0  0  0  0
   12.4740    3.5039   23.1205 C   0  0  0  0  0  0  0  0  0  0  0  0
   11.8034    5.4389   24.0940 C   0  0  0  0  0  0  0  0  0  0  0  0
    9.5843    6.3101   24.2884 C   0  0  0  0  0  0  0  0  0  0  0  0
   10.2549    0.7483   23.9683 C   0  0  0  0  0  0  0  0  0  0  0  0
    9.2811    8.3950   25.3916 C   0  0  0  0  0  0  0  0  0  0  0  0
    9.0773   -1.8065   24.0443 C   0  0  0  0  0  0  0  0  0  0  0  0
   12.4717    2.2086   22.4111 C   0  0  0  0  0  0  0  0  0  0  0  0
    9.3435    0.6786   25.1709 C   0  0  0  0  0  0  0  0  0  0  0  0
   12.6500    0.9881   23.3324 C   0  0  0  0  0  0  0  0  0  0  0  0
   13.1704    5.3143   24.1996 N   0  0  0  0  0  0  0  0  0  0  0  0
   11.5956    0.8846   24.3052 N   0  0  0  0  0  0  0  0  0  0  0  0
    9.8157    0.7005   22.8205 O   0  0  0  0  0  0  0  0  0  0  0  0
    8.7194    7.2769   24.7084 O   0  0  0  0  0  0  0  0  0  0  0  0
    9.1787   -1.0483   25.6830 S   0  0  0  0  0  0  0  0  0  0  0  0
   12.4315   -2.1966   22.4592 H   0  0  0  0  0  0  0  0  0  0  0  0
    9.5583    3.3207   22.6497 H   0  0  0  0  0  0  0  0  0  0  0  0
    8.0258    5.0973   23.4267 H   0  0  0  0  0  0  0  0  0  0  0  0
   11.3388    7.3227   25.0655 H   0  0  0  0  0  0  0  0  0  0  0  0
   14.6334    3.8844   23.6012 H   0  0  0  0  0  0  0  0  0  0  0  0
    8.4852    9.0896   25.6712 H   0  0  0  0  0  0  0  0  0  0  0  0
   10.0038    8.8948   24.7416 H   0  0  0  0  0  0  0  0  0  0  0  0
    9.7877    8.0428   26.2933 H   0  0  0  0  0  0  0  0  0  0  0  0
    8.5909   -2.7815   24.1459 H   0  0  0  0  0  0  0  0  0  0  0  0
    8.4351   -1.1802   23.4173 H   0  0  0  0  0  0  0  0  0  0  0  0
   13.2838    2.1863   21.6577 H   0  0  0  0  0  0  0  0  0  0  0  0
   11.5426    2.0737   21.8212 H   0  0  0  0  0  0  0  0  0  0  0  0
    8.3537    1.0890   24.9524 H   0  0  0  0  0  0  0  0  0  0  0  0
    9.7839    1.2670   25.9814 H   0  0  0  0  0  0  0  0  0  0  0  0
   12.6408    0.0571   22.7568 H   0  0  0  0  0  0  0  0  0  0  0  0
   13.5980    1.0432   23.8774 H   0  0  0  0  0  0  0  0  0  0  0  0
   13.7793    5.9864   24.6457 H   0  0  0  0  0  0  0  0  0  0  0  0
   11.8540    0.9332   25.2894 H   0  0  0  0  0  0  0  0  0  0  0  0
  1  2  3  0  0  0  0
  2 13  1  0  0  0  0
  3  4  2  0  0  0  0
  3  7  1  0  0  0  0
  4 10  1  0  0  0  0
  5  9  1  0  0  0  0
  5 10  2  0  0  0  0
  6  8  2  0  0  0  0
  6 17  1  0  0  0  0
  7  8  1  0  0  0  0
  7  9  2  0  0  0  0
  8 14  1  0  0  0  0
  9 17  1  0  0  0  0
 10 20  1  0  0  0  0
 11 15  1  0  0  0  0
 11 18  1  0  0  0  0
 11 19  2  0  0  0  0
 12 20  1  0  0  0  0
 13 21  1  0  0  0  0
 14 16  1  0  0  0  0
 15 21  1  0  0  0  0
 16 18  1  0  0  0  0
  1 22  1  0  0  0  0
  3 23  1  0  0  0  0
  4 24  1  0  0  0  0
  5 25  1  0  0  0  0
  6 26  1  0  0  0  0
 12 27  1  0  0  0  0
 12 28  1  0  0  0  0
 12 29  1  0  0  0  0
 13 30  1  0  0  0  0
 13 31  1  0  0  0  0
 14 32  1  0  0  0  0
 14 33  1  0  0  0  0
 15 34  1  0  0  0  0
 15 35  1  0  0  0  0
 16 36  1  0  0  0  0
 16 37  1  0  0  0  0
 17 38  1  0  0  0  0
 18 39  1  0  0  0  0
M  END
> <Hybrid2>
-5.539398

$$$$
s_22____13909752____8794444
  -OEChem-03222023373D

 31 32  0     0  0  0  0  0  0999 V2000
    8.7559    5.2665   22.7013 C   0  0  0  0  0  0  0  0  0  0  0  0
   10.7857   -0.8468   23.4598 C   0  0  0  0  0  0  0  0  0  0  0  0
   11.5273   -1.5716   22.5224 C   0  0  0  0  0  0  0  0  0  0  0  0
   12.9603    0.3410   22.0915 C   0  0  0  0  0  0  0  0  0  0  0  0
   11.3100    2.5984   24.4454 C   0  0  0  0  0  0  0  0  0  0  0  0
   12.2273    1.0914   23.0322 C   0  0  0  0  0  0  0  0  0  0  0  0
   12.3107    2.4267   23.5170 C   0  0  0  0  0  0  0  0  0  0  0  0
   11.1590    0.4815   23.6933 C   0  0  0  0  0  0  0  0  0  0  0  0
   12.5982   -0.9888   21.8477 C   0  0  0  0  0  0  0  0  0  0  0  0
   10.8274    6.2082   23.6848 C   0  0  0  0  0  0  0  0  0  0  0  0
    9.5614    6.4767   22.8961 C   0  0  0  0  0  0  0  0  0  0  0  0
   13.2911    3.4517   23.1060 C   0  0  0  0  0  0  0  0  0  0  0  0
   12.9305    4.8803   23.5528 C   0  0  0  0  0  0  0  0  0  0  0  0
    8.1156    4.3115   22.5450 N   0  0  0  0  0  0  0  0  0  0  0  0
   10.6209    1.4196   24.5451 N   0  0  0  0  0  0  0  0  0  0  0  0
   11.6614    5.3082   23.0282 N   0  0  0  0  0  0  0  0  0  0  0  0
   11.0736    6.7319   24.7684 O   0  0  0  0  0  0  0  0  0  0  0  0
   13.3032   -1.7211   20.9397 O   0  0  0  0  0  0  0  0  0  0  0  0
    9.9517   -1.3014   23.9841 H   0  0  0  0  0  0  0  0  0  0  0  0
   11.2575   -2.6057   22.3210 H   0  0  0  0  0  0  0  0  0  0  0  0
   13.7974    0.7866   21.5608 H   0  0  0  0  0  0  0  0  0  0  0  0
   11.0256    3.4525   25.0442 H   0  0  0  0  0  0  0  0  0  0  0  0
    9.8405    6.8971   21.9234 H   0  0  0  0  0  0  0  0  0  0  0  0
    8.9746    7.2316   23.4318 H   0  0  0  0  0  0  0  0  0  0  0  0
   13.3953    3.4576   22.0029 H   0  0  0  0  0  0  0  0  0  0  0  0
   14.3071    3.2106   23.4789 H   0  0  0  0  0  0  0  0  0  0  0  0
   12.8591    4.9443   24.6431 H   0  0  0  0  0  0  0  0  0  0  0  0
   13.6857    5.5986   23.2173 H   0  0  0  0  0  0  0  0  0  0  0  0
    9.8308    1.2603   25.1549 H   0  0  0  0  0  0  0  0  0  0  0  0
   11.3577    4.9335   22.1307 H   0  0  0  0  0  0  0  0  0  0  0  0
   12.9393   -2.6180   20.8784 H   0  0  0  0  0  0  0  0  0  0  0  0
  1 11  1  0  0  0  0
  1 14  3  0  0  0  0
  2  3  1  0  0  0  0
  2  8  2  0  0  0  0
  3  9  2  0  0  0  0
  4  6  2  0  0  0  0
  4  9  1  0  0  0  0
  5  7  2  0  0  0  0
  5 15  1  0  0  0  0
  6  7  1  0  0  0  0
  6  8  1  0  0  0  0
  7 12  1  0  0  0  0
  8 15  1  0  0  0  0
  9 18  1  0  0  0  0
 10 11  1  0  0  0  0
 10 16  1  0  0  0  0
 10 17  2  0  0  0  0
 12 13  1  0  0  0  0
 13 16  1  0  0  0  0
  2 19  1  0  0  0  0
  3 20  1  0  0  0  0
  4 21  1  0  0  0  0
  5 22  1  0  0  0  0
 11 23  1  0  0  0  0
 11 24  1  0  0  0  0
 12 25  1  0  0  0  0
 12 26  1  0  0  0  0
 13 27  1  0  0  0  0
 13 28  1  0  0  0  0
 15 29  1  0  0  0  0
 16 30  1  0  0  0  0
 18 31  1  0  0  0  0
M  END
> <Hybrid2>
-8.690538

$$$$
s_22____2366540____8794444
  -OEChem-03222023373D

 30 31  0     0  0  0  0  0  0999 V2000
    7.9765    4.7710   22.0147 C   0  0  0  0  0  0  0  0  0  0  0  0
   12.6823    0.3758   22.6002 C   0  0  0  0  0  0  0  0  0  0  0  0
   12.4137   -0.9923   22.4768 C   0  0  0  0  0  0  0  0  0  0  0  0
   10.3780   -0.7649   23.7839 C   0  0  0  0  0  0  0  0  0  0  0  0
   10.6125    2.7977   24.3921 C   0  0  0  0  0  0  0  0  0  0  0  0
   11.7886    1.1890   23.3249 C   0  0  0  0  0  0  0  0  0  0  0  0
   11.7459    2.5750   23.6445 C   0  0  0  0  0  0  0  0  0  0  0  0
   10.6593    0.6011   23.8989 C   0  0  0  0  0  0  0  0  0  0  0  0
   11.2787   -1.5517   23.0604 C   0  0  0  0  0  0  0  0  0  0  0  0
    9.8661    5.7334   23.2986 C   0  0  0  0  0  0  0  0  0  0  0  0
    8.7826    5.9704   22.2657 C   0  0  0  0  0  0  0  0  0  0  0  0
   12.7349    3.5989   23.2504 C   0  0  0  0  0  0  0  0  0  0  0  0
   12.2551    5.0470   23.4572 C   0  0  0  0  0  0  0  0  0  0  0  0
    7.3364    3.8244   21.8132 N   0  0  0  0  0  0  0  0  0  0  0  0
    9.9639    1.6011   24.5405 N   0  0  0  0  0  0  0  0  0  0  0  0
   11.0616    5.3350   22.7079 N   0  0  0  0  0  0  0  0  0  0  0  0
    9.6947    5.8828   24.5057 O   0  0  0  0  0  0  0  0  0  0  0  0
   11.0460   -2.8648   22.9265 F   0  0  0  0  0  0  0  0  0  0  0  0
   13.5718    0.7965   22.1400 H   0  0  0  0  0  0  0  0  0  0  0  0
   13.0991   -1.6242   21.9184 H   0  0  0  0  0  0  0  0  0  0  0  0
    9.4946   -1.2014   24.2375 H   0  0  0  0  0  0  0  0  0  0  0  0
   10.2081    3.6986   24.8321 H   0  0  0  0  0  0  0  0  0  0  0  0
    9.2565    6.3004   21.3344 H   0  0  0  0  0  0  0  0  0  0  0  0
    8.1390    6.7832   22.6208 H   0  0  0  0  0  0  0  0  0  0  0  0
   13.0007    3.4788   22.1816 H   0  0  0  0  0  0  0  0  0  0  0  0
   13.6930    3.4630   23.7914 H   0  0  0  0  0  0  0  0  0  0  0  0
   12.0206    5.2362   24.5094 H   0  0  0  0  0  0  0  0  0  0  0  0
   13.0223    5.7629   23.1443 H   0  0  0  0  0  0  0  0  0  0  0  0
    9.0993    1.4705   25.0473 H   0  0  0  0  0  0  0  0  0  0  0  0
   11.0929    5.2425   21.6937 H   0  0  0  0  0  0  0  0  0  0  0  0
  1 11  1  0  0  0  0
  1 14  3  0  0  0  0
  2  3  1  0  0  0  0
  2  6  2  0  0  0  0
  3  9  2  0  0  0  0
  4  8  2  0  0  0  0
  4  9  1  0  0  0  0
  5  7  2  0  0  0  0
  5 15  1  0  0  0  0
  6  7  1  0  0  0  0
  6  8  1  0  0  0  0
  7 12  1  0  0  0  0
  8 15  1  0  0  0  0
  9 18  1  0  0  0  0
 10 11  1  0  0  0  0
 10 16  1  0  0  0  0
 10 17  2  0  0  0  0
 12 13  1  0  0  0  0
 13 16  1  0  0  0  0
  2 19  1  0  0  0  0
  3 20  1  0  0  0  0
  4 21  1  0  0  0  0
  5 22  1  0  0  0  0
 11 23  1  0  0  0  0
 11 24  1  0  0  0  0
 12 25  1  0  0  0  0
 12 26  1  0  0  0  0
 13 27  1  0  0  0  0
 13 28  1  0  0  0  0
 15 29  1  0  0  0  0
 16 30  1  0  0  0  0
M  END
> <Hybrid2>
-8.835415

$$$$
s_270062____15506652____12187078
  -OEChem-03222023383D

 42 43  0     0  0  0  0  0  0999 V2000
   12.2317   -1.3725   22.0695 C   0  0  0  0  0  0  0  0  0  0  0  0
   12.5423   -0.0196   22.2483 C   0  0  0  0  0  0  0  0  0  0  0  0
   11.2091   -1.9723   22.8019 C   0  0  0  0  0  0  0  0  0  0  0  0
   10.8687    2.2600   24.5642 C   0  0  0  0  0  0  0  0  0  0  0  0
   11.8067    0.7369   23.1823 C   0  0  0  0  0  0  0  0  0  0  0  0
   11.8464    2.0933   23.6107 C   0  0  0  0  0  0  0  0  0  0  0  0
   10.7876    0.1094   23.9020 C   0  0  0  0  0  0  0  0  0  0  0  0
   10.4660   -1.2421   23.7338 C   0  0  0  0  0  0  0  0  0  0  0  0
   10.0035    5.2398   23.9011 C   0  0  0  0  0  0  0  0  0  0  0  0
    8.2198    4.3528   22.3713 C   0  0  0  0  0  0  0  0  0  0  0  0
    8.8967    6.7423   22.2057 C   0  0  0  0  0  0  0  0  0  0  0  0
    9.2352   -3.2265   24.1841 C   0  0  0  0  0  0  0  0  0  0  0  0
   12.7873    3.1644   23.1160 C   0  0  0  0  0  0  0  0  0  0  0  0
   12.3579    4.5705   23.5276 C   0  0  0  0  0  0  0  0  0  0  0  0
    7.5642    5.9353   24.2053 C   0  0  0  0  0  0  0  0  0  0  0  0
    8.6728    5.5769   23.1910 C   0  0  0  0  0  0  0  0  0  0  0  0
   10.2356    1.0579   24.7332 N   0  0  0  0  0  0  0  0  0  0  0  0
   11.0420    4.9124   23.0420 N   0  0  0  0  0  0  0  0  0  0  0  0
   10.1178    5.2650   25.1270 O   0  0  0  0  0  0  0  0  0  0  0  0
    9.4673   -1.8455   24.4447 O   0  0  0  0  0  0  0  0  0  0  0  0
    7.2057    4.6152   25.3517 Cl  0  0  0  0  0  0  0  0  0  0  0  0
   12.7960   -1.9612   21.3512 H   0  0  0  0  0  0  0  0  0  0  0  0
   13.3426    0.4332   21.6699 H   0  0  0  0  0  0  0  0  0  0  0  0
   10.9895   -3.0254   22.6417 H   0  0  0  0  0  0  0  0  0  0  0  0
   10.5663    3.1248   25.1378 H   0  0  0  0  0  0  0  0  0  0  0  0
    7.2762    4.5525   21.8507 H   0  0  0  0  0  0  0  0  0  0  0  0
    8.0636    3.4711   23.0025 H   0  0  0  0  0  0  0  0  0  0  0  0
    8.9700    4.0837   21.6185 H   0  0  0  0  0  0  0  0  0  0  0  0
    7.9664    7.0027   21.6869 H   0  0  0  0  0  0  0  0  0  0  0  0
    9.2486    7.6399   22.7264 H   0  0  0  0  0  0  0  0  0  0  0  0
    9.6316    6.4925   21.4328 H   0  0  0  0  0  0  0  0  0  0  0  0
    8.4167   -3.5843   24.8136 H   0  0  0  0  0  0  0  0  0  0  0  0
   10.1448   -3.7955   24.3925 H   0  0  0  0  0  0  0  0  0  0  0  0
    8.9638   -3.3493   23.1330 H   0  0  0  0  0  0  0  0  0  0  0  0
   12.8363    3.1061   22.0213 H   0  0  0  0  0  0  0  0  0  0  0  0
   13.8040    2.9597   23.4750 H   0  0  0  0  0  0  0  0  0  0  0  0
   12.3207    4.6446   24.6190 H   0  0  0  0  0  0  0  0  0  0  0  0
   13.0543    5.3301   23.1573 H   0  0  0  0  0  0  0  0  0  0  0  0
    7.8539    6.8057   24.8040 H   0  0  0  0  0  0  0  0  0  0  0  0
    6.6209    6.1820   23.7084 H   0  0  0  0  0  0  0  0  0  0  0  0
    9.4728    0.8899   25.3745 H   0  0  0  0  0  0  0  0  0  0  0  0
   10.8924    4.9062   22.0385 H   0  0  0  0  0  0  0  0  0  0  0  0
  1  2  1  0  0  0  0
  1  3  2  0  0  0  0
  2  5  2  0  0  0  0
  3  8  1  0  0  0  0
  4  6  2  0  0  0  0
  4 17  1  0  0  0  0
  5  6  1  0  0  0  0
  5  7  1  0  0  0  0
  6 13  1  0  0  0  0
  7  8  2  0  0  0  0
  7 17  1  0  0  0  0
  8 20  1  0  0  0  0
  9 16  1  0  0  0  0
  9 18  1  0  0  0  0
  9 19  2  0  0  0  0
 10 16  1  0  0  0  0
 11 16  1  0  0  0  0
 12 20  1  0  0  0  0
 13 14  1  0  0  0  0
 14 18  1  0  0  0  0
 15 16  1  0  0  0  0
 15 21  1  0  0  0  0
  1 22  1  0  0  0  0
  2 23  1  0  0  0  0
  3 24  1  0  0  0  0
  4 25  1  0  0  0  0
 10 26  1  0  0  0  0
 10 27  1  0  0  0  0
 10 28  1  0  0  0  0
 11 29  1  0  0  0  0
 11 30  1  0  0  0  0
 11 31  1  0  0  0  0
 12 32  1  0  0  0  0
 12 33  1  0  0  0  0
 12 34  1  0  0  0  0
 13 35  1  0  0  0  0
 13 36  1  0  0  0  0
 14 37  1  0  0  0  0
 14 38  1  0  0  0  0
 15 39  1  0  0  0  0
 15 40  1  0  0  0  0
 17 41  1  0  0  0  0
 18 42  1  0  0  0  0
M  END
> <Hybrid2>
-8.727980

$$$$
s_207____3310404____9293594
  -OEChem-03222023383D

 35 36  0     0  0  0  0  0  0999 V2000
   12.7038    0.1720   22.5587 C   0  0  0  0  0  0  0  0  0  0  0  0
   11.9797   -0.9337   23.0189 C   0  0  0  0  0  0  0  0  0  0  0  0
   12.7975    2.7755   22.6907 C   0  0  0  0  0  0  0  0  0  0  0  0
   10.4725    0.5058   24.2681 C   0  0  0  0  0  0  0  0  0  0  0  0
   12.3102    1.4652   22.9564 C   0  0  0  0  0  0  0  0  0  0  0  0
   11.2058    1.6020   23.8002 C   0  0  0  0  0  0  0  0  0  0  0  0
   10.8815   -0.7671   23.8604 C   0  0  0  0  0  0  0  0  0  0  0  0
   11.9944    3.6658   23.3654 C   0  0  0  0  0  0  0  0  0  0  0  0
    9.2628    5.7987   24.4180 C   0  0  0  0  0  0  0  0  0  0  0  0
    7.5246    5.7199   26.2165 C   0  0  0  0  0  0  0  0  0  0  0  0
    7.0433    4.7061   24.0218 C   0  0  0  0  0  0  0  0  0  0  0  0
   12.0421    5.1633   23.4438 C   0  0  0  0  0  0  0  0  0  0  0  0
    9.5986    5.4181   22.9929 C   0  0  0  0  0  0  0  0  0  0  0  0
   11.0374    2.9485   24.0319 N   0  0  0  0  0  0  0  0  0  0  0  0
    7.9934    5.4233   24.8686 N   0  0  0  0  0  0  0  0  0  0  0  0
   10.9824    5.8233   22.6350 N   0  3  0  0  0  0  0  0  0  0  0  0
   10.0822    6.4045   25.1135 O   0  0  0  0  0  0  0  0  0  0  0  0
   10.2061   -1.8435   24.2859 F   0  0  0  0  0  0  0  0  0  0  0  0
   13.5575    0.0278   21.9026 H   0  0  0  0  0  0  0  0  0  0  0  0
   12.2781   -1.9338   22.7154 H   0  0  0  0  0  0  0  0  0  0  0  0
   13.6450    3.0369   22.0714 H   0  0  0  0  0  0  0  0  0  0  0  0
    9.6181    0.6343   24.9237 H   0  0  0  0  0  0  0  0  0  0  0  0
    7.0212    6.6980   26.2232 H   0  0  0  0  0  0  0  0  0  0  0  0
    6.8172    4.9414   26.5381 H   0  0  0  0  0  0  0  0  0  0  0  0
    8.3816    5.7440   26.9056 H   0  0  0  0  0  0  0  0  0  0  0  0
    7.1898    3.6226   24.1417 H   0  0  0  0  0  0  0  0  0  0  0  0
    6.0171    4.9720   24.3155 H   0  0  0  0  0  0  0  0  0  0  0  0
    7.2073    4.9840   22.9702 H   0  0  0  0  0  0  0  0  0  0  0  0
   11.9129    5.5102   24.4746 H   0  0  0  0  0  0  0  0  0  0  0  0
   13.0009    5.5481   23.0799 H   0  0  0  0  0  0  0  0  0  0  0  0
    9.5522    4.3340   22.8621 H   0  0  0  0  0  0  0  0  0  0  0  0
    8.9366    5.9313   22.2906 H   0  0  0  0  0  0  0  0  0  0  0  0
   10.3106    3.3463   24.6110 H   0  0  0  0  0  0  0  0  0  0  0  0
   11.0719    6.8445   22.7328 H   0  0  0  0  0  0  0  0  0  0  0  0
   11.1467    5.6232   21.6384 H   0  0  0  0  0  0  0  0  0  0  0  0
  1  2  2  0  0  0  0
  1  5  1  0  0  0  0
  2  7  1  0  0  0  0
  3  5  1  0  0  0  0
  3  8  2  0  0  0  0
  4  6  1  0  0  0  0
  4  7  2  0  0  0  0
  5  6  2  0  0  0  0
  6 14  1  0  0  0  0
  7 18  1  0  0  0  0
  8 12  1  0  0  0  0
  8 14  1  0  0  0  0
  9 13  1  0  0  0  0
  9 15  1  0  0  0  0
  9 17  2  0  0  0  0
 10 15  1  0  0  0  0
 11 15  1  0  0  0  0
 12 16  1  0  0  0  0
 13 16  1  0  0  0  0
  1 19  1  0  0  0  0
  2 20  1  0  0  0  0
  3 21  1  0  0  0  0
  4 22  1  0  0  0  0
 10 23  1  0  0  0  0
 10 24  1  0  0  0  0
 10 25  1  0  0  0  0
 11 26  1  0  0  0  0
 11 27  1  0  0  0  0
 11 28  1  0  0  0  0
 12 29  1  0  0  0  0
 12 30  1  0  0  0  0
 13 31  1  0  0  0  0
 13 32  1  0  0  0  0
 14 33  1  0  0  0  0
 16 34  1  0  0  0  0
 16 35  1  0  0  0  0
M  CHG  1  16   1
M  END
> <Hybrid2>
-7.318295

$$$$
s_11a____14724372____55112
  -OEChem-03222023393D

 43 44  0     1  0  0  0  0  0999 V2000
    9.9055   -1.1459   23.1185 C   0  0  0  0  0  0  0  0  0  0  0  0
   11.0907   -1.6441   22.5699 C   0  0  0  0  0  0  0  0  0  0  0  0
   12.2459    0.4433   23.0229 C   0  0  0  0  0  0  0  0  0  0  0  0
    9.3879    2.1457   24.5376 C   0  0  0  0  0  0  0  0  0  0  0  0
   11.0627    0.9672   23.5807 C   0  0  0  0  0  0  0  0  0  0  0  0
   10.7107    2.2156   24.1660 C   0  0  0  0  0  0  0  0  0  0  0  0
    9.9221    0.1622   23.6155 C   0  0  0  0  0  0  0  0  0  0  0  0
   12.2440   -0.8635   22.5218 C   0  0  0  0  0  0  0  0  0  0  0  0
   10.2374    6.0438   23.6368 C   0  0  0  0  0  0  0  0  0  0  0  0
   13.1480    5.0395   23.2067 C   0  0  0  0  0  0  0  0  0  0  0  0
   14.5309   -0.5289   21.9617 C   0  0  0  0  0  0  0  0  0  0  0  0
   14.3130    6.6574   24.4805 C   0  0  0  0  0  0  0  0  0  0  0  0
    6.7718    6.7754   21.5394 C   0  0  0  0  0  0  0  0  0  0  0  0
   11.5973    3.3825   24.3481 C   0  0  0  0  0  0  0  0  0  0  0  0
    9.0339    6.7734   23.0883 C   0  0  0  0  0  0  0  0  0  0  0  0
   11.8589    4.2382   23.0813 C   0  0  1  0  0  0  0  0  0  0  0  0
    8.9210    0.9033   24.2018 N   0  0  0  0  0  0  0  0  0  0  0  0
   10.7272    5.0756   22.7722 N   0  0  0  0  0  0  0  0  0  0  0  0
   10.6983    6.3005   24.7479 O   0  0  0  0  0  0  0  0  0  0  0  0
   14.0857    4.9104   22.4263 O   0  0  0  0  0  0  0  0  0  0  0  0
   13.3850   -1.3772   21.9815 O   0  0  0  0  0  0  0  0  0  0  0  0
   13.1287    5.8795   24.2792 O   0  0  0  0  0  0  0  0  0  0  0  0
    8.1005    5.6481   22.0233 S   0  0  0  0  0  0  0  0  0  0  0  0
    9.0080   -1.7543   23.1549 H   0  0  0  0  0  0  0  0  0  0  0  0
   11.1049   -2.6575   22.1753 H   0  0  0  0  0  0  0  0  0  0  0  0
   13.1504    1.0442   22.9815 H   0  0  0  0  0  0  0  0  0  0  0  0
    8.7363    2.8674   25.0105 H   0  0  0  0  0  0  0  0  0  0  0  0
   15.3703   -1.0596   21.5057 H   0  0  0  0  0  0  0  0  0  0  0  0
   14.7844   -0.2334   22.9829 H   0  0  0  0  0  0  0  0  0  0  0  0
   14.3031    0.3625   21.3725 H   0  0  0  0  0  0  0  0  0  0  0  0
   14.1883    7.2910   25.3620 H   0  0  0  0  0  0  0  0  0  0  0  0
   14.4988    7.2749   23.5981 H   0  0  0  0  0  0  0  0  0  0  0  0
   15.1589    5.9835   24.6358 H   0  0  0  0  0  0  0  0  0  0  0  0
    6.0762    6.2642   20.8695 H   0  0  0  0  0  0  0  0  0  0  0  0
    7.1907    7.6430   21.0236 H   0  0  0  0  0  0  0  0  0  0  0  0
    6.2307    7.1136   22.4263 H   0  0  0  0  0  0  0  0  0  0  0  0
   12.5815    3.0587   24.7467 H   0  0  0  0  0  0  0  0  0  0  0  0
   11.1975    4.0521   25.1377 H   0  0  0  0  0  0  0  0  0  0  0  0
    9.3241    7.6588   22.5157 H   0  0  0  0  0  0  0  0  0  0  0  0
    8.4082    7.0997   23.9244 H   0  0  0  0  0  0  0  0  0  0  0  0
   11.9860    3.5913   22.2049 H   0  0  0  0  0  0  0  0  0  0  0  0
    7.9778    0.5767   24.3602 H   0  0  0  0  0  0  0  0  0  0  0  0
   10.2623    4.9264   21.8797 H   0  0  0  0  0  0  0  0  0  0  0  0
  1  2  2  0  0  0  0
  1  7  1  0  0  0  0
  2  8  1  0  0  0  0
  3  5  1  0  0  0  0
  3  8  2  0  0  0  0
  4  6  2  0  0  0  0
  4 17  1  0  0  0  0
  5  6  1  0  0  0  0
  5  7  2  0  0  0  0
  6 14  1  0  0  0  0
  7 17  1  0  0  0  0
  8 21  1  0  0  0  0
  9 15  1  0  0  0  0
  9 18  1  0  0  0  0
  9 19  2  0  0  0  0
 10 16  1  0  0  0  0
 10 20  2  0  0  0  0
 10 22  1  0  0  0  0
 11 21  1  0  0  0  0
 12 22  1  0  0  0  0
 13 23  1  0  0  0  0
 14 16  1  0  0  0  0
 15 23  1  0  0  0  0
 16 18  1  0  0  0  0
  1 24  1  0  0  0  0
  2 25  1  0  0  0  0
  3 26  1  0  0  0  0
  4 27  1  0  0  0  0
 11 28  1  0  0  0  0
 11 29  1  0  0  0  0
 11 30  1  0  0  0  0
 12 31  1  0  0  0  0
 12 32  1  0  0  0  0
 12 33  1  0  0  0  0
 13 34  1  0  0  0  0
 13 35  1  0  0  0  0
 13 36  1  0  0  0  0
 14 37  1  0  0  0  0
 14 38  1  0  0  0  0
 15 39  1  0  0  0  0
 15 40  1  0  0  0  0
 16 41  1  0  0  0  0
 17 42  1  0  0  0  0
 18 43  1  0  0  0  0
M  END
> <Hybrid2>
-6.623362

$$$$
s_22____13978824____10118400
  -OEChem-03222023413D

 37 38  0     0  0  0  0  0  0999 V2000
   12.8734    1.3495   23.2474 C   0  0  0  0  0  0  0  0  0  0  0  0
   12.7740    0.0232   22.8115 C   0  0  0  0  0  0  0  0  0  0  0  0
   10.6019   -0.2190   23.8734 C   0  0  0  0  0  0  0  0  0  0  0  0
   10.3717    3.1314   25.2290 C   0  0  0  0  0  0  0  0  0  0  0  0
   11.8243    1.9036   24.0074 C   0  0  0  0  0  0  0  0  0  0  0  0
   11.5938    3.1773   24.5987 C   0  0  0  0  0  0  0  0  0  0  0  0
   10.7150    1.1082   24.3023 C   0  0  0  0  0  0  0  0  0  0  0  0
   11.6548   -0.7472   23.1208 C   0  0  0  0  0  0  0  0  0  0  0  0
   10.5103    6.5234   23.6696 C   0  0  0  0  0  0  0  0  0  0  0  0
   10.4156   -2.7750   23.0314 C   0  0  0  0  0  0  0  0  0  0  0  0
   12.4965    4.3452   24.5502 C   0  0  0  0  0  0  0  0  0  0  0  0
    9.1648    6.8933   23.0826 C   0  0  0  0  0  0  0  0  0  0  0  0
   12.4895    5.0883   23.2018 C   0  0  0  0  0  0  0  0  0  0  0  0
    8.4299    4.6486   23.1439 C   0  0  0  0  0  0  0  0  0  0  0  0
    9.8494    1.8793   25.0449 N   0  0  0  0  0  0  0  0  0  0  0  0
   11.1882    5.6065   22.8752 N   0  0  0  0  0  0  0  0  0  0  0  0
   10.9268    6.9947   24.7243 O   0  0  0  0  0  0  0  0  0  0  0  0
   11.5848   -2.0368   22.6838 O   0  0  0  0  0  0  0  0  0  0  0  0
    8.6266    5.8133   22.3498 O   0  0  0  0  0  0  0  0  0  0  0  0
    7.9356    5.0075   24.3527 F   0  0  0  0  0  0  0  0  0  0  0  0
    7.5205    3.8440   22.5436 F   0  0  0  0  0  0  0  0  0  0  0  0
   13.7523    1.9376   22.9985 H   0  0  0  0  0  0  0  0  0  0  0  0
   13.5840   -0.4037   22.2250 H   0  0  0  0  0  0  0  0  0  0  0  0
    9.7282   -0.8154   24.1165 H   0  0  0  0  0  0  0  0  0  0  0  0
    9.8249    3.8757   25.7911 H   0  0  0  0  0  0  0  0  0  0  0  0
   10.4869   -3.7858   22.6222 H   0  0  0  0  0  0  0  0  0  0  0  0
    9.5326   -2.2701   22.6318 H   0  0  0  0  0  0  0  0  0  0  0  0
   10.3403   -2.8297   24.1200 H   0  0  0  0  0  0  0  0  0  0  0  0
   13.5380    4.0296   24.7581 H   0  0  0  0  0  0  0  0  0  0  0  0
   12.2608    5.0706   25.3550 H   0  0  0  0  0  0  0  0  0  0  0  0
    8.4733    7.1416   23.8934 H   0  0  0  0  0  0  0  0  0  0  0  0
    9.2684    7.7603   22.4228 H   0  0  0  0  0  0  0  0  0  0  0  0
   13.1738    5.9424   23.2209 H   0  0  0  0  0  0  0  0  0  0  0  0
   12.7949    4.4244   22.3864 H   0  0  0  0  0  0  0  0  0  0  0  0
    9.3700    4.1072   23.2763 H   0  0  0  0  0  0  0  0  0  0  0  0
    8.9578    1.5657   25.4028 H   0  0  0  0  0  0  0  0  0  0  0  0
   10.7407    5.2852   22.0180 H   0  0  0  0  0  0  0  0  0  0  0  0
  1  2  2  0  0  0  0
  1  5  1  0  0  0  0
  2  8  1  0  0  0  0
  3  7  1  0  0  0  0
  3  8  2  0  0  0  0
  4  6  2  0  0  0  0
  4 15  1  0  0  0  0
  5  6  1  0  0  0  0
  5  7  2  0  0  0  0
  6 11  1  0  0  0  0
  7 15  1  0  0  0  0
  8 18  1  0  0  0  0
  9 12  1  0  0  0  0
  9 16  1  0  0  0  0
  9 17  2  0  0  0  0
 10 18  1  0  0  0  0
 11 13  1  0  0  0  0
 12 19  1  0  0  0  0
 13 16  1  0  0  0  0
 14 19  1  0  0  0  0
 14 20  1  0  0  0  0
 14 21  1  0  0  0  0
  1 22  1  0  0  0  0
  2 23  1  0  0  0  0
  3 24  1  0  0  0  0
  4 25  1  0  0  0  0
 10 26  1  0  0  0  0
 10 27  1  0  0  0  0
 10 28  1  0  0  0  0
 11 29  1  0  0  0  0
 11 30  1  0  0  0  0
 12 31  1  0  0  0  0
 12 32  1  0  0  0  0
 13 33  1  0  0  0  0
 13 34  1  0  0  0  0
 14 35  1  0  0  0  0
 15 36  1  0  0  0  0
 16 37  1  0  0  0  0
M  END
> <Hybrid2>
-6.263671

$$$$
s_240690b____17036622____3025692
  -OEChem-03222023413D

 34 35  0     1  0  0  0  0  0999 V2000
   11.5435   -0.5891   22.4637 C   0  0  0  0  0  0  0  0  0  0  0  0
   10.1145   -0.7863   24.8694 C   0  0  0  0  0  0  0  0  0  0  0  0
   11.8036    2.3897   24.5553 C   0  0  0  0  0  0  0  0  0  0  0  0
   11.5530    0.4826   23.3677 C   0  0  0  0  0  0  0  0  0  0  0  0
   12.1600    1.7693   23.3797 C   0  0  0  0  0  0  0  0  0  0  0  0
   10.8341    0.3598   24.5580 C   0  0  0  0  0  0  0  0  0  0  0  0
   10.8032   -1.7017   22.8409 C   0  0  0  0  0  0  0  0  0  0  0  0
   11.6010    5.3853   23.5161 C   0  0  0  0  0  0  0  0  0  0  0  0
    9.8023    6.8584   24.4607 C   0  0  0  0  0  0  0  0  0  0  0  0
   13.0381    2.3584   22.3031 C   0  0  0  0  0  0  0  0  0  0  0  0
   13.2527    3.8612   22.4657 C   0  0  0  0  0  0  0  0  0  0  0  0
   10.2703    6.0656   23.2501 C   0  0  2  0  0  0  0  0  0  0  0  0
   10.1071   -1.8191   23.9950 N   0  0  0  0  0  0  0  0  0  0  0  0
   11.0031    1.5304   25.2598 N   0  0  0  0  0  0  0  0  0  0  0  0
   12.0140    4.6029   22.4481 N   0  0  0  0  0  0  0  0  0  0  0  0
    9.2279    5.0532   22.9197 N   0  3  0  0  0  0  0  0  0  0  0  0
   12.2252    5.5298   24.5650 O   0  0  0  0  0  0  0  0  0  0  0  0
   10.7131   -3.0778   21.8155 Cl  0  0  0  0  0  0  0  0  0  0  0  0
   12.0844   -0.5478   21.5245 H   0  0  0  0  0  0  0  0  0  0  0  0
    9.5489   -0.9067   25.7841 H   0  0  0  0  0  0  0  0  0  0  0  0
   12.0465    3.3645   24.9548 H   0  0  0  0  0  0  0  0  0  0  0  0
    9.7176    6.2193   25.3470 H   0  0  0  0  0  0  0  0  0  0  0  0
   10.5091    7.6590   24.7028 H   0  0  0  0  0  0  0  0  0  0  0  0
    8.8258    7.3194   24.2776 H   0  0  0  0  0  0  0  0  0  0  0  0
   12.5732    2.1619   21.3287 H   0  0  0  0  0  0  0  0  0  0  0  0
   14.0045    1.8385   22.2867 H   0  0  0  0  0  0  0  0  0  0  0  0
   13.7306    4.0676   23.4285 H   0  0  0  0  0  0  0  0  0  0  0  0
   13.8914    4.2661   21.6738 H   0  0  0  0  0  0  0  0  0  0  0  0
   10.3524    6.7110   22.3691 H   0  0  0  0  0  0  0  0  0  0  0  0
   10.5950    1.7281   26.1630 H   0  0  0  0  0  0  0  0  0  0  0  0
   11.4234    4.5497   21.6234 H   0  0  0  0  0  0  0  0  0  0  0  0
    8.7377    5.3088   22.0587 H   0  0  0  0  0  0  0  0  0  0  0  0
    8.5394    4.9866   23.6739 H   0  0  0  0  0  0  0  0  0  0  0  0
    9.6507    4.1308   22.7876 H   0  0  0  0  0  0  0  0  0  0  0  0
  1  4  2  0  0  0  0
  1  7  1  0  0  0  0
  2  6  2  0  0  0  0
  2 13  1  0  0  0  0
  3  5  2  0  0  0  0
  3 14  1  0  0  0  0
  4  5  1  0  0  0  0
  4  6  1  0  0  0  0
  5 10  1  0  0  0  0
  6 14  1  0  0  0  0
  7 13  2  0  0  0  0
  7 18  1  0  0  0  0
  8 12  1  0  0  0  0
  8 15  1  0  0  0  0
  8 17  2  0  0  0  0
  9 12  1  0  0  0  0
 10 11  1  0  0  0  0
 11 15  1  0  0  0  0
 12 16  1  0  0  0  0
  1 19  1  0  0  0  0
  2 20  1  0  0  0  0
  3 21  1  0  0  0  0
  9 22  1  0  0  0  0
  9 23  1  0  0  0  0
  9 24  1  0  0  0  0
 10 25  1  0  0  0  0
 10 26  1  0  0  0  0
 11 27  1  0  0  0  0
 11 28  1  0  0  0  0
 12 29  1  0  0  0  0
 14 30  1  0  0  0  0
 15 31  1  0  0  0  0
 16 32  1  0  0  0  0
 16 33  1  0  0  0  0
 16 34  1  0  0  0  0
M  CHG  1  16   1
M  END
> <Hybrid2>
-9.046205

$$$$
s_22____13978824____1290374
  -OEChem-03222023423D

 39 40  0     0  0  0  0  0  0999 V2000
   12.1015   -0.0162   22.0557 C   0  0  0  0  0  0  0  0  0  0  0  0
   11.5936   -1.3054   22.2529 C   0  0  0  0  0  0  0  0  0  0  0  0
   10.7088   -0.6818   24.4283 C   0  0  0  0  0  0  0  0  0  0  0  0
   11.8145    2.7669   24.4078 C   0  0  0  0  0  0  0  0  0  0  0  0
   11.9126    0.9575   23.0565 C   0  0  0  0  0  0  0  0  0  0  0  0
   12.2805    2.3255   23.1908 C   0  0  0  0  0  0  0  0  0  0  0  0
   11.2220    0.6029   24.2174 C   0  0  0  0  0  0  0  0  0  0  0  0
   10.9082   -1.6309   23.4217 C   0  0  0  0  0  0  0  0  0  0  0  0
   11.0713    5.7884   23.5879 C   0  0  0  0  0  0  0  0  0  0  0  0
    9.7325   -3.1683   24.8037 C   0  0  0  0  0  0  0  0  0  0  0  0
    9.3195    5.5179   25.9710 C   0  0  0  0  0  0  0  0  0  0  0  0
   13.0272    3.1356   22.2073 C   0  0  0  0  0  0  0  0  0  0  0  0
    9.6564    6.2292   23.3048 C   0  0  0  0  0  0  0  0  0  0  0  0
   12.9857    4.6501   22.4807 C   0  0  0  0  0  0  0  0  0  0  0  0
   11.1777    1.7208   25.0198 N   0  0  0  0  0  0  0  0  0  0  0  0
   11.6422    5.1638   22.4838 N   0  0  0  0  0  0  0  0  0  0  0  0
   11.6364    5.9689   24.6628 O   0  0  0  0  0  0  0  0  0  0  0  0
    7.3352    6.3701   24.4984 O   0  0  0  0  0  0  0  0  0  0  0  0
    8.3221    4.0973   24.0168 O   0  0  0  0  0  0  0  0  0  0  0  0
   10.4248   -2.8950   23.5877 O   0  0  0  0  0  0  0  0  0  0  0  0
    8.4898    5.4912   24.3971 S   0  0  0  0  0  0  0  0  0  0  0  0
   12.6338    0.2225   21.1392 H   0  0  0  0  0  0  0  0  0  0  0  0
   11.7397   -2.0563   21.4801 H   0  0  0  0  0  0  0  0  0  0  0  0
   10.1755   -0.9308   25.3402 H   0  0  0  0  0  0  0  0  0  0  0  0
   11.8767    3.7304   24.8943 H   0  0  0  0  0  0  0  0  0  0  0  0
    9.4001   -4.2092   24.8085 H   0  0  0  0  0  0  0  0  0  0  0  0
    8.8726   -2.4996   24.8927 H   0  0  0  0  0  0  0  0  0  0  0  0
   10.4103   -3.0007   25.6441 H   0  0  0  0  0  0  0  0  0  0  0  0
    8.6585    5.0729   26.7164 H   0  0  0  0  0  0  0  0  0  0  0  0
   10.2413    4.9407   25.8842 H   0  0  0  0  0  0  0  0  0  0  0  0
    9.5403    6.5554   26.2263 H   0  0  0  0  0  0  0  0  0  0  0  0
   12.6249    2.9635   21.1894 H   0  0  0  0  0  0  0  0  0  0  0  0
   14.0872    2.8165   22.1439 H   0  0  0  0  0  0  0  0  0  0  0  0
    9.5737    7.3130   23.4234 H   0  0  0  0  0  0  0  0  0  0  0  0
    9.3733    5.9464   22.2872 H   0  0  0  0  0  0  0  0  0  0  0  0
   13.4154    4.8840   23.4599 H   0  0  0  0  0  0  0  0  0  0  0  0
   13.5485    5.2016   21.7204 H   0  0  0  0  0  0  0  0  0  0  0  0
   10.7390    1.7624   25.9293 H   0  0  0  0  0  0  0  0  0  0  0  0
   11.0827    5.0656   21.6381 H   0  0  0  0  0  0  0  0  0  0  0  0
  1  2  2  0  0  0  0
  1  5  1  0  0  0  0
  2  8  1  0  0  0  0
  3  7  1  0  0  0  0
  3  8  2  0  0  0  0
  4  6  2  0  0  0  0
  4 15  1  0  0  0  0
  5  6  1  0  0  0  0
  5  7  2  0  0  0  0
  6 12  1  0  0  0  0
  7 15  1  0  0  0  0
  8 20  1  0  0  0  0
  9 13  1  0  0  0  0
  9 16  1  0  0  0  0
  9 17  2  0  0  0  0
 10 20  1  0  0  0  0
 11 21  1  0  0  0  0
 12 14  1  0  0  0  0
 13 21  1  0  0  0  0
 14 16  1  0  0  0  0
 18 21  2  0  0  0  0
 19 21  2  0  0  0  0
  1 22  1  0  0  0  0
  2 23  1  0  0  0  0
  3 24  1  0  0  0  0
  4 25  1  0  0  0  0
 10 26  1  0  0  0  0
 10 27  1  0  0  0  0
 10 28  1  0  0  0  0
 11 29  1  0  0  0  0
 11 30  1  0  0  0  0
 11 31  1  0  0  0  0
 12 32  1  0  0  0  0
 12 33  1  0  0  0  0
 13 34  1  0  0  0  0
 13 35  1  0  0  0  0
 14 36  1  0  0  0  0
 14 37  1  0  0  0  0
 15 38  1  0  0  0  0
 16 39  1  0  0  0  0
M  END
> <Hybrid2>
-8.646624

$$$$
s_527a____153889____157834
  -OEChem-03222023423D

 33 34  0     0  0  0  0  0  0999 V2000
   12.7771   -0.7041   22.0151 C   0  0  0  0  0  0  0  0  0  0  0  0
   11.7600   -1.3655   22.7005 C   0  0  0  0  0  0  0  0  0  0  0  0
   12.9825    0.6694   22.1891 C   0  0  0  0  0  0  0  0  0  0  0  0
   10.9178   -0.6783   23.5793 C   0  0  0  0  0  0  0  0  0  0  0  0
   11.0295    2.8531   24.3749 C   0  0  0  0  0  0  0  0  0  0  0  0
   12.1458    1.3833   23.0699 C   0  0  0  0  0  0  0  0  0  0  0  0
   12.0674    2.7442   23.4784 C   0  0  0  0  0  0  0  0  0  0  0  0
   11.1348    0.6944   23.7433 C   0  0  0  0  0  0  0  0  0  0  0  0
   10.1645    6.3337   23.3919 C   0  0  0  0  0  0  0  0  0  0  0  0
    8.2936    4.1452   22.4160 C   0  0  0  0  0  0  0  0  0  0  0  0
   12.9368    3.8497   23.0270 C   0  0  0  0  0  0  0  0  0  0  0  0
    8.8957    6.4116   22.5699 C   0  0  0  0  0  0  0  0  0  0  0  0
   12.4056    5.2504   23.3813 C   0  0  0  0  0  0  0  0  0  0  0  0
   10.4733    1.6115   24.5285 N   0  0  0  0  0  0  0  0  0  0  0  0
   11.1106    5.5004   22.8072 N   0  0  0  0  0  0  0  0  0  0  0  0
   10.3115    6.9463   24.4460 O   0  0  0  0  0  0  0  0  0  0  0  0
    7.9781    5.4176   22.9738 O   0  0  0  0  0  0  0  0  0  0  0  0
   13.4194   -1.2601   21.3375 H   0  0  0  0  0  0  0  0  0  0  0  0
   11.6182   -2.4327   22.5503 H   0  0  0  0  0  0  0  0  0  0  0  0
   13.7803    1.1703   21.6482 H   0  0  0  0  0  0  0  0  0  0  0  0
   10.1256   -1.1938   24.1116 H   0  0  0  0  0  0  0  0  0  0  0  0
   10.6373    3.7014   24.9188 H   0  0  0  0  0  0  0  0  0  0  0  0
    7.5613    3.4072   22.7527 H   0  0  0  0  0  0  0  0  0  0  0  0
    9.2973    3.8476   22.7298 H   0  0  0  0  0  0  0  0  0  0  0  0
    8.2608    4.2167   21.3263 H   0  0  0  0  0  0  0  0  0  0  0  0
   13.0687    3.8048   21.9279 H   0  0  0  0  0  0  0  0  0  0  0  0
   13.9631    3.7471   23.4338 H   0  0  0  0  0  0  0  0  0  0  0  0
    8.4315    7.3919   22.7146 H   0  0  0  0  0  0  0  0  0  0  0  0
    9.1269    6.2786   21.5085 H   0  0  0  0  0  0  0  0  0  0  0  0
   12.2986    5.3672   24.4644 H   0  0  0  0  0  0  0  0  0  0  0  0
   13.0835    6.0304   23.0192 H   0  0  0  0  0  0  0  0  0  0  0  0
    9.6902    1.3983   25.1308 H   0  0  0  0  0  0  0  0  0  0  0  0
   10.8751    5.0434   21.9276 H   0  0  0  0  0  0  0  0  0  0  0  0
  1  2  2  0  0  0  0
  1  3  1  0  0  0  0
  2  4  1  0  0  0  0
  3  6  2  0  0  0  0
  4  8  2  0  0  0  0
  5  7  2  0  0  0  0
  5 14  1  0  0  0  0
  6  7  1  0  0  0  0
  6  8  1  0  0  0  0
  7 11  1  0  0  0  0
  8 14  1  0  0  0  0
  9 12  1  0  0  0  0
  9 15  1  0  0  0  0
  9 16  2  0  0  0  0
 10 17  1  0  0  0  0
 11 13  1  0  0  0  0
 12 17  1  0  0  0  0
 13 15  1  0  0  0  0
  1 18  1  0  0  0  0
  2 19  1  0  0  0  0
  3 20  1  0  0  0  0
  4 21  1  0  0  0  0
  5 22  1  0  0  0  0
 10 23  1  0  0  0  0
 10 24  1  0  0  0  0
 10 25  1  0  0  0  0
 11 26  1  0  0  0  0
 11 27  1  0  0  0  0
 12 28  1  0  0  0  0
 12 29  1  0  0  0  0
 13 30  1  0  0  0  0
 13 31  1  0  0  0  0
 14 32  1  0  0  0  0
 15 33  1  0  0  0  0
M  END
> <Hybrid2>
-9.223111

$$$$
s_22____15506616____3489590
  -OEChem-03222023433D

 41 42  0     0  0  0  0  0  0999 V2000
   13.3143   -0.6192   22.2065 C   0  0  0  0  0  0  0  0  0  0  0  0
   13.1242    0.6141   22.8404 C   0  0  0  0  0  0  0  0  0  0  0  0
   12.2550   -1.5107   22.0486 C   0  0  0  0  0  0  0  0  0  0  0  0
    9.9649    1.8362   24.2137 C   0  0  0  0  0  0  0  0  0  0  0  0
   11.8429    0.9493   23.3213 C   0  0  0  0  0  0  0  0  0  0  0  0
   11.3012    2.0799   23.9946 C   0  0  0  0  0  0  0  0  0  0  0  0
   10.8002    0.0365   23.1491 C   0  0  0  0  0  0  0  0  0  0  0  0
   10.9754   -1.1999   22.5175 C   0  0  0  0  0  0  0  0  0  0  0  0
    8.2738    4.5132   25.6890 C   0  0  0  0  0  0  0  0  0  0  0  0
    8.3226    5.6577   24.9986 C   0  0  0  0  0  0  0  0  0  0  0  0
   10.4433    5.8863   23.0109 C   0  0  0  0  0  0  0  0  0  0  0  0
    9.7453   -3.0348   23.3983 C   0  0  0  0  0  0  0  0  0  0  0  0
   12.0322    3.3001   24.3921 C   0  0  0  0  0  0  0  0  0  0  0  0
    7.5029    5.9331   23.7819 C   0  0  0  0  0  0  0  0  0  0  0  0
    9.2064    6.1431   22.1766 C   0  0  0  0  0  0  0  0  0  0  0  0
   12.3204    4.2662   23.2285 C   0  0  0  0  0  0  0  0  0  0  0  0
    9.6722    0.6012   23.7005 N   0  0  0  0  0  0  0  0  0  0  0  0
   11.1135    4.7387   22.6047 N   0  0  0  0  0  0  0  0  0  0  0  0
   10.7885    6.6230   23.9308 O   0  0  0  0  0  0  0  0  0  0  0  0
    9.9477   -2.0857   22.3557 O   0  0  0  0  0  0  0  0  0  0  0  0
    8.2261    6.8205   22.9337 O   0  0  0  0  0  0  0  0  0  0  0  0
   14.3004   -0.8836   21.8342 H   0  0  0  0  0  0  0  0  0  0  0  0
   13.9603    1.2979   22.9561 H   0  0  0  0  0  0  0  0  0  0  0  0
   12.4320   -2.4618   21.5516 H   0  0  0  0  0  0  0  0  0  0  0  0
    9.1961    2.4294   24.6885 H   0  0  0  0  0  0  0  0  0  0  0  0
    8.8876    4.3546   26.5687 H   0  0  0  0  0  0  0  0  0  0  0  0
    7.6116    3.7123   25.3786 H   0  0  0  0  0  0  0  0  0  0  0  0
    9.0033    6.4376   25.3302 H   0  0  0  0  0  0  0  0  0  0  0  0
    8.8991   -3.6787   23.1466 H   0  0  0  0  0  0  0  0  0  0  0  0
    9.5511   -2.5102   24.3372 H   0  0  0  0  0  0  0  0  0  0  0  0
   10.6457   -3.6447   23.5035 H   0  0  0  0  0  0  0  0  0  0  0  0
   13.0013    3.0286   24.8554 H   0  0  0  0  0  0  0  0  0  0  0  0
   11.4910    3.8538   25.1857 H   0  0  0  0  0  0  0  0  0  0  0  0
    6.5401    6.3921   24.0274 H   0  0  0  0  0  0  0  0  0  0  0  0
    7.3215    5.0006   23.2384 H   0  0  0  0  0  0  0  0  0  0  0  0
    9.4735    6.7662   21.3177 H   0  0  0  0  0  0  0  0  0  0  0  0
    8.7929    5.1960   21.8166 H   0  0  0  0  0  0  0  0  0  0  0  0
   12.8623    5.1507   23.5778 H   0  0  0  0  0  0  0  0  0  0  0  0
   12.9235    3.7797   22.4549 H   0  0  0  0  0  0  0  0  0  0  0  0
    8.7602    0.1662   23.7219 H   0  0  0  0  0  0  0  0  0  0  0  0
   10.7308    4.2051   21.8257 H   0  0  0  0  0  0  0  0  0  0  0  0
  1  2  1  0  0  0  0
  1  3  2  0  0  0  0
  2  5  2  0  0  0  0
  3  8  1  0  0  0  0
  4  6  2  0  0  0  0
  4 17  1  0  0  0  0
  5  6  1  0  0  0  0
  5  7  1  0  0  0  0
  6 13  1  0  0  0  0
  7  8  2  0  0  0  0
  7 17  1  0  0  0  0
  8 20  1  0  0  0  0
  9 10  2  0  0  0  0
 10 14  1  0  0  0  0
 11 15  1  0  0  0  0
 11 18  1  0  0  0  0
 11 19  2  0  0  0  0
 12 20  1  0  0  0  0
 13 16  1  0  0  0  0
 14 21  1  0  0  0  0
 15 21  1  0  0  0  0
 16 18  1  0  0  0  0
  1 22  1  0  0  0  0
  2 23  1  0  0  0  0
  3 24  1  0  0  0  0
  4 25  1  0  0  0  0
  9 26  1  0  0  0  0
  9 27  1  0  0  0  0
 10 28  1  0  0  0  0
 12 29  1  0  0  0  0
 12 30  1  0  0  0  0
 12 31  1  0  0  0  0
 13 32  1  0  0  0  0
 13 33  1  0  0  0  0
 14 34  1  0  0  0  0
 14 35  1  0  0  0  0
 15 36  1  0  0  0  0
 15 37  1  0  0  0  0
 16 38  1  0  0  0  0
 16 39  1  0  0  0  0
 17 40  1  0  0  0  0
 18 41  1  0  0  0  0
M  END
> <Hybrid2>
-7.500326

$$$$
s_8____9226528____83696
  -OEChem-03222023433D

 41 42  0     0  0  0  0  0  0999 V2000
   12.1383   -1.6978   22.3192 C   0  0  0  0  0  0  0  0  0  0  0  0
   13.3447   -1.0300   22.0902 C   0  0  0  0  0  0  0  0  0  0  0  0
   11.0221   -1.0190   22.8039 C   0  0  0  0  0  0  0  0  0  0  0  0
   14.0117    2.4891   22.6268 C   0  0  0  0  0  0  0  0  0  0  0  0
   12.2853    1.0474   22.8518 C   0  0  0  0  0  0  0  0  0  0  0  0
   12.6937    2.4011   23.0116 C   0  0  0  0  0  0  0  0  0  0  0  0
   13.3877    0.3414   22.3656 C   0  0  0  0  0  0  0  0  0  0  0  0
   11.0797    0.3529   23.0749 C   0  0  0  0  0  0  0  0  0  0  0  0
   10.0385    6.0513   23.3529 C   0  0  0  0  0  0  0  0  0  0  0  0
    7.3243    4.1646   23.6798 C   0  0  0  0  0  0  0  0  0  0  0  0
    8.5078    0.3458   25.3391 C   0  0  0  0  0  0  0  0  0  0  0  0
   11.8673    3.5231   23.5024 C   0  0  0  0  0  0  0  0  0  0  0  0
    7.9578    4.8749   22.5323 C   0  0  0  0  0  0  0  0  0  0  0  0
   12.2407    4.8885   22.8974 C   0  0  0  0  0  0  0  0  0  0  0  0
    9.8051    1.0305   24.9648 C   0  0  0  0  0  0  0  0  0  0  0  0
   14.4214    1.2417   22.2385 N   0  0  0  0  0  0  0  0  0  0  0  0
    9.3911    5.0030   22.7225 N   0  0  0  0  0  0  0  0  0  0  0  0
   11.4223    5.9525   23.4142 N   0  0  0  0  0  0  0  0  0  0  0  0
    9.9619    0.9853   23.5514 O   0  0  0  0  0  0  0  0  0  0  0  0
    9.2858    7.3952   24.0275 S   0  0  0  0  0  0  0  0  0  0  0  0
   12.0713   -2.7635   22.1155 H   0  0  0  0  0  0  0  0  0  0  0  0
   14.2128   -1.5598   21.7125 H   0  0  0  0  0  0  0  0  0  0  0  0
   10.0978   -1.5666   22.9722 H   0  0  0  0  0  0  0  0  0  0  0  0
   14.6956    3.3258   22.5942 H   0  0  0  0  0  0  0  0  0  0  0  0
    7.5103    4.7262   24.6072 H   0  0  0  0  0  0  0  0  0  0  0  0
    6.2404    4.0869   23.5096 H   0  0  0  0  0  0  0  0  0  0  0  0
    7.7546    3.1562   23.7694 H   0  0  0  0  0  0  0  0  0  0  0  0
    7.6538    0.8486   24.8770 H   0  0  0  0  0  0  0  0  0  0  0  0
    8.5175   -0.7012   25.0187 H   0  0  0  0  0  0  0  0  0  0  0  0
    8.3716    0.3448   26.4257 H   0  0  0  0  0  0  0  0  0  0  0  0
   11.9535    3.6047   24.6038 H   0  0  0  0  0  0  0  0  0  0  0  0
   10.7893    3.3385   23.3213 H   0  0  0  0  0  0  0  0  0  0  0  0
    7.7674    4.3073   21.6095 H   0  0  0  0  0  0  0  0  0  0  0  0
    7.5163    5.8784   22.4433 H   0  0  0  0  0  0  0  0  0  0  0  0
   13.2788    5.1486   23.1271 H   0  0  0  0  0  0  0  0  0  0  0  0
   12.1236    4.8807   21.8088 H   0  0  0  0  0  0  0  0  0  0  0  0
   10.6552    0.5227   25.4302 H   0  0  0  0  0  0  0  0  0  0  0  0
    9.7934    2.0766   25.2850 H   0  0  0  0  0  0  0  0  0  0  0  0
   15.3487    1.0136   21.9077 H   0  0  0  0  0  0  0  0  0  0  0  0
    9.9530    4.2450   22.3518 H   0  0  0  0  0  0  0  0  0  0  0  0
   11.8999    6.7257   23.8790 H   0  0  0  0  0  0  0  0  0  0  0  0
  1  2  1  0  0  0  0
  1  3  2  0  0  0  0
  2  7  2  0  0  0  0
  3  8  1  0  0  0  0
  4  6  2  0  0  0  0
  4 16  1  0  0  0  0
  5  6  1  0  0  0  0
  5  7  1  0  0  0  0
  5  8  2  0  0  0  0
  6 12  1  0  0  0  0
  7 16  1  0  0  0  0
  8 19  1  0  0  0  0
  9 17  1  0  0  0  0
  9 18  1  0  0  0  0
  9 20  2  0  0  0  0
 10 13  1  0  0  0  0
 11 15  1  0  0  0  0
 12 14  1  0  0  0  0
 13 17  1  0  0  0  0
 14 18  1  0  0  0  0
 15 19  1  0  0  0  0
  1 21  1  0  0  0  0
  2 22  1  0  0  0  0
  3 23  1  0  0  0  0
  4 24  1  0  0  0  0
 10 25  1  0  0  0  0
 10 26  1  0  0  0  0
 10 27  1  0  0  0  0
 11 28  1  0  0  0  0
 11 29  1  0  0  0  0
 11 30  1  0  0  0  0
 12 31  1  0  0  0  0
 12 32  1  0  0  0  0
 13 33  1  0  0  0  0
 13 34  1  0  0  0  0
 14 35  1  0  0  0  0
 14 36  1  0  0  0  0
 15 37  1  0  0  0  0
 15 38  1  0  0  0  0
 16 39  1  0  0  0  0
 17 40  1  0  0  0  0
 18 41  1  0  0  0  0
M  END
> <Hybrid2>
-6.807488

$$$$
s_240690b____15506692____10126850
  -OEChem-03222023443D

 42 43  0     0  0  0  0  0  0999 V2000
   13.3164   -1.0039   21.7913 C   0  0  0  0  0  0  0  0  0  0  0  0
   13.4630    0.2418   22.4125 C   0  0  0  0  0  0  0  0  0  0  0  0
   12.1286   -1.7232   21.9071 C   0  0  0  0  0  0  0  0  0  0  0  0
   10.9224    1.9258   24.4298 C   0  0  0  0  0  0  0  0  0  0  0  0
   12.3912    0.7665   23.1617 C   0  0  0  0  0  0  0  0  0  0  0  0
   12.1934    1.9640   23.9045 C   0  0  0  0  0  0  0  0  0  0  0  0
   11.2129    0.0236   23.2605 C   0  0  0  0  0  0  0  0  0  0  0  0
   11.0520   -1.2229   22.6451 C   0  0  0  0  0  0  0  0  0  0  0  0
   11.4146    5.4929   23.3669 C   0  0  0  0  0  0  0  0  0  0  0  0
    7.9539    2.9155   22.6119 C   0  0  0  0  0  0  0  0  0  0  0  0
    9.7983   -2.8522   23.8406 C   0  0  0  0  0  0  0  0  0  0  0  0
   13.1909    3.0811   24.0901 C   0  0  0  0  0  0  0  0  0  0  0  0
   10.1473    6.0402   22.7285 C   0  0  0  0  0  0  0  0  0  0  0  0
   13.3231    3.9723   22.8576 C   0  0  0  0  0  0  0  0  0  0  0  0
    8.9137    5.1905   22.9888 C   0  0  0  0  0  0  0  0  0  0  0  0
   10.3389    0.7515   24.0362 N   0  0  0  0  0  0  0  0  0  0  0  0
   12.0825    4.6283   22.5119 N   0  0  0  0  0  0  0  0  0  0  0  0
    9.1276    3.8184   22.4648 N   0  3  0  0  0  0  0  0  0  0  0  0
   11.7856    5.8006   24.4963 O   0  0  0  0  0  0  0  0  0  0  0  0
    9.8945   -1.9413   22.7498 O   0  0  0  0  0  0  0  0  0  0  0  0
   14.1398   -1.4140   21.2128 H   0  0  0  0  0  0  0  0  0  0  0  0
   14.3955    0.7900   22.3129 H   0  0  0  0  0  0  0  0  0  0  0  0
   12.0429   -2.6884   21.4133 H   0  0  0  0  0  0  0  0  0  0  0  0
   10.3805    2.6274   25.0483 H   0  0  0  0  0  0  0  0  0  0  0  0
    7.1085    3.3811   22.1019 H   0  0  0  0  0  0  0  0  0  0  0  0
    8.2095    1.9579   22.1543 H   0  0  0  0  0  0  0  0  0  0  0  0
    7.7531    2.7997   23.6787 H   0  0  0  0  0  0  0  0  0  0  0  0
    8.8306   -3.3589   23.8088 H   0  0  0  0  0  0  0  0  0  0  0  0
    9.9055   -2.3073   24.7820 H   0  0  0  0  0  0  0  0  0  0  0  0
   10.5975   -3.5924   23.7573 H   0  0  0  0  0  0  0  0  0  0  0  0
   14.1678    2.6399   24.3250 H   0  0  0  0  0  0  0  0  0  0  0  0
   12.9141    3.6842   24.9643 H   0  0  0  0  0  0  0  0  0  0  0  0
   10.3137    6.1557   21.6507 H   0  0  0  0  0  0  0  0  0  0  0  0
    9.9810    7.0405   23.1465 H   0  0  0  0  0  0  0  0  0  0  0  0
   14.0563    4.7628   23.0459 H   0  0  0  0  0  0  0  0  0  0  0  0
   13.6515    3.4038   21.9813 H   0  0  0  0  0  0  0  0  0  0  0  0
    8.6846    5.0930   24.0540 H   0  0  0  0  0  0  0  0  0  0  0  0
    8.0422    5.5900   22.4622 H   0  0  0  0  0  0  0  0  0  0  0  0
    9.4020    0.4603   24.2785 H   0  0  0  0  0  0  0  0  0  0  0  0
   11.6891    4.4347   21.5956 H   0  0  0  0  0  0  0  0  0  0  0  0
    9.9374    3.3955   22.9407 H   0  0  0  0  0  0  0  0  0  0  0  0
    9.3869    3.8713   21.4692 H   0  0  0  0  0  0  0  0  0  0  0  0
  1  2  1  0  0  0  0
  1  3  2  0  0  0  0
  2  5  2  0  0  0  0
  3  8  1  0  0  0  0
  4  6  2  0  0  0  0
  4 16  1  0  0  0  0
  5  6  1  0  0  0  0
  5  7  1  0  0  0  0
  6 12  1  0  0  0  0
  7  8  2  0  0  0  0
  7 16  1  0  0  0  0
  8 20  1  0  0  0  0
  9 13  1  0  0  0  0
  9 17  1  0  0  0  0
  9 19  2  0  0  0  0
 10 18  1  0  0  0  0
 11 20  1  0  0  0  0
 12 14  1  0  0  0  0
 13 15  1  0  0  0  0
 14 17  1  0  0  0  0
 15 18  1  0  0  0  0
  1 21  1  0  0  0  0
  2 22  1  0  0  0  0
  3 23  1  0  0  0  0
  4 24  1  0  0  0  0
 10 25  1  0  0  0  0
 10 26  1  0  0  0  0
 10 27  1  0  0  0  0
 11 28  1  0  0  0  0
 11 29  1  0  0  0  0
 11 30  1  0  0  0  0
 12 31  1  0  0  0  0
 12 32  1  0  0  0  0
 13 33  1  0  0  0  0
 13 34  1  0  0  0  0
 14 35  1  0  0  0  0
 14 36  1  0  0  0  0
 15 37  1  0  0  0  0
 15 38  1  0  0  0  0
 16 39  1  0  0  0  0
 17 40  1  0  0  0  0
 18 41  1  0  0  0  0
 18 42  1  0  0  0  0
M  CHG  1  18   1
M  END
> <Hybrid2>
-9.030710

$$$$
s_22____13978824____59017
  -OEChem-03222023473D

 41 42  0     0  0  0  0  0  0999 V2000
   11.8271   -0.4655   22.3388 C   0  0  0  0  0  0  0  0  0  0  0  0
   11.2003   -1.7085   22.4830 C   0  0  0  0  0  0  0  0  0  0  0  0
   10.1156   -0.9836   24.5330 C   0  0  0  0  0  0  0  0  0  0  0  0
   11.4820    2.3692   24.6205 C   0  0  0  0  0  0  0  0  0  0  0  0
   11.5977    0.5359   23.3033 C   0  0  0  0  0  0  0  0  0  0  0  0
   12.0529    1.8737   23.4709 C   0  0  0  0  0  0  0  0  0  0  0  0
   10.7490    0.2543   24.3759 C   0  0  0  0  0  0  0  0  0  0  0  0
   10.3581   -1.9614   23.5640 C   0  0  0  0  0  0  0  0  0  0  0  0
    8.7690    3.6451   22.7651 C   0  0  0  0  0  0  0  0  0  0  0  0
   11.0738    5.3986   23.7278 C   0  0  0  0  0  0  0  0  0  0  0  0
    8.2336    2.4152   23.4517 C   0  0  0  0  0  0  0  0  0  0  0  0
    8.9105   -3.3815   24.8065 C   0  0  0  0  0  0  0  0  0  0  0  0
   12.9918    2.6240   22.5585 C   0  0  0  0  0  0  0  0  0  0  0  0
    8.5778    4.9597   23.5048 C   0  0  0  0  0  0  0  0  0  0  0  0
    9.7233    5.9438   23.2902 C   0  0  0  0  0  0  0  0  0  0  0  0
   13.0167    4.1255   22.8339 C   0  0  0  0  0  0  0  0  0  0  0  0
   10.6975    1.3851   25.1594 N   0  0  0  0  0  0  0  0  0  0  0  0
   11.7156    4.7371   22.6908 N   0  0  0  0  0  0  0  0  0  0  0  0
    9.3171    3.5684   21.6667 O   0  0  0  0  0  0  0  0  0  0  0  0
   11.5226    5.5401   24.8620 O   0  0  0  0  0  0  0  0  0  0  0  0
    9.7611   -3.1818   23.6800 O   0  0  0  0  0  0  0  0  0  0  0  0
   12.4812   -0.2832   21.4908 H   0  0  0  0  0  0  0  0  0  0  0  0
   11.3778   -2.4808   21.7384 H   0  0  0  0  0  0  0  0  0  0  0  0
    9.4603   -1.1762   25.3765 H   0  0  0  0  0  0  0  0  0  0  0  0
   11.5612    3.3329   25.1043 H   0  0  0  0  0  0  0  0  0  0  0  0
    7.1961    2.2464   23.1502 H   0  0  0  0  0  0  0  0  0  0  0  0
    8.2688    2.5563   24.5347 H   0  0  0  0  0  0  0  0  0  0  0  0
    8.8301    1.5460   23.1643 H   0  0  0  0  0  0  0  0  0  0  0  0
    8.4996   -4.3936   24.7789 H   0  0  0  0  0  0  0  0  0  0  0  0
    8.1010   -2.6474   24.7876 H   0  0  0  0  0  0  0  0  0  0  0  0
    9.4951   -3.2528   25.7206 H   0  0  0  0  0  0  0  0  0  0  0  0
   12.6806    2.4509   21.5205 H   0  0  0  0  0  0  0  0  0  0  0  0
   14.0037    2.2076   22.6436 H   0  0  0  0  0  0  0  0  0  0  0  0
    7.6196    5.3933   23.1997 H   0  0  0  0  0  0  0  0  0  0  0  0
    8.5212    4.7173   24.5723 H   0  0  0  0  0  0  0  0  0  0  0  0
    9.7991    6.1659   22.2184 H   0  0  0  0  0  0  0  0  0  0  0  0
    9.5359    6.8890   23.8130 H   0  0  0  0  0  0  0  0  0  0  0  0
   13.3410    4.3106   23.8628 H   0  0  0  0  0  0  0  0  0  0  0  0
   13.7034    4.6485   22.1601 H   0  0  0  0  0  0  0  0  0  0  0  0
   10.1588    1.4750   26.0098 H   0  0  0  0  0  0  0  0  0  0  0  0
   11.2495    4.6801   21.7900 H   0  0  0  0  0  0  0  0  0  0  0  0
  1  2  1  0  0  0  0
  1  5  2  0  0  0  0
  2  8  2  0  0  0  0
  3  7  2  0  0  0  0
  3  8  1  0  0  0  0
  4  6  2  0  0  0  0
  4 17  1  0  0  0  0
  5  6  1  0  0  0  0
  5  7  1  0  0  0  0
  6 13  1  0  0  0  0
  7 17  1  0  0  0  0
  8 21  1  0  0  0  0
  9 11  1  0  0  0  0
  9 14  1  0  0  0  0
  9 19  2  0  0  0  0
 10 15  1  0  0  0  0
 10 18  1  0  0  0  0
 10 20  2  0  0  0  0
 12 21  1  0  0  0  0
 13 16  1  0  0  0  0
 14 15  1  0  0  0  0
 16 18  1  0  0  0  0
  1 22  1  0  0  0  0
  2 23  1  0  0  0  0
  3 24  1  0  0  0  0
  4 25  1  0  0  0  0
 11 26  1  0  0  0  0
 11 27  1  0  0  0  0
 11 28  1  0  0  0  0
 12 29  1  0  0  0  0
 12 30  1  0  0  0  0
 12 31  1  0  0  0  0
 13 32  1  0  0  0  0
 13 33  1  0  0  0  0
 14 34  1  0  0  0  0
 14 35  1  0  0  0  0
 15 36  1  0  0  0  0
 15 37  1  0  0  0  0
 16 38  1  0  0  0  0
 16 39  1  0  0  0  0
 17 40  1  0  0  0  0
 18 41  1  0  0  0  0
M  END
> <Hybrid2>
-8.275827

$$$$
s_22____15754586____60364
  -OEChem-03222023493D

 40 41  0     1  0  0  0  0  0999 V2000
   10.4186   -0.8903   23.7084 C   0  0  0  0  0  0  0  0  0  0  0  0
   11.3528   -1.6787   23.0305 C   0  0  0  0  0  0  0  0  0  0  0  0
   12.6545    0.2804   22.4268 C   0  0  0  0  0  0  0  0  0  0  0  0
   10.4777    2.7126   24.0721 C   0  0  0  0  0  0  0  0  0  0  0  0
   11.7259    1.0956   23.1041 C   0  0  0  0  0  0  0  0  0  0  0  0
   11.6157    2.4963   23.3297 C   0  0  0  0  0  0  0  0  0  0  0  0
   10.6316    0.4927   23.7280 C   0  0  0  0  0  0  0  0  0  0  0  0
   12.4542   -1.1045   22.3989 C   0  0  0  0  0  0  0  0  0  0  0  0
   10.0228    6.2583   23.5499 C   0  0  0  0  0  0  0  0  0  0  0  0
   12.7293    3.5124   21.3182 C   0  0  0  0  0  0  0  0  0  0  0  0
   14.4542   -1.2518   21.1205 C   0  0  0  0  0  0  0  0  0  0  0  0
    8.0022    3.9577   22.2963 C   0  0  0  0  0  0  0  0  0  0  0  0
    8.7295    6.5476   22.8250 C   0  0  0  0  0  0  0  0  0  0  0  0
   12.1373    4.9597   23.3483 C   0  0  0  0  0  0  0  0  0  0  0  0
   12.5490    3.5390   22.8581 C   0  0  1  0  0  0  0  0  0  0  0  0
    9.8911    1.4981   24.3075 N   0  0  0  0  0  0  0  0  0  0  0  0
   10.8396    5.4016   22.8459 N   0  0  0  0  0  0  0  0  0  0  0  0
   10.2693    6.7453   24.6520 O   0  0  0  0  0  0  0  0  0  0  0  0
   13.3487   -1.8994   21.7465 O   0  0  0  0  0  0  0  0  0  0  0  0
    7.4850    5.3405   23.3408 S   0  0  0  0  0  0  0  0  0  0  0  0
    9.5611   -1.3384   24.1993 H   0  0  0  0  0  0  0  0  0  0  0  0
   11.2104   -2.7565   22.9989 H   0  0  0  0  0  0  0  0  0  0  0  0
   13.5168    0.7190   21.9319 H   0  0  0  0  0  0  0  0  0  0  0  0
   10.0320    3.6205   24.4541 H   0  0  0  0  0  0  0  0  0  0  0  0
   11.7909    3.6801   20.7799 H   0  0  0  0  0  0  0  0  0  0  0  0
   13.1396    2.5535   20.9833 H   0  0  0  0  0  0  0  0  0  0  0  0
   13.4270    4.2994   21.0099 H   0  0  0  0  0  0  0  0  0  0  0  0
   15.0889   -1.9985   20.6373 H   0  0  0  0  0  0  0  0  0  0  0  0
   15.0274   -0.7011   21.8706 H   0  0  0  0  0  0  0  0  0  0  0  0
   14.0781   -0.5546   20.3680 H   0  0  0  0  0  0  0  0  0  0  0  0
    7.3493    3.0983   22.4673 H   0  0  0  0  0  0  0  0  0  0  0  0
    9.0309    3.6768   22.5351 H   0  0  0  0  0  0  0  0  0  0  0  0
    7.9454    4.2460   21.2439 H   0  0  0  0  0  0  0  0  0  0  0  0
    8.8548    6.4994   21.7397 H   0  0  0  0  0  0  0  0  0  0  0  0
    8.3985    7.5576   23.0843 H   0  0  0  0  0  0  0  0  0  0  0  0
   12.1242    4.9953   24.4440 H   0  0  0  0  0  0  0  0  0  0  0  0
   12.8945    5.6795   23.0146 H   0  0  0  0  0  0  0  0  0  0  0  0
   13.5677    3.3575   23.2704 H   0  0  0  0  0  0  0  0  0  0  0  0
    9.0375    1.3589   24.8304 H   0  0  0  0  0  0  0  0  0  0  0  0
   10.5518    5.0312   21.9527 H   0  0  0  0  0  0  0  0  0  0  0  0
  1  2  1  0  0  0  0
  1  7  2  0  0  0  0
  2  8  2  0  0  0  0
  3  5  2  0  0  0  0
  3  8  1  0  0  0  0
  4  6  2  0  0  0  0
  4 16  1  0  0  0  0
  5  6  1  0  0  0  0
  5  7  1  0  0  0  0
  6 15  1  0  0  0  0
  7 16  1  0  0  0  0
  8 19  1  0  0  0  0
  9 13  1  0  0  0  0
  9 17  1  0  0  0  0
  9 18  2  0  0  0  0
 10 15  1  0  0  0  0
 11 19  1  0  0  0  0
 12 20  1  0  0  0  0
 13 20  1  0  0  0  0
 14 15  1  0  0  0  0
 14 17  1  0  0  0  0
  1 21  1  0  0  0  0
  2 22  1  0  0  0  0
  3 23  1  0  0  0  0
  4 24  1  0  0  0  0
 10 25  1  0  0  0  0
 10 26  1  0  0  0  0
 10 27  1  0  0  0  0
 11 28  1  0  0  0  0
 11 29  1  0  0  0  0
 11 30  1  0  0  0  0
 12 31  1  0  0  0  0
 12 32  1  0  0  0  0
 12 33  1  0  0  0  0
 13 34  1  0  0  0  0
 13 35  1  0  0  0  0
 14 36  1  0  0  0  0
 14 37  1  0  0  0  0
 15 38  1  0  0  0  0
 16 39  1  0  0  0  0
 17 40  1  0  0  0  0
M  END
> <Hybrid2>
-8.957454

$$$$
s_22____9276248____9296322
  -OEChem-03222023493D

 29 30  0     0  0  0  0  0  0999 V2000
   11.6404   -1.5217   22.8312 C   0  0  0  0  0  0  0  0  0  0  0  0
   10.6170   -1.7719   23.4076 C   0  0  0  0  0  0  0  0  0  0  0  0
    9.7569    3.0591   23.4532 C   0  0  0  0  0  0  0  0  0  0  0  0
    9.6613    4.4095   23.8014 C   0  0  0  0  0  0  0  0  0  0  0  0
   12.0728    4.6703   23.6831 C   0  0  0  0  0  0  0  0  0  0  0  0
   13.2935    2.4590   23.0318 C   0  0  0  0  0  0  0  0  0  0  0  0
   12.1940    3.3114   23.3309 C   0  0  0  0  0  0  0  0  0  0  0  0
   11.0356    2.5387   23.2243 C   0  0  0  0  0  0  0  0  0  0  0  0
   10.8001    5.2045   23.9151 C   0  0  0  0  0  0  0  0  0  0  0  0
   12.7907    1.2086   22.7550 C   0  0  0  0  0  0  0  0  0  0  0  0
   12.8745   -1.2218   22.1355 C   0  0  0  0  0  0  0  0  0  0  0  0
    9.3712   -2.0761   24.1098 C   0  0  0  0  0  0  0  0  0  0  0  0
    9.3537    7.0062   24.4788 C   0  0  0  0  0  0  0  0  0  0  0  0
   11.4280    1.2667   22.8733 N   0  0  0  0  0  0  0  0  0  0  0  0
   13.4289    0.0476   22.4135 N   0  0  0  0  0  0  0  0  0  0  0  0
   13.3220   -2.0753   21.3831 O   0  0  0  0  0  0  0  0  0  0  0  0
   10.6749    6.5183   24.2555 O   0  0  0  0  0  0  0  0  0  0  0  0
    8.8695    2.4409   23.3653 H   0  0  0  0  0  0  0  0  0  0  0  0
    8.6794    4.8397   23.9847 H   0  0  0  0  0  0  0  0  0  0  0  0
   12.9565    5.2962   23.7733 H   0  0  0  0  0  0  0  0  0  0  0  0
   14.3397    2.7345   23.0214 H   0  0  0  0  0  0  0  0  0  0  0  0
    8.8640   -2.9299   23.6506 H   0  0  0  0  0  0  0  0  0  0  0  0
    8.6895   -1.2207   24.0810 H   0  0  0  0  0  0  0  0  0  0  0  0
    9.5652   -2.3203   25.1585 H   0  0  0  0  0  0  0  0  0  0  0  0
    9.3956    8.0659   24.7425 H   0  0  0  0  0  0  0  0  0  0  0  0
    8.8857    6.4371   25.2860 H   0  0  0  0  0  0  0  0  0  0  0  0
    8.7701    6.8837   23.5633 H   0  0  0  0  0  0  0  0  0  0  0  0
   10.8012    0.4880   22.7248 H   0  0  0  0  0  0  0  0  0  0  0  0
   14.4645    0.1078   22.3499 H   0  0  0  0  0  0  0  0  0  0  0  0
  1  2  3  0  0  0  0
  1 11  1  0  0  0  0
  2 12  1  0  0  0  0
  3  4  2  0  0  0  0
  3  8  1  0  0  0  0
  4  9  1  0  0  0  0
  5  7  1  0  0  0  0
  5  9  2  0  0  0  0
  6  7  1  0  0  0  0
  6 10  2  0  0  0  0
  7  8  2  0  0  0  0
  8 14  1  0  0  0  0
  9 17  1  0  0  0  0
 10 14  1  0  0  0  0
 10 15  1  0  0  0  0
 11 15  1  0  0  0  0
 11 16  2  0  0  0  0
 13 17  1  0  0  0  0
  3 18  1  0  0  0  0
  4 19  1  0  0  0  0
  5 20  1  0  0  0  0
  6 21  1  0  0  0  0
 12 22  1  0  0  0  0
 12 23  1  0  0  0  0
 12 24  1  0  0  0  0
 13 25  1  0  0  0  0
 13 26  1  0  0  0  0
 13 27  1  0  0  0  0
 14 28  1  0  0  0  0
 15 29  1  0  0  0  0
M  END
> <Hybrid2>
-7.968546

$$$$
s_22____4839448____1720042
  -OEChem-03222023493D

 36 37  0     0  0  0  0  0  0999 V2000
   10.3189   -0.8967   23.9298 C   0  0  0  0  0  0  0  0  0  0  0  0
   11.1500   -1.6875   23.1310 C   0  0  0  0  0  0  0  0  0  0  0  0
   12.5958    0.2060   22.6600 C   0  0  0  0  0  0  0  0  0  0  0  0
   10.7152    2.6313   24.6454 C   0  0  0  0  0  0  0  0  0  0  0  0
   11.7726    1.0228   23.4604 C   0  0  0  0  0  0  0  0  0  0  0  0
   11.7976    2.3970   23.8291 C   0  0  0  0  0  0  0  0  0  0  0  0
   10.6555    0.4537   24.0756 C   0  0  0  0  0  0  0  0  0  0  0  0
   12.2714   -1.1467   22.5050 C   0  0  0  0  0  0  0  0  0  0  0  0
   10.2638    6.1493   23.5217 C   0  0  0  0  0  0  0  0  0  0  0  0
   14.1956   -1.3305   21.1196 C   0  0  0  0  0  0  0  0  0  0  0  0
   12.8002    3.3998   23.4169 C   0  0  0  0  0  0  0  0  0  0  0  0
    9.0674    6.3181   22.6031 C   0  0  0  0  0  0  0  0  0  0  0  0
   12.3855    4.8552   23.6998 C   0  0  0  0  0  0  0  0  0  0  0  0
    7.9467    5.3522   22.9103 C   0  0  0  0  0  0  0  0  0  0  0  0
   10.0325    1.4532   24.7884 N   0  0  0  0  0  0  0  0  0  0  0  0
   11.1646    5.2113   23.0279 N   0  0  0  0  0  0  0  0  0  0  0  0
   10.3999    6.7739   24.5702 O   0  0  0  0  0  0  0  0  0  0  0  0
   13.0634   -1.9431   21.7329 O   0  0  0  0  0  0  0  0  0  0  0  0
    6.9073    5.5142   22.0646 F   0  0  0  0  0  0  0  0  0  0  0  0
    8.3615    4.0704   22.8283 F   0  0  0  0  0  0  0  0  0  0  0  0
    7.4854    5.5515   24.1654 F   0  0  0  0  0  0  0  0  0  0  0  0
    9.4458   -1.3187   24.4162 H   0  0  0  0  0  0  0  0  0  0  0  0
   10.9106   -2.7402   22.9999 H   0  0  0  0  0  0  0  0  0  0  0  0
   13.4726    0.6185   22.1683 H   0  0  0  0  0  0  0  0  0  0  0  0
   10.3687    3.5295   25.1374 H   0  0  0  0  0  0  0  0  0  0  0  0
   14.7405   -2.0745   20.5334 H   0  0  0  0  0  0  0  0  0  0  0  0
   14.8463   -0.9107   21.8908 H   0  0  0  0  0  0  0  0  0  0  0  0
   13.8527   -0.5300   20.4597 H   0  0  0  0  0  0  0  0  0  0  0  0
   13.0038    3.3101   22.3314 H   0  0  0  0  0  0  0  0  0  0  0  0
   13.7808    3.2115   23.8991 H   0  0  0  0  0  0  0  0  0  0  0  0
    8.7008    7.3463   22.6983 H   0  0  0  0  0  0  0  0  0  0  0  0
    9.4021    6.1734   21.5696 H   0  0  0  0  0  0  0  0  0  0  0  0
   12.2150    5.0140   24.7693 H   0  0  0  0  0  0  0  0  0  0  0  0
   13.1603    5.5551   23.3700 H   0  0  0  0  0  0  0  0  0  0  0  0
    9.1922    1.3338   25.3371 H   0  0  0  0  0  0  0  0  0  0  0  0
   10.9441    4.7342   22.1549 H   0  0  0  0  0  0  0  0  0  0  0  0
  1  2  2  0  0  0  0
  1  7  1  0  0  0  0
  2  8  1  0  0  0  0
  3  5  1  0  0  0  0
  3  8  2  0  0  0  0
  4  6  2  0  0  0  0
  4 15  1  0  0  0  0
  5  6  1  0  0  0  0
  5  7  2  0  0  0  0
  6 11  1  0  0  0  0
  7 15  1  0  0  0  0
  8 18  1  0  0  0  0
  9 12  1  0  0  0  0
  9 16  1  0  0  0  0
  9 17  2  0  0  0  0
 10 18  1  0  0  0  0
 11 13  1  0  0  0  0
 12 14  1  0  0  0  0
 13 16  1  0  0  0  0
 14 19  1  0  0  0  0
 14 20  1  0  0  0  0
 14 21  1  0  0  0  0
  1 22  1  0  0  0  0
  2 23  1  0  0  0  0
  3 24  1  0  0  0  0
  4 25  1  0  0  0  0
 10 26  1  0  0  0  0
 10 27  1  0  0  0  0
 10 28  1  0  0  0  0
 11 29  1  0  0  0  0
 11 30  1  0  0  0  0
 12 31  1  0  0  0  0
 12 32  1  0  0  0  0
 13 33  1  0  0  0  0
 13 34  1  0  0  0  0
 15 35  1  0  0  0  0
 16 36  1  0  0  0  0
M  END
> <Hybrid2>
-8.790908

$$$$
s_22____13612008____7941096
  -OEChem-03222023493D

 36 37  0     1  0  0  0  0  0999 V2000
   11.3705   -1.5502   23.1079 C   0  0  0  0  0  0  0  0  0  0  0  0
   10.3677   -0.9440   23.8700 C   0  0  0  0  0  0  0  0  0  0  0  0
   12.4329    0.5940   22.6946 C   0  0  0  0  0  0  0  0  0  0  0  0
   10.0310    2.5881   24.5958 C   0  0  0  0  0  0  0  0  0  0  0  0
   11.4326    1.2273   23.4586 C   0  0  0  0  0  0  0  0  0  0  0  0
   12.3882   -0.7950   22.5284 C   0  0  0  0  0  0  0  0  0  0  0  0
   11.1711    2.5771   23.8258 C   0  0  0  0  0  0  0  0  0  0  0  0
   10.4251    0.4453   24.0276 C   0  0  0  0  0  0  0  0  0  0  0  0
    8.8039    5.3941   23.6237 C   0  0  0  0  0  0  0  0  0  0  0  0
   13.4440   -1.4735   21.7202 C   0  0  0  0  0  0  0  0  0  0  0  0
    7.4568    6.9434   22.1803 C   0  0  0  0  0  0  0  0  0  0  0  0
   11.9721    3.7605   23.4528 C   0  0  0  0  0  0  0  0  0  0  0  0
   11.2666    5.1037   23.7145 C   0  0  0  0  0  0  0  0  0  0  0  0
    7.6466    5.5071   22.6416 C   0  0  1  0  0  0  0  0  0  0  0  0
    9.5885    1.2977   24.7121 N   0  0  0  0  0  0  0  0  0  0  0  0
   10.0281    5.2154   22.9916 N   0  0  0  0  0  0  0  0  0  0  0  0
    8.6481    5.4744   24.8403 O   0  0  0  0  0  0  0  0  0  0  0  0
    7.9218    4.7080   21.5031 O   0  0  0  0  0  0  0  0  0  0  0  0
   11.3471   -2.6292   22.9722 H   0  0  0  0  0  0  0  0  0  0  0  0
    9.5756   -1.5327   24.3205 H   0  0  0  0  0  0  0  0  0  0  0  0
   13.2295    1.1772   22.2400 H   0  0  0  0  0  0  0  0  0  0  0  0
    9.4938    3.3970   25.0714 H   0  0  0  0  0  0  0  0  0  0  0  0
   13.1421   -1.5266   20.6675 H   0  0  0  0  0  0  0  0  0  0  0  0
   14.3986   -0.9362   21.7828 H   0  0  0  0  0  0  0  0  0  0  0  0
   13.6277   -2.4929   22.0825 H   0  0  0  0  0  0  0  0  0  0  0  0
    8.3721    7.3200   21.7112 H   0  0  0  0  0  0  0  0  0  0  0  0
    7.2419    7.6009   23.0304 H   0  0  0  0  0  0  0  0  0  0  0  0
    6.6349    7.0361   21.4640 H   0  0  0  0  0  0  0  0  0  0  0  0
   12.2338    3.7188   22.3771 H   0  0  0  0  0  0  0  0  0  0  0  0
   12.9497    3.7667   23.9759 H   0  0  0  0  0  0  0  0  0  0  0  0
   11.0243    5.2195   24.7756 H   0  0  0  0  0  0  0  0  0  0  0  0
   11.9007    5.9447   23.4154 H   0  0  0  0  0  0  0  0  0  0  0  0
    6.7286    5.1355   23.1098 H   0  0  0  0  0  0  0  0  0  0  0  0
    8.7665    1.0115   25.2257 H   0  0  0  0  0  0  0  0  0  0  0  0
   10.0495    5.1613   21.9749 H   0  0  0  0  0  0  0  0  0  0  0  0
    7.1656    4.8036   20.9001 H   0  0  0  0  0  0  0  0  0  0  0  0
  1  2  2  0  0  0  0
  1  6  1  0  0  0  0
  2  8  1  0  0  0  0
  3  5  1  0  0  0  0
  3  6  2  0  0  0  0
  4  7  2  0  0  0  0
  4 15  1  0  0  0  0
  5  7  1  0  0  0  0
  5  8  2  0  0  0  0
  6 10  1  0  0  0  0
  7 12  1  0  0  0  0
  8 15  1  0  0  0  0
  9 14  1  0  0  0  0
  9 16  1  0  0  0  0
  9 17  2  0  0  0  0
 11 14  1  0  0  0  0
 12 13  1  0  0  0  0
 13 16  1  0  0  0  0
 14 18  1  0  0  0  0
  1 19  1  0  0  0  0
  2 20  1  0  0  0  0
  3 21  1  0  0  0  0
  4 22  1  0  0  0  0
 10 23  1  0  0  0  0
 10 24  1  0  0  0  0
 10 25  1  0  0  0  0
 11 26  1  0  0  0  0
 11 27  1  0  0  0  0
 11 28  1  0  0  0  0
 12 29  1  0  0  0  0
 12 30  1  0  0  0  0
 13 31  1  0  0  0  0
 13 32  1  0  0  0  0
 14 33  1  0  0  0  0
 15 34  1  0  0  0  0
 16 35  1  0  0  0  0
 18 36  1  0  0  0  0
M  END
> <Hybrid2>
-8.632003

$$$$
s_22____10303762____9296322
  -OEChem-03222023493D

 31 32  0     0  0  0  0  0  0999 V2000
    9.9976    5.8563   23.5836 C   0  0  0  0  0  0  0  0  0  0  0  0
    8.9386    6.3840   23.3778 C   0  0  0  0  0  0  0  0  0  0  0  0
   10.0096   -2.0663   23.9692 C   0  0  0  0  0  0  0  0  0  0  0  0
    9.9393   -1.0457   24.9216 C   0  0  0  0  0  0  0  0  0  0  0  0
   10.7601   -1.9124   22.8052 C   0  0  0  0  0  0  0  0  0  0  0  0
   11.5648    2.1867   24.7612 C   0  0  0  0  0  0  0  0  0  0  0  0
   11.4089    0.3143   23.5044 C   0  0  0  0  0  0  0  0  0  0  0  0
   11.9810    1.6150   23.5810 C   0  0  0  0  0  0  0  0  0  0  0  0
   10.6489    0.1321   24.6618 C   0  0  0  0  0  0  0  0  0  0  0  0
   11.4649   -0.7286   22.5586 C   0  0  0  0  0  0  0  0  0  0  0  0
   11.2717    5.2220   23.8335 C   0  0  0  0  0  0  0  0  0  0  0  0
    7.6495    7.0265   23.1265 C   0  0  0  0  0  0  0  0  0  0  0  0
   12.8657    2.2780   22.6006 C   0  0  0  0  0  0  0  0  0  0  0  0
   13.0332    3.7908   22.8299 C   0  0  0  0  0  0  0  0  0  0  0  0
   10.7619    1.2846   25.4063 N   0  0  0  0  0  0  0  0  0  0  0  0
   11.7777    4.4903   22.7729 N   0  0  0  0  0  0  0  0  0  0  0  0
   11.7998    5.3723   24.9284 O   0  0  0  0  0  0  0  0  0  0  0  0
   12.4597   -0.5980   20.9519 Br  0  0  0  0  0  0  0  0  0  0  0  0
    9.4696   -2.9939   24.1410 H   0  0  0  0  0  0  0  0  0  0  0  0
    9.3544   -1.1662   25.8273 H   0  0  0  0  0  0  0  0  0  0  0  0
   10.7869   -2.7324   22.0909 H   0  0  0  0  0  0  0  0  0  0  0  0
   11.7669    3.1531   25.2019 H   0  0  0  0  0  0  0  0  0  0  0  0
    7.0118    6.9800   24.0145 H   0  0  0  0  0  0  0  0  0  0  0  0
    7.7847    8.0792   22.8605 H   0  0  0  0  0  0  0  0  0  0  0  0
    7.1224    6.5336   22.3041 H   0  0  0  0  0  0  0  0  0  0  0  0
   12.4730    2.1312   21.5753 H   0  0  0  0  0  0  0  0  0  0  0  0
   13.8699    1.8090   22.5831 H   0  0  0  0  0  0  0  0  0  0  0  0
   13.4625    3.9926   23.8164 H   0  0  0  0  0  0  0  0  0  0  0  0
   13.6917    4.2318   22.0744 H   0  0  0  0  0  0  0  0  0  0  0  0
   10.3162    1.4412   26.2998 H   0  0  0  0  0  0  0  0  0  0  0  0
   11.2353    4.4452   21.9113 H   0  0  0  0  0  0  0  0  0  0  0  0
  1  2  3  0  0  0  0
  1 11  1  0  0  0  0
  2 12  1  0  0  0  0
  3  4  1  0  0  0  0
  3  5  2  0  0  0  0
  4  9  2  0  0  0  0
  5 10  1  0  0  0  0
  6  8  2  0  0  0  0
  6 15  1  0  0  0  0
  7  8  1  0  0  0  0
  7  9  1  0  0  0  0
  7 10  2  0  0  0  0
  8 13  1  0  0  0  0
  9 15  1  0  0  0  0
 10 18  1  0  0  0  0
 11 16  1  0  0  0  0
 11 17  2  0  0  0  0
 13 14  1  0  0  0  0
 14 16  1  0  0  0  0
  3 19  1  0  0  0  0
  4 20  1  0  0  0  0
  5 21  1  0  0  0  0
  6 22  1  0  0  0  0
 12 23  1  0  0  0  0
 12 24  1  0  0  0  0
 12 25  1  0  0  0  0
 13 26  1  0  0  0  0
 13 27  1  0  0  0  0
 14 28  1  0  0  0  0
 14 29  1  0  0  0  0
 15 30  1  0  0  0  0
 16 31  1  0  0  0  0
M  END
> <Hybrid2>
-8.844759

$$$$
EN300-1692548
  -OEChem-03222023493D

 23 24  0     0  0  0  0  0  0999 V2000
   12.7497    1.7122   22.6950 C   0  0  0  0  0  0  0  0  0  0  0  0
   12.4482    2.9720   23.2251 C   0  0  0  0  0  0  0  0  0  0  0  0
   10.5597    2.0621   24.4538 C   0  0  0  0  0  0  0  0  0  0  0  0
   10.9121   -1.3749   23.3680 C   0  0  0  0  0  0  0  0  0  0  0  0
   11.9473    0.6087   23.0467 C   0  0  0  0  0  0  0  0  0  0  0  0
   11.9595   -0.7736   22.7090 C   0  0  0  0  0  0  0  0  0  0  0  0
   10.8730    0.8087   23.9162 C   0  0  0  0  0  0  0  0  0  0  0  0
   11.3696    3.1420   24.0908 C   0  0  0  0  0  0  0  0  0  0  0  0
   12.9191   -1.4515   21.8141 C   0  0  0  0  0  0  0  0  0  0  0  0
   11.9568    5.4446   24.1865 C   0  0  0  0  0  0  0  0  0  0  0  0
   10.2625   -0.4125   24.0933 N   0  0  0  0  0  0  0  0  0  0  0  0
   11.0983    4.3808   24.5916 O   0  0  0  0  0  0  0  0  0  0  0  0
   13.5938    1.5954   22.0211 H   0  0  0  0  0  0  0  0  0  0  0  0
   13.0679    3.8232   22.9532 H   0  0  0  0  0  0  0  0  0  0  0  0
    9.7187    2.1899   25.1278 H   0  0  0  0  0  0  0  0  0  0  0  0
   10.5698   -2.4003   23.3882 H   0  0  0  0  0  0  0  0  0  0  0  0
   12.5627   -1.4432   20.7713 H   0  0  0  0  0  0  0  0  0  0  0  0
   13.9120   -0.9712   21.8334 H   0  0  0  0  0  0  0  0  0  0  0  0
   13.0830   -2.5030   22.1048 H   0  0  0  0  0  0  0  0  0  0  0  0
   11.6309    6.3758   24.6564 H   0  0  0  0  0  0  0  0  0  0  0  0
   11.9276    5.5433   23.0985 H   0  0  0  0  0  0  0  0  0  0  0  0
   12.9777    5.2175   24.5026 H   0  0  0  0  0  0  0  0  0  0  0  0
    9.4515   -0.5743   24.6744 H   0  0  0  0  0  0  0  0  0  0  0  0
  1  2  1  0  0  0  0
  1  5  2  0  0  0  0
  2  8  2  0  0  0  0
  3  7  2  0  0  0  0
  3  8  1  0  0  0  0
  4  6  2  0  0  0  0
  4 11  1  0  0  0  0
  5  6  1  0  0  0  0
  5  7  1  0  0  0  0
  6  9  1  0  0  0  0
  7 11  1  0  0  0  0
  8 12  1  0  0  0  0
 10 12  1  0  0  0  0
  1 13  1  0  0  0  0
  2 14  1  0  0  0  0
  3 15  1  0  0  0  0
  4 16  1  0  0  0  0
  9 17  1  0  0  0  0
  9 18  1  0  0  0  0
  9 19  1  0  0  0  0
 10 20  1  0  0  0  0
 10 21  1  0  0  0  0
 10 22  1  0  0  0  0
 11 23  1  0  0  0  0
M  END
> <Hybrid2>
-6.763955

$$$$
s_8____15754582____83693
  -OEChem-03222023503D

 38 39  0     1  0  0  0  0  0999 V2000
   12.5674   -0.5571   22.4915 C   0  0  0  0  0  0  0  0  0  0  0  0
   11.5759   -1.3405   23.0891 C   0  0  0  0  0  0  0  0  0  0  0  0
   10.6178    0.6041   24.1835 C   0  0  0  0  0  0  0  0  0  0  0  0
   13.0104    3.0202   22.8424 C   0  0  0  0  0  0  0  0  0  0  0  0
   11.6076    1.4140   23.5922 C   0  0  0  0  0  0  0  0  0  0  0  0
   11.9057    2.8049   23.6337 C   0  0  0  0  0  0  0  0  0  0  0  0
   12.5577    0.8160   22.7615 C   0  0  0  0  0  0  0  0  0  0  0  0
   10.6151   -0.7709   23.9224 C   0  0  0  0  0  0  0  0  0  0  0  0
    9.5589    6.4962   23.8321 C   0  0  0  0  0  0  0  0  0  0  0  0
   11.0905    3.5207   25.9012 C   0  0  0  0  0  0  0  0  0  0  0  0
    7.9340    5.4923   22.1773 C   0  0  0  0  0  0  0  0  0  0  0  0
    8.7058   -0.9180   25.3326 C   0  0  0  0  0  0  0  0  0  0  0  0
   11.7492    5.2657   24.1441 C   0  0  0  0  0  0  0  0  0  0  0  0
   11.1685    3.8400   24.3858 C   0  0  1  0  0  0  0  0  0  0  0  0
   13.3963    1.8147   22.3205 N   0  0  0  0  0  0  0  0  0  0  0  0
    9.1867    5.5342   22.9094 N   0  0  0  0  0  0  0  0  0  0  0  0
   10.7977    6.3408   24.4099 N   0  0  0  0  0  0  0  0  0  0  0  0
    9.6602   -1.5605   24.4902 O   0  0  0  0  0  0  0  0  0  0  0  0
    8.6260    7.8183   24.2897 S   0  0  0  0  0  0  0  0  0  0  0  0
   13.3152   -1.0017   21.8433 H   0  0  0  0  0  0  0  0  0  0  0  0
   11.5612   -2.4109   22.8969 H   0  0  0  0  0  0  0  0  0  0  0  0
    9.8641    1.0393   24.8342 H   0  0  0  0  0  0  0  0  0  0  0  0
   13.5572    3.9218   22.6034 H   0  0  0  0  0  0  0  0  0  0  0  0
   12.0773    3.4511   26.3698 H   0  0  0  0  0  0  0  0  0  0  0  0
   10.5681    2.5747   26.0809 H   0  0  0  0  0  0  0  0  0  0  0  0
   10.5375    4.3109   26.4218 H   0  0  0  0  0  0  0  0  0  0  0  0
    7.1923    4.9173   22.7511 H   0  0  0  0  0  0  0  0  0  0  0  0
    7.5645    6.5171   22.0241 H   0  0  0  0  0  0  0  0  0  0  0  0
    8.0957    5.0112   21.2014 H   0  0  0  0  0  0  0  0  0  0  0  0
    8.0029   -1.6596   25.7198 H   0  0  0  0  0  0  0  0  0  0  0  0
    8.1699   -0.1553   24.7620 H   0  0  0  0  0  0  0  0  0  0  0  0
    9.2295   -0.4453   26.1669 H   0  0  0  0  0  0  0  0  0  0  0  0
   12.6424    5.4224   24.7603 H   0  0  0  0  0  0  0  0  0  0  0  0
   12.0662    5.3429   23.0971 H   0  0  0  0  0  0  0  0  0  0  0  0
   10.1088    3.8807   24.0452 H   0  0  0  0  0  0  0  0  0  0  0  0
   14.1832    1.6768   21.7015 H   0  0  0  0  0  0  0  0  0  0  0  0
    9.8359    4.7810   22.7125 H   0  0  0  0  0  0  0  0  0  0  0  0
   11.0866    7.0344   25.0863 H   0  0  0  0  0  0  0  0  0  0  0  0
  1  2  1  0  0  0  0
  1  7  2  0  0  0  0
  2  8  2  0  0  0  0
  3  5  2  0  0  0  0
  3  8  1  0  0  0  0
  4  6  2  0  0  0  0
  4 15  1  0  0  0  0
  5  6  1  0  0  0  0
  5  7  1  0  0  0  0
  6 14  1  0  0  0  0
  7 15  1  0  0  0  0
  8 18  1  0  0  0  0
  9 16  1  0  0  0  0
  9 17  1  0  0  0  0
  9 19  2  0  0  0  0
 10 14  1  0  0  0  0
 11 16  1  0  0  0  0
 12 18  1  0  0  0  0
 13 14  1  0  0  0  0
 13 17  1  0  0  0  0
  1 20  1  0  0  0  0
  2 21  1  0  0  0  0
  3 22  1  0  0  0  0
  4 23  1  0  0  0  0
 10 24  1  0  0  0  0
 10 25  1  0  0  0  0
 10 26  1  0  0  0  0
 11 27  1  0  0  0  0
 11 28  1  0  0  0  0
 11 29  1  0  0  0  0
 12 30  1  0  0  0  0
 12 31  1  0  0  0  0
 12 32  1  0  0  0  0
 13 33  1  0  0  0  0
 13 34  1  0  0  0  0
 14 35  1  0  0  0  0
 15 36  1  0  0  0  0
 16 37  1  0  0  0  0
 17 38  1  0  0  0  0
M  END
> <Hybrid2>
-6.228511

$$$$
EN300-124986
  -OEChem-03222023503D

 26 27  0     0  0  0  0  0  0999 V2000
   12.8394    0.8293   23.1271 C   0  0  0  0  0  0  0  0  0  0  0  0
   11.9092   -0.2056   22.9943 C   0  0  0  0  0  0  0  0  0  0  0  0
   10.0588    1.3578   23.1628 C   0  0  0  0  0  0  0  0  0  0  0  0
   12.1178    4.3541   23.5416 C   0  0  0  0  0  0  0  0  0  0  0  0
   10.9776    2.4175   23.2986 C   0  0  0  0  0  0  0  0  0  0  0  0
   10.8501    3.8249   23.4655 C   0  0  0  0  0  0  0  0  0  0  0  0
   12.3439    2.1294   23.2776 C   0  0  0  0  0  0  0  0  0  0  0  0
   10.5400    0.0523   23.0116 C   0  0  0  0  0  0  0  0  0  0  0  0
    9.8016    6.1017   23.4047 C   0  0  0  0  0  0  0  0  0  0  0  0
   10.2057   -2.2851   22.7273 C   0  0  0  0  0  0  0  0  0  0  0  0
    9.5898    4.5906   23.5433 C   0  0  0  0  0  0  0  0  0  0  0  0
   13.0121    3.3237   23.4270 N   0  0  0  0  0  0  0  0  0  0  0  0
    9.6571   -0.9777   22.8790 O   0  0  0  0  0  0  0  0  0  0  0  0
   13.9052    0.6273   23.1140 H   0  0  0  0  0  0  0  0  0  0  0  0
   12.2675   -1.2258   22.8771 H   0  0  0  0  0  0  0  0  0  0  0  0
    8.9891    1.5492   23.1746 H   0  0  0  0  0  0  0  0  0  0  0  0
   12.4648    5.3703   23.6671 H   0  0  0  0  0  0  0  0  0  0  0  0
   10.5036    6.4664   24.1623 H   0  0  0  0  0  0  0  0  0  0  0  0
    8.8601    6.6467   23.5245 H   0  0  0  0  0  0  0  0  0  0  0  0
   10.2129    6.3473   22.4197 H   0  0  0  0  0  0  0  0  0  0  0  0
    9.3955   -3.0122   22.6318 H   0  0  0  0  0  0  0  0  0  0  0  0
   10.8241   -2.5247   23.5960 H   0  0  0  0  0  0  0  0  0  0  0  0
   10.8223   -2.3095   21.8257 H   0  0  0  0  0  0  0  0  0  0  0  0
    8.8765    4.2650   22.7617 H   0  0  0  0  0  0  0  0  0  0  0  0
    9.0644    4.3978   24.4986 H   0  0  0  0  0  0  0  0  0  0  0  0
   14.0174    3.4242   23.4495 H   0  0  0  0  0  0  0  0  0  0  0  0
  1  2  1  0  0  0  0
  1  7  2  0  0  0  0
  2  8  2  0  0  0  0
  3  5  2  0  0  0  0
  3  8  1  0  0  0  0
  4  6  2  0  0  0  0
  4 12  1  0  0  0  0
  5  6  1  0  0  0  0
  5  7  1  0  0  0  0
  6 11  1  0  0  0  0
  7 12  1  0  0  0  0
  8 13  1  0  0  0  0
  9 11  1  0  0  0  0
 10 13  1  0  0  0  0
  1 14  1  0  0  0  0
  2 15  1  0  0  0  0
  3 16  1  0  0  0  0
  4 17  1  0  0  0  0
  9 18  1  0  0  0  0
  9 19  1  0  0  0  0
  9 20  1  0  0  0  0
 10 21  1  0  0  0  0
 10 22  1  0  0  0  0
 10 23  1  0  0  0  0
 11 24  1  0  0  0  0
 11 25  1  0  0  0  0
 12 26  1  0  0  0  0
M  END
> <Hybrid2>
-6.838441

$$$$
s_207____13905812____15269818
  -OEChem-03222023503D

 36 37  0     1  0  0  0  0  0999 V2000
   10.0056   -0.0825   24.4933 C   0  0  0  0  0  0  0  0  0  0  0  0
    9.7506    1.2591   24.7915 C   0  0  0  0  0  0  0  0  0  0  0  0
   11.1002   -0.4497   23.7130 C   0  0  0  0  0  0  0  0  0  0  0  0
   12.3988    3.0913   23.1557 C   0  0  0  0  0  0  0  0  0  0  0  0
   11.7384    1.8769   23.4934 C   0  0  0  0  0  0  0  0  0  0  0  0
   10.6338    2.2154   24.2779 C   0  0  0  0  0  0  0  0  0  0  0  0
   11.9753    0.5179   23.2060 C   0  0  0  0  0  0  0  0  0  0  0  0
   11.6952    4.1244   23.7308 C   0  0  0  0  0  0  0  0  0  0  0  0
   13.1869   -1.2725   22.2150 C   0  0  0  0  0  0  0  0  0  0  0  0
   11.9294    5.5801   23.7060 C   0  0  0  0  0  0  0  0  0  0  0  0
    9.5631    6.1417   23.1368 C   0  0  0  0  0  0  0  0  0  0  0  0
    7.7735    6.9291   24.7808 C   0  0  0  0  0  0  0  0  0  0  0  0
    9.2503    6.6586   24.5365 C   0  0  1  0  0  0  0  0  0  0  0  0
   10.6325    3.5862   24.4057 N   0  0  0  0  0  0  0  0  0  0  0  0
   10.9973    6.3304   22.8084 N   0  3  0  0  0  0  0  0  0  0  0  0
    9.7140    5.7005   25.4876 O   0  0  0  0  0  0  0  0  0  0  0  0
   13.0421    0.1247   22.4432 O   0  0  0  0  0  0  0  0  0  0  0  0
    7.3694    7.9045   23.9188 F   0  0  0  0  0  0  0  0  0  0  0  0
    9.3387   -0.8507   24.8764 H   0  0  0  0  0  0  0  0  0  0  0  0
    8.8981    1.5439   25.3989 H   0  0  0  0  0  0  0  0  0  0  0  0
   11.2716   -1.5020   23.4981 H   0  0  0  0  0  0  0  0  0  0  0  0
   13.2924    3.1967   22.5554 H   0  0  0  0  0  0  0  0  0  0  0  0
   14.0700   -1.4519   21.5970 H   0  0  0  0  0  0  0  0  0  0  0  0
   12.2943   -1.6551   21.7135 H   0  0  0  0  0  0  0  0  0  0  0  0
   13.3080   -1.7789   23.1755 H   0  0  0  0  0  0  0  0  0  0  0  0
   11.8153    6.0425   24.7029 H   0  0  0  0  0  0  0  0  0  0  0  0
   12.9458    5.8373   23.3574 H   0  0  0  0  0  0  0  0  0  0  0  0
    9.3564    5.0718   23.0417 H   0  0  0  0  0  0  0  0  0  0  0  0
    9.0052    6.6958   22.3757 H   0  0  0  0  0  0  0  0  0  0  0  0
    7.5804    7.2983   25.7920 H   0  0  0  0  0  0  0  0  0  0  0  0
    7.1614    6.0440   24.5864 H   0  0  0  0  0  0  0  0  0  0  0  0
    9.8212    7.5776   24.7103 H   0  0  0  0  0  0  0  0  0  0  0  0
    9.9445    4.1150   24.9241 H   0  0  0  0  0  0  0  0  0  0  0  0
   11.2312    7.3288   22.8530 H   0  0  0  0  0  0  0  0  0  0  0  0
   11.1691    6.0390   21.8394 H   0  0  0  0  0  0  0  0  0  0  0  0
    9.5007    6.0580   26.3628 H   0  0  0  0  0  0  0  0  0  0  0  0
  1  2  1  0  0  0  0
  1  3  2  0  0  0  0
  2  6  2  0  0  0  0
  3  7  1  0  0  0  0
  4  5  1  0  0  0  0
  4  8  2  0  0  0  0
  5  6  1  0  0  0  0
  5  7  2  0  0  0  0
  6 14  1  0  0  0  0
  7 17  1  0  0  0  0
  8 10  1  0  0  0  0
  8 14  1  0  0  0  0
  9 17  1  0  0  0  0
 10 15  1  0  0  0  0
 11 13  1  0  0  0  0
 11 15  1  0  0  0  0
 12 13  1  0  0  0  0
 12 18  1  0  0  0  0
 13 16  1  0  0  0  0
  1 19  1  0  0  0  0
  2 20  1  0  0  0  0
  3 21  1  0  0  0  0
  4 22  1  0  0  0  0
  9 23  1  0  0  0  0
  9 24  1  0  0  0  0
  9 25  1  0  0  0  0
 10 26  1  0  0  0  0
 10 27  1  0  0  0  0
 11 28  1  0  0  0  0
 11 29  1  0  0  0  0
 12 30  1  0  0  0  0
 12 31  1  0  0  0  0
 13 32  1  0  0  0  0
 14 33  1  0  0  0  0
 15 34  1  0  0  0  0
 15 35  1  0  0  0  0
 16 36  1  0  0  0  0
M  CHG  1  15   1
M  END
> <Hybrid2>
-7.897031

$$$$
s_240690b____16900534____3025680
  -OEChem-03222023503D

 35 36  0     0  0  0  0  0  0999 V2000
   11.6597   -1.3952   23.1629 C   0  0  0  0  0  0  0  0  0  0  0  0
   10.7753   -0.6291   23.9276 C   0  0  0  0  0  0  0  0  0  0  0  0
   12.7084   -0.7992   22.4653 C   0  0  0  0  0  0  0  0  0  0  0  0
   10.8456    2.9642   24.3738 C   0  0  0  0  0  0  0  0  0  0  0  0
   12.0251    1.3788   23.2763 C   0  0  0  0  0  0  0  0  0  0  0  0
   11.9259    2.7729   23.5437 C   0  0  0  0  0  0  0  0  0  0  0  0
   10.9831    0.7542   23.9651 C   0  0  0  0  0  0  0  0  0  0  0  0
   12.9041    0.5859   22.5120 C   0  0  0  0  0  0  0  0  0  0  0  0
    9.8261    5.7695   23.2581 C   0  0  0  0  0  0  0  0  0  0  0  0
   12.8344    3.8569   23.0176 C   0  0  0  0  0  0  0  0  0  0  0  0
    8.6387    5.9002   22.3169 C   0  0  0  0  0  0  0  0  0  0  0  0
   12.2659    5.2596   23.2178 C   0  0  0  0  0  0  0  0  0  0  0  0
    7.8743    4.6022   22.1107 C   0  0  0  0  0  0  0  0  0  0  0  0
   10.2835    1.7409   24.6226 N   0  0  0  0  0  0  0  0  0  0  0  0
   10.9850    5.4363   22.5720 N   0  0  0  0  0  0  0  0  0  0  0  0
    8.7806    3.5670   21.5540 N   0  3  0  0  0  0  0  0  0  0  0  0
    9.7469    5.9512   24.4700 O   0  0  0  0  0  0  0  0  0  0  0  0
   13.9191    1.1380   21.8338 F   0  0  0  0  0  0  0  0  0  0  0  0
   11.5262   -2.4730   23.1126 H   0  0  0  0  0  0  0  0  0  0  0  0
    9.9596   -1.0942   24.4712 H   0  0  0  0  0  0  0  0  0  0  0  0
   13.3831   -1.4155   21.8772 H   0  0  0  0  0  0  0  0  0  0  0  0
   10.4252    3.8595   24.8107 H   0  0  0  0  0  0  0  0  0  0  0  0
   13.0006    3.6824   21.9470 H   0  0  0  0  0  0  0  0  0  0  0  0
   13.8205    3.7777   23.4929 H   0  0  0  0  0  0  0  0  0  0  0  0
    8.9888    6.2965   21.3562 H   0  0  0  0  0  0  0  0  0  0  0  0
    7.9604    6.6432   22.7538 H   0  0  0  0  0  0  0  0  0  0  0  0
   12.1106    5.4503   24.2844 H   0  0  0  0  0  0  0  0  0  0  0  0
   12.9411    6.0286   22.8282 H   0  0  0  0  0  0  0  0  0  0  0  0
    7.4648    4.2002   23.0421 H   0  0  0  0  0  0  0  0  0  0  0  0
    7.0685    4.7313   21.3825 H   0  0  0  0  0  0  0  0  0  0  0  0
    9.4724    1.5838   25.2048 H   0  0  0  0  0  0  0  0  0  0  0  0
   10.9447    5.3029   21.5658 H   0  0  0  0  0  0  0  0  0  0  0  0
    9.3512    3.1438   22.2933 H   0  0  0  0  0  0  0  0  0  0  0  0
    9.4148    3.9725   20.8575 H   0  0  0  0  0  0  0  0  0  0  0  0
    8.2466    2.8193   21.0988 H   0  0  0  0  0  0  0  0  0  0  0  0
  1  2  1  0  0  0  0
  1  3  2  0  0  0  0
  2  7  2  0  0  0  0
  3  8  1  0  0  0  0
  4  6  2  0  0  0  0
  4 14  1  0  0  0  0
  5  6  1  0  0  0  0
  5  7  1  0  0  0  0
  5  8  2  0  0  0  0
  6 10  1  0  0  0  0
  7 14  1  0  0  0  0
  8 18  1  0  0  0  0
  9 11  1  0  0  0  0
  9 15  1  0  0  0  0
  9 17  2  0  0  0  0
 10 12  1  0  0  0  0
 11 13  1  0  0  0  0
 12 15  1  0  0  0  0
 13 16  1  0  0  0  0
  1 19  1  0  0  0  0
  2 20  1  0  0  0  0
  3 21  1  0  0  0  0
  4 22  1  0  0  0  0
 10 23  1  0  0  0  0
 10 24  1  0  0  0  0
 11 25  1  0  0  0  0
 11 26  1  0  0  0  0
 12 27  1  0  0  0  0
 12 28  1  0  0  0  0
 13 29  1  0  0  0  0
 13 30  1  0  0  0  0
 14 31  1  0  0  0  0
 15 32  1  0  0  0  0
 16 33  1  0  0  0  0
 16 34  1  0  0  0  0
 16 35  1  0  0  0  0
M  CHG  1  16   1
M  END
> <Hybrid2>
-9.419396

$$$$
s_22____13978824____9296322
  -OEChem-03222023503D

 35 36  0     0  0  0  0  0  0999 V2000
    9.7803    6.1477   23.3784 C   0  0  0  0  0  0  0  0  0  0  0  0
    8.6666    6.5619   23.2041 C   0  0  0  0  0  0  0  0  0  0  0  0
   12.0225   -0.1267   21.8974 C   0  0  0  0  0  0  0  0  0  0  0  0
   11.4725   -1.4061   22.0376 C   0  0  0  0  0  0  0  0  0  0  0  0
   10.5464   -0.8282   24.2085 C   0  0  0  0  0  0  0  0  0  0  0  0
   11.7509    2.5850   24.3333 C   0  0  0  0  0  0  0  0  0  0  0  0
   11.8342    0.8187   22.9251 C   0  0  0  0  0  0  0  0  0  0  0  0
   12.2374    2.1702   23.1150 C   0  0  0  0  0  0  0  0  0  0  0  0
   11.1020    0.4469   24.0546 C   0  0  0  0  0  0  0  0  0  0  0  0
   10.7462   -1.7493   23.1762 C   0  0  0  0  0  0  0  0  0  0  0  0
   11.1201    5.6496   23.5903 C   0  0  0  0  0  0  0  0  0  0  0  0
    7.3109    7.0665   22.9913 C   0  0  0  0  0  0  0  0  0  0  0  0
    9.4891   -3.2957   24.4740 C   0  0  0  0  0  0  0  0  0  0  0  0
   13.0339    2.9896   22.1794 C   0  0  0  0  0  0  0  0  0  0  0  0
   13.0285    4.4948   22.5024 C   0  0  0  0  0  0  0  0  0  0  0  0
   11.0677    1.5386   24.8926 N   0  0  0  0  0  0  0  0  0  0  0  0
   11.7007    5.0478   22.4871 N   0  0  0  0  0  0  0  0  0  0  0  0
   11.6337    5.7916   24.6932 O   0  0  0  0  0  0  0  0  0  0  0  0
   10.2223   -3.0032   23.2867 O   0  0  0  0  0  0  0  0  0  0  0  0
   12.5866    0.1261   21.0040 H   0  0  0  0  0  0  0  0  0  0  0  0
   11.6183   -2.1352   21.2442 H   0  0  0  0  0  0  0  0  0  0  0  0
    9.9813   -1.0912   25.0970 H   0  0  0  0  0  0  0  0  0  0  0  0
   11.8273    3.5297   24.8534 H   0  0  0  0  0  0  0  0  0  0  0  0
    6.6878    6.8923   23.8738 H   0  0  0  0  0  0  0  0  0  0  0  0
    7.3230    8.1421   22.7914 H   0  0  0  0  0  0  0  0  0  0  0  0
    6.8392    6.5681   22.1392 H   0  0  0  0  0  0  0  0  0  0  0  0
    9.1270   -4.3259   24.4350 H   0  0  0  0  0  0  0  0  0  0  0  0
    8.6467   -2.6051   24.5625 H   0  0  0  0  0  0  0  0  0  0  0  0
   10.1481   -3.1760   25.3372 H   0  0  0  0  0  0  0  0  0  0  0  0
   12.6551    2.8630   21.1460 H   0  0  0  0  0  0  0  0  0  0  0  0
   14.0857    2.6415   22.1336 H   0  0  0  0  0  0  0  0  0  0  0  0
   13.4375    4.6837   23.5000 H   0  0  0  0  0  0  0  0  0  0  0  0
   13.6276    5.0541   21.7763 H   0  0  0  0  0  0  0  0  0  0  0  0
   10.6055    1.5633   25.7910 H   0  0  0  0  0  0  0  0  0  0  0  0
   11.1621    4.9939   21.6236 H   0  0  0  0  0  0  0  0  0  0  0  0
  1  2  3  0  0  0  0
  1 11  1  0  0  0  0
  2 12  1  0  0  0  0
  3  4  1  0  0  0  0
  3  7  2  0  0  0  0
  4 10  2  0  0  0  0
  5  9  2  0  0  0  0
  5 10  1  0  0  0  0
  6  8  2  0  0  0  0
  6 16  1  0  0  0  0
  7  8  1  0  0  0  0
  7  9  1  0  0  0  0
  8 14  1  0  0  0  0
  9 16  1  0  0  0  0
 10 19  1  0  0  0  0
 11 17  1  0  0  0  0
 11 18  2  0  0  0  0
 13 19  1  0  0  0  0
 14 15  1  0  0  0  0
 15 17  1  0  0  0  0
  3 20  1  0  0  0  0
  4 21  1  0  0  0  0
  5 22  1  0  0  0  0
  6 23  1  0  0  0  0
 12 24  1  0  0  0  0
 12 25  1  0  0  0  0
 12 26  1  0  0  0  0
 13 27  1  0  0  0  0
 13 28  1  0  0  0  0
 13 29  1  0  0  0  0
 14 30  1  0  0  0  0
 14 31  1  0  0  0  0
 15 32  1  0  0  0  0
 15 33  1  0  0  0  0
 16 34  1  0  0  0  0
 17 35  1  0  0  0  0
M  END
> <Hybrid2>
-9.235840

$$$$
s_22____9192330____58887
  -OEChem-03222023513D

 39 40  0     0  0  0  0  0  0999 V2000
   13.2226    3.3255   23.0718 C   0  0  0  0  0  0  0  0  0  0  0  0
   12.6219    2.1045   22.7520 C   0  0  0  0  0  0  0  0  0  0  0  0
   10.5167    2.8180   23.7298 C   0  0  0  0  0  0  0  0  0  0  0  0
   11.6694    6.1325   24.7526 C   0  0  0  0  0  0  0  0  0  0  0  0
   11.1007    4.0564   24.0625 C   0  0  0  0  0  0  0  0  0  0  0  0
   10.6291    5.2331   24.7091 C   0  0  0  0  0  0  0  0  0  0  0  0
   12.4374    4.2812   23.7265 C   0  0  0  0  0  0  0  0  0  0  0  0
   11.2900    1.8525   23.0749 C   0  0  0  0  0  0  0  0  0  0  0  0
    8.6274    6.2701   22.9747 C   0  0  0  0  0  0  0  0  0  0  0  0
    6.7008    7.7519   22.2889 C   0  0  0  0  0  0  0  0  0  0  0  0
   10.3095   -1.2305   24.1812 C   0  0  0  0  0  0  0  0  0  0  0  0
   11.8424   -1.4033   22.1883 C   0  0  0  0  0  0  0  0  0  0  0  0
    9.2701    5.4598   25.2406 C   0  0  0  0  0  0  0  0  0  0  0  0
    7.4064    6.4233   22.0867 C   0  0  0  0  0  0  0  0  0  0  0  0
   11.3301   -0.5136   23.3106 C   0  0  0  0  0  0  0  0  0  0  0  0
   12.7557    5.5494   24.1573 N   0  0  0  0  0  0  0  0  0  0  0  0
    8.2961    5.7181   24.2027 N   0  0  0  0  0  0  0  0  0  0  0  0
    9.7578    6.5991   22.6254 O   0  0  0  0  0  0  0  0  0  0  0  0
   10.7316    0.6526   22.7493 O   0  0  0  0  0  0  0  0  0  0  0  0
   14.2598    3.5204   22.8203 H   0  0  0  0  0  0  0  0  0  0  0  0
   13.2101    1.3437   22.2440 H   0  0  0  0  0  0  0  0  0  0  0  0
    9.4787    2.6125   23.9771 H   0  0  0  0  0  0  0  0  0  0  0  0
   11.7353    7.1345   25.1533 H   0  0  0  0  0  0  0  0  0  0  0  0
    6.3726    7.8690   23.3271 H   0  0  0  0  0  0  0  0  0  0  0  0
    7.3727    8.5810   22.0470 H   0  0  0  0  0  0  0  0  0  0  0  0
    5.8172    7.8297   21.6467 H   0  0  0  0  0  0  0  0  0  0  0  0
    9.4540   -1.5723   23.5907 H   0  0  0  0  0  0  0  0  0  0  0  0
   10.7670   -2.0979   24.6690 H   0  0  0  0  0  0  0  0  0  0  0  0
    9.9444   -0.5766   24.9810 H   0  0  0  0  0  0  0  0  0  0  0  0
   11.0235   -1.7492   21.5502 H   0  0  0  0  0  0  0  0  0  0  0  0
   12.3585   -2.2773   22.6001 H   0  0  0  0  0  0  0  0  0  0  0  0
   12.5711   -0.8723   21.5659 H   0  0  0  0  0  0  0  0  0  0  0  0
    8.9027    4.5899   25.8133 H   0  0  0  0  0  0  0  0  0  0  0  0
    9.2303    6.3192   25.9327 H   0  0  0  0  0  0  0  0  0  0  0  0
    7.7239    6.3316   21.0417 H   0  0  0  0  0  0  0  0  0  0  0  0
    6.7134    5.6027   22.3039 H   0  0  0  0  0  0  0  0  0  0  0  0
   12.1715   -0.1849   23.9294 H   0  0  0  0  0  0  0  0  0  0  0  0
   13.6609    5.9857   24.0498 H   0  0  0  0  0  0  0  0  0  0  0  0
    7.3247    5.4844   24.3818 H   0  0  0  0  0  0  0  0  0  0  0  0
  1  2  1  0  0  0  0
  1  7  2  0  0  0  0
  2  8  2  0  0  0  0
  3  5  2  0  0  0  0
  3  8  1  0  0  0  0
  4  6  2  0  0  0  0
  4 16  1  0  0  0  0
  5  6  1  0  0  0  0
  5  7  1  0  0  0  0
  6 13  1  0  0  0  0
  7 16  1  0  0  0  0
  8 19  1  0  0  0  0
  9 14  1  0  0  0  0
  9 17  1  0  0  0  0
  9 18  2  0  0  0  0
 10 14  1  0  0  0  0
 11 15  1  0  0  0  0
 12 15  1  0  0  0  0
 13 17  1  0  0  0  0
 15 19  1  0  0  0  0
  1 20  1  0  0  0  0
  2 21  1  0  0  0  0
  3 22  1  0  0  0  0
  4 23  1  0  0  0  0
 10 24  1  0  0  0  0
 10 25  1  0  0  0  0
 10 26  1  0  0  0  0
 11 27  1  0  0  0  0
 11 28  1  0  0  0  0
 11 29  1  0  0  0  0
 12 30  1  0  0  0  0
 12 31  1  0  0  0  0
 12 32  1  0  0  0  0
 13 33  1  0  0  0  0
 13 34  1  0  0  0  0
 14 35  1  0  0  0  0
 14 36  1  0  0  0  0
 15 37  1  0  0  0  0
 16 38  1  0  0  0  0
 17 39  1  0  0  0  0
M  END
> <Hybrid2>
-7.399048

$$$$
s_22____9631354____58866
  -OEChem-03222023513D

 35 36  0     0  0  0  0  0  0999 V2000
   10.7244   -0.7449   23.7194 C   0  0  0  0  0  0  0  0  0  0  0  0
   11.5881   -1.4402   22.8682 C   0  0  0  0  0  0  0  0  0  0  0  0
   12.8914    0.5671   22.4564 C   0  0  0  0  0  0  0  0  0  0  0  0
   10.8981    2.7663   24.5897 C   0  0  0  0  0  0  0  0  0  0  0  0
   12.0338    1.2888   23.3103 C   0  0  0  0  0  0  0  0  0  0  0  0
   11.9746    2.6436   23.7417 C   0  0  0  0  0  0  0  0  0  0  0  0
   10.9723    0.6175   23.9208 C   0  0  0  0  0  0  0  0  0  0  0  0
   12.6555   -0.7963   22.2454 C   0  0  0  0  0  0  0  0  0  0  0  0
   10.1844    6.2666   23.6884 C   0  0  0  0  0  0  0  0  0  0  0  0
    7.7828    4.4361   23.8904 C   0  0  0  0  0  0  0  0  0  0  0  0
   12.9178    3.7537   23.3479 C   0  0  0  0  0  0  0  0  0  0  0  0
    8.9389    6.4065   22.8316 C   0  0  0  0  0  0  0  0  0  0  0  0
    8.2455    5.0693   22.5884 C   0  0  0  0  0  0  0  0  0  0  0  0
   12.3926    5.1395   23.7148 C   0  0  0  0  0  0  0  0  0  0  0  0
   10.3000    1.5390   24.6917 N   0  0  0  0  0  0  0  0  0  0  0  0
   11.1210    5.4316   23.0968 N   0  0  0  0  0  0  0  0  0  0  0  0
   10.3271    6.8326   24.7689 O   0  0  0  0  0  0  0  0  0  0  0  0
   13.4672   -1.4901   21.4357 F   0  0  0  0  0  0  0  0  0  0  0  0
    9.8935   -1.2471   24.2033 H   0  0  0  0  0  0  0  0  0  0  0  0
   11.4230   -2.4993   22.6891 H   0  0  0  0  0  0  0  0  0  0  0  0
   13.7283    1.0537   21.9638 H   0  0  0  0  0  0  0  0  0  0  0  0
   10.5029    3.6154   25.1298 H   0  0  0  0  0  0  0  0  0  0  0  0
    7.0981    5.0995   24.4279 H   0  0  0  0  0  0  0  0  0  0  0  0
    7.2679    3.4883   23.7043 H   0  0  0  0  0  0  0  0  0  0  0  0
    8.6404    4.2347   24.5398 H   0  0  0  0  0  0  0  0  0  0  0  0
   13.0814    3.7033   22.2639 H   0  0  0  0  0  0  0  0  0  0  0  0
   13.8996    3.5875   23.8093 H   0  0  0  0  0  0  0  0  0  0  0  0
    8.2526    7.0979   23.3353 H   0  0  0  0  0  0  0  0  0  0  0  0
    9.2299    6.8571   21.8752 H   0  0  0  0  0  0  0  0  0  0  0  0
    8.9284    4.3821   22.0746 H   0  0  0  0  0  0  0  0  0  0  0  0
    7.3816    5.2103   21.9279 H   0  0  0  0  0  0  0  0  0  0  0  0
   12.2405    5.2062   24.7967 H   0  0  0  0  0  0  0  0  0  0  0  0
   13.0925    5.9281   23.4192 H   0  0  0  0  0  0  0  0  0  0  0  0
    9.4826    1.3381   25.2511 H   0  0  0  0  0  0  0  0  0  0  0  0
   10.9047    5.0112   22.1978 H   0  0  0  0  0  0  0  0  0  0  0  0
  1  2  1  0  0  0  0
  1  7  2  0  0  0  0
  2  8  2  0  0  0  0
  3  5  2  0  0  0  0
  3  8  1  0  0  0  0
  4  6  2  0  0  0  0
  4 15  1  0  0  0  0
  5  6  1  0  0  0  0
  5  7  1  0  0  0  0
  6 11  1  0  0  0  0
  7 15  1  0  0  0  0
  8 18  1  0  0  0  0
  9 12  1  0  0  0  0
  9 16  1  0  0  0  0
  9 17  2  0  0  0  0
 10 13  1  0  0  0  0
 11 14  1  0  0  0  0
 12 13  1  0  0  0  0
 14 16  1  0  0  0  0
  1 19  1  0  0  0  0
  2 20  1  0  0  0  0
  3 21  1  0  0  0  0
  4 22  1  0  0  0  0
 10 23  1  0  0  0  0
 10 24  1  0  0  0  0
 10 25  1  0  0  0  0
 11 26  1  0  0  0  0
 11 27  1  0  0  0  0
 12 28  1  0  0  0  0
 12 29  1  0  0  0  0
 13 30  1  0  0  0  0
 13 31  1  0  0  0  0
 14 32  1  0  0  0  0
 14 33  1  0  0  0  0
 15 34  1  0  0  0  0
 16 35  1  0  0  0  0
M  END
> <Hybrid2>
-9.995261

$$$$
s_240690b____12346500____3025680
  -OEChem-03222023513D

 35 36  0     0  0  0  0  0  0999 V2000
   12.3045   -1.0340   22.0543 C   0  0  0  0  0  0  0  0  0  0  0  0
   12.6749    0.3082   22.1961 C   0  0  0  0  0  0  0  0  0  0  0  0
   11.2455   -1.5630   22.7894 C   0  0  0  0  0  0  0  0  0  0  0  0
   11.0773    2.7337   24.4154 C   0  0  0  0  0  0  0  0  0  0  0  0
   11.9625    1.1265   23.0952 C   0  0  0  0  0  0  0  0  0  0  0  0
   12.0591    2.4925   23.4823 C   0  0  0  0  0  0  0  0  0  0  0  0
   10.9058    0.5693   23.8185 C   0  0  0  0  0  0  0  0  0  0  0  0
   10.5244   -0.7707   23.6872 C   0  0  0  0  0  0  0  0  0  0  0  0
   10.3400    5.7321   23.6217 C   0  0  0  0  0  0  0  0  0  0  0  0
   13.0549    3.5031   22.9684 C   0  0  0  0  0  0  0  0  0  0  0  0
    9.1107    6.0886   22.8005 C   0  0  0  0  0  0  0  0  0  0  0  0
   12.6854    4.9398   23.3293 C   0  0  0  0  0  0  0  0  0  0  0  0
    8.1746    4.9155   22.5574 C   0  0  0  0  0  0  0  0  0  0  0  0
   10.3871    1.5677   24.6119 N   0  0  0  0  0  0  0  0  0  0  0  0
   11.3919    5.3262   22.8133 N   0  0  0  0  0  0  0  0  0  0  0  0
    8.8976    3.8340   21.8428 N   0  3  0  0  0  0  0  0  0  0  0  0
   10.3768    5.8115   24.8466 O   0  0  0  0  0  0  0  0  0  0  0  0
    9.2209   -1.4346   24.5866 Cl  0  0  0  0  0  0  0  0  0  0  0  0
   12.8507   -1.6688   21.3616 H   0  0  0  0  0  0  0  0  0  0  0  0
   13.5031    0.7060   21.6166 H   0  0  0  0  0  0  0  0  0  0  0  0
   10.9858   -2.6107   22.6533 H   0  0  0  0  0  0  0  0  0  0  0  0
   10.8068    3.6290   24.9581 H   0  0  0  0  0  0  0  0  0  0  0  0
   13.1158    3.4077   21.8769 H   0  0  0  0  0  0  0  0  0  0  0  0
   14.0562    3.2638   23.3486 H   0  0  0  0  0  0  0  0  0  0  0  0
    9.4341    6.5256   21.8480 H   0  0  0  0  0  0  0  0  0  0  0  0
    8.5671    6.8648   23.3528 H   0  0  0  0  0  0  0  0  0  0  0  0
   12.6371    5.0504   24.4172 H   0  0  0  0  0  0  0  0  0  0  0  0
   13.4210    5.6546   22.9459 H   0  0  0  0  0  0  0  0  0  0  0  0
    7.7895    4.4826   23.4854 H   0  0  0  0  0  0  0  0  0  0  0  0
    7.3386    5.2055   21.9145 H   0  0  0  0  0  0  0  0  0  0  0  0
    9.6092    1.4552   25.2472 H   0  0  0  0  0  0  0  0  0  0  0  0
   11.2586    5.2903   21.8069 H   0  0  0  0  0  0  0  0  0  0  0  0
    9.4645    3.2804   22.4935 H   0  0  0  0  0  0  0  0  0  0  0  0
    9.5233    4.2221   21.1290 H   0  0  0  0  0  0  0  0  0  0  0  0
    8.2402    3.1998   21.3769 H   0  0  0  0  0  0  0  0  0  0  0  0
  1  2  1  0  0  0  0
  1  3  2  0  0  0  0
  2  5  2  0  0  0  0
  3  8  1  0  0  0  0
  4  6  2  0  0  0  0
  4 14  1  0  0  0  0
  5  6  1  0  0  0  0
  5  7  1  0  0  0  0
  6 10  1  0  0  0  0
  7  8  2  0  0  0  0
  7 14  1  0  0  0  0
  8 18  1  0  0  0  0
  9 11  1  0  0  0  0
  9 15  1  0  0  0  0
  9 17  2  0  0  0  0
 10 12  1  0  0  0  0
 11 13  1  0  0  0  0
 12 15  1  0  0  0  0
 13 16  1  0  0  0  0
  1 19  1  0  0  0  0
  2 20  1  0  0  0  0
  3 21  1  0  0  0  0
  4 22  1  0  0  0  0
 10 23  1  0  0  0  0
 10 24  1  0  0  0  0
 11 25  1  0  0  0  0
 11 26  1  0  0  0  0
 12 27  1  0  0  0  0
 12 28  1  0  0  0  0
 13 29  1  0  0  0  0
 13 30  1  0  0  0  0
 14 31  1  0  0  0  0
 15 32  1  0  0  0  0
 16 33  1  0  0  0  0
 16 34  1  0  0  0  0
 16 35  1  0  0  0  0
M  CHG  1  16   1
M  END
> <Hybrid2>
-9.976455

$$$$
s_22____5635330____59039
  -OEChem-03222023523D

 36 37  0     0  0  0  0  0  0999 V2000
   13.2377   -0.6170   21.9207 C   0  0  0  0  0  0  0  0  0  0  0  0
   13.2325    0.6347   22.5469 C   0  0  0  0  0  0  0  0  0  0  0  0
   12.1298   -1.4586   21.9997 C   0  0  0  0  0  0  0  0  0  0  0  0
   10.4677    2.0321   24.4869 C   0  0  0  0  0  0  0  0  0  0  0  0
   12.0889    1.0400   23.2634 C   0  0  0  0  0  0  0  0  0  0  0  0
   10.9844   -1.0781   22.7048 C   0  0  0  0  0  0  0  0  0  0  0  0
   11.7428    2.2069   24.0006 C   0  0  0  0  0  0  0  0  0  0  0  0
   10.9935    0.1760   23.3257 C   0  0  0  0  0  0  0  0  0  0  0  0
   10.6061    5.6179   23.4470 C   0  0  0  0  0  0  0  0  0  0  0  0
    9.8156   -2.0038   22.7691 C   0  0  0  0  0  0  0  0  0  0  0  0
    7.1786    5.2098   22.2236 C   0  0  0  0  0  0  0  0  0  0  0  0
   12.5921    3.3965   24.2126 C   0  0  0  0  0  0  0  0  0  0  0  0
    9.3099    6.0280   22.7810 C   0  0  0  0  0  0  0  0  0  0  0  0
   12.6848    4.3273   22.9899 C   0  0  0  0  0  0  0  0  0  0  0  0
   10.0242    0.8042   24.0748 N   0  0  0  0  0  0  0  0  0  0  0  0
   11.4000    4.8476   22.6059 N   0  0  0  0  0  0  0  0  0  0  0  0
   10.8945    5.9433   24.5955 O   0  0  0  0  0  0  0  0  0  0  0  0
    8.5534    4.8919   22.4205 O   0  0  0  0  0  0  0  0  0  0  0  0
   14.1173   -0.9351   21.3672 H   0  0  0  0  0  0  0  0  0  0  0  0
   14.1044    1.2786   22.4754 H   0  0  0  0  0  0  0  0  0  0  0  0
   12.1653   -2.4257   21.5031 H   0  0  0  0  0  0  0  0  0  0  0  0
    9.8352    2.6698   25.0890 H   0  0  0  0  0  0  0  0  0  0  0  0
    9.9013   -2.6657   23.6391 H   0  0  0  0  0  0  0  0  0  0  0  0
    8.8723   -1.4483   22.8451 H   0  0  0  0  0  0  0  0  0  0  0  0
    9.7486   -2.6227   21.8652 H   0  0  0  0  0  0  0  0  0  0  0  0
    6.6308    4.3057   21.9468 H   0  0  0  0  0  0  0  0  0  0  0  0
    7.0866    5.9603   21.4345 H   0  0  0  0  0  0  0  0  0  0  0  0
    6.7696    5.6104   23.1542 H   0  0  0  0  0  0  0  0  0  0  0  0
   13.6210    3.0859   24.4814 H   0  0  0  0  0  0  0  0  0  0  0  0
   12.2453    3.9894   25.0830 H   0  0  0  0  0  0  0  0  0  0  0  0
    8.7205    6.6304   23.4789 H   0  0  0  0  0  0  0  0  0  0  0  0
    9.5191    6.6209   21.8852 H   0  0  0  0  0  0  0  0  0  0  0  0
   13.3244    5.1901   23.2011 H   0  0  0  0  0  0  0  0  0  0  0  0
   13.0991    3.7988   22.1250 H   0  0  0  0  0  0  0  0  0  0  0  0
    9.1161    0.4160   24.2897 H   0  0  0  0  0  0  0  0  0  0  0  0
   11.0546    4.6409   21.6699 H   0  0  0  0  0  0  0  0  0  0  0  0
  1  2  1  0  0  0  0
  1  3  2  0  0  0  0
  2  5  2  0  0  0  0
  3  6  1  0  0  0  0
  4  7  2  0  0  0  0
  4 15  1  0  0  0  0
  5  7  1  0  0  0  0
  5  8  1  0  0  0  0
  6  8  2  0  0  0  0
  6 10  1  0  0  0  0
  7 12  1  0  0  0  0
  8 15  1  0  0  0  0
  9 13  1  0  0  0  0
  9 16  1  0  0  0  0
  9 17  2  0  0  0  0
 11 18  1  0  0  0  0
 12 14  1  0  0  0  0
 13 18  1  0  0  0  0
 14 16  1  0  0  0  0
  1 19  1  0  0  0  0
  2 20  1  0  0  0  0
  3 21  1  0  0  0  0
  4 22  1  0  0  0  0
 10 23  1  0  0  0  0
 10 24  1  0  0  0  0
 10 25  1  0  0  0  0
 11 26  1  0  0  0  0
 11 27  1  0  0  0  0
 11 28  1  0  0  0  0
 12 29  1  0  0  0  0
 12 30  1  0  0  0  0
 13 31  1  0  0  0  0
 13 32  1  0  0  0  0
 14 33  1  0  0  0  0
 14 34  1  0  0  0  0
 15 35  1  0  0  0  0
 16 36  1  0  0  0  0
M  END
> <Hybrid2>
-9.013217

$$$$
s_240690b____17029356____13151248
  -OEChem-03222023523D

 32 33  0     0  0  0  0  0  0999 V2000
   10.6046   -0.5251   23.5576 C   0  0  0  0  0  0  0  0  0  0  0  0
   11.5819   -1.1853   22.8072 C   0  0  0  0  0  0  0  0  0  0  0  0
   12.8063    0.8851   22.4731 C   0  0  0  0  0  0  0  0  0  0  0  0
   10.5024    3.0052   24.3594 C   0  0  0  0  0  0  0  0  0  0  0  0
   11.8335    1.5720   23.2262 C   0  0  0  0  0  0  0  0  0  0  0  0
   11.6595    2.9287   23.6189 C   0  0  0  0  0  0  0  0  0  0  0  0
   10.7573    0.8525   23.7500 C   0  0  0  0  0  0  0  0  0  0  0  0
   12.6666   -0.4930   22.2724 C   0  0  0  0  0  0  0  0  0  0  0  0
    9.5021    5.9158   23.4139 C   0  0  0  0  0  0  0  0  0  0  0  0
   12.5542    4.0591   23.2965 C   0  0  0  0  0  0  0  0  0  0  0  0
    8.4096    6.1068   22.3835 C   0  0  0  0  0  0  0  0  0  0  0  0
   11.9407    5.4435   23.5739 C   0  0  0  0  0  0  0  0  0  0  0  0
    9.9655    1.7479   24.4332 N   0  0  0  0  0  0  0  0  0  0  0  0
    6.8305    4.5883   23.1433 N   0  0  0  0  0  0  0  0  0  0  0  0
   10.7338    5.6621   22.8225 N   0  0  0  0  0  0  0  0  0  0  0  0
    9.2943    5.9836   24.6223 O   0  0  0  0  0  0  0  0  0  0  0  0
    7.7874    4.8758   22.0824 O   0  0  0  0  0  0  0  0  0  0  0  0
   13.5880   -1.1539   21.5583 F   0  0  0  0  0  0  0  0  0  0  0  0
    9.7604   -1.0650   23.9731 H   0  0  0  0  0  0  0  0  0  0  0  0
   11.4927   -2.2551   22.6379 H   0  0  0  0  0  0  0  0  0  0  0  0
   13.6582    1.4096   22.0499 H   0  0  0  0  0  0  0  0  0  0  0  0
   10.0119    3.8400   24.8405 H   0  0  0  0  0  0  0  0  0  0  0  0
   12.8414    4.0231   22.2272 H   0  0  0  0  0  0  0  0  0  0  0  0
   13.5148    3.9814   23.8446 H   0  0  0  0  0  0  0  0  0  0  0  0
    7.6532    6.7898   22.7819 H   0  0  0  0  0  0  0  0  0  0  0  0
    8.8285    6.5327   21.4664 H   0  0  0  0  0  0  0  0  0  0  0  0
   11.6784    5.5517   24.6310 H   0  0  0  0  0  0  0  0  0  0  0  0
   12.6419    6.2429   23.3125 H   0  0  0  0  0  0  0  0  0  0  0  0
    9.1111    1.5109   24.9181 H   0  0  0  0  0  0  0  0  0  0  0  0
    7.1416    3.6622   23.4326 H   0  0  0  0  0  0  0  0  0  0  0  0
    5.9799    4.4525   22.5993 H   0  0  0  0  0  0  0  0  0  0  0  0
   10.7846    5.6293   21.8054 H   0  0  0  0  0  0  0  0  0  0  0  0
  1  2  1  0  0  0  0
  1  7  2  0  0  0  0
  2  8  2  0  0  0  0
  3  5  2  0  0  0  0
  3  8  1  0  0  0  0
  4  6  2  0  0  0  0
  4 13  1  0  0  0  0
  5  6  1  0  0  0  0
  5  7  1  0  0  0  0
  6 10  1  0  0  0  0
  7 13  1  0  0  0  0
  8 18  1  0  0  0  0
  9 11  1  0  0  0  0
  9 15  1  0  0  0  0
  9 16  2  0  0  0  0
 10 12  1  0  0  0  0
 11 17  1  0  0  0  0
 12 15  1  0  0  0  0
 14 17  1  0  0  0  0
  1 19  1  0  0  0  0
  2 20  1  0  0  0  0
  3 21  1  0  0  0  0
  4 22  1  0  0  0  0
 10 23  1  0  0  0  0
 10 24  1  0  0  0  0
 11 25  1  0  0  0  0
 11 26  1  0  0  0  0
 12 27  1  0  0  0  0
 12 28  1  0  0  0  0
 13 29  1  0  0  0  0
 14 30  1  0  0  0  0
 14 31  1  0  0  0  0
 15 32  1  0  0  0  0
M  END
> <Hybrid2>
-9.259295

$$$$
s_22____4839448____16783912
  -OEChem-03222023563D

 40 41  0     0  0  0  0  0  0999 V2000
    9.8174   -0.8579   23.8036 C   0  0  0  0  0  0  0  0  0  0  0  0
   10.6856   -1.5469   22.9519 C   0  0  0  0  0  0  0  0  0  0  0  0
   12.2479    0.3122   22.9458 C   0  0  0  0  0  0  0  0  0  0  0  0
   10.2935    2.4665   25.1594 C   0  0  0  0  0  0  0  0  0  0  0  0
   11.3886    1.0261   23.8045 C   0  0  0  0  0  0  0  0  0  0  0  0
   11.4369    2.3131   24.4097 C   0  0  0  0  0  0  0  0  0  0  0  0
   10.1956    0.4258   24.2127 C   0  0  0  0  0  0  0  0  0  0  0  0
   11.8827   -0.9728   22.5284 C   0  0  0  0  0  0  0  0  0  0  0  0
   10.8695    5.8199   23.5809 C   0  0  0  0  0  0  0  0  0  0  0  0
   13.9189   -1.0277   21.3010 C   0  0  0  0  0  0  0  0  0  0  0  0
   12.5388    3.3337   24.2640 C   0  0  0  0  0  0  0  0  0  0  0  0
    9.5610    6.4433   23.1246 C   0  0  0  0  0  0  0  0  0  0  0  0
    8.3239    5.7688   23.7092 C   0  0  0  0  0  0  0  0  0  0  0  0
   12.5009    4.0637   22.9236 C   0  0  0  0  0  0  0  0  0  0  0  0
    8.2335    4.2909   23.3476 C   0  0  0  0  0  0  0  0  0  0  0  0
    9.5512    1.3229   25.0345 N   0  0  0  0  0  0  0  0  0  0  0  0
   11.2750    4.8026   22.7294 N   0  0  0  0  0  0  0  0  0  0  0  0
   11.4883    6.2000   24.5712 O   0  0  0  0  0  0  0  0  0  0  0  0
    8.1998    4.1681   21.9318 O   0  0  0  0  0  0  0  0  0  0  0  0
   12.7093   -1.6697   21.6985 O   0  0  0  0  0  0  0  0  0  0  0  0
    8.8855   -1.3057   24.1323 H   0  0  0  0  0  0  0  0  0  0  0  0
   10.4153   -2.5460   22.6179 H   0  0  0  0  0  0  0  0  0  0  0  0
   13.1837    0.7513   22.6107 H   0  0  0  0  0  0  0  0  0  0  0  0
    9.9407    3.2856   25.7704 H   0  0  0  0  0  0  0  0  0  0  0  0
   14.4845   -1.6907   20.6417 H   0  0  0  0  0  0  0  0  0  0  0  0
   14.5115   -0.7847   22.1866 H   0  0  0  0  0  0  0  0  0  0  0  0
   13.6735   -0.1076   20.7654 H   0  0  0  0  0  0  0  0  0  0  0  0
   13.5036    2.8219   24.3709 H   0  0  0  0  0  0  0  0  0  0  0  0
   12.4872    4.0558   25.0889 H   0  0  0  0  0  0  0  0  0  0  0  0
    9.5780    7.4925   23.4445 H   0  0  0  0  0  0  0  0  0  0  0  0
    9.5167    6.4329   22.0293 H   0  0  0  0  0  0  0  0  0  0  0  0
    7.4266    6.2759   23.3322 H   0  0  0  0  0  0  0  0  0  0  0  0
    8.2922    5.8847   24.7997 H   0  0  0  0  0  0  0  0  0  0  0  0
   13.3185    4.7895   22.8710 H   0  0  0  0  0  0  0  0  0  0  0  0
   12.6053    3.3702   22.0827 H   0  0  0  0  0  0  0  0  0  0  0  0
    9.1051    3.7447   23.7222 H   0  0  0  0  0  0  0  0  0  0  0  0
    7.3268    3.8339   23.7546 H   0  0  0  0  0  0  0  0  0  0  0  0
    8.6589    1.1600   25.4802 H   0  0  0  0  0  0  0  0  0  0  0  0
   10.6853    4.5675   21.9364 H   0  0  0  0  0  0  0  0  0  0  0  0
    8.1425    3.2193   21.7344 H   0  0  0  0  0  0  0  0  0  0  0  0
  1  2  2  0  0  0  0
  1  7  1  0  0  0  0
  2  8  1  0  0  0  0
  3  5  1  0  0  0  0
  3  8  2  0  0  0  0
  4  6  2  0  0  0  0
  4 16  1  0  0  0  0
  5  6  1  0  0  0  0
  5  7  2  0  0  0  0
  6 11  1  0  0  0  0
  7 16  1  0  0  0  0
  8 20  1  0  0  0  0
  9 12  1  0  0  0  0
  9 17  1  0  0  0  0
  9 18  2  0  0  0  0
 10 20  1  0  0  0  0
 11 14  1  0  0  0  0
 12 13  1  0  0  0  0
 13 15  1  0  0  0  0
 14 17  1  0  0  0  0
 15 19  1  0  0  0  0
  1 21  1  0  0  0  0
  2 22  1  0  0  0  0
  3 23  1  0  0  0  0
  4 24  1  0  0  0  0
 10 25  1  0  0  0  0
 10 26  1  0  0  0  0
 10 27  1  0  0  0  0
 11 28  1  0  0  0  0
 11 29  1  0  0  0  0
 12 30  1  0  0  0  0
 12 31  1  0  0  0  0
 13 32  1  0  0  0  0
 13 33  1  0  0  0  0
 14 34  1  0  0  0  0
 14 35  1  0  0  0  0
 15 36  1  0  0  0  0
 15 37  1  0  0  0  0
 16 38  1  0  0  0  0
 17 39  1  0  0  0  0
 19 40  1  0  0  0  0
M  END
> <Hybrid2>
-7.515858

$$$$
s_22____15506616____16890190
  -OEChem-03222023573D

 39 40  0     1  0  0  0  0  0999 V2000
   13.3482   -0.0927   22.2285 C   0  0  0  0  0  0  0  0  0  0  0  0
   13.1537    1.1658   22.8092 C   0  0  0  0  0  0  0  0  0  0  0  0
   12.3310   -1.0451   22.2329 C   0  0  0  0  0  0  0  0  0  0  0  0
   10.0866    2.3072   24.4372 C   0  0  0  0  0  0  0  0  0  0  0  0
   11.9112    1.4642   23.4029 C   0  0  0  0  0  0  0  0  0  0  0  0
   11.3774    2.6048   24.0654 C   0  0  0  0  0  0  0  0  0  0  0  0
   10.9101    0.4905   23.3925 C   0  0  0  0  0  0  0  0  0  0  0  0
   11.0903   -0.7718   22.8158 C   0  0  0  0  0  0  0  0  0  0  0  0
    9.9558    5.8797   23.2905 C   0  0  0  0  0  0  0  0  0  0  0  0
    6.9307    5.1949   24.0314 C   0  0  0  0  0  0  0  0  0  0  0  0
   10.0632   -2.6095   23.9220 C   0  0  0  0  0  0  0  0  0  0  0  0
   12.0895    3.9105   24.3206 C   0  0  0  0  0  0  0  0  0  0  0  0
    8.6896    6.1281   22.4876 C   0  0  0  0  0  0  0  0  0  0  0  0
   12.1866    4.7891   23.0758 C   0  0  0  0  0  0  0  0  0  0  0  0
    7.6429    5.0415   22.6999 C   0  0  1  0  0  0  0  0  0  0  0  0
    9.8139    1.0297   24.0272 N   0  0  0  0  0  0  0  0  0  0  0  0
   10.8900    5.1620   22.5576 N   0  0  0  0  0  0  0  0  0  0  0  0
   10.1111    6.2773   24.4419 O   0  0  0  0  0  0  0  0  0  0  0  0
   10.1037   -1.7170   22.8126 O   0  0  0  0  0  0  0  0  0  0  0  0
    8.2724    3.8320   22.7015 F   0  0  0  0  0  0  0  0  0  0  0  0
   14.3047   -0.3289   21.7698 H   0  0  0  0  0  0  0  0  0  0  0  0
   13.9569    1.8972   22.7980 H   0  0  0  0  0  0  0  0  0  0  0  0
   12.5103   -2.0145   21.7738 H   0  0  0  0  0  0  0  0  0  0  0  0
    9.3376    2.8884   24.9565 H   0  0  0  0  0  0  0  0  0  0  0  0
    7.6593    5.2069   24.8484 H   0  0  0  0  0  0  0  0  0  0  0  0
    6.2257    4.3761   24.2034 H   0  0  0  0  0  0  0  0  0  0  0  0
    6.3863    6.1439   24.0743 H   0  0  0  0  0  0  0  0  0  0  0  0
    9.2339   -3.3100   23.7971 H   0  0  0  0  0  0  0  0  0  0  0  0
    9.9362   -2.0388   24.8454 H   0  0  0  0  0  0  0  0  0  0  0  0
   11.0030   -3.1651   23.9657 H   0  0  0  0  0  0  0  0  0  0  0  0
   13.0996    3.6899   24.6884 H   0  0  0  0  0  0  0  0  0  0  0  0
   11.5862    4.4558   25.1293 H   0  0  0  0  0  0  0  0  0  0  0  0
    8.9660    6.1855   21.4283 H   0  0  0  0  0  0  0  0  0  0  0  0
    8.2853    7.0999   22.7955 H   0  0  0  0  0  0  0  0  0  0  0  0
   12.7100    5.7199   23.3161 H   0  0  0  0  0  0  0  0  0  0  0  0
   12.7330    4.2886   22.2696 H   0  0  0  0  0  0  0  0  0  0  0  0
    6.9116    5.0299   21.8848 H   0  0  0  0  0  0  0  0  0  0  0  0
    8.9353    0.5509   24.1687 H   0  0  0  0  0  0  0  0  0  0  0  0
   10.6583    4.8653   21.6141 H   0  0  0  0  0  0  0  0  0  0  0  0
  1  2  1  0  0  0  0
  1  3  2  0  0  0  0
  2  5  2  0  0  0  0
  3  8  1  0  0  0  0
  4  6  2  0  0  0  0
  4 16  1  0  0  0  0
  5  6  1  0  0  0  0
  5  7  1  0  0  0  0
  6 12  1  0  0  0  0
  7  8  2  0  0  0  0
  7 16  1  0  0  0  0
  8 19  1  0  0  0  0
  9 13  1  0  0  0  0
  9 17  1  0  0  0  0
  9 18  2  0  0  0  0
 10 15  1  0  0  0  0
 11 19  1  0  0  0  0
 12 14  1  0  0  0  0
 13 15  1  0  0  0  0
 14 17  1  0  0  0  0
 15 20  1  0  0  0  0
  1 21  1  0  0  0  0
  2 22  1  0  0  0  0
  3 23  1  0  0  0  0
  4 24  1  0  0  0  0
 10 25  1  0  0  0  0
 10 26  1  0  0  0  0
 10 27  1  0  0  0  0
 11 28  1  0  0  0  0
 11 29  1  0  0  0  0
 11 30  1  0  0  0  0
 12 31  1  0  0  0  0
 12 32  1  0  0  0  0
 13 33  1  0  0  0  0
 13 34  1  0  0  0  0
 14 35  1  0  0  0  0
 14 36  1  0  0  0  0
 15 37  1  0  0  0  0
 16 38  1  0  0  0  0
 17 39  1  0  0  0  0
M  END
> <Hybrid2>
-9.423659

$$$$
s_512____158561____13025528
  -OEChem-03222023583D

 44 45  0     0  0  0  0  0  0999 V2000
    9.8415   -2.2506   23.9913 C   0  0  0  0  0  0  0  0  0  0  0  0
    9.7832   -1.1534   24.8553 C   0  0  0  0  0  0  0  0  0  0  0  0
   10.6469   -2.2278   22.8544 C   0  0  0  0  0  0  0  0  0  0  0  0
   11.5759    1.9748   24.5130 C   0  0  0  0  0  0  0  0  0  0  0  0
   11.3780    0.0155   23.4033 C   0  0  0  0  0  0  0  0  0  0  0  0
   12.0117    1.2896   23.4023 C   0  0  0  0  0  0  0  0  0  0  0  0
   10.5619   -0.0356   24.5354 C   0  0  0  0  0  0  0  0  0  0  0  0
   11.4206   -1.1027   22.5470 C   0  0  0  0  0  0  0  0  0  0  0  0
   11.5013    4.9472   23.2852 C   0  0  0  0  0  0  0  0  0  0  0  0
    7.5143    5.0278   23.7371 C   0  0  0  0  0  0  0  0  0  0  0  0
    9.1990    4.8891   25.5990 C   0  0  0  0  0  0  0  0  0  0  0  0
   13.5286   -1.6029   21.5661 C   0  0  0  0  0  0  0  0  0  0  0  0
   12.9661    1.8029   22.3983 C   0  0  0  0  0  0  0  0  0  0  0  0
   13.2163    3.3191   22.4884 C   0  0  0  0  0  0  0  0  0  0  0  0
    9.5902    6.4970   23.6722 C   0  0  0  0  0  0  0  0  0  0  0  0
    8.5492    5.8001   24.5566 C   0  0  0  0  0  0  0  0  0  0  0  0
   10.7020    1.1673   25.1903 N   0  0  0  0  0  0  0  0  0  0  0  0
   12.0074    4.0793   22.3163 N   0  0  0  0  0  0  0  0  0  0  0  0
   10.3217    5.5533   22.8602 N   0  0  0  0  0  0  0  0  0  0  0  0
   12.0312    5.1512   24.3766 O   0  0  0  0  0  0  0  0  0  0  0  0
   12.1992   -1.1174   21.4200 O   0  0  0  0  0  0  0  0  0  0  0  0
    9.2487   -3.1349   24.2109 H   0  0  0  0  0  0  0  0  0  0  0  0
    9.1559   -1.1727   25.7401 H   0  0  0  0  0  0  0  0  0  0  0  0
   10.6706   -3.0971   22.2014 H   0  0  0  0  0  0  0  0  0  0  0  0
   11.8079    2.9638   24.8830 H   0  0  0  0  0  0  0  0  0  0  0  0
    7.9724    4.2172   23.1613 H   0  0  0  0  0  0  0  0  0  0  0  0
    6.7599    4.5819   24.3943 H   0  0  0  0  0  0  0  0  0  0  0  0
    6.9959    5.6931   23.0386 H   0  0  0  0  0  0  0  0  0  0  0  0
    9.7581    4.0717   25.1318 H   0  0  0  0  0  0  0  0  0  0  0  0
    8.4380    4.4436   26.2488 H   0  0  0  0  0  0  0  0  0  0  0  0
    9.8890    5.4551   26.2338 H   0  0  0  0  0  0  0  0  0  0  0  0
   14.0401   -1.5626   20.6013 H   0  0  0  0  0  0  0  0  0  0  0  0
   13.5033   -2.6316   21.9345 H   0  0  0  0  0  0  0  0  0  0  0  0
   14.0599   -0.9738   22.2842 H   0  0  0  0  0  0  0  0  0  0  0  0
   12.5996    1.5794   21.3770 H   0  0  0  0  0  0  0  0  0  0  0  0
   13.9407    1.2787   22.4643 H   0  0  0  0  0  0  0  0  0  0  0  0
   13.6241    3.5919   23.4669 H   0  0  0  0  0  0  0  0  0  0  0  0
   13.9245    3.6464   21.7202 H   0  0  0  0  0  0  0  0  0  0  0  0
    9.1089    7.2244   23.0095 H   0  0  0  0  0  0  0  0  0  0  0  0
   10.3094    7.0407   24.2947 H   0  0  0  0  0  0  0  0  0  0  0  0
    8.0115    6.5885   25.0996 H   0  0  0  0  0  0  0  0  0  0  0  0
   10.2269    1.4175   26.0465 H   0  0  0  0  0  0  0  0  0  0  0  0
   11.4944    3.9792   21.4425 H   0  0  0  0  0  0  0  0  0  0  0  0
    9.9825    5.3594   21.9231 H   0  0  0  0  0  0  0  0  0  0  0  0
  1  2  1  0  0  0  0
  1  3  2  0  0  0  0
  2  7  2  0  0  0  0
  3  8  1  0  0  0  0
  4  6  2  0  0  0  0
  4 17  1  0  0  0  0
  5  6  1  0  0  0  0
  5  7  1  0  0  0  0
  5  8  2  0  0  0  0
  6 13  1  0  0  0  0
  7 17  1  0  0  0  0
  8 21  1  0  0  0  0
  9 18  1  0  0  0  0
  9 19  1  0  0  0  0
  9 20  2  0  0  0  0
 10 16  1  0  0  0  0
 11 16  1  0  0  0  0
 12 21  1  0  0  0  0
 13 14  1  0  0  0  0
 14 18  1  0  0  0  0
 15 16  1  0  0  0  0
 15 19  1  0  0  0  0
  1 22  1  0  0  0  0
  2 23  1  0  0  0  0
  3 24  1  0  0  0  0
  4 25  1  0  0  0  0
 10 26  1  0  0  0  0
 10 27  1  0  0  0  0
 10 28  1  0  0  0  0
 11 29  1  0  0  0  0
 11 30  1  0  0  0  0
 11 31  1  0  0  0  0
 12 32  1  0  0  0  0
 12 33  1  0  0  0  0
 12 34  1  0  0  0  0
 13 35  1  0  0  0  0
 13 36  1  0  0  0  0
 14 37  1  0  0  0  0
 14 38  1  0  0  0  0
 15 39  1  0  0  0  0
 15 40  1  0  0  0  0
 16 41  1  0  0  0  0
 17 42  1  0  0  0  0
 18 43  1  0  0  0  0
 19 44  1  0  0  0  0
M  END
> <Hybrid2>
-9.975311

$$$$
s_272164____14971852____9387680
  -OEChem-03232000013D

 44 45  0     0  0  0  0  0  0999 V2000
    9.6622   -2.2240   23.9660 C   0  0  0  0  0  0  0  0  0  0  0  0
    9.7127   -1.3355   25.0439 C   0  0  0  0  0  0  0  0  0  0  0  0
   10.3596   -1.9647   22.7878 C   0  0  0  0  0  0  0  0  0  0  0  0
   11.5475    1.7831   25.2001 C   0  0  0  0  0  0  0  0  0  0  0  0
   11.1968    0.1060   23.7257 C   0  0  0  0  0  0  0  0  0  0  0  0
   11.8608    1.3473   23.9333 C   0  0  0  0  0  0  0  0  0  0  0  0
   10.4876   -0.1799   24.8943 C   0  0  0  0  0  0  0  0  0  0  0  0
   11.1309   -0.8046   22.6525 C   0  0  0  0  0  0  0  0  0  0  0  0
   11.5244    4.8810   23.0948 C   0  0  0  0  0  0  0  0  0  0  0  0
   13.8317   -1.6455   22.1641 C   0  0  0  0  0  0  0  0  0  0  0  0
   10.6361    6.5287   24.7604 C   0  0  0  0  0  0  0  0  0  0  0  0
   12.7503    2.0720   22.9531 C   0  0  0  0  0  0  0  0  0  0  0  0
   11.9681    2.7773   21.8479 C   0  0  0  0  0  0  0  0  0  0  0  0
    9.2853    5.9648   22.7673 C   0  0  0  0  0  0  0  0  0  0  0  0
   12.7622   -1.5611   21.0961 C   0  0  0  0  0  0  0  0  0  0  0  0
    8.2052    4.9922   23.1903 C   0  0  0  0  0  0  0  0  0  0  0  0
   10.7190    0.8552   25.7720 N   0  0  0  0  0  0  0  0  0  0  0  0
   11.0712    3.7879   22.3614 N   0  0  0  0  0  0  0  0  0  0  0  0
   10.5163    5.7622   23.5272 N   0  0  0  0  0  0  0  0  0  0  0  0
   12.7210    5.0492   23.3485 O   0  0  0  0  0  0  0  0  0  0  0  0
   11.8015   -0.5838   21.4785 O   0  0  0  0  0  0  0  0  0  0  0  0
    8.6403    3.7228   22.9663 F   0  0  0  0  0  0  0  0  0  0  0  0
    9.0693   -3.1312   24.0496 H   0  0  0  0  0  0  0  0  0  0  0  0
    9.1694   -1.5389   25.9606 H   0  0  0  0  0  0  0  0  0  0  0  0
   10.3002   -2.6752   21.9668 H   0  0  0  0  0  0  0  0  0  0  0  0
   11.8385    2.6693   25.7467 H   0  0  0  0  0  0  0  0  0  0  0  0
   14.3401   -0.6848   22.2842 H   0  0  0  0  0  0  0  0  0  0  0  0
   13.3954   -1.9372   23.1251 H   0  0  0  0  0  0  0  0  0  0  0  0
   14.5742   -2.4083   21.9071 H   0  0  0  0  0  0  0  0  0  0  0  0
   11.1170    7.4948   24.5471 H   0  0  0  0  0  0  0  0  0  0  0  0
    9.6353    6.7028   25.1825 H   0  0  0  0  0  0  0  0  0  0  0  0
   11.2463    5.9672   25.4832 H   0  0  0  0  0  0  0  0  0  0  0  0
   13.4376    1.3444   22.5032 H   0  0  0  0  0  0  0  0  0  0  0  0
   13.3818    2.7929   23.4879 H   0  0  0  0  0  0  0  0  0  0  0  0
   12.6591    3.2849   21.1676 H   0  0  0  0  0  0  0  0  0  0  0  0
   11.3698    2.0713   21.2627 H   0  0  0  0  0  0  0  0  0  0  0  0
    8.9671    6.9967   22.9410 H   0  0  0  0  0  0  0  0  0  0  0  0
    9.5278    5.8358   21.7088 H   0  0  0  0  0  0  0  0  0  0  0  0
   12.2578   -2.5251   20.9810 H   0  0  0  0  0  0  0  0  0  0  0  0
   13.1997   -1.2687   20.1368 H   0  0  0  0  0  0  0  0  0  0  0  0
    7.2788    5.1363   22.6264 H   0  0  0  0  0  0  0  0  0  0  0  0
    7.9926    5.0860   24.2588 H   0  0  0  0  0  0  0  0  0  0  0  0
   10.3317    0.9204   26.7032 H   0  0  0  0  0  0  0  0  0  0  0  0
   10.0784    3.6976   22.1814 H   0  0  0  0  0  0  0  0  0  0  0  0
  1  2  1  0  0  0  0
  1  3  2  0  0  0  0
  2  7  2  0  0  0  0
  3  8  1  0  0  0  0
  4  6  2  0  0  0  0
  4 17  1  0  0  0  0
  5  6  1  0  0  0  0
  5  7  1  0  0  0  0
  5  8  2  0  0  0  0
  6 12  1  0  0  0  0
  7 17  1  0  0  0  0
  8 21  1  0  0  0  0
  9 18  1  0  0  0  0
  9 19  1  0  0  0  0
  9 20  2  0  0  0  0
 10 15  1  0  0  0  0
 11 19  1  0  0  0  0
 12 13  1  0  0  0  0
 13 18  1  0  0  0  0
 14 16  1  0  0  0  0
 14 19  1  0  0  0  0
 15 21  1  0  0  0  0
 16 22  1  0  0  0  0
  1 23  1  0  0  0  0
  2 24  1  0  0  0  0
  3 25  1  0  0  0  0
  4 26  1  0  0  0  0
 10 27  1  0  0  0  0
 10 28  1  0  0  0  0
 10 29  1  0  0  0  0
 11 30  1  0  0  0  0
 11 31  1  0  0  0  0
 11 32  1  0  0  0  0
 12 33  1  0  0  0  0
 12 34  1  0  0  0  0
 13 35  1  0  0  0  0
 13 36  1  0  0  0  0
 14 37  1  0  0  0  0
 14 38  1  0  0  0  0
 15 39  1  0  0  0  0
 15 40  1  0  0  0  0
 16 41  1  0  0  0  0
 16 42  1  0  0  0  0
 17 43  1  0  0  0  0
 18 44  1  0  0  0  0
M  END
> <Hybrid2>
-6.184815

$$$$
s_270062____12346470____8147258
  -OEChem-03232000013D

 29 30  0     0  0  0  0  0  0999 V2000
   13.4729   -0.4740   21.9076 C   0  0  0  0  0  0  0  0  0  0  0  0
   13.4486    0.8961   22.1925 C   0  0  0  0  0  0  0  0  0  0  0  0
   12.4351   -1.3069   22.3210 C   0  0  0  0  0  0  0  0  0  0  0  0
   10.8043    2.6447   24.0120 C   0  0  0  0  0  0  0  0  0  0  0  0
   12.3576    1.4304   22.9063 C   0  0  0  0  0  0  0  0  0  0  0  0
   12.0112    2.7348   23.3576 C   0  0  0  0  0  0  0  0  0  0  0  0
   11.3319    0.5720   23.3080 C   0  0  0  0  0  0  0  0  0  0  0  0
   11.3427   -0.7995   23.0304 C   0  0  0  0  0  0  0  0  0  0  0  0
    9.7112    6.0667   23.0642 C   0  0  0  0  0  0  0  0  0  0  0  0
   12.7981    3.9695   23.1639 C   0  0  0  0  0  0  0  0  0  0  0  0
    8.6219    6.1023   22.0229 C   0  0  0  0  0  0  0  0  0  0  0  0
   12.0207    5.2632   23.4674 C   0  0  0  0  0  0  0  0  0  0  0  0
   10.4027    1.3363   23.9771 N   0  0  0  0  0  0  0  0  0  0  0  0
   10.8521    5.4002   22.6400 N   0  0  0  0  0  0  0  0  0  0  0  0
    9.5750    6.5999   24.1640 O   0  0  0  0  0  0  0  0  0  0  0  0
   10.0699   -1.8365   23.5336 Cl  0  0  0  0  0  0  0  0  0  0  0  0
    7.6062    4.6697   22.2482 Cl  0  0  0  0  0  0  0  0  0  0  0  0
   14.3121   -0.8904   21.3567 H   0  0  0  0  0  0  0  0  0  0  0  0
   14.2653    1.5325   21.8640 H   0  0  0  0  0  0  0  0  0  0  0  0
   12.4878   -2.3668   22.0818 H   0  0  0  0  0  0  0  0  0  0  0  0
   10.1945    3.3927   24.4998 H   0  0  0  0  0  0  0  0  0  0  0  0
   13.1609    4.0290   22.1188 H   0  0  0  0  0  0  0  0  0  0  0  0
   13.7215    3.9595   23.7777 H   0  0  0  0  0  0  0  0  0  0  0  0
    7.9938    6.9930   22.1026 H   0  0  0  0  0  0  0  0  0  0  0  0
    9.0708    6.0699   21.0263 H   0  0  0  0  0  0  0  0  0  0  0  0
   11.6757    5.2794   24.5060 H   0  0  0  0  0  0  0  0  0  0  0  0
   12.6477    6.1456   23.3022 H   0  0  0  0  0  0  0  0  0  0  0  0
    9.5479    0.9819   24.3834 H   0  0  0  0  0  0  0  0  0  0  0  0
   10.8624    4.9924   21.7071 H   0  0  0  0  0  0  0  0  0  0  0  0
  1  2  1  0  0  0  0
  1  3  2  0  0  0  0
  2  5  2  0  0  0  0
  3  8  1  0  0  0  0
  4  6  2  0  0  0  0
  4 13  1  0  0  0  0
  5  6  1  0  0  0  0
  5  7  1  0  0  0  0
  6 10  1  0  0  0  0
  7  8  2  0  0  0  0
  7 13  1  0  0  0  0
  8 16  1  0  0  0  0
  9 11  1  0  0  0  0
  9 14  1  0  0  0  0
  9 15  2  0  0  0  0
 10 12  1  0  0  0  0
 11 17  1  0  0  0  0
 12 14  1  0  0  0  0
  1 18  1  0  0  0  0
  2 19  1  0  0  0  0
  3 20  1  0  0  0  0
  4 21  1  0  0  0  0
 10 22  1  0  0  0  0
 10 23  1  0  0  0  0
 11 24  1  0  0  0  0
 11 25  1  0  0  0  0
 12 26  1  0  0  0  0
 12 27  1  0  0  0  0
 13 28  1  0  0  0  0
 14 29  1  0  0  0  0
M  END
> <Hybrid2>
-10.115155

$$$$
s_270062____13025552____12187078
  -OEChem-03232000013D

 42 43  0     0  0  0  0  0  0999 V2000
   10.4003   -2.2173   23.9367 C   0  0  0  0  0  0  0  0  0  0  0  0
   10.3348   -1.1680   24.8578 C   0  0  0  0  0  0  0  0  0  0  0  0
   11.1003   -2.0800   22.7396 C   0  0  0  0  0  0  0  0  0  0  0  0
   11.8514    2.1044   24.5294 C   0  0  0  0  0  0  0  0  0  0  0  0
   11.7058    0.1872   23.3407 C   0  0  0  0  0  0  0  0  0  0  0  0
   12.2396    1.5063   23.3528 C   0  0  0  0  0  0  0  0  0  0  0  0
   10.9969    0.0211   24.5324 C   0  0  0  0  0  0  0  0  0  0  0  0
   11.7579   -0.8845   22.4275 C   0  0  0  0  0  0  0  0  0  0  0  0
   11.4747    5.0799   23.5113 C   0  0  0  0  0  0  0  0  0  0  0  0
   10.1354    6.6534   22.0835 C   0  0  0  0  0  0  0  0  0  0  0  0
    9.7211    6.5734   24.5364 C   0  0  0  0  0  0  0  0  0  0  0  0
   13.8046   -1.1719   21.2510 C   0  0  0  0  0  0  0  0  0  0  0  0
   13.0800    2.1515   22.2783 C   0  0  0  0  0  0  0  0  0  0  0  0
   13.2050    3.6637   22.4477 C   0  0  0  0  0  0  0  0  0  0  0  0
    8.9981    4.6420   23.0626 C   0  0  0  0  0  0  0  0  0  0  0  0
   10.0813    5.7162   23.3058 C   0  0  0  0  0  0  0  0  0  0  0  0
   11.1025    1.2007   25.2344 N   0  0  0  0  0  0  0  0  0  0  0  0
   11.9244    4.3304   22.4345 N   0  0  0  0  0  0  0  0  0  0  0  0
   12.1203    5.2350   24.5485 O   0  0  0  0  0  0  0  0  0  0  0  0
   12.4349   -0.7870   21.2406 O   0  0  0  0  0  0  0  0  0  0  0  0
    8.8315    3.4914   24.4167 Cl  0  0  0  0  0  0  0  0  0  0  0  0
    9.8967   -3.1547   24.1589 H   0  0  0  0  0  0  0  0  0  0  0  0
    9.7896   -1.2766   25.7894 H   0  0  0  0  0  0  0  0  0  0  0  0
   11.1325   -2.9145   22.0431 H   0  0  0  0  0  0  0  0  0  0  0  0
   12.0397    3.0910   24.9293 H   0  0  0  0  0  0  0  0  0  0  0  0
    9.1628    7.1258   21.9038 H   0  0  0  0  0  0  0  0  0  0  0  0
   10.4120    6.1187   21.1682 H   0  0  0  0  0  0  0  0  0  0  0  0
   10.8751    7.4492   22.2300 H   0  0  0  0  0  0  0  0  0  0  0  0
    8.7348    7.0377   24.4169 H   0  0  0  0  0  0  0  0  0  0  0  0
    9.6937    5.9665   25.4484 H   0  0  0  0  0  0  0  0  0  0  0  0
   10.4373    7.3867   24.6957 H   0  0  0  0  0  0  0  0  0  0  0  0
   14.2263   -1.0480   20.2505 H   0  0  0  0  0  0  0  0  0  0  0  0
   13.8886   -2.2148   21.5668 H   0  0  0  0  0  0  0  0  0  0  0  0
   14.3474   -0.5355   21.9540 H   0  0  0  0  0  0  0  0  0  0  0  0
   12.6267    1.9322   21.3033 H   0  0  0  0  0  0  0  0  0  0  0  0
   14.0756    1.6901   22.2588 H   0  0  0  0  0  0  0  0  0  0  0  0
   13.6707    3.8937   23.4112 H   0  0  0  0  0  0  0  0  0  0  0  0
   13.8177    4.1095   21.6573 H   0  0  0  0  0  0  0  0  0  0  0  0
    8.0169    5.1072   22.9188 H   0  0  0  0  0  0  0  0  0  0  0  0
    9.2088    4.0451   22.1698 H   0  0  0  0  0  0  0  0  0  0  0  0
   10.6858    1.3739   26.1387 H   0  0  0  0  0  0  0  0  0  0  0  0
   11.3505    4.2346   21.6033 H   0  0  0  0  0  0  0  0  0  0  0  0
  1  2  1  0  0  0  0
  1  3  2  0  0  0  0
  2  7  2  0  0  0  0
  3  8  1  0  0  0  0
  4  6  2  0  0  0  0
  4 17  1  0  0  0  0
  5  6  1  0  0  0  0
  5  7  1  0  0  0  0
  5  8  2  0  0  0  0
  6 13  1  0  0  0  0
  7 17  1  0  0  0  0
  8 20  1  0  0  0  0
  9 16  1  0  0  0  0
  9 18  1  0  0  0  0
  9 19  2  0  0  0  0
 10 16  1  0  0  0  0
 11 16  1  0  0  0  0
 12 20  1  0  0  0  0
 13 14  1  0  0  0  0
 14 18  1  0  0  0  0
 15 16  1  0  0  0  0
 15 21  1  0  0  0  0
  1 22  1  0  0  0  0
  2 23  1  0  0  0  0
  3 24  1  0  0  0  0
  4 25  1  0  0  0  0
 10 26  1  0  0  0  0
 10 27  1  0  0  0  0
 10 28  1  0  0  0  0
 11 29  1  0  0  0  0
 11 30  1  0  0  0  0
 11 31  1  0  0  0  0
 12 32  1  0  0  0  0
 12 33  1  0  0  0  0
 12 34  1  0  0  0  0
 13 35  1  0  0  0  0
 13 36  1  0  0  0  0
 14 37  1  0  0  0  0
 14 38  1  0  0  0  0
 15 39  1  0  0  0  0
 15 40  1  0  0  0  0
 17 41  1  0  0  0  0
 18 42  1  0  0  0  0
M  END
> <Hybrid2>
-8.270696

$$$$
s_527a____12637914____156031
  -OEChem-03232000013D

 35 36  0     0  0  0  0  0  0999 V2000
   13.1018    1.0293   22.8712 C   0  0  0  0  0  0  0  0  0  0  0  0
   13.0761   -0.3610   22.7120 C   0  0  0  0  0  0  0  0  0  0  0  0
   10.6927   -0.4242   23.1813 C   0  0  0  0  0  0  0  0  0  0  0  0
   10.2263    3.1305   23.6942 C   0  0  0  0  0  0  0  0  0  0  0  0
   11.9081    1.7068   23.1900 C   0  0  0  0  0  0  0  0  0  0  0  0
   11.5728    3.0708   23.4182 C   0  0  0  0  0  0  0  0  0  0  0  0
   10.7335    0.9659   23.3374 C   0  0  0  0  0  0  0  0  0  0  0  0
   11.8890   -1.0745   22.8651 C   0  0  0  0  0  0  0  0  0  0  0  0
    9.4430    6.4469   23.3978 C   0  0  0  0  0  0  0  0  0  0  0  0
    8.2261    6.3929   22.5349 C   0  0  0  0  0  0  0  0  0  0  0  0
   13.7010    4.1837   24.3840 C   0  0  0  0  0  0  0  0  0  0  0  0
   13.1829    4.3299   21.9636 C   0  0  0  0  0  0  0  0  0  0  0  0
   11.7732    5.6049   23.6064 C   0  0  0  0  0  0  0  0  0  0  0  0
   12.4961    4.2228   23.3705 C   0  0  0  0  0  0  0  0  0  0  0  0
    9.7288    1.8560   23.6434 N   0  0  0  0  0  0  0  0  0  0  0  0
   10.5050    5.6922   22.9293 N   0  0  0  0  0  0  0  0  0  0  0  0
    9.4300    7.1244   24.4188 O   0  0  0  0  0  0  0  0  0  0  0  0
   11.8932   -2.4054   22.7070 F   0  0  0  0  0  0  0  0  0  0  0  0
   14.0355    1.5711   22.7493 H   0  0  0  0  0  0  0  0  0  0  0  0
   13.9936   -0.8886   22.4655 H   0  0  0  0  0  0  0  0  0  0  0  0
    9.7693   -0.9807   23.2999 H   0  0  0  0  0  0  0  0  0  0  0  0
    9.5763    3.9639   23.9221 H   0  0  0  0  0  0  0  0  0  0  0  0
    7.5452    5.5745   22.8190 H   0  0  0  0  0  0  0  0  0  0  0  0
    7.6215    7.3115   22.6026 H   0  0  0  0  0  0  0  0  0  0  0  0
    8.4171    6.2506   21.4592 H   0  0  0  0  0  0  0  0  0  0  0  0
   14.3329    5.0726   24.2814 H   0  0  0  0  0  0  0  0  0  0  0  0
   13.3320    4.1547   25.4162 H   0  0  0  0  0  0  0  0  0  0  0  0
   14.3483    3.3088   24.2501 H   0  0  0  0  0  0  0  0  0  0  0  0
   13.8693    5.1830   21.9220 H   0  0  0  0  0  0  0  0  0  0  0  0
   12.4242    4.4810   21.1864 H   0  0  0  0  0  0  0  0  0  0  0  0
   13.7623    3.4386   21.6954 H   0  0  0  0  0  0  0  0  0  0  0  0
   11.5808    5.8109   24.6657 H   0  0  0  0  0  0  0  0  0  0  0  0
   12.3866    6.4302   23.2283 H   0  0  0  0  0  0  0  0  0  0  0  0
    8.7636    1.6045   23.8065 H   0  0  0  0  0  0  0  0  0  0  0  0
   10.3833    5.1727   22.0624 H   0  0  0  0  0  0  0  0  0  0  0  0
  1  2  1  0  0  0  0
  1  5  2  0  0  0  0
  2  8  2  0  0  0  0
  3  7  2  0  0  0  0
  3  8  1  0  0  0  0
  4  6  2  0  0  0  0
  4 15  1  0  0  0  0
  5  6  1  0  0  0  0
  5  7  1  0  0  0  0
  6 14  1  0  0  0  0
  7 15  1  0  0  0  0
  8 18  1  0  0  0  0
  9 10  1  0  0  0  0
  9 16  1  0  0  0  0
  9 17  2  0  0  0  0
 11 14  1  0  0  0  0
 12 14  1  0  0  0  0
 13 14  1  0  0  0  0
 13 16  1  0  0  0  0
  1 19  1  0  0  0  0
  2 20  1  0  0  0  0
  3 21  1  0  0  0  0
  4 22  1  0  0  0  0
 10 23  1  0  0  0  0
 10 24  1  0  0  0  0
 10 25  1  0  0  0  0
 11 26  1  0  0  0  0
 11 27  1  0  0  0  0
 11 28  1  0  0  0  0
 12 29  1  0  0  0  0
 12 30  1  0  0  0  0
 12 31  1  0  0  0  0
 13 32  1  0  0  0  0
 13 33  1  0  0  0  0
 15 34  1  0  0  0  0
 16 35  1  0  0  0  0
M  END
> <Hybrid2>
-8.818973

$$$$
s_240690b____17027970____7368582
  -OEChem-03232000033D

 42 43  0     0  0  0  0  0  0999 V2000
    9.7560   -1.9486   23.3420 C   0  0  0  0  0  0  0  0  0  0  0  0
    9.2711   -0.9930   24.2396 C   0  0  0  0  0  0  0  0  0  0  0  0
   10.8528   -1.6770   22.5264 C   0  0  0  0  0  0  0  0  0  0  0  0
   10.5770    2.3428   24.7716 C   0  0  0  0  0  0  0  0  0  0  0  0
   11.0282    0.5421   23.4820 C   0  0  0  0  0  0  0  0  0  0  0  0
   11.4276    1.8706   23.7987 C   0  0  0  0  0  0  0  0  0  0  0  0
    9.9272    0.2421   24.2870 C   0  0  0  0  0  0  0  0  0  0  0  0
   11.4993   -0.4371   22.5848 C   0  0  0  0  0  0  0  0  0  0  0  0
   10.7647    5.8732   23.6501 C   0  0  0  0  0  0  0  0  0  0  0  0
   14.2238   -0.9462   23.3316 C   0  0  0  0  0  0  0  0  0  0  0  0
    8.0077    4.8245   24.2572 C   0  0  0  0  0  0  0  0  0  0  0  0
   12.5486    2.6244   23.2008 C   0  0  0  0  0  0  0  0  0  0  0  0
    9.5096    6.3357   22.9536 C   0  0  0  0  0  0  0  0  0  0  0  0
   12.5223    4.1334   23.5041 C   0  0  0  0  0  0  0  0  0  0  0  0
   13.6924   -1.0723   21.9197 C   0  0  0  0  0  0  0  0  0  0  0  0
    9.6757    1.3533   25.0597 N   0  0  0  0  0  0  0  0  0  0  0  0
   11.3191    4.7613   23.0277 N   0  0  0  0  0  0  0  0  0  0  0  0
    8.4833    5.2664   22.9174 N   0  3  0  0  0  0  0  0  0  0  0  0
   11.2262    6.4258   24.6450 O   0  0  0  0  0  0  0  0  0  0  0  0
   12.5736   -0.2068   21.7666 O   0  0  0  0  0  0  0  0  0  0  0  0
    9.2689   -2.9184   23.2803 H   0  0  0  0  0  0  0  0  0  0  0  0
    8.4173   -1.2061   24.8740 H   0  0  0  0  0  0  0  0  0  0  0  0
   11.2062   -2.4410   21.8380 H   0  0  0  0  0  0  0  0  0  0  0  0
   10.5308    3.2932   25.2850 H   0  0  0  0  0  0  0  0  0  0  0  0
   14.5447    0.0787   23.5377 H   0  0  0  0  0  0  0  0  0  0  0  0
   13.4565   -1.2296   24.0596 H   0  0  0  0  0  0  0  0  0  0  0  0
   15.0731   -1.6200   23.4858 H   0  0  0  0  0  0  0  0  0  0  0  0
    7.6157    5.7001   24.7779 H   0  0  0  0  0  0  0  0  0  0  0  0
    7.2275    4.0764   24.1047 H   0  0  0  0  0  0  0  0  0  0  0  0
    8.8601    4.3996   24.7908 H   0  0  0  0  0  0  0  0  0  0  0  0
   12.5460    2.4993   22.1001 H   0  0  0  0  0  0  0  0  0  0  0  0
   13.5269    2.2153   23.5242 H   0  0  0  0  0  0  0  0  0  0  0  0
    9.7253    6.6066   21.9163 H   0  0  0  0  0  0  0  0  0  0  0  0
    9.0699    7.1841   23.4853 H   0  0  0  0  0  0  0  0  0  0  0  0
   12.5691    4.3176   24.5820 H   0  0  0  0  0  0  0  0  0  0  0  0
   13.3695    4.6431   23.0335 H   0  0  0  0  0  0  0  0  0  0  0  0
   13.3732   -2.0996   21.7201 H   0  0  0  0  0  0  0  0  0  0  0  0
   14.4599   -0.7880   21.1937 H   0  0  0  0  0  0  0  0  0  0  0  0
    8.9320    1.4274   25.7401 H   0  0  0  0  0  0  0  0  0  0  0  0
   10.8485    4.3589   22.2191 H   0  0  0  0  0  0  0  0  0  0  0  0
    8.8577    4.4510   22.4103 H   0  0  0  0  0  0  0  0  0  0  0  0
    7.6744    5.5879   22.3654 H   0  0  0  0  0  0  0  0  0  0  0  0
  1  2  1  0  0  0  0
  1  3  2  0  0  0  0
  2  7  2  0  0  0  0
  3  8  1  0  0  0  0
  4  6  2  0  0  0  0
  4 16  1  0  0  0  0
  5  6  1  0  0  0  0
  5  7  1  0  0  0  0
  5  8  2  0  0  0  0
  6 12  1  0  0  0  0
  7 16  1  0  0  0  0
  8 20  1  0  0  0  0
  9 13  1  0  0  0  0
  9 17  1  0  0  0  0
  9 19  2  0  0  0  0
 10 15  1  0  0  0  0
 11 18  1  0  0  0  0
 12 14  1  0  0  0  0
 13 18  1  0  0  0  0
 14 17  1  0  0  0  0
 15 20  1  0  0  0  0
  1 21  1  0  0  0  0
  2 22  1  0  0  0  0
  3 23  1  0  0  0  0
  4 24  1  0  0  0  0
 10 25  1  0  0  0  0
 10 26  1  0  0  0  0
 10 27  1  0  0  0  0
 11 28  1  0  0  0  0
 11 29  1  0  0  0  0
 11 30  1  0  0  0  0
 12 31  1  0  0  0  0
 12 32  1  0  0  0  0
 13 33  1  0  0  0  0
 13 34  1  0  0  0  0
 14 35  1  0  0  0  0
 14 36  1  0  0  0  0
 15 37  1  0  0  0  0
 15 38  1  0  0  0  0
 16 39  1  0  0  0  0
 17 40  1  0  0  0  0
 18 41  1  0  0  0  0
 18 42  1  0  0  0  0
M  CHG  1  18   1
M  END
> <Hybrid2>
-7.384903

$$$$
s_22____2366540____7941800
  -OEChem-03232000043D

 30 31  0     0  0  0  0  0  0999 V2000
   12.3218    0.6142   22.7951 C   0  0  0  0  0  0  0  0  0  0  0  0
   12.0299   -0.7547   22.7956 C   0  0  0  0  0  0  0  0  0  0  0  0
   10.1239   -0.4020   24.2611 C   0  0  0  0  0  0  0  0  0  0  0  0
   10.4473    3.1904   24.5867 C   0  0  0  0  0  0  0  0  0  0  0  0
   11.5057    1.4912   23.5369 C   0  0  0  0  0  0  0  0  0  0  0  0
   11.5056    2.8970   23.7580 C   0  0  0  0  0  0  0  0  0  0  0  0
   10.4277    0.9640   24.2513 C   0  0  0  0  0  0  0  0  0  0  0  0
   10.9474   -1.2528   23.5180 C   0  0  0  0  0  0  0  0  0  0  0  0
    9.6342    6.0521   23.3545 C   0  0  0  0  0  0  0  0  0  0  0  0
   12.4645    3.8741   23.2035 C   0  0  0  0  0  0  0  0  0  0  0  0
    8.4609    6.2308   22.4148 C   0  0  0  0  0  0  0  0  0  0  0  0
   12.0195    5.3408   23.3475 C   0  0  0  0  0  0  0  0  0  0  0  0
    9.8033    2.0181   24.8790 N   0  0  0  0  0  0  0  0  0  0  0  0
   10.7655    5.5941   22.6901 N   0  0  0  0  0  0  0  0  0  0  0  0
    9.5646    6.2924   24.5568 O   0  0  0  0  0  0  0  0  0  0  0  0
    7.6951    5.0470   22.3425 O   0  0  0  0  0  0  0  0  0  0  0  0
   10.6909   -2.5682   23.5008 F   0  0  0  0  0  0  0  0  0  0  0  0
   13.1698    0.9867   22.2275 H   0  0  0  0  0  0  0  0  0  0  0  0
   12.6555   -1.4356   22.2248 H   0  0  0  0  0  0  0  0  0  0  0  0
    9.2814   -0.7909   24.8227 H   0  0  0  0  0  0  0  0  0  0  0  0
   10.0933    4.1268   24.9952 H   0  0  0  0  0  0  0  0  0  0  0  0
   12.6307    3.6741   22.1266 H   0  0  0  0  0  0  0  0  0  0  0  0
   13.4666    3.7615   23.6644 H   0  0  0  0  0  0  0  0  0  0  0  0
    7.8203    7.0364   22.7864 H   0  0  0  0  0  0  0  0  0  0  0  0
    8.8179    6.4908   21.4134 H   0  0  0  0  0  0  0  0  0  0  0  0
   11.8836    5.6081   24.4002 H   0  0  0  0  0  0  0  0  0  0  0  0
   12.7619    6.0202   22.9159 H   0  0  0  0  0  0  0  0  0  0  0  0
    8.9872    1.9378   25.4697 H   0  0  0  0  0  0  0  0  0  0  0  0
   10.7036    5.4293   21.6865 H   0  0  0  0  0  0  0  0  0  0  0  0
    7.3748    4.8539   23.2415 H   0  0  0  0  0  0  0  0  0  0  0  0
  1  2  1  0  0  0  0
  1  5  2  0  0  0  0
  2  8  2  0  0  0  0
  3  7  2  0  0  0  0
  3  8  1  0  0  0  0
  4  6  2  0  0  0  0
  4 13  1  0  0  0  0
  5  6  1  0  0  0  0
  5  7  1  0  0  0  0
  6 10  1  0  0  0  0
  7 13  1  0  0  0  0
  8 17  1  0  0  0  0
  9 11  1  0  0  0  0
  9 14  1  0  0  0  0
  9 15  2  0  0  0  0
 10 12  1  0  0  0  0
 11 16  1  0  0  0  0
 12 14  1  0  0  0  0
  1 18  1  0  0  0  0
  2 19  1  0  0  0  0
  3 20  1  0  0  0  0
  4 21  1  0  0  0  0
 10 22  1  0  0  0  0
 10 23  1  0  0  0  0
 11 24  1  0  0  0  0
 11 25  1  0  0  0  0
 12 26  1  0  0  0  0
 12 27  1  0  0  0  0
 13 28  1  0  0  0  0
 14 29  1  0  0  0  0
 16 30  1  0  0  0  0
M  END
> <Hybrid2>
-9.216143

$$$$
s_240690b____15144160____3025698
  -OEChem-03232000043D

 32 33  0     0  0  0  0  0  0999 V2000
   10.3605   -0.3202   23.9362 C   0  0  0  0  0  0  0  0  0  0  0  0
   12.3964   -0.4265   22.6140 C   0  0  0  0  0  0  0  0  0  0  0  0
   10.2609    3.2768   24.3465 C   0  0  0  0  0  0  0  0  0  0  0  0
   11.5746    1.7297   23.3514 C   0  0  0  0  0  0  0  0  0  0  0  0
   11.4033    3.1210   23.5958 C   0  0  0  0  0  0  0  0  0  0  0  0
   10.5117    1.0705   23.9727 C   0  0  0  0  0  0  0  0  0  0  0  0
   11.3251   -1.0574   23.2435 C   0  0  0  0  0  0  0  0  0  0  0  0
   12.5349    0.9655   22.6590 C   0  0  0  0  0  0  0  0  0  0  0  0
    9.2357    6.0603   23.1245 C   0  0  0  0  0  0  0  0  0  0  0  0
   12.2846    4.2114   23.1319 C   0  0  0  0  0  0  0  0  0  0  0  0
    8.1124    6.1368   22.1213 C   0  0  0  0  0  0  0  0  0  0  0  0
   11.6689    5.6162   23.2658 C   0  0  0  0  0  0  0  0  0  0  0  0
    9.7303    2.0344   24.5690 N   0  0  0  0  0  0  0  0  0  0  0  0
   10.4463    5.7456   22.5192 N   0  0  0  0  0  0  0  0  0  0  0  0
    7.9462    4.8559   21.3937 N   0  3  0  0  0  0  0  0  0  0  0  0
    9.0804    6.2567   24.3269 O   0  0  0  0  0  0  0  0  0  0  0  0
   11.2172   -2.3921   23.1848 F   0  0  0  0  0  0  0  0  0  0  0  0
   13.5722    1.5514   22.0457 F   0  0  0  0  0  0  0  0  0  0  0  0
    9.5270   -0.8122   24.4261 H   0  0  0  0  0  0  0  0  0  0  0  0
   13.1340   -1.0207   22.0815 H   0  0  0  0  0  0  0  0  0  0  0  0
    9.7770    4.1584   24.7433 H   0  0  0  0  0  0  0  0  0  0  0  0
   12.5512    4.0581   22.0674 H   0  0  0  0  0  0  0  0  0  0  0  0
   13.2566    4.1990   23.6654 H   0  0  0  0  0  0  0  0  0  0  0  0
    8.3205    6.9052   21.3717 H   0  0  0  0  0  0  0  0  0  0  0  0
    7.1647    6.3439   22.6262 H   0  0  0  0  0  0  0  0  0  0  0  0
   11.4268    5.8409   24.3093 H   0  0  0  0  0  0  0  0  0  0  0  0
   12.3604    6.3837   22.9028 H   0  0  0  0  0  0  0  0  0  0  0  0
    8.8870    1.8517   25.0952 H   0  0  0  0  0  0  0  0  0  0  0  0
   10.4701    5.5771   21.5151 H   0  0  0  0  0  0  0  0  0  0  0  0
    8.6899    4.1935   21.6402 H   0  0  0  0  0  0  0  0  0  0  0  0
    7.9789    5.0030   20.3787 H   0  0  0  0  0  0  0  0  0  0  0  0
    7.0463    4.4182   21.6201 H   0  0  0  0  0  0  0  0  0  0  0  0
  1  6  2  0  0  0  0
  1  7  1  0  0  0  0
  2  7  2  0  0  0  0
  2  8  1  0  0  0  0
  3  5  2  0  0  0  0
  3 13  1  0  0  0  0
  4  5  1  0  0  0  0
  4  6  1  0  0  0  0
  4  8  2  0  0  0  0
  5 10  1  0  0  0  0
  6 13  1  0  0  0  0
  7 17  1  0  0  0  0
  8 18  1  0  0  0  0
  9 11  1  0  0  0  0
  9 14  1  0  0  0  0
  9 16  2  0  0  0  0
 10 12  1  0  0  0  0
 11 15  1  0  0  0  0
 12 14  1  0  0  0  0
  1 19  1  0  0  0  0
  2 20  1  0  0  0  0
  3 21  1  0  0  0  0
 10 22  1  0  0  0  0
 10 23  1  0  0  0  0
 11 24  1  0  0  0  0
 11 25  1  0  0  0  0
 12 26  1  0  0  0  0
 12 27  1  0  0  0  0
 13 28  1  0  0  0  0
 14 29  1  0  0  0  0
 15 30  1  0  0  0  0
 15 31  1  0  0  0  0
 15 32  1  0  0  0  0
M  CHG  1  15   1
M  END
> <Hybrid2>
-9.696110

$$$$
