MIH-UNI-e57-13
  -OEChem-04062011563D

 50 53  0     1  0  0  0  0  0999 V2000
   14.2167   -0.7602   23.1831 C   0  0  0  0  0  0  0  0  0  0  0  0
   13.6580   -1.6041   22.2233 C   0  0  0  0  0  0  0  0  0  0  0  0
   13.3903   -0.0593   24.0615 C   0  0  0  0  0  0  0  0  0  0  0  0
    8.0371   -1.2249   26.8141 C   0  0  0  0  0  0  0  0  0  0  0  0
    8.7485   -2.3375   26.3763 C   0  0  0  0  0  0  0  0  0  0  0  0
   12.2728   -1.7471   22.1419 C   0  0  0  0  0  0  0  0  0  0  0  0
   12.0052   -0.2023   23.9801 C   0  0  0  0  0  0  0  0  0  0  0  0
    7.9355   -0.0987   25.9983 C   0  0  0  0  0  0  0  0  0  0  0  0
    9.3564   -2.3246   25.1220 C   0  0  0  0  0  0  0  0  0  0  0  0
    5.6699    0.9543   19.1264 C   0  0  0  0  0  0  0  0  0  0  0  0
    6.4001    0.7684   17.9635 C   0  0  0  0  0  0  0  0  0  0  0  0
    8.1040   -0.2783   19.0946 C   0  0  0  0  0  0  0  0  0  0  0  0
   11.4464   -1.0462   23.0203 C   0  0  0  0  0  0  0  0  0  0  0  0
    8.5455   -0.0710   24.7345 C   0  0  0  0  0  0  0  0  0  0  0  0
    9.2578   -1.1967   24.2906 C   0  0  0  0  0  0  0  0  0  0  0  0
    6.2139    0.4880   20.3180 C   0  0  0  0  0  0  0  0  0  0  0  0
    7.4538   -0.1412   20.3105 C   0  0  0  0  0  0  0  0  0  0  0  0
    9.4501    2.3057   21.8913 C   0  0  0  0  0  0  0  0  0  0  0  0
    8.4085    1.1708   23.8922 C   0  0  0  0  0  0  0  0  0  0  0  0
    9.9305   -1.2020   22.9315 C   0  0  1  0  0  0  0  0  0  0  0  0
    9.3198   -0.1608   21.9678 C   0  0  2  0  0  0  0  0  0  0  0  0
    5.4481    0.6740   21.5866 C   0  0  0  0  0  0  0  0  0  0  0  0
    9.0374    3.6168   22.5144 C   0  0  0  0  0  0  0  0  0  0  0  0
    7.6074    0.1619   17.9168 N   0  0  0  0  0  0  0  0  0  0  0  0
    9.1236    1.1462   22.6067 N   0  0  0  0  0  0  0  0  0  0  0  0
    8.0338   -0.6185   21.4692 N   0  0  0  0  0  0  0  0  0  0  0  0
   10.0485    2.3113   20.8127 O   0  0  0  0  0  0  0  0  0  0  0  0
   10.3638    4.1167   23.5570 Cl  0  0  0  0  0  0  0  0  0  0  0  0
   15.2953   -0.6500   23.2473 H   0  0  0  0  0  0  0  0  0  0  0  0
   14.3013   -2.1507   21.5400 H   0  0  0  0  0  0  0  0  0  0  0  0
   13.8251    0.5970   24.8096 H   0  0  0  0  0  0  0  0  0  0  0  0
    7.5617   -1.2325   27.7905 H   0  0  0  0  0  0  0  0  0  0  0  0
    8.8303   -3.2150   27.0109 H   0  0  0  0  0  0  0  0  0  0  0  0
   11.8463   -2.4067   21.3907 H   0  0  0  0  0  0  0  0  0  0  0  0
   11.3692    0.3479   24.6685 H   0  0  0  0  0  0  0  0  0  0  0  0
    7.3772    0.7641   26.3542 H   0  0  0  0  0  0  0  0  0  0  0  0
    9.9079   -3.2019   24.7927 H   0  0  0  0  0  0  0  0  0  0  0  0
    4.7047    1.4484   19.0982 H   0  0  0  0  0  0  0  0  0  0  0  0
    6.0201    1.1139   17.0077 H   0  0  0  0  0  0  0  0  0  0  0  0
    9.0741   -0.7612   19.0243 H   0  0  0  0  0  0  0  0  0  0  0  0
    7.3490    1.3313   23.6581 H   0  0  0  0  0  0  0  0  0  0  0  0
    8.7608    2.0251   24.4787 H   0  0  0  0  0  0  0  0  0  0  0  0
    9.7673   -2.2184   22.4730 H   0  0  0  0  0  0  0  0  0  0  0  0
    9.9739   -0.0451   21.0929 H   0  0  0  0  0  0  0  0  0  0  0  0
    4.7927   -0.1864   21.7643 H   0  0  0  0  0  0  0  0  0  0  0  0
    6.1229    0.7826   22.4447 H   0  0  0  0  0  0  0  0  0  0  0  0
    4.8319    1.5810   21.5483 H   0  0  0  0  0  0  0  0  0  0  0  0
    8.1407    3.4581   23.1016 H   0  0  0  0  0  0  0  0  0  0  0  0
    8.8861    4.3457   21.7273 H   0  0  0  0  0  0  0  0  0  0  0  0
    7.5476   -1.3234   22.0045 H   0  0  0  0  0  0  0  0  0  0  0  0
  1  2  1  0  0  0  0
  1  3  2  0  0  0  0
  2  6  2  0  0  0  0
  3  7  1  0  0  0  0
  4  5  1  0  0  0  0
  4  8  2  0  0  0  0
  5  9  2  0  0  0  0
  6 13  1  0  0  0  0
  7 13  2  0  0  0  0
  8 14  1  0  0  0  0
  9 15  1  0  0  0  0
 10 11  2  0  0  0  0
 10 16  1  0  0  0  0
 11 24  1  0  0  0  0
 12 17  1  0  0  0  0
 12 24  2  0  0  0  0
 13 20  1  0  0  0  0
 14 15  2  0  0  0  0
 14 19  1  0  0  0  0
 15 20  1  0  0  0  0
 16 17  2  0  0  0  0
 16 22  1  0  0  0  0
 17 26  1  0  0  0  0
 18 23  1  0  0  0  0
 18 25  1  0  0  0  0
 18 27  2  0  0  0  0
 19 25  1  0  0  0  0
 20 21  1  0  0  0  0
 21 25  1  0  0  0  0
 21 26  1  0  0  0  0
 23 28  1  0  0  0  0
  1 29  1  0  0  0  0
  2 30  1  0  0  0  0
  3 31  1  0  0  0  0
  4 32  1  0  0  0  0
  5 33  1  0  0  0  0
  6 34  1  0  0  0  0
  7 35  1  0  0  0  0
  8 36  1  0  0  0  0
  9 37  1  0  0  0  0
 10 38  1  0  0  0  0
 11 39  1  0  0  0  0
 12 40  1  0  0  0  0
 19 41  1  0  0  0  0
 19 42  1  0  0  0  0
 20 43  1  0  0  0  0
 21 44  1  0  0  0  0
 22 45  1  0  0  0  0
 22 46  1  0  0  0  0
 22 47  1  0  0  0  0
 23 48  1  0  0  0  0
 23 49  1  0  0  0  0
 26 50  1  0  0  0  0
M  END
> <creator>
Mihaela Smilova, University of Oxford

> <fragments>
x0678

> <real_space>
FALSE

> <SCR>
FALSE

> <BB>
FALSE

> <link>
https://covid.postera.ai/covid/submissions/e573136b-dbda-4fa9-8a0d-95e3d7d1615f

> <covalent_frag>
TRUE

> <covalent_warhead>
TRUE

> <acrylamide>
FALSE

> <acrylamide_adduct>
FALSE

> <chloroacetamide>
TRUE

> <chloroacetamide_adduct>
FALSE

> <vinylsulfonamide>
FALSE

> <vinylsulfonamide_adduct>
FALSE

> <in_molport_or_mcule>
FALSE

> <in_emolecules>
FALSE

> <Hybrid2>
-12.839993

> <Mpro-x0678_dock>
-12.839993

> <Mpro-x1093_dock>
-9.071411

> <Mpro-x0072_dock>
-8.691951

> <Mpro-x0107_dock>
-8.159721

> <Mpro-x0874_dock>
-7.637825

> <Mpro-x0830_dock>
-4.284721

> <Mpro-x0104_dock>
-2.222376

> <site>
active-noncovalent

> <covalent_distance_min>
7.356541

> <covalent_distance_mean>
8.13046

> <covalent_distance_stderr>
0.050617892

$$$$
JAN-GHE-641-1
  -OEChem-04062011563D

 58 61  0     0  0  0  0  0  0999 V2000
   13.2941   -1.4241   22.2504 C   0  0  0  0  0  0  0  0  0  0  0  0
    7.9543    7.2869   24.0679 C   0  0  0  0  0  0  0  0  0  0  0  0
   13.4157   -0.0575   22.5271 C   0  0  0  0  0  0  0  0  0  0  0  0
   12.0403   -2.0275   22.1743 C   0  0  0  0  0  0  0  0  0  0  0  0
    9.2125    6.8646   24.5636 C   0  0  0  0  0  0  0  0  0  0  0  0
    7.8711    6.8779   22.7552 C   0  0  0  0  0  0  0  0  0  0  0  0
   10.6421    2.2512   23.1083 C   0  0  0  0  0  0  0  0  0  0  0  0
   12.2509    0.7091   22.7295 C   0  0  0  0  0  0  0  0  0  0  0  0
   10.8711   -1.2874   22.3716 C   0  0  0  0  0  0  0  0  0  0  0  0
   12.0045    2.0800   23.0211 C   0  0  0  0  0  0  0  0  0  0  0  0
   11.0080    0.0778   22.6473 C   0  0  0  0  0  0  0  0  0  0  0  0
    9.8600    6.2106   23.5387 C   0  0  0  0  0  0  0  0  0  0  0  0
    4.6971   -5.7674   26.4269 C   0  0  0  0  0  0  0  0  0  0  0  0
    5.3266   -4.5935   26.3438 C   0  0  0  0  0  0  0  0  0  0  0  0
   11.2064    5.5829   23.5498 C   0  0  0  0  0  0  0  0  0  0  0  0
    6.8029   -4.5725   26.3681 C   0  0  0  0  0  0  0  0  0  0  0  0
    6.8045   -2.4728   24.9138 C   0  0  0  0  0  0  0  0  0  0  0  0
    8.9097   -3.4593   25.7408 C   0  0  0  0  0  0  0  0  0  0  0  0
    7.4026   -2.3500   23.5173 C   0  0  0  0  0  0  0  0  0  0  0  0
    9.5227   -3.3630   24.3527 C   0  0  0  0  0  0  0  0  0  0  0  0
   13.0206    3.1367   23.2007 C   0  0  0  0  0  0  0  0  0  0  0  0
    9.5374   -1.9689   22.2822 C   0  0  0  0  0  0  0  0  0  0  0  0
   12.8778    4.3172   22.2229 C   0  0  0  0  0  0  0  0  0  0  0  0
   10.0496    1.0379   22.8816 N   0  0  0  0  0  0  0  0  0  0  0  0
    9.0353    6.2250   22.4443 N   0  0  0  0  0  0  0  0  0  0  0  0
    7.4493   -3.5490   25.6793 N   0  0  0  0  0  0  0  0  0  0  0  0
   11.6123    4.9865   22.3622 N   0  0  0  0  0  0  0  0  0  0  0  0
    8.9006   -2.1949   23.6245 N   0  3  0  0  0  0  0  0  0  0  0  0
   11.8690    5.6022   24.5838 O   0  0  0  0  0  0  0  0  0  0  0  0
    7.3743   -5.4615   27.0017 O   0  0  0  0  0  0  0  0  0  0  0  0
   14.1892   -2.0204   22.0940 H   0  0  0  0  0  0  0  0  0  0  0  0
    7.1927    7.8310   24.6083 H   0  0  0  0  0  0  0  0  0  0  0  0
   14.4006    0.3973   22.5829 H   0  0  0  0  0  0  0  0  0  0  0  0
   11.9792   -3.0918   21.9587 H   0  0  0  0  0  0  0  0  0  0  0  0
    9.6005    7.0223   25.5607 H   0  0  0  0  0  0  0  0  0  0  0  0
    7.0917    6.9952   22.0156 H   0  0  0  0  0  0  0  0  0  0  0  0
   10.0400    3.1260   23.3112 H   0  0  0  0  0  0  0  0  0  0  0  0
    3.6152   -5.8470   26.4143 H   0  0  0  0  0  0  0  0  0  0  0  0
    5.2679   -6.6863   26.5104 H   0  0  0  0  0  0  0  0  0  0  0  0
    4.7923   -3.6562   26.2591 H   0  0  0  0  0  0  0  0  0  0  0  0
    6.9422   -1.5431   25.4784 H   0  0  0  0  0  0  0  0  0  0  0  0
    5.7316   -2.6372   24.8073 H   0  0  0  0  0  0  0  0  0  0  0  0
    9.3309   -4.3217   26.2671 H   0  0  0  0  0  0  0  0  0  0  0  0
    9.1564   -2.5702   26.3339 H   0  0  0  0  0  0  0  0  0  0  0  0
    7.1989   -3.2366   22.9063 H   0  0  0  0  0  0  0  0  0  0  0  0
    7.0173   -1.4589   23.0110 H   0  0  0  0  0  0  0  0  0  0  0  0
   10.5987   -3.1717   24.4184 H   0  0  0  0  0  0  0  0  0  0  0  0
    9.3443   -4.2665   23.7589 H   0  0  0  0  0  0  0  0  0  0  0  0
   14.0363    2.7126   23.0745 H   0  0  0  0  0  0  0  0  0  0  0  0
   13.0121    3.5322   24.2365 H   0  0  0  0  0  0  0  0  0  0  0  0
    8.8287   -1.3765   21.6936 H   0  0  0  0  0  0  0  0  0  0  0  0
    9.6266   -2.9516   21.8068 H   0  0  0  0  0  0  0  0  0  0  0  0
   13.6536    5.0690   22.3994 H   0  0  0  0  0  0  0  0  0  0  0  0
   12.9601    3.9790   21.1848 H   0  0  0  0  0  0  0  0  0  0  0  0
    9.0526    0.8723   22.8856 H   0  0  0  0  0  0  0  0  0  0  0  0
    9.2502    5.8175   21.5445 H   0  0  0  0  0  0  0  0  0  0  0  0
   10.9776    4.9586   21.5669 H   0  0  0  0  0  0  0  0  0  0  0  0
    9.0843   -1.3495   24.1823 H   0  0  0  0  0  0  0  0  0  0  0  0
  1  3  1  0  0  0  0
  1  4  2  0  0  0  0
  2  5  1  0  0  0  0
  2  6  2  0  0  0  0
  3  8  2  0  0  0  0
  4  9  1  0  0  0  0
  5 12  2  0  0  0  0
  6 25  1  0  0  0  0
  7 10  2  0  0  0  0
  7 24  1  0  0  0  0
  8 10  1  0  0  0  0
  8 11  1  0  0  0  0
  9 11  2  0  0  0  0
  9 22  1  0  0  0  0
 10 21  1  0  0  0  0
 11 24  1  0  0  0  0
 12 15  1  0  0  0  0
 12 25  1  0  0  0  0
 13 14  2  0  0  0  0
 14 16  1  0  0  0  0
 15 27  1  0  0  0  0
 15 29  2  0  0  0  0
 16 26  1  0  0  0  0
 16 30  2  0  0  0  0
 17 19  1  0  0  0  0
 17 26  1  0  0  0  0
 18 20  1  0  0  0  0
 18 26  1  0  0  0  0
 19 28  1  0  0  0  0
 20 28  1  0  0  0  0
 21 23  1  0  0  0  0
 22 28  1  0  0  0  0
 23 27  1  0  0  0  0
  1 31  1  0  0  0  0
  2 32  1  0  0  0  0
  3 33  1  0  0  0  0
  4 34  1  0  0  0  0
  5 35  1  0  0  0  0
  6 36  1  0  0  0  0
  7 37  1  0  0  0  0
 13 38  1  0  0  0  0
 13 39  1  0  0  0  0
 14 40  1  0  0  0  0
 17 41  1  0  0  0  0
 17 42  1  0  0  0  0
 18 43  1  0  0  0  0
 18 44  1  0  0  0  0
 19 45  1  0  0  0  0
 19 46  1  0  0  0  0
 20 47  1  0  0  0  0
 20 48  1  0  0  0  0
 21 49  1  0  0  0  0
 21 50  1  0  0  0  0
 22 51  1  0  0  0  0
 22 52  1  0  0  0  0
 23 53  1  0  0  0  0
 23 54  1  0  0  0  0
 24 55  1  0  0  0  0
 25 56  1  0  0  0  0
 27 57  1  0  0  0  0
 28 58  1  0  0  0  0
M  CHG  1  28   1
M  END
> <creator>
Jan, Ghent University

> <fragments>
x0104

> <real_space>
FALSE

> <SCR>
FALSE

> <BB>
FALSE

> <link>
https://covid.postera.ai/covid/submissions/6413aaf8-c5d7-46f1-8e3f-314432f79018

> <covalent_frag>
TRUE

> <covalent_warhead>
TRUE

> <acrylamide>
TRUE

> <acrylamide_adduct>
FALSE

> <chloroacetamide>
FALSE

> <chloroacetamide_adduct>
FALSE

> <vinylsulfonamide>
FALSE

> <vinylsulfonamide_adduct>
FALSE

> <in_molport_or_mcule>
FALSE

> <in_emolecules>
FALSE

> <Hybrid2>
-12.560509

> <Mpro-x0104_dock>
-12.560509

> <Mpro-x0692_dock>
-7.250861

> <site>
active-noncovalent

> <covalent_distance_min>
4.6733513

> <covalent_distance_mean>
6.1317296

> <covalent_distance_stderr>
0.10424952

$$$$
JAN-GHE-641-4
  -OEChem-04062011563D

 62 66  0     1  0  0  0  0  0999 V2000
   13.2214   -1.5021   22.3193 C   0  0  0  0  0  0  0  0  0  0  0  0
    8.1523    7.4182   23.8778 C   0  0  0  0  0  0  0  0  0  0  0  0
   13.3849   -0.1360   22.5758 C   0  0  0  0  0  0  0  0  0  0  0  0
   11.9492   -2.0631   22.2265 C   0  0  0  0  0  0  0  0  0  0  0  0
    9.3844    6.9613   24.4072 C   0  0  0  0  0  0  0  0  0  0  0  0
    8.0821    6.9896   22.5706 C   0  0  0  0  0  0  0  0  0  0  0  0
   10.6821    2.2768   23.0593 C   0  0  0  0  0  0  0  0  0  0  0  0
   12.2436    0.6738   22.7406 C   0  0  0  0  0  0  0  0  0  0  0  0
   10.8026   -1.2798   22.3864 C   0  0  0  0  0  0  0  0  0  0  0  0
   12.0391    2.0571   23.0041 C   0  0  0  0  0  0  0  0  0  0  0  0
   10.9813    0.0844   22.6423 C   0  0  0  0  0  0  0  0  0  0  0  0
   10.0298    6.2677   23.4073 C   0  0  0  0  0  0  0  0  0  0  0  0
    3.0459   -6.6276   23.2726 C   0  0  0  0  0  0  0  0  0  0  0  0
    3.8429   -5.9452   24.0976 C   0  0  0  0  0  0  0  0  0  0  0  0
   11.3530    5.5942   23.4575 C   0  0  0  0  0  0  0  0  0  0  0  0
    5.3025   -6.1479   24.0088 C   0  0  0  0  0  0  0  0  0  0  0  0
    5.6626   -3.7445   24.7830 C   0  0  0  0  0  0  0  0  0  0  0  0
    7.5526   -5.1546   24.2819 C   0  0  0  0  0  0  0  0  0  0  0  0
    7.2782   -2.2195   23.5225 C   0  0  0  0  0  0  0  0  0  0  0  0
    9.2936   -3.2765   24.4088 C   0  0  0  0  0  0  0  0  0  0  0  0
    6.9284   -2.9031   24.8333 C   0  0  2  0  0  0  0  0  0  0  0  0
    8.0562   -3.9161   25.0203 C   0  0  1  0  0  0  0  0  0  0  0  0
   13.0876    3.0811   23.1878 C   0  0  0  0  0  0  0  0  0  0  0  0
    9.4482   -1.9162   22.2799 C   0  0  0  0  0  0  0  0  0  0  0  0
   13.0064    4.2488   22.1878 C   0  0  0  0  0  0  0  0  0  0  0  0
   10.0524    1.0810   22.8402 N   0  0  0  0  0  0  0  0  0  0  0  0
    9.2290    6.2916   22.2955 N   0  0  0  0  0  0  0  0  0  0  0  0
    6.0997   -5.0709   24.3478 N   0  0  0  0  0  0  0  0  0  0  0  0
   11.7624    4.9637   22.2889 N   0  0  0  0  0  0  0  0  0  0  0  0
    8.7800   -2.0958   23.6042 N   0  3  0  0  0  0  0  0  0  0  0  0
   11.9942    5.6085   24.5050 O   0  0  0  0  0  0  0  0  0  0  0  0
    5.7270   -7.2453   23.6479 O   0  0  0  0  0  0  0  0  0  0  0  0
   14.0982   -2.1317   22.1920 H   0  0  0  0  0  0  0  0  0  0  0  0
    7.3990    7.9976   24.3928 H   0  0  0  0  0  0  0  0  0  0  0  0
   14.3837    0.2854   22.6451 H   0  0  0  0  0  0  0  0  0  0  0  0
   11.8555   -3.1283   22.0273 H   0  0  0  0  0  0  0  0  0  0  0  0
    9.7568    7.1228   25.4096 H   0  0  0  0  0  0  0  0  0  0  0  0
    7.3228    7.1210   21.8127 H   0  0  0  0  0  0  0  0  0  0  0  0
   10.1068    3.1753   23.2349 H   0  0  0  0  0  0  0  0  0  0  0  0
    1.9664   -6.5213   23.2902 H   0  0  0  0  0  0  0  0  0  0  0  0
    3.4716   -7.3176   22.5517 H   0  0  0  0  0  0  0  0  0  0  0  0
    3.4560   -5.2480   24.8293 H   0  0  0  0  0  0  0  0  0  0  0  0
    5.2255   -3.8563   25.7814 H   0  0  0  0  0  0  0  0  0  0  0  0
    4.9053   -3.3413   24.1040 H   0  0  0  0  0  0  0  0  0  0  0  0
    7.8366   -5.1671   23.2233 H   0  0  0  0  0  0  0  0  0  0  0  0
    7.9024   -6.0856   24.7395 H   0  0  0  0  0  0  0  0  0  0  0  0
    7.0337   -2.8212   22.6402 H   0  0  0  0  0  0  0  0  0  0  0  0
    6.8535   -1.2160   23.4284 H   0  0  0  0  0  0  0  0  0  0  0  0
    9.9616   -2.8612   25.1697 H   0  0  0  0  0  0  0  0  0  0  0  0
    9.8509   -3.9514   23.7515 H   0  0  0  0  0  0  0  0  0  0  0  0
    6.9021   -2.1726   25.6500 H   0  0  0  0  0  0  0  0  0  0  0  0
    8.2028   -4.1496   26.0814 H   0  0  0  0  0  0  0  0  0  0  0  0
   14.0903    2.6200   23.0904 H   0  0  0  0  0  0  0  0  0  0  0  0
   13.0714    3.4946   24.2165 H   0  0  0  0  0  0  0  0  0  0  0  0
    8.7730   -1.3100   21.6666 H   0  0  0  0  0  0  0  0  0  0  0  0
    9.5128   -2.9096   21.8229 H   0  0  0  0  0  0  0  0  0  0  0  0
   13.8041    4.9762   22.3684 H   0  0  0  0  0  0  0  0  0  0  0  0
   13.0984    3.8900   21.1574 H   0  0  0  0  0  0  0  0  0  0  0  0
    9.0504    0.9500   22.8256 H   0  0  0  0  0  0  0  0  0  0  0  0
    9.4481    5.8615   21.4073 H   0  0  0  0  0  0  0  0  0  0  0  0
   11.1438    4.9439   21.4808 H   0  0  0  0  0  0  0  0  0  0  0  0
    8.9767   -1.2511   24.1588 H   0  0  0  0  0  0  0  0  0  0  0  0
  1  3  1  0  0  0  0
  1  4  2  0  0  0  0
  2  5  1  0  0  0  0
  2  6  2  0  0  0  0
  3  8  2  0  0  0  0
  4  9  1  0  0  0  0
  5 12  2  0  0  0  0
  6 27  1  0  0  0  0
  7 10  2  0  0  0  0
  7 26  1  0  0  0  0
  8 10  1  0  0  0  0
  8 11  1  0  0  0  0
  9 11  2  0  0  0  0
  9 24  1  0  0  0  0
 10 23  1  0  0  0  0
 11 26  1  0  0  0  0
 12 15  1  0  0  0  0
 12 27  1  0  0  0  0
 13 14  2  0  0  0  0
 14 16  1  0  0  0  0
 15 29  1  0  0  0  0
 15 31  2  0  0  0  0
 16 28  1  0  0  0  0
 16 32  2  0  0  0  0
 17 21  1  0  0  0  0
 17 28  1  0  0  0  0
 18 22  1  0  0  0  0
 18 28  1  0  0  0  0
 19 21  1  0  0  0  0
 19 30  1  0  0  0  0
 20 22  1  0  0  0  0
 20 30  1  0  0  0  0
 21 22  1  0  0  0  0
 23 25  1  0  0  0  0
 24 30  1  0  0  0  0
 25 29  1  0  0  0  0
  1 33  1  0  0  0  0
  2 34  1  0  0  0  0
  3 35  1  0  0  0  0
  4 36  1  0  0  0  0
  5 37  1  0  0  0  0
  6 38  1  0  0  0  0
  7 39  1  0  0  0  0
 13 40  1  0  0  0  0
 13 41  1  0  0  0  0
 14 42  1  0  0  0  0
 17 43  1  0  0  0  0
 17 44  1  0  0  0  0
 18 45  1  0  0  0  0
 18 46  1  0  0  0  0
 19 47  1  0  0  0  0
 19 48  1  0  0  0  0
 20 49  1  0  0  0  0
 20 50  1  0  0  0  0
 21 51  1  0  0  0  0
 22 52  1  0  0  0  0
 23 53  1  0  0  0  0
 23 54  1  0  0  0  0
 24 55  1  0  0  0  0
 24 56  1  0  0  0  0
 25 57  1  0  0  0  0
 25 58  1  0  0  0  0
 26 59  1  0  0  0  0
 27 60  1  0  0  0  0
 29 61  1  0  0  0  0
 30 62  1  0  0  0  0
M  CHG  1  30   1
M  END
> <creator>
Jan, Ghent University

> <fragments>
x0104

> <real_space>
FALSE

> <SCR>
FALSE

> <BB>
FALSE

> <link>
https://covid.postera.ai/covid/submissions/6413aaf8-c5d7-46f1-8e3f-314432f79018

> <covalent_frag>
TRUE

> <covalent_warhead>
TRUE

> <acrylamide>
TRUE

> <acrylamide_adduct>
FALSE

> <chloroacetamide>
FALSE

> <chloroacetamide_adduct>
FALSE

> <vinylsulfonamide>
FALSE

> <vinylsulfonamide_adduct>
FALSE

> <in_molport_or_mcule>
FALSE

> <in_emolecules>
FALSE

> <Hybrid2>
-12.308494

> <Mpro-x0104_dock>
-12.308494

> <Mpro-x0692_dock>
-5.715628

> <site>
active-noncovalent

> <covalent_distance_min>
6.594061

> <covalent_distance_mean>
7.669121

> <covalent_distance_stderr>
0.091613255

$$$$
JAN-GHE-641-2
  -OEChem-04062011563D

 55 58  0     0  0  0  0  0  0999 V2000
   13.3992   -0.2386   22.0654 C   0  0  0  0  0  0  0  0  0  0  0  0
    7.0364    7.0200   22.7956 C   0  0  0  0  0  0  0  0  0  0  0  0
   13.2900    0.9688   22.7648 C   0  0  0  0  0  0  0  0  0  0  0  0
   12.3303   -1.1311   22.0123 C   0  0  0  0  0  0  0  0  0  0  0  0
    8.0460    6.8557   23.7758 C   0  0  0  0  0  0  0  0  0  0  0  0
    7.4925    6.4376   21.6337 C   0  0  0  0  0  0  0  0  0  0  0  0
   10.3326    2.1165   24.5806 C   0  0  0  0  0  0  0  0  0  0  0  0
   12.0811    1.2769   23.4198 C   0  0  0  0  0  0  0  0  0  0  0  0
   11.1216   -0.8471   22.6542 C   0  0  0  0  0  0  0  0  0  0  0  0
   11.6287    2.3777   24.1998 C   0  0  0  0  0  0  0  0  0  0  0  0
   11.0269    0.3636   23.3495 C   0  0  0  0  0  0  0  0  0  0  0  0
    9.0884    6.1780   23.1830 C   0  0  0  0  0  0  0  0  0  0  0  0
    3.7013   -4.2529   25.9468 C   0  0  0  0  0  0  0  0  0  0  0  0
    4.8269   -3.8920   25.3270 C   0  0  0  0  0  0  0  0  0  0  0  0
   10.3809    5.7629   23.7864 C   0  0  0  0  0  0  0  0  0  0  0  0
    6.0956   -4.5264   25.7283 C   0  0  0  0  0  0  0  0  0  0  0  0
    8.6124   -4.4292   25.0897 C   0  0  0  0  0  0  0  0  0  0  0  0
    7.3352   -3.0748   24.0283 C   0  0  0  0  0  0  0  0  0  0  0  0
    8.7472   -3.6256   23.7884 C   0  0  0  0  0  0  0  0  0  0  0  0
   12.4028    3.5872   24.5451 C   0  0  0  0  0  0  0  0  0  0  0  0
    9.9911   -1.8304   22.5765 C   0  0  0  0  0  0  0  0  0  0  0  0
   12.5357    4.5979   23.3914 C   0  0  0  0  0  0  0  0  0  0  0  0
    9.9786    0.8994   24.0632 N   0  0  0  0  0  0  0  0  0  0  0  0
    8.7410    5.9294   21.8808 N   0  0  0  0  0  0  0  0  0  0  0  0
    7.1990   -4.1021   25.0461 N   0  0  0  0  0  0  0  0  0  0  0  0
   11.2572    5.0851   22.9476 N   0  0  0  0  0  0  0  0  0  0  0  0
    9.7920   -2.5956   23.8450 N   0  3  0  0  0  0  0  0  0  0  0  0
   10.5987    6.0128   24.9691 O   0  0  0  0  0  0  0  0  0  0  0  0
    6.1030   -5.3729   26.6186 O   0  0  0  0  0  0  0  0  0  0  0  0
   14.3295   -0.4817   21.5588 H   0  0  0  0  0  0  0  0  0  0  0  0
    6.0817    7.5106   22.9224 H   0  0  0  0  0  0  0  0  0  0  0  0
   14.1328    1.6535   22.7963 H   0  0  0  0  0  0  0  0  0  0  0  0
   12.4469   -2.0618   21.4614 H   0  0  0  0  0  0  0  0  0  0  0  0
    8.0123    7.1960   24.8018 H   0  0  0  0  0  0  0  0  0  0  0  0
    7.0435    6.3422   20.6551 H   0  0  0  0  0  0  0  0  0  0  0  0
    9.6298    2.6858   25.1730 H   0  0  0  0  0  0  0  0  0  0  0  0
    2.7379   -3.8220   25.6958 H   0  0  0  0  0  0  0  0  0  0  0  0
    3.7282   -5.0014   26.7316 H   0  0  0  0  0  0  0  0  0  0  0  0
    4.8405   -3.1497   24.5396 H   0  0  0  0  0  0  0  0  0  0  0  0
    8.8286   -5.4959   24.9888 H   0  0  0  0  0  0  0  0  0  0  0  0
    9.1109   -4.0211   25.9740 H   0  0  0  0  0  0  0  0  0  0  0  0
    7.2627   -2.0648   24.4428 H   0  0  0  0  0  0  0  0  0  0  0  0
    6.6439   -3.1913   23.1898 H   0  0  0  0  0  0  0  0  0  0  0  0
    8.8336   -4.2476   22.8900 H   0  0  0  0  0  0  0  0  0  0  0  0
   13.4243    3.3052   24.8684 H   0  0  0  0  0  0  0  0  0  0  0  0
   11.9680    4.1072   25.4226 H   0  0  0  0  0  0  0  0  0  0  0  0
    9.0426   -1.3270   22.3607 H   0  0  0  0  0  0  0  0  0  0  0  0
   10.1636   -2.5698   21.7869 H   0  0  0  0  0  0  0  0  0  0  0  0
   13.1167    5.4724   23.7008 H   0  0  0  0  0  0  0  0  0  0  0  0
   13.0342    4.1447   22.5283 H   0  0  0  0  0  0  0  0  0  0  0  0
    9.0775    0.4589   24.1876 H   0  0  0  0  0  0  0  0  0  0  0  0
    9.3156    5.4457   21.2042 H   0  0  0  0  0  0  0  0  0  0  0  0
   10.9755    4.8616   21.9953 H   0  0  0  0  0  0  0  0  0  0  0  0
    9.5844   -1.9192   24.6011 H   0  0  0  0  0  0  0  0  0  0  0  0
   10.6976   -3.0217   24.1110 H   0  0  0  0  0  0  0  0  0  0  0  0
  1  3  1  0  0  0  0
  1  4  2  0  0  0  0
  2  5  1  0  0  0  0
  2  6  2  0  0  0  0
  3  8  2  0  0  0  0
  4  9  1  0  0  0  0
  5 12  2  0  0  0  0
  6 24  1  0  0  0  0
  7 10  2  0  0  0  0
  7 23  1  0  0  0  0
  8 10  1  0  0  0  0
  8 11  1  0  0  0  0
  9 11  2  0  0  0  0
  9 21  1  0  0  0  0
 10 20  1  0  0  0  0
 11 23  1  0  0  0  0
 12 15  1  0  0  0  0
 12 24  1  0  0  0  0
 13 14  2  0  0  0  0
 14 16  1  0  0  0  0
 15 26  1  0  0  0  0
 15 28  2  0  0  0  0
 16 25  1  0  0  0  0
 16 29  2  0  0  0  0
 17 19  1  0  0  0  0
 17 25  1  0  0  0  0
 18 19  1  0  0  0  0
 18 25  1  0  0  0  0
 19 27  1  0  0  0  0
 20 22  1  0  0  0  0
 21 27  1  0  0  0  0
 22 26  1  0  0  0  0
  1 30  1  0  0  0  0
  2 31  1  0  0  0  0
  3 32  1  0  0  0  0
  4 33  1  0  0  0  0
  5 34  1  0  0  0  0
  6 35  1  0  0  0  0
  7 36  1  0  0  0  0
 13 37  1  0  0  0  0
 13 38  1  0  0  0  0
 14 39  1  0  0  0  0
 17 40  1  0  0  0  0
 17 41  1  0  0  0  0
 18 42  1  0  0  0  0
 18 43  1  0  0  0  0
 19 44  1  0  0  0  0
 20 45  1  0  0  0  0
 20 46  1  0  0  0  0
 21 47  1  0  0  0  0
 21 48  1  0  0  0  0
 22 49  1  0  0  0  0
 22 50  1  0  0  0  0
 23 51  1  0  0  0  0
 24 52  1  0  0  0  0
 26 53  1  0  0  0  0
 27 54  1  0  0  0  0
 27 55  1  0  0  0  0
M  CHG  1  27   1
M  END
> <creator>
Jan, Ghent University

> <fragments>
x0104

> <real_space>
FALSE

> <SCR>
FALSE

> <BB>
FALSE

> <link>
https://covid.postera.ai/covid/submissions/6413aaf8-c5d7-46f1-8e3f-314432f79018

> <covalent_frag>
TRUE

> <covalent_warhead>
TRUE

> <acrylamide>
TRUE

> <acrylamide_adduct>
FALSE

> <chloroacetamide>
FALSE

> <chloroacetamide_adduct>
FALSE

> <vinylsulfonamide>
FALSE

> <vinylsulfonamide_adduct>
FALSE

> <in_molport_or_mcule>
FALSE

> <in_emolecules>
FALSE

> <Hybrid2>
-12.202948

> <Mpro-x0104_dock>
-12.202948

> <Mpro-x0692_dock>
-5.893784

> <site>
active-noncovalent

> <covalent_distance_min>
9.114183

> <covalent_distance_mean>
9.845038

> <covalent_distance_stderr>
0.05799323

$$$$
JAN-GHE-641-3
  -OEChem-04062011563D

 55 58  0     0  0  0  0  0  0999 V2000
   12.9750   -0.7378   22.0351 C   0  0  0  0  0  0  0  0  0  0  0  0
    8.0188    7.4977   23.1828 C   0  0  0  0  0  0  0  0  0  0  0  0
   13.1011    0.4460   22.7710 C   0  0  0  0  0  0  0  0  0  0  0  0
   11.7642   -1.4263   21.9937 C   0  0  0  0  0  0  0  0  0  0  0  0
    9.0112    7.1260   24.1231 C   0  0  0  0  0  0  0  0  0  0  0  0
    8.3313    6.8833   21.9903 C   0  0  0  0  0  0  0  0  0  0  0  0
   10.4464    2.0346   24.7177 C   0  0  0  0  0  0  0  0  0  0  0  0
   11.9849    0.9398   23.4751 C   0  0  0  0  0  0  0  0  0  0  0  0
   10.6436   -0.9558   22.6842 C   0  0  0  0  0  0  0  0  0  0  0  0
   11.7567    2.0764   24.3003 C   0  0  0  0  0  0  0  0  0  0  0  0
   10.7843    0.2289   23.4156 C   0  0  0  0  0  0  0  0  0  0  0  0
    9.9000    6.2957   23.4765 C   0  0  0  0  0  0  0  0  0  0  0  0
    5.9749   -5.8779   28.4439 C   0  0  0  0  0  0  0  0  0  0  0  0
    6.3710   -4.9598   27.5571 C   0  0  0  0  0  0  0  0  0  0  0  0
   11.1156    5.6400   24.0237 C   0  0  0  0  0  0  0  0  0  0  0  0
    7.4038   -5.2921   26.5398 C   0  0  0  0  0  0  0  0  0  0  0  0
    9.6553   -3.1276   24.6011 C   0  0  0  0  0  0  0  0  0  0  0  0
    8.1559   -3.7493   23.2892 C   0  0  0  0  0  0  0  0  0  0  0  0
    8.6473   -4.2899   24.6439 C   0  0  0  0  0  0  0  0  0  0  0  0
   12.7421    3.1189   24.6524 C   0  0  0  0  0  0  0  0  0  0  0  0
    9.3553   -1.7219   22.6178 C   0  0  0  0  0  0  0  0  0  0  0  0
   13.0183    4.1283   23.5233 C   0  0  0  0  0  0  0  0  0  0  0  0
    9.8682    0.9165   24.1792 N   0  0  0  0  0  0  0  0  0  0  0  0
    9.4769    6.1555   22.1805 N   0  0  0  0  0  0  0  0  0  0  0  0
   11.8338    4.8471   23.1371 N   0  0  0  0  0  0  0  0  0  0  0  0
    7.6740   -4.2150   25.7209 N   0  0  0  0  0  0  0  0  0  0  0  0
    9.4746   -3.1023   23.1356 N   0  3  0  0  0  0  0  0  0  0  0  0
   11.4080    5.8083   25.2047 O   0  0  0  0  0  0  0  0  0  0  0  0
    7.9264   -6.3997   26.4671 O   0  0  0  0  0  0  0  0  0  0  0  0
   13.8328   -1.1236   21.4905 H   0  0  0  0  0  0  0  0  0  0  0  0
    7.1699    8.1441   23.3557 H   0  0  0  0  0  0  0  0  0  0  0  0
   14.0521    0.9705   22.7926 H   0  0  0  0  0  0  0  0  0  0  0  0
   11.6986   -2.3441   21.4137 H   0  0  0  0  0  0  0  0  0  0  0  0
    9.0677    7.4326   25.1586 H   0  0  0  0  0  0  0  0  0  0  0  0
    7.8446    6.9009   21.0253 H   0  0  0  0  0  0  0  0  0  0  0  0
    9.8726    2.6985   25.3493 H   0  0  0  0  0  0  0  0  0  0  0  0
    5.2217   -5.6277   29.1837 H   0  0  0  0  0  0  0  0  0  0  0  0
    6.3770   -6.8849   28.4617 H   0  0  0  0  0  0  0  0  0  0  0  0
    5.9428   -3.9634   27.5734 H   0  0  0  0  0  0  0  0  0  0  0  0
    9.3386   -2.2133   25.1164 H   0  0  0  0  0  0  0  0  0  0  0  0
   10.6750   -3.3816   24.9040 H   0  0  0  0  0  0  0  0  0  0  0  0
    7.9583   -4.5079   22.5266 H   0  0  0  0  0  0  0  0  0  0  0  0
    7.3095   -3.0544   23.3401 H   0  0  0  0  0  0  0  0  0  0  0  0
    9.1125   -5.2806   24.5813 H   0  0  0  0  0  0  0  0  0  0  0  0
   13.7065    2.6510   24.9327 H   0  0  0  0  0  0  0  0  0  0  0  0
   12.4314    3.6776   25.5583 H   0  0  0  0  0  0  0  0  0  0  0  0
    8.5724   -1.2318   23.2064 H   0  0  0  0  0  0  0  0  0  0  0  0
    8.9960   -1.8029   21.5863 H   0  0  0  0  0  0  0  0  0  0  0  0
   13.7533    4.8763   23.8368 H   0  0  0  0  0  0  0  0  0  0  0  0
   13.4039    3.6235   22.6314 H   0  0  0  0  0  0  0  0  0  0  0  0
    8.9074    0.6374   24.3220 H   0  0  0  0  0  0  0  0  0  0  0  0
    9.9373    5.6012   21.4716 H   0  0  0  0  0  0  0  0  0  0  0  0
   11.4899    4.7084   22.1891 H   0  0  0  0  0  0  0  0  0  0  0  0
    7.1731   -3.3425   25.8295 H   0  0  0  0  0  0  0  0  0  0  0  0
   10.1591   -3.6780   22.6262 H   0  0  0  0  0  0  0  0  0  0  0  0
  1  3  1  0  0  0  0
  1  4  2  0  0  0  0
  2  5  1  0  0  0  0
  2  6  2  0  0  0  0
  3  8  2  0  0  0  0
  4  9  1  0  0  0  0
  5 12  2  0  0  0  0
  6 24  1  0  0  0  0
  7 10  2  0  0  0  0
  7 23  1  0  0  0  0
  8 10  1  0  0  0  0
  8 11  1  0  0  0  0
  9 11  2  0  0  0  0
  9 21  1  0  0  0  0
 10 20  1  0  0  0  0
 11 23  1  0  0  0  0
 12 15  1  0  0  0  0
 12 24  1  0  0  0  0
 13 14  2  0  0  0  0
 14 16  1  0  0  0  0
 15 25  1  0  0  0  0
 15 28  2  0  0  0  0
 16 26  1  0  0  0  0
 16 29  2  0  0  0  0
 17 19  1  0  0  0  0
 17 27  1  0  0  0  0
 18 19  1  0  0  0  0
 18 27  1  0  0  0  0
 19 26  1  0  0  0  0
 20 22  1  0  0  0  0
 21 27  1  0  0  0  0
 22 25  1  0  0  0  0
  1 30  1  0  0  0  0
  2 31  1  0  0  0  0
  3 32  1  0  0  0  0
  4 33  1  0  0  0  0
  5 34  1  0  0  0  0
  6 35  1  0  0  0  0
  7 36  1  0  0  0  0
 13 37  1  0  0  0  0
 13 38  1  0  0  0  0
 14 39  1  0  0  0  0
 17 40  1  0  0  0  0
 17 41  1  0  0  0  0
 18 42  1  0  0  0  0
 18 43  1  0  0  0  0
 19 44  1  0  0  0  0
 20 45  1  0  0  0  0
 20 46  1  0  0  0  0
 21 47  1  0  0  0  0
 21 48  1  0  0  0  0
 22 49  1  0  0  0  0
 22 50  1  0  0  0  0
 23 51  1  0  0  0  0
 24 52  1  0  0  0  0
 25 53  1  0  0  0  0
 26 54  1  0  0  0  0
 27 55  1  0  0  0  0
M  CHG  1  27   1
M  END
> <creator>
Jan, Ghent University

> <fragments>
x0104

> <real_space>
FALSE

> <SCR>
FALSE

> <BB>
FALSE

> <link>
https://covid.postera.ai/covid/submissions/6413aaf8-c5d7-46f1-8e3f-314432f79018

> <covalent_frag>
TRUE

> <covalent_warhead>
TRUE

> <acrylamide>
TRUE

> <acrylamide_adduct>
FALSE

> <chloroacetamide>
FALSE

> <chloroacetamide_adduct>
FALSE

> <vinylsulfonamide>
FALSE

> <vinylsulfonamide_adduct>
FALSE

> <in_molport_or_mcule>
FALSE

> <in_emolecules>
FALSE

> <Hybrid2>
-11.945398

> <Mpro-x0104_dock>
-11.945398

> <Mpro-x0692_dock>
-3.495237

> <site>
active-noncovalent

> <covalent_distance_min>
4.974756

> <covalent_distance_mean>
5.976314

> <covalent_distance_stderr>
0.09313012

$$$$
JAN-GHE-641-6
  -OEChem-04062011563D

 63 66  0     1  0  0  0  0  0999 V2000
   12.8787   -0.4035   22.4361 C   0  0  0  0  0  0  0  0  0  0  0  0
   12.9071    0.8678   23.0208 C   0  0  0  0  0  0  0  0  0  0  0  0
   11.6940   -1.1348   22.3764 C   0  0  0  0  0  0  0  0  0  0  0  0
   10.0451    2.5935   24.5012 C   0  0  0  0  0  0  0  0  0  0  0  0
   11.7186    1.4062   23.5529 C   0  0  0  0  0  0  0  0  0  0  0  0
   10.5030   -0.6213   22.8975 C   0  0  0  0  0  0  0  0  0  0  0  0
   11.3871    2.6293   24.2003 C   0  0  0  0  0  0  0  0  0  0  0  0
   10.5463    0.6508   23.4791 C   0  0  0  0  0  0  0  0  0  0  0  0
    5.5114   -6.6876   26.4920 C   0  0  0  0  0  0  0  0  0  0  0  0
    6.0015   -5.4526   26.6186 C   0  0  0  0  0  0  0  0  0  0  0  0
    7.4540   -5.2417   26.4572 C   0  0  0  0  0  0  0  0  0  0  0  0
   10.6801    6.1032   23.3924 C   0  0  0  0  0  0  0  0  0  0  0  0
    7.1609    6.6072   22.4002 C   0  0  0  0  0  0  0  0  0  0  0  0
    8.2703    6.8153   23.4138 C   0  0  0  0  0  0  0  0  0  0  0  0
    7.0213   -2.8847   25.5733 C   0  0  0  0  0  0  0  0  0  0  0  0
    9.3167   -3.7449   25.8559 C   0  0  0  0  0  0  0  0  0  0  0  0
    7.6597    5.4353   21.5832 C   0  0  0  0  0  0  0  0  0  0  0  0
    7.3784   -2.3684   24.1845 C   0  0  0  0  0  0  0  0  0  0  0  0
    9.6924   -3.2542   24.4667 C   0  0  0  0  0  0  0  0  0  0  0  0
    9.5373    6.6291   22.5944 C   0  0  2  0  0  0  0  0  0  0  0  0
   12.3099    3.7427   24.5009 C   0  0  0  0  0  0  0  0  0  0  0  0
    9.2454   -1.4356   22.8163 C   0  0  0  0  0  0  0  0  0  0  0  0
   12.6653    4.6102   23.2798 C   0  0  0  0  0  0  0  0  0  0  0  0
    9.5467    1.3961   24.0625 N   0  0  0  0  0  0  0  0  0  0  0  0
    7.8807   -4.0116   25.9626 N   0  0  0  0  0  0  0  0  0  0  0  0
   11.5048    5.2313   22.6998 N   0  0  0  0  0  0  0  0  0  0  0  0
    9.1449    5.6412   21.5241 N   0  3  0  0  0  0  0  0  0  0  0  0
    8.8520   -2.0442   24.1328 N   0  3  0  0  0  0  0  0  0  0  0  0
    8.2024   -6.1677   26.7749 O   0  0  0  0  0  0  0  0  0  0  0  0
   10.8172    6.4573   24.5575 O   0  0  0  0  0  0  0  0  0  0  0  0
   13.7926   -0.8241   22.0247 H   0  0  0  0  0  0  0  0  0  0  0  0
   13.8389    1.4246   23.0591 H   0  0  0  0  0  0  0  0  0  0  0  0
   11.7049   -2.1205   21.9165 H   0  0  0  0  0  0  0  0  0  0  0  0
    9.3990    3.3110   24.9878 H   0  0  0  0  0  0  0  0  0  0  0  0
    4.4541   -6.9053   26.5995 H   0  0  0  0  0  0  0  0  0  0  0  0
    6.1759   -7.5170   26.2739 H   0  0  0  0  0  0  0  0  0  0  0  0
    5.3709   -4.6002   26.8353 H   0  0  0  0  0  0  0  0  0  0  0  0
    6.2212    6.3509   22.9044 H   0  0  0  0  0  0  0  0  0  0  0  0
    6.9885    7.4964   21.7866 H   0  0  0  0  0  0  0  0  0  0  0  0
    8.2259    7.8364   23.8045 H   0  0  0  0  0  0  0  0  0  0  0  0
    8.1846    6.1194   24.2503 H   0  0  0  0  0  0  0  0  0  0  0  0
    7.1535   -2.0983   26.3259 H   0  0  0  0  0  0  0  0  0  0  0  0
    5.9664   -3.1616   25.5687 H   0  0  0  0  0  0  0  0  0  0  0  0
    9.8980   -4.6407   26.0964 H   0  0  0  0  0  0  0  0  0  0  0  0
    9.5646   -2.9897   26.6118 H   0  0  0  0  0  0  0  0  0  0  0  0
    7.4597    4.4589   22.0342 H   0  0  0  0  0  0  0  0  0  0  0  0
    7.2931    5.4645   20.5510 H   0  0  0  0  0  0  0  0  0  0  0  0
    7.1697   -3.1115   23.4065 H   0  0  0  0  0  0  0  0  0  0  0  0
    6.8326   -1.4448   23.9656 H   0  0  0  0  0  0  0  0  0  0  0  0
   10.7413   -2.9416   24.4383 H   0  0  0  0  0  0  0  0  0  0  0  0
    9.5130   -4.0141   23.6978 H   0  0  0  0  0  0  0  0  0  0  0  0
    9.8427    7.5552   22.0885 H   0  0  0  0  0  0  0  0  0  0  0  0
   13.2551    3.3492   24.9242 H   0  0  0  0  0  0  0  0  0  0  0  0
   11.9028    4.4002   25.2955 H   0  0  0  0  0  0  0  0  0  0  0  0
    8.3985   -0.8242   22.4868 H   0  0  0  0  0  0  0  0  0  0  0  0
    9.3553   -2.2633   22.1074 H   0  0  0  0  0  0  0  0  0  0  0  0
   13.3497    5.4179   23.5581 H   0  0  0  0  0  0  0  0  0  0  0  0
   13.1443    4.0108   22.4987 H   0  0  0  0  0  0  0  0  0  0  0  0
    8.5838    1.1029   24.1540 H   0  0  0  0  0  0  0  0  0  0  0  0
   11.2775    5.0191   21.7296 H   0  0  0  0  0  0  0  0  0  0  0  0
    9.6263    4.7420   21.6643 H   0  0  0  0  0  0  0  0  0  0  0  0
    9.4264    5.9757   20.5924 H   0  0  0  0  0  0  0  0  0  0  0  0
    9.0367   -1.3315   24.8522 H   0  0  0  0  0  0  0  0  0  0  0  0
  1  2  1  0  0  0  0
  1  3  2  0  0  0  0
  2  5  2  0  0  0  0
  3  6  1  0  0  0  0
  4  7  2  0  0  0  0
  4 24  1  0  0  0  0
  5  7  1  0  0  0  0
  5  8  1  0  0  0  0
  6  8  2  0  0  0  0
  6 22  1  0  0  0  0
  7 21  1  0  0  0  0
  8 24  1  0  0  0  0
  9 10  2  0  0  0  0
 10 11  1  0  0  0  0
 11 25  1  0  0  0  0
 11 29  2  0  0  0  0
 12 20  1  0  0  0  0
 12 26  1  0  0  0  0
 12 30  2  0  0  0  0
 13 14  1  0  0  0  0
 13 17  1  0  0  0  0
 14 20  1  0  0  0  0
 15 18  1  0  0  0  0
 15 25  1  0  0  0  0
 16 19  1  0  0  0  0
 16 25  1  0  0  0  0
 17 27  1  0  0  0  0
 18 28  1  0  0  0  0
 19 28  1  0  0  0  0
 20 27  1  0  0  0  0
 21 23  1  0  0  0  0
 22 28  1  0  0  0  0
 23 26  1  0  0  0  0
  1 31  1  0  0  0  0
  2 32  1  0  0  0  0
  3 33  1  0  0  0  0
  4 34  1  0  0  0  0
  9 35  1  0  0  0  0
  9 36  1  0  0  0  0
 10 37  1  0  0  0  0
 13 38  1  0  0  0  0
 13 39  1  0  0  0  0
 14 40  1  0  0  0  0
 14 41  1  0  0  0  0
 15 42  1  0  0  0  0
 15 43  1  0  0  0  0
 16 44  1  0  0  0  0
 16 45  1  0  0  0  0
 17 46  1  0  0  0  0
 17 47  1  0  0  0  0
 18 48  1  0  0  0  0
 18 49  1  0  0  0  0
 19 50  1  0  0  0  0
 19 51  1  0  0  0  0
 20 52  1  0  0  0  0
 21 53  1  0  0  0  0
 21 54  1  0  0  0  0
 22 55  1  0  0  0  0
 22 56  1  0  0  0  0
 23 57  1  0  0  0  0
 23 58  1  0  0  0  0
 24 59  1  0  0  0  0
 26 60  1  0  0  0  0
 27 61  1  0  0  0  0
 27 62  1  0  0  0  0
 28 63  1  0  0  0  0
M  CHG  2  27   1  28   1
M  END
> <creator>
Jan, Ghent University

> <fragments>
x0104

> <real_space>
FALSE

> <SCR>
FALSE

> <BB>
FALSE

> <link>
https://covid.postera.ai/covid/submissions/6413aaf8-c5d7-46f1-8e3f-314432f79018

> <covalent_frag>
TRUE

> <covalent_warhead>
TRUE

> <acrylamide>
TRUE

> <acrylamide_adduct>
FALSE

> <chloroacetamide>
FALSE

> <chloroacetamide_adduct>
FALSE

> <vinylsulfonamide>
FALSE

> <vinylsulfonamide_adduct>
FALSE

> <in_molport_or_mcule>
FALSE

> <in_emolecules>
FALSE

> <Hybrid2>
-11.574834

> <Mpro-x0104_dock>
-11.574834

> <Mpro-x0692_dock>
-5.907384

> <site>
active-noncovalent

> <covalent_distance_min>
9.1846895

> <covalent_distance_mean>
10.804774

> <covalent_distance_stderr>
0.10849969

$$$$
MIH-UNI-e57-14
  -OEChem-04062011563D

 52 56  0     1  0  0  0  0  0999 V2000
   14.2043   -0.6445   24.0380 C   0  0  0  0  0  0  0  0  0  0  0  0
   13.6296   -1.7826   23.4724 C   0  0  0  0  0  0  0  0  0  0  0  0
   13.3930    0.4018   24.4770 C   0  0  0  0  0  0  0  0  0  0  0  0
    8.1048   -3.2148   26.8321 C   0  0  0  0  0  0  0  0  0  0  0  0
    8.8131   -3.8597   25.8232 C   0  0  0  0  0  0  0  0  0  0  0  0
    5.2190    0.8033   18.9031 C   0  0  0  0  0  0  0  0  0  0  0  0
    5.8290    0.7435   20.1547 C   0  0  0  0  0  0  0  0  0  0  0  0
   12.2435   -1.8744   23.3457 C   0  0  0  0  0  0  0  0  0  0  0  0
   12.0069    0.3100   24.3503 C   0  0  0  0  0  0  0  0  0  0  0  0
    7.9798   -1.8261   26.8159 C   0  0  0  0  0  0  0  0  0  0  0  0
    9.3941   -3.1160   24.7973 C   0  0  0  0  0  0  0  0  0  0  0  0
    5.9789    0.5218   17.7757 C   0  0  0  0  0  0  0  0  0  0  0  0
    9.3465   -0.1211   20.6241 C   0  0  0  0  0  0  0  0  0  0  0  0
    7.1895    0.3990   20.2053 C   0  0  0  0  0  0  0  0  0  0  0  0
   11.4322   -0.8281   23.7846 C   0  0  0  0  0  0  0  0  0  0  0  0
    8.5633   -1.0650   25.7908 C   0  0  0  0  0  0  0  0  0  0  0  0
    9.2715   -1.7167   24.7691 C   0  0  0  0  0  0  0  0  0  0  0  0
    8.1588    0.2297   21.2291 C   0  0  0  0  0  0  0  0  0  0  0  0
    7.8303    0.1418   18.9969 C   0  0  0  0  0  0  0  0  0  0  0  0
    9.4014    2.5281   24.8330 C   0  0  0  0  0  0  0  0  0  0  0  0
    8.4012    0.4320   25.8201 C   0  0  0  0  0  0  0  0  0  0  0  0
    9.9157   -0.9278   23.6461 C   0  0  1  0  0  0  0  0  0  0  0  0
    9.2752    0.4708   23.4617 C   0  0  1  0  0  0  0  0  0  0  0  0
    7.9409    0.4000   22.7044 C   0  0  0  0  0  0  0  0  0  0  0  0
    8.9938    3.2319   26.1043 C   0  0  0  0  0  0  0  0  0  0  0  0
    7.2897    0.1854   17.7645 N   0  0  0  0  0  0  0  0  0  0  0  0
    9.1358   -0.1711   19.2705 N   0  0  0  0  0  0  0  0  0  0  0  0
    9.0927    1.1639   24.7490 N   0  0  0  0  0  0  0  0  0  0  0  0
    9.9804    3.1652   23.9494 O   0  0  0  0  0  0  0  0  0  0  0  0
    8.7025    4.9136   25.6760 Cl  0  0  0  0  0  0  0  0  0  0  0  0
   15.2835   -0.5737   24.1378 H   0  0  0  0  0  0  0  0  0  0  0  0
   14.2611   -2.5979   23.1315 H   0  0  0  0  0  0  0  0  0  0  0  0
   13.8401    1.2876   24.9184 H   0  0  0  0  0  0  0  0  0  0  0  0
    7.6500   -3.7917   27.6320 H   0  0  0  0  0  0  0  0  0  0  0  0
    8.9127   -4.9411   25.8341 H   0  0  0  0  0  0  0  0  0  0  0  0
    4.1702    1.0651   18.8128 H   0  0  0  0  0  0  0  0  0  0  0  0
    5.2633    0.9570   21.0558 H   0  0  0  0  0  0  0  0  0  0  0  0
   11.8045   -2.7650   22.9035 H   0  0  0  0  0  0  0  0  0  0  0  0
   11.3827    1.1302   24.6950 H   0  0  0  0  0  0  0  0  0  0  0  0
    7.4241   -1.3356   27.6116 H   0  0  0  0  0  0  0  0  0  0  0  0
    9.9435   -3.6339   24.0148 H   0  0  0  0  0  0  0  0  0  0  0  0
    5.5196    0.5626   16.7915 H   0  0  0  0  0  0  0  0  0  0  0  0
   10.3227   -0.3403   21.0341 H   0  0  0  0  0  0  0  0  0  0  0  0
    7.3366    0.6808   25.7323 H   0  0  0  0  0  0  0  0  0  0  0  0
    8.7569    0.7972   26.7884 H   0  0  0  0  0  0  0  0  0  0  0  0
    9.7421   -1.4981   22.6905 H   0  0  0  0  0  0  0  0  0  0  0  0
    9.9430    1.0757   22.8333 H   0  0  0  0  0  0  0  0  0  0  0  0
    7.3712    1.3106   22.9010 H   0  0  0  0  0  0  0  0  0  0  0  0
    7.3511   -0.4302   23.0989 H   0  0  0  0  0  0  0  0  0  0  0  0
    9.8064    3.1641   26.8178 H   0  0  0  0  0  0  0  0  0  0  0  0
    8.0834    2.7790   26.4784 H   0  0  0  0  0  0  0  0  0  0  0  0
    9.8361   -0.4018   18.5795 H   0  0  0  0  0  0  0  0  0  0  0  0
  1  2  1  0  0  0  0
  1  3  2  0  0  0  0
  2  8  2  0  0  0  0
  3  9  1  0  0  0  0
  4  5  1  0  0  0  0
  4 10  2  0  0  0  0
  5 11  2  0  0  0  0
  6  7  2  0  0  0  0
  6 12  1  0  0  0  0
  7 14  1  0  0  0  0
  8 15  1  0  0  0  0
  9 15  2  0  0  0  0
 10 16  1  0  0  0  0
 11 17  1  0  0  0  0
 12 26  2  0  0  0  0
 13 18  2  0  0  0  0
 13 27  1  0  0  0  0
 14 18  1  0  0  0  0
 14 19  2  0  0  0  0
 15 22  1  0  0  0  0
 16 17  2  0  0  0  0
 16 21  1  0  0  0  0
 17 22  1  0  0  0  0
 18 24  1  0  0  0  0
 19 26  1  0  0  0  0
 19 27  1  0  0  0  0
 20 25  1  0  0  0  0
 20 28  1  0  0  0  0
 20 29  2  0  0  0  0
 21 28  1  0  0  0  0
 22 23  1  0  0  0  0
 23 24  1  0  0  0  0
 23 28  1  0  0  0  0
 25 30  1  0  0  0  0
  1 31  1  0  0  0  0
  2 32  1  0  0  0  0
  3 33  1  0  0  0  0
  4 34  1  0  0  0  0
  5 35  1  0  0  0  0
  6 36  1  0  0  0  0
  7 37  1  0  0  0  0
  8 38  1  0  0  0  0
  9 39  1  0  0  0  0
 10 40  1  0  0  0  0
 11 41  1  0  0  0  0
 12 42  1  0  0  0  0
 13 43  1  0  0  0  0
 21 44  1  0  0  0  0
 21 45  1  0  0  0  0
 22 46  1  0  0  0  0
 23 47  1  0  0  0  0
 24 48  1  0  0  0  0
 24 49  1  0  0  0  0
 25 50  1  0  0  0  0
 25 51  1  0  0  0  0
 27 52  1  0  0  0  0
M  END
> <creator>
Mihaela Smilova, University of Oxford

> <fragments>
x0678

> <real_space>
FALSE

> <SCR>
FALSE

> <BB>
FALSE

> <link>
https://covid.postera.ai/covid/submissions/e573136b-dbda-4fa9-8a0d-95e3d7d1615f

> <covalent_frag>
TRUE

> <covalent_warhead>
TRUE

> <acrylamide>
FALSE

> <acrylamide_adduct>
FALSE

> <chloroacetamide>
TRUE

> <chloroacetamide_adduct>
FALSE

> <vinylsulfonamide>
FALSE

> <vinylsulfonamide_adduct>
FALSE

> <in_molport_or_mcule>
FALSE

> <in_emolecules>
FALSE

> <Hybrid2>
-11.087617

> <Mpro-x0678_dock>
-11.087617

> <Mpro-x0072_dock>
-11.010629

> <Mpro-x1093_dock>
-8.914594

> <Mpro-x0874_dock>
-7.582057

> <Mpro-x0830_dock>
-6.419277

> <Mpro-x0107_dock>
-6.230401

> <Mpro-x0104_dock>
-4.828437

> <site>
active-noncovalent

> <covalent_distance_min>
7.770339

> <covalent_distance_mean>
8.368422

> <covalent_distance_stderr>
0.037536018

$$$$
MIH-UNI-e57-3
  -OEChem-04062011563D

 53 56  0     1  0  0  0  0  0999 V2000
    4.8005   -6.2579   24.0972 C   0  0  0  0  0  0  0  0  0  0  0  0
    5.5670   -5.5600   23.1687 C   0  0  0  0  0  0  0  0  0  0  0  0
    7.9308   -5.0217   27.6107 C   0  0  0  0  0  0  0  0  0  0  0  0
    5.2714    1.2765   19.1082 C   0  0  0  0  0  0  0  0  0  0  0  0
    5.1927   -6.3014   25.4354 C   0  0  0  0  0  0  0  0  0  0  0  0
    6.7288   -4.9028   23.5747 C   0  0  0  0  0  0  0  0  0  0  0  0
    6.7690   -5.6788   27.2047 C   0  0  0  0  0  0  0  0  0  0  0  0
    8.6974   -4.3238   26.6822 C   0  0  0  0  0  0  0  0  0  0  0  0
    5.6873    0.4864   20.1741 C   0  0  0  0  0  0  0  0  0  0  0  0
    5.7611    0.9749   17.8476 C   0  0  0  0  0  0  0  0  0  0  0  0
    6.9991   -0.7855   18.6517 C   0  0  0  0  0  0  0  0  0  0  0  0
    6.3592   -5.6457   25.8618 C   0  0  0  0  0  0  0  0  0  0  0  0
    7.1387   -4.9360   24.9176 C   0  0  0  0  0  0  0  0  0  0  0  0
    6.5677   -0.5662   19.9500 C   0  0  0  0  0  0  0  0  0  0  0  0
    8.3051   -4.2803   25.3440 C   0  0  0  0  0  0  0  0  0  0  0  0
    8.0441    1.5850   22.2732 C   0  0  0  0  0  0  0  0  0  0  0  0
    7.4568   -0.1331   23.9429 C   0  0  0  0  0  0  0  0  0  0  0  0
    8.2955   -1.1909   24.6399 C   0  0  0  0  0  0  0  0  0  0  0  0
    9.1269   -1.9741   22.4322 C   0  0  0  0  0  0  0  0  0  0  0  0
    8.3132   -0.8879   21.7209 C   0  0  1  0  0  0  0  0  0  0  0  0
    7.0350   -1.4382   21.0804 C   0  0  0  0  0  0  0  0  0  0  0  0
    9.1769   -3.5105   24.3962 C   0  0  0  0  0  0  0  0  0  0  0  0
    7.5004    2.5721   23.2761 C   0  0  0  0  0  0  0  0  0  0  0  0
    6.6172   -0.0394   17.5910 N   0  0  0  0  0  0  0  0  0  0  0  0
    8.0036    0.2343   22.6332 N   0  0  0  0  0  0  0  0  0  0  0  0
    8.4562   -2.3764   23.7221 N   0  3  1  0  0  0  0  0  0  0  0  0
    8.4830    2.0019   21.1979 O   0  0  0  0  0  0  0  0  0  0  0  0
    8.8418    3.0127   24.3266 Cl  0  0  0  0  0  0  0  0  0  0  0  0
    3.8962   -6.7694   23.7804 H   0  0  0  0  0  0  0  0  0  0  0  0
    5.2608   -5.5268   22.1271 H   0  0  0  0  0  0  0  0  0  0  0  0
    8.2367   -5.0552   28.6523 H   0  0  0  0  0  0  0  0  0  0  0  0
    4.5855    2.1022   19.2593 H   0  0  0  0  0  0  0  0  0  0  0  0
    4.5781   -6.8529   26.1439 H   0  0  0  0  0  0  0  0  0  0  0  0
    7.3005   -4.3685   22.8196 H   0  0  0  0  0  0  0  0  0  0  0  0
    6.1853   -6.2182   27.9477 H   0  0  0  0  0  0  0  0  0  0  0  0
    9.6004   -3.8159   27.0109 H   0  0  0  0  0  0  0  0  0  0  0  0
    5.3206    0.6980   21.1748 H   0  0  0  0  0  0  0  0  0  0  0  0
    5.4672    1.5615   16.9834 H   0  0  0  0  0  0  0  0  0  0  0  0
    7.6863   -1.5921   18.4158 H   0  0  0  0  0  0  0  0  0  0  0  0
    6.4327   -0.4914   23.7852 H   0  0  0  0  0  0  0  0  0  0  0  0
    7.3850    0.7492   24.5875 H   0  0  0  0  0  0  0  0  0  0  0  0
    9.2951   -0.8209   24.8945 H   0  0  0  0  0  0  0  0  0  0  0  0
    7.7937   -1.5439   25.5468 H   0  0  0  0  0  0  0  0  0  0  0  0
    9.2132   -2.8736   21.8127 H   0  0  0  0  0  0  0  0  0  0  0  0
   10.1322   -1.6154   22.6832 H   0  0  0  0  0  0  0  0  0  0  0  0
    8.9404   -0.5218   20.9031 H   0  0  0  0  0  0  0  0  0  0  0  0
    6.2559   -1.5166   21.8431 H   0  0  0  0  0  0  0  0  0  0  0  0
    7.2216   -2.4536   20.7209 H   0  0  0  0  0  0  0  0  0  0  0  0
   10.0362   -3.0727   24.9154 H   0  0  0  0  0  0  0  0  0  0  0  0
    9.5619   -4.1564   23.5996 H   0  0  0  0  0  0  0  0  0  0  0  0
    6.7181    2.0919   23.8523 H   0  0  0  0  0  0  0  0  0  0  0  0
    7.1385    3.4461   22.7472 H   0  0  0  0  0  0  0  0  0  0  0  0
    7.5158   -2.7262   23.4955 H   0  0  0  0  0  0  0  0  0  0  0  0
  1  2  1  0  0  0  0
  1  5  2  0  0  0  0
  2  6  2  0  0  0  0
  3  7  1  0  0  0  0
  3  8  2  0  0  0  0
  4  9  2  0  0  0  0
  4 10  1  0  0  0  0
  5 12  1  0  0  0  0
  6 13  1  0  0  0  0
  7 12  2  0  0  0  0
  8 15  1  0  0  0  0
  9 14  1  0  0  0  0
 10 24  2  0  0  0  0
 11 14  2  0  0  0  0
 11 24  1  0  0  0  0
 12 13  1  0  0  0  0
 13 15  2  0  0  0  0
 14 21  1  0  0  0  0
 15 22  1  0  0  0  0
 16 23  1  0  0  0  0
 16 25  1  0  0  0  0
 16 27  2  0  0  0  0
 17 18  1  0  0  0  0
 17 25  1  0  0  0  0
 18 26  1  0  0  0  0
 19 20  1  0  0  0  0
 19 26  1  0  0  0  0
 20 21  1  0  0  0  0
 20 25  1  0  0  0  0
 22 26  1  0  0  0  0
 23 28  1  0  0  0  0
  1 29  1  0  0  0  0
  2 30  1  0  0  0  0
  3 31  1  0  0  0  0
  4 32  1  0  0  0  0
  5 33  1  0  0  0  0
  6 34  1  0  0  0  0
  7 35  1  0  0  0  0
  8 36  1  0  0  0  0
  9 37  1  0  0  0  0
 10 38  1  0  0  0  0
 11 39  1  0  0  0  0
 17 40  1  0  0  0  0
 17 41  1  0  0  0  0
 18 42  1  0  0  0  0
 18 43  1  0  0  0  0
 19 44  1  0  0  0  0
 19 45  1  0  0  0  0
 20 46  1  0  0  0  0
 21 47  1  0  0  0  0
 21 48  1  0  0  0  0
 22 49  1  0  0  0  0
 22 50  1  0  0  0  0
 23 51  1  0  0  0  0
 23 52  1  0  0  0  0
 26 53  1  0  0  0  0
M  CHG  1  26   1
M  END
> <creator>
Mihaela Smilova, University of Oxford

> <fragments>
x0107

> <real_space>
FALSE

> <SCR>
FALSE

> <BB>
FALSE

> <link>
https://covid.postera.ai/covid/submissions/e573136b-dbda-4fa9-8a0d-95e3d7d1615f

> <covalent_frag>
TRUE

> <covalent_warhead>
TRUE

> <acrylamide>
FALSE

> <acrylamide_adduct>
FALSE

> <chloroacetamide>
TRUE

> <chloroacetamide_adduct>
FALSE

> <vinylsulfonamide>
FALSE

> <vinylsulfonamide_adduct>
FALSE

> <in_molport_or_mcule>
FALSE

> <in_emolecules>
FALSE

> <Hybrid2>
-11.060534

> <Mpro-x0107_dock>
-11.060534

> <Mpro-x0072_dock>
-8.491571

> <Mpro-x0678_dock>
-8.022866

> <Mpro-x0830_dock>
-7.501211

> <Mpro-x0104_dock>
-7.213211

> <Mpro-x0874_dock>
-6.678113

> <Mpro-x1093_dock>
-4.875708

> <site>
active-noncovalent

> <covalent_distance_min>
7.810507

> <covalent_distance_mean>
8.389954

> <covalent_distance_stderr>
0.02167577

$$$$
DAR-DIA-fb2-14
  -OEChem-04062011563D

 56 58  0     0  0  0  0  0  0999 V2000
   12.5592    1.0271   23.0149 C   0  0  0  0  0  0  0  0  0  0  0  0
   11.4458   -1.0396   22.3933 C   0  0  0  0  0  0  0  0  0  0  0  0
    9.6398    2.5875   24.5651 C   0  0  0  0  0  0  0  0  0  0  0  0
   11.3550    1.4973   23.5754 C   0  0  0  0  0  0  0  0  0  0  0  0
   10.2401   -0.5944   22.9430 C   0  0  0  0  0  0  0  0  0  0  0  0
   10.9705    2.6990   24.2335 C   0  0  0  0  0  0  0  0  0  0  0  0
   10.2255    0.6774   23.5266 C   0  0  0  0  0  0  0  0  0  0  0  0
   12.5886   -0.2430   22.4276 C   0  0  0  0  0  0  0  0  0  0  0  0
    7.5064   -5.4067   26.4855 C   0  0  0  0  0  0  0  0  0  0  0  0
   10.0504    6.1286   23.4512 C   0  0  0  0  0  0  0  0  0  0  0  0
    9.2969   -3.7976   25.9145 C   0  0  0  0  0  0  0  0  0  0  0  0
    6.9581   -3.0539   25.6910 C   0  0  0  0  0  0  0  0  0  0  0  0
    9.6191   -3.2704   24.5240 C   0  0  0  0  0  0  0  0  0  0  0  0
    7.2457   -2.5134   24.2967 C   0  0  0  0  0  0  0  0  0  0  0  0
    8.8593    6.5912   22.6795 C   0  0  0  0  0  0  0  0  0  0  0  0
   13.7200   -2.0050   21.3001 C   0  0  0  0  0  0  0  0  0  0  0  0
   11.8356    3.8622   24.5160 C   0  0  0  0  0  0  0  0  0  0  0  0
    9.0290   -1.4782   22.8883 C   0  0  0  0  0  0  0  0  0  0  0  0
    6.1950   -5.4980   27.2241 C   0  0  0  0  0  0  0  0  0  0  0  0
   12.1135    4.7502   23.2894 C   0  0  0  0  0  0  0  0  0  0  0  0
    9.1994    1.3647   24.1348 N   0  0  0  0  0  0  0  0  0  0  0  0
    7.8800   -4.1430   26.0306 N   0  0  0  0  0  0  0  0  0  0  0  0
   10.9068    5.3056   22.7377 N   0  0  0  0  0  0  0  0  0  0  0  0
    8.7008   -2.1099   24.2118 N   0  3  0  0  0  0  0  0  0  0  0  0
    8.1758   -6.4292   26.3168 O   0  0  0  0  0  0  0  0  0  0  0  0
   10.1939    6.4881   24.6139 O   0  0  0  0  0  0  0  0  0  0  0  0
   13.7502   -0.7045   21.8841 O   0  0  0  0  0  0  0  0  0  0  0  0
    4.9519   -5.7803   26.0105 Cl  0  0  0  0  0  0  0  0  0  0  0  0
   13.4556    1.6410   23.0371 H   0  0  0  0  0  0  0  0  0  0  0  0
   11.4946   -2.0237   21.9309 H   0  0  0  0  0  0  0  0  0  0  0  0
    8.9660    3.2666   25.0688 H   0  0  0  0  0  0  0  0  0  0  0  0
    9.9272   -4.6657   26.1314 H   0  0  0  0  0  0  0  0  0  0  0  0
    9.5146   -3.0399   26.6771 H   0  0  0  0  0  0  0  0  0  0  0  0
    7.0916   -2.2680   26.4443 H   0  0  0  0  0  0  0  0  0  0  0  0
    5.9154   -3.3719   25.7427 H   0  0  0  0  0  0  0  0  0  0  0  0
   10.6464   -2.8942   24.4816 H   0  0  0  0  0  0  0  0  0  0  0  0
    9.4726   -4.0332   23.7509 H   0  0  0  0  0  0  0  0  0  0  0  0
    7.0581   -3.2626   23.5194 H   0  0  0  0  0  0  0  0  0  0  0  0
    6.6471   -1.6184   24.0988 H   0  0  0  0  0  0  0  0  0  0  0  0
    8.0024    5.9055   22.7775 H   0  0  0  0  0  0  0  0  0  0  0  0
    8.4895    7.5703   23.0239 H   0  0  0  0  0  0  0  0  0  0  0  0
    9.0160    6.7060   21.5950 H   0  0  0  0  0  0  0  0  0  0  0  0
   14.7086   -2.2506   20.9046 H   0  0  0  0  0  0  0  0  0  0  0  0
   12.9787   -2.0278   20.4974 H   0  0  0  0  0  0  0  0  0  0  0  0
   13.4459   -2.7329   22.0674 H   0  0  0  0  0  0  0  0  0  0  0  0
   12.8110    3.5221   24.9165 H   0  0  0  0  0  0  0  0  0  0  0  0
   11.4105    4.4946   25.3214 H   0  0  0  0  0  0  0  0  0  0  0  0
    8.1416   -0.9152   22.5799 H   0  0  0  0  0  0  0  0  0  0  0  0
    9.1691   -2.2975   22.1749 H   0  0  0  0  0  0  0  0  0  0  0  0
    6.0119   -4.5584   27.7328 H   0  0  0  0  0  0  0  0  0  0  0  0
    6.2378   -6.3327   27.9144 H   0  0  0  0  0  0  0  0  0  0  0  0
   12.7574    5.5948   23.5542 H   0  0  0  0  0  0  0  0  0  0  0  0
   12.6075    4.1798   22.4960 H   0  0  0  0  0  0  0  0  0  0  0  0
    8.2575    1.0166   24.2494 H   0  0  0  0  0  0  0  0  0  0  0  0
   10.6696    5.0823   21.7723 H   0  0  0  0  0  0  0  0  0  0  0  0
    8.8616   -1.3885   24.9284 H   0  0  0  0  0  0  0  0  0  0  0  0
  1  4  1  0  0  0  0
  1  8  2  0  0  0  0
  2  5  2  0  0  0  0
  2  8  1  0  0  0  0
  3  6  2  0  0  0  0
  3 21  1  0  0  0  0
  4  6  1  0  0  0  0
  4  7  2  0  0  0  0
  5  7  1  0  0  0  0
  5 18  1  0  0  0  0
  6 17  1  0  0  0  0
  7 21  1  0  0  0  0
  8 27  1  0  0  0  0
  9 19  1  0  0  0  0
  9 22  1  0  0  0  0
  9 25  2  0  0  0  0
 10 15  1  0  0  0  0
 10 23  1  0  0  0  0
 10 26  2  0  0  0  0
 11 13  1  0  0  0  0
 11 22  1  0  0  0  0
 12 14  1  0  0  0  0
 12 22  1  0  0  0  0
 13 24  1  0  0  0  0
 14 24  1  0  0  0  0
 16 27  1  0  0  0  0
 17 20  1  0  0  0  0
 18 24  1  0  0  0  0
 19 28  1  0  0  0  0
 20 23  1  0  0  0  0
  1 29  1  0  0  0  0
  2 30  1  0  0  0  0
  3 31  1  0  0  0  0
 11 32  1  0  0  0  0
 11 33  1  0  0  0  0
 12 34  1  0  0  0  0
 12 35  1  0  0  0  0
 13 36  1  0  0  0  0
 13 37  1  0  0  0  0
 14 38  1  0  0  0  0
 14 39  1  0  0  0  0
 15 40  1  0  0  0  0
 15 41  1  0  0  0  0
 15 42  1  0  0  0  0
 16 43  1  0  0  0  0
 16 44  1  0  0  0  0
 16 45  1  0  0  0  0
 17 46  1  0  0  0  0
 17 47  1  0  0  0  0
 18 48  1  0  0  0  0
 18 49  1  0  0  0  0
 19 50  1  0  0  0  0
 19 51  1  0  0  0  0
 20 52  1  0  0  0  0
 20 53  1  0  0  0  0
 21 54  1  0  0  0  0
 23 55  1  0  0  0  0
 24 56  1  0  0  0  0
M  CHG  1  24   1
M  END
> <creator>
Daren Fearon, Diamond Light Source Ltd

> <fragments>
x0104

> <real_space>
FALSE

> <SCR>
FALSE

> <BB>
FALSE

> <link>
https://covid.postera.ai/covid/submissions/fb20be43-b2ad-4a19-a5ce-eb2fe8d462e2

> <covalent_frag>
TRUE

> <covalent_warhead>
TRUE

> <acrylamide>
FALSE

> <acrylamide_adduct>
FALSE

> <chloroacetamide>
TRUE

> <chloroacetamide_adduct>
FALSE

> <vinylsulfonamide>
FALSE

> <vinylsulfonamide_adduct>
FALSE

> <in_molport_or_mcule>
FALSE

> <in_emolecules>
FALSE

> <Hybrid2>
-10.935854

> <Mpro-x0104_dock>
-10.935854

> <Mpro-x0830_dock>
-7.625429

> <Mpro-x0195_dock>
-7.084499

> <Mpro-x0305_dock>
-0.713129

> <site>
active-noncovalent

> <covalent_distance_min>
9.250131

> <covalent_distance_mean>
10.5021

> <covalent_distance_stderr>
0.10211987

$$$$
MIH-UNI-e57-9
  -OEChem-04062011563D

 43 45  0     0  0  0  0  0  0999 V2000
    8.2488   -4.6847   25.1137 C   0  0  0  0  0  0  0  0  0  0  0  0
    9.2744   -4.0413   25.8003 C   0  0  0  0  0  0  0  0  0  0  0  0
   12.3835   -1.7418   21.7240 C   0  0  0  0  0  0  0  0  0  0  0  0
   13.2476   -0.6548   21.8552 C   0  0  0  0  0  0  0  0  0  0  0  0
    7.6168   -4.0467   24.0467 C   0  0  0  0  0  0  0  0  0  0  0  0
    9.6670   -2.7580   25.4230 C   0  0  0  0  0  0  0  0  0  0  0  0
   11.1671   -1.7522   22.4066 C   0  0  0  0  0  0  0  0  0  0  0  0
   12.8954    0.4219   22.6691 C   0  0  0  0  0  0  0  0  0  0  0  0
    8.0056   -2.7576   23.6520 C   0  0  0  0  0  0  0  0  0  0  0  0
    9.0361   -2.1038   24.3525 C   0  0  0  0  0  0  0  0  0  0  0  0
   10.8148   -0.6755   23.2204 C   0  0  0  0  0  0  0  0  0  0  0  0
   11.6790    0.4115   23.3517 C   0  0  0  0  0  0  0  0  0  0  0  0
    7.7896   -0.2977   20.7865 C   0  0  0  0  0  0  0  0  0  0  0  0
   11.2862    2.9005   23.4762 C   0  0  0  0  0  0  0  0  0  0  0  0
    7.2948   -2.1080   22.4892 C   0  0  0  0  0  0  0  0  0  0  0  0
    8.3818    0.0192   23.1643 C   0  0  0  0  0  0  0  0  0  0  0  0
    9.4808   -0.7085   23.9551 C   0  0  1  0  0  0  0  0  0  0  0  0
   11.3239    1.5753   24.2179 C   0  0  0  0  0  0  0  0  0  0  0  0
    6.5979   -0.7128   19.9598 C   0  0  0  0  0  0  0  0  0  0  0  0
    7.8556   -0.8128   22.0831 N   0  0  0  0  0  0  0  0  0  0  0  0
   10.8702    2.7657   22.1684 N   0  0  0  0  0  0  0  0  0  0  0  0
    8.6360    0.4519   20.2937 O   0  0  0  0  0  0  0  0  0  0  0  0
   11.5951    3.9751   23.9833 O   0  0  0  0  0  0  0  0  0  0  0  0
    5.7209    0.7613   19.5663 Cl  0  0  0  0  0  0  0  0  0  0  0  0
    7.9408   -5.6837   25.4082 H   0  0  0  0  0  0  0  0  0  0  0  0
    9.7679   -4.5379   26.6306 H   0  0  0  0  0  0  0  0  0  0  0  0
   12.6584   -2.5801   21.0909 H   0  0  0  0  0  0  0  0  0  0  0  0
   14.1948   -0.6476   21.3237 H   0  0  0  0  0  0  0  0  0  0  0  0
    6.8176   -4.5617   23.5189 H   0  0  0  0  0  0  0  0  0  0  0  0
   10.4682   -2.2672   25.9701 H   0  0  0  0  0  0  0  0  0  0  0  0
   10.5015   -2.6046   22.2989 H   0  0  0  0  0  0  0  0  0  0  0  0
   13.5753    1.2644   22.7646 H   0  0  0  0  0  0  0  0  0  0  0  0
    7.3104   -2.7987   21.6414 H   0  0  0  0  0  0  0  0  0  0  0  0
    6.2495   -1.9236   22.7647 H   0  0  0  0  0  0  0  0  0  0  0  0
    7.5327    0.2468   23.8223 H   0  0  0  0  0  0  0  0  0  0  0  0
    8.7504    0.9764   22.7783 H   0  0  0  0  0  0  0  0  0  0  0  0
    9.6332   -0.1182   24.8990 H   0  0  0  0  0  0  0  0  0  0  0  0
   10.3391    1.4185   24.6857 H   0  0  0  0  0  0  0  0  0  0  0  0
   12.0421    1.6652   25.0483 H   0  0  0  0  0  0  0  0  0  0  0  0
    5.9731   -1.3715   20.5516 H   0  0  0  0  0  0  0  0  0  0  0  0
    6.9498   -1.1907   19.0531 H   0  0  0  0  0  0  0  0  0  0  0  0
   10.8067    3.5876   21.5764 H   0  0  0  0  0  0  0  0  0  0  0  0
   10.6267    1.8565   21.7895 H   0  0  0  0  0  0  0  0  0  0  0  0
  1  2  1  0  0  0  0
  1  5  2  0  0  0  0
  2  6  2  0  0  0  0
  3  4  1  0  0  0  0
  3  7  2  0  0  0  0
  4  8  2  0  0  0  0
  5  9  1  0  0  0  0
  6 10  1  0  0  0  0
  7 11  1  0  0  0  0
  8 12  1  0  0  0  0
  9 10  2  0  0  0  0
  9 15  1  0  0  0  0
 10 17  1  0  0  0  0
 11 12  2  0  0  0  0
 11 17  1  0  0  0  0
 12 18  1  0  0  0  0
 13 19  1  0  0  0  0
 13 20  1  0  0  0  0
 13 22  2  0  0  0  0
 14 18  1  0  0  0  0
 14 21  1  0  0  0  0
 14 23  2  0  0  0  0
 15 20  1  0  0  0  0
 16 17  1  0  0  0  0
 16 20  1  0  0  0  0
 19 24  1  0  0  0  0
  1 25  1  0  0  0  0
  2 26  1  0  0  0  0
  3 27  1  0  0  0  0
  4 28  1  0  0  0  0
  5 29  1  0  0  0  0
  6 30  1  0  0  0  0
  7 31  1  0  0  0  0
  8 32  1  0  0  0  0
 15 33  1  0  0  0  0
 15 34  1  0  0  0  0
 16 35  1  0  0  0  0
 16 36  1  0  0  0  0
 17 37  1  0  0  0  0
 18 38  1  0  0  0  0
 18 39  1  0  0  0  0
 19 40  1  0  0  0  0
 19 41  1  0  0  0  0
 21 42  1  0  0  0  0
 21 43  1  0  0  0  0
M  END
> <creator>
Mihaela Smilova, University of Oxford

> <fragments>
x0874

> <real_space>
FALSE

> <SCR>
FALSE

> <BB>
FALSE

> <link>
https://covid.postera.ai/covid/submissions/e573136b-dbda-4fa9-8a0d-95e3d7d1615f

> <covalent_frag>
TRUE

> <covalent_warhead>
TRUE

> <acrylamide>
FALSE

> <acrylamide_adduct>
FALSE

> <chloroacetamide>
TRUE

> <chloroacetamide_adduct>
FALSE

> <vinylsulfonamide>
FALSE

> <vinylsulfonamide_adduct>
FALSE

> <in_molport_or_mcule>
FALSE

> <in_emolecules>
FALSE

> <Hybrid2>
-10.770145

> <Mpro-x0874_dock>
-10.770145

> <Mpro-x0678_dock>
-9.948598

> <Mpro-x0830_dock>
-9.034956

> <Mpro-x0072_dock>
-8.656001

> <Mpro-x0107_dock>
-8.200632

> <Mpro-x1093_dock>
-7.534136

> <Mpro-x0104_dock>
-5.039711

> <site>
active-noncovalent

$$$$
NIR-THE-c33-5
  -OEChem-04062011563D

 43 45  0     0  0  0  0  0  0999 V2000
    8.2488   -4.6847   25.1137 C   0  0  0  0  0  0  0  0  0  0  0  0
    9.2744   -4.0413   25.8003 C   0  0  0  0  0  0  0  0  0  0  0  0
   12.3835   -1.7418   21.7240 C   0  0  0  0  0  0  0  0  0  0  0  0
   13.2476   -0.6548   21.8552 C   0  0  0  0  0  0  0  0  0  0  0  0
    7.6168   -4.0467   24.0467 C   0  0  0  0  0  0  0  0  0  0  0  0
    9.6670   -2.7580   25.4230 C   0  0  0  0  0  0  0  0  0  0  0  0
   11.1671   -1.7522   22.4066 C   0  0  0  0  0  0  0  0  0  0  0  0
   12.8954    0.4219   22.6691 C   0  0  0  0  0  0  0  0  0  0  0  0
    8.0056   -2.7576   23.6520 C   0  0  0  0  0  0  0  0  0  0  0  0
    9.0361   -2.1038   24.3525 C   0  0  0  0  0  0  0  0  0  0  0  0
   10.8148   -0.6755   23.2204 C   0  0  0  0  0  0  0  0  0  0  0  0
   11.6790    0.4115   23.3517 C   0  0  0  0  0  0  0  0  0  0  0  0
    7.7896   -0.2977   20.7865 C   0  0  0  0  0  0  0  0  0  0  0  0
   11.2862    2.9005   23.4762 C   0  0  0  0  0  0  0  0  0  0  0  0
    7.2948   -2.1080   22.4892 C   0  0  0  0  0  0  0  0  0  0  0  0
    8.3818    0.0192   23.1643 C   0  0  0  0  0  0  0  0  0  0  0  0
    9.4808   -0.7085   23.9551 C   0  0  1  0  0  0  0  0  0  0  0  0
   11.3239    1.5753   24.2179 C   0  0  0  0  0  0  0  0  0  0  0  0
    6.5979   -0.7128   19.9598 C   0  0  0  0  0  0  0  0  0  0  0  0
    7.8556   -0.8128   22.0831 N   0  0  0  0  0  0  0  0  0  0  0  0
   10.8702    2.7657   22.1684 N   0  0  0  0  0  0  0  0  0  0  0  0
    8.6360    0.4519   20.2937 O   0  0  0  0  0  0  0  0  0  0  0  0
   11.5951    3.9751   23.9833 O   0  0  0  0  0  0  0  0  0  0  0  0
    5.7209    0.7613   19.5663 Cl  0  0  0  0  0  0  0  0  0  0  0  0
    7.9408   -5.6837   25.4082 H   0  0  0  0  0  0  0  0  0  0  0  0
    9.7679   -4.5379   26.6306 H   0  0  0  0  0  0  0  0  0  0  0  0
   12.6584   -2.5801   21.0909 H   0  0  0  0  0  0  0  0  0  0  0  0
   14.1948   -0.6476   21.3237 H   0  0  0  0  0  0  0  0  0  0  0  0
    6.8176   -4.5617   23.5189 H   0  0  0  0  0  0  0  0  0  0  0  0
   10.4682   -2.2672   25.9701 H   0  0  0  0  0  0  0  0  0  0  0  0
   10.5015   -2.6046   22.2989 H   0  0  0  0  0  0  0  0  0  0  0  0
   13.5753    1.2644   22.7646 H   0  0  0  0  0  0  0  0  0  0  0  0
    7.3104   -2.7987   21.6414 H   0  0  0  0  0  0  0  0  0  0  0  0
    6.2495   -1.9236   22.7647 H   0  0  0  0  0  0  0  0  0  0  0  0
    7.5327    0.2468   23.8223 H   0  0  0  0  0  0  0  0  0  0  0  0
    8.7504    0.9764   22.7783 H   0  0  0  0  0  0  0  0  0  0  0  0
    9.6332   -0.1182   24.8990 H   0  0  0  0  0  0  0  0  0  0  0  0
   10.3391    1.4185   24.6857 H   0  0  0  0  0  0  0  0  0  0  0  0
   12.0421    1.6652   25.0483 H   0  0  0  0  0  0  0  0  0  0  0  0
    5.9731   -1.3715   20.5516 H   0  0  0  0  0  0  0  0  0  0  0  0
    6.9498   -1.1907   19.0531 H   0  0  0  0  0  0  0  0  0  0  0  0
   10.8067    3.5876   21.5764 H   0  0  0  0  0  0  0  0  0  0  0  0
   10.6267    1.8565   21.7895 H   0  0  0  0  0  0  0  0  0  0  0  0
  1  2  1  0  0  0  0
  1  5  2  0  0  0  0
  2  6  2  0  0  0  0
  3  4  1  0  0  0  0
  3  7  2  0  0  0  0
  4  8  2  0  0  0  0
  5  9  1  0  0  0  0
  6 10  1  0  0  0  0
  7 11  1  0  0  0  0
  8 12  1  0  0  0  0
  9 10  2  0  0  0  0
  9 15  1  0  0  0  0
 10 17  1  0  0  0  0
 11 12  2  0  0  0  0
 11 17  1  0  0  0  0
 12 18  1  0  0  0  0
 13 19  1  0  0  0  0
 13 20  1  0  0  0  0
 13 22  2  0  0  0  0
 14 18  1  0  0  0  0
 14 21  1  0  0  0  0
 14 23  2  0  0  0  0
 15 20  1  0  0  0  0
 16 17  1  0  0  0  0
 16 20  1  0  0  0  0
 19 24  1  0  0  0  0
  1 25  1  0  0  0  0
  2 26  1  0  0  0  0
  3 27  1  0  0  0  0
  4 28  1  0  0  0  0
  5 29  1  0  0  0  0
  6 30  1  0  0  0  0
  7 31  1  0  0  0  0
  8 32  1  0  0  0  0
 15 33  1  0  0  0  0
 15 34  1  0  0  0  0
 16 35  1  0  0  0  0
 16 36  1  0  0  0  0
 17 37  1  0  0  0  0
 18 38  1  0  0  0  0
 18 39  1  0  0  0  0
 19 40  1  0  0  0  0
 19 41  1  0  0  0  0
 21 42  1  0  0  0  0
 21 43  1  0  0  0  0
M  END
> <creator>
Nir London, The Weizmann Institute of Science

> <fragments>
x0874

> <real_space>
FALSE

> <SCR>
FALSE

> <BB>
FALSE

> <link>
https://covid.postera.ai/covid/submissions/c331be7a-6ba0-49a5-9756-17aee0dabcbf

> <covalent_frag>
FALSE

> <covalent_warhead>
TRUE

> <acrylamide>
FALSE

> <acrylamide_adduct>
FALSE

> <chloroacetamide>
TRUE

> <chloroacetamide_adduct>
FALSE

> <vinylsulfonamide>
FALSE

> <vinylsulfonamide_adduct>
FALSE

> <in_molport_or_mcule>
FALSE

> <in_emolecules>
FALSE

> <Hybrid2>
-10.770145

> <Mpro-x0874_dock>
-10.770145

> <Mpro-x0195_dock>
-7.911218

> <Mpro-x0104_dock>
-5.039711

> <Mpro-x0305_dock>
-4.884389

> <site>
active-noncovalent

$$$$
MIH-UNI-e57-2
  -OEChem-04062011563D

 50 53  0     1  0  0  0  0  0999 V2000
    4.5832   -6.3478   25.4950 C   0  0  0  0  0  0  0  0  0  0  0  0
    4.5082   -5.5734   24.3411 C   0  0  0  0  0  0  0  0  0  0  0  0
    8.7759   -4.1806   26.6768 C   0  0  0  0  0  0  0  0  0  0  0  0
    5.0114    1.6297   18.9039 C   0  0  0  0  0  0  0  0  0  0  0  0
    5.6616   -6.1986   26.3675 C   0  0  0  0  0  0  0  0  0  0  0  0
    5.5112   -4.6468   24.0553 C   0  0  0  0  0  0  0  0  0  0  0  0
    7.7729   -5.1072   26.9627 C   0  0  0  0  0  0  0  0  0  0  0  0
    5.4400    1.0660   20.1005 C   0  0  0  0  0  0  0  0  0  0  0  0
    8.7009   -3.4063   25.5229 C   0  0  0  0  0  0  0  0  0  0  0  0
    5.7404    1.3528   17.7587 C   0  0  0  0  0  0  0  0  0  0  0  0
    7.2278    0.0385   18.9156 C   0  0  0  0  0  0  0  0  0  0  0  0
    6.6802   -5.2707   26.0957 C   0  0  0  0  0  0  0  0  0  0  0  0
    6.6039   -4.4833   24.9222 C   0  0  0  0  0  0  0  0  0  0  0  0
    6.5686    0.2540   20.1151 C   0  0  0  0  0  0  0  0  0  0  0  0
    7.6225   -3.5555   24.6503 C   0  0  0  0  0  0  0  0  0  0  0  0
    8.6209    1.3553   22.2505 C   0  0  0  0  0  0  0  0  0  0  0  0
    6.5691    0.7059   23.5977 C   0  0  0  0  0  0  0  0  0  0  0  0
    6.4621   -0.6323   24.3200 C   0  0  0  0  0  0  0  0  0  0  0  0
    6.0377   -1.3875   21.9413 C   0  0  0  0  0  0  0  0  0  0  0  0
    7.0625   -0.3778   21.4073 C   0  0  2  0  0  0  0  0  0  0  0  0
    7.6038   -2.6895   23.4253 C   0  0  0  0  0  0  0  0  0  0  0  0
    9.0013    2.3016   23.3604 C   0  0  0  0  0  0  0  0  0  0  0  0
    6.8415    0.5689   17.7336 N   0  0  0  0  0  0  0  0  0  0  0  0
    7.4442    0.6212   22.4251 N   0  0  0  0  0  0  0  0  0  0  0  0
    6.3928   -1.7966   23.3521 N   0  3  1  0  0  0  0  0  0  0  0  0
    9.3445    1.2695   21.2547 O   0  0  0  0  0  0  0  0  0  0  0  0
    9.9770    1.3780   24.4974 Cl  0  0  0  0  0  0  0  0  0  0  0  0
    3.8020   -7.0690   25.7169 H   0  0  0  0  0  0  0  0  0  0  0  0
    3.6682   -5.6903   23.6624 H   0  0  0  0  0  0  0  0  0  0  0  0
    9.6158   -4.0641   27.3556 H   0  0  0  0  0  0  0  0  0  0  0  0
    4.1342    2.2656   18.8688 H   0  0  0  0  0  0  0  0  0  0  0  0
    5.6996   -6.8145   27.2637 H   0  0  0  0  0  0  0  0  0  0  0  0
    5.4167   -4.0606   23.1441 H   0  0  0  0  0  0  0  0  0  0  0  0
    7.8522   -5.7018   27.8704 H   0  0  0  0  0  0  0  0  0  0  0  0
    4.8889    1.2646   21.0157 H   0  0  0  0  0  0  0  0  0  0  0  0
    9.4886   -2.6878   25.3112 H   0  0  0  0  0  0  0  0  0  0  0  0
    5.4473    1.7688   16.8004 H   0  0  0  0  0  0  0  0  0  0  0  0
    8.1143   -0.5861   18.8651 H   0  0  0  0  0  0  0  0  0  0  0  0
    5.5780    1.0443   23.2593 H   0  0  0  0  0  0  0  0  0  0  0  0
    6.9173    1.4611   24.3116 H   0  0  0  0  0  0  0  0  0  0  0  0
    7.3280   -0.8059   24.9873 H   0  0  0  0  0  0  0  0  0  0  0  0
    5.5438   -0.6671   24.9345 H   0  0  0  0  0  0  0  0  0  0  0  0
    5.0321   -0.9566   21.9738 H   0  0  0  0  0  0  0  0  0  0  0  0
    6.0250   -2.2980   21.3329 H   0  0  0  0  0  0  0  0  0  0  0  0
    7.9607   -0.9551   21.0988 H   0  0  0  0  0  0  0  0  0  0  0  0
    8.4805   -2.0339   23.3904 H   0  0  0  0  0  0  0  0  0  0  0  0
    7.6036   -3.2953   22.5127 H   0  0  0  0  0  0  0  0  0  0  0  0
    8.0988    2.6550   23.8457 H   0  0  0  0  0  0  0  0  0  0  0  0
    9.5846    3.1149   22.9441 H   0  0  0  0  0  0  0  0  0  0  0  0
    5.5929   -2.3981   23.6915 H   0  0  0  0  0  0  0  0  0  0  0  0
  1  2  1  0  0  0  0
  1  5  2  0  0  0  0
  2  6  2  0  0  0  0
  3  7  1  0  0  0  0
  3  9  2  0  0  0  0
  4  8  2  0  0  0  0
  4 10  1  0  0  0  0
  5 12  1  0  0  0  0
  6 13  1  0  0  0  0
  7 12  2  0  0  0  0
  8 14  1  0  0  0  0
  9 15  1  0  0  0  0
 10 23  2  0  0  0  0
 11 14  2  0  0  0  0
 11 23  1  0  0  0  0
 12 13  1  0  0  0  0
 13 15  2  0  0  0  0
 14 20  1  0  0  0  0
 15 21  1  0  0  0  0
 16 22  1  0  0  0  0
 16 24  1  0  0  0  0
 16 26  2  0  0  0  0
 17 18  1  0  0  0  0
 17 24  1  0  0  0  0
 18 25  1  0  0  0  0
 19 20  1  0  0  0  0
 19 25  1  0  0  0  0
 20 24  1  0  0  0  0
 21 25  1  0  0  0  0
 22 27  1  0  0  0  0
  1 28  1  0  0  0  0
  2 29  1  0  0  0  0
  3 30  1  0  0  0  0
  4 31  1  0  0  0  0
  5 32  1  0  0  0  0
  6 33  1  0  0  0  0
  7 34  1  0  0  0  0
  8 35  1  0  0  0  0
  9 36  1  0  0  0  0
 10 37  1  0  0  0  0
 11 38  1  0  0  0  0
 17 39  1  0  0  0  0
 17 40  1  0  0  0  0
 18 41  1  0  0  0  0
 18 42  1  0  0  0  0
 19 43  1  0  0  0  0
 19 44  1  0  0  0  0
 20 45  1  0  0  0  0
 21 46  1  0  0  0  0
 21 47  1  0  0  0  0
 22 48  1  0  0  0  0
 22 49  1  0  0  0  0
 25 50  1  0  0  0  0
M  CHG  1  25   1
M  END
> <creator>
Mihaela Smilova, University of Oxford

> <fragments>
x0107

> <real_space>
FALSE

> <SCR>
FALSE

> <BB>
FALSE

> <link>
https://covid.postera.ai/covid/submissions/e573136b-dbda-4fa9-8a0d-95e3d7d1615f

> <covalent_frag>
TRUE

> <covalent_warhead>
TRUE

> <acrylamide>
FALSE

> <acrylamide_adduct>
FALSE

> <chloroacetamide>
TRUE

> <chloroacetamide_adduct>
FALSE

> <vinylsulfonamide>
FALSE

> <vinylsulfonamide_adduct>
FALSE

> <in_molport_or_mcule>
FALSE

> <in_emolecules>
FALSE

> <Hybrid2>
-10.770021

> <Mpro-x0107_dock>
-10.770021

> <Mpro-x0678_dock>
-9.806166

> <Mpro-x0874_dock>
-9.001852

> <Mpro-x0830_dock>
-8.452376

> <Mpro-x0104_dock>
-7.578707

> <Mpro-x1093_dock>
-7.371076

> <Mpro-x0072_dock>
-7.151866

> <site>
active-noncovalent

> <covalent_distance_min>
6.432491

> <covalent_distance_mean>
7.221934

> <covalent_distance_stderr>
0.049288943

$$$$
PAU-WEI-b9b-2
  -OEChem-04062011563D

 54 56  0     1  0  0  0  0  0999 V2000
    7.9646    1.7848   21.9774 C   0  0  0  0  0  0  0  0  0  0  0  0
    9.1786    2.4658   22.0674 C   0  0  0  0  0  0  0  0  0  0  0  0
   11.5553    0.1451   24.5187 C   0  0  0  0  0  0  0  0  0  0  0  0
   12.0049   -0.6058   22.2668 C   0  0  0  0  0  0  0  0  0  0  0  0
   10.7747   -0.9893   24.7411 C   0  0  0  0  0  0  0  0  0  0  0  0
   11.2242   -1.7402   22.4892 C   0  0  0  0  0  0  0  0  0  0  0  0
    7.3956    1.2197   23.1188 C   0  0  0  0  0  0  0  0  0  0  0  0
    9.2549    2.0164   24.4400 C   0  0  0  0  0  0  0  0  0  0  0  0
   12.1704    0.3368   23.2815 C   0  0  0  0  0  0  0  0  0  0  0  0
   10.6092   -1.9319   23.7264 C   0  0  0  0  0  0  0  0  0  0  0  0
    9.8237    2.5815   23.2986 C   0  0  0  0  0  0  0  0  0  0  0  0
    8.0408    1.3355   24.3500 C   0  0  0  0  0  0  0  0  0  0  0  0
   10.7832    7.5242   26.2589 C   0  0  0  0  0  0  0  0  0  0  0  0
   12.1197    5.8636   25.0051 C   0  0  0  0  0  0  0  0  0  0  0  0
    9.6681    5.5802   25.0584 C   0  0  0  0  0  0  0  0  0  0  0  0
   12.1319    5.6409   23.4999 C   0  0  0  0  0  0  0  0  0  0  0  0
    9.6471    5.3508   23.5530 C   0  0  0  0  0  0  0  0  0  0  0  0
   13.0143    1.5626   23.0403 C   0  0  0  0  0  0  0  0  0  0  0  0
    9.4156    8.0023   26.6771 C   0  0  0  0  0  0  0  0  0  0  0  0
   12.2652    2.7853   22.4825 C   0  0  0  0  0  0  0  0  0  0  0  0
   11.1406    3.3189   23.3951 C   0  0  1  0  0  0  0  0  0  0  0  0
    9.7757   -3.1454   23.9656 C   0  0  0  0  0  0  0  0  0  0  0  0
   10.8286    6.3860   25.4539 N   0  0  0  0  0  0  0  0  0  0  0  0
   10.9636    4.7792   23.0809 N   0  3  0  0  0  0  0  0  0  0  0  0
   11.7799    8.1463   26.6353 O   0  0  0  0  0  0  0  0  0  0  0  0
    9.2380   -3.2017   25.2200 F   0  0  0  0  0  0  0  0  0  0  0  0
    8.7111   -3.2534   23.1168 F   0  0  0  0  0  0  0  0  0  0  0  0
   10.4811   -4.3044   23.8175 F   0  0  0  0  0  0  0  0  0  0  0  0
    7.3389    0.6371   25.7577 Cl  0  0  0  0  0  0  0  0  0  0  0  0
    9.0250    7.1641   28.1747 Cl  0  0  0  0  0  0  0  0  0  0  0  0
    7.4626    1.6948   21.0184 H   0  0  0  0  0  0  0  0  0  0  0  0
    9.6146    2.9029   21.1728 H   0  0  0  0  0  0  0  0  0  0  0  0
   11.6783    0.8746   25.3149 H   0  0  0  0  0  0  0  0  0  0  0  0
   12.4815   -0.4648   21.3002 H   0  0  0  0  0  0  0  0  0  0  0  0
   10.3005   -1.1312   25.7086 H   0  0  0  0  0  0  0  0  0  0  0  0
   11.1003   -2.4696   21.6931 H   0  0  0  0  0  0  0  0  0  0  0  0
    6.4491    0.6916   23.0337 H   0  0  0  0  0  0  0  0  0  0  0  0
    9.7616    2.1098   25.3978 H   0  0  0  0  0  0  0  0  0  0  0  0
   12.3565    4.9238   25.5155 H   0  0  0  0  0  0  0  0  0  0  0  0
   12.8881    6.5914   25.2962 H   0  0  0  0  0  0  0  0  0  0  0  0
    8.7703    6.1248   25.3779 H   0  0  0  0  0  0  0  0  0  0  0  0
    9.6510    4.6140   25.5672 H   0  0  0  0  0  0  0  0  0  0  0  0
   12.0376    6.6000   22.9669 H   0  0  0  0  0  0  0  0  0  0  0  0
   13.0559    5.1399   23.1666 H   0  0  0  0  0  0  0  0  0  0  0  0
    8.8501    4.6486   23.2568 H   0  0  0  0  0  0  0  0  0  0  0  0
    9.4952    6.3027   23.0202 H   0  0  0  0  0  0  0  0  0  0  0  0
   13.8007    1.2801   22.3277 H   0  0  0  0  0  0  0  0  0  0  0  0
   13.5396    1.8502   23.9598 H   0  0  0  0  0  0  0  0  0  0  0  0
    8.7004    7.7393   25.9060 H   0  0  0  0  0  0  0  0  0  0  0  0
    9.4544    9.0719   26.8482 H   0  0  0  0  0  0  0  0  0  0  0  0
   13.0149    3.5805   22.3663 H   0  0  0  0  0  0  0  0  0  0  0  0
   11.8888    2.5803   21.4732 H   0  0  0  0  0  0  0  0  0  0  0  0
   11.4972    3.3089   24.4322 H   0  0  0  0  0  0  0  0  0  0  0  0
   10.9340    4.8335   22.0220 H   0  0  0  0  0  0  0  0  0  0  0  0
  1  2  2  0  0  0  0
  1  7  1  0  0  0  0
  2 11  1  0  0  0  0
  3  5  2  0  0  0  0
  3  9  1  0  0  0  0
  4  6  1  0  0  0  0
  4  9  2  0  0  0  0
  5 10  1  0  0  0  0
  6 10  2  0  0  0  0
  7 12  2  0  0  0  0
  8 11  2  0  0  0  0
  8 12  1  0  0  0  0
  9 18  1  0  0  0  0
 10 22  1  0  0  0  0
 11 21  1  0  0  0  0
 12 29  1  0  0  0  0
 13 19  1  0  0  0  0
 13 23  1  0  0  0  0
 13 25  2  0  0  0  0
 14 16  1  0  0  0  0
 14 23  1  0  0  0  0
 15 17  1  0  0  0  0
 15 23  1  0  0  0  0
 16 24  1  0  0  0  0
 17 24  1  0  0  0  0
 18 20  1  0  0  0  0
 19 30  1  0  0  0  0
 20 21  1  0  0  0  0
 21 24  1  0  0  0  0
 22 26  1  0  0  0  0
 22 27  1  0  0  0  0
 22 28  1  0  0  0  0
  1 31  1  0  0  0  0
  2 32  1  0  0  0  0
  3 33  1  0  0  0  0
  4 34  1  0  0  0  0
  5 35  1  0  0  0  0
  6 36  1  0  0  0  0
  7 37  1  0  0  0  0
  8 38  1  0  0  0  0
 14 39  1  0  0  0  0
 14 40  1  0  0  0  0
 15 41  1  0  0  0  0
 15 42  1  0  0  0  0
 16 43  1  0  0  0  0
 16 44  1  0  0  0  0
 17 45  1  0  0  0  0
 17 46  1  0  0  0  0
 18 47  1  0  0  0  0
 18 48  1  0  0  0  0
 19 49  1  0  0  0  0
 19 50  1  0  0  0  0
 20 51  1  0  0  0  0
 20 52  1  0  0  0  0
 21 53  1  0  0  0  0
 24 54  1  0  0  0  0
M  CHG  1  24   1
M  END
> <creator>
Paul Gehrtz, Weizmann Institute of Science

> <fragments>
x0104

> <real_space>
FALSE

> <SCR>
FALSE

> <BB>
FALSE

> <link>
https://covid.postera.ai/covid/submissions/b9b69149-728b-48ac-b50d-9dc89a43712c

> <covalent_frag>
TRUE

> <covalent_warhead>
TRUE

> <acrylamide>
FALSE

> <acrylamide_adduct>
FALSE

> <chloroacetamide>
TRUE

> <chloroacetamide_adduct>
FALSE

> <vinylsulfonamide>
FALSE

> <vinylsulfonamide_adduct>
FALSE

> <in_molport_or_mcule>
FALSE

> <in_emolecules>
FALSE

> <Hybrid2>
-10.621989

> <Mpro-x0104_dock>
-10.621989

> <Mpro-x1385_dock>
-4.074741

> <Mpro-x0305_dock>
-3.76629

> <Mpro-x1380_dock>
-1.967539

> <Mpro-x0770_dock>
0.157652

> <site>
active-noncovalent

> <covalent_distance_min>
13.879403

> <covalent_distance_mean>
14.980148

> <covalent_distance_stderr>
0.078480236

$$$$
NIM-UNI-7ba-4
  -OEChem-04062011563D

 37 39  0     0  0  0  0  0  0999 V2000
    5.9043    1.2015   19.0573 C   0  0  0  0  0  0  0  0  0  0  0  0
    6.4493    0.6386   20.2059 C   0  0  0  0  0  0  0  0  0  0  0  0
   12.6471   -0.8088   22.0852 C   0  0  0  0  0  0  0  0  0  0  0  0
    6.4682    0.8617   17.8381 C   0  0  0  0  0  0  0  0  0  0  0  0
    8.0174   -0.5104   18.8358 C   0  0  0  0  0  0  0  0  0  0  0  0
   13.8938   -1.3947   22.0897 C   0  0  0  0  0  0  0  0  0  0  0  0
   12.9947   -1.1187   24.3624 C   0  0  0  0  0  0  0  0  0  0  0  0
    7.5263   -0.2347   20.1017 C   0  0  0  0  0  0  0  0  0  0  0  0
   12.1262   -0.6487   23.4018 C   0  0  0  0  0  0  0  0  0  0  0  0
    9.1295   -0.2455   21.9420 C   0  0  0  0  0  0  0  0  0  0  0  0
    8.1240   -0.8447   21.2950 C   0  0  0  0  0  0  0  0  0  0  0  0
    7.6567   -2.1425   21.8835 C   0  0  0  0  0  0  0  0  0  0  0  0
    9.2351   -1.9894   23.6154 C   0  0  0  0  0  0  0  0  0  0  0  0
    6.5252   -4.2269   21.3272 C   0  0  0  0  0  0  0  0  0  0  0  0
   10.7875   -0.0401   23.7042 C   0  0  0  0  0  0  0  0  0  0  0  0
    7.6442   -4.8764   22.1026 C   0  0  0  0  0  0  0  0  0  0  0  0
    7.5145    0.0173   17.6972 N   0  0  0  0  0  0  0  0  0  0  0  0
    8.2008   -2.6367   22.9668 N   0  0  0  0  0  0  0  0  0  0  0  0
    9.6971   -0.7791   23.0762 N   0  0  0  0  0  0  0  0  0  0  0  0
    6.6392   -2.8461   21.2763 N   0  0  0  0  0  0  0  0  0  0  0  0
    9.7275   -2.4752   24.6353 O   0  0  0  0  0  0  0  0  0  0  0  0
    5.6351   -4.8932   20.8007 O   0  0  0  0  0  0  0  0  0  0  0  0
   14.4313   -1.7494   23.6764 S   0  0  0  0  0  0  0  0  0  0  0  0
    7.3527   -6.6228   22.1209 Cl  0  0  0  0  0  0  0  0  0  0  0  0
    5.0646    1.8846   19.1144 H   0  0  0  0  0  0  0  0  0  0  0  0
    6.0246    0.8896   21.1746 H   0  0  0  0  0  0  0  0  0  0  0  0
   12.1364   -0.5111   21.1781 H   0  0  0  0  0  0  0  0  0  0  0  0
    6.0797    1.2748   16.9131 H   0  0  0  0  0  0  0  0  0  0  0  0
    8.8564   -1.1841   18.6864 H   0  0  0  0  0  0  0  0  0  0  0  0
   14.5143   -1.6322   21.2372 H   0  0  0  0  0  0  0  0  0  0  0  0
   12.8577   -1.1248   25.4349 H   0  0  0  0  0  0  0  0  0  0  0  0
    9.5478    0.6970   21.6012 H   0  0  0  0  0  0  0  0  0  0  0  0
   10.6058   -0.0240   24.7844 H   0  0  0  0  0  0  0  0  0  0  0  0
   10.7375    0.9951   23.3506 H   0  0  0  0  0  0  0  0  0  0  0  0
    7.6393   -4.5015   23.1298 H   0  0  0  0  0  0  0  0  0  0  0  0
    8.6261   -4.6905   21.6603 H   0  0  0  0  0  0  0  0  0  0  0  0
    5.9472   -2.2992   20.7718 H   0  0  0  0  0  0  0  0  0  0  0  0
  1  2  2  0  0  0  0
  1  4  1  0  0  0  0
  2  8  1  0  0  0  0
  3  6  2  0  0  0  0
  3  9  1  0  0  0  0
  4 17  2  0  0  0  0
  5  8  2  0  0  0  0
  5 17  1  0  0  0  0
  6 23  1  0  0  0  0
  7  9  2  0  0  0  0
  7 23  1  0  0  0  0
  8 11  1  0  0  0  0
  9 15  1  0  0  0  0
 10 11  2  0  0  0  0
 10 19  1  0  0  0  0
 11 12  1  0  0  0  0
 12 18  2  0  0  0  0
 12 20  1  0  0  0  0
 13 18  1  0  0  0  0
 13 19  1  0  0  0  0
 13 21  2  0  0  0  0
 14 16  1  0  0  0  0
 14 20  1  0  0  0  0
 14 22  2  0  0  0  0
 15 19  1  0  0  0  0
 16 24  1  0  0  0  0
  1 25  1  0  0  0  0
  2 26  1  0  0  0  0
  3 27  1  0  0  0  0
  4 28  1  0  0  0  0
  5 29  1  0  0  0  0
  6 30  1  0  0  0  0
  7 31  1  0  0  0  0
 10 32  1  0  0  0  0
 15 33  1  0  0  0  0
 15 34  1  0  0  0  0
 16 35  1  0  0  0  0
 16 36  1  0  0  0  0
 20 37  1  0  0  0  0
M  END
> <creator>
Nimesh Mistry, University of Leeds

> <fragments>
x0678

> <real_space>
FALSE

> <SCR>
FALSE

> <BB>
FALSE

> <link>
https://covid.postera.ai/covid/submissions/7ba87d62-e988-4a36-a14e-34fe6d7cd8bf

> <covalent_frag>
TRUE

> <covalent_warhead>
TRUE

> <acrylamide>
FALSE

> <acrylamide_adduct>
FALSE

> <chloroacetamide>
TRUE

> <chloroacetamide_adduct>
FALSE

> <vinylsulfonamide>
FALSE

> <vinylsulfonamide_adduct>
FALSE

> <in_molport_or_mcule>
FALSE

> <in_emolecules>
FALSE

> <Hybrid2>
-10.561682

> <Mpro-x0678_dock>
-10.561682

> <Mpro-x0434_dock>
-5.420774

> <Mpro-x1385_dock>
-5.179931

> <Mpro-x0830_dock>
-4.778436

> <Mpro-x0692_dock>
-4.42504

> <Mpro-x0770_dock>
-4.419501

> <Mpro-x1334_dock>
-4.395258

> <Mpro-x1386_dock>
-3.604167

> <site>
active-noncovalent

> <covalent_distance_min>
3.7391043

> <covalent_distance_mean>
4.4549394

> <covalent_distance_stderr>
0.030584423

$$$$
MAK-UNK-b2c-6
  -OEChem-04062011563D

 55 57  0     0  0  0  0  0  0999 V2000
    6.4234   -5.3214   26.7579 C   0  0  0  0  0  0  0  0  0  0  0  0
    6.4399   -5.8203   25.4555 C   0  0  0  0  0  0  0  0  0  0  0  0
    6.4915   -3.9458   26.9788 C   0  0  0  0  0  0  0  0  0  0  0  0
    5.5131    0.7735   19.3514 C   0  0  0  0  0  0  0  0  0  0  0  0
    6.5246   -4.9436   24.3738 C   0  0  0  0  0  0  0  0  0  0  0  0
    6.5762   -3.0691   25.8971 C   0  0  0  0  0  0  0  0  0  0  0  0
    6.4141    0.7647   20.4104 C   0  0  0  0  0  0  0  0  0  0  0  0
    5.9836    0.4214   18.0966 C   0  0  0  0  0  0  0  0  0  0  0  0
    8.1101    0.0730   18.8933 C   0  0  0  0  0  0  0  0  0  0  0  0
    6.5928   -3.5680   24.5947 C   0  0  0  0  0  0  0  0  0  0  0  0
    7.7394    0.4090   20.1854 C   0  0  0  0  0  0  0  0  0  0  0  0
   10.0297    0.0595   21.1724 C   0  0  0  0  0  0  0  0  0  0  0  0
   14.1527   -0.7687   23.5623 C   0  0  0  0  0  0  0  0  0  0  0  0
   13.6247   -0.8629   22.1345 C   0  0  0  0  0  0  0  0  0  0  0  0
   13.0990   -0.2297   24.5242 C   0  0  0  0  0  0  0  0  0  0  0  0
   12.3317   -1.6741   22.0636 C   0  0  0  0  0  0  0  0  0  0  0  0
   11.8057   -1.0405   24.4559 C   0  0  0  0  0  0  0  0  0  0  0  0
   11.2417   -1.1633   23.0266 C   0  0  0  0  0  0  0  0  0  0  0  0
    6.6847   -2.6191   23.4250 C   0  0  0  0  0  0  0  0  0  0  0  0
   10.6598    0.1748   22.5442 C   0  0  0  0  0  0  0  0  0  0  0  0
    7.4484   -1.3390   23.7552 C   0  0  0  0  0  0  0  0  0  0  0  0
    7.2634    0.0702   17.8393 N   0  0  0  0  0  0  0  0  0  0  0  0
    8.6796    0.3909   21.2429 N   0  0  0  0  0  0  0  0  0  0  0  0
    8.8446   -1.5992   24.1497 N   0  0  0  0  0  0  0  0  0  0  0  0
   10.6631   -0.2803   20.1785 O   0  0  0  0  0  0  0  0  0  0  0  0
    9.3170   -2.3735   21.7265 O   0  0  0  0  0  0  0  0  0  0  0  0
   10.4241   -3.5613   23.6553 O   0  0  0  0  0  0  0  0  0  0  0  0
    9.8985   -2.3602   23.0483 S   0  0  0  0  0  0  0  0  0  0  0  0
    6.3561   -6.0041   27.6000 H   0  0  0  0  0  0  0  0  0  0  0  0
    6.3858   -6.8913   25.2833 H   0  0  0  0  0  0  0  0  0  0  0  0
    6.4775   -3.5569   27.9926 H   0  0  0  0  0  0  0  0  0  0  0  0
    4.4754    1.0474   19.5036 H   0  0  0  0  0  0  0  0  0  0  0  0
    6.5371   -5.3414   23.3625 H   0  0  0  0  0  0  0  0  0  0  0  0
    6.6290   -1.9989   26.0788 H   0  0  0  0  0  0  0  0  0  0  0  0
    6.0734    1.0364   21.4060 H   0  0  0  0  0  0  0  0  0  0  0  0
    5.3207    0.4135   17.2377 H   0  0  0  0  0  0  0  0  0  0  0  0
    9.1302   -0.2135   18.6551 H   0  0  0  0  0  0  0  0  0  0  0  0
   14.4858   -1.7582   23.8973 H   0  0  0  0  0  0  0  0  0  0  0  0
   15.0335   -0.1140   23.5832 H   0  0  0  0  0  0  0  0  0  0  0  0
   13.4415    0.1460   21.7484 H   0  0  0  0  0  0  0  0  0  0  0  0
   14.3874   -1.3099   21.4879 H   0  0  0  0  0  0  0  0  0  0  0  0
   13.4950   -0.2380   25.5454 H   0  0  0  0  0  0  0  0  0  0  0  0
   12.8852    0.8171   24.2816 H   0  0  0  0  0  0  0  0  0  0  0  0
   11.9569   -1.6249   21.0344 H   0  0  0  0  0  0  0  0  0  0  0  0
   12.5589   -2.7262   22.2659 H   0  0  0  0  0  0  0  0  0  0  0  0
   11.9822   -2.0322   24.8857 H   0  0  0  0  0  0  0  0  0  0  0  0
   11.0635   -0.5480   25.0952 H   0  0  0  0  0  0  0  0  0  0  0  0
    5.6671   -2.3617   23.1049 H   0  0  0  0  0  0  0  0  0  0  0  0
    7.1504   -3.1270   22.5708 H   0  0  0  0  0  0  0  0  0  0  0  0
   11.4636    0.9099   22.5119 H   0  0  0  0  0  0  0  0  0  0  0  0
    9.9076    0.5035   23.2609 H   0  0  0  0  0  0  0  0  0  0  0  0
    7.4850   -0.6890   22.8753 H   0  0  0  0  0  0  0  0  0  0  0  0
    6.9729   -0.7837   24.5703 H   0  0  0  0  0  0  0  0  0  0  0  0
    8.3127    0.6530   22.1555 H   0  0  0  0  0  0  0  0  0  0  0  0
    8.9605   -1.8324   25.1445 H   0  0  0  0  0  0  0  0  0  0  0  0
  1  2  1  0  0  0  0
  1  3  2  0  0  0  0
  2  5  2  0  0  0  0
  3  6  1  0  0  0  0
  4  7  2  0  0  0  0
  4  8  1  0  0  0  0
  5 10  1  0  0  0  0
  6 10  2  0  0  0  0
  7 11  1  0  0  0  0
  8 22  2  0  0  0  0
  9 11  2  0  0  0  0
  9 22  1  0  0  0  0
 10 19  1  0  0  0  0
 11 23  1  0  0  0  0
 12 20  1  0  0  0  0
 12 23  1  0  0  0  0
 12 25  2  0  0  0  0
 13 14  1  0  0  0  0
 13 15  1  0  0  0  0
 14 16  1  0  0  0  0
 15 17  1  0  0  0  0
 16 18  1  0  0  0  0
 17 18  1  0  0  0  0
 18 20  1  0  0  0  0
 18 28  1  0  0  0  0
 19 21  1  0  0  0  0
 21 24  1  0  0  0  0
 24 28  1  0  0  0  0
 26 28  2  0  0  0  0
 27 28  2  0  0  0  0
  1 29  1  0  0  0  0
  2 30  1  0  0  0  0
  3 31  1  0  0  0  0
  4 32  1  0  0  0  0
  5 33  1  0  0  0  0
  6 34  1  0  0  0  0
  7 35  1  0  0  0  0
  8 36  1  0  0  0  0
  9 37  1  0  0  0  0
 13 38  1  0  0  0  0
 13 39  1  0  0  0  0
 14 40  1  0  0  0  0
 14 41  1  0  0  0  0
 15 42  1  0  0  0  0
 15 43  1  0  0  0  0
 16 44  1  0  0  0  0
 16 45  1  0  0  0  0
 17 46  1  0  0  0  0
 17 47  1  0  0  0  0
 19 48  1  0  0  0  0
 19 49  1  0  0  0  0
 20 50  1  0  0  0  0
 20 51  1  0  0  0  0
 21 52  1  0  0  0  0
 21 53  1  0  0  0  0
 23 54  1  0  0  0  0
 24 55  1  0  0  0  0
M  END
> <creator>
Maksym Voznyy

> <fragments>
x0678

> <real_space>
FALSE

> <SCR>
FALSE

> <BB>
FALSE

> <link>
https://covid.postera.ai/covid/submissions/b2c98f02-fd71-4816-8555-e12bce5232e3

> <covalent_frag>
FALSE

> <covalent_warhead>
TRUE

> <acrylamide>
FALSE

> <acrylamide_adduct>
TRUE

> <chloroacetamide>
FALSE

> <chloroacetamide_adduct>
FALSE

> <vinylsulfonamide>
FALSE

> <vinylsulfonamide_adduct>
FALSE

> <in_molport_or_mcule>
FALSE

> <in_emolecules>
FALSE

> <Hybrid2>
-10.417187

> <Mpro-x0678_dock>
-10.417187

> <Mpro-x0072_dock>
-3.737814

> <site>
active-noncovalent

> <covalent_distance_min>
4.44434

> <covalent_distance_mean>
4.9380803

> <covalent_distance_stderr>
0.036216814

$$$$
MAK-UNK-b2c-5
  -OEChem-04062011563D

 55 57  0     1  0  0  0  0  0999 V2000
    6.8180    6.6038   23.3548 C   0  0  0  0  0  0  0  0  0  0  0  0
    6.6865    5.3692   22.7192 C   0  0  0  0  0  0  0  0  0  0  0  0
    8.0864    7.1205   23.6194 C   0  0  0  0  0  0  0  0  0  0  0  0
    5.8965    0.0933   19.7622 C   0  0  0  0  0  0  0  0  0  0  0  0
    7.8234    4.6512   22.3482 C   0  0  0  0  0  0  0  0  0  0  0  0
    9.2232    6.4025   23.2483 C   0  0  0  0  0  0  0  0  0  0  0  0
    6.8389    0.0063   20.7807 C   0  0  0  0  0  0  0  0  0  0  0  0
    6.3555    0.2753   18.4676 C   0  0  0  0  0  0  0  0  0  0  0  0
    8.5489    0.2841   19.1512 C   0  0  0  0  0  0  0  0  0  0  0  0
    9.0918    5.1679   22.6127 C   0  0  0  0  0  0  0  0  0  0  0  0
    8.1926    0.1027   20.4779 C   0  0  0  0  0  0  0  0  0  0  0  0
   10.4258    0.6294   21.5174 C   0  0  0  0  0  0  0  0  0  0  0  0
   14.2926   -1.8492   22.9863 C   0  0  0  0  0  0  0  0  0  0  0  0
   13.6188   -1.4383   21.6808 C   0  0  0  0  0  0  0  0  0  0  0  0
   13.5766   -1.2698   24.2024 C   0  0  0  0  0  0  0  0  0  0  0  0
   12.1318   -1.7884   21.6788 C   0  0  0  0  0  0  0  0  0  0  0  0
   12.0896   -1.6202   24.2013 C   0  0  0  0  0  0  0  0  0  0  0  0
   11.3801   -1.2303   22.8962 C   0  0  0  0  0  0  0  0  0  0  0  0
   10.3221    4.3916   22.2118 C   0  0  0  0  0  0  0  0  0  0  0  0
   10.8089    3.4417   23.3035 C   0  0  0  0  0  0  0  0  0  0  0  0
   11.1812    0.2844   22.7917 C   0  0  2  0  0  0  0  0  0  0  0  0
    7.6621    0.3733   18.1347 N   0  0  0  0  0  0  0  0  0  0  0  0
    9.1752    0.0182   21.4930 N   0  0  0  0  0  0  0  0  0  0  0  0
    9.8060    2.4193   23.6521 N   0  0  0  0  0  0  0  0  0  0  0  0
   10.9052    1.3676   20.6620 O   0  0  0  0  0  0  0  0  0  0  0  0
    9.1856    0.0436   24.4680 O   0  0  0  0  0  0  0  0  0  0  0  0
   11.3251    1.1169   25.2599 O   0  0  0  0  0  0  0  0  0  0  0  0
   10.3353    0.8963   24.2188 S   0  0  0  0  0  0  0  0  0  0  0  0
    5.9327    7.1633   23.6425 H   0  0  0  0  0  0  0  0  0  0  0  0
    5.6990    4.9672   22.5122 H   0  0  0  0  0  0  0  0  0  0  0  0
    8.1891    8.0822   24.1132 H   0  0  0  0  0  0  0  0  0  0  0  0
    4.8360    0.0208   19.9750 H   0  0  0  0  0  0  0  0  0  0  0  0
    7.7114    3.6899   21.8536 H   0  0  0  0  0  0  0  0  0  0  0  0
   10.2074    6.8129   23.4586 H   0  0  0  0  0  0  0  0  0  0  0  0
    6.5079   -0.1364   21.8060 H   0  0  0  0  0  0  0  0  0  0  0  0
    5.6605    0.3501   17.6378 H   0  0  0  0  0  0  0  0  0  0  0  0
    9.5897    0.3663   18.8524 H   0  0  0  0  0  0  0  0  0  0  0  0
   14.3169   -2.9436   23.0598 H   0  0  0  0  0  0  0  0  0  0  0  0
   15.3363   -1.5075   22.9809 H   0  0  0  0  0  0  0  0  0  0  0  0
   13.7439   -0.3606   21.5255 H   0  0  0  0  0  0  0  0  0  0  0  0
   14.1127   -1.9414   20.8403 H   0  0  0  0  0  0  0  0  0  0  0  0
   14.0411   -1.6555   25.1182 H   0  0  0  0  0  0  0  0  0  0  0  0
   13.6987   -0.1808   24.2170 H   0  0  0  0  0  0  0  0  0  0  0  0
   11.6740   -1.4047   20.7506 H   0  0  0  0  0  0  0  0  0  0  0  0
   12.0194   -2.8847   21.6413 H   0  0  0  0  0  0  0  0  0  0  0  0
   11.9739   -2.7021   24.3802 H   0  0  0  0  0  0  0  0  0  0  0  0
   11.6019   -1.1178   25.0545 H   0  0  0  0  0  0  0  0  0  0  0  0
   10.3719   -1.6963   22.9106 H   0  0  0  0  0  0  0  0  0  0  0  0
   11.1201    5.1049   21.9696 H   0  0  0  0  0  0  0  0  0  0  0  0
   10.1244    3.8345   21.2871 H   0  0  0  0  0  0  0  0  0  0  0  0
   11.7000    2.9059   22.9615 H   0  0  0  0  0  0  0  0  0  0  0  0
   11.0654    3.9795   24.2221 H   0  0  0  0  0  0  0  0  0  0  0  0
   12.1542    0.7839   22.7920 H   0  0  0  0  0  0  0  0  0  0  0  0
    8.9223   -0.5574   22.2933 H   0  0  0  0  0  0  0  0  0  0  0  0
    8.9515    2.8012   24.0781 H   0  0  0  0  0  0  0  0  0  0  0  0
  1  2  1  0  0  0  0
  1  3  2  0  0  0  0
  2  5  2  0  0  0  0
  3  6  1  0  0  0  0
  4  7  2  0  0  0  0
  4  8  1  0  0  0  0
  5 10  1  0  0  0  0
  6 10  2  0  0  0  0
  7 11  1  0  0  0  0
  8 22  2  0  0  0  0
  9 11  2  0  0  0  0
  9 22  1  0  0  0  0
 10 19  1  0  0  0  0
 11 23  1  0  0  0  0
 12 21  1  0  0  0  0
 12 23  1  0  0  0  0
 12 25  2  0  0  0  0
 13 14  1  0  0  0  0
 13 15  1  0  0  0  0
 14 16  1  0  0  0  0
 15 17  1  0  0  0  0
 16 18  1  0  0  0  0
 17 18  1  0  0  0  0
 18 21  1  0  0  0  0
 19 20  1  0  0  0  0
 20 24  1  0  0  0  0
 21 28  1  0  0  0  0
 24 28  1  0  0  0  0
 26 28  2  0  0  0  0
 27 28  2  0  0  0  0
  1 29  1  0  0  0  0
  2 30  1  0  0  0  0
  3 31  1  0  0  0  0
  4 32  1  0  0  0  0
  5 33  1  0  0  0  0
  6 34  1  0  0  0  0
  7 35  1  0  0  0  0
  8 36  1  0  0  0  0
  9 37  1  0  0  0  0
 13 38  1  0  0  0  0
 13 39  1  0  0  0  0
 14 40  1  0  0  0  0
 14 41  1  0  0  0  0
 15 42  1  0  0  0  0
 15 43  1  0  0  0  0
 16 44  1  0  0  0  0
 16 45  1  0  0  0  0
 17 46  1  0  0  0  0
 17 47  1  0  0  0  0
 18 48  1  0  0  0  0
 19 49  1  0  0  0  0
 19 50  1  0  0  0  0
 20 51  1  0  0  0  0
 20 52  1  0  0  0  0
 21 53  1  0  0  0  0
 23 54  1  0  0  0  0
 24 55  1  0  0  0  0
M  END
> <creator>
Maksym Voznyy

> <fragments>
x0678

> <real_space>
FALSE

> <SCR>
FALSE

> <BB>
FALSE

> <link>
https://covid.postera.ai/covid/submissions/b2c98f02-fd71-4816-8555-e12bce5232e3

> <covalent_frag>
FALSE

> <covalent_warhead>
TRUE

> <acrylamide>
FALSE

> <acrylamide_adduct>
FALSE

> <chloroacetamide>
FALSE

> <chloroacetamide_adduct>
TRUE

> <vinylsulfonamide>
FALSE

> <vinylsulfonamide_adduct>
FALSE

> <in_molport_or_mcule>
FALSE

> <in_emolecules>
FALSE

> <Hybrid2>
-10.141737

> <Mpro-x0678_dock>
-10.141737

> <Mpro-x0072_dock>
-4.291499

> <site>
active-noncovalent

> <covalent_distance_min>
5.397036

> <covalent_distance_mean>
5.983052

> <covalent_distance_stderr>
0.041748732

$$$$
DAR-DIA-cab-8
  -OEChem-04062011563D

 42 45  0     1  0  0  0  0  0999 V2000
   13.6250    0.3350   22.5650 C   0  0  0  0  0  0  0  0  0  0  0  0
   12.9908   -0.6414   21.8026 C   0  0  0  0  0  0  0  0  0  0  0  0
    7.9878   -5.5733   25.0619 C   0  0  0  0  0  0  0  0  0  0  0  0
    9.2364   -4.9804   25.2159 C   0  0  0  0  0  0  0  0  0  0  0  0
   12.9768    0.8897   23.6689 C   0  0  0  0  0  0  0  0  0  0  0  0
   11.7060   -1.0670   22.1412 C   0  0  0  0  0  0  0  0  0  0  0  0
    7.0645   -5.0262   24.1735 C   0  0  0  0  0  0  0  0  0  0  0  0
    9.5574   -3.8303   24.4941 C   0  0  0  0  0  0  0  0  0  0  0  0
   11.0161    1.0207   25.1321 C   0  0  0  0  0  0  0  0  0  0  0  0
    9.0971   -0.3812   24.7083 C   0  0  0  0  0  0  0  0  0  0  0  0
   11.6835    0.4734   24.0243 C   0  0  0  0  0  0  0  0  0  0  0  0
   11.0386   -0.5196   23.2490 C   0  0  0  0  0  0  0  0  0  0  0  0
    7.3797   -3.8769   23.4318 C   0  0  0  0  0  0  0  0  0  0  0  0
    8.6271   -3.2447   23.6172 C   0  0  0  0  0  0  0  0  0  0  0  0
    9.7452   -0.9359   23.6044 C   0  0  0  0  0  0  0  0  0  0  0  0
    9.7313    0.5953   25.4707 C   0  0  0  0  0  0  0  0  0  0  0  0
    6.6526   -2.4877   20.1598 C   0  0  0  0  0  0  0  0  0  0  0  0
    6.3543   -3.3328   22.4678 C   0  0  0  0  0  0  0  0  0  0  0  0
    7.7684   -1.3526   22.1393 C   0  0  0  0  0  0  0  0  0  0  0  0
    8.9942   -1.9993   22.8141 C   0  0  2  0  0  0  0  0  0  0  0  0
    7.2937   -1.4631   19.2581 C   0  0  0  0  0  0  0  0  0  0  0  0
    6.9310   -2.3805   21.5212 N   0  0  0  0  0  0  0  0  0  0  0  0
    5.9288   -3.3570   19.6676 O   0  0  0  0  0  0  0  0  0  0  0  0
    8.9306    1.2784   26.8321 Cl  0  0  0  0  0  0  0  0  0  0  0  0
    6.1540   -0.1291   19.1227 Cl  0  0  0  0  0  0  0  0  0  0  0  0
   14.6252    0.6660   22.3010 H   0  0  0  0  0  0  0  0  0  0  0  0
   13.4962   -1.0727   20.9433 H   0  0  0  0  0  0  0  0  0  0  0  0
    7.7326   -6.4607   25.6329 H   0  0  0  0  0  0  0  0  0  0  0  0
    9.9640   -5.4132   25.8971 H   0  0  0  0  0  0  0  0  0  0  0  0
   13.4917    1.6519   24.2502 H   0  0  0  0  0  0  0  0  0  0  0  0
   11.2443   -1.8312   21.5203 H   0  0  0  0  0  0  0  0  0  0  0  0
    6.0915   -5.4985   24.0614 H   0  0  0  0  0  0  0  0  0  0  0  0
   10.5457   -3.3895   24.6165 H   0  0  0  0  0  0  0  0  0  0  0  0
   11.5059    1.7848   25.7339 H   0  0  0  0  0  0  0  0  0  0  0  0
    8.0951   -0.7146   24.9702 H   0  0  0  0  0  0  0  0  0  0  0  0
    5.9425   -4.1533   21.8815 H   0  0  0  0  0  0  0  0  0  0  0  0
    5.5584   -2.8605   23.0360 H   0  0  0  0  0  0  0  0  0  0  0  0
    7.2017   -0.7572   22.8526 H   0  0  0  0  0  0  0  0  0  0  0  0
    8.0926   -0.6908   21.3342 H   0  0  0  0  0  0  0  0  0  0  0  0
    9.6806   -2.3070   21.9843 H   0  0  0  0  0  0  0  0  0  0  0  0
    7.4625   -1.9092   18.2850 H   0  0  0  0  0  0  0  0  0  0  0  0
    8.2150   -1.1216   19.7152 H   0  0  0  0  0  0  0  0  0  0  0  0
  1  2  1  0  0  0  0
  1  5  2  0  0  0  0
  2  6  2  0  0  0  0
  3  4  1  0  0  0  0
  3  7  2  0  0  0  0
  4  8  2  0  0  0  0
  5 11  1  0  0  0  0
  6 12  1  0  0  0  0
  7 13  1  0  0  0  0
  8 14  1  0  0  0  0
  9 11  2  0  0  0  0
  9 16  1  0  0  0  0
 10 15  1  0  0  0  0
 10 16  2  0  0  0  0
 11 12  1  0  0  0  0
 12 15  2  0  0  0  0
 13 14  2  0  0  0  0
 13 18  1  0  0  0  0
 14 20  1  0  0  0  0
 15 20  1  0  0  0  0
 16 24  1  0  0  0  0
 17 21  1  0  0  0  0
 17 22  1  0  0  0  0
 17 23  2  0  0  0  0
 18 22  1  0  0  0  0
 19 20  1  0  0  0  0
 19 22  1  0  0  0  0
 21 25  1  0  0  0  0
  1 26  1  0  0  0  0
  2 27  1  0  0  0  0
  3 28  1  0  0  0  0
  4 29  1  0  0  0  0
  5 30  1  0  0  0  0
  6 31  1  0  0  0  0
  7 32  1  0  0  0  0
  8 33  1  0  0  0  0
  9 34  1  0  0  0  0
 10 35  1  0  0  0  0
 18 36  1  0  0  0  0
 18 37  1  0  0  0  0
 19 38  1  0  0  0  0
 19 39  1  0  0  0  0
 20 40  1  0  0  0  0
 21 41  1  0  0  0  0
 21 42  1  0  0  0  0
M  END
> <creator>
Daren Fearon, Diamond Light Source Ltd

> <fragments>
x0830

> <real_space>
FALSE

> <SCR>
FALSE

> <BB>
FALSE

> <link>
https://covid.postera.ai/covid/submissions/caba39e3-6989-456c-b896-1cac12e2588e

> <covalent_frag>
TRUE

> <covalent_warhead>
TRUE

> <acrylamide>
FALSE

> <acrylamide_adduct>
FALSE

> <chloroacetamide>
TRUE

> <chloroacetamide_adduct>
FALSE

> <vinylsulfonamide>
FALSE

> <vinylsulfonamide_adduct>
FALSE

> <in_molport_or_mcule>
FALSE

> <in_emolecules>
FALSE

> <Hybrid2>
-10.113053

> <Mpro-x0830_dock>
-10.113053

> <Mpro-x0195_dock>
-7.736165

> <Mpro-x1392_dock>
-6.749095

> <Mpro-x0305_dock>
-5.382585

> <Mpro-x1249_dock>
-5.018923

> <site>
active-covalent

> <covalent_distance_min>
3.0051713

> <covalent_distance_mean>
3.4561868

> <covalent_distance_stderr>
0.02633928

$$$$
DAR-DIA-cab-7
  -OEChem-04062011563D

 42 45  0     1  0  0  0  0  0999 V2000
   13.9062    0.5070   22.6181 C   0  0  0  0  0  0  0  0  0  0  0  0
   13.2710   -0.4709   21.8586 C   0  0  0  0  0  0  0  0  0  0  0  0
    8.2755   -5.3987   25.1381 C   0  0  0  0  0  0  0  0  0  0  0  0
    9.5245   -4.8055   25.2878 C   0  0  0  0  0  0  0  0  0  0  0  0
   13.2600    1.0631   23.7225 C   0  0  0  0  0  0  0  0  0  0  0  0
   11.9870   -0.8965   22.2004 C   0  0  0  0  0  0  0  0  0  0  0  0
    7.3499   -4.8532   24.2510 C   0  0  0  0  0  0  0  0  0  0  0  0
    9.8437   -3.6567   24.5630 C   0  0  0  0  0  0  0  0  0  0  0  0
   11.3023    1.1956   25.1895 C   0  0  0  0  0  0  0  0  0  0  0  0
    9.3830   -0.2079   24.7718 C   0  0  0  0  0  0  0  0  0  0  0  0
   11.9676    0.6468   24.0812 C   0  0  0  0  0  0  0  0  0  0  0  0
   11.3216   -0.3477   23.3087 C   0  0  0  0  0  0  0  0  0  0  0  0
    7.6632   -3.7053   23.5064 C   0  0  0  0  0  0  0  0  0  0  0  0
    8.9111   -3.0728   23.6874 C   0  0  0  0  0  0  0  0  0  0  0  0
   10.0292   -0.7640   23.6674 C   0  0  0  0  0  0  0  0  0  0  0  0
   10.0183    0.7701   25.5314 C   0  0  0  0  0  0  0  0  0  0  0  0
    6.9277   -2.3222   20.2336 C   0  0  0  0  0  0  0  0  0  0  0  0
    6.6353   -3.1630   22.5440 C   0  0  0  0  0  0  0  0  0  0  0  0
    8.0486   -1.1834   22.2081 C   0  0  0  0  0  0  0  0  0  0  0  0
    9.2761   -1.8288   22.8810 C   0  0  2  0  0  0  0  0  0  0  0  0
    7.5665   -1.2993   19.3284 C   0  0  0  0  0  0  0  0  0  0  0  0
    7.2096   -2.2125   21.5941 N   0  0  0  0  0  0  0  0  0  0  0  0
    6.2026   -3.1925   19.7450 O   0  0  0  0  0  0  0  0  0  0  0  0
    9.3975    1.3034   26.5918 F   0  0  0  0  0  0  0  0  0  0  0  0
    6.4264    0.0345   19.1935 Cl  0  0  0  0  0  0  0  0  0  0  0  0
   14.9058    0.8375   22.3513 H   0  0  0  0  0  0  0  0  0  0  0  0
   13.7747   -0.9040   20.9992 H   0  0  0  0  0  0  0  0  0  0  0  0
    8.0217   -6.2850   25.7114 H   0  0  0  0  0  0  0  0  0  0  0  0
   10.2538   -5.2370   25.9679 H   0  0  0  0  0  0  0  0  0  0  0  0
   13.7761    1.8257   24.3019 H   0  0  0  0  0  0  0  0  0  0  0  0
   11.5240   -1.6621   21.5821 H   0  0  0  0  0  0  0  0  0  0  0  0
    6.3767   -5.3258   24.1424 H   0  0  0  0  0  0  0  0  0  0  0  0
   10.8322   -3.2157   24.6820 H   0  0  0  0  0  0  0  0  0  0  0  0
   11.7795    1.9608   25.7981 H   0  0  0  0  0  0  0  0  0  0  0  0
    8.3830   -0.5311   25.0487 H   0  0  0  0  0  0  0  0  0  0  0  0
    6.2220   -3.9846   21.9604 H   0  0  0  0  0  0  0  0  0  0  0  0
    5.8409   -2.6897   23.1133 H   0  0  0  0  0  0  0  0  0  0  0  0
    7.4838   -0.5867   22.9218 H   0  0  0  0  0  0  0  0  0  0  0  0
    8.3707   -0.5232   21.4010 H   0  0  0  0  0  0  0  0  0  0  0  0
    9.9604   -2.1381   22.0501 H   0  0  0  0  0  0  0  0  0  0  0  0
    7.7328   -1.7473   18.3557 H   0  0  0  0  0  0  0  0  0  0  0  0
    8.4889   -0.9570   19.7825 H   0  0  0  0  0  0  0  0  0  0  0  0
  1  2  1  0  0  0  0
  1  5  2  0  0  0  0
  2  6  2  0  0  0  0
  3  4  1  0  0  0  0
  3  7  2  0  0  0  0
  4  8  2  0  0  0  0
  5 11  1  0  0  0  0
  6 12  1  0  0  0  0
  7 13  1  0  0  0  0
  8 14  1  0  0  0  0
  9 11  2  0  0  0  0
  9 16  1  0  0  0  0
 10 15  1  0  0  0  0
 10 16  2  0  0  0  0
 11 12  1  0  0  0  0
 12 15  2  0  0  0  0
 13 14  2  0  0  0  0
 13 18  1  0  0  0  0
 14 20  1  0  0  0  0
 15 20  1  0  0  0  0
 16 24  1  0  0  0  0
 17 21  1  0  0  0  0
 17 22  1  0  0  0  0
 17 23  2  0  0  0  0
 18 22  1  0  0  0  0
 19 20  1  0  0  0  0
 19 22  1  0  0  0  0
 21 25  1  0  0  0  0
  1 26  1  0  0  0  0
  2 27  1  0  0  0  0
  3 28  1  0  0  0  0
  4 29  1  0  0  0  0
  5 30  1  0  0  0  0
  6 31  1  0  0  0  0
  7 32  1  0  0  0  0
  8 33  1  0  0  0  0
  9 34  1  0  0  0  0
 10 35  1  0  0  0  0
 18 36  1  0  0  0  0
 18 37  1  0  0  0  0
 19 38  1  0  0  0  0
 19 39  1  0  0  0  0
 20 40  1  0  0  0  0
 21 41  1  0  0  0  0
 21 42  1  0  0  0  0
M  END
> <creator>
Daren Fearon, Diamond Light Source Ltd

> <fragments>
x0830

> <real_space>
FALSE

> <SCR>
FALSE

> <BB>
FALSE

> <link>
https://covid.postera.ai/covid/submissions/caba39e3-6989-456c-b896-1cac12e2588e

> <covalent_frag>
TRUE

> <covalent_warhead>
TRUE

> <acrylamide>
FALSE

> <acrylamide_adduct>
FALSE

> <chloroacetamide>
TRUE

> <chloroacetamide_adduct>
FALSE

> <vinylsulfonamide>
FALSE

> <vinylsulfonamide_adduct>
FALSE

> <in_molport_or_mcule>
FALSE

> <in_emolecules>
FALSE

> <Hybrid2>
-10.024381

> <Mpro-x0830_dock>
-10.024381

> <Mpro-x0195_dock>
-9.512373

> <Mpro-x1392_dock>
-7.618704

> <Mpro-x0305_dock>
-5.368856

> <Mpro-x1249_dock>
-5.359372

> <site>
active-covalent

> <covalent_distance_min>
2.9538398

> <covalent_distance_mean>
3.2915332

> <covalent_distance_stderr>
0.01140726

$$$$
PAU-WEI-b9b-5
  -OEChem-04062011563D

 55 57  0     1  0  0  0  0  0999 V2000
    7.6143    1.2042   20.4032 C   0  0  0  0  0  0  0  0  0  0  0  0
    7.9102    1.2442   24.1135 C   0  0  0  0  0  0  0  0  0  0  0  0
    7.4131    1.0072   22.8320 C   0  0  0  0  0  0  0  0  0  0  0  0
    9.1186    1.9211   24.2788 C   0  0  0  0  0  0  0  0  0  0  0  0
   11.3562    0.0496   24.8213 C   0  0  0  0  0  0  0  0  0  0  0  0
   12.0556   -0.9312   22.7271 C   0  0  0  0  0  0  0  0  0  0  0  0
   10.5327   -1.0502   25.0614 C   0  0  0  0  0  0  0  0  0  0  0  0
   11.2321   -2.0311   22.9672 C   0  0  0  0  0  0  0  0  0  0  0  0
    9.3329    2.1238   21.8809 C   0  0  0  0  0  0  0  0  0  0  0  0
    8.1244    1.4470   21.7157 C   0  0  0  0  0  0  0  0  0  0  0  0
   12.1177    0.1092   23.6541 C   0  0  0  0  0  0  0  0  0  0  0  0
   10.4706   -2.0906   24.1344 C   0  0  0  0  0  0  0  0  0  0  0  0
    9.8299    2.3609   23.1624 C   0  0  0  0  0  0  0  0  0  0  0  0
   10.5269    7.5736   25.7033 C   0  0  0  0  0  0  0  0  0  0  0  0
   11.9704    5.7836   24.7931 C   0  0  0  0  0  0  0  0  0  0  0  0
    9.5247    5.5251   24.5794 C   0  0  0  0  0  0  0  0  0  0  0  0
   12.1571    5.4079   23.3305 C   0  0  0  0  0  0  0  0  0  0  0  0
    9.6784    5.1428   23.1133 C   0  0  0  0  0  0  0  0  0  0  0  0
   13.0081    1.2976   23.3938 C   0  0  0  0  0  0  0  0  0  0  0  0
    9.1288    8.1020   25.9035 C   0  0  0  0  0  0  0  0  0  0  0  0
   12.3546    2.4622   22.6296 C   0  0  0  0  0  0  0  0  0  0  0  0
   11.1401    3.0946   23.3418 C   0  0  1  0  0  0  0  0  0  0  0  0
    9.5911   -3.2671   24.3927 C   0  0  0  0  0  0  0  0  0  0  0  0
    7.1999    1.0070   19.3372 N   0  0  0  0  0  0  0  0  0  0  0  0
   10.6455    6.3587   25.0284 N   0  0  0  0  0  0  0  0  0  0  0  0
   11.0302    4.5163   22.8630 N   0  3  0  0  0  0  0  0  0  0  0  0
   11.4837    8.2237   26.1321 O   0  0  0  0  0  0  0  0  0  0  0  0
    8.9070   -3.1907   25.5726 F   0  0  0  0  0  0  0  0  0  0  0  0
    8.6330   -3.4537   23.4372 F   0  0  0  0  0  0  0  0  0  0  0  0
   10.2863   -4.4404   24.4481 F   0  0  0  0  0  0  0  0  0  0  0  0
    8.5467    7.4245   27.4201 Cl  0  0  0  0  0  0  0  0  0  0  0  0
    7.3571    0.9009   24.9830 H   0  0  0  0  0  0  0  0  0  0  0  0
    6.4695    0.4786   22.7193 H   0  0  0  0  0  0  0  0  0  0  0  0
    9.4974    2.1015   25.2813 H   0  0  0  0  0  0  0  0  0  0  0  0
   11.3979    0.8559   25.5489 H   0  0  0  0  0  0  0  0  0  0  0  0
   12.6465   -0.8935   21.8156 H   0  0  0  0  0  0  0  0  0  0  0  0
    9.9441   -1.0889   25.9742 H   0  0  0  0  0  0  0  0  0  0  0  0
   11.1895   -2.8373   22.2396 H   0  0  0  0  0  0  0  0  0  0  0  0
    9.8929    2.4683   21.0139 H   0  0  0  0  0  0  0  0  0  0  0  0
   12.1264    4.8993   25.4204 H   0  0  0  0  0  0  0  0  0  0  0  0
   12.7127    6.5317   25.0997 H   0  0  0  0  0  0  0  0  0  0  0  0
    8.6061    6.1061   24.7321 H   0  0  0  0  0  0  0  0  0  0  0  0
    9.4284    4.6162   25.1772 H   0  0  0  0  0  0  0  0  0  0  0  0
   12.1456    6.3080   22.6960 H   0  0  0  0  0  0  0  0  0  0  0  0
   13.1042    4.8687   23.1629 H   0  0  0  0  0  0  0  0  0  0  0  0
    8.9087    4.4199   22.7956 H   0  0  0  0  0  0  0  0  0  0  0  0
    9.6096    6.0363   22.4729 H   0  0  0  0  0  0  0  0  0  0  0  0
   13.8679    0.9379   22.8132 H   0  0  0  0  0  0  0  0  0  0  0  0
   13.4259    1.6740   24.3361 H   0  0  0  0  0  0  0  0  0  0  0  0
    8.5054    7.7667   25.0825 H   0  0  0  0  0  0  0  0  0  0  0  0
    9.1679    9.1832   25.9694 H   0  0  0  0  0  0  0  0  0  0  0  0
   13.1282    3.2358   22.5249 H   0  0  0  0  0  0  0  0  0  0  0  0
   12.0970    2.1576   21.6082 H   0  0  0  0  0  0  0  0  0  0  0  0
   11.3706    3.1883   24.4099 H   0  0  0  0  0  0  0  0  0  0  0  0
   11.1278    4.4621   21.8082 H   0  0  0  0  0  0  0  0  0  0  0  0
  1 10  1  0  0  0  0
  1 24  3  0  0  0  0
  2  3  2  0  0  0  0
  2  4  1  0  0  0  0
  3 10  1  0  0  0  0
  4 13  2  0  0  0  0
  5  7  2  0  0  0  0
  5 11  1  0  0  0  0
  6  8  1  0  0  0  0
  6 11  2  0  0  0  0
  7 12  1  0  0  0  0
  8 12  2  0  0  0  0
  9 10  2  0  0  0  0
  9 13  1  0  0  0  0
 11 19  1  0  0  0  0
 12 23  1  0  0  0  0
 13 22  1  0  0  0  0
 14 20  1  0  0  0  0
 14 25  1  0  0  0  0
 14 27  2  0  0  0  0
 15 17  1  0  0  0  0
 15 25  1  0  0  0  0
 16 18  1  0  0  0  0
 16 25  1  0  0  0  0
 17 26  1  0  0  0  0
 18 26  1  0  0  0  0
 19 21  1  0  0  0  0
 20 31  1  0  0  0  0
 21 22  1  0  0  0  0
 22 26  1  0  0  0  0
 23 28  1  0  0  0  0
 23 29  1  0  0  0  0
 23 30  1  0  0  0  0
  2 32  1  0  0  0  0
  3 33  1  0  0  0  0
  4 34  1  0  0  0  0
  5 35  1  0  0  0  0
  6 36  1  0  0  0  0
  7 37  1  0  0  0  0
  8 38  1  0  0  0  0
  9 39  1  0  0  0  0
 15 40  1  0  0  0  0
 15 41  1  0  0  0  0
 16 42  1  0  0  0  0
 16 43  1  0  0  0  0
 17 44  1  0  0  0  0
 17 45  1  0  0  0  0
 18 46  1  0  0  0  0
 18 47  1  0  0  0  0
 19 48  1  0  0  0  0
 19 49  1  0  0  0  0
 20 50  1  0  0  0  0
 20 51  1  0  0  0  0
 21 52  1  0  0  0  0
 21 53  1  0  0  0  0
 22 54  1  0  0  0  0
 26 55  1  0  0  0  0
M  CHG  1  26   1
M  END
> <creator>
Paul Gehrtz, Weizmann Institute of Science

> <fragments>
x0104

> <real_space>
FALSE

> <SCR>
FALSE

> <BB>
FALSE

> <link>
https://covid.postera.ai/covid/submissions/b9b69149-728b-48ac-b50d-9dc89a43712c

> <covalent_frag>
TRUE

> <covalent_warhead>
TRUE

> <acrylamide>
FALSE

> <acrylamide_adduct>
FALSE

> <chloroacetamide>
TRUE

> <chloroacetamide_adduct>
FALSE

> <vinylsulfonamide>
FALSE

> <vinylsulfonamide_adduct>
FALSE

> <in_molport_or_mcule>
FALSE

> <in_emolecules>
FALSE

> <Hybrid2>
-9.970257

> <Mpro-x0104_dock>
-9.970257

> <Mpro-x1385_dock>
-4.313951

> <Mpro-x0305_dock>
-2.933223

> <Mpro-x1380_dock>
-2.274971

> <Mpro-x0770_dock>
0.505171

> <site>
active-noncovalent

> <covalent_distance_min>
13.0521

> <covalent_distance_mean>
13.401071

> <covalent_distance_stderr>
0.04192732

$$$$
DAR-DIA-fb2-6
  -OEChem-04062011563D

 42 44  0     0  0  0  0  0  0999 V2000
    9.1153    0.5038   27.4151 C   0  0  0  0  0  0  0  0  0  0  0  0
   13.0701    0.4711   22.7119 C   0  0  0  0  0  0  0  0  0  0  0  0
   12.5109   -0.6104   22.0379 C   0  0  0  0  0  0  0  0  0  0  0  0
   12.5114    0.9108   23.9124 C   0  0  0  0  0  0  0  0  0  0  0  0
   11.3908   -1.2565   22.5617 C   0  0  0  0  0  0  0  0  0  0  0  0
   10.8086    0.7014   25.6614 C   0  0  0  0  0  0  0  0  0  0  0  0
    9.1292   -1.0262   25.5112 C   0  0  0  0  0  0  0  0  0  0  0  0
    9.6885    0.0554   26.1852 C   0  0  0  0  0  0  0  0  0  0  0  0
   11.3840    0.2724   24.4543 C   0  0  0  0  0  0  0  0  0  0  0  0
   10.8153   -0.8275   23.7688 C   0  0  0  0  0  0  0  0  0  0  0  0
    9.6878   -1.4658   24.3107 C   0  0  0  0  0  0  0  0  0  0  0  0
    6.6559   -1.4159   19.2937 C   0  0  0  0  0  0  0  0  0  0  0  0
    7.5374   -3.0919   20.8843 C   0  0  0  0  0  0  0  0  0  0  0  0
    7.8152   -0.7031   21.4412 C   0  0  0  0  0  0  0  0  0  0  0  0
    7.0313   -3.3804   22.2900 C   0  0  0  0  0  0  0  0  0  0  0  0
    7.3150   -0.9597   22.8566 C   0  0  0  0  0  0  0  0  0  0  0  0
    9.0365   -2.6370   23.6360 C   0  0  0  0  0  0  0  0  0  0  0  0
    7.0191   -0.1096   18.6338 C   0  0  0  0  0  0  0  0  0  0  0  0
    8.6498    0.8680   28.4139 N   0  0  0  0  0  0  0  0  0  0  0  0
    7.2863   -1.7011   20.5048 N   0  0  0  0  0  0  0  0  0  0  0  0
    7.5987   -2.3838   23.2738 N   0  3  0  0  0  0  0  0  0  0  0  0
    5.8346   -2.1580   18.7489 O   0  0  0  0  0  0  0  0  0  0  0  0
    5.8674    1.0868   19.2173 Cl  0  0  0  0  0  0  0  0  0  0  0  0
   13.9421    0.9738   22.3034 H   0  0  0  0  0  0  0  0  0  0  0  0
   12.9468   -0.9516   21.1036 H   0  0  0  0  0  0  0  0  0  0  0  0
   12.9653    1.7586   24.4214 H   0  0  0  0  0  0  0  0  0  0  0  0
   10.9831   -2.0975   22.0054 H   0  0  0  0  0  0  0  0  0  0  0  0
   11.2413    1.5475   26.1939 H   0  0  0  0  0  0  0  0  0  0  0  0
    8.2564   -1.5327   25.9186 H   0  0  0  0  0  0  0  0  0  0  0  0
    8.6065   -3.3229   20.8262 H   0  0  0  0  0  0  0  0  0  0  0  0
    7.0291   -3.7301   20.1500 H   0  0  0  0  0  0  0  0  0  0  0  0
    7.4838    0.2817   21.0878 H   0  0  0  0  0  0  0  0  0  0  0  0
    8.9072   -0.6877   21.4456 H   0  0  0  0  0  0  0  0  0  0  0  0
    5.9343   -3.2913   22.3314 H   0  0  0  0  0  0  0  0  0  0  0  0
    7.3177   -4.3894   22.6303 H   0  0  0  0  0  0  0  0  0  0  0  0
    7.7984   -0.2921   23.5891 H   0  0  0  0  0  0  0  0  0  0  0  0
    6.2246   -0.8148   22.9121 H   0  0  0  0  0  0  0  0  0  0  0  0
    9.5541   -2.8963   22.7062 H   0  0  0  0  0  0  0  0  0  0  0  0
    9.0472   -3.5217   24.2818 H   0  0  0  0  0  0  0  0  0  0  0  0
    6.9276   -0.2211   17.5594 H   0  0  0  0  0  0  0  0  0  0  0  0
    8.0247    0.1661   18.9300 H   0  0  0  0  0  0  0  0  0  0  0  0
    7.0562   -2.5301   24.1735 H   0  0  0  0  0  0  0  0  0  0  0  0
  1  8  1  0  0  0  0
  1 19  3  0  0  0  0
  2  3  1  0  0  0  0
  2  4  2  0  0  0  0
  3  5  2  0  0  0  0
  4  9  1  0  0  0  0
  5 10  1  0  0  0  0
  6  8  2  0  0  0  0
  6  9  1  0  0  0  0
  7  8  1  0  0  0  0
  7 11  2  0  0  0  0
  9 10  2  0  0  0  0
 10 11  1  0  0  0  0
 11 17  1  0  0  0  0
 12 18  1  0  0  0  0
 12 20  1  0  0  0  0
 12 22  2  0  0  0  0
 13 15  1  0  0  0  0
 13 20  1  0  0  0  0
 14 16  1  0  0  0  0
 14 20  1  0  0  0  0
 15 21  1  0  0  0  0
 16 21  1  0  0  0  0
 17 21  1  0  0  0  0
 18 23  1  0  0  0  0
  2 24  1  0  0  0  0
  3 25  1  0  0  0  0
  4 26  1  0  0  0  0
  5 27  1  0  0  0  0
  6 28  1  0  0  0  0
  7 29  1  0  0  0  0
 13 30  1  0  0  0  0
 13 31  1  0  0  0  0
 14 32  1  0  0  0  0
 14 33  1  0  0  0  0
 15 34  1  0  0  0  0
 15 35  1  0  0  0  0
 16 36  1  0  0  0  0
 16 37  1  0  0  0  0
 17 38  1  0  0  0  0
 17 39  1  0  0  0  0
 18 40  1  0  0  0  0
 18 41  1  0  0  0  0
 21 42  1  0  0  0  0
M  CHG  1  21   1
M  END
> <creator>
Daren Fearon, Diamond Light Source Ltd

> <fragments>
x0830

> <real_space>
FALSE

> <SCR>
FALSE

> <BB>
FALSE

> <link>
https://covid.postera.ai/covid/submissions/fb20be43-b2ad-4a19-a5ce-eb2fe8d462e2

> <covalent_frag>
TRUE

> <covalent_warhead>
TRUE

> <acrylamide>
FALSE

> <acrylamide_adduct>
FALSE

> <chloroacetamide>
TRUE

> <chloroacetamide_adduct>
FALSE

> <vinylsulfonamide>
FALSE

> <vinylsulfonamide_adduct>
FALSE

> <in_molport_or_mcule>
FALSE

> <in_emolecules>
FALSE

> <Hybrid2>
-9.822056

> <Mpro-x0830_dock>
-9.822056

> <Mpro-x0195_dock>
-8.784193

> <Mpro-x0104_dock>
-7.643533

> <Mpro-x0305_dock>
-3.896649

> <site>
active-covalent

> <covalent_distance_min>
2.9081562

> <covalent_distance_mean>
3.3022509

> <covalent_distance_stderr>
0.011270744

$$$$
MIH-UNI-e57-12
  -OEChem-04062011563D

 47 50  0     0  0  0  0  0  0999 V2000
   14.5468   -1.2274   23.6417 C   0  0  0  0  0  0  0  0  0  0  0  0
   13.7266   -2.1669   23.0272 C   0  0  0  0  0  0  0  0  0  0  0  0
    8.2888   -3.8223   22.7934 C   0  0  0  0  0  0  0  0  0  0  0  0
    7.1231   -5.4240   24.2350 C   0  0  0  0  0  0  0  0  0  0  0  0
   13.9853   -0.0958   24.2289 C   0  0  0  0  0  0  0  0  0  0  0  0
   12.3433   -1.9844   23.0145 C   0  0  0  0  0  0  0  0  0  0  0  0
    9.0485   -2.6616   22.6448 C   0  0  0  0  0  0  0  0  0  0  0  0
    6.7337   -5.8425   25.5076 C   0  0  0  0  0  0  0  0  0  0  0  0
    9.0280   -2.3405   25.0373 C   0  0  0  0  0  0  0  0  0  0  0  0
    7.8624   -3.9423   26.4790 C   0  0  0  0  0  0  0  0  0  0  0  0
    7.8880   -4.2583   24.0668 C   0  0  0  0  0  0  0  0  0  0  0  0
    8.2632   -3.5063   25.2055 C   0  0  0  0  0  0  0  0  0  0  0  0
    9.4174   -1.9222   23.7646 C   0  0  0  0  0  0  0  0  0  0  0  0
   12.5954    0.1054   24.2143 C   0  0  0  0  0  0  0  0  0  0  0  0
   11.7557   -0.8666   23.6331 C   0  0  0  0  0  0  0  0  0  0  0  0
    7.1027   -5.1030   26.6275 C   0  0  0  0  0  0  0  0  0  0  0  0
   10.0250    2.8257   24.3628 C   0  0  0  0  0  0  0  0  0  0  0  0
   12.0471    1.3677   24.8363 C   0  0  0  0  0  0  0  0  0  0  0  0
    9.7952    0.3814   24.6440 C   0  0  0  0  0  0  0  0  0  0  0  0
   10.2457   -0.6555   23.5998 C   0  0  2  0  0  0  0  0  0  0  0  0
   10.9350    4.0271   24.4245 C   0  0  0  0  0  0  0  0  0  0  0  0
   10.6224    1.5815   24.5668 N   0  0  0  0  0  0  0  0  0  0  0  0
    5.7399   -7.0462   27.8407 N   0  0  0  0  0  0  0  0  0  0  0  0
    8.8234    2.9893   24.1369 O   0  0  0  0  0  0  0  0  0  0  0  0
    7.8083   -5.9982   28.9671 O   0  0  0  0  0  0  0  0  0  0  0  0
    5.6933   -4.6436   28.7692 O   0  0  0  0  0  0  0  0  0  0  0  0
    6.6147   -5.6282   28.2195 S   0  0  0  0  0  0  0  0  0  0  0  0
   11.5547    4.2725   22.7959 Cl  0  0  0  0  0  0  0  0  0  0  0  0
   15.6219   -1.3752   23.6645 H   0  0  0  0  0  0  0  0  0  0  0  0
   14.1614   -3.0436   22.5549 H   0  0  0  0  0  0  0  0  0  0  0  0
    8.0122   -4.3852   21.9042 H   0  0  0  0  0  0  0  0  0  0  0  0
    6.8239   -6.0178   23.3738 H   0  0  0  0  0  0  0  0  0  0  0  0
   14.6363    0.6344   24.7048 H   0  0  0  0  0  0  0  0  0  0  0  0
   11.7183   -2.7229   22.5137 H   0  0  0  0  0  0  0  0  0  0  0  0
    9.3468   -2.3427   21.6495 H   0  0  0  0  0  0  0  0  0  0  0  0
    6.1417   -6.7477   25.6130 H   0  0  0  0  0  0  0  0  0  0  0  0
    9.3245   -1.7536   25.9051 H   0  0  0  0  0  0  0  0  0  0  0  0
    8.1450   -3.3716   27.3619 H   0  0  0  0  0  0  0  0  0  0  0  0
   12.2196    1.3290   25.9120 H   0  0  0  0  0  0  0  0  0  0  0  0
   12.5784    2.2301   24.4248 H   0  0  0  0  0  0  0  0  0  0  0  0
    8.7673    0.6963   24.4401 H   0  0  0  0  0  0  0  0  0  0  0  0
    9.8135   -0.0467   25.6478 H   0  0  0  0  0  0  0  0  0  0  0  0
    9.9713   -0.2327   22.6023 H   0  0  0  0  0  0  0  0  0  0  0  0
   11.7507    3.8144   25.1056 H   0  0  0  0  0  0  0  0  0  0  0  0
   10.3570    4.8887   24.7374 H   0  0  0  0  0  0  0  0  0  0  0  0
    4.8243   -6.9408   27.3869 H   0  0  0  0  0  0  0  0  0  0  0  0
    6.2682   -7.8682   27.5235 H   0  0  0  0  0  0  0  0  0  0  0  0
  1  2  1  0  0  0  0
  1  5  2  0  0  0  0
  2  6  2  0  0  0  0
  3  7  2  0  0  0  0
  3 11  1  0  0  0  0
  4  8  2  0  0  0  0
  4 11  1  0  0  0  0
  5 14  1  0  0  0  0
  6 15  1  0  0  0  0
  7 13  1  0  0  0  0
  8 16  1  0  0  0  0
  9 12  1  0  0  0  0
  9 13  2  0  0  0  0
 10 12  1  0  0  0  0
 10 16  2  0  0  0  0
 11 12  2  0  0  0  0
 13 20  1  0  0  0  0
 14 15  2  0  0  0  0
 14 18  1  0  0  0  0
 15 20  1  0  0  0  0
 16 27  1  0  0  0  0
 17 21  1  0  0  0  0
 17 22  1  0  0  0  0
 17 24  2  0  0  0  0
 18 22  1  0  0  0  0
 19 20  1  0  0  0  0
 19 22  1  0  0  0  0
 21 28  1  0  0  0  0
 23 27  1  0  0  0  0
 25 27  2  0  0  0  0
 26 27  2  0  0  0  0
  1 29  1  0  0  0  0
  2 30  1  0  0  0  0
  3 31  1  0  0  0  0
  4 32  1  0  0  0  0
  5 33  1  0  0  0  0
  6 34  1  0  0  0  0
  7 35  1  0  0  0  0
  8 36  1  0  0  0  0
  9 37  1  0  0  0  0
 10 38  1  0  0  0  0
 18 39  1  0  0  0  0
 18 40  1  0  0  0  0
 19 41  1  0  0  0  0
 19 42  1  0  0  0  0
 20 43  1  0  0  0  0
 21 44  1  0  0  0  0
 21 45  1  0  0  0  0
 23 46  1  0  0  0  0
 23 47  1  0  0  0  0
M  END
> <creator>
Mihaela Smilova, University of Oxford

> <fragments>
x0072

> <real_space>
FALSE

> <SCR>
FALSE

> <BB>
FALSE

> <link>
https://covid.postera.ai/covid/submissions/e573136b-dbda-4fa9-8a0d-95e3d7d1615f

> <covalent_frag>
TRUE

> <covalent_warhead>
TRUE

> <acrylamide>
FALSE

> <acrylamide_adduct>
FALSE

> <chloroacetamide>
TRUE

> <chloroacetamide_adduct>
FALSE

> <vinylsulfonamide>
FALSE

> <vinylsulfonamide_adduct>
FALSE

> <in_molport_or_mcule>
FALSE

> <in_emolecules>
FALSE

> <Hybrid2>
-9.803926

> <Mpro-x0072_dock>
-9.803926

> <Mpro-x1093_dock>
-8.011615

> <Mpro-x0874_dock>
-7.90207

> <Mpro-x0830_dock>
-6.731872

> <Mpro-x0104_dock>
-6.586657

> <Mpro-x0678_dock>
-6.406337

> <Mpro-x0107_dock>
-5.769068

> <site>
active-noncovalent

$$$$
MIH-UNI-e57-1
  -OEChem-04062011563D

 54 58  0     1  0  0  0  0  0999 V2000
   14.1035   -1.2506   21.1846 C   0  0  0  0  0  0  0  0  0  0  0  0
   13.0541   -0.3366   21.1747 C   0  0  0  0  0  0  0  0  0  0  0  0
   13.7907   -1.5578   26.0302 C   0  0  0  0  0  0  0  0  0  0  0  0
    5.4135    1.3707   18.8466 C   0  0  0  0  0  0  0  0  0  0  0  0
   14.5526   -1.7856   22.3923 C   0  0  0  0  0  0  0  0  0  0  0  0
   12.4496    0.0459   22.3726 C   0  0  0  0  0  0  0  0  0  0  0  0
   14.3950   -1.9403   24.8323 C   0  0  0  0  0  0  0  0  0  0  0  0
    5.9530    1.3901   20.1316 C   0  0  0  0  0  0  0  0  0  0  0  0
   12.7412   -0.6438   26.0203 C   0  0  0  0  0  0  0  0  0  0  0  0
    6.1827    0.8656   17.8070 C   0  0  0  0  0  0  0  0  0  0  0  0
    9.3076    0.1727   20.9091 C   0  0  0  0  0  0  0  0  0  0  0  0
   13.9559   -1.4119   23.6075 C   0  0  0  0  0  0  0  0  0  0  0  0
   12.8887   -0.4824   23.5975 C   0  0  0  0  0  0  0  0  0  0  0  0
    7.2551    0.8935   20.3036 C   0  0  0  0  0  0  0  0  0  0  0  0
    8.1473    0.7342   21.3969 C   0  0  0  0  0  0  0  0  0  0  0  0
   12.2921   -0.1087   24.8127 C   0  0  0  0  0  0  0  0  0  0  0  0
    7.9132    0.4168   19.1736 C   0  0  0  0  0  0  0  0  0  0  0  0
    5.8187    0.1671   23.8872 C   0  0  0  0  0  0  0  0  0  0  0  0
    8.0131   -1.1069   23.9823 C   0  0  0  0  0  0  0  0  0  0  0  0
    9.1765   -0.6426   24.8434 C   0  0  0  0  0  0  0  0  0  0  0  0
    9.0741    1.5896   23.7005 C   0  0  0  0  0  0  0  0  0  0  0  0
    7.8803    1.1136   22.8531 C   0  0  2  0  0  0  0  0  0  0  0  0
   11.1574    0.8709   24.8738 C   0  0  0  0  0  0  0  0  0  0  0  0
    5.1860   -0.9497   24.6784 C   0  0  0  0  0  0  0  0  0  0  0  0
    7.4396    0.3754   17.9139 N   0  0  0  0  0  0  0  0  0  0  0  0
    9.1547   -0.0152   19.5599 N   0  0  0  0  0  0  0  0  0  0  0  0
    7.1771    0.0324   23.5837 N   0  0  0  0  0  0  0  0  0  0  0  0
    9.9480    0.4206   24.1020 N   0  3  1  0  0  0  0  0  0  0  0  0
    5.1251    1.1293   23.5472 O   0  0  0  0  0  0  0  0  0  0  0  0
    5.4055   -0.5501   26.3783 Cl  0  0  0  0  0  0  0  0  0  0  0  0
   14.5736   -1.5478   20.2517 H   0  0  0  0  0  0  0  0  0  0  0  0
   12.7051    0.0794   20.2340 H   0  0  0  0  0  0  0  0  0  0  0  0
   14.1399   -1.9739   26.9707 H   0  0  0  0  0  0  0  0  0  0  0  0
    4.4115    1.7437   18.6636 H   0  0  0  0  0  0  0  0  0  0  0  0
   15.3744   -2.4985   22.3761 H   0  0  0  0  0  0  0  0  0  0  0  0
   11.6328    0.7622   22.3234 H   0  0  0  0  0  0  0  0  0  0  0  0
   15.2138   -2.6562   24.8639 H   0  0  0  0  0  0  0  0  0  0  0  0
    5.3780    1.7776   20.9663 H   0  0  0  0  0  0  0  0  0  0  0  0
   12.2785   -0.3537   26.9602 H   0  0  0  0  0  0  0  0  0  0  0  0
    5.7780    0.8419   16.7986 H   0  0  0  0  0  0  0  0  0  0  0  0
   10.2283   -0.1109   21.3999 H   0  0  0  0  0  0  0  0  0  0  0  0
    8.3731   -1.6014   23.0726 H   0  0  0  0  0  0  0  0  0  0  0  0
    7.4422   -1.8541   24.5361 H   0  0  0  0  0  0  0  0  0  0  0  0
    8.8364   -0.2122   25.7921 H   0  0  0  0  0  0  0  0  0  0  0  0
    9.8660   -1.4698   25.0407 H   0  0  0  0  0  0  0  0  0  0  0  0
    9.7066    2.2843   23.1364 H   0  0  0  0  0  0  0  0  0  0  0  0
    8.7354    2.0750   24.6235 H   0  0  0  0  0  0  0  0  0  0  0  0
    7.1680    1.9912   22.7904 H   0  0  0  0  0  0  0  0  0  0  0  0
   10.8293    1.0328   25.9062 H   0  0  0  0  0  0  0  0  0  0  0  0
   11.4506    1.8420   24.4607 H   0  0  0  0  0  0  0  0  0  0  0  0
    5.6954   -1.8778   24.4454 H   0  0  0  0  0  0  0  0  0  0  0  0
    4.1295   -0.9946   24.4398 H   0  0  0  0  0  0  0  0  0  0  0  0
    9.8512   -0.4103   18.9435 H   0  0  0  0  0  0  0  0  0  0  0  0
   10.3017   -0.0088   23.2363 H   0  0  0  0  0  0  0  0  0  0  0  0
  1  2  1  0  0  0  0
  1  5  2  0  0  0  0
  2  6  2  0  0  0  0
  3  7  1  0  0  0  0
  3  9  2  0  0  0  0
  4  8  2  0  0  0  0
  4 10  1  0  0  0  0
  5 12  1  0  0  0  0
  6 13  1  0  0  0  0
  7 12  2  0  0  0  0
  8 14  1  0  0  0  0
  9 16  1  0  0  0  0
 10 25  2  0  0  0  0
 11 15  2  0  0  0  0
 11 26  1  0  0  0  0
 12 13  1  0  0  0  0
 13 16  2  0  0  0  0
 14 15  1  0  0  0  0
 14 17  2  0  0  0  0
 15 22  1  0  0  0  0
 16 23  1  0  0  0  0
 17 25  1  0  0  0  0
 17 26  1  0  0  0  0
 18 24  1  0  0  0  0
 18 27  1  0  0  0  0
 18 29  2  0  0  0  0
 19 20  1  0  0  0  0
 19 27  1  0  0  0  0
 20 28  1  0  0  0  0
 21 22  1  0  0  0  0
 21 28  1  0  0  0  0
 22 27  1  0  0  0  0
 23 28  1  0  0  0  0
 24 30  1  0  0  0  0
  1 31  1  0  0  0  0
  2 32  1  0  0  0  0
  3 33  1  0  0  0  0
  4 34  1  0  0  0  0
  5 35  1  0  0  0  0
  6 36  1  0  0  0  0
  7 37  1  0  0  0  0
  8 38  1  0  0  0  0
  9 39  1  0  0  0  0
 10 40  1  0  0  0  0
 11 41  1  0  0  0  0
 19 42  1  0  0  0  0
 19 43  1  0  0  0  0
 20 44  1  0  0  0  0
 20 45  1  0  0  0  0
 21 46  1  0  0  0  0
 21 47  1  0  0  0  0
 22 48  1  0  0  0  0
 23 49  1  0  0  0  0
 23 50  1  0  0  0  0
 24 51  1  0  0  0  0
 24 52  1  0  0  0  0
 26 53  1  0  0  0  0
 28 54  1  0  0  0  0
M  CHG  1  28   1
M  END
> <creator>
Mihaela Smilova, University of Oxford

> <fragments>
x0678

> <real_space>
FALSE

> <SCR>
FALSE

> <BB>
FALSE

> <link>
https://covid.postera.ai/covid/submissions/e573136b-dbda-4fa9-8a0d-95e3d7d1615f

> <covalent_frag>
TRUE

> <covalent_warhead>
TRUE

> <acrylamide>
FALSE

> <acrylamide_adduct>
FALSE

> <chloroacetamide>
TRUE

> <chloroacetamide_adduct>
FALSE

> <vinylsulfonamide>
FALSE

> <vinylsulfonamide_adduct>
FALSE

> <in_molport_or_mcule>
FALSE

> <in_emolecules>
FALSE

> <Hybrid2>
-9.792763

> <Mpro-x0678_dock>
-9.792763

> <Mpro-x0107_dock>
-9.295469

> <Mpro-x0072_dock>
-8.011947

> <Mpro-x0874_dock>
-7.829816

> <Mpro-x0104_dock>
-6.284609

> <Mpro-x0830_dock>
-6.039966

> <Mpro-x1093_dock>
-3.382356

> <site>
active-noncovalent

> <covalent_distance_min>
7.344713

> <covalent_distance_mean>
9.028299

> <covalent_distance_stderr>
0.13918985

$$$$
NIM-UNI-7ba-3
  -OEChem-04062011563D

 40 42  0     0  0  0  0  0  0999 V2000
   12.8185   -1.9057   20.9195 C   0  0  0  0  0  0  0  0  0  0  0  0
   14.0581   -1.5629   21.4593 C   0  0  0  0  0  0  0  0  0  0  0  0
    5.5190    0.8307   18.9424 C   0  0  0  0  0  0  0  0  0  0  0  0
    6.1764    1.0212   20.1527 C   0  0  0  0  0  0  0  0  0  0  0  0
   11.6536   -1.6911   21.6562 C   0  0  0  0  0  0  0  0  0  0  0  0
   14.1330   -1.0057   22.7358 C   0  0  0  0  0  0  0  0  0  0  0  0
    6.2816    0.4904   17.8368 C   0  0  0  0  0  0  0  0  0  0  0  0
    8.2280    0.5255   19.0567 C   0  0  0  0  0  0  0  0  0  0  0  0
    7.5567    0.8677   20.2195 C   0  0  0  0  0  0  0  0  0  0  0  0
   11.7284   -1.1339   22.9328 C   0  0  0  0  0  0  0  0  0  0  0  0
   12.9681   -0.7912   23.4726 C   0  0  0  0  0  0  0  0  0  0  0  0
    8.9950    0.0705   22.0231 C   0  0  0  0  0  0  0  0  0  0  0  0
    8.2796    1.0623   21.4816 C   0  0  0  0  0  0  0  0  0  0  0  0
    8.2931    2.3580   22.2364 C   0  0  0  0  0  0  0  0  0  0  0  0
    9.7097    1.4524   23.8757 C   0  0  0  0  0  0  0  0  0  0  0  0
    7.5292    4.6651   22.4049 C   0  0  0  0  0  0  0  0  0  0  0  0
   10.4517   -0.9212   23.6936 C   0  0  0  0  0  0  0  0  0  0  0  0
    6.6763    5.6716   21.6736 C   0  0  0  0  0  0  0  0  0  0  0  0
    7.6239    0.3323   17.8628 N   0  0  0  0  0  0  0  0  0  0  0  0
    8.9753    2.4958   23.3452 N   0  0  0  0  0  0  0  0  0  0  0  0
    9.7024    0.2265   23.1929 N   0  0  0  0  0  0  0  0  0  0  0  0
    7.5689    3.4336   21.7695 N   0  0  0  0  0  0  0  0  0  0  0  0
   10.3453    1.6098   24.9196 O   0  0  0  0  0  0  0  0  0  0  0  0
    8.1200    4.9555   23.4441 O   0  0  0  0  0  0  0  0  0  0  0  0
   13.1001   -0.0997   25.0485 Cl  0  0  0  0  0  0  0  0  0  0  0  0
    5.9640    6.7586   22.8763 Cl  0  0  0  0  0  0  0  0  0  0  0  0
   12.7603   -2.3387   19.9250 H   0  0  0  0  0  0  0  0  0  0  0  0
   14.9648   -1.7290   20.8848 H   0  0  0  0  0  0  0  0  0  0  0  0
    4.4438    0.9449   18.8669 H   0  0  0  0  0  0  0  0  0  0  0  0
    5.6003    1.2890   21.0349 H   0  0  0  0  0  0  0  0  0  0  0  0
   10.6927   -1.9614   21.2260 H   0  0  0  0  0  0  0  0  0  0  0  0
   15.1066   -0.7431   23.1416 H   0  0  0  0  0  0  0  0  0  0  0  0
    5.8160    0.3317   16.8697 H   0  0  0  0  0  0  0  0  0  0  0  0
    9.3058    0.3904   19.0420 H   0  0  0  0  0  0  0  0  0  0  0  0
    9.0526   -0.9110   21.5617 H   0  0  0  0  0  0  0  0  0  0  0  0
    9.8066   -1.8035   23.6197 H   0  0  0  0  0  0  0  0  0  0  0  0
   10.6515   -0.7525   24.7571 H   0  0  0  0  0  0  0  0  0  0  0  0
    5.8751    5.1506   21.1424 H   0  0  0  0  0  0  0  0  0  0  0  0
    7.2487    6.2681   20.9588 H   0  0  0  0  0  0  0  0  0  0  0  0
    7.0458    3.2899   20.9102 H   0  0  0  0  0  0  0  0  0  0  0  0
  1  2  1  0  0  0  0
  1  5  2  0  0  0  0
  2  6  2  0  0  0  0
  3  4  2  0  0  0  0
  3  7  1  0  0  0  0
  4  9  1  0  0  0  0
  5 10  1  0  0  0  0
  6 11  1  0  0  0  0
  7 19  2  0  0  0  0
  8  9  2  0  0  0  0
  8 19  1  0  0  0  0
  9 13  1  0  0  0  0
 10 11  2  0  0  0  0
 10 17  1  0  0  0  0
 11 25  1  0  0  0  0
 12 13  2  0  0  0  0
 12 21  1  0  0  0  0
 13 14  1  0  0  0  0
 14 20  2  0  0  0  0
 14 22  1  0  0  0  0
 15 20  1  0  0  0  0
 15 21  1  0  0  0  0
 15 23  2  0  0  0  0
 16 18  1  0  0  0  0
 16 22  1  0  0  0  0
 16 24  2  0  0  0  0
 17 21  1  0  0  0  0
 18 26  1  0  0  0  0
  1 27  1  0  0  0  0
  2 28  1  0  0  0  0
  3 29  1  0  0  0  0
  4 30  1  0  0  0  0
  5 31  1  0  0  0  0
  6 32  1  0  0  0  0
  7 33  1  0  0  0  0
  8 34  1  0  0  0  0
 12 35  1  0  0  0  0
 17 36  1  0  0  0  0
 17 37  1  0  0  0  0
 18 38  1  0  0  0  0
 18 39  1  0  0  0  0
 22 40  1  0  0  0  0
M  END
> <creator>
Nimesh Mistry, University of Leeds

> <fragments>
x0678

> <real_space>
FALSE

> <SCR>
FALSE

> <BB>
FALSE

> <link>
https://covid.postera.ai/covid/submissions/7ba87d62-e988-4a36-a14e-34fe6d7cd8bf

> <covalent_frag>
TRUE

> <covalent_warhead>
TRUE

> <acrylamide>
FALSE

> <acrylamide_adduct>
FALSE

> <chloroacetamide>
TRUE

> <chloroacetamide_adduct>
FALSE

> <vinylsulfonamide>
FALSE

> <vinylsulfonamide_adduct>
FALSE

> <in_molport_or_mcule>
FALSE

> <in_emolecules>
FALSE

> <Hybrid2>
-9.534260

> <Mpro-x0678_dock>
-9.53426

> <Mpro-x0830_dock>
-6.699353

> <Mpro-x0692_dock>
-6.633664

> <Mpro-x1386_dock>
-6.369255

> <Mpro-x1385_dock>
-5.656897

> <Mpro-x0434_dock>
-4.965867

> <Mpro-x0770_dock>
-4.341603

> <Mpro-x1334_dock>
-4.18008

> <site>
active-noncovalent

> <covalent_distance_min>
9.903242

> <covalent_distance_mean>
10.220423

> <covalent_distance_stderr>
0.030282833

$$$$
HAR-NEW-972-1
  -OEChem-04062011563D

 46 48  0     1  0  0  0  0  0999 V2000
   10.4361   -3.5196   24.9559 C   0  0  0  0  0  0  0  0  0  0  0  0
   11.6049   -2.7229   25.0248 C   0  0  0  0  0  0  0  0  0  0  0  0
    9.7229   -3.1050   23.8499 C   0  0  0  0  0  0  0  0  0  0  0  0
   11.5615   -1.8459   23.9600 C   0  0  0  0  0  0  0  0  0  0  0  0
    6.3784   -2.9645   20.2536 C   0  0  0  0  0  0  0  0  0  0  0  0
   12.7154   -2.7248   26.0173 C   0  0  0  0  0  0  0  0  0  0  0  0
   12.5897   -0.8323   23.6122 C   0  0  0  0  0  0  0  0  0  0  0  0
   13.5356   -0.6188   24.8100 C   0  0  0  0  0  0  0  0  0  0  0  0
    7.3256   -5.8083   22.5788 C   0  0  0  0  0  0  0  0  0  0  0  0
    8.1282   -5.0691   23.6507 C   0  0  0  0  0  0  0  0  0  0  0  0
    6.3241   -4.8960   21.8811 C   0  0  0  0  0  0  0  0  0  0  0  0
    8.2917   -3.3548   21.7712 C   0  0  0  0  0  0  0  0  0  0  0  0
    8.4007   -3.5965   23.2839 C   0  0  2  0  0  0  0  0  0  0  0  0
   13.9488   -1.9547   25.4786 C   0  0  1  0  0  0  0  0  0  0  0  0
    7.1842   -1.7925   19.7488 C   0  0  0  0  0  0  0  0  0  0  0  0
   14.9547   -1.7088   26.6010 C   0  0  0  0  0  0  0  0  0  0  0  0
   10.4186   -2.0848   23.2497 N   0  0  0  0  0  0  0  0  0  0  0  0
    6.9647   -3.7256   21.2669 N   0  0  0  0  0  0  0  0  0  0  0  0
   15.3573   -3.0110   27.1702 N   0  3  0  0  0  0  0  0  0  0  0  0
    5.2672   -3.1929   19.7698 O   0  0  0  0  0  0  0  0  0  0  0  0
    6.2363   -1.0431   18.4691 Cl  0  0  0  0  0  0  0  0  0  0  0  0
   10.1431   -4.3068   25.6373 H   0  0  0  0  0  0  0  0  0  0  0  0
   12.3550   -2.2563   26.9419 H   0  0  0  0  0  0  0  0  0  0  0  0
   13.0016   -3.7542   26.2627 H   0  0  0  0  0  0  0  0  0  0  0  0
   13.1670   -1.1887   22.7508 H   0  0  0  0  0  0  0  0  0  0  0  0
   12.1256    0.1194   23.3320 H   0  0  0  0  0  0  0  0  0  0  0  0
   14.4227   -0.0707   24.4712 H   0  0  0  0  0  0  0  0  0  0  0  0
   13.0364    0.0158   25.5548 H   0  0  0  0  0  0  0  0  0  0  0  0
    8.0149   -6.2370   21.8366 H   0  0  0  0  0  0  0  0  0  0  0  0
    6.7939   -6.6567   23.0369 H   0  0  0  0  0  0  0  0  0  0  0  0
    7.5905   -5.1251   24.6140 H   0  0  0  0  0  0  0  0  0  0  0  0
    9.0853   -5.5984   23.8136 H   0  0  0  0  0  0  0  0  0  0  0  0
    5.8025   -5.4397   21.0755 H   0  0  0  0  0  0  0  0  0  0  0  0
    5.5489   -4.5812   22.5972 H   0  0  0  0  0  0  0  0  0  0  0  0
    8.5353   -2.3109   21.5434 H   0  0  0  0  0  0  0  0  0  0  0  0
    9.0244   -3.9675   21.2234 H   0  0  0  0  0  0  0  0  0  0  0  0
    7.6053   -2.9739   23.7825 H   0  0  0  0  0  0  0  0  0  0  0  0
   14.4379   -2.5755   24.7151 H   0  0  0  0  0  0  0  0  0  0  0  0
    8.1242   -2.1576   19.3506 H   0  0  0  0  0  0  0  0  0  0  0  0
    7.3320   -1.0913   20.5621 H   0  0  0  0  0  0  0  0  0  0  0  0
   14.5102   -1.1212   27.4019 H   0  0  0  0  0  0  0  0  0  0  0  0
   15.8515   -1.2224   26.2218 H   0  0  0  0  0  0  0  0  0  0  0  0
   10.1328   -1.5927   22.4140 H   0  0  0  0  0  0  0  0  0  0  0  0
   14.8408   -3.2163   28.0349 H   0  0  0  0  0  0  0  0  0  0  0  0
   16.3601   -3.0250   27.3965 H   0  0  0  0  0  0  0  0  0  0  0  0
   15.1767   -3.7786   26.5106 H   0  0  0  0  0  0  0  0  0  0  0  0
  1  2  1  0  0  0  0
  1  3  2  0  0  0  0
  2  4  2  0  0  0  0
  2  6  1  0  0  0  0
  3 13  1  0  0  0  0
  3 17  1  0  0  0  0
  4  7  1  0  0  0  0
  4 17  1  0  0  0  0
  5 15  1  0  0  0  0
  5 18  1  0  0  0  0
  5 20  2  0  0  0  0
  6 14  1  0  0  0  0
  7  8  1  0  0  0  0
  8 14  1  0  0  0  0
  9 10  1  0  0  0  0
  9 11  1  0  0  0  0
 10 13  1  0  0  0  0
 11 18  1  0  0  0  0
 12 13  1  0  0  0  0
 12 18  1  0  0  0  0
 14 16  1  0  0  0  0
 15 21  1  0  0  0  0
 16 19  1  0  0  0  0
  1 22  1  0  0  0  0
  6 23  1  0  0  0  0
  6 24  1  0  0  0  0
  7 25  1  0  0  0  0
  7 26  1  0  0  0  0
  8 27  1  0  0  0  0
  8 28  1  0  0  0  0
  9 29  1  0  0  0  0
  9 30  1  0  0  0  0
 10 31  1  0  0  0  0
 10 32  1  0  0  0  0
 11 33  1  0  0  0  0
 11 34  1  0  0  0  0
 12 35  1  0  0  0  0
 12 36  1  0  0  0  0
 13 37  1  0  0  0  0
 14 38  1  0  0  0  0
 15 39  1  0  0  0  0
 15 40  1  0  0  0  0
 16 41  1  0  0  0  0
 16 42  1  0  0  0  0
 17 43  1  0  0  0  0
 19 44  1  0  0  0  0
 19 45  1  0  0  0  0
 19 46  1  0  0  0  0
M  CHG  1  19   1
M  END
> <creator>
Harriet Stanway-Gordon, Newcastle University

> <fragments>
x0749

> <real_space>
FALSE

> <SCR>
FALSE

> <BB>
FALSE

> <link>
https://covid.postera.ai/covid/submissions/972ef1cc-c982-4e98-8f85-722ab0ff6735

> <covalent_frag>
TRUE

> <covalent_warhead>
TRUE

> <acrylamide>
FALSE

> <acrylamide_adduct>
FALSE

> <chloroacetamide>
TRUE

> <chloroacetamide_adduct>
FALSE

> <vinylsulfonamide>
FALSE

> <vinylsulfonamide_adduct>
FALSE

> <in_molport_or_mcule>
FALSE

> <in_emolecules>
FALSE

> <Hybrid2>
-9.532208

> <Mpro-x0749_dock>
-9.532208

> <Mpro-x0107_dock>
-6.276365

> <Mpro-x0759_dock>
-5.783477

> <site>
active-covalent

> <covalent_distance_min>
3.1159499

> <covalent_distance_mean>
3.7007918

> <covalent_distance_stderr>
0.02552624

$$$$
DAR-DIA-cab-4
  -OEChem-04062011563D

 57 60  0     1  0  0  0  0  0999 V2000
    7.7937   -3.7067   24.3889 C   0  0  0  0  0  0  0  0  0  0  0  0
    7.3591   -2.5576   25.0427 C   0  0  0  0  0  0  0  0  0  0  0  0
    9.0943   -3.7753   23.8906 C   0  0  0  0  0  0  0  0  0  0  0  0
    8.2257   -1.4773   25.2018 C   0  0  0  0  0  0  0  0  0  0  0  0
    9.4928    2.9852   22.2637 C   0  0  0  0  0  0  0  0  0  0  0  0
    9.5906    0.6021   22.7199 C   0  0  0  0  0  0  0  0  0  0  0  0
   10.8824    4.0502   25.4723 C   0  0  0  0  0  0  0  0  0  0  0  0
   10.0380    3.2428   23.5372 C   0  0  0  0  0  0  0  0  0  0  0  0
    9.9753   -2.6931   24.0377 C   0  0  0  0  0  0  0  0  0  0  0  0
    9.5388   -1.5353   24.7071 C   0  0  0  0  0  0  0  0  0  0  0  0
   10.1323    0.8332   23.9876 C   0  0  0  0  0  0  0  0  0  0  0  0
   10.3828    4.4270   24.2470 C   0  0  0  0  0  0  0  0  0  0  0  0
   10.3445    2.1630   24.3681 C   0  0  0  0  0  0  0  0  0  0  0  0
    9.2751    1.6600   21.8696 C   0  0  0  0  0  0  0  0  0  0  0  0
   13.1881   -1.2375   22.6807 C   0  0  0  0  0  0  0  0  0  0  0  0
   13.4352    5.1912   22.3045 C   0  0  0  0  0  0  0  0  0  0  0  0
   11.3731   -2.8137   23.4815 C   0  0  0  0  0  0  0  0  0  0  0  0
   11.9395   -0.7613   24.7583 C   0  0  0  0  0  0  0  0  0  0  0  0
   10.4650   -0.3470   24.8905 C   0  0  2  0  0  0  0  0  0  0  0  0
   13.8727    4.4984   21.0568 C   0  0  0  0  0  0  0  0  0  0  0  0
    8.5492    0.0348   20.2923 C   0  0  0  0  0  0  0  0  0  0  0  0
   10.2361    5.8152   23.7649 C   0  0  0  0  0  0  0  0  0  0  0  0
   14.3152   -0.4067   23.2423 C   0  0  0  0  0  0  0  0  0  0  0  0
   11.5571    6.4673   23.3178 C   0  0  0  0  0  0  0  0  0  0  0  0
   10.8555    2.6828   25.5359 N   0  0  0  0  0  0  0  0  0  0  0  0
   12.1674   -1.5820   23.5697 N   0  0  0  0  0  0  0  0  0  0  0  0
   12.1719    5.7555   22.2296 N   0  0  0  0  0  0  0  0  0  0  0  0
   13.2188   -1.5750   21.4948 O   0  0  0  0  0  0  0  0  0  0  0  0
   14.1829    5.2171   23.2751 O   0  0  0  0  0  0  0  0  0  0  0  0
    8.7488    1.4036   20.6389 O   0  0  0  0  0  0  0  0  0  0  0  0
   13.8743    1.2776   22.9860 Cl  0  0  0  0  0  0  0  0  0  0  0  0
    7.1204   -4.5500   24.2664 H   0  0  0  0  0  0  0  0  0  0  0  0
    6.3462   -2.5029   25.4305 H   0  0  0  0  0  0  0  0  0  0  0  0
    9.4196   -4.6797   23.3818 H   0  0  0  0  0  0  0  0  0  0  0  0
    7.8728   -0.5875   25.7176 H   0  0  0  0  0  0  0  0  0  0  0  0
    9.2439    3.8037   21.5935 H   0  0  0  0  0  0  0  0  0  0  0  0
    9.4118   -0.4196   22.3900 H   0  0  0  0  0  0  0  0  0  0  0  0
   11.2555    4.6304   26.3049 H   0  0  0  0  0  0  0  0  0  0  0  0
   11.9196   -3.5794   24.0450 H   0  0  0  0  0  0  0  0  0  0  0  0
   11.3066   -3.1367   22.4389 H   0  0  0  0  0  0  0  0  0  0  0  0
   12.5924    0.1189   24.7590 H   0  0  0  0  0  0  0  0  0  0  0  0
   12.2342   -1.3763   25.6190 H   0  0  0  0  0  0  0  0  0  0  0  0
   10.3355    0.0241   25.9443 H   0  0  0  0  0  0  0  0  0  0  0  0
   14.4043    5.1723   20.3659 H   0  0  0  0  0  0  0  0  0  0  0  0
   14.5757    3.6741   21.2579 H   0  0  0  0  0  0  0  0  0  0  0  0
   13.0637    4.0495   20.4585 H   0  0  0  0  0  0  0  0  0  0  0  0
    8.1251   -0.0293   19.2873 H   0  0  0  0  0  0  0  0  0  0  0  0
    7.8736   -0.4301   21.0148 H   0  0  0  0  0  0  0  0  0  0  0  0
    9.5121   -0.4810   20.3126 H   0  0  0  0  0  0  0  0  0  0  0  0
    9.7969    6.4494   24.5602 H   0  0  0  0  0  0  0  0  0  0  0  0
    9.5104    5.8770   22.9288 H   0  0  0  0  0  0  0  0  0  0  0  0
   15.2254   -0.6400   22.7024 H   0  0  0  0  0  0  0  0  0  0  0  0
   14.4065   -0.6111   24.3026 H   0  0  0  0  0  0  0  0  0  0  0  0
   11.3913    7.4921   22.9710 H   0  0  0  0  0  0  0  0  0  0  0  0
   12.2779    6.4980   24.1415 H   0  0  0  0  0  0  0  0  0  0  0  0
   11.1679    2.1348   26.3256 H   0  0  0  0  0  0  0  0  0  0  0  0
   11.6517    5.6614   21.3587 H   0  0  0  0  0  0  0  0  0  0  0  0
  1  2  1  0  0  0  0
  1  3  2  0  0  0  0
  2  4  2  0  0  0  0
  3  9  1  0  0  0  0
  4 10  1  0  0  0  0
  5  8  1  0  0  0  0
  5 14  2  0  0  0  0
  6 11  2  0  0  0  0
  6 14  1  0  0  0  0
  7 12  2  0  0  0  0
  7 25  1  0  0  0  0
  8 12  1  0  0  0  0
  8 13  2  0  0  0  0
  9 10  2  0  0  0  0
  9 17  1  0  0  0  0
 10 19  1  0  0  0  0
 11 13  1  0  0  0  0
 11 19  1  0  0  0  0
 12 22  1  0  0  0  0
 13 25  1  0  0  0  0
 14 30  1  0  0  0  0
 15 23  1  0  0  0  0
 15 26  1  0  0  0  0
 15 28  2  0  0  0  0
 16 20  1  0  0  0  0
 16 27  1  0  0  0  0
 16 29  2  0  0  0  0
 17 26  1  0  0  0  0
 18 19  1  0  0  0  0
 18 26  1  0  0  0  0
 21 30  1  0  0  0  0
 22 24  1  0  0  0  0
 23 31  1  0  0  0  0
 24 27  1  0  0  0  0
  1 32  1  0  0  0  0
  2 33  1  0  0  0  0
  3 34  1  0  0  0  0
  4 35  1  0  0  0  0
  5 36  1  0  0  0  0
  6 37  1  0  0  0  0
  7 38  1  0  0  0  0
 17 39  1  0  0  0  0
 17 40  1  0  0  0  0
 18 41  1  0  0  0  0
 18 42  1  0  0  0  0
 19 43  1  0  0  0  0
 20 44  1  0  0  0  0
 20 45  1  0  0  0  0
 20 46  1  0  0  0  0
 21 47  1  0  0  0  0
 21 48  1  0  0  0  0
 21 49  1  0  0  0  0
 22 50  1  0  0  0  0
 22 51  1  0  0  0  0
 23 52  1  0  0  0  0
 23 53  1  0  0  0  0
 24 54  1  0  0  0  0
 24 55  1  0  0  0  0
 25 56  1  0  0  0  0
 27 57  1  0  0  0  0
M  END
> <creator>
Daren Fearon, Diamond Light Source Ltd

> <fragments>
x0195

> <real_space>
FALSE

> <SCR>
FALSE

> <BB>
FALSE

> <link>
https://covid.postera.ai/covid/submissions/caba39e3-6989-456c-b896-1cac12e2588e

> <covalent_frag>
TRUE

> <covalent_warhead>
TRUE

> <acrylamide>
FALSE

> <acrylamide_adduct>
FALSE

> <chloroacetamide>
TRUE

> <chloroacetamide_adduct>
FALSE

> <vinylsulfonamide>
FALSE

> <vinylsulfonamide_adduct>
FALSE

> <in_molport_or_mcule>
FALSE

> <in_emolecules>
FALSE

> <Hybrid2>
-9.449170

> <Mpro-x0195_dock>
-9.44917

> <Mpro-x0830_dock>
-6.563976

> <Mpro-x1392_dock>
-5.612041

> <Mpro-x1249_dock>
-3.015811

> <Mpro-x0305_dock>
-1.445621

> <site>
active-noncovalent

> <covalent_distance_min>
4.6251

> <covalent_distance_mean>
5.55585

> <covalent_distance_stderr>
0.054094423

$$$$
DAR-DIA-fb2-8
  -OEChem-04062011563D

 41 43  0     0  0  0  0  0  0999 V2000
   13.9460    0.7123   23.1430 C   0  0  0  0  0  0  0  0  0  0  0  0
   13.5559   -0.4143   22.4250 C   0  0  0  0  0  0  0  0  0  0  0  0
   13.1121    1.2331   24.1328 C   0  0  0  0  0  0  0  0  0  0  0  0
   12.3304   -1.0244   22.6941 C   0  0  0  0  0  0  0  0  0  0  0  0
   11.0231    1.1427   25.4097 C   0  0  0  0  0  0  0  0  0  0  0  0
    9.4075   -0.5939   24.9608 C   0  0  0  0  0  0  0  0  0  0  0  0
   11.8751    0.6320   24.4170 C   0  0  0  0  0  0  0  0  0  0  0  0
   11.4784   -0.5137   23.6868 C   0  0  0  0  0  0  0  0  0  0  0  0
   10.2414   -1.1148   23.9710 C   0  0  0  0  0  0  0  0  0  0  0  0
    9.7976    0.5327   25.6788 C   0  0  0  0  0  0  0  0  0  0  0  0
    6.2121   -2.0715   18.9883 C   0  0  0  0  0  0  0  0  0  0  0  0
    6.6120   -3.0924   21.2062 C   0  0  0  0  0  0  0  0  0  0  0  0
    7.1937   -0.7168   20.9039 C   0  0  0  0  0  0  0  0  0  0  0  0
    7.9700   -3.3660   21.8360 C   0  0  0  0  0  0  0  0  0  0  0  0
    8.5606   -0.9544   21.5314 C   0  0  0  0  0  0  0  0  0  0  0  0
    9.7606   -2.3305   23.2348 C   0  0  0  0  0  0  0  0  0  0  0  0
    6.8865   -1.2114   17.9495 C   0  0  0  0  0  0  0  0  0  0  0  0
    6.6750   -1.9476   20.2975 N   0  0  0  0  0  0  0  0  0  0  0  0
    8.4645   -2.1048   22.5084 N   0  3  0  0  0  0  0  0  0  0  0  0
    5.3034   -2.8317   18.6442 O   0  0  0  0  0  0  0  0  0  0  0  0
    8.7679    1.1740   26.8994 Cl  0  0  0  0  0  0  0  0  0  0  0  0
    5.9645    0.2852   17.8589 Cl  0  0  0  0  0  0  0  0  0  0  0  0
   14.9001    1.1869   22.9331 H   0  0  0  0  0  0  0  0  0  0  0  0
   14.2058   -0.8192   21.6546 H   0  0  0  0  0  0  0  0  0  0  0  0
   13.4374    2.1148   24.6812 H   0  0  0  0  0  0  0  0  0  0  0  0
   12.0615   -1.9022   22.1111 H   0  0  0  0  0  0  0  0  0  0  0  0
   11.3215    2.0236   25.9761 H   0  0  0  0  0  0  0  0  0  0  0  0
    8.4522   -1.0714   25.1686 H   0  0  0  0  0  0  0  0  0  0  0  0
    6.2664   -3.9875   20.6796 H   0  0  0  0  0  0  0  0  0  0  0  0
    5.8664   -2.8608   21.9765 H   0  0  0  0  0  0  0  0  0  0  0  0
    6.4702   -0.3992   21.6646 H   0  0  0  0  0  0  0  0  0  0  0  0
    7.2700    0.0942   20.1777 H   0  0  0  0  0  0  0  0  0  0  0  0
    7.8894   -4.1376   22.6085 H   0  0  0  0  0  0  0  0  0  0  0  0
    8.7159   -3.6653   21.0911 H   0  0  0  0  0  0  0  0  0  0  0  0
    9.3172   -1.2118   20.7816 H   0  0  0  0  0  0  0  0  0  0  0  0
    8.8846   -0.0738   22.0954 H   0  0  0  0  0  0  0  0  0  0  0  0
   10.4900   -2.6529   22.4840 H   0  0  0  0  0  0  0  0  0  0  0  0
    9.5951   -3.1684   23.9206 H   0  0  0  0  0  0  0  0  0  0  0  0
    6.8572   -1.7248   16.9952 H   0  0  0  0  0  0  0  0  0  0  0  0
    7.9013   -1.0047   18.2693 H   0  0  0  0  0  0  0  0  0  0  0  0
    7.7704   -1.8439   23.2224 H   0  0  0  0  0  0  0  0  0  0  0  0
  1  2  1  0  0  0  0
  1  3  2  0  0  0  0
  2  4  2  0  0  0  0
  3  7  1  0  0  0  0
  4  8  1  0  0  0  0
  5  7  2  0  0  0  0
  5 10  1  0  0  0  0
  6  9  1  0  0  0  0
  6 10  2  0  0  0  0
  7  8  1  0  0  0  0
  8  9  2  0  0  0  0
  9 16  1  0  0  0  0
 10 21  1  0  0  0  0
 11 17  1  0  0  0  0
 11 18  1  0  0  0  0
 11 20  2  0  0  0  0
 12 14  1  0  0  0  0
 12 18  1  0  0  0  0
 13 15  1  0  0  0  0
 13 18  1  0  0  0  0
 14 19  1  0  0  0  0
 15 19  1  0  0  0  0
 16 19  1  0  0  0  0
 17 22  1  0  0  0  0
  1 23  1  0  0  0  0
  2 24  1  0  0  0  0
  3 25  1  0  0  0  0
  4 26  1  0  0  0  0
  5 27  1  0  0  0  0
  6 28  1  0  0  0  0
 12 29  1  0  0  0  0
 12 30  1  0  0  0  0
 13 31  1  0  0  0  0
 13 32  1  0  0  0  0
 14 33  1  0  0  0  0
 14 34  1  0  0  0  0
 15 35  1  0  0  0  0
 15 36  1  0  0  0  0
 16 37  1  0  0  0  0
 16 38  1  0  0  0  0
 17 39  1  0  0  0  0
 17 40  1  0  0  0  0
 19 41  1  0  0  0  0
M  CHG  1  19   1
M  END
> <creator>
Daren Fearon, Diamond Light Source Ltd

> <fragments>
x0830

> <real_space>
FALSE

> <SCR>
FALSE

> <BB>
FALSE

> <link>
https://covid.postera.ai/covid/submissions/fb20be43-b2ad-4a19-a5ce-eb2fe8d462e2

> <covalent_frag>
TRUE

> <covalent_warhead>
TRUE

> <acrylamide>
FALSE

> <acrylamide_adduct>
FALSE

> <chloroacetamide>
TRUE

> <chloroacetamide_adduct>
FALSE

> <vinylsulfonamide>
FALSE

> <vinylsulfonamide_adduct>
FALSE

> <in_molport_or_mcule>
FALSE

> <in_emolecules>
FALSE

> <Hybrid2>
-9.418757

> <Mpro-x0830_dock>
-9.418757

> <Mpro-x0195_dock>
-7.836422

> <Mpro-x0104_dock>
-7.47756

> <Mpro-x0305_dock>
-4.133795

> <site>
active-covalent

> <covalent_distance_min>
3.0946422

> <covalent_distance_mean>
3.4597452

> <covalent_distance_stderr>
0.012904233

$$$$
MAK-UNK-af8-5
  -OEChem-04062011563D

 40 41  0     1  0  0  0  0  0999 V2000
   14.2041   -2.3250   24.8957 C   0  0  0  0  0  0  0  0  0  0  0  0
   13.1273   -3.2025   25.0225 C   0  0  0  0  0  0  0  0  0  0  0  0
   14.0933   -1.1980   24.0812 C   0  0  0  0  0  0  0  0  0  0  0  0
   11.8289   -1.8261   23.5202 C   0  0  0  0  0  0  0  0  0  0  0  0
   11.9397   -2.9531   24.3347 C   0  0  0  0  0  0  0  0  0  0  0  0
   12.9057   -0.9486   23.3935 C   0  0  0  0  0  0  0  0  0  0  0  0
   12.6100    4.5385   23.9692 C   0  0  0  0  0  0  0  0  0  0  0  0
    9.2232    4.4576   23.9430 C   0  0  0  0  0  0  0  0  0  0  0  0
   10.8880    1.1716   23.8963 C   0  0  0  0  0  0  0  0  0  0  0  0
   12.1669    2.7049   22.3835 C   0  0  0  0  0  0  0  0  0  0  0  0
   10.3405    2.3787   24.6463 C   0  0  0  0  0  0  0  0  0  0  0  0
   11.5451    3.9184   23.0789 C   0  0  1  0  0  0  0  0  0  0  0  0
   12.2597    1.4720   23.2904 C   0  0  2  0  0  0  0  0  0  0  0  0
   10.7883   -3.8910   24.4719 C   0  0  0  0  0  0  0  0  0  0  0  0
   12.7866    0.2661   22.5149 C   0  0  0  0  0  0  0  0  0  0  0  0
    9.2349    5.6907   23.0737 C   0  0  0  0  0  0  0  0  0  0  0  0
   10.3179    3.5927   23.8243 N   0  0  0  0  0  0  0  0  0  0  0  0
   13.8021    4.3054   23.6262 O   0  5  0  0  0  0  0  0  0  0  0  0
   12.1627    5.2096   24.9412 O   0  0  0  0  0  0  0  0  0  0  0  0
    8.2675    4.2653   24.6995 O   0  0  0  0  0  0  0  0  0  0  0  0
   10.0094    6.9611   24.0134 Cl  0  0  0  0  0  0  0  0  0  0  0  0
   15.1288   -2.5193   25.4314 H   0  0  0  0  0  0  0  0  0  0  0  0
   13.2226   -4.0778   25.6598 H   0  0  0  0  0  0  0  0  0  0  0  0
   14.9377   -0.5202   23.9878 H   0  0  0  0  0  0  0  0  0  0  0  0
   10.9029   -1.6306   22.9845 H   0  0  0  0  0  0  0  0  0  0  0  0
   10.9620    0.3219   24.5855 H   0  0  0  0  0  0  0  0  0  0  0  0
   10.1803    0.8812   23.1093 H   0  0  0  0  0  0  0  0  0  0  0  0
   11.5564    2.4610   21.5034 H   0  0  0  0  0  0  0  0  0  0  0  0
   13.1673    2.9542   22.0063 H   0  0  0  0  0  0  0  0  0  0  0  0
    9.3359    2.1492   25.0170 H   0  0  0  0  0  0  0  0  0  0  0  0
   10.9609    2.5936   25.5243 H   0  0  0  0  0  0  0  0  0  0  0  0
   11.3344    4.6631   22.3064 H   0  0  0  0  0  0  0  0  0  0  0  0
   12.9652    1.6817   24.1046 H   0  0  0  0  0  0  0  0  0  0  0  0
   10.1449   -3.5864   25.3064 H   0  0  0  0  0  0  0  0  0  0  0  0
   10.1828   -3.9152   23.5566 H   0  0  0  0  0  0  0  0  0  0  0  0
   11.1306   -4.9182   24.6534 H   0  0  0  0  0  0  0  0  0  0  0  0
   13.7613    0.5103   22.0805 H   0  0  0  0  0  0  0  0  0  0  0  0
   12.1193    0.0546   21.6732 H   0  0  0  0  0  0  0  0  0  0  0  0
    8.2125    5.9675   22.8442 H   0  0  0  0  0  0  0  0  0  0  0  0
    9.8115    5.4838   22.1798 H   0  0  0  0  0  0  0  0  0  0  0  0
  1  2  2  0  0  0  0
  1  3  1  0  0  0  0
  2  5  1  0  0  0  0
  3  6  2  0  0  0  0
  4  5  2  0  0  0  0
  4  6  1  0  0  0  0
  5 14  1  0  0  0  0
  6 15  1  0  0  0  0
  7 12  1  0  0  0  0
  7 18  1  0  0  0  0
  7 19  2  0  0  0  0
  8 16  1  0  0  0  0
  8 17  1  0  0  0  0
  8 20  2  0  0  0  0
  9 11  1  0  0  0  0
  9 13  1  0  0  0  0
 10 12  1  0  0  0  0
 10 13  1  0  0  0  0
 11 17  1  0  0  0  0
 12 17  1  0  0  0  0
 13 15  1  0  0  0  0
 16 21  1  0  0  0  0
  1 22  1  0  0  0  0
  2 23  1  0  0  0  0
  3 24  1  0  0  0  0
  4 25  1  0  0  0  0
  9 26  1  0  0  0  0
  9 27  1  0  0  0  0
 10 28  1  0  0  0  0
 10 29  1  0  0  0  0
 11 30  1  0  0  0  0
 11 31  1  0  0  0  0
 12 32  1  0  0  0  0
 13 33  1  0  0  0  0
 14 34  1  0  0  0  0
 14 35  1  0  0  0  0
 14 36  1  0  0  0  0
 15 37  1  0  0  0  0
 15 38  1  0  0  0  0
 16 39  1  0  0  0  0
 16 40  1  0  0  0  0
M  CHG  1  18  -1
M  END
> <creator>
Maksym Voznyy

> <fragments>
x0161

> <real_space>
FALSE

> <SCR>
FALSE

> <BB>
FALSE

> <link>
https://covid.postera.ai/covid/submissions/af83ef51-35cf-489e-b3bd-9012d86d8275

> <covalent_frag>
TRUE

> <covalent_warhead>
TRUE

> <acrylamide>
FALSE

> <acrylamide_adduct>
FALSE

> <chloroacetamide>
TRUE

> <chloroacetamide_adduct>
FALSE

> <vinylsulfonamide>
FALSE

> <vinylsulfonamide_adduct>
FALSE

> <in_molport_or_mcule>
FALSE

> <in_emolecules>
FALSE

> <Hybrid2>
-9.341013

> <Mpro-x0161_dock>
-9.341013

> <Mpro-x0072_dock>
-8.409232

> <Mpro-x0195_dock>
-7.174522

> <Mpro-x0387_dock>
-7.13096

> <Mpro-x0104_dock>
-6.574697

> <Mpro-x0692_dock>
-5.971902

> <Mpro-x0305_dock>
-4.23361

> <site>
active-noncovalent

> <covalent_distance_min>
9.543821

> <covalent_distance_mean>
9.931921

> <covalent_distance_stderr>
0.054185625

$$$$
MAK-UNK-af8-22
  -OEChem-04062011563D

 59 61  0     0  0  0  0  0  0999 V2000
   13.4345    4.0909   22.6680 C   0  0  0  0  0  0  0  0  0  0  0  0
    9.5545    3.4286   24.1939 C   0  0  0  0  0  0  0  0  0  0  0  0
   10.5117    2.4181   24.2844 C   0  0  0  0  0  0  0  0  0  0  0  0
   11.1668    4.8580   23.1009 C   0  0  0  0  0  0  0  0  0  0  0  0
   12.3816   -2.5947   23.9367 C   0  0  0  0  0  0  0  0  0  0  0  0
   13.5446   -0.5871   24.6103 C   0  0  0  0  0  0  0  0  0  0  0  0
   11.5783   -0.4335   23.2150 C   0  0  0  0  0  0  0  0  0  0  0  0
   12.1240    3.8475   23.1915 C   0  0  0  0  0  0  0  0  0  0  0  0
   13.4248   -1.9768   24.6263 C   0  0  0  0  0  0  0  0  0  0  0  0
   11.4584   -1.8231   23.2310 C   0  0  0  0  0  0  0  0  0  0  0  0
    9.8820    4.6486   23.6021 C   0  0  0  0  0  0  0  0  0  0  0  0
   11.7964    2.6275   23.7832 C   0  0  0  0  0  0  0  0  0  0  0  0
   12.6214    0.1845   23.9047 C   0  0  0  0  0  0  0  0  0  0  0  0
    5.6597   -4.1420   24.9556 C   0  0  0  0  0  0  0  0  0  0  0  0
    7.5522   -4.8841   23.5454 C   0  0  0  0  0  0  0  0  0  0  0  0
    8.0336   -3.3548   25.4169 C   0  0  0  0  0  0  0  0  0  0  0  0
    8.3605   -4.0109   22.5969 C   0  0  0  0  0  0  0  0  0  0  0  0
    8.8513   -2.4589   24.4964 C   0  0  0  0  0  0  0  0  0  0  0  0
   14.4118   -2.8018   25.3807 C   0  0  0  0  0  0  0  0  0  0  0  0
    8.2433    7.9425   23.9484 C   0  0  0  0  0  0  0  0  0  0  0  0
   10.3365   -2.4879   22.4892 C   0  0  0  0  0  0  0  0  0  0  0  0
    5.0607   -2.8984   25.5626 C   0  0  0  0  0  0  0  0  0  0  0  0
    9.2516    7.0456   23.3149 C   0  0  0  0  0  0  0  0  0  0  0  0
   14.4966    4.2881   22.2437 N   0  0  0  0  0  0  0  0  0  0  0  0
    7.0213   -4.0986   24.6596 N   0  0  0  0  0  0  0  0  0  0  0  0
   12.7426    1.5896   23.8886 N   0  0  0  0  0  0  0  0  0  0  0  0
    8.9136    5.6697   23.5104 N   0  0  0  0  0  0  0  0  0  0  0  0
    9.4378   -3.2965   23.3820 N   0  3  0  0  0  0  0  0  0  0  0  0
    4.9370   -5.1203   24.7492 O   0  0  0  0  0  0  0  0  0  0  0  0
    5.3395   -1.5933   24.4151 Cl  0  0  0  0  0  0  0  0  0  0  0  0
    8.5561    3.2548   24.5872 H   0  0  0  0  0  0  0  0  0  0  0  0
   10.2443    1.4715   24.7473 H   0  0  0  0  0  0  0  0  0  0  0  0
   11.4163    5.8119   22.6398 H   0  0  0  0  0  0  0  0  0  0  0  0
   12.2882   -3.6781   23.9491 H   0  0  0  0  0  0  0  0  0  0  0  0
   14.3587   -0.1069   25.1487 H   0  0  0  0  0  0  0  0  0  0  0  0
   10.8574    0.1666   22.6642 H   0  0  0  0  0  0  0  0  0  0  0  0
    6.7425   -5.3712   22.9931 H   0  0  0  0  0  0  0  0  0  0  0  0
    8.1782   -5.6779   23.9709 H   0  0  0  0  0  0  0  0  0  0  0  0
    8.6785   -4.0927   25.9094 H   0  0  0  0  0  0  0  0  0  0  0  0
    7.5869   -2.7453   26.2042 H   0  0  0  0  0  0  0  0  0  0  0  0
    8.8604   -4.6229   21.8392 H   0  0  0  0  0  0  0  0  0  0  0  0
    7.7402   -3.2513   22.1080 H   0  0  0  0  0  0  0  0  0  0  0  0
    8.2400   -1.6721   24.0403 H   0  0  0  0  0  0  0  0  0  0  0  0
    9.6877   -2.0079   25.0401 H   0  0  0  0  0  0  0  0  0  0  0  0
   15.2555   -3.0738   24.7346 H   0  0  0  0  0  0  0  0  0  0  0  0
   14.8016   -2.2594   26.2518 H   0  0  0  0  0  0  0  0  0  0  0  0
   13.9528   -3.7241   25.7603 H   0  0  0  0  0  0  0  0  0  0  0  0
    8.1974    7.7385   25.0284 H   0  0  0  0  0  0  0  0  0  0  0  0
    8.5319    8.9914   23.7855 H   0  0  0  0  0  0  0  0  0  0  0  0
    7.2562    7.7598   23.4986 H   0  0  0  0  0  0  0  0  0  0  0  0
    9.7008   -1.7499   21.9883 H   0  0  0  0  0  0  0  0  0  0  0  0
   10.7189   -3.1727   21.7245 H   0  0  0  0  0  0  0  0  0  0  0  0
    5.5656   -2.6857   26.4980 H   0  0  0  0  0  0  0  0  0  0  0  0
    3.9966   -3.0522   25.7005 H   0  0  0  0  0  0  0  0  0  0  0  0
    9.2914    7.2557   22.2359 H   0  0  0  0  0  0  0  0  0  0  0  0
   10.2372    7.2403   23.7629 H   0  0  0  0  0  0  0  0  0  0  0  0
   13.7010    1.9163   23.9696 H   0  0  0  0  0  0  0  0  0  0  0  0
    7.9531    5.3936   23.5900 H   0  0  0  0  0  0  0  0  0  0  0  0
   10.0299   -4.0167   23.8184 H   0  0  0  0  0  0  0  0  0  0  0  0
  1  8  1  0  0  0  0
  1 24  3  0  0  0  0
  2  3  2  0  0  0  0
  2 11  1  0  0  0  0
  3 12  1  0  0  0  0
  4  8  1  0  0  0  0
  4 11  2  0  0  0  0
  5  9  1  0  0  0  0
  5 10  2  0  0  0  0
  6  9  2  0  0  0  0
  6 13  1  0  0  0  0
  7 10  1  0  0  0  0
  7 13  2  0  0  0  0
  8 12  2  0  0  0  0
  9 19  1  0  0  0  0
 10 21  1  0  0  0  0
 11 27  1  0  0  0  0
 12 26  1  0  0  0  0
 13 26  1  0  0  0  0
 14 22  1  0  0  0  0
 14 25  1  0  0  0  0
 14 29  2  0  0  0  0
 15 17  1  0  0  0  0
 15 25  1  0  0  0  0
 16 18  1  0  0  0  0
 16 25  1  0  0  0  0
 17 28  1  0  0  0  0
 18 28  1  0  0  0  0
 20 23  1  0  0  0  0
 21 28  1  0  0  0  0
 22 30  1  0  0  0  0
 23 27  1  0  0  0  0
  2 31  1  0  0  0  0
  3 32  1  0  0  0  0
  4 33  1  0  0  0  0
  5 34  1  0  0  0  0
  6 35  1  0  0  0  0
  7 36  1  0  0  0  0
 15 37  1  0  0  0  0
 15 38  1  0  0  0  0
 16 39  1  0  0  0  0
 16 40  1  0  0  0  0
 17 41  1  0  0  0  0
 17 42  1  0  0  0  0
 18 43  1  0  0  0  0
 18 44  1  0  0  0  0
 19 45  1  0  0  0  0
 19 46  1  0  0  0  0
 19 47  1  0  0  0  0
 20 48  1  0  0  0  0
 20 49  1  0  0  0  0
 20 50  1  0  0  0  0
 21 51  1  0  0  0  0
 21 52  1  0  0  0  0
 22 53  1  0  0  0  0
 22 54  1  0  0  0  0
 23 55  1  0  0  0  0
 23 56  1  0  0  0  0
 26 57  1  0  0  0  0
 27 58  1  0  0  0  0
 28 59  1  0  0  0  0
M  CHG  1  28   1
M  END
> <creator>
Maksym Voznyy

> <fragments>
x0161

> <real_space>
FALSE

> <SCR>
FALSE

> <BB>
FALSE

> <link>
https://covid.postera.ai/covid/submissions/af83ef51-35cf-489e-b3bd-9012d86d8275

> <covalent_frag>
TRUE

> <covalent_warhead>
TRUE

> <acrylamide>
FALSE

> <acrylamide_adduct>
FALSE

> <chloroacetamide>
TRUE

> <chloroacetamide_adduct>
FALSE

> <vinylsulfonamide>
FALSE

> <vinylsulfonamide_adduct>
FALSE

> <in_molport_or_mcule>
FALSE

> <in_emolecules>
FALSE

> <Hybrid2>
-9.223373

> <Mpro-x0161_dock>
-9.223373

> <Mpro-x0104_dock>
-7.688277

> <Mpro-x0072_dock>
-7.109443

> <Mpro-x0195_dock>
-5.403429

> <Mpro-x0387_dock>
-4.30347

> <Mpro-x0305_dock>
-3.97138

> <Mpro-x0692_dock>
-2.283366

> <site>
active-noncovalent

> <covalent_distance_min>
3.5770025

> <covalent_distance_mean>
4.5315456

> <covalent_distance_stderr>
0.04935197

$$$$
NIM-UNI-7ba-2
  -OEChem-04062011563D

 43 45  0     0  0  0  0  0  0999 V2000
   14.9257   -1.4965   23.4351 C   0  0  0  0  0  0  0  0  0  0  0  0
   14.1359   -1.7414   24.5584 C   0  0  0  0  0  0  0  0  0  0  0  0
    5.6687    0.8476   18.9800 C   0  0  0  0  0  0  0  0  0  0  0  0
    6.3892    0.7647   20.1663 C   0  0  0  0  0  0  0  0  0  0  0  0
   14.3392   -1.4292   22.1713 C   0  0  0  0  0  0  0  0  0  0  0  0
   12.7596   -1.9191   24.4179 C   0  0  0  0  0  0  0  0  0  0  0  0
    6.3595    0.6902   17.7893 C   0  0  0  0  0  0  0  0  0  0  0  0
    8.3564    0.3870   18.8841 C   0  0  0  0  0  0  0  0  0  0  0  0
    7.7592    0.5303   20.1262 C   0  0  0  0  0  0  0  0  0  0  0  0
   12.9629   -1.6069   22.0308 C   0  0  0  0  0  0  0  0  0  0  0  0
   12.1730   -1.8519   23.1541 C   0  0  0  0  0  0  0  0  0  0  0  0
    9.2242   -0.6756   21.6613 C   0  0  0  0  0  0  0  0  0  0  0  0
    8.5475    0.4381   21.3604 C   0  0  0  0  0  0  0  0  0  0  0  0
    8.6735    1.5597   22.3478 C   0  0  0  0  0  0  0  0  0  0  0  0
   10.1030    0.2806   23.7024 C   0  0  0  0  0  0  0  0  0  0  0  0
    7.5490    3.5622   23.1602 C   0  0  0  0  0  0  0  0  0  0  0  0
   12.3566   -1.5295   20.6680 C   0  0  0  0  0  0  0  0  0  0  0  0
   10.6898   -2.0472   23.0277 C   0  0  0  0  0  0  0  0  0  0  0  0
    6.8548    4.8015   22.6530 C   0  0  0  0  0  0  0  0  0  0  0  0
    7.6895    0.4612   17.7105 N   0  0  0  0  0  0  0  0  0  0  0  0
    9.4111    1.4437   23.4232 N   0  0  0  0  0  0  0  0  0  0  0  0
    9.9907   -0.7869   22.7986 N   0  0  0  0  0  0  0  0  0  0  0  0
    7.9966    2.7413   22.1365 N   0  0  0  0  0  0  0  0  0  0  0  0
   10.7925    0.1989   24.7205 O   0  0  0  0  0  0  0  0  0  0  0  0
    7.6925    3.3512   24.3636 O   0  0  0  0  0  0  0  0  0  0  0  0
    8.0227    5.7284   21.6981 Cl  0  0  0  0  0  0  0  0  0  0  0  0
   15.9973   -1.3590   23.5449 H   0  0  0  0  0  0  0  0  0  0  0  0
   14.5933   -1.7940   25.5421 H   0  0  0  0  0  0  0  0  0  0  0  0
    4.6002    1.0294   18.9871 H   0  0  0  0  0  0  0  0  0  0  0  0
    5.8700    0.8850   21.1138 H   0  0  0  0  0  0  0  0  0  0  0  0
   14.9637   -1.2394   21.3022 H   0  0  0  0  0  0  0  0  0  0  0  0
   12.1525   -2.1091   25.2992 H   0  0  0  0  0  0  0  0  0  0  0  0
    5.8429    0.7470   16.8368 H   0  0  0  0  0  0  0  0  0  0  0  0
    9.4222    0.2021   18.7844 H   0  0  0  0  0  0  0  0  0  0  0  0
    9.2013   -1.5501   21.0177 H   0  0  0  0  0  0  0  0  0  0  0  0
   12.3454   -2.5208   20.2005 H   0  0  0  0  0  0  0  0  0  0  0  0
   11.3275   -1.1523   20.7130 H   0  0  0  0  0  0  0  0  0  0  0  0
   12.9198   -0.8445   20.0222 H   0  0  0  0  0  0  0  0  0  0  0  0
   10.4583   -2.7179   22.1931 H   0  0  0  0  0  0  0  0  0  0  0  0
   10.2745   -2.5004   23.9340 H   0  0  0  0  0  0  0  0  0  0  0  0
    6.5257    5.4066   23.5023 H   0  0  0  0  0  0  0  0  0  0  0  0
    5.9916    4.5724   22.0231 H   0  0  0  0  0  0  0  0  0  0  0  0
    7.8309    3.0027   21.1687 H   0  0  0  0  0  0  0  0  0  0  0  0
  1  2  1  0  0  0  0
  1  5  2  0  0  0  0
  2  6  2  0  0  0  0
  3  4  2  0  0  0  0
  3  7  1  0  0  0  0
  4  9  1  0  0  0  0
  5 10  1  0  0  0  0
  6 11  1  0  0  0  0
  7 20  2  0  0  0  0
  8  9  2  0  0  0  0
  8 20  1  0  0  0  0
  9 13  1  0  0  0  0
 10 11  2  0  0  0  0
 10 17  1  0  0  0  0
 11 18  1  0  0  0  0
 12 13  2  0  0  0  0
 12 22  1  0  0  0  0
 13 14  1  0  0  0  0
 14 21  2  0  0  0  0
 14 23  1  0  0  0  0
 15 21  1  0  0  0  0
 15 22  1  0  0  0  0
 15 24  2  0  0  0  0
 16 19  1  0  0  0  0
 16 23  1  0  0  0  0
 16 25  2  0  0  0  0
 18 22  1  0  0  0  0
 19 26  1  0  0  0  0
  1 27  1  0  0  0  0
  2 28  1  0  0  0  0
  3 29  1  0  0  0  0
  4 30  1  0  0  0  0
  5 31  1  0  0  0  0
  6 32  1  0  0  0  0
  7 33  1  0  0  0  0
  8 34  1  0  0  0  0
 12 35  1  0  0  0  0
 17 36  1  0  0  0  0
 17 37  1  0  0  0  0
 17 38  1  0  0  0  0
 18 39  1  0  0  0  0
 18 40  1  0  0  0  0
 19 41  1  0  0  0  0
 19 42  1  0  0  0  0
 23 43  1  0  0  0  0
M  END
> <creator>
Nimesh Mistry, University of Leeds

> <fragments>
x0678

> <real_space>
FALSE

> <SCR>
FALSE

> <BB>
FALSE

> <link>
https://covid.postera.ai/covid/submissions/7ba87d62-e988-4a36-a14e-34fe6d7cd8bf

> <covalent_frag>
TRUE

> <covalent_warhead>
TRUE

> <acrylamide>
FALSE

> <acrylamide_adduct>
FALSE

> <chloroacetamide>
TRUE

> <chloroacetamide_adduct>
FALSE

> <vinylsulfonamide>
FALSE

> <vinylsulfonamide_adduct>
FALSE

> <in_molport_or_mcule>
FALSE

> <in_emolecules>
FALSE

> <Hybrid2>
-9.220601

> <Mpro-x0678_dock>
-9.220601

> <Mpro-x1386_dock>
-6.455525

> <Mpro-x0830_dock>
-6.300796

> <Mpro-x0434_dock>
-6.156373

> <Mpro-x1385_dock>
-5.894926

> <Mpro-x0692_dock>
-5.393682

> <Mpro-x1334_dock>
-4.588759

> <Mpro-x0770_dock>
-3.283196

> <site>
active-noncovalent

> <covalent_distance_min>
10.04315

> <covalent_distance_mean>
10.839292

> <covalent_distance_stderr>
0.04487164

$$$$
DAR-DIA-fb2-13
  -OEChem-04062011563D

 57 59  0     0  0  0  0  0  0999 V2000
   12.2989    1.1463   23.1805 C   0  0  0  0  0  0  0  0  0  0  0  0
   11.2216   -0.8758   22.3505 C   0  0  0  0  0  0  0  0  0  0  0  0
   11.0826    1.5316   23.7207 C   0  0  0  0  0  0  0  0  0  0  0  0
    9.9465    0.7210   23.5771 C   0  0  0  0  0  0  0  0  0  0  0  0
    9.9984   -0.4828   22.8965 C   0  0  0  0  0  0  0  0  0  0  0  0
   12.3622   -0.0680   22.4911 C   0  0  0  0  0  0  0  0  0  0  0  0
    9.4077    2.6294   24.7794 C   0  0  0  0  0  0  0  0  0  0  0  0
   10.7151    2.7245   24.4804 C   0  0  0  0  0  0  0  0  0  0  0  0
    7.8340   -5.6369   26.1206 C   0  0  0  0  0  0  0  0  0  0  0  0
   10.3668    6.0074   23.1774 C   0  0  0  0  0  0  0  0  0  0  0  0
    8.7754    1.3667   24.2491 C   0  0  0  0  0  0  0  0  0  0  0  0
    9.1587   -3.5672   25.8333 C   0  0  0  0  0  0  0  0  0  0  0  0
    6.7847   -3.5226   25.1736 C   0  0  0  0  0  0  0  0  0  0  0  0
    9.5600   -2.9357   24.5082 C   0  0  0  0  0  0  0  0  0  0  0  0
    7.1503   -2.8883   23.8385 C   0  0  0  0  0  0  0  0  0  0  0  0
    9.3702    6.4429   22.1549 C   0  0  0  0  0  0  0  0  0  0  0  0
   13.5453   -1.7215   21.2573 C   0  0  0  0  0  0  0  0  0  0  0  0
    8.7836   -1.3498   22.7427 C   0  0  0  0  0  0  0  0  0  0  0  0
   11.6630    3.8099   24.8255 C   0  0  0  0  0  0  0  0  0  0  0  0
    6.5054   -6.3291   25.9493 C   0  0  0  0  0  0  0  0  0  0  0  0
   12.2589    4.4430   23.5717 C   0  0  0  0  0  0  0  0  0  0  0  0
    7.9041   -4.3084   25.7038 N   0  0  0  0  0  0  0  0  0  0  0  0
   11.2189    5.0093   22.7438 N   0  0  0  0  0  0  0  0  0  0  0  0
    8.4187   -2.0813   24.0037 N   0  3  0  0  0  0  0  0  0  0  0  0
    8.7804   -6.2605   26.6079 O   0  0  0  0  0  0  0  0  0  0  0  0
   10.3690    6.5364   24.2827 O   0  0  0  0  0  0  0  0  0  0  0  0
   13.5447   -0.4742   21.9482 O   0  0  0  0  0  0  0  0  0  0  0  0
    5.6127   -6.0834   27.4462 Cl  0  0  0  0  0  0  0  0  0  0  0  0
   13.1833    1.7666   23.2857 H   0  0  0  0  0  0  0  0  0  0  0  0
   11.2969   -1.8165   21.8092 H   0  0  0  0  0  0  0  0  0  0  0  0
    8.8544    3.3714   25.3385 H   0  0  0  0  0  0  0  0  0  0  0  0
    7.9813    1.6009   23.5340 H   0  0  0  0  0  0  0  0  0  0  0  0
    8.3927    0.7507   25.0680 H   0  0  0  0  0  0  0  0  0  0  0  0
    9.9623   -4.2223   26.1841 H   0  0  0  0  0  0  0  0  0  0  0  0
    9.0089   -2.7977   26.6004 H   0  0  0  0  0  0  0  0  0  0  0  0
    6.5493   -2.7502   25.9158 H   0  0  0  0  0  0  0  0  0  0  0  0
    5.8857   -4.1283   25.0471 H   0  0  0  0  0  0  0  0  0  0  0  0
   10.4261   -2.2790   24.6395 H   0  0  0  0  0  0  0  0  0  0  0  0
    9.7802   -3.6893   23.7437 H   0  0  0  0  0  0  0  0  0  0  0  0
    7.3287   -3.6406   23.0619 H   0  0  0  0  0  0  0  0  0  0  0  0
    6.3655   -2.1988   23.5110 H   0  0  0  0  0  0  0  0  0  0  0  0
    8.4358    5.8611   22.2040 H   0  0  0  0  0  0  0  0  0  0  0  0
    9.0660    7.4939   22.2853 H   0  0  0  0  0  0  0  0  0  0  0  0
    9.7048    6.3661   21.1080 H   0  0  0  0  0  0  0  0  0  0  0  0
   14.5480   -1.9262   20.8743 H   0  0  0  0  0  0  0  0  0  0  0  0
   12.8294   -1.6825   20.4324 H   0  0  0  0  0  0  0  0  0  0  0  0
   13.2546   -2.5129   21.9523 H   0  0  0  0  0  0  0  0  0  0  0  0
    7.9076   -0.7570   22.4583 H   0  0  0  0  0  0  0  0  0  0  0  0
    8.9363   -2.1112   21.9703 H   0  0  0  0  0  0  0  0  0  0  0  0
   12.4711    3.3753   25.4293 H   0  0  0  0  0  0  0  0  0  0  0  0
   11.1439    4.5619   25.4355 H   0  0  0  0  0  0  0  0  0  0  0  0
    6.6784   -7.3871   25.7886 H   0  0  0  0  0  0  0  0  0  0  0  0
    5.9758   -5.8730   25.1208 H   0  0  0  0  0  0  0  0  0  0  0  0
   12.9544    5.2404   23.8532 H   0  0  0  0  0  0  0  0  0  0  0  0
   12.8168    3.7021   22.9894 H   0  0  0  0  0  0  0  0  0  0  0  0
   11.1087    4.6568   21.7975 H   0  0  0  0  0  0  0  0  0  0  0  0
    8.2340   -1.3619   24.7165 H   0  0  0  0  0  0  0  0  0  0  0  0
  1  3  1  0  0  0  0
  1  6  2  0  0  0  0
  2  5  2  0  0  0  0
  2  6  1  0  0  0  0
  3  4  2  0  0  0  0
  3  8  1  0  0  0  0
  4  5  1  0  0  0  0
  4 11  1  0  0  0  0
  5 18  1  0  0  0  0
  6 27  1  0  0  0  0
  7  8  2  0  0  0  0
  7 11  1  0  0  0  0
  8 19  1  0  0  0  0
  9 20  1  0  0  0  0
  9 22  1  0  0  0  0
  9 25  2  0  0  0  0
 10 16  1  0  0  0  0
 10 23  1  0  0  0  0
 10 26  2  0  0  0  0
 12 14  1  0  0  0  0
 12 22  1  0  0  0  0
 13 15  1  0  0  0  0
 13 22  1  0  0  0  0
 14 24  1  0  0  0  0
 15 24  1  0  0  0  0
 17 27  1  0  0  0  0
 18 24  1  0  0  0  0
 19 21  1  0  0  0  0
 20 28  1  0  0  0  0
 21 23  1  0  0  0  0
  1 29  1  0  0  0  0
  2 30  1  0  0  0  0
  7 31  1  0  0  0  0
 11 32  1  0  0  0  0
 11 33  1  0  0  0  0
 12 34  1  0  0  0  0
 12 35  1  0  0  0  0
 13 36  1  0  0  0  0
 13 37  1  0  0  0  0
 14 38  1  0  0  0  0
 14 39  1  0  0  0  0
 15 40  1  0  0  0  0
 15 41  1  0  0  0  0
 16 42  1  0  0  0  0
 16 43  1  0  0  0  0
 16 44  1  0  0  0  0
 17 45  1  0  0  0  0
 17 46  1  0  0  0  0
 17 47  1  0  0  0  0
 18 48  1  0  0  0  0
 18 49  1  0  0  0  0
 19 50  1  0  0  0  0
 19 51  1  0  0  0  0
 20 52  1  0  0  0  0
 20 53  1  0  0  0  0
 21 54  1  0  0  0  0
 21 55  1  0  0  0  0
 23 56  1  0  0  0  0
 24 57  1  0  0  0  0
M  CHG  1  24   1
M  END
> <creator>
Daren Fearon, Diamond Light Source Ltd

> <fragments>
x0104

> <real_space>
FALSE

> <SCR>
FALSE

> <BB>
FALSE

> <link>
https://covid.postera.ai/covid/submissions/fb20be43-b2ad-4a19-a5ce-eb2fe8d462e2

> <covalent_frag>
TRUE

> <covalent_warhead>
TRUE

> <acrylamide>
FALSE

> <acrylamide_adduct>
FALSE

> <chloroacetamide>
TRUE

> <chloroacetamide_adduct>
FALSE

> <vinylsulfonamide>
FALSE

> <vinylsulfonamide_adduct>
FALSE

> <in_molport_or_mcule>
FALSE

> <in_emolecules>
FALSE

> <Hybrid2>
-9.128935

> <Mpro-x0104_dock>
-9.128935

> <Mpro-x0830_dock>
-7.915794

> <Mpro-x0195_dock>
-6.128225

> <Mpro-x0305_dock>
-0.051601

> <site>
active-noncovalent

> <covalent_distance_min>
5.195632

> <covalent_distance_mean>
5.6099405

> <covalent_distance_stderr>
0.041765314

$$$$
AVI-UNI-70b-2
  -OEChem-04062011563D

 52 54  0     1  0  0  0  0  0999 V2000
    5.9989    0.9497   17.9545 C   0  0  0  0  0  0  0  0  0  0  0  0
    5.5273   -6.0724   26.7292 C   0  0  0  0  0  0  0  0  0  0  0  0
    7.2528    0.6002   18.4557 C   0  0  0  0  0  0  0  0  0  0  0  0
    4.7256   -5.5593   25.7096 C   0  0  0  0  0  0  0  0  0  0  0  0
    5.0148    0.5237   20.1195 C   0  0  0  0  0  0  0  0  0  0  0  0
    7.4634   -5.0238   25.7346 C   0  0  0  0  0  0  0  0  0  0  0  0
    6.2687    0.1742   20.6207 C   0  0  0  0  0  0  0  0  0  0  0  0
    6.6617   -4.5108   24.7149 C   0  0  0  0  0  0  0  0  0  0  0  0
    4.8799    0.9115   18.7864 C   0  0  0  0  0  0  0  0  0  0  0  0
    6.8962   -5.8046   26.7417 C   0  0  0  0  0  0  0  0  0  0  0  0
    7.3877    0.2124   19.7888 C   0  0  0  0  0  0  0  0  0  0  0  0
    5.2928   -4.7785   24.7024 C   0  0  0  0  0  0  0  0  0  0  0  0
    9.7409    0.6623   22.7194 C   0  0  0  0  0  0  0  0  0  0  0  0
    8.5288   -0.7379   24.4337 C   0  0  0  0  0  0  0  0  0  0  0  0
    7.2761    0.7656   22.8531 C   0  0  0  0  0  0  0  0  0  0  0  0
    7.1889   -1.4104   24.7090 C   0  0  0  0  0  0  0  0  0  0  0  0
    6.8544   -1.7137   22.1701 C   0  0  0  0  0  0  0  0  0  0  0  0
    6.3973   -0.2473   22.0802 C   0  0  2  0  0  0  0  0  0  0  0  0
    7.2887   -3.6731   23.6397 C   0  0  0  0  0  0  0  0  0  0  0  0
   11.0247    0.1138   23.2934 C   0  0  0  0  0  0  0  0  0  0  0  0
    8.5542    0.2108   23.3093 N   0  0  0  0  0  0  0  0  0  0  0  0
    6.7165   -2.2784   23.5675 N   0  3  1  0  0  0  0  0  0  0  0  0
    9.7913    1.4563   21.7769 O   0  0  0  0  0  0  0  0  0  0  0  0
    3.6567    1.2530   18.2970 O   0  0  0  0  0  0  0  0  0  0  0  0
    7.6779   -6.3052   27.7371 O   0  0  0  0  0  0  0  0  0  0  0  0
    8.6196   -0.1270   20.2618 O   0  0  0  0  0  0  0  0  0  0  0  0
    4.4955   -4.2863   23.7133 O   0  0  0  0  0  0  0  0  0  0  0  0
   11.3767   -1.3694   22.4137 Cl  0  0  0  0  0  0  0  0  0  0  0  0
    5.9000    1.2515   16.9155 H   0  0  0  0  0  0  0  0  0  0  0  0
    5.0799   -6.6794   27.5113 H   0  0  0  0  0  0  0  0  0  0  0  0
    8.1209    0.6345   17.8027 H   0  0  0  0  0  0  0  0  0  0  0  0
    3.6593   -5.7698   25.7072 H   0  0  0  0  0  0  0  0  0  0  0  0
    4.1403    0.4943   20.7651 H   0  0  0  0  0  0  0  0  0  0  0  0
    8.5309   -4.8177   25.7469 H   0  0  0  0  0  0  0  0  0  0  0  0
    8.8503   -0.2039   25.3461 H   0  0  0  0  0  0  0  0  0  0  0  0
    9.3086   -1.5009   24.2578 H   0  0  0  0  0  0  0  0  0  0  0  0
    7.4952    1.6441   22.2270 H   0  0  0  0  0  0  0  0  0  0  0  0
    6.7080    1.1578   23.7064 H   0  0  0  0  0  0  0  0  0  0  0  0
    7.2472   -2.0369   25.6057 H   0  0  0  0  0  0  0  0  0  0  0  0
    6.4123   -0.6516   24.8560 H   0  0  0  0  0  0  0  0  0  0  0  0
    6.2272   -2.3358   21.5029 H   0  0  0  0  0  0  0  0  0  0  0  0
    7.9018   -1.8615   21.8410 H   0  0  0  0  0  0  0  0  0  0  0  0
    5.3551   -0.1829   22.4894 H   0  0  0  0  0  0  0  0  0  0  0  0
    8.3663   -3.5629   23.8014 H   0  0  0  0  0  0  0  0  0  0  0  0
    7.1438   -4.1240   22.6520 H   0  0  0  0  0  0  0  0  0  0  0  0
   10.8749   -0.1037   24.3448 H   0  0  0  0  0  0  0  0  0  0  0  0
   11.8169    0.8368   23.1364 H   0  0  0  0  0  0  0  0  0  0  0  0
    5.6863   -2.4196   23.7222 H   0  0  0  0  0  0  0  0  0  0  0  0
    3.7255    1.4979   17.3604 H   0  0  0  0  0  0  0  0  0  0  0  0
    7.1414   -6.8237   28.3576 H   0  0  0  0  0  0  0  0  0  0  0  0
    9.2822   -0.0473   19.5579 H   0  0  0  0  0  0  0  0  0  0  0  0
    3.5770   -4.5651   23.8535 H   0  0  0  0  0  0  0  0  0  0  0  0
  1  3  2  0  0  0  0
  1  9  1  0  0  0  0
  2  4  2  0  0  0  0
  2 10  1  0  0  0  0
  3 11  1  0  0  0  0
  4 12  1  0  0  0  0
  5  7  1  0  0  0  0
  5  9  2  0  0  0  0
  6  8  1  0  0  0  0
  6 10  2  0  0  0  0
  7 11  2  0  0  0  0
  7 18  1  0  0  0  0
  8 12  2  0  0  0  0
  8 19  1  0  0  0  0
  9 24  1  0  0  0  0
 10 25  1  0  0  0  0
 11 26  1  0  0  0  0
 12 27  1  0  0  0  0
 13 20  1  0  0  0  0
 13 21  1  0  0  0  0
 13 23  2  0  0  0  0
 14 16  1  0  0  0  0
 14 21  1  0  0  0  0
 15 18  1  0  0  0  0
 15 21  1  0  0  0  0
 16 22  1  0  0  0  0
 17 18  1  0  0  0  0
 17 22  1  0  0  0  0
 19 22  1  0  0  0  0
 20 28  1  0  0  0  0
  1 29  1  0  0  0  0
  2 30  1  0  0  0  0
  3 31  1  0  0  0  0
  4 32  1  0  0  0  0
  5 33  1  0  0  0  0
  6 34  1  0  0  0  0
 14 35  1  0  0  0  0
 14 36  1  0  0  0  0
 15 37  1  0  0  0  0
 15 38  1  0  0  0  0
 16 39  1  0  0  0  0
 16 40  1  0  0  0  0
 17 41  1  0  0  0  0
 17 42  1  0  0  0  0
 18 43  1  0  0  0  0
 19 44  1  0  0  0  0
 19 45  1  0  0  0  0
 20 46  1  0  0  0  0
 20 47  1  0  0  0  0
 22 48  1  0  0  0  0
 24 49  1  0  0  0  0
 25 50  1  0  0  0  0
 26 51  1  0  0  0  0
 27 52  1  0  0  0  0
M  CHG  1  22   1
M  END
> <creator>
Avinash Punekar, University of Dundee

> <fragments>
x0107

> <real_space>
FALSE

> <SCR>
FALSE

> <BB>
FALSE

> <link>
https://covid.postera.ai/covid/submissions/70b60925-898c-4c22-8c51-c254c464e488

> <covalent_frag>
TRUE

> <covalent_warhead>
TRUE

> <acrylamide>
FALSE

> <acrylamide_adduct>
FALSE

> <chloroacetamide>
TRUE

> <chloroacetamide_adduct>
FALSE

> <vinylsulfonamide>
FALSE

> <vinylsulfonamide_adduct>
FALSE

> <in_molport_or_mcule>
FALSE

> <in_emolecules>
FALSE

> <Hybrid2>
-9.111778

> <Mpro-x0107_dock>
-9.111778

> <Mpro-x0831_dock>
-8.476582

> <Mpro-x1382_dock>
-3.785172

> <site>
active-noncovalent

$$$$
NIM-UNI-7ba-5
  -OEChem-04062011563D

 37 39  0     0  0  0  0  0  0999 V2000
    5.4074    0.8937   18.9900 C   0  0  0  0  0  0  0  0  0  0  0  0
    6.1441    0.8261   20.1673 C   0  0  0  0  0  0  0  0  0  0  0  0
   12.7920   -1.7106   22.1395 C   0  0  0  0  0  0  0  0  0  0  0  0
   14.1269   -1.6141   22.6283 C   0  0  0  0  0  0  0  0  0  0  0  0
    6.0724    0.6706   17.7951 C   0  0  0  0  0  0  0  0  0  0  0  0
    8.0752    0.3339   18.8693 C   0  0  0  0  0  0  0  0  0  0  0  0
    7.5040    0.5414   20.1145 C   0  0  0  0  0  0  0  0  0  0  0  0
   11.8805   -1.8917   23.1562 C   0  0  0  0  0  0  0  0  0  0  0  0
   14.1847   -1.7250   24.0002 C   0  0  0  0  0  0  0  0  0  0  0  0
    8.9507   -0.6626   21.6684 C   0  0  0  0  0  0  0  0  0  0  0  0
    8.3090    0.4636   21.3390 C   0  0  0  0  0  0  0  0  0  0  0  0
    8.4908    1.6133   22.2844 C   0  0  0  0  0  0  0  0  0  0  0  0
    9.8964    0.3313   23.6610 C   0  0  0  0  0  0  0  0  0  0  0  0
    8.3602    4.0417   22.4278 C   0  0  0  0  0  0  0  0  0  0  0  0
   10.3894   -2.0379   23.0595 C   0  0  0  0  0  0  0  0  0  0  0  0
    7.4715    5.1916   22.0236 C   0  0  0  0  0  0  0  0  0  0  0  0
    7.3920    0.3915   17.7041 N   0  0  0  0  0  0  0  0  0  0  0  0
    9.2415    1.5082   23.3518 N   0  0  0  0  0  0  0  0  0  0  0  0
    9.7315   -0.7620   22.7970 N   0  0  0  0  0  0  0  0  0  0  0  0
    7.8526    2.8105   22.0422 N   0  0  0  0  0  0  0  0  0  0  0  0
   10.5993    0.2601   24.6706 O   0  0  0  0  0  0  0  0  0  0  0  0
    9.4211    4.2259   23.0226 O   0  0  0  0  0  0  0  0  0  0  0  0
   12.6342   -1.9447   24.6929 S   0  0  0  0  0  0  0  0  0  0  0  0
    8.4965    6.6159   21.7878 Cl  0  0  0  0  0  0  0  0  0  0  0  0
   15.7861   -1.6459   25.0185 Br  0  0  0  0  0  0  0  0  0  0  0  0
    4.3462    1.1139   19.0072 H   0  0  0  0  0  0  0  0  0  0  0  0
    5.6452    0.9975   21.1179 H   0  0  0  0  0  0  0  0  0  0  0  0
   12.5186   -1.6497   21.0937 H   0  0  0  0  0  0  0  0  0  0  0  0
   14.9947   -1.4705   21.9965 H   0  0  0  0  0  0  0  0  0  0  0  0
    5.5425    0.7130   16.8493 H   0  0  0  0  0  0  0  0  0  0  0  0
    9.1320    0.1076   18.7598 H   0  0  0  0  0  0  0  0  0  0  0  0
    8.8863   -1.5575   21.0564 H   0  0  0  0  0  0  0  0  0  0  0  0
   10.1206   -2.7283   22.2526 H   0  0  0  0  0  0  0  0  0  0  0  0
    9.9734   -2.4444   23.9874 H   0  0  0  0  0  0  0  0  0  0  0  0
    6.7543    5.3947   22.8237 H   0  0  0  0  0  0  0  0  0  0  0  0
    6.9257    4.9963   21.0972 H   0  0  0  0  0  0  0  0  0  0  0  0
    6.9643    2.7602   21.5514 H   0  0  0  0  0  0  0  0  0  0  0  0
  1  2  2  0  0  0  0
  1  5  1  0  0  0  0
  2  7  1  0  0  0  0
  3  4  1  0  0  0  0
  3  8  2  0  0  0  0
  4  9  2  0  0  0  0
  5 17  2  0  0  0  0
  6  7  2  0  0  0  0
  6 17  1  0  0  0  0
  7 11  1  0  0  0  0
  8 15  1  0  0  0  0
  8 23  1  0  0  0  0
  9 23  1  0  0  0  0
  9 25  1  0  0  0  0
 10 11  2  0  0  0  0
 10 19  1  0  0  0  0
 11 12  1  0  0  0  0
 12 18  2  0  0  0  0
 12 20  1  0  0  0  0
 13 18  1  0  0  0  0
 13 19  1  0  0  0  0
 13 21  2  0  0  0  0
 14 16  1  0  0  0  0
 14 20  1  0  0  0  0
 14 22  2  0  0  0  0
 15 19  1  0  0  0  0
 16 24  1  0  0  0  0
  1 26  1  0  0  0  0
  2 27  1  0  0  0  0
  3 28  1  0  0  0  0
  4 29  1  0  0  0  0
  5 30  1  0  0  0  0
  6 31  1  0  0  0  0
 10 32  1  0  0  0  0
 15 33  1  0  0  0  0
 15 34  1  0  0  0  0
 16 35  1  0  0  0  0
 16 36  1  0  0  0  0
 20 37  1  0  0  0  0
M  END
> <creator>
Nimesh Mistry, University of Leeds

> <fragments>
x0678

> <real_space>
FALSE

> <SCR>
FALSE

> <BB>
FALSE

> <link>
https://covid.postera.ai/covid/submissions/7ba87d62-e988-4a36-a14e-34fe6d7cd8bf

> <covalent_frag>
TRUE

> <covalent_warhead>
TRUE

> <acrylamide>
FALSE

> <acrylamide_adduct>
FALSE

> <chloroacetamide>
TRUE

> <chloroacetamide_adduct>
FALSE

> <vinylsulfonamide>
FALSE

> <vinylsulfonamide_adduct>
FALSE

> <in_molport_or_mcule>
FALSE

> <in_emolecules>
FALSE

> <Hybrid2>
-9.069537

> <Mpro-x0678_dock>
-9.069537

> <Mpro-x0830_dock>
-6.878086

> <Mpro-x0434_dock>
-5.919165

> <Mpro-x1385_dock>
-4.710873

> <Mpro-x0692_dock>
-4.144274

> <Mpro-x1386_dock>
-3.426725

> <Mpro-x1334_dock>
-3.307765

> <Mpro-x0770_dock>
-0.967864

> <site>
active-noncovalent

> <covalent_distance_min>
8.949488

> <covalent_distance_mean>
10.468983

> <covalent_distance_stderr>
0.072975956

$$$$
DAR-DIA-cab-9
  -OEChem-04062011563D

 46 49  0     1  0  0  0  0  0999 V2000
   10.2972    1.5344   26.3818 C   0  0  0  0  0  0  0  0  0  0  0  0
    9.2746    0.6727   25.9963 C   0  0  0  0  0  0  0  0  0  0  0  0
    8.6163   -5.0039   25.4841 C   0  0  0  0  0  0  0  0  0  0  0  0
    9.9562   -4.6682   25.3221 C   0  0  0  0  0  0  0  0  0  0  0  0
   11.4992    1.5529   25.6737 C   0  0  0  0  0  0  0  0  0  0  0  0
    9.4500   -0.1736   24.9011 C   0  0  0  0  0  0  0  0  0  0  0  0
    7.6448   -4.3771   24.7065 C   0  0  0  0  0  0  0  0  0  0  0  0
   10.3250   -3.6936   24.3941 C   0  0  0  0  0  0  0  0  0  0  0  0
   12.8963    0.7133   23.8446 C   0  0  0  0  0  0  0  0  0  0  0  0
   12.0491   -0.9947   22.3639 C   0  0  0  0  0  0  0  0  0  0  0  0
   11.6931    0.7079   24.5689 C   0  0  0  0  0  0  0  0  0  0  0  0
   10.6532   -0.1683   24.1768 C   0  0  0  0  0  0  0  0  0  0  0  0
    8.0038   -3.4043   23.7604 C   0  0  0  0  0  0  0  0  0  0  0  0
    9.3561   -3.0268   23.6233 C   0  0  0  0  0  0  0  0  0  0  0  0
   10.8471   -1.0134   23.0720 C   0  0  0  0  0  0  0  0  0  0  0  0
   13.0717   -0.1331   22.7495 C   0  0  0  0  0  0  0  0  0  0  0  0
    6.8836   -2.2560   20.5059 C   0  0  0  0  0  0  0  0  0  0  0  0
    6.9181   -2.7676   22.9282 C   0  0  0  0  0  0  0  0  0  0  0  0
    8.5693   -1.1688   22.0643 C   0  0  0  0  0  0  0  0  0  0  0  0
    9.7697   -1.9778   22.5941 C   0  0  2  0  0  0  0  0  0  0  0  0
   14.3570   -1.0050   20.9485 C   0  0  0  0  0  0  0  0  0  0  0  0
    7.5005   -1.4890   19.3636 C   0  0  0  0  0  0  0  0  0  0  0  0
    7.4507   -2.0624   21.7643 N   0  0  0  0  0  0  0  0  0  0  0  0
    5.9289   -3.0052   20.2848 O   0  0  0  0  0  0  0  0  0  0  0  0
   14.2436   -0.1144   22.0573 O   0  0  0  0  0  0  0  0  0  0  0  0
    6.6183    0.0289   19.2426 Cl  0  0  0  0  0  0  0  0  0  0  0  0
   10.1604    2.1925   27.2349 H   0  0  0  0  0  0  0  0  0  0  0  0
    8.3391    0.6598   26.5482 H   0  0  0  0  0  0  0  0  0  0  0  0
    8.3275   -5.7527   26.2151 H   0  0  0  0  0  0  0  0  0  0  0  0
   10.7176   -5.1657   25.9166 H   0  0  0  0  0  0  0  0  0  0  0  0
   12.2848    2.2345   25.9934 H   0  0  0  0  0  0  0  0  0  0  0  0
    8.6275   -0.8313   24.6305 H   0  0  0  0  0  0  0  0  0  0  0  0
    6.6006   -4.6479   24.8420 H   0  0  0  0  0  0  0  0  0  0  0  0
   11.3804   -3.4556   24.2705 H   0  0  0  0  0  0  0  0  0  0  0  0
   13.7058    1.3819   24.1320 H   0  0  0  0  0  0  0  0  0  0  0  0
   12.1916   -1.6525   21.5097 H   0  0  0  0  0  0  0  0  0  0  0  0
    6.2529   -3.5439   22.5520 H   0  0  0  0  0  0  0  0  0  0  0  0
    6.3550   -2.0829   23.5554 H   0  0  0  0  0  0  0  0  0  0  0  0
    8.2788   -0.3960   22.7734 H   0  0  0  0  0  0  0  0  0  0  0  0
    8.8355   -0.6789   21.1261 H   0  0  0  0  0  0  0  0  0  0  0  0
   10.2036   -2.5081   21.7081 H   0  0  0  0  0  0  0  0  0  0  0  0
   15.3400   -0.8885   20.4856 H   0  0  0  0  0  0  0  0  0  0  0  0
   13.5715   -0.7845   20.2212 H   0  0  0  0  0  0  0  0  0  0  0  0
   14.2436   -2.0318   21.3042 H   0  0  0  0  0  0  0  0  0  0  0  0
    7.3821   -2.0626   18.4517 H   0  0  0  0  0  0  0  0  0  0  0  0
    8.5424   -1.2976   19.5921 H   0  0  0  0  0  0  0  0  0  0  0  0
  1  2  1  0  0  0  0
  1  5  2  0  0  0  0
  2  6  2  0  0  0  0
  3  4  1  0  0  0  0
  3  7  2  0  0  0  0
  4  8  2  0  0  0  0
  5 11  1  0  0  0  0
  6 12  1  0  0  0  0
  7 13  1  0  0  0  0
  8 14  1  0  0  0  0
  9 11  1  0  0  0  0
  9 16  2  0  0  0  0
 10 15  2  0  0  0  0
 10 16  1  0  0  0  0
 11 12  2  0  0  0  0
 12 15  1  0  0  0  0
 13 14  2  0  0  0  0
 13 18  1  0  0  0  0
 14 20  1  0  0  0  0
 15 20  1  0  0  0  0
 16 25  1  0  0  0  0
 17 22  1  0  0  0  0
 17 23  1  0  0  0  0
 17 24  2  0  0  0  0
 18 23  1  0  0  0  0
 19 20  1  0  0  0  0
 19 23  1  0  0  0  0
 21 25  1  0  0  0  0
 22 26  1  0  0  0  0
  1 27  1  0  0  0  0
  2 28  1  0  0  0  0
  3 29  1  0  0  0  0
  4 30  1  0  0  0  0
  5 31  1  0  0  0  0
  6 32  1  0  0  0  0
  7 33  1  0  0  0  0
  8 34  1  0  0  0  0
  9 35  1  0  0  0  0
 10 36  1  0  0  0  0
 18 37  1  0  0  0  0
 18 38  1  0  0  0  0
 19 39  1  0  0  0  0
 19 40  1  0  0  0  0
 20 41  1  0  0  0  0
 21 42  1  0  0  0  0
 21 43  1  0  0  0  0
 21 44  1  0  0  0  0
 22 45  1  0  0  0  0
 22 46  1  0  0  0  0
M  END
> <creator>
Daren Fearon, Diamond Light Source Ltd

> <fragments>
x0830

> <real_space>
FALSE

> <SCR>
FALSE

> <BB>
FALSE

> <link>
https://covid.postera.ai/covid/submissions/caba39e3-6989-456c-b896-1cac12e2588e

> <covalent_frag>
TRUE

> <covalent_warhead>
TRUE

> <acrylamide>
FALSE

> <acrylamide_adduct>
FALSE

> <chloroacetamide>
TRUE

> <chloroacetamide_adduct>
FALSE

> <vinylsulfonamide>
FALSE

> <vinylsulfonamide_adduct>
FALSE

> <in_molport_or_mcule>
FALSE

> <in_emolecules>
FALSE

> <Hybrid2>
-9.046430

> <Mpro-x0830_dock>
-9.04643

> <Mpro-x0195_dock>
-6.866774

> <Mpro-x1392_dock>
-6.74897

> <Mpro-x0305_dock>
-5.390258

> <Mpro-x1249_dock>
-4.758271

> <site>
active-covalent

> <covalent_distance_min>
2.9798987

> <covalent_distance_mean>
3.2371185

> <covalent_distance_stderr>
0.009519118

$$$$
DAR-DIA-fb2-2
  -OEChem-04062011563D

 41 43  0     0  0  0  0  0  0999 V2000
    9.7449    2.4878   25.3837 C   0  0  0  0  0  0  0  0  0  0  0  0
    8.9323    1.3597   25.3218 C   0  0  0  0  0  0  0  0  0  0  0  0
   10.9745    2.5000   24.7246 C   0  0  0  0  0  0  0  0  0  0  0  0
    9.3460    0.2395   24.6004 C   0  0  0  0  0  0  0  0  0  0  0  0
   12.6414    1.3762   23.3242 C   0  0  0  0  0  0  0  0  0  0  0  0
   12.2426   -0.8722   22.5410 C   0  0  0  0  0  0  0  0  0  0  0  0
   11.4069    1.3814   23.9938 C   0  0  0  0  0  0  0  0  0  0  0  0
   10.5805    0.2342   23.9309 C   0  0  0  0  0  0  0  0  0  0  0  0
   11.0130   -0.8845   23.2002 C   0  0  0  0  0  0  0  0  0  0  0  0
   13.0552    0.2559   22.6029 C   0  0  0  0  0  0  0  0  0  0  0  0
    6.2696   -2.0952   19.1753 C   0  0  0  0  0  0  0  0  0  0  0  0
    6.8175   -2.8878   21.4540 C   0  0  0  0  0  0  0  0  0  0  0  0
    7.5119   -0.6090   20.8233 C   0  0  0  0  0  0  0  0  0  0  0  0
    8.2103   -3.1863   21.9892 C   0  0  0  0  0  0  0  0  0  0  0  0
    8.9157   -0.8727   21.3511 C   0  0  0  0  0  0  0  0  0  0  0  0
   10.1872   -2.1324   23.0923 C   0  0  0  0  0  0  0  0  0  0  0  0
    6.3643   -0.9851   18.1591 C   0  0  0  0  0  0  0  0  0  0  0  0
    6.8629   -1.8593   20.4146 N   0  0  0  0  0  0  0  0  0  0  0  0
    8.8436   -1.8967   22.4617 N   0  3  0  0  0  0  0  0  0  0  0  0
    5.6879   -3.1405   18.8738 O   0  0  0  0  0  0  0  0  0  0  0  0
   14.2355    0.2672   21.9695 F   0  0  0  0  0  0  0  0  0  0  0  0
    5.5370    0.4049   18.8530 Cl  0  0  0  0  0  0  0  0  0  0  0  0
    9.4219    3.3594   25.9454 H   0  0  0  0  0  0  0  0  0  0  0  0
    7.9749    1.3509   25.8347 H   0  0  0  0  0  0  0  0  0  0  0  0
   11.5929    3.3930   24.7864 H   0  0  0  0  0  0  0  0  0  0  0  0
    8.6834   -0.6226   24.5762 H   0  0  0  0  0  0  0  0  0  0  0  0
   13.2929    2.2468   23.3582 H   0  0  0  0  0  0  0  0  0  0  0  0
   12.5761   -1.7384   21.9755 H   0  0  0  0  0  0  0  0  0  0  0  0
    6.3686   -3.8090   21.0694 H   0  0  0  0  0  0  0  0  0  0  0  0
    6.1649   -2.5184   22.2545 H   0  0  0  0  0  0  0  0  0  0  0  0
    6.8857   -0.1571   21.6021 H   0  0  0  0  0  0  0  0  0  0  0  0
    7.5677    0.1081   20.0025 H   0  0  0  0  0  0  0  0  0  0  0  0
    8.1572   -3.8588   22.8514 H   0  0  0  0  0  0  0  0  0  0  0  0
    8.8614   -3.6199   21.2218 H   0  0  0  0  0  0  0  0  0  0  0  0
    9.5795   -1.2660   20.5730 H   0  0  0  0  0  0  0  0  0  0  0  0
    9.3457    0.0399   21.7764 H   0  0  0  0  0  0  0  0  0  0  0  0
   10.6920   -2.8898   22.4830 H   0  0  0  0  0  0  0  0  0  0  0  0
    9.9993   -2.5689   24.0792 H   0  0  0  0  0  0  0  0  0  0  0  0
    5.8660   -1.2984   17.2488 H   0  0  0  0  0  0  0  0  0  0  0  0
    7.4092   -0.7508   17.9910 H   0  0  0  0  0  0  0  0  0  0  0  0
    8.2385   -1.5083   23.1985 H   0  0  0  0  0  0  0  0  0  0  0  0
  1  2  1  0  0  0  0
  1  3  2  0  0  0  0
  2  4  2  0  0  0  0
  3  7  1  0  0  0  0
  4  8  1  0  0  0  0
  5  7  2  0  0  0  0
  5 10  1  0  0  0  0
  6  9  1  0  0  0  0
  6 10  2  0  0  0  0
  7  8  1  0  0  0  0
  8  9  2  0  0  0  0
  9 16  1  0  0  0  0
 10 21  1  0  0  0  0
 11 17  1  0  0  0  0
 11 18  1  0  0  0  0
 11 20  2  0  0  0  0
 12 14  1  0  0  0  0
 12 18  1  0  0  0  0
 13 15  1  0  0  0  0
 13 18  1  0  0  0  0
 14 19  1  0  0  0  0
 15 19  1  0  0  0  0
 16 19  1  0  0  0  0
 17 22  1  0  0  0  0
  1 23  1  0  0  0  0
  2 24  1  0  0  0  0
  3 25  1  0  0  0  0
  4 26  1  0  0  0  0
  5 27  1  0  0  0  0
  6 28  1  0  0  0  0
 12 29  1  0  0  0  0
 12 30  1  0  0  0  0
 13 31  1  0  0  0  0
 13 32  1  0  0  0  0
 14 33  1  0  0  0  0
 14 34  1  0  0  0  0
 15 35  1  0  0  0  0
 15 36  1  0  0  0  0
 16 37  1  0  0  0  0
 16 38  1  0  0  0  0
 17 39  1  0  0  0  0
 17 40  1  0  0  0  0
 19 41  1  0  0  0  0
M  CHG  1  19   1
M  END
> <creator>
Daren Fearon, Diamond Light Source Ltd

> <fragments>
x0830

> <real_space>
FALSE

> <SCR>
FALSE

> <BB>
FALSE

> <link>
https://covid.postera.ai/covid/submissions/fb20be43-b2ad-4a19-a5ce-eb2fe8d462e2

> <covalent_frag>
TRUE

> <covalent_warhead>
TRUE

> <acrylamide>
FALSE

> <acrylamide_adduct>
FALSE

> <chloroacetamide>
TRUE

> <chloroacetamide_adduct>
FALSE

> <vinylsulfonamide>
FALSE

> <vinylsulfonamide_adduct>
FALSE

> <in_molport_or_mcule>
FALSE

> <in_emolecules>
FALSE

> <Hybrid2>
-8.993263

> <Mpro-x0830_dock>
-8.993263

> <Mpro-x0195_dock>
-8.093895

> <Mpro-x0104_dock>
-7.241233

> <Mpro-x0305_dock>
-5.162345

> <site>
active-covalent

> <covalent_distance_min>
3.0667338

> <covalent_distance_mean>
3.300364

> <covalent_distance_stderr>
0.021183696

$$$$
NIR-THE-c33-2
  -OEChem-04062011563D

 37 39  0     1  0  0  0  0  0999 V2000
   12.1960    5.9185   24.3742 C   0  0  0  0  0  0  0  0  0  0  0  0
   14.3486   -2.3600   22.6626 C   0  0  0  0  0  0  0  0  0  0  0  0
   14.9233   -1.1473   23.0261 C   0  0  0  0  0  0  0  0  0  0  0  0
   13.5087    3.7217   21.6711 C   0  0  0  0  0  0  0  0  0  0  0  0
   13.2245    4.8607   22.4244 C   0  0  0  0  0  0  0  0  0  0  0  0
   12.9623   -2.4971   22.6610 C   0  0  0  0  0  0  0  0  0  0  0  0
   14.1120   -0.0658   23.3714 C   0  0  0  0  0  0  0  0  0  0  0  0
   13.0555    2.4730   22.0967 C   0  0  0  0  0  0  0  0  0  0  0  0
   12.0340    3.5023   24.0290 C   0  0  0  0  0  0  0  0  0  0  0  0
   12.4871    4.7510   23.6033 C   0  0  0  0  0  0  0  0  0  0  0  0
   12.3182    2.3633   23.2757 C   0  0  0  0  0  0  0  0  0  0  0  0
   12.1344   -1.4197   23.0163 C   0  0  0  0  0  0  0  0  0  0  0  0
   12.7103   -0.1746   23.3411 C   0  0  0  0  0  0  0  0  0  0  0  0
    8.7335   -0.6652   24.3926 C   0  0  0  0  0  0  0  0  0  0  0  0
   10.6400   -1.6379   23.0294 C   0  0  0  0  0  0  0  0  0  0  0  0
   10.3728    0.8019   23.2671 C   0  0  0  0  0  0  0  0  0  0  0  0
   11.8238    1.0004   23.7400 C   0  0  2  0  0  0  0  0  0  0  0  0
    8.6011   -1.9381   25.1910 C   0  0  0  0  0  0  0  0  0  0  0  0
   11.9594    6.8666   25.0002 N   0  0  0  0  0  0  0  0  0  0  0  0
    9.8921   -0.5283   23.6274 N   0  0  0  0  0  0  0  0  0  0  0  0
    7.8373    0.1804   24.4512 O   0  0  0  0  0  0  0  0  0  0  0  0
    7.7508   -3.0883   24.1660 Cl  0  0  0  0  0  0  0  0  0  0  0  0
   14.9783   -3.1979   22.3804 H   0  0  0  0  0  0  0  0  0  0  0  0
   16.0044   -1.0403   23.0432 H   0  0  0  0  0  0  0  0  0  0  0  0
   14.0837    3.8065   20.7536 H   0  0  0  0  0  0  0  0  0  0  0  0
   13.5841    5.8272   22.0794 H   0  0  0  0  0  0  0  0  0  0  0  0
   12.5231   -3.4512   22.3775 H   0  0  0  0  0  0  0  0  0  0  0  0
   14.5807    0.8714   23.6694 H   0  0  0  0  0  0  0  0  0  0  0  0
   13.2815    1.5914   21.5026 H   0  0  0  0  0  0  0  0  0  0  0  0
   11.4593    3.4103   24.9484 H   0  0  0  0  0  0  0  0  0  0  0  0
   10.3034   -1.8034   22.0058 H   0  0  0  0  0  0  0  0  0  0  0  0
   10.4128   -2.5272   23.6235 H   0  0  0  0  0  0  0  0  0  0  0  0
    9.7144    1.5186   23.7672 H   0  0  0  0  0  0  0  0  0  0  0  0
   10.2886    0.9745   22.1926 H   0  0  0  0  0  0  0  0  0  0  0  0
   11.7840    1.0483   24.8560 H   0  0  0  0  0  0  0  0  0  0  0  0
    8.0206   -1.7336   26.0830 H   0  0  0  0  0  0  0  0  0  0  0  0
    9.5919   -2.3091   25.4257 H   0  0  0  0  0  0  0  0  0  0  0  0
  1 10  1  0  0  0  0
  1 19  3  0  0  0  0
  2  3  1  0  0  0  0
  2  6  2  0  0  0  0
  3  7  2  0  0  0  0
  4  5  2  0  0  0  0
  4  8  1  0  0  0  0
  5 10  1  0  0  0  0
  6 12  1  0  0  0  0
  7 13  1  0  0  0  0
  8 11  2  0  0  0  0
  9 10  2  0  0  0  0
  9 11  1  0  0  0  0
 11 17  1  0  0  0  0
 12 13  2  0  0  0  0
 12 15  1  0  0  0  0
 13 17  1  0  0  0  0
 14 18  1  0  0  0  0
 14 20  1  0  0  0  0
 14 21  2  0  0  0  0
 15 20  1  0  0  0  0
 16 17  1  0  0  0  0
 16 20  1  0  0  0  0
 18 22  1  0  0  0  0
  2 23  1  0  0  0  0
  3 24  1  0  0  0  0
  4 25  1  0  0  0  0
  5 26  1  0  0  0  0
  6 27  1  0  0  0  0
  7 28  1  0  0  0  0
  8 29  1  0  0  0  0
  9 30  1  0  0  0  0
 15 31  1  0  0  0  0
 15 32  1  0  0  0  0
 16 33  1  0  0  0  0
 16 34  1  0  0  0  0
 17 35  1  0  0  0  0
 18 36  1  0  0  0  0
 18 37  1  0  0  0  0
M  END
> <creator>
Nir London, The Weizmann Institute of Science

> <fragments>
x0195

> <real_space>
FALSE

> <SCR>
FALSE

> <BB>
FALSE

> <link>
https://covid.postera.ai/covid/submissions/c331be7a-6ba0-49a5-9756-17aee0dabcbf

> <covalent_frag>
FALSE

> <covalent_warhead>
TRUE

> <acrylamide>
FALSE

> <acrylamide_adduct>
FALSE

> <chloroacetamide>
TRUE

> <chloroacetamide_adduct>
FALSE

> <vinylsulfonamide>
FALSE

> <vinylsulfonamide_adduct>
FALSE

> <in_molport_or_mcule>
FALSE

> <in_emolecules>
FALSE

> <Hybrid2>
-8.984533

> <Mpro-x0195_dock>
-8.984533

> <Mpro-x0874_dock>
-7.383708

> <Mpro-x0104_dock>
-7.148088

> <Mpro-x0305_dock>
-6.409089

> <site>
active-noncovalent

> <covalent_distance_min>
6.919151

> <covalent_distance_mean>
8.234862

> <covalent_distance_stderr>
0.100737326

$$$$
NIR-THE-c33-1
  -OEChem-04062011563D

 38 40  0     0  0  0  0  0  0999 V2000
   13.9265   -2.1119   22.6190 C   0  0  0  0  0  0  0  0  0  0  0  0
   14.6075   -0.9452   22.9476 C   0  0  0  0  0  0  0  0  0  0  0  0
   13.5538    4.0038   21.5540 C   0  0  0  0  0  0  0  0  0  0  0  0
   12.5341   -2.1357   22.6568 C   0  0  0  0  0  0  0  0  0  0  0  0
   13.8966    0.2033   23.2976 C   0  0  0  0  0  0  0  0  0  0  0  0
   13.0137    2.8020   22.0119 C   0  0  0  0  0  0  0  0  0  0  0  0
   13.3837    5.1725   22.2963 C   0  0  0  0  0  0  0  0  0  0  0  0
   12.1333    3.9376   23.9541 C   0  0  0  0  0  0  0  0  0  0  0  0
   12.3035    2.7689   23.2119 C   0  0  0  0  0  0  0  0  0  0  0  0
   11.8065   -0.9898   23.0173 C   0  0  0  0  0  0  0  0  0  0  0  0
   12.4903    0.2086   23.3067 C   0  0  0  0  0  0  0  0  0  0  0  0
   12.6734    5.1394   23.4963 C   0  0  0  0  0  0  0  0  0  0  0  0
    8.5181    0.0577   24.4726 C   0  0  0  0  0  0  0  0  0  0  0  0
   10.3004   -1.0854   23.0741 C   0  0  0  0  0  0  0  0  0  0  0  0
   10.2385    1.3711   23.2804 C   0  0  0  0  0  0  0  0  0  0  0  0
   11.7136    1.4572   23.7108 C   0  0  2  0  0  0  0  0  0  0  0  0
    8.3055   -1.1893   25.2943 C   0  0  0  0  0  0  0  0  0  0  0  0
    9.6619    0.0895   23.6744 N   0  0  0  0  0  0  0  0  0  0  0  0
   12.5018    6.3211   24.2470 N   0  0  0  0  0  0  0  0  0  0  0  0
    7.6953    0.9742   24.5421 O   0  0  0  0  0  0  0  0  0  0  0  0
    7.3362   -2.2802   24.3108 Cl  0  0  0  0  0  0  0  0  0  0  0  0
   14.4780   -3.0021   22.3331 H   0  0  0  0  0  0  0  0  0  0  0  0
   15.6938   -0.9264   22.9339 H   0  0  0  0  0  0  0  0  0  0  0  0
   14.1070    4.0295   20.6195 H   0  0  0  0  0  0  0  0  0  0  0  0
   12.0113   -3.0546   22.4003 H   0  0  0  0  0  0  0  0  0  0  0  0
   14.4478    1.1032   23.5680 H   0  0  0  0  0  0  0  0  0  0  0  0
   13.1512    1.8961   21.4269 H   0  0  0  0  0  0  0  0  0  0  0  0
   13.8090    6.1036   21.9304 H   0  0  0  0  0  0  0  0  0  0  0  0
   11.5794    3.9100   24.8898 H   0  0  0  0  0  0  0  0  0  0  0  0
    9.9228   -1.2367   22.0627 H   0  0  0  0  0  0  0  0  0  0  0  0
   10.0186   -1.9451   23.6880 H   0  0  0  0  0  0  0  0  0  0  0  0
    9.6546    2.1457   23.7866 H   0  0  0  0  0  0  0  0  0  0  0  0
   10.1384    1.5354   22.2060 H   0  0  0  0  0  0  0  0  0  0  0  0
   11.7091    1.5233   24.8266 H   0  0  0  0  0  0  0  0  0  0  0  0
    7.7688   -0.9261   26.1982 H   0  0  0  0  0  0  0  0  0  0  0  0
    9.2691   -1.6365   25.5080 H   0  0  0  0  0  0  0  0  0  0  0  0
   11.9508    6.2935   25.0810 H   0  0  0  0  0  0  0  0  0  0  0  0
   12.8534    7.1842   23.8847 H   0  0  0  0  0  0  0  0  0  0  0  0
  1  2  1  0  0  0  0
  1  4  2  0  0  0  0
  2  5  2  0  0  0  0
  3  6  1  0  0  0  0
  3  7  2  0  0  0  0
  4 10  1  0  0  0  0
  5 11  1  0  0  0  0
  6  9  2  0  0  0  0
  7 12  1  0  0  0  0
  8  9  1  0  0  0  0
  8 12  2  0  0  0  0
  9 16  1  0  0  0  0
 10 11  2  0  0  0  0
 10 14  1  0  0  0  0
 11 16  1  0  0  0  0
 12 19  1  0  0  0  0
 13 17  1  0  0  0  0
 13 18  1  0  0  0  0
 13 20  2  0  0  0  0
 14 18  1  0  0  0  0
 15 16  1  0  0  0  0
 15 18  1  0  0  0  0
 17 21  1  0  0  0  0
  1 22  1  0  0  0  0
  2 23  1  0  0  0  0
  3 24  1  0  0  0  0
  4 25  1  0  0  0  0
  5 26  1  0  0  0  0
  6 27  1  0  0  0  0
  7 28  1  0  0  0  0
  8 29  1  0  0  0  0
 14 30  1  0  0  0  0
 14 31  1  0  0  0  0
 15 32  1  0  0  0  0
 15 33  1  0  0  0  0
 16 34  1  0  0  0  0
 17 35  1  0  0  0  0
 17 36  1  0  0  0  0
 19 37  1  0  0  0  0
 19 38  1  0  0  0  0
M  END
> <creator>
Nir London, The Weizmann Institute of Science

> <fragments>
x0195

> <real_space>
FALSE

> <SCR>
FALSE

> <BB>
FALSE

> <link>
https://covid.postera.ai/covid/submissions/c331be7a-6ba0-49a5-9756-17aee0dabcbf

> <covalent_frag>
FALSE

> <covalent_warhead>
TRUE

> <acrylamide>
FALSE

> <acrylamide_adduct>
FALSE

> <chloroacetamide>
TRUE

> <chloroacetamide_adduct>
FALSE

> <vinylsulfonamide>
FALSE

> <vinylsulfonamide_adduct>
FALSE

> <in_molport_or_mcule>
FALSE

> <in_emolecules>
FALSE

> <Hybrid2>
-8.949076

> <Mpro-x0195_dock>
-8.949076

> <Mpro-x0874_dock>
-7.798729

> <Mpro-x0305_dock>
-6.201152

> <Mpro-x0104_dock>
-5.659406

> <site>
active-noncovalent

$$$$
DAR-DIA-cab-3
  -OEChem-04062011563D

 44 47  0     1  0  0  0  0  0999 V2000
    8.2019   -4.9831   24.6587 C   0  0  0  0  0  0  0  0  0  0  0  0
    9.5127   -4.5412   24.8031 C   0  0  0  0  0  0  0  0  0  0  0  0
    7.3401   -4.3253   23.7836 C   0  0  0  0  0  0  0  0  0  0  0  0
    9.9587   -3.4310   24.0851 C   0  0  0  0  0  0  0  0  0  0  0  0
   13.8738    0.6204   22.9494 C   0  0  0  0  0  0  0  0  0  0  0  0
   12.0561    1.2276   24.7190 C   0  0  0  0  0  0  0  0  0  0  0  0
    9.9537    0.0741   24.3364 C   0  0  0  0  0  0  0  0  0  0  0  0
   13.8201   -0.2283   21.8678 C   0  0  0  0  0  0  0  0  0  0  0  0
   12.6029    0.5882   23.5887 C   0  0  0  0  0  0  0  0  0  0  0  0
    7.7801   -3.2152   23.0458 C   0  0  0  0  0  0  0  0  0  0  0  0
    9.0946   -2.7344   23.2217 C   0  0  0  0  0  0  0  0  0  0  0  0
   10.4745   -0.5718   23.2114 C   0  0  0  0  0  0  0  0  0  0  0  0
   11.8011   -0.2950   22.8625 C   0  0  0  0  0  0  0  0  0  0  0  0
   10.7305    0.9603   25.0800 C   0  0  0  0  0  0  0  0  0  0  0  0
    7.1879   -1.7263   19.7904 C   0  0  0  0  0  0  0  0  0  0  0  0
    6.8158   -2.5480   22.0962 C   0  0  0  0  0  0  0  0  0  0  0  0
    8.4482   -0.7440   21.7649 C   0  0  0  0  0  0  0  0  0  0  0  0
    9.5967   -1.5343   22.4226 C   0  0  2  0  0  0  0  0  0  0  0  0
    8.8403    1.2659   26.4904 C   0  0  0  0  0  0  0  0  0  0  0  0
    7.9354   -0.7769   18.8883 C   0  0  0  0  0  0  0  0  0  0  0  0
   12.5659   -0.7755   21.8235 N   0  0  0  0  0  0  0  0  0  0  0  0
    7.4904   -1.6625   21.1494 N   0  0  0  0  0  0  0  0  0  0  0  0
    6.3627   -2.5016   19.3006 O   0  0  0  0  0  0  0  0  0  0  0  0
   10.1947    1.5769   26.1711 O   0  0  0  0  0  0  0  0  0  0  0  0
    6.9580    0.6820   18.7735 Cl  0  0  0  0  0  0  0  0  0  0  0  0
    7.8505   -5.8389   25.2269 H   0  0  0  0  0  0  0  0  0  0  0  0
   10.1915   -5.0609   25.4737 H   0  0  0  0  0  0  0  0  0  0  0  0
    6.3176   -4.6800   23.6790 H   0  0  0  0  0  0  0  0  0  0  0  0
   10.9929   -3.1095   24.1996 H   0  0  0  0  0  0  0  0  0  0  0  0
   14.7360    1.2012   23.2472 H   0  0  0  0  0  0  0  0  0  0  0  0
   12.6556    1.9199   25.3037 H   0  0  0  0  0  0  0  0  0  0  0  0
    8.9257   -0.1162   24.6379 H   0  0  0  0  0  0  0  0  0  0  0  0
   14.5617   -0.4907   21.1265 H   0  0  0  0  0  0  0  0  0  0  0  0
    6.3052   -3.3105   21.5093 H   0  0  0  0  0  0  0  0  0  0  0  0
    6.0862   -1.9903   22.6758 H   0  0  0  0  0  0  0  0  0  0  0  0
    7.9620   -0.0918   22.4879 H   0  0  0  0  0  0  0  0  0  0  0  0
    8.8394   -0.1186   20.9605 H   0  0  0  0  0  0  0  0  0  0  0  0
   10.2342   -1.9139   21.5836 H   0  0  0  0  0  0  0  0  0  0  0  0
    8.5375    1.8236   27.3800 H   0  0  0  0  0  0  0  0  0  0  0  0
    8.7448    0.1921   26.6705 H   0  0  0  0  0  0  0  0  0  0  0  0
    8.2026    1.5505   25.6502 H   0  0  0  0  0  0  0  0  0  0  0  0
    8.0413   -1.2325   17.9107 H   0  0  0  0  0  0  0  0  0  0  0  0
    8.8947   -0.5487   19.3377 H   0  0  0  0  0  0  0  0  0  0  0  0
   12.2478   -1.4361   21.1280 H   0  0  0  0  0  0  0  0  0  0  0  0
  1  2  1  0  0  0  0
  1  3  2  0  0  0  0
  2  4  2  0  0  0  0
  3 10  1  0  0  0  0
  4 11  1  0  0  0  0
  5  8  2  0  0  0  0
  5  9  1  0  0  0  0
  6  9  1  0  0  0  0
  6 14  2  0  0  0  0
  7 12  2  0  0  0  0
  7 14  1  0  0  0  0
  8 21  1  0  0  0  0
  9 13  2  0  0  0  0
 10 11  2  0  0  0  0
 10 16  1  0  0  0  0
 11 18  1  0  0  0  0
 12 13  1  0  0  0  0
 12 18  1  0  0  0  0
 13 21  1  0  0  0  0
 14 24  1  0  0  0  0
 15 20  1  0  0  0  0
 15 22  1  0  0  0  0
 15 23  2  0  0  0  0
 16 22  1  0  0  0  0
 17 18  1  0  0  0  0
 17 22  1  0  0  0  0
 19 24  1  0  0  0  0
 20 25  1  0  0  0  0
  1 26  1  0  0  0  0
  2 27  1  0  0  0  0
  3 28  1  0  0  0  0
  4 29  1  0  0  0  0
  5 30  1  0  0  0  0
  6 31  1  0  0  0  0
  7 32  1  0  0  0  0
  8 33  1  0  0  0  0
 16 34  1  0  0  0  0
 16 35  1  0  0  0  0
 17 36  1  0  0  0  0
 17 37  1  0  0  0  0
 18 38  1  0  0  0  0
 19 39  1  0  0  0  0
 19 40  1  0  0  0  0
 19 41  1  0  0  0  0
 20 42  1  0  0  0  0
 20 43  1  0  0  0  0
 21 44  1  0  0  0  0
M  END
> <creator>
Daren Fearon, Diamond Light Source Ltd

> <fragments>
x0830

> <real_space>
FALSE

> <SCR>
FALSE

> <BB>
FALSE

> <link>
https://covid.postera.ai/covid/submissions/caba39e3-6989-456c-b896-1cac12e2588e

> <covalent_frag>
TRUE

> <covalent_warhead>
TRUE

> <acrylamide>
FALSE

> <acrylamide_adduct>
FALSE

> <chloroacetamide>
TRUE

> <chloroacetamide_adduct>
FALSE

> <vinylsulfonamide>
FALSE

> <vinylsulfonamide_adduct>
FALSE

> <in_molport_or_mcule>
FALSE

> <in_emolecules>
FALSE

> <Hybrid2>
-8.943825

> <Mpro-x0830_dock>
-8.943825

> <Mpro-x1392_dock>
-6.937903

> <Mpro-x0195_dock>
-6.513794

> <Mpro-x0305_dock>
-5.455442

> <Mpro-x1249_dock>
-3.683051

> <site>
active-covalent

> <covalent_distance_min>
2.945269

> <covalent_distance_mean>
3.4237068

> <covalent_distance_stderr>
0.025204115

$$$$
MAK-UNK-af8-9
  -OEChem-04062011563D

 44 45  0     1  0  0  0  0  0999 V2000
   13.9073   -3.1362   25.0295 C   0  0  0  0  0  0  0  0  0  0  0  0
   12.6246   -3.6523   24.8452 C   0  0  0  0  0  0  0  0  0  0  0  0
   14.2397   -1.8888   24.5013 C   0  0  0  0  0  0  0  0  0  0  0  0
   12.0068   -1.6737   23.6041 C   0  0  0  0  0  0  0  0  0  0  0  0
   11.6744   -2.9211   24.1324 C   0  0  0  0  0  0  0  0  0  0  0  0
   13.2895   -1.1575   23.7885 C   0  0  0  0  0  0  0  0  0  0  0  0
    9.4194    1.7940   24.0047 C   0  0  0  0  0  0  0  0  0  0  0  0
   10.6046    4.8569   24.2125 C   0  0  0  0  0  0  0  0  0  0  0  0
   12.8115    2.4616   22.5382 C   0  0  0  0  0  0  0  0  0  0  0  0
   11.8261    1.3158   24.5435 C   0  0  0  0  0  0  0  0  0  0  0  0
   11.6135    3.4014   22.4989 C   0  0  0  0  0  0  0  0  0  0  0  0
   10.6942    2.3457   24.5741 C   0  0  1  0  0  0  0  0  0  0  0  0
   12.4339    1.1116   23.1498 C   0  0  2  0  0  0  0  0  0  0  0  0
   10.3027   -3.4730   23.9370 C   0  0  0  0  0  0  0  0  0  0  0  0
    7.1549    2.3327   23.5977 C   0  0  0  0  0  0  0  0  0  0  0  0
   13.6482    0.1871   23.2184 C   0  0  0  0  0  0  0  0  0  0  0  0
   10.1754    5.8022   23.1177 C   0  0  0  0  0  0  0  0  0  0  0  0
   10.9973    3.5715   23.8191 N   0  0  0  0  0  0  0  0  0  0  0  0
    9.3109    0.6724   23.5277 O   0  0  0  0  0  0  0  0  0  0  0  0
   10.5834    5.2464   25.3833 O   0  0  0  0  0  0  0  0  0  0  0  0
    8.4324    2.7291   24.1065 O   0  0  0  0  0  0  0  0  0  0  0  0
    8.9616    6.8659   23.8191 Cl  0  0  0  0  0  0  0  0  0  0  0  0
   14.6471   -3.7057   25.5847 H   0  0  0  0  0  0  0  0  0  0  0  0
   12.3745   -4.6250   25.2609 H   0  0  0  0  0  0  0  0  0  0  0  0
   15.2417   -1.4948   24.6492 H   0  0  0  0  0  0  0  0  0  0  0  0
   11.2661   -1.1027   23.0492 H   0  0  0  0  0  0  0  0  0  0  0  0
   13.1896    2.3167   21.5192 H   0  0  0  0  0  0  0  0  0  0  0  0
   13.6214    2.9274   23.1142 H   0  0  0  0  0  0  0  0  0  0  0  0
   12.6136    1.6548   25.2301 H   0  0  0  0  0  0  0  0  0  0  0  0
   11.4703    0.3519   24.9293 H   0  0  0  0  0  0  0  0  0  0  0  0
   11.9250    4.3689   22.0920 H   0  0  0  0  0  0  0  0  0  0  0  0
   10.8411    3.0071   21.8277 H   0  0  0  0  0  0  0  0  0  0  0  0
   10.4783    2.5805   25.6221 H   0  0  0  0  0  0  0  0  0  0  0  0
   11.6844    0.6340   22.5065 H   0  0  0  0  0  0  0  0  0  0  0  0
    9.6455   -3.1626   24.7584 H   0  0  0  0  0  0  0  0  0  0  0  0
    9.8651   -3.1273   22.9915 H   0  0  0  0  0  0  0  0  0  0  0  0
   10.3166   -4.5701   23.8980 H   0  0  0  0  0  0  0  0  0  0  0  0
    6.4408    3.1496   23.7273 H   0  0  0  0  0  0  0  0  0  0  0  0
    6.8089    1.4439   24.1314 H   0  0  0  0  0  0  0  0  0  0  0  0
    7.2519    2.1019   22.5342 H   0  0  0  0  0  0  0  0  0  0  0  0
   14.4282    0.6552   23.8274 H   0  0  0  0  0  0  0  0  0  0  0  0
   14.0716    0.0671   22.2160 H   0  0  0  0  0  0  0  0  0  0  0  0
    9.7432    5.2269   22.3073 H   0  0  0  0  0  0  0  0  0  0  0  0
   11.0347    6.3784   22.7953 H   0  0  0  0  0  0  0  0  0  0  0  0
  1  2  1  0  0  0  0
  1  3  2  0  0  0  0
  2  5  2  0  0  0  0
  3  6  1  0  0  0  0
  4  5  1  0  0  0  0
  4  6  2  0  0  0  0
  5 14  1  0  0  0  0
  6 16  1  0  0  0  0
  7 12  1  0  0  0  0
  7 19  2  0  0  0  0
  7 21  1  0  0  0  0
  8 17  1  0  0  0  0
  8 18  1  0  0  0  0
  8 20  2  0  0  0  0
  9 11  1  0  0  0  0
  9 13  1  0  0  0  0
 10 12  1  0  0  0  0
 10 13  1  0  0  0  0
 11 18  1  0  0  0  0
 12 18  1  0  0  0  0
 13 16  1  0  0  0  0
 15 21  1  0  0  0  0
 17 22  1  0  0  0  0
  1 23  1  0  0  0  0
  2 24  1  0  0  0  0
  3 25  1  0  0  0  0
  4 26  1  0  0  0  0
  9 27  1  0  0  0  0
  9 28  1  0  0  0  0
 10 29  1  0  0  0  0
 10 30  1  0  0  0  0
 11 31  1  0  0  0  0
 11 32  1  0  0  0  0
 12 33  1  0  0  0  0
 13 34  1  0  0  0  0
 14 35  1  0  0  0  0
 14 36  1  0  0  0  0
 14 37  1  0  0  0  0
 15 38  1  0  0  0  0
 15 39  1  0  0  0  0
 15 40  1  0  0  0  0
 16 41  1  0  0  0  0
 16 42  1  0  0  0  0
 17 43  1  0  0  0  0
 17 44  1  0  0  0  0
M  END
> <creator>
Maksym Voznyy

> <fragments>
x0161

> <real_space>
FALSE

> <SCR>
FALSE

> <BB>
FALSE

> <link>
https://covid.postera.ai/covid/submissions/af83ef51-35cf-489e-b3bd-9012d86d8275

> <covalent_frag>
TRUE

> <covalent_warhead>
TRUE

> <acrylamide>
FALSE

> <acrylamide_adduct>
FALSE

> <chloroacetamide>
TRUE

> <chloroacetamide_adduct>
FALSE

> <vinylsulfonamide>
FALSE

> <vinylsulfonamide_adduct>
FALSE

> <in_molport_or_mcule>
FALSE

> <in_emolecules>
FALSE

> <Hybrid2>
-8.916635

> <Mpro-x0161_dock>
-8.916635

> <Mpro-x0072_dock>
-8.146008

> <Mpro-x0195_dock>
-7.681853

> <Mpro-x0104_dock>
-7.023486

> <Mpro-x0387_dock>
-5.047909

> <Mpro-x0692_dock>
-4.895278

> <Mpro-x0305_dock>
-4.162127

> <site>
active-noncovalent

> <covalent_distance_min>
11.940172

> <covalent_distance_mean>
12.805505

> <covalent_distance_stderr>
0.07720122

$$$$
JAR-IMP-ed4-2
  -OEChem-04062011563D

 59 63  0     1  0  0  0  0  0999 V2000
    4.8357   -5.3159   27.3971 C   0  0  0  0  0  0  0  0  0  0  0  0
    5.7918   -6.3246   27.2782 C   0  0  0  0  0  0  0  0  0  0  0  0
    5.0215   -4.0982   26.7426 C   0  0  0  0  0  0  0  0  0  0  0  0
   10.3481    3.7132   24.8204 C   0  0  0  0  0  0  0  0  0  0  0  0
    9.0838    3.2679   24.4457 C   0  0  0  0  0  0  0  0  0  0  0  0
    6.9337   -6.1155   26.5050 C   0  0  0  0  0  0  0  0  0  0  0  0
    6.1634   -3.8891   25.9694 C   0  0  0  0  0  0  0  0  0  0  0  0
   11.4640    2.9056   24.6029 C   0  0  0  0  0  0  0  0  0  0  0  0
    8.9342    2.0153   23.8517 C   0  0  0  0  0  0  0  0  0  0  0  0
    7.1196   -4.8977   25.8505 C   0  0  0  0  0  0  0  0  0  0  0  0
   11.3278    1.6424   24.0075 C   0  0  0  0  0  0  0  0  0  0  0  0
   10.0506    1.1946   23.6245 C   0  0  0  0  0  0  0  0  0  0  0  0
    8.8428   -2.2884   25.9040 C   0  0  0  0  0  0  0  0  0  0  0  0
    9.2416   -1.0372   25.3109 C   0  0  0  0  0  0  0  0  0  0  0  0
    8.8103   -3.2392   24.9576 C   0  0  0  0  0  0  0  0  0  0  0  0
    9.4458   -1.2018   23.9939 C   0  0  0  0  0  0  0  0  0  0  0  0
   13.2035   -1.5800   23.2440 C   0  0  0  0  0  0  0  0  0  0  0  0
    6.5204   -4.6922   21.8116 C   0  0  0  0  0  0  0  0  0  0  0  0
   12.5629    0.8042   23.7888 C   0  0  0  0  0  0  0  0  0  0  0  0
   11.1605   -0.5855   22.2693 C   0  0  0  0  0  0  0  0  0  0  0  0
    8.1842   -5.2191   23.5716 C   0  0  0  0  0  0  0  0  0  0  0  0
    8.0988   -2.8888   22.6091 C   0  0  0  0  0  0  0  0  0  0  0  0
    8.3641   -4.6691   25.0078 C   0  0  2  0  0  0  0  0  0  0  0  0
    9.8715   -0.1684   22.9898 C   0  0  2  0  0  0  0  0  0  0  0  0
    9.2133   -2.6476   23.6289 C   0  0  2  0  0  0  0  0  0  0  0  0
   14.4614   -1.3530   24.0463 C   0  0  0  0  0  0  0  0  0  0  0  0
    6.1346   -6.1471   21.9292 C   0  0  0  0  0  0  0  0  0  0  0  0
   12.3206   -0.5001   23.1585 N   0  0  0  0  0  0  0  0  0  0  0  0
    7.5551   -4.2611   22.6475 N   0  0  0  0  0  0  0  0  0  0  0  0
   13.0100   -2.6790   22.7189 O   0  0  0  0  0  0  0  0  0  0  0  0
    5.9305   -3.9698   21.0050 O   0  0  0  0  0  0  0  0  0  0  0  0
   14.0797   -1.7791   25.7104 Cl  0  0  0  0  0  0  0  0  0  0  0  0
    4.9048   -6.2423   23.1847 Cl  0  0  0  0  0  0  0  0  0  0  0  0
    3.9459   -5.4794   27.9981 H   0  0  0  0  0  0  0  0  0  0  0  0
    5.6467   -7.2732   27.7868 H   0  0  0  0  0  0  0  0  0  0  0  0
    4.2768   -3.3130   26.8340 H   0  0  0  0  0  0  0  0  0  0  0  0
   10.4660    4.6889   25.2826 H   0  0  0  0  0  0  0  0  0  0  0  0
    8.2140    3.8956   24.6161 H   0  0  0  0  0  0  0  0  0  0  0  0
    7.6734   -6.9070   26.4182 H   0  0  0  0  0  0  0  0  0  0  0  0
    6.2998   -2.9371   25.4632 H   0  0  0  0  0  0  0  0  0  0  0  0
   12.4455    3.2664   24.9011 H   0  0  0  0  0  0  0  0  0  0  0  0
    7.9400    1.6803   23.5659 H   0  0  0  0  0  0  0  0  0  0  0  0
    8.5656   -2.3961   26.9395 H   0  0  0  0  0  0  0  0  0  0  0  0
    9.3368   -0.1156   25.8621 H   0  0  0  0  0  0  0  0  0  0  0  0
   13.2514    1.3444   23.1279 H   0  0  0  0  0  0  0  0  0  0  0  0
   13.0577    0.6534   24.7530 H   0  0  0  0  0  0  0  0  0  0  0  0
   11.0597   -1.5983   21.8586 H   0  0  0  0  0  0  0  0  0  0  0  0
   11.3714    0.0769   21.4171 H   0  0  0  0  0  0  0  0  0  0  0  0
    9.1611   -5.5498   23.1739 H   0  0  0  0  0  0  0  0  0  0  0  0
    7.5437   -6.1222   23.5736 H   0  0  0  0  0  0  0  0  0  0  0  0
    7.2385   -2.2051   22.7847 H   0  0  0  0  0  0  0  0  0  0  0  0
    8.4630   -2.6268   21.5960 H   0  0  0  0  0  0  0  0  0  0  0  0
    9.1744   -5.2536   25.5077 H   0  0  0  0  0  0  0  0  0  0  0  0
    9.0859   -0.0927   22.2247 H   0  0  0  0  0  0  0  0  0  0  0  0
   10.1481   -3.0995   23.2838 H   0  0  0  0  0  0  0  0  0  0  0  0
   14.7334   -0.3060   23.9824 H   0  0  0  0  0  0  0  0  0  0  0  0
   15.2416   -2.0010   23.6648 H   0  0  0  0  0  0  0  0  0  0  0  0
    7.0079   -6.7200   22.2195 H   0  0  0  0  0  0  0  0  0  0  0  0
    5.7262   -6.4801   20.9819 H   0  0  0  0  0  0  0  0  0  0  0  0
  1  2  1  0  0  0  0
  1  3  2  0  0  0  0
  2  6  2  0  0  0  0
  3  7  1  0  0  0  0
  4  5  1  0  0  0  0
  4  8  2  0  0  0  0
  5  9  2  0  0  0  0
  6 10  1  0  0  0  0
  7 10  2  0  0  0  0
  8 11  1  0  0  0  0
  9 12  1  0  0  0  0
 10 23  1  0  0  0  0
 11 12  2  0  0  0  0
 11 19  1  0  0  0  0
 12 24  1  0  0  0  0
 13 14  1  0  0  0  0
 13 15  2  0  0  0  0
 14 16  2  0  0  0  0
 15 23  1  0  0  0  0
 15 25  1  0  0  0  0
 16 24  1  0  0  0  0
 16 25  1  0  0  0  0
 17 26  1  0  0  0  0
 17 28  1  0  0  0  0
 17 30  2  0  0  0  0
 18 27  1  0  0  0  0
 18 29  1  0  0  0  0
 18 31  2  0  0  0  0
 19 28  1  0  0  0  0
 20 24  1  0  0  0  0
 20 28  1  0  0  0  0
 21 23  1  0  0  0  0
 21 29  1  0  0  0  0
 22 25  1  0  0  0  0
 22 29  1  0  0  0  0
 26 32  1  0  0  0  0
 27 33  1  0  0  0  0
  1 34  1  0  0  0  0
  2 35  1  0  0  0  0
  3 36  1  0  0  0  0
  4 37  1  0  0  0  0
  5 38  1  0  0  0  0
  6 39  1  0  0  0  0
  7 40  1  0  0  0  0
  8 41  1  0  0  0  0
  9 42  1  0  0  0  0
 13 43  1  0  0  0  0
 14 44  1  0  0  0  0
 19 45  1  0  0  0  0
 19 46  1  0  0  0  0
 20 47  1  0  0  0  0
 20 48  1  0  0  0  0
 21 49  1  0  0  0  0
 21 50  1  0  0  0  0
 22 51  1  0  0  0  0
 22 52  1  0  0  0  0
 23 53  1  0  0  0  0
 24 54  1  0  0  0  0
 25 55  1  0  0  0  0
 26 56  1  0  0  0  0
 26 57  1  0  0  0  0
 27 58  1  0  0  0  0
 27 59  1  0  0  0  0
M  END
> <creator>
Jarvist Moore Frost, Imperial College London

> <fragments>
x0072

> <real_space>
FALSE

> <SCR>
FALSE

> <BB>
FALSE

> <link>
https://covid.postera.ai/covid/submissions/ed466bb3-a892-4313-81f4-6ae142a100ea

> <covalent_frag>
FALSE

> <covalent_warhead>
TRUE

> <acrylamide>
FALSE

> <acrylamide_adduct>
FALSE

> <chloroacetamide>
TRUE

> <chloroacetamide_adduct>
FALSE

> <vinylsulfonamide>
FALSE

> <vinylsulfonamide_adduct>
FALSE

> <in_molport_or_mcule>
FALSE

> <in_emolecules>
FALSE

> <Hybrid2>
-8.895629

> <Mpro-x0072_dock>
-8.895629

> <site>
active-noncovalent

> <covalent_distance_min>
4.654353

> <covalent_distance_mean>
5.624523

> <covalent_distance_stderr>
0.05786421

$$$$
DAR-DIA-cab-1
  -OEChem-04062011563D

 36 38  0     1  0  0  0  0  0999 V2000
    8.2843   -4.6936   25.5794 C   0  0  0  0  0  0  0  0  0  0  0  0
    9.6348   -4.3736   25.4903 C   0  0  0  0  0  0  0  0  0  0  0  0
   12.6565    0.3900   22.4625 C   0  0  0  0  0  0  0  0  0  0  0  0
    7.3821   -4.1574   24.6630 C   0  0  0  0  0  0  0  0  0  0  0  0
   10.0826   -3.5042   24.4951 C   0  0  0  0  0  0  0  0  0  0  0  0
   11.7023   -0.5383   22.0460 C   0  0  0  0  0  0  0  0  0  0  0  0
   12.6333    0.8751   23.7701 C   0  0  0  0  0  0  0  0  0  0  0  0
   10.7017   -0.4962   24.2447 C   0  0  0  0  0  0  0  0  0  0  0  0
   10.7249   -0.9814   22.9371 C   0  0  0  0  0  0  0  0  0  0  0  0
    7.8215   -3.2918   23.6491 C   0  0  0  0  0  0  0  0  0  0  0  0
    9.1827   -2.9275   23.5813 C   0  0  0  0  0  0  0  0  0  0  0  0
   11.6560    0.4320   24.6612 C   0  0  0  0  0  0  0  0  0  0  0  0
    6.9730   -2.5059   20.2101 C   0  0  0  0  0  0  0  0  0  0  0  0
    6.8099   -2.7520   22.6683 C   0  0  0  0  0  0  0  0  0  0  0  0
    8.5345   -1.2516   21.7722 C   0  0  0  0  0  0  0  0  0  0  0  0
    9.6837   -1.9950   22.4812 C   0  0  1  0  0  0  0  0  0  0  0  0
    7.6841   -1.8654   19.0448 C   0  0  0  0  0  0  0  0  0  0  0  0
    7.4383   -2.1756   21.4816 N   0  0  0  0  0  0  0  0  0  0  0  0
    6.0346   -3.2774   19.9952 O   0  0  0  0  0  0  0  0  0  0  0  0
   11.6333    0.8981   25.9167 F   0  0  0  0  0  0  0  0  0  0  0  0
    6.8234   -0.3720   18.6898 Cl  0  0  0  0  0  0  0  0  0  0  0  0
    7.9333   -5.3596   26.3616 H   0  0  0  0  0  0  0  0  0  0  0  0
   10.3430   -4.8016   26.1945 H   0  0  0  0  0  0  0  0  0  0  0  0
   13.4179    0.7347   21.7688 H   0  0  0  0  0  0  0  0  0  0  0  0
    6.3287   -4.4149   24.7426 H   0  0  0  0  0  0  0  0  0  0  0  0
   11.1460   -3.2779   24.4317 H   0  0  0  0  0  0  0  0  0  0  0  0
   11.7281   -0.9106   21.0251 H   0  0  0  0  0  0  0  0  0  0  0  0
   13.3759    1.5981   24.0939 H   0  0  0  0  0  0  0  0  0  0  0  0
    9.9447   -0.8360   24.9463 H   0  0  0  0  0  0  0  0  0  0  0  0
    6.1724   -3.5664   22.3261 H   0  0  0  0  0  0  0  0  0  0  0  0
    6.2023   -2.0051   23.1705 H   0  0  0  0  0  0  0  0  0  0  0  0
    8.1926   -0.4073   22.3678 H   0  0  0  0  0  0  0  0  0  0  0  0
    8.8780   -0.8654   20.8109 H   0  0  0  0  0  0  0  0  0  0  0  0
   10.1841   -2.6169   21.6956 H   0  0  0  0  0  0  0  0  0  0  0  0
    7.6358   -2.5347   18.1938 H   0  0  0  0  0  0  0  0  0  0  0  0
    8.7053   -1.6474   19.3344 H   0  0  0  0  0  0  0  0  0  0  0  0
  1  2  1  0  0  0  0
  1  4  2  0  0  0  0
  2  5  2  0  0  0  0
  3  6  2  0  0  0  0
  3  7  1  0  0  0  0
  4 10  1  0  0  0  0
  5 11  1  0  0  0  0
  6  9  1  0  0  0  0
  7 12  2  0  0  0  0
  8  9  2  0  0  0  0
  8 12  1  0  0  0  0
  9 16  1  0  0  0  0
 10 11  2  0  0  0  0
 10 14  1  0  0  0  0
 11 16  1  0  0  0  0
 12 20  1  0  0  0  0
 13 17  1  0  0  0  0
 13 18  1  0  0  0  0
 13 19  2  0  0  0  0
 14 18  1  0  0  0  0
 15 16  1  0  0  0  0
 15 18  1  0  0  0  0
 17 21  1  0  0  0  0
  1 22  1  0  0  0  0
  2 23  1  0  0  0  0
  3 24  1  0  0  0  0
  4 25  1  0  0  0  0
  5 26  1  0  0  0  0
  6 27  1  0  0  0  0
  7 28  1  0  0  0  0
  8 29  1  0  0  0  0
 14 30  1  0  0  0  0
 14 31  1  0  0  0  0
 15 32  1  0  0  0  0
 15 33  1  0  0  0  0
 16 34  1  0  0  0  0
 17 35  1  0  0  0  0
 17 36  1  0  0  0  0
M  END
> <creator>
Daren Fearon, Diamond Light Source Ltd

> <fragments>
x0830

> <real_space>
FALSE

> <SCR>
FALSE

> <BB>
FALSE

> <link>
https://covid.postera.ai/covid/submissions/caba39e3-6989-456c-b896-1cac12e2588e

> <covalent_frag>
TRUE

> <covalent_warhead>
TRUE

> <acrylamide>
FALSE

> <acrylamide_adduct>
FALSE

> <chloroacetamide>
TRUE

> <chloroacetamide_adduct>
FALSE

> <vinylsulfonamide>
FALSE

> <vinylsulfonamide_adduct>
FALSE

> <in_molport_or_mcule>
FALSE

> <in_emolecules>
FALSE

> <Hybrid2>
-8.894762

> <Mpro-x0830_dock>
-8.894762

> <Mpro-x1392_dock>
-8.638884

> <Mpro-x0195_dock>
-8.034199

> <Mpro-x0305_dock>
-5.37842

> <Mpro-x1249_dock>
-4.007474

> <site>
active-covalent

> <covalent_distance_min>
2.9455543

> <covalent_distance_mean>
3.2338727

> <covalent_distance_stderr>
0.008034038

$$$$
FOC-CAS-e3a-1
  -OEChem-04062011563D

 41 43  0     1  0  0  0  0  0999 V2000
    5.2683    1.1451   19.3073 C   0  0  0  0  0  0  0  0  0  0  0  0
    8.4871   -4.0776   23.3403 C   0  0  0  0  0  0  0  0  0  0  0  0
    6.4191   -3.2547   22.4005 C   0  0  0  0  0  0  0  0  0  0  0  0
    5.9390    0.6112   20.4020 C   0  0  0  0  0  0  0  0  0  0  0  0
    8.1723   -5.3651   22.9057 C   0  0  0  0  0  0  0  0  0  0  0  0
    6.1043   -4.5421   21.9658 C   0  0  0  0  0  0  0  0  0  0  0  0
    5.7748    0.8819   18.0448 C   0  0  0  0  0  0  0  0  0  0  0  0
    7.5050   -0.3638   18.9009 C   0  0  0  0  0  0  0  0  0  0  0  0
    7.6105   -3.0224   23.0878 C   0  0  0  0  0  0  0  0  0  0  0  0
    7.0797   -0.1587   20.2036 C   0  0  0  0  0  0  0  0  0  0  0  0
    6.9809   -5.5974   22.2184 C   0  0  0  0  0  0  0  0  0  0  0  0
    7.0407    1.9766   23.0161 C   0  0  0  0  0  0  0  0  0  0  0  0
    9.2362    0.9355   23.4361 C   0  0  0  0  0  0  0  0  0  0  0  0
    9.6991   -0.2203   24.3065 C   0  0  0  0  0  0  0  0  0  0  0  0
    7.9527   -1.6212   23.5597 C   0  0  2  0  0  0  0  0  0  0  0  0
    7.3677   -0.5189   22.6544 C   0  0  1  0  0  0  0  0  0  0  0  0
    7.7515    3.2409   22.6013 C   0  0  0  0  0  0  0  0  0  0  0  0
    6.8799    0.1385   17.8126 N   0  0  0  0  0  0  0  0  0  0  0  0
    7.8173    0.8165   23.0886 N   0  0  0  0  0  0  0  0  0  0  0  0
    7.7664   -0.7020   21.2716 N   0  0  0  0  0  0  0  0  0  0  0  0
    5.8321    2.0163   23.2608 O   0  0  0  0  0  0  0  0  0  0  0  0
    9.3710   -1.4666   23.6956 O   0  0  0  0  0  0  0  0  0  0  0  0
    6.6798   -6.8332   21.7986 F   0  0  0  0  0  0  0  0  0  0  0  0
    7.5364    4.3928   23.9144 Cl  0  0  0  0  0  0  0  0  0  0  0  0
    4.3771    1.7482   19.4380 H   0  0  0  0  0  0  0  0  0  0  0  0
    9.4173   -3.9066   23.8757 H   0  0  0  0  0  0  0  0  0  0  0  0
    5.7301   -2.4386   22.1990 H   0  0  0  0  0  0  0  0  0  0  0  0
    5.5648    0.8009   21.4045 H   0  0  0  0  0  0  0  0  0  0  0  0
    8.8549   -6.1865   23.1016 H   0  0  0  0  0  0  0  0  0  0  0  0
    5.1767   -4.7234   21.4311 H   0  0  0  0  0  0  0  0  0  0  0  0
    5.2885    1.2751   17.1582 H   0  0  0  0  0  0  0  0  0  0  0  0
    8.3888   -0.9559   18.6827 H   0  0  0  0  0  0  0  0  0  0  0  0
    9.4384    1.8893   23.9331 H   0  0  0  0  0  0  0  0  0  0  0  0
    9.7863    0.9332   22.4876 H   0  0  0  0  0  0  0  0  0  0  0  0
   10.7867   -0.1838   24.4250 H   0  0  0  0  0  0  0  0  0  0  0  0
    9.2560   -0.1702   25.3082 H   0  0  0  0  0  0  0  0  0  0  0  0
    7.4979   -1.5264   24.5726 H   0  0  0  0  0  0  0  0  0  0  0  0
    6.2737   -0.5860   22.6935 H   0  0  0  0  0  0  0  0  0  0  0  0
    7.2937    3.6195   21.6949 H   0  0  0  0  0  0  0  0  0  0  0  0
    8.8044    3.0229   22.4655 H   0  0  0  0  0  0  0  0  0  0  0  0
    8.5912   -1.2562   21.0907 H   0  0  0  0  0  0  0  0  0  0  0  0
  1  4  2  0  0  0  0
  1  7  1  0  0  0  0
  2  5  2  0  0  0  0
  2  9  1  0  0  0  0
  3  6  1  0  0  0  0
  3  9  2  0  0  0  0
  4 10  1  0  0  0  0
  5 11  1  0  0  0  0
  6 11  2  0  0  0  0
  7 18  2  0  0  0  0
  8 10  2  0  0  0  0
  8 18  1  0  0  0  0
  9 15  1  0  0  0  0
 10 20  1  0  0  0  0
 11 23  1  0  0  0  0
 12 17  1  0  0  0  0
 12 19  1  0  0  0  0
 12 21  2  0  0  0  0
 13 14  1  0  0  0  0
 13 19  1  0  0  0  0
 14 22  1  0  0  0  0
 15 16  1  0  0  0  0
 15 22  1  0  0  0  0
 16 19  1  0  0  0  0
 16 20  1  0  0  0  0
 17 24  1  0  0  0  0
  1 25  1  0  0  0  0
  2 26  1  0  0  0  0
  3 27  1  0  0  0  0
  4 28  1  0  0  0  0
  5 29  1  0  0  0  0
  6 30  1  0  0  0  0
  7 31  1  0  0  0  0
  8 32  1  0  0  0  0
 13 33  1  0  0  0  0
 13 34  1  0  0  0  0
 14 35  1  0  0  0  0
 14 36  1  0  0  0  0
 15 37  1  0  0  0  0
 16 38  1  0  0  0  0
 17 39  1  0  0  0  0
 17 40  1  0  0  0  0
 20 41  1  0  0  0  0
M  END
> <creator>
Focco Vandenakker, Case Western Reserve University

> <fragments>
x0107

> <real_space>
FALSE

> <SCR>
FALSE

> <BB>
FALSE

> <link>
https://covid.postera.ai/covid/submissions/e3a94da8-a626-4ab7-8bea-dbe05e26b3f4

> <covalent_frag>
TRUE

> <covalent_warhead>
TRUE

> <acrylamide>
FALSE

> <acrylamide_adduct>
FALSE

> <chloroacetamide>
TRUE

> <chloroacetamide_adduct>
FALSE

> <vinylsulfonamide>
FALSE

> <vinylsulfonamide_adduct>
FALSE

> <in_molport_or_mcule>
FALSE

> <in_emolecules>
FALSE

> <Hybrid2>
-8.865638

> <Mpro-x0107_dock>
-8.865638

> <Mpro-x0759_dock>
-7.173214

> <site>
active-noncovalent

> <covalent_distance_min>
8.568565

> <covalent_distance_mean>
9.558682

> <covalent_distance_stderr>
0.05354758

$$$$
HAN-NEW-5f5-4
  -OEChem-04062011563D

 62 64  0     1  0  0  0  0  0999 V2000
   12.7499    5.9637   25.5966 C   0  0  0  0  0  0  0  0  0  0  0  0
   11.5391    6.6620   25.5233 C   0  0  0  0  0  0  0  0  0  0  0  0
   13.1555    5.1285   24.5576 C   0  0  0  0  0  0  0  0  0  0  0  0
    9.1739    6.5340   22.7394 C   0  0  0  0  0  0  0  0  0  0  0  0
   10.7275    6.5124   24.3813 C   0  0  0  0  0  0  0  0  0  0  0  0
   12.3671    4.9644   23.4151 C   0  0  0  0  0  0  0  0  0  0  0  0
    9.4734    7.0511   23.9787 C   0  0  0  0  0  0  0  0  0  0  0  0
   11.1593    5.6687   23.3556 C   0  0  0  0  0  0  0  0  0  0  0  0
   13.3481   -0.7251   22.1174 C   0  0  0  0  0  0  0  0  0  0  0  0
    8.3758    0.3727   24.2751 C   0  0  0  0  0  0  0  0  0  0  0  0
    7.9538    4.9943   26.0249 C   0  0  0  0  0  0  0  0  0  0  0  0
    9.8066   -1.1566   22.9564 C   0  0  0  0  0  0  0  0  0  0  0  0
   10.8835   -0.6982   21.9815 C   0  0  0  0  0  0  0  0  0  0  0  0
   10.8592    0.1247   24.7667 C   0  0  0  0  0  0  0  0  0  0  0  0
   11.9851    0.5857   23.8277 C   0  0  2  0  0  0  0  0  0  0  0  0
   14.5941   -0.3345   22.8727 C   0  0  0  0  0  0  0  0  0  0  0  0
    8.3527    4.1153   27.1636 C   0  0  0  0  0  0  0  0  0  0  0  0
   12.8366    4.0528   22.3094 C   0  0  0  0  0  0  0  0  0  0  0  0
    8.6356    7.9952   24.7457 C   0  0  0  0  0  0  0  0  0  0  0  0
    8.0933    0.7853   25.6975 C   0  0  0  0  0  0  0  0  0  0  0  0
   11.7706    2.0263   23.3535 C   0  0  0  0  0  0  0  0  0  0  0  0
   13.0653    2.6262   22.8166 C   0  0  0  0  0  0  0  0  0  0  0  0
    7.4140    7.3449   25.4202 C   0  0  0  0  0  0  0  0  0  0  0  0
   10.1966    5.7011   22.3720 N   0  0  0  0  0  0  0  0  0  0  0  0
    9.6319   -0.1742   24.0235 N   0  0  0  0  0  0  0  0  0  0  0  0
   12.1268   -0.3319   22.6728 N   0  0  0  0  0  0  0  0  0  0  0  0
    7.7933    6.3281   26.3642 N   0  0  0  0  0  0  0  0  0  0  0  0
   13.4567   -1.3687   21.0702 O   0  0  0  0  0  0  0  0  0  0  0  0
    7.5067    0.5352   23.4149 O   0  0  0  0  0  0  0  0  0  0  0  0
    7.8008    4.5076   24.9108 O   0  0  0  0  0  0  0  0  0  0  0  0
    6.3559    0.6291   25.9320 Cl  0  0  0  0  0  0  0  0  0  0  0  0
   13.3797    6.0749   26.4755 H   0  0  0  0  0  0  0  0  0  0  0  0
   11.2377    7.3091   26.3421 H   0  0  0  0  0  0  0  0  0  0  0  0
   14.1014    4.5987   24.6451 H   0  0  0  0  0  0  0  0  0  0  0  0
    8.3259    6.6826   22.0853 H   0  0  0  0  0  0  0  0  0  0  0  0
    8.8672   -1.3212   22.4193 H   0  0  0  0  0  0  0  0  0  0  0  0
   10.0889   -2.1078   23.4230 H   0  0  0  0  0  0  0  0  0  0  0  0
   11.0723   -1.4901   21.2494 H   0  0  0  0  0  0  0  0  0  0  0  0
   10.5471    0.1817   21.4209 H   0  0  0  0  0  0  0  0  0  0  0  0
   11.1557   -0.8033   25.2718 H   0  0  0  0  0  0  0  0  0  0  0  0
   10.6951    0.8686   25.5491 H   0  0  0  0  0  0  0  0  0  0  0  0
   12.9089    0.5744   24.4127 H   0  0  0  0  0  0  0  0  0  0  0  0
   14.8432   -1.1215   23.5765 H   0  0  0  0  0  0  0  0  0  0  0  0
   14.4108    0.5940   23.4036 H   0  0  0  0  0  0  0  0  0  0  0  0
   15.4071   -0.1956   22.1677 H   0  0  0  0  0  0  0  0  0  0  0  0
    7.4837    3.6959   27.6956 H   0  0  0  0  0  0  0  0  0  0  0  0
    8.9418    3.2438   26.8357 H   0  0  0  0  0  0  0  0  0  0  0  0
    8.9626    4.6006   27.9424 H   0  0  0  0  0  0  0  0  0  0  0  0
   12.0983    4.0447   21.4972 H   0  0  0  0  0  0  0  0  0  0  0  0
   13.7645    4.4457   21.8740 H   0  0  0  0  0  0  0  0  0  0  0  0
    8.2671    8.8020   24.0818 H   0  0  0  0  0  0  0  0  0  0  0  0
    9.2283    8.5226   25.5202 H   0  0  0  0  0  0  0  0  0  0  0  0
    8.3954    1.8179   25.8308 H   0  0  0  0  0  0  0  0  0  0  0  0
    8.6211    0.1174   26.3687 H   0  0  0  0  0  0  0  0  0  0  0  0
   11.3976    2.6173   24.1933 H   0  0  0  0  0  0  0  0  0  0  0  0
   11.0011    2.0265   22.5778 H   0  0  0  0  0  0  0  0  0  0  0  0
   13.8275    2.6291   23.6063 H   0  0  0  0  0  0  0  0  0  0  0  0
   13.4554    1.9998   22.0043 H   0  0  0  0  0  0  0  0  0  0  0  0
    6.8298    8.0871   25.9733 H   0  0  0  0  0  0  0  0  0  0  0  0
    6.7581    6.8783   24.6779 H   0  0  0  0  0  0  0  0  0  0  0  0
   10.2379    5.1854   21.5039 H   0  0  0  0  0  0  0  0  0  0  0  0
    7.9521    6.6029   27.3323 H   0  0  0  0  0  0  0  0  0  0  0  0
  1  2  2  0  0  0  0
  1  3  1  0  0  0  0
  2  5  1  0  0  0  0
  3  6  2  0  0  0  0
  4  7  2  0  0  0  0
  4 24  1  0  0  0  0
  5  7  1  0  0  0  0
  5  8  2  0  0  0  0
  6  8  1  0  0  0  0
  6 18  1  0  0  0  0
  7 19  1  0  0  0  0
  8 24  1  0  0  0  0
  9 16  1  0  0  0  0
  9 26  1  0  0  0  0
  9 28  2  0  0  0  0
 10 20  1  0  0  0  0
 10 25  1  0  0  0  0
 10 29  2  0  0  0  0
 11 17  1  0  0  0  0
 11 27  1  0  0  0  0
 11 30  2  0  0  0  0
 12 13  1  0  0  0  0
 12 25  1  0  0  0  0
 13 26  1  0  0  0  0
 14 15  1  0  0  0  0
 14 25  1  0  0  0  0
 15 21  1  0  0  0  0
 15 26  1  0  0  0  0
 18 22  1  0  0  0  0
 19 23  1  0  0  0  0
 20 31  1  0  0  0  0
 21 22  1  0  0  0  0
 23 27  1  0  0  0  0
  1 32  1  0  0  0  0
  2 33  1  0  0  0  0
  3 34  1  0  0  0  0
  4 35  1  0  0  0  0
 12 36  1  0  0  0  0
 12 37  1  0  0  0  0
 13 38  1  0  0  0  0
 13 39  1  0  0  0  0
 14 40  1  0  0  0  0
 14 41  1  0  0  0  0
 15 42  1  0  0  0  0
 16 43  1  0  0  0  0
 16 44  1  0  0  0  0
 16 45  1  0  0  0  0
 17 46  1  0  0  0  0
 17 47  1  0  0  0  0
 17 48  1  0  0  0  0
 18 49  1  0  0  0  0
 18 50  1  0  0  0  0
 19 51  1  0  0  0  0
 19 52  1  0  0  0  0
 20 53  1  0  0  0  0
 20 54  1  0  0  0  0
 21 55  1  0  0  0  0
 21 56  1  0  0  0  0
 22 57  1  0  0  0  0
 22 58  1  0  0  0  0
 23 59  1  0  0  0  0
 23 60  1  0  0  0  0
 24 61  1  0  0  0  0
 27 62  1  0  0  0  0
M  END
> <creator>
Hannah Stewart, Newcastle University

> <fragments>
x0104

> <real_space>
FALSE

> <SCR>
FALSE

> <BB>
FALSE

> <link>
https://covid.postera.ai/covid/submissions/5f56c3bc-30b3-4c34-b801-53491e28f16e

> <covalent_frag>
TRUE

> <covalent_warhead>
TRUE

> <acrylamide>
FALSE

> <acrylamide_adduct>
FALSE

> <chloroacetamide>
TRUE

> <chloroacetamide_adduct>
FALSE

> <vinylsulfonamide>
FALSE

> <vinylsulfonamide_adduct>
FALSE

> <in_molport_or_mcule>
FALSE

> <in_emolecules>
FALSE

> <Hybrid2>
-8.814908

> <Mpro-x0104_dock>
-8.814908

> <Mpro-x0434_dock>
-6.58414

> <Mpro-x0072_dock>
-5.064233

> <Mpro-x0107_dock>
-2.535013

> <Mpro-x1375_dock>
-2.057466

> <Mpro-x1493_dock>
-1.068064

> <Mpro-x0540_dock>
1.700795

> <site>
active-noncovalent

> <covalent_distance_min>
5.513132

> <covalent_distance_mean>
6.34136

> <covalent_distance_stderr>
0.061876573

$$$$
NIR-THE-c33-6
  -OEChem-04062011563D

 39 41  0     1  0  0  0  0  0999 V2000
   13.9820   -1.7581   22.3309 C   0  0  0  0  0  0  0  0  0  0  0  0
   14.6423   -0.5526   22.5397 C   0  0  0  0  0  0  0  0  0  0  0  0
   12.8921    4.3430   21.8326 C   0  0  0  0  0  0  0  0  0  0  0  0
   12.6609   -1.9059   22.7475 C   0  0  0  0  0  0  0  0  0  0  0  0
   13.9769    0.5116   23.1494 C   0  0  0  0  0  0  0  0  0  0  0  0
   12.5867    3.0790   22.3370 C   0  0  0  0  0  0  0  0  0  0  0  0
   12.8547    5.4566   22.6717 C   0  0  0  0  0  0  0  0  0  0  0  0
   12.2061    4.0421   24.5198 C   0  0  0  0  0  0  0  0  0  0  0  0
   12.2436    2.9285   23.6806 C   0  0  0  0  0  0  0  0  0  0  0  0
   11.9826   -0.8463   23.3716 C   0  0  0  0  0  0  0  0  0  0  0  0
   12.6324    0.3929   23.5442 C   0  0  0  0  0  0  0  0  0  0  0  0
   12.5116    5.3061   24.0154 C   0  0  0  0  0  0  0  0  0  0  0  0
    9.1644   -0.1603   25.7414 C   0  0  0  0  0  0  0  0  0  0  0  0
   10.5630   -1.0764   23.8326 C   0  0  0  0  0  0  0  0  0  0  0  0
   10.3854    1.3530   24.2165 C   0  0  0  0  0  0  0  0  0  0  0  0
   11.9118    1.5483   24.2307 C   0  0  2  0  0  0  0  0  0  0  0  0
   12.4709    6.4971   24.9125 C   0  0  0  0  0  0  0  0  0  0  0  0
    9.2793   -1.4578   26.5021 C   0  0  0  0  0  0  0  0  0  0  0  0
   10.0349    0.0088   24.6643 N   0  0  0  0  0  0  0  0  0  0  0  0
    8.3302    0.6762   26.0968 O   0  0  0  0  0  0  0  0  0  0  0  0
    8.1549   -2.5830   25.7495 Cl  0  0  0  0  0  0  0  0  0  0  0  0
   14.4942   -2.5822   21.8442 H   0  0  0  0  0  0  0  0  0  0  0  0
   15.6774   -0.4377   22.2299 H   0  0  0  0  0  0  0  0  0  0  0  0
   13.1594    4.4601   20.7863 H   0  0  0  0  0  0  0  0  0  0  0  0
   12.1544   -2.8543   22.5816 H   0  0  0  0  0  0  0  0  0  0  0  0
   14.5158    1.4430   23.3195 H   0  0  0  0  0  0  0  0  0  0  0  0
   12.6190    2.2169   21.6757 H   0  0  0  0  0  0  0  0  0  0  0  0
   13.0935    6.4378   22.2699 H   0  0  0  0  0  0  0  0  0  0  0  0
   11.9397    3.9252   25.5677 H   0  0  0  0  0  0  0  0  0  0  0  0
    9.9301   -1.2134   22.9556 H   0  0  0  0  0  0  0  0  0  0  0  0
   10.5259   -1.9850   24.4396 H   0  0  0  0  0  0  0  0  0  0  0  0
    9.9120    2.0490   24.9155 H   0  0  0  0  0  0  0  0  0  0  0  0
    9.9780    1.5573   23.2246 H   0  0  0  0  0  0  0  0  0  0  0  0
   12.2141    1.5621   25.3067 H   0  0  0  0  0  0  0  0  0  0  0  0
   11.4704    6.9463   24.9054 H   0  0  0  0  0  0  0  0  0  0  0  0
   12.7236    6.2262   25.9457 H   0  0  0  0  0  0  0  0  0  0  0  0
   13.1965    7.2582   24.5971 H   0  0  0  0  0  0  0  0  0  0  0  0
    8.9986   -1.2849   27.5345 H   0  0  0  0  0  0  0  0  0  0  0  0
   10.2937   -1.8280   26.4121 H   0  0  0  0  0  0  0  0  0  0  0  0
  1  2  1  0  0  0  0
  1  4  2  0  0  0  0
  2  5  2  0  0  0  0
  3  6  1  0  0  0  0
  3  7  2  0  0  0  0
  4 10  1  0  0  0  0
  5 11  1  0  0  0  0
  6  9  2  0  0  0  0
  7 12  1  0  0  0  0
  8  9  1  0  0  0  0
  8 12  2  0  0  0  0
  9 16  1  0  0  0  0
 10 11  2  0  0  0  0
 10 14  1  0  0  0  0
 11 16  1  0  0  0  0
 12 17  1  0  0  0  0
 13 18  1  0  0  0  0
 13 19  1  0  0  0  0
 13 20  2  0  0  0  0
 14 19  1  0  0  0  0
 15 16  1  0  0  0  0
 15 19  1  0  0  0  0
 18 21  1  0  0  0  0
  1 22  1  0  0  0  0
  2 23  1  0  0  0  0
  3 24  1  0  0  0  0
  4 25  1  0  0  0  0
  5 26  1  0  0  0  0
  6 27  1  0  0  0  0
  7 28  1  0  0  0  0
  8 29  1  0  0  0  0
 14 30  1  0  0  0  0
 14 31  1  0  0  0  0
 15 32  1  0  0  0  0
 15 33  1  0  0  0  0
 16 34  1  0  0  0  0
 17 35  1  0  0  0  0
 17 36  1  0  0  0  0
 17 37  1  0  0  0  0
 18 38  1  0  0  0  0
 18 39  1  0  0  0  0
M  END
> <creator>
Nir London, The Weizmann Institute of Science

> <fragments>
x0195

> <real_space>
FALSE

> <SCR>
FALSE

> <BB>
FALSE

> <link>
https://covid.postera.ai/covid/submissions/c331be7a-6ba0-49a5-9756-17aee0dabcbf

> <covalent_frag>
FALSE

> <covalent_warhead>
TRUE

> <acrylamide>
FALSE

> <acrylamide_adduct>
FALSE

> <chloroacetamide>
TRUE

> <chloroacetamide_adduct>
FALSE

> <vinylsulfonamide>
FALSE

> <vinylsulfonamide_adduct>
FALSE

> <in_molport_or_mcule>
FALSE

> <in_emolecules>
FALSE

> <Hybrid2>
-8.814099

> <Mpro-x0195_dock>
-8.814099

> <Mpro-x0874_dock>
-7.900958

> <Mpro-x0305_dock>
-6.666873

> <Mpro-x0104_dock>
-5.212057

> <site>
active-noncovalent

> <covalent_distance_min>
6.5796046

> <covalent_distance_mean>
7.424308

> <covalent_distance_stderr>
0.06386774

$$$$
MIH-UNI-e57-10
  -OEChem-04062011563D

 37 39  0     1  0  0  0  0  0999 V2000
   14.7771   -1.4767   24.0928 C   0  0  0  0  0  0  0  0  0  0  0  0
   14.1053   -0.4369   24.7355 C   0  0  0  0  0  0  0  0  0  0  0  0
   14.1148   -2.2518   23.1408 C   0  0  0  0  0  0  0  0  0  0  0  0
   12.7711   -0.1722   24.4263 C   0  0  0  0  0  0  0  0  0  0  0  0
   12.7807   -1.9871   22.8316 C   0  0  0  0  0  0  0  0  0  0  0  0
    9.8723   -1.3493   25.4653 C   0  0  0  0  0  0  0  0  0  0  0  0
    8.9335   -1.9116   26.3310 C   0  0  0  0  0  0  0  0  0  0  0  0
    7.4703   -2.3329   24.4649 C   0  0  0  0  0  0  0  0  0  0  0  0
   12.1088   -0.9473   23.4743 C   0  0  0  0  0  0  0  0  0  0  0  0
    9.6366   -1.2940   24.0800 C   0  0  0  0  0  0  0  0  0  0  0  0
    8.4021   -1.7602   23.5838 C   0  0  0  0  0  0  0  0  0  0  0  0
    7.7366   -2.4112   25.8301 C   0  0  0  0  0  0  0  0  0  0  0  0
    8.6251   -0.0428   20.2627 C   0  0  0  0  0  0  0  0  0  0  0  0
    8.0435   -1.6717   22.1194 C   0  0  0  0  0  0  0  0  0  0  0  0
   10.3875   -1.0501   21.6718 C   0  0  0  0  0  0  0  0  0  0  0  0
   10.6526   -0.6591   23.1365 C   0  0  2  0  0  0  0  0  0  0  0  0
    7.4243   -0.4728   19.4573 C   0  0  0  0  0  0  0  0  0  0  0  0
    8.9798   -0.8606   21.3360 N   0  0  0  0  0  0  0  0  0  0  0  0
    9.2247    0.9885   19.9489 O   0  0  0  0  0  0  0  0  0  0  0  0
    6.8277   -2.9752   26.6706 O   0  0  0  0  0  0  0  0  0  0  0  0
    6.2363    0.8178   19.5977 Cl  0  0  0  0  0  0  0  0  0  0  0  0
   15.8163   -1.6818   24.3327 H   0  0  0  0  0  0  0  0  0  0  0  0
   14.6211    0.1674   25.4760 H   0  0  0  0  0  0  0  0  0  0  0  0
   14.6379   -3.0607   22.6394 H   0  0  0  0  0  0  0  0  0  0  0  0
   12.2556    0.6398   24.9323 H   0  0  0  0  0  0  0  0  0  0  0  0
   12.2727   -2.5963   22.0886 H   0  0  0  0  0  0  0  0  0  0  0  0
   10.7972   -0.9484   25.8784 H   0  0  0  0  0  0  0  0  0  0  0  0
    9.1451   -1.9546   27.3964 H   0  0  0  0  0  0  0  0  0  0  0  0
    6.5306   -2.7227   24.0780 H   0  0  0  0  0  0  0  0  0  0  0  0
    7.9957   -2.6815   21.7112 H   0  0  0  0  0  0  0  0  0  0  0  0
    7.0607   -1.2036   22.0183 H   0  0  0  0  0  0  0  0  0  0  0  0
   10.9591   -0.4011   21.0015 H   0  0  0  0  0  0  0  0  0  0  0  0
   10.7040   -2.0771   21.4818 H   0  0  0  0  0  0  0  0  0  0  0  0
   10.5355    0.4511   23.1887 H   0  0  0  0  0  0  0  0  0  0  0  0
    7.0298   -1.3900   19.8787 H   0  0  0  0  0  0  0  0  0  0  0  0
    7.7219   -0.5948   18.4225 H   0  0  0  0  0  0  0  0  0  0  0  0
    7.1562   -2.9554   27.5836 H   0  0  0  0  0  0  0  0  0  0  0  0
  1  2  1  0  0  0  0
  1  3  2  0  0  0  0
  2  4  2  0  0  0  0
  3  5  1  0  0  0  0
  4  9  1  0  0  0  0
  5  9  2  0  0  0  0
  6  7  2  0  0  0  0
  6 10  1  0  0  0  0
  7 12  1  0  0  0  0
  8 11  1  0  0  0  0
  8 12  2  0  0  0  0
  9 16  1  0  0  0  0
 10 11  2  0  0  0  0
 10 16  1  0  0  0  0
 11 14  1  0  0  0  0
 12 20  1  0  0  0  0
 13 17  1  0  0  0  0
 13 18  1  0  0  0  0
 13 19  2  0  0  0  0
 14 18  1  0  0  0  0
 15 16  1  0  0  0  0
 15 18  1  0  0  0  0
 17 21  1  0  0  0  0
  1 22  1  0  0  0  0
  2 23  1  0  0  0  0
  3 24  1  0  0  0  0
  4 25  1  0  0  0  0
  5 26  1  0  0  0  0
  6 27  1  0  0  0  0
  7 28  1  0  0  0  0
  8 29  1  0  0  0  0
 14 30  1  0  0  0  0
 14 31  1  0  0  0  0
 15 32  1  0  0  0  0
 15 33  1  0  0  0  0
 16 34  1  0  0  0  0
 17 35  1  0  0  0  0
 17 36  1  0  0  0  0
 20 37  1  0  0  0  0
M  END
> <creator>
Mihaela Smilova, University of Oxford

> <fragments>
x0678

> <real_space>
FALSE

> <SCR>
FALSE

> <BB>
FALSE

> <link>
https://covid.postera.ai/covid/submissions/e573136b-dbda-4fa9-8a0d-95e3d7d1615f

> <covalent_frag>
TRUE

> <covalent_warhead>
TRUE

> <acrylamide>
FALSE

> <acrylamide_adduct>
FALSE

> <chloroacetamide>
TRUE

> <chloroacetamide_adduct>
FALSE

> <vinylsulfonamide>
FALSE

> <vinylsulfonamide_adduct>
FALSE

> <in_molport_or_mcule>
FALSE

> <in_emolecules>
FALSE

> <Hybrid2>
-8.784090

> <Mpro-x0678_dock>
-8.78409

> <Mpro-x1093_dock>
-7.302723

> <Mpro-x0072_dock>
-6.750167

> <Mpro-x0874_dock>
-6.436066

> <Mpro-x0830_dock>
-6.292153

> <Mpro-x0104_dock>
-6.003575

> <Mpro-x0107_dock>
-5.115509

> <site>
active-noncovalent

> <covalent_distance_min>
3.3594432

> <covalent_distance_mean>
4.493172

> <covalent_distance_stderr>
0.09201337

$$$$
JOO-PER-58e-1
  -OEChem-04062011563D

 40 42  0     0  0  0  0  0  0999 V2000
    9.9943    0.0047   24.6570 C   0  0  0  0  0  0  0  0  0  0  0  0
   13.2494    1.1891   23.3397 C   0  0  0  0  0  0  0  0  0  0  0  0
   12.6327   -0.8290   22.1660 C   0  0  0  0  0  0  0  0  0  0  0  0
    9.7752    0.9991   25.5980 C   0  0  0  0  0  0  0  0  0  0  0  0
   11.7435    2.0611   25.0758 C   0  0  0  0  0  0  0  0  0  0  0  0
   11.1632    0.0584   23.8890 C   0  0  0  0  0  0  0  0  0  0  0  0
   12.0705    1.1172   24.1002 C   0  0  0  0  0  0  0  0  0  0  0  0
   11.4581   -0.9103   22.9158 C   0  0  0  0  0  0  0  0  0  0  0  0
   13.5264    0.2184   22.3774 C   0  0  0  0  0  0  0  0  0  0  0  0
    6.3426   -1.0160   19.1761 C   0  0  0  0  0  0  0  0  0  0  0  0
    7.0058   -2.2823   21.1955 C   0  0  0  0  0  0  0  0  0  0  0  0
    7.8131    0.0347   20.9654 C   0  0  0  0  0  0  0  0  0  0  0  0
    8.4105   -2.7600   21.5336 C   0  0  0  0  0  0  0  0  0  0  0  0
    9.2306   -0.4081   21.3021 C   0  0  0  0  0  0  0  0  0  0  0  0
   10.5379   -2.0627   22.6395 C   0  0  0  0  0  0  0  0  0  0  0  0
    6.4388    0.2695   18.3940 C   0  0  0  0  0  0  0  0  0  0  0  0
   10.6201    2.0268   25.8274 N   0  0  0  0  0  0  0  0  0  0  0  0
    7.0454   -1.0691   20.3790 N   0  0  0  0  0  0  0  0  0  0  0  0
    9.1703   -1.6299   22.1915 N   0  3  0  0  0  0  0  0  0  0  0  0
    5.6649   -1.9448   18.7286 O   0  0  0  0  0  0  0  0  0  0  0  0
   14.9735    0.3150   21.4506 Cl  0  0  0  0  0  0  0  0  0  0  0  0
    5.7707    1.5343   19.4195 Cl  0  0  0  0  0  0  0  0  0  0  0  0
    9.2579   -0.7842   24.5417 H   0  0  0  0  0  0  0  0  0  0  0  0
   13.9496    2.0066   23.5024 H   0  0  0  0  0  0  0  0  0  0  0  0
   12.8478   -1.5866   21.4153 H   0  0  0  0  0  0  0  0  0  0  0  0
    8.8803    0.9921   26.2118 H   0  0  0  0  0  0  0  0  0  0  0  0
   12.3985    2.9015   25.2887 H   0  0  0  0  0  0  0  0  0  0  0  0
    6.4628   -3.0802   20.6792 H   0  0  0  0  0  0  0  0  0  0  0  0
    6.4456   -2.0466   22.1085 H   0  0  0  0  0  0  0  0  0  0  0  0
    7.2834    0.3539   21.8712 H   0  0  0  0  0  0  0  0  0  0  0  0
    7.8572    0.8987   20.3001 H   0  0  0  0  0  0  0  0  0  0  0  0
    8.3754   -3.5890   22.2478 H   0  0  0  0  0  0  0  0  0  0  0  0
    8.9671   -3.0650   20.6403 H   0  0  0  0  0  0  0  0  0  0  0  0
    9.8019   -0.6723   20.4053 H   0  0  0  0  0  0  0  0  0  0  0  0
    9.7573    0.3742   21.8581 H   0  0  0  0  0  0  0  0  0  0  0  0
   10.9378   -2.7082   21.8501 H   0  0  0  0  0  0  0  0  0  0  0  0
   10.3957   -2.6786   23.5340 H   0  0  0  0  0  0  0  0  0  0  0  0
    5.8503    0.1749   17.4885 H   0  0  0  0  0  0  0  0  0  0  0  0
    7.4818    0.4744   18.1816 H   0  0  0  0  0  0  0  0  0  0  0  0
    8.6538   -1.3654   23.0418 H   0  0  0  0  0  0  0  0  0  0  0  0
  1  4  2  0  0  0  0
  1  6  1  0  0  0  0
  2  7  2  0  0  0  0
  2  9  1  0  0  0  0
  3  8  1  0  0  0  0
  3  9  2  0  0  0  0
  4 17  1  0  0  0  0
  5  7  1  0  0  0  0
  5 17  2  0  0  0  0
  6  7  1  0  0  0  0
  6  8  2  0  0  0  0
  8 15  1  0  0  0  0
  9 21  1  0  0  0  0
 10 16  1  0  0  0  0
 10 18  1  0  0  0  0
 10 20  2  0  0  0  0
 11 13  1  0  0  0  0
 11 18  1  0  0  0  0
 12 14  1  0  0  0  0
 12 18  1  0  0  0  0
 13 19  1  0  0  0  0
 14 19  1  0  0  0  0
 15 19  1  0  0  0  0
 16 22  1  0  0  0  0
  1 23  1  0  0  0  0
  2 24  1  0  0  0  0
  3 25  1  0  0  0  0
  4 26  1  0  0  0  0
  5 27  1  0  0  0  0
 11 28  1  0  0  0  0
 11 29  1  0  0  0  0
 12 30  1  0  0  0  0
 12 31  1  0  0  0  0
 13 32  1  0  0  0  0
 13 33  1  0  0  0  0
 14 34  1  0  0  0  0
 14 35  1  0  0  0  0
 15 36  1  0  0  0  0
 15 37  1  0  0  0  0
 16 38  1  0  0  0  0
 16 39  1  0  0  0  0
 19 40  1  0  0  0  0
M  CHG  1  19   1
M  END
> <creator>
Joost Uitdehaag, personal title

> <fragments>
x0830

> <real_space>
FALSE

> <SCR>
FALSE

> <BB>
FALSE

> <link>
https://covid.postera.ai/covid/submissions/58e158bd-bbfd-43c8-82de-6eb2e299edf7

> <covalent_frag>
TRUE

> <covalent_warhead>
TRUE

> <acrylamide>
FALSE

> <acrylamide_adduct>
FALSE

> <chloroacetamide>
TRUE

> <chloroacetamide_adduct>
FALSE

> <vinylsulfonamide>
FALSE

> <vinylsulfonamide_adduct>
FALSE

> <in_molport_or_mcule>
FALSE

> <in_emolecules>
FALSE

> <Hybrid2>
-8.757071

> <Mpro-x0830_dock>
-8.757071

> <site>
active-covalent

> <covalent_distance_min>
2.9611254

> <covalent_distance_mean>
3.3492098

> <covalent_distance_stderr>
0.008314352

$$$$
DAR-DIA-fb2-11
  -OEChem-04062011563D

 52 54  0     0  0  0  0  0  0999 V2000
   11.1922    0.5380   25.3096 C   0  0  0  0  0  0  0  0  0  0  0  0
    9.5401   -1.2320   25.1221 C   0  0  0  0  0  0  0  0  0  0  0  0
   12.5050    0.2024   21.9149 C   0  0  0  0  0  0  0  0  0  0  0  0
   11.5933    0.2927   23.9814 C   0  0  0  0  0  0  0  0  0  0  0  0
    9.9211   -1.4933   23.8029 C   0  0  0  0  0  0  0  0  0  0  0  0
   12.5719    0.8630   23.1199 C   0  0  0  0  0  0  0  0  0  0  0  0
   10.9499   -0.7153   23.2601 C   0  0  0  0  0  0  0  0  0  0  0  0
   10.1645   -0.2325   25.8657 C   0  0  0  0  0  0  0  0  0  0  0  0
    6.1129   -2.0675   19.0248 C   0  0  0  0  0  0  0  0  0  0  0  0
   11.6297    4.5474   24.4259 C   0  0  0  0  0  0  0  0  0  0  0  0
    7.2604   -3.4629   20.7135 C   0  0  0  0  0  0  0  0  0  0  0  0
    7.6381   -1.0241   20.7709 C   0  0  0  0  0  0  0  0  0  0  0  0
    7.0125   -3.4791   22.2148 C   0  0  0  0  0  0  0  0  0  0  0  0
    7.3978   -1.0073   22.2747 C   0  0  0  0  0  0  0  0  0  0  0  0
   10.2056    4.8918   24.7120 C   0  0  0  0  0  0  0  0  0  0  0  0
   13.4974    1.9658   23.4494 C   0  0  0  0  0  0  0  0  0  0  0  0
    9.2272   -2.5772   23.0317 C   0  0  0  0  0  0  0  0  0  0  0  0
    6.3553   -0.9127   18.0858 C   0  0  0  0  0  0  0  0  0  0  0  0
   13.1001    3.3221   22.8388 C   0  0  0  0  0  0  0  0  0  0  0  0
   11.5236   -0.7476   22.0091 N   0  0  0  0  0  0  0  0  0  0  0  0
    6.9486   -2.1541   20.1382 N   0  0  0  0  0  0  0  0  0  0  0  0
   11.8106    3.7657   23.2962 N   0  0  0  0  0  0  0  0  0  0  0  0
    7.7484   -2.3433   22.8869 N   0  3  0  0  0  0  0  0  0  0  0  0
    5.2061   -2.8661   18.7758 O   0  0  0  0  0  0  0  0  0  0  0  0
   12.5120    4.9581   25.1706 O   0  0  0  0  0  0  0  0  0  0  0  0
    9.7771   -0.0051   27.1283 F   0  0  0  0  0  0  0  0  0  0  0  0
    5.3287    0.4072   18.6352 Cl  0  0  0  0  0  0  0  0  0  0  0  0
   11.6686    1.3135   25.9025 H   0  0  0  0  0  0  0  0  0  0  0  0
    8.7448   -1.8131   25.5834 H   0  0  0  0  0  0  0  0  0  0  0  0
   13.0658    0.3221   20.9983 H   0  0  0  0  0  0  0  0  0  0  0  0
    8.3016   -3.7371   20.5121 H   0  0  0  0  0  0  0  0  0  0  0  0
    6.6280   -4.2037   20.2075 H   0  0  0  0  0  0  0  0  0  0  0  0
    7.2509   -0.1071   20.3084 H   0  0  0  0  0  0  0  0  0  0  0  0
    8.7134   -1.0456   20.5813 H   0  0  0  0  0  0  0  0  0  0  0  0
    5.9407   -3.3464   22.4307 H   0  0  0  0  0  0  0  0  0  0  0  0
    7.3529   -4.4206   22.6769 H   0  0  0  0  0  0  0  0  0  0  0  0
    8.0054   -0.2370   22.7779 H   0  0  0  0  0  0  0  0  0  0  0  0
    6.3351   -0.8175   22.4929 H   0  0  0  0  0  0  0  0  0  0  0  0
    9.7152    4.1479   25.3602 H   0  0  0  0  0  0  0  0  0  0  0  0
   10.1037    5.8523   25.2423 H   0  0  0  0  0  0  0  0  0  0  0  0
    9.5549    4.9791   23.8273 H   0  0  0  0  0  0  0  0  0  0  0  0
   14.5195    1.7220   23.0981 H   0  0  0  0  0  0  0  0  0  0  0  0
   13.6033    2.0891   24.5462 H   0  0  0  0  0  0  0  0  0  0  0  0
    9.6327   -2.6635   22.0179 H   0  0  0  0  0  0  0  0  0  0  0  0
    9.3454   -3.5494   23.5222 H   0  0  0  0  0  0  0  0  0  0  0  0
    6.0735   -1.2105   17.0823 H   0  0  0  0  0  0  0  0  0  0  0  0
    7.3982   -0.6234   18.1465 H   0  0  0  0  0  0  0  0  0  0  0  0
   13.8178    4.1015   23.1137 H   0  0  0  0  0  0  0  0  0  0  0  0
   13.0610    3.2641   21.7461 H   0  0  0  0  0  0  0  0  0  0  0  0
   11.2583   -1.3802   21.2668 H   0  0  0  0  0  0  0  0  0  0  0  0
   10.9877    3.4909   22.7620 H   0  0  0  0  0  0  0  0  0  0  0  0
    7.3747   -2.3085   23.8791 H   0  0  0  0  0  0  0  0  0  0  0  0
  1  4  1  0  0  0  0
  1  8  2  0  0  0  0
  2  5  2  0  0  0  0
  2  8  1  0  0  0  0
  3  6  2  0  0  0  0
  3 20  1  0  0  0  0
  4  6  1  0  0  0  0
  4  7  2  0  0  0  0
  5  7  1  0  0  0  0
  5 17  1  0  0  0  0
  6 16  1  0  0  0  0
  7 20  1  0  0  0  0
  8 26  1  0  0  0  0
  9 18  1  0  0  0  0
  9 21  1  0  0  0  0
  9 24  2  0  0  0  0
 10 15  1  0  0  0  0
 10 22  1  0  0  0  0
 10 25  2  0  0  0  0
 11 13  1  0  0  0  0
 11 21  1  0  0  0  0
 12 14  1  0  0  0  0
 12 21  1  0  0  0  0
 13 23  1  0  0  0  0
 14 23  1  0  0  0  0
 16 19  1  0  0  0  0
 17 23  1  0  0  0  0
 18 27  1  0  0  0  0
 19 22  1  0  0  0  0
  1 28  1  0  0  0  0
  2 29  1  0  0  0  0
  3 30  1  0  0  0  0
 11 31  1  0  0  0  0
 11 32  1  0  0  0  0
 12 33  1  0  0  0  0
 12 34  1  0  0  0  0
 13 35  1  0  0  0  0
 13 36  1  0  0  0  0
 14 37  1  0  0  0  0
 14 38  1  0  0  0  0
 15 39  1  0  0  0  0
 15 40  1  0  0  0  0
 15 41  1  0  0  0  0
 16 42  1  0  0  0  0
 16 43  1  0  0  0  0
 17 44  1  0  0  0  0
 17 45  1  0  0  0  0
 18 46  1  0  0  0  0
 18 47  1  0  0  0  0
 19 48  1  0  0  0  0
 19 49  1  0  0  0  0
 20 50  1  0  0  0  0
 22 51  1  0  0  0  0
 23 52  1  0  0  0  0
M  CHG  1  23   1
M  END
> <creator>
Daren Fearon, Diamond Light Source Ltd

> <fragments>
x0830

> <real_space>
FALSE

> <SCR>
FALSE

> <BB>
FALSE

> <link>
https://covid.postera.ai/covid/submissions/fb20be43-b2ad-4a19-a5ce-eb2fe8d462e2

> <covalent_frag>
TRUE

> <covalent_warhead>
TRUE

> <acrylamide>
FALSE

> <acrylamide_adduct>
FALSE

> <chloroacetamide>
TRUE

> <chloroacetamide_adduct>
FALSE

> <vinylsulfonamide>
FALSE

> <vinylsulfonamide_adduct>
FALSE

> <in_molport_or_mcule>
FALSE

> <in_emolecules>
FALSE

> <Hybrid2>
-8.730661

> <Mpro-x0830_dock>
-8.730661

> <Mpro-x0195_dock>
-7.057136

> <Mpro-x0104_dock>
-5.819488

> <Mpro-x0305_dock>
-3.255419

> <site>
active-covalent

> <covalent_distance_min>
3.0169952

> <covalent_distance_mean>
3.3553033

> <covalent_distance_stderr>
0.00983214

$$$$
JOO-PER-d7a-1
  -OEChem-04062011563D

 52 54  0     0  0  0  0  0  0999 V2000
   11.1922    0.5380   25.3096 C   0  0  0  0  0  0  0  0  0  0  0  0
    9.5401   -1.2320   25.1221 C   0  0  0  0  0  0  0  0  0  0  0  0
   12.5050    0.2024   21.9149 C   0  0  0  0  0  0  0  0  0  0  0  0
   11.5933    0.2927   23.9814 C   0  0  0  0  0  0  0  0  0  0  0  0
    9.9211   -1.4933   23.8029 C   0  0  0  0  0  0  0  0  0  0  0  0
   12.5719    0.8630   23.1199 C   0  0  0  0  0  0  0  0  0  0  0  0
   10.9499   -0.7153   23.2601 C   0  0  0  0  0  0  0  0  0  0  0  0
   10.1645   -0.2325   25.8657 C   0  0  0  0  0  0  0  0  0  0  0  0
    6.1129   -2.0675   19.0248 C   0  0  0  0  0  0  0  0  0  0  0  0
   11.6297    4.5474   24.4259 C   0  0  0  0  0  0  0  0  0  0  0  0
    7.2604   -3.4629   20.7135 C   0  0  0  0  0  0  0  0  0  0  0  0
    7.6381   -1.0241   20.7709 C   0  0  0  0  0  0  0  0  0  0  0  0
    7.0125   -3.4791   22.2148 C   0  0  0  0  0  0  0  0  0  0  0  0
    7.3978   -1.0073   22.2747 C   0  0  0  0  0  0  0  0  0  0  0  0
   10.2056    4.8918   24.7120 C   0  0  0  0  0  0  0  0  0  0  0  0
   13.4974    1.9658   23.4494 C   0  0  0  0  0  0  0  0  0  0  0  0
    9.2272   -2.5772   23.0317 C   0  0  0  0  0  0  0  0  0  0  0  0
    6.3553   -0.9127   18.0858 C   0  0  0  0  0  0  0  0  0  0  0  0
   13.1001    3.3221   22.8388 C   0  0  0  0  0  0  0  0  0  0  0  0
   11.5236   -0.7476   22.0091 N   0  0  0  0  0  0  0  0  0  0  0  0
    6.9486   -2.1541   20.1382 N   0  0  0  0  0  0  0  0  0  0  0  0
   11.8106    3.7657   23.2962 N   0  0  0  0  0  0  0  0  0  0  0  0
    7.7484   -2.3433   22.8869 N   0  3  0  0  0  0  0  0  0  0  0  0
    5.2061   -2.8661   18.7758 O   0  0  0  0  0  0  0  0  0  0  0  0
   12.5120    4.9581   25.1706 O   0  0  0  0  0  0  0  0  0  0  0  0
    9.7771   -0.0051   27.1283 F   0  0  0  0  0  0  0  0  0  0  0  0
    5.3287    0.4072   18.6352 Cl  0  0  0  0  0  0  0  0  0  0  0  0
   11.6686    1.3135   25.9025 H   0  0  0  0  0  0  0  0  0  0  0  0
    8.7448   -1.8131   25.5834 H   0  0  0  0  0  0  0  0  0  0  0  0
   13.0658    0.3221   20.9983 H   0  0  0  0  0  0  0  0  0  0  0  0
    8.3016   -3.7371   20.5121 H   0  0  0  0  0  0  0  0  0  0  0  0
    6.6280   -4.2037   20.2075 H   0  0  0  0  0  0  0  0  0  0  0  0
    7.2509   -0.1071   20.3084 H   0  0  0  0  0  0  0  0  0  0  0  0
    8.7134   -1.0456   20.5813 H   0  0  0  0  0  0  0  0  0  0  0  0
    5.9407   -3.3464   22.4307 H   0  0  0  0  0  0  0  0  0  0  0  0
    7.3529   -4.4206   22.6769 H   0  0  0  0  0  0  0  0  0  0  0  0
    8.0054   -0.2370   22.7779 H   0  0  0  0  0  0  0  0  0  0  0  0
    6.3351   -0.8175   22.4929 H   0  0  0  0  0  0  0  0  0  0  0  0
    9.7152    4.1479   25.3602 H   0  0  0  0  0  0  0  0  0  0  0  0
   10.1037    5.8523   25.2423 H   0  0  0  0  0  0  0  0  0  0  0  0
    9.5549    4.9791   23.8273 H   0  0  0  0  0  0  0  0  0  0  0  0
   14.5195    1.7220   23.0981 H   0  0  0  0  0  0  0  0  0  0  0  0
   13.6033    2.0891   24.5462 H   0  0  0  0  0  0  0  0  0  0  0  0
    9.6327   -2.6635   22.0179 H   0  0  0  0  0  0  0  0  0  0  0  0
    9.3454   -3.5494   23.5222 H   0  0  0  0  0  0  0  0  0  0  0  0
    6.0735   -1.2105   17.0823 H   0  0  0  0  0  0  0  0  0  0  0  0
    7.3982   -0.6234   18.1465 H   0  0  0  0  0  0  0  0  0  0  0  0
   13.8178    4.1015   23.1137 H   0  0  0  0  0  0  0  0  0  0  0  0
   13.0610    3.2641   21.7461 H   0  0  0  0  0  0  0  0  0  0  0  0
   11.2583   -1.3802   21.2668 H   0  0  0  0  0  0  0  0  0  0  0  0
   10.9877    3.4909   22.7620 H   0  0  0  0  0  0  0  0  0  0  0  0
    7.3747   -2.3085   23.8791 H   0  0  0  0  0  0  0  0  0  0  0  0
  1  4  1  0  0  0  0
  1  8  2  0  0  0  0
  2  5  2  0  0  0  0
  2  8  1  0  0  0  0
  3  6  2  0  0  0  0
  3 20  1  0  0  0  0
  4  6  1  0  0  0  0
  4  7  2  0  0  0  0
  5  7  1  0  0  0  0
  5 17  1  0  0  0  0
  6 16  1  0  0  0  0
  7 20  1  0  0  0  0
  8 26  1  0  0  0  0
  9 18  1  0  0  0  0
  9 21  1  0  0  0  0
  9 24  2  0  0  0  0
 10 15  1  0  0  0  0
 10 22  1  0  0  0  0
 10 25  2  0  0  0  0
 11 13  1  0  0  0  0
 11 21  1  0  0  0  0
 12 14  1  0  0  0  0
 12 21  1  0  0  0  0
 13 23  1  0  0  0  0
 14 23  1  0  0  0  0
 16 19  1  0  0  0  0
 17 23  1  0  0  0  0
 18 27  1  0  0  0  0
 19 22  1  0  0  0  0
  1 28  1  0  0  0  0
  2 29  1  0  0  0  0
  3 30  1  0  0  0  0
 11 31  1  0  0  0  0
 11 32  1  0  0  0  0
 12 33  1  0  0  0  0
 12 34  1  0  0  0  0
 13 35  1  0  0  0  0
 13 36  1  0  0  0  0
 14 37  1  0  0  0  0
 14 38  1  0  0  0  0
 15 39  1  0  0  0  0
 15 40  1  0  0  0  0
 15 41  1  0  0  0  0
 16 42  1  0  0  0  0
 16 43  1  0  0  0  0
 17 44  1  0  0  0  0
 17 45  1  0  0  0  0
 18 46  1  0  0  0  0
 18 47  1  0  0  0  0
 19 48  1  0  0  0  0
 19 49  1  0  0  0  0
 20 50  1  0  0  0  0
 22 51  1  0  0  0  0
 23 52  1  0  0  0  0
M  CHG  1  23   1
M  END
> <creator>
Joost Uitdehaag, personal title

> <fragments>
x0830

> <real_space>
FALSE

> <SCR>
FALSE

> <BB>
FALSE

> <link>
https://covid.postera.ai/covid/submissions/d7ab4f65-08d0-44da-a427-11831b4db220

> <covalent_frag>
TRUE

> <covalent_warhead>
TRUE

> <acrylamide>
FALSE

> <acrylamide_adduct>
FALSE

> <chloroacetamide>
TRUE

> <chloroacetamide_adduct>
FALSE

> <vinylsulfonamide>
FALSE

> <vinylsulfonamide_adduct>
FALSE

> <in_molport_or_mcule>
FALSE

> <in_emolecules>
FALSE

> <Hybrid2>
-8.730661

> <Mpro-x0830_dock>
-8.730661

> <Mpro-x0104_dock>
-5.819488

> <site>
active-covalent

> <covalent_distance_min>
2.8981667

> <covalent_distance_mean>
3.325523

> <covalent_distance_stderr>
0.015343493

$$$$
SEA-TRI-67e-1
  -OEChem-04062011563D

 62 65  0     0  0  0  0  0  0999 V2000
   10.4246    1.1816   26.3426 C   0  0  0  0  0  0  0  0  0  0  0  0
   11.5526    1.5645   25.6163 C   0  0  0  0  0  0  0  0  0  0  0  0
    9.6302    0.1309   25.8934 C   0  0  0  0  0  0  0  0  0  0  0  0
   13.0322    1.2713   23.6856 C   0  0  0  0  0  0  0  0  0  0  0  0
   12.5684   -0.4514   22.0593 C   0  0  0  0  0  0  0  0  0  0  0  0
   11.9004    0.8994   24.4293 C   0  0  0  0  0  0  0  0  0  0  0  0
   11.0925   -0.1691   23.9726 C   0  0  0  0  0  0  0  0  0  0  0  0
   11.4403   -0.8343   22.7855 C   0  0  0  0  0  0  0  0  0  0  0  0
    9.9607   -0.5410   24.7163 C   0  0  0  0  0  0  0  0  0  0  0  0
   13.3628    0.5994   22.5085 C   0  0  0  0  0  0  0  0  0  0  0  0
    6.0971   -1.2642   19.1466 C   0  0  0  0  0  0  0  0  0  0  0  0
    7.0063   -2.3864   21.1553 C   0  0  0  0  0  0  0  0  0  0  0  0
    7.7043   -0.0651   20.7109 C   0  0  0  0  0  0  0  0  0  0  0  0
    8.4540   -2.8018   21.3728 C   0  0  0  0  0  0  0  0  0  0  0  0
    9.1633   -0.4454   20.9237 C   0  0  0  0  0  0  0  0  0  0  0  0
    5.2207   -2.7559   24.6862 C   0  0  0  0  0  0  0  0  0  0  0  0
    6.8897   -4.4350   23.9157 C   0  0  0  0  0  0  0  0  0  0  0  0
    4.5755   -3.8664   25.4981 C   0  0  0  0  0  0  0  0  0  0  0  0
    6.1572   -5.4575   24.7682 C   0  0  0  0  0  0  0  0  0  0  0  0
   10.6572   -1.9776   22.2107 C   0  0  0  0  0  0  0  0  0  0  0  0
    6.0682   -0.0260   18.2865 C   0  0  0  0  0  0  0  0  0  0  0  0
    7.5381   -2.7600   25.6926 C   0  0  0  0  0  0  0  0  0  0  0  0
    8.9878   -2.6404   25.2657 C   0  0  0  0  0  0  0  0  0  0  0  0
    6.9201   -1.2241   20.2712 N   0  0  0  0  0  0  0  0  0  0  0  0
    9.2367   -1.6124   21.8828 N   0  3  0  0  0  0  0  0  0  0  0  0
    6.6882   -3.0517   24.4870 N   0  3  0  0  0  0  0  0  0  0  0  0
    5.4104   -2.2375   18.8255 O   0  0  0  0  0  0  0  0  0  0  0  0
    4.7705   -5.1305   24.8634 O   0  0  0  0  0  0  0  0  0  0  0  0
    9.1275   -1.5586   24.3491 O   0  0  0  0  0  0  0  0  0  0  0  0
   14.7542    1.0707   21.6115 Cl  0  0  0  0  0  0  0  0  0  0  0  0
    4.7547    0.9772   18.8918 Cl  0  0  0  0  0  0  0  0  0  0  0  0
   10.1668    1.7043   27.2591 H   0  0  0  0  0  0  0  0  0  0  0  0
   12.1589    2.3886   25.9865 H   0  0  0  0  0  0  0  0  0  0  0  0
    8.7535   -0.1597   26.4664 H   0  0  0  0  0  0  0  0  0  0  0  0
   13.6588    2.0925   24.0305 H   0  0  0  0  0  0  0  0  0  0  0  0
   12.8261   -0.9755   21.1413 H   0  0  0  0  0  0  0  0  0  0  0  0
    6.4420   -3.2294   20.7446 H   0  0  0  0  0  0  0  0  0  0  0  0
    6.5340   -2.1123   22.1066 H   0  0  0  0  0  0  0  0  0  0  0  0
    7.2586    0.2928   21.6470 H   0  0  0  0  0  0  0  0  0  0  0  0
    7.6502    0.7581   19.9964 H   0  0  0  0  0  0  0  0  0  0  0  0
    8.5209   -3.5868   22.1330 H   0  0  0  0  0  0  0  0  0  0  0  0
    8.9272   -3.1440   20.4456 H   0  0  0  0  0  0  0  0  0  0  0  0
    9.6494   -0.7467   19.9890 H   0  0  0  0  0  0  0  0  0  0  0  0
    9.7162    0.3840   21.3765 H   0  0  0  0  0  0  0  0  0  0  0  0
    4.7608   -2.6716   23.6918 H   0  0  0  0  0  0  0  0  0  0  0  0
    5.1570   -1.7887   25.2063 H   0  0  0  0  0  0  0  0  0  0  0  0
    7.9737   -4.6215   23.9065 H   0  0  0  0  0  0  0  0  0  0  0  0
    6.5070   -4.4280   22.8858 H   0  0  0  0  0  0  0  0  0  0  0  0
    5.0420   -3.9183   26.4872 H   0  0  0  0  0  0  0  0  0  0  0  0
    3.5037   -3.6892   25.6497 H   0  0  0  0  0  0  0  0  0  0  0  0
    6.2718   -6.4738   24.3722 H   0  0  0  0  0  0  0  0  0  0  0  0
    6.5677   -5.4526   25.7830 H   0  0  0  0  0  0  0  0  0  0  0  0
   11.1107   -2.3411   21.2823 H   0  0  0  0  0  0  0  0  0  0  0  0
   10.6121   -2.8181   22.9115 H   0  0  0  0  0  0  0  0  0  0  0  0
    5.8729   -0.3154   17.2602 H   0  0  0  0  0  0  0  0  0  0  0  0
    7.0128    0.4955   18.3894 H   0  0  0  0  0  0  0  0  0  0  0  0
    7.1565   -1.8288   26.1208 H   0  0  0  0  0  0  0  0  0  0  0  0
    7.3888   -3.5887   26.3897 H   0  0  0  0  0  0  0  0  0  0  0  0
    9.6154   -2.4279   26.1369 H   0  0  0  0  0  0  0  0  0  0  0  0
    9.3464   -3.5588   24.7896 H   0  0  0  0  0  0  0  0  0  0  0  0
    8.8005   -1.3122   22.7656 H   0  0  0  0  0  0  0  0  0  0  0  0
    7.0163   -2.3813   23.7360 H   0  0  0  0  0  0  0  0  0  0  0  0
  1  2  2  0  0  0  0
  1  3  1  0  0  0  0
  2  6  1  0  0  0  0
  3  9  2  0  0  0  0
  4  6  2  0  0  0  0
  4 10  1  0  0  0  0
  5  8  1  0  0  0  0
  5 10  2  0  0  0  0
  6  7  1  0  0  0  0
  7  8  2  0  0  0  0
  7  9  1  0  0  0  0
  8 20  1  0  0  0  0
  9 29  1  0  0  0  0
 10 30  1  0  0  0  0
 11 21  1  0  0  0  0
 11 24  1  0  0  0  0
 11 27  2  0  0  0  0
 12 14  1  0  0  0  0
 12 24  1  0  0  0  0
 13 15  1  0  0  0  0
 13 24  1  0  0  0  0
 14 25  1  0  0  0  0
 15 25  1  0  0  0  0
 16 18  1  0  0  0  0
 16 26  1  0  0  0  0
 17 19  1  0  0  0  0
 17 26  1  0  0  0  0
 18 28  1  0  0  0  0
 19 28  1  0  0  0  0
 20 25  1  0  0  0  0
 21 31  1  0  0  0  0
 22 23  1  0  0  0  0
 22 26  1  0  0  0  0
 23 29  1  0  0  0  0
  1 32  1  0  0  0  0
  2 33  1  0  0  0  0
  3 34  1  0  0  0  0
  4 35  1  0  0  0  0
  5 36  1  0  0  0  0
 12 37  1  0  0  0  0
 12 38  1  0  0  0  0
 13 39  1  0  0  0  0
 13 40  1  0  0  0  0
 14 41  1  0  0  0  0
 14 42  1  0  0  0  0
 15 43  1  0  0  0  0
 15 44  1  0  0  0  0
 16 45  1  0  0  0  0
 16 46  1  0  0  0  0
 17 47  1  0  0  0  0
 17 48  1  0  0  0  0
 18 49  1  0  0  0  0
 18 50  1  0  0  0  0
 19 51  1  0  0  0  0
 19 52  1  0  0  0  0
 20 53  1  0  0  0  0
 20 54  1  0  0  0  0
 21 55  1  0  0  0  0
 21 56  1  0  0  0  0
 22 57  1  0  0  0  0
 22 58  1  0  0  0  0
 23 59  1  0  0  0  0
 23 60  1  0  0  0  0
 25 61  1  0  0  0  0
 26 62  1  0  0  0  0
M  CHG  2  25   1  26   1
M  END
> <creator>
Sean McKenna, Trinity College Dublin

> <fragments>
x0830

> <real_space>
FALSE

> <SCR>
FALSE

> <BB>
FALSE

> <link>
https://covid.postera.ai/covid/submissions/67e8f1c7-b531-481c-85e3-32fe58a3f830

> <covalent_frag>
TRUE

> <covalent_warhead>
TRUE

> <acrylamide>
FALSE

> <acrylamide_adduct>
FALSE

> <chloroacetamide>
TRUE

> <chloroacetamide_adduct>
FALSE

> <vinylsulfonamide>
FALSE

> <vinylsulfonamide_adduct>
FALSE

> <in_molport_or_mcule>
FALSE

> <in_emolecules>
FALSE

> <Hybrid2>
-8.707362

> <Mpro-x0830_dock>
-8.707362

> <site>
active-covalent

> <covalent_distance_min>
3.4659412

> <covalent_distance_mean>
4.219892

> <covalent_distance_stderr>
0.042806957

$$$$
MIH-UNI-e57-8
  -OEChem-04062011563D

 41 43  0     0  0  0  0  0  0999 V2000
    7.9251   -5.0487   25.1917 C   0  0  0  0  0  0  0  0  0  0  0  0
    8.7796   -4.0713   25.6857 C   0  0  0  0  0  0  0  0  0  0  0  0
   12.7448   -0.3530   22.2428 C   0  0  0  0  0  0  0  0  0  0  0  0
    7.5537   -5.0244   23.8515 C   0  0  0  0  0  0  0  0  0  0  0  0
   12.7180    0.5151   23.3342 C   0  0  0  0  0  0  0  0  0  0  0  0
    9.2793   -3.0807   24.8356 C   0  0  0  0  0  0  0  0  0  0  0  0
   11.6649   -1.2019   22.0001 C   0  0  0  0  0  0  0  0  0  0  0  0
   10.5314   -0.3148   23.9404 C   0  0  0  0  0  0  0  0  0  0  0  0
    8.0396   -4.0230   22.9953 C   0  0  0  0  0  0  0  0  0  0  0  0
   11.6113    0.5342   24.1831 C   0  0  0  0  0  0  0  0  0  0  0  0
   10.5583   -1.1828   22.8489 C   0  0  0  0  0  0  0  0  0  0  0  0
    8.9490   -3.0485   23.4668 C   0  0  0  0  0  0  0  0  0  0  0  0
    6.7576   -2.0752   20.2720 C   0  0  0  0  0  0  0  0  0  0  0  0
    7.5892   -4.0145   21.5593 C   0  0  0  0  0  0  0  0  0  0  0  0
    9.1385   -2.1567   21.1652 C   0  0  0  0  0  0  0  0  0  0  0  0
   11.5833    1.4619   25.3503 C   0  0  0  0  0  0  0  0  0  0  0  0
    6.7329   -0.5677   20.3004 C   0  0  0  0  0  0  0  0  0  0  0  0
    9.4594   -2.0464   22.6017 N   0  0  0  0  0  0  0  0  0  0  0  0
    7.7924   -2.6974   20.9692 N   0  0  0  0  0  0  0  0  0  0  0  0
   10.9917    2.7915   25.0346 N   0  3  0  0  0  0  0  0  0  0  0  0
    5.8803   -2.6804   19.6504 O   0  0  0  0  0  0  0  0  0  0  0  0
    7.7137   -0.0234   18.9446 Cl  0  0  0  0  0  0  0  0  0  0  0  0
    7.5514   -5.8294   25.8473 H   0  0  0  0  0  0  0  0  0  0  0  0
    9.0626   -4.0767   26.7346 H   0  0  0  0  0  0  0  0  0  0  0  0
   13.6067   -0.3678   21.5817 H   0  0  0  0  0  0  0  0  0  0  0  0
    6.8795   -5.7882   23.4731 H   0  0  0  0  0  0  0  0  0  0  0  0
   13.5639    1.1732   23.5157 H   0  0  0  0  0  0  0  0  0  0  0  0
    9.9358   -2.3265   25.2654 H   0  0  0  0  0  0  0  0  0  0  0  0
   11.6962   -1.8742   21.1465 H   0  0  0  0  0  0  0  0  0  0  0  0
    9.6691   -0.2984   24.6031 H   0  0  0  0  0  0  0  0  0  0  0  0
    8.1860   -4.7197   20.9857 H   0  0  0  0  0  0  0  0  0  0  0  0
    6.5428   -4.2933   21.5128 H   0  0  0  0  0  0  0  0  0  0  0  0
    9.2177   -1.1761   20.6781 H   0  0  0  0  0  0  0  0  0  0  0  0
    9.8513   -2.8263   20.6630 H   0  0  0  0  0  0  0  0  0  0  0  0
   10.9918    1.0511   26.1800 H   0  0  0  0  0  0  0  0  0  0  0  0
   12.5933    1.6580   25.7356 H   0  0  0  0  0  0  0  0  0  0  0  0
    7.1659   -0.2278   21.2339 H   0  0  0  0  0  0  0  0  0  0  0  0
    5.7099   -0.2318   20.1793 H   0  0  0  0  0  0  0  0  0  0  0  0
   11.4450    3.5279   25.5822 H   0  0  0  0  0  0  0  0  0  0  0  0
    9.9909    2.8015   25.2502 H   0  0  0  0  0  0  0  0  0  0  0  0
   11.1081    3.0122   24.0418 H   0  0  0  0  0  0  0  0  0  0  0  0
  1  2  1  0  0  0  0
  1  4  2  0  0  0  0
  2  6  2  0  0  0  0
  3  5  2  0  0  0  0
  3  7  1  0  0  0  0
  4  9  1  0  0  0  0
  5 10  1  0  0  0  0
  6 12  1  0  0  0  0
  7 11  2  0  0  0  0
  8 10  2  0  0  0  0
  8 11  1  0  0  0  0
  9 12  2  0  0  0  0
  9 14  1  0  0  0  0
 10 16  1  0  0  0  0
 11 18  1  0  0  0  0
 12 18  1  0  0  0  0
 13 17  1  0  0  0  0
 13 19  1  0  0  0  0
 13 21  2  0  0  0  0
 14 19  1  0  0  0  0
 15 18  1  0  0  0  0
 15 19  1  0  0  0  0
 16 20  1  0  0  0  0
 17 22  1  0  0  0  0
  1 23  1  0  0  0  0
  2 24  1  0  0  0  0
  3 25  1  0  0  0  0
  4 26  1  0  0  0  0
  5 27  1  0  0  0  0
  6 28  1  0  0  0  0
  7 29  1  0  0  0  0
  8 30  1  0  0  0  0
 14 31  1  0  0  0  0
 14 32  1  0  0  0  0
 15 33  1  0  0  0  0
 15 34  1  0  0  0  0
 16 35  1  0  0  0  0
 16 36  1  0  0  0  0
 17 37  1  0  0  0  0
 17 38  1  0  0  0  0
 20 39  1  0  0  0  0
 20 40  1  0  0  0  0
 20 41  1  0  0  0  0
M  CHG  1  20   1
M  END
> <creator>
Mihaela Smilova, University of Oxford

> <fragments>
x0830

> <real_space>
FALSE

> <SCR>
FALSE

> <BB>
FALSE

> <link>
https://covid.postera.ai/covid/submissions/e573136b-dbda-4fa9-8a0d-95e3d7d1615f

> <covalent_frag>
TRUE

> <covalent_warhead>
TRUE

> <acrylamide>
FALSE

> <acrylamide_adduct>
FALSE

> <chloroacetamide>
TRUE

> <chloroacetamide_adduct>
FALSE

> <vinylsulfonamide>
FALSE

> <vinylsulfonamide_adduct>
FALSE

> <in_molport_or_mcule>
FALSE

> <in_emolecules>
FALSE

> <Hybrid2>
-8.688944

> <Mpro-x0830_dock>
-8.688944

> <Mpro-x0072_dock>
-8.356691

> <Mpro-x0678_dock>
-8.336986

> <Mpro-x1093_dock>
-8.065806

> <Mpro-x0874_dock>
-7.595339

> <Mpro-x0104_dock>
-6.574142

> <Mpro-x0107_dock>
-4.684079

> <site>
active-covalent

> <covalent_distance_min>
2.9612188

> <covalent_distance_mean>
3.4416418

> <covalent_distance_stderr>
0.032897107

$$$$
DAR-DIA-fb2-7
  -OEChem-04062011563D

 45 47  0     0  0  0  0  0  0999 V2000
   13.6009    0.2571   22.3726 C   0  0  0  0  0  0  0  0  0  0  0  0
   12.9119   -0.8634   21.9181 C   0  0  0  0  0  0  0  0  0  0  0  0
   13.1112    0.9859   23.4568 C   0  0  0  0  0  0  0  0  0  0  0  0
   11.7306   -1.2594   22.5459 C   0  0  0  0  0  0  0  0  0  0  0  0
   11.4163    1.3236   25.1935 C   0  0  0  0  0  0  0  0  0  0  0  0
    9.5460   -0.1928   25.3667 C   0  0  0  0  0  0  0  0  0  0  0  0
   11.9237    0.6018   24.1008 C   0  0  0  0  0  0  0  0  0  0  0  0
   11.2231   -0.5376   23.6385 C   0  0  0  0  0  0  0  0  0  0  0  0
   10.0356   -0.9217   24.2825 C   0  0  0  0  0  0  0  0  0  0  0  0
   10.2350    0.9277   25.8213 C   0  0  0  0  0  0  0  0  0  0  0  0
    6.9650   -1.5156   19.3243 C   0  0  0  0  0  0  0  0  0  0  0  0
    7.6689   -2.9344   21.2236 C   0  0  0  0  0  0  0  0  0  0  0  0
    8.2260   -0.5307   21.3001 C   0  0  0  0  0  0  0  0  0  0  0  0
    7.1512   -2.8794   22.6534 C   0  0  0  0  0  0  0  0  0  0  0  0
    7.7180   -0.4434   22.7331 C   0  0  0  0  0  0  0  0  0  0  0  0
    8.5450    1.1785   27.4757 C   0  0  0  0  0  0  0  0  0  0  0  0
    9.2457   -2.1203   23.8461 C   0  0  0  0  0  0  0  0  0  0  0  0
    7.4671   -0.4159   18.4229 C   0  0  0  0  0  0  0  0  0  0  0  0
    7.5741   -1.6265   20.5742 N   0  0  0  0  0  0  0  0  0  0  0  0
    7.8419   -1.7800   23.4265 N   0  3  0  0  0  0  0  0  0  0  0  0
    6.0571   -2.2512   18.9287 O   0  0  0  0  0  0  0  0  0  0  0  0
    9.7575    1.6375   26.8800 O   0  0  0  0  0  0  0  0  0  0  0  0
    6.4679    0.9964   18.7467 Cl  0  0  0  0  0  0  0  0  0  0  0  0
   14.5200    0.5653   21.8830 H   0  0  0  0  0  0  0  0  0  0  0  0
   13.2946   -1.4303   21.0742 H   0  0  0  0  0  0  0  0  0  0  0  0
   13.6663    1.8586   23.7947 H   0  0  0  0  0  0  0  0  0  0  0  0
   11.2220   -2.1406   22.1623 H   0  0  0  0  0  0  0  0  0  0  0  0
   11.9434    2.2016   25.5625 H   0  0  0  0  0  0  0  0  0  0  0  0
    8.6255   -0.4965   25.8598 H   0  0  0  0  0  0  0  0  0  0  0  0
    8.7037   -3.2936   21.2232 H   0  0  0  0  0  0  0  0  0  0  0  0
    7.0813   -3.6422   20.6249 H   0  0  0  0  0  0  0  0  0  0  0  0
    8.0052    0.3963   20.7556 H   0  0  0  0  0  0  0  0  0  0  0  0
    9.3126   -0.6404   21.3124 H   0  0  0  0  0  0  0  0  0  0  0  0
    6.0724   -2.6584   22.6653 H   0  0  0  0  0  0  0  0  0  0  0  0
    7.3244   -3.8273   23.1894 H   0  0  0  0  0  0  0  0  0  0  0  0
    8.2841    0.2957   23.3240 H   0  0  0  0  0  0  0  0  0  0  0  0
    6.6522   -0.1660   22.7479 H   0  0  0  0  0  0  0  0  0  0  0  0
    8.2763    1.8335   28.3080 H   0  0  0  0  0  0  0  0  0  0  0  0
    8.6784    0.1541   27.8326 H   0  0  0  0  0  0  0  0  0  0  0  0
    7.7503    1.2006   26.7263 H   0  0  0  0  0  0  0  0  0  0  0  0
    9.7181   -2.6159   22.9912 H   0  0  0  0  0  0  0  0  0  0  0  0
    9.1632   -2.8552   24.6541 H   0  0  0  0  0  0  0  0  0  0  0  0
    7.3496   -0.7262   17.3909 H   0  0  0  0  0  0  0  0  0  0  0  0
    8.5014   -0.2046   18.6689 H   0  0  0  0  0  0  0  0  0  0  0  0
    7.2978   -1.6824   24.3319 H   0  0  0  0  0  0  0  0  0  0  0  0
  1  2  1  0  0  0  0
  1  3  2  0  0  0  0
  2  4  2  0  0  0  0
  3  7  1  0  0  0  0
  4  8  1  0  0  0  0
  5  7  1  0  0  0  0
  5 10  2  0  0  0  0
  6  9  2  0  0  0  0
  6 10  1  0  0  0  0
  7  8  2  0  0  0  0
  8  9  1  0  0  0  0
  9 17  1  0  0  0  0
 10 22  1  0  0  0  0
 11 18  1  0  0  0  0
 11 19  1  0  0  0  0
 11 21  2  0  0  0  0
 12 14  1  0  0  0  0
 12 19  1  0  0  0  0
 13 15  1  0  0  0  0
 13 19  1  0  0  0  0
 14 20  1  0  0  0  0
 15 20  1  0  0  0  0
 16 22  1  0  0  0  0
 17 20  1  0  0  0  0
 18 23  1  0  0  0  0
  1 24  1  0  0  0  0
  2 25  1  0  0  0  0
  3 26  1  0  0  0  0
  4 27  1  0  0  0  0
  5 28  1  0  0  0  0
  6 29  1  0  0  0  0
 12 30  1  0  0  0  0
 12 31  1  0  0  0  0
 13 32  1  0  0  0  0
 13 33  1  0  0  0  0
 14 34  1  0  0  0  0
 14 35  1  0  0  0  0
 15 36  1  0  0  0  0
 15 37  1  0  0  0  0
 16 38  1  0  0  0  0
 16 39  1  0  0  0  0
 16 40  1  0  0  0  0
 17 41  1  0  0  0  0
 17 42  1  0  0  0  0
 18 43  1  0  0  0  0
 18 44  1  0  0  0  0
 20 45  1  0  0  0  0
M  CHG  1  20   1
M  END
> <creator>
Daren Fearon, Diamond Light Source Ltd

> <fragments>
x0830

> <real_space>
FALSE

> <SCR>
FALSE

> <BB>
FALSE

> <link>
https://covid.postera.ai/covid/submissions/fb20be43-b2ad-4a19-a5ce-eb2fe8d462e2

> <covalent_frag>
TRUE

> <covalent_warhead>
TRUE

> <acrylamide>
FALSE

> <acrylamide_adduct>
FALSE

> <chloroacetamide>
TRUE

> <chloroacetamide_adduct>
FALSE

> <vinylsulfonamide>
FALSE

> <vinylsulfonamide_adduct>
FALSE

> <in_molport_or_mcule>
FALSE

> <in_emolecules>
FALSE

> <Hybrid2>
-8.680429

> <Mpro-x0830_dock>
-8.680429

> <Mpro-x0195_dock>
-7.416825

> <Mpro-x0104_dock>
-6.469866

> <Mpro-x0305_dock>
-3.477756

> <site>
active-covalent

> <covalent_distance_min>
2.9751043

> <covalent_distance_mean>
3.3644278

> <covalent_distance_stderr>
0.014684999

$$$$
HAR-NEW-e34-5
  -OEChem-04062011563D

 50 52  0     1  0  0  0  0  0999 V2000
   13.9348    2.2823   22.5295 C   0  0  0  0  0  0  0  0  0  0  0  0
   13.4273    3.5497   22.7901 C   0  0  0  0  0  0  0  0  0  0  0  0
   11.4477    2.5372   23.7318 C   0  0  0  0  0  0  0  0  0  0  0  0
   13.1950    1.1331   22.8594 C   0  0  0  0  0  0  0  0  0  0  0  0
   11.9336    1.2352   23.4921 C   0  0  0  0  0  0  0  0  0  0  0  0
   12.1812    3.6770   23.3871 C   0  0  0  0  0  0  0  0  0  0  0  0
   10.6384   -2.2001   23.2536 C   0  0  0  0  0  0  0  0  0  0  0  0
    6.7572   -0.5111   19.7055 C   0  0  0  0  0  0  0  0  0  0  0  0
   13.8004   -0.2158   22.5725 C   0  0  0  0  0  0  0  0  0  0  0  0
   12.7012   -1.2443   22.3764 C   0  0  0  0  0  0  0  0  0  0  0  0
    9.9681   -0.6664   21.3371 C   0  0  0  0  0  0  0  0  0  0  0  0
    8.7583   -2.7778   21.7505 C   0  0  0  0  0  0  0  0  0  0  0  0
    8.6359    0.0678   21.2102 C   0  0  0  0  0  0  0  0  0  0  0  0
    7.4263   -2.0435   21.6236 C   0  0  0  0  0  0  0  0  0  0  0  0
   11.7576   -1.2428   23.5762 C   0  0  1  0  0  0  0  0  0  0  0  0
   10.1214    0.2183   24.8184 C   0  0  0  0  0  0  0  0  0  0  0  0
    7.0352    0.8105   19.0351 C   0  0  0  0  0  0  0  0  0  0  0  0
   11.2050    0.0916   23.8450 N   0  0  1  0  0  0  0  0  0  0  0  0
    9.8219   -1.8640   22.1751 N   0  0  0  0  0  0  0  0  0  0  0  0
    7.5727   -0.8463   20.7850 N   0  0  0  0  0  0  0  0  0  0  0  0
   10.6784    5.5621   22.2499 N   0  0  0  0  0  0  0  0  0  0  0  0
   10.4937   -3.2136   23.9420 O   0  0  0  0  0  0  0  0  0  0  0  0
    5.8413   -1.2214   19.2831 O   0  0  0  0  0  0  0  0  0  0  0  0
   10.5650    5.1552   24.7930 O   0  0  0  0  0  0  0  0  0  0  0  0
   12.6288    6.2089   23.8038 O   0  0  0  0  0  0  0  0  0  0  0  0
   11.5251    5.2643   23.7037 S   0  0  0  0  0  0  0  0  0  0  0  0
    5.8930    0.9500   17.7033 Cl  0  0  0  0  0  0  0  0  0  0  0  0
   14.9150    2.1889   22.0688 H   0  0  0  0  0  0  0  0  0  0  0  0
   14.0104    4.4267   22.5239 H   0  0  0  0  0  0  0  0  0  0  0  0
   10.4739    2.6852   24.1939 H   0  0  0  0  0  0  0  0  0  0  0  0
   14.4200   -0.1392   21.6770 H   0  0  0  0  0  0  0  0  0  0  0  0
   14.4357   -0.5304   23.4023 H   0  0  0  0  0  0  0  0  0  0  0  0
   12.1557   -1.0231   21.4577 H   0  0  0  0  0  0  0  0  0  0  0  0
   13.1393   -2.2394   22.2682 H   0  0  0  0  0  0  0  0  0  0  0  0
   10.3166   -1.0001   20.3523 H   0  0  0  0  0  0  0  0  0  0  0  0
   10.7207    0.0181   21.7322 H   0  0  0  0  0  0  0  0  0  0  0  0
    8.6560   -3.6086   22.4557 H   0  0  0  0  0  0  0  0  0  0  0  0
    9.0567   -3.2021   20.7844 H   0  0  0  0  0  0  0  0  0  0  0  0
    8.3373    0.4914   22.1767 H   0  0  0  0  0  0  0  0  0  0  0  0
    8.7380    0.8988   20.5053 H   0  0  0  0  0  0  0  0  0  0  0  0
    6.6732   -2.7278   21.2291 H   0  0  0  0  0  0  0  0  0  0  0  0
    7.0784   -1.7091   22.6082 H   0  0  0  0  0  0  0  0  0  0  0  0
   12.2848   -1.6386   24.4230 H   0  0  0  0  0  0  0  0  0  0  0  0
    9.6568   -0.7655   24.9808 H   0  0  0  0  0  0  0  0  0  0  0  0
   10.5255    0.5944   25.7698 H   0  0  0  0  0  0  0  0  0  0  0  0
    9.3665    0.9216   24.4370 H   0  0  0  0  0  0  0  0  0  0  0  0
    8.0506    0.8053   18.6555 H   0  0  0  0  0  0  0  0  0  0  0  0
    6.8725    1.6085   19.7504 H   0  0  0  0  0  0  0  0  0  0  0  0
    9.6517    5.5428   22.2777 H   0  0  0  0  0  0  0  0  0  0  0  0
   11.0631    6.2609   21.6026 H   0  0  0  0  0  0  0  0  0  0  0  0
  1  2  2  0  0  0  0
  1  4  1  0  0  0  0
  2  6  1  0  0  0  0
  3  5  1  0  0  0  0
  3  6  2  0  0  0  0
  4  5  2  0  0  0  0
  4  9  1  0  0  0  0
  5 18  1  0  0  0  0
  6 26  1  0  0  0  0
  7 15  1  0  0  0  0
  7 19  1  0  0  0  0
  7 22  2  0  0  0  0
  8 17  1  0  0  0  0
  8 20  1  0  0  0  0
  8 23  2  0  0  0  0
  9 10  1  0  0  0  0
 10 15  1  0  0  0  0
 11 13  1  0  0  0  0
 11 19  1  0  0  0  0
 12 14  1  0  0  0  0
 12 19  1  0  0  0  0
 13 20  1  0  0  0  0
 14 20  1  0  0  0  0
 15 18  1  0  0  0  0
 16 18  1  0  0  0  0
 17 27  1  0  0  0  0
 21 26  1  0  0  0  0
 24 26  2  0  0  0  0
 25 26  2  0  0  0  0
  1 28  1  0  0  0  0
  2 29  1  0  0  0  0
  3 30  1  0  0  0  0
  9 31  1  0  0  0  0
  9 32  1  0  0  0  0
 10 33  1  0  0  0  0
 10 34  1  0  0  0  0
 11 35  1  0  0  0  0
 11 36  1  0  0  0  0
 12 37  1  0  0  0  0
 12 38  1  0  0  0  0
 13 39  1  0  0  0  0
 13 40  1  0  0  0  0
 14 41  1  0  0  0  0
 14 42  1  0  0  0  0
 15 43  1  0  0  0  0
 16 44  1  0  0  0  0
 16 45  1  0  0  0  0
 16 46  1  0  0  0  0
 17 47  1  0  0  0  0
 17 48  1  0  0  0  0
 21 49  1  0  0  0  0
 21 50  1  0  0  0  0
M  END
> <creator>
Harriet Stanway-Gordon, Newcastle University

> <fragments>
x0195

> <real_space>
FALSE

> <SCR>
FALSE

> <BB>
FALSE

> <link>
https://covid.postera.ai/covid/submissions/e34cb1ae-7424-4530-aee8-e1d47270a6ea

> <covalent_frag>
FALSE

> <covalent_warhead>
TRUE

> <acrylamide>
FALSE

> <acrylamide_adduct>
FALSE

> <chloroacetamide>
TRUE

> <chloroacetamide_adduct>
FALSE

> <vinylsulfonamide>
FALSE

> <vinylsulfonamide_adduct>
FALSE

> <in_molport_or_mcule>
FALSE

> <in_emolecules>
FALSE

> <Hybrid2>
-8.626937

> <Mpro-x0195_dock>
-8.626937

> <Mpro-x0107_dock>
-4.847564

> <Mpro-x0387_dock>
-4.306353

> <Mpro-x0305_dock>
-3.027715

> <site>
active-noncovalent

> <covalent_distance_min>
3.7512896

> <covalent_distance_mean>
4.903752

> <covalent_distance_stderr>
0.071606316

$$$$
ANT-OPE-d97-1
  -OEChem-04062011563D

 36 37  0     0  0  0  0  0  0999 V2000
   11.6197   -1.4067   22.1842 C   0  0  0  0  0  0  0  0  0  0  0  0
   10.7124   -0.8439   24.3515 C   0  0  0  0  0  0  0  0  0  0  0  0
   12.5785   -0.4035   22.3250 C   0  0  0  0  0  0  0  0  0  0  0  0
   11.6712    0.1592   24.4924 C   0  0  0  0  0  0  0  0  0  0  0  0
   10.6865   -1.6269   23.1974 C   0  0  0  0  0  0  0  0  0  0  0  0
   12.6043    0.3794   23.4791 C   0  0  0  0  0  0  0  0  0  0  0  0
    5.6576    0.4304   18.4431 C   0  0  0  0  0  0  0  0  0  0  0  0
    6.0276   -0.8085   18.1118 C   0  0  0  0  0  0  0  0  0  0  0  0
    5.8298   -1.8974   19.0894 C   0  0  0  0  0  0  0  0  0  0  0  0
    7.3489   -0.6917   20.7514 C   0  0  0  0  0  0  0  0  0  0  0  0
    6.2436   -2.8186   21.3369 C   0  0  0  0  0  0  0  0  0  0  0  0
    8.6684   -1.2172   21.3043 C   0  0  0  0  0  0  0  0  0  0  0  0
    7.5520   -3.3718   21.8791 C   0  0  0  0  0  0  0  0  0  0  0  0
    9.6554   -2.7063   23.0468 C   0  0  0  0  0  0  0  0  0  0  0  0
    6.4740   -1.7908   20.3196 N   0  0  0  0  0  0  0  0  0  0  0  0
    8.3906   -2.2253   22.3933 N   0  3  0  0  0  0  0  0  0  0  0  0
    5.1013   -2.8343   18.7580 O   0  0  0  0  0  0  0  0  0  0  0  0
   13.5267    1.3411   23.6157 F   0  0  0  0  0  0  0  0  0  0  0  0
   11.6070   -2.0112   21.2810 H   0  0  0  0  0  0  0  0  0  0  0  0
    9.9895   -1.0085   25.1463 H   0  0  0  0  0  0  0  0  0  0  0  0
   13.3053   -0.2325   21.5367 H   0  0  0  0  0  0  0  0  0  0  0  0
   11.6914    0.7693   25.3905 H   0  0  0  0  0  0  0  0  0  0  0  0
    5.7776    1.2710   17.7680 H   0  0  0  0  0  0  0  0  0  0  0  0
    5.2195    0.6256   19.4162 H   0  0  0  0  0  0  0  0  0  0  0  0
    6.4676   -1.0426   17.1513 H   0  0  0  0  0  0  0  0  0  0  0  0
    6.8060   -0.1236   21.5161 H   0  0  0  0  0  0  0  0  0  0  0  0
    7.5755   -0.0077   19.9326 H   0  0  0  0  0  0  0  0  0  0  0  0
    5.6402   -3.6378   20.9331 H   0  0  0  0  0  0  0  0  0  0  0  0
    5.6581   -2.3556   22.1407 H   0  0  0  0  0  0  0  0  0  0  0  0
    9.2666   -1.7128   20.5314 H   0  0  0  0  0  0  0  0  0  0  0  0
    9.2487   -0.4039   21.7523 H   0  0  0  0  0  0  0  0  0  0  0  0
    7.3665   -4.0450   22.7223 H   0  0  0  0  0  0  0  0  0  0  0  0
    8.1295   -3.8954   21.1091 H   0  0  0  0  0  0  0  0  0  0  0  0
   10.0325   -3.5313   22.4330 H   0  0  0  0  0  0  0  0  0  0  0  0
    9.3693   -3.1185   24.0205 H   0  0  0  0  0  0  0  0  0  0  0  0
    7.8459   -1.7476   23.1246 H   0  0  0  0  0  0  0  0  0  0  0  0
  1  3  2  0  0  0  0
  1  5  1  0  0  0  0
  2  4  1  0  0  0  0
  2  5  2  0  0  0  0
  3  6  1  0  0  0  0
  4  6  2  0  0  0  0
  5 14  1  0  0  0  0
  6 18  1  0  0  0  0
  7  8  2  0  0  0  0
  8  9  1  0  0  0  0
  9 15  1  0  0  0  0
  9 17  2  0  0  0  0
 10 12  1  0  0  0  0
 10 15  1  0  0  0  0
 11 13  1  0  0  0  0
 11 15  1  0  0  0  0
 12 16  1  0  0  0  0
 13 16  1  0  0  0  0
 14 16  1  0  0  0  0
  1 19  1  0  0  0  0
  2 20  1  0  0  0  0
  3 21  1  0  0  0  0
  4 22  1  0  0  0  0
  7 23  1  0  0  0  0
  7 24  1  0  0  0  0
  8 25  1  0  0  0  0
 10 26  1  0  0  0  0
 10 27  1  0  0  0  0
 11 28  1  0  0  0  0
 11 29  1  0  0  0  0
 12 30  1  0  0  0  0
 12 31  1  0  0  0  0
 13 32  1  0  0  0  0
 13 33  1  0  0  0  0
 14 34  1  0  0  0  0
 14 35  1  0  0  0  0
 16 36  1  0  0  0  0
M  CHG  1  16   1
M  END
> <creator>
Anthony Sama, OpenSourceMycetoma

> <fragments>
x0831

> <real_space>
FALSE

> <SCR>
FALSE

> <BB>
FALSE

> <link>
https://covid.postera.ai/covid/submissions/d972fbad-2991-4d72-9283-f006692922d5

> <covalent_frag>
TRUE

> <covalent_warhead>
TRUE

> <acrylamide>
TRUE

> <acrylamide_adduct>
FALSE

> <chloroacetamide>
FALSE

> <chloroacetamide_adduct>
FALSE

> <vinylsulfonamide>
FALSE

> <vinylsulfonamide_adduct>
FALSE

> <in_molport_or_mcule>
TRUE

> <in_emolecules>
TRUE

> <Hybrid2>
-8.579416

> <Mpro-x0831_dock>
-8.579416

> <site>
active-covalent

> <covalent_distance_min>
5.436237

> <covalent_distance_mean>
7.1347046

> <covalent_distance_stderr>
0.14070845

$$$$
MAK-UNK-af8-6
  -OEChem-04062011563D

 38 39  0     0  0  0  0  0  0999 V2000
   12.0390   -2.4304   23.3221 C   0  0  0  0  0  0  0  0  0  0  0  0
   12.9207   -2.8969   24.2971 C   0  0  0  0  0  0  0  0  0  0  0  0
   12.1579   -1.1267   22.8406 C   0  0  0  0  0  0  0  0  0  0  0  0
   14.0399   -0.7558   24.3093 C   0  0  0  0  0  0  0  0  0  0  0  0
   13.9211   -2.0596   24.7908 C   0  0  0  0  0  0  0  0  0  0  0  0
   13.1583   -0.2894   23.3342 C   0  0  0  0  0  0  0  0  0  0  0  0
    9.3431    4.9386   23.4125 C   0  0  0  0  0  0  0  0  0  0  0  0
   10.9681    1.6994   23.6209 C   0  0  0  0  0  0  0  0  0  0  0  0
   12.6215    3.5315   23.1121 C   0  0  0  0  0  0  0  0  0  0  0  0
   10.1128    2.7148   24.3770 C   0  0  0  0  0  0  0  0  0  0  0  0
   11.7342    4.5084   23.8799 C   0  0  0  0  0  0  0  0  0  0  0  0
   12.4518    2.0975   23.6360 C   0  0  0  0  0  0  0  0  0  0  0  0
   14.8643   -2.5596   25.8323 C   0  0  0  0  0  0  0  0  0  0  0  0
   13.2859    1.1167   22.8154 C   0  0  0  0  0  0  0  0  0  0  0  0
    9.7968    6.2918   22.9257 C   0  0  0  0  0  0  0  0  0  0  0  0
   10.3375    4.0705   23.8618 N   0  0  0  0  0  0  0  0  0  0  0  0
    8.1405    4.6642   23.3954 O   0  0  0  0  0  0  0  0  0  0  0  0
   10.5722    7.0849   24.2923 Cl  0  0  0  0  0  0  0  0  0  0  0  0
   11.2601   -3.0825   22.9376 H   0  0  0  0  0  0  0  0  0  0  0  0
   12.8207   -3.9144   24.6659 H   0  0  0  0  0  0  0  0  0  0  0  0
   11.4661   -0.7714   22.0814 H   0  0  0  0  0  0  0  0  0  0  0  0
   14.8203   -0.1029   24.6931 H   0  0  0  0  0  0  0  0  0  0  0  0
   10.8446    0.7105   24.0783 H   0  0  0  0  0  0  0  0  0  0  0  0
   10.6080    1.6202   22.5871 H   0  0  0  0  0  0  0  0  0  0  0  0
   12.3714    3.5759   22.0442 H   0  0  0  0  0  0  0  0  0  0  0  0
   13.6691    3.8413   23.2074 H   0  0  0  0  0  0  0  0  0  0  0  0
    9.0636    2.4210   24.3148 H   0  0  0  0  0  0  0  0  0  0  0  0
   10.3829    2.7243   25.4397 H   0  0  0  0  0  0  0  0  0  0  0  0
   12.0456    4.5667   24.9295 H   0  0  0  0  0  0  0  0  0  0  0  0
   11.8348    5.5113   23.4532 H   0  0  0  0  0  0  0  0  0  0  0  0
   12.8100    2.0624   24.6736 H   0  0  0  0  0  0  0  0  0  0  0  0
   15.7442   -3.0164   25.3630 H   0  0  0  0  0  0  0  0  0  0  0  0
   15.2023   -1.7461   26.4873 H   0  0  0  0  0  0  0  0  0  0  0  0
   14.3855   -3.3082   26.4769 H   0  0  0  0  0  0  0  0  0  0  0  0
   14.3357    1.4272   22.8329 H   0  0  0  0  0  0  0  0  0  0  0  0
   12.9711    1.1579   21.7675 H   0  0  0  0  0  0  0  0  0  0  0  0
    8.9298    6.8601   22.6085 H   0  0  0  0  0  0  0  0  0  0  0  0
   10.5100    6.1548   22.1209 H   0  0  0  0  0  0  0  0  0  0  0  0
  1  2  2  0  0  0  0
  1  3  1  0  0  0  0
  2  5  1  0  0  0  0
  3  6  2  0  0  0  0
  4  5  2  0  0  0  0
  4  6  1  0  0  0  0
  5 13  1  0  0  0  0
  6 14  1  0  0  0  0
  7 15  1  0  0  0  0
  7 16  1  0  0  0  0
  7 17  2  0  0  0  0
  8 10  1  0  0  0  0
  8 12  1  0  0  0  0
  9 11  1  0  0  0  0
  9 12  1  0  0  0  0
 10 16  1  0  0  0  0
 11 16  1  0  0  0  0
 12 14  1  0  0  0  0
 15 18  1  0  0  0  0
  1 19  1  0  0  0  0
  2 20  1  0  0  0  0
  3 21  1  0  0  0  0
  4 22  1  0  0  0  0
  8 23  1  0  0  0  0
  8 24  1  0  0  0  0
  9 25  1  0  0  0  0
  9 26  1  0  0  0  0
 10 27  1  0  0  0  0
 10 28  1  0  0  0  0
 11 29  1  0  0  0  0
 11 30  1  0  0  0  0
 12 31  1  0  0  0  0
 13 32  1  0  0  0  0
 13 33  1  0  0  0  0
 13 34  1  0  0  0  0
 14 35  1  0  0  0  0
 14 36  1  0  0  0  0
 15 37  1  0  0  0  0
 15 38  1  0  0  0  0
M  END
> <creator>
Maksym Voznyy

> <fragments>
x0161

> <real_space>
FALSE

> <SCR>
FALSE

> <BB>
FALSE

> <link>
https://covid.postera.ai/covid/submissions/af83ef51-35cf-489e-b3bd-9012d86d8275

> <covalent_frag>
TRUE

> <covalent_warhead>
TRUE

> <acrylamide>
FALSE

> <acrylamide_adduct>
FALSE

> <chloroacetamide>
TRUE

> <chloroacetamide_adduct>
FALSE

> <vinylsulfonamide>
FALSE

> <vinylsulfonamide_adduct>
FALSE

> <in_molport_or_mcule>
FALSE

> <in_emolecules>
FALSE

> <Hybrid2>
-8.573510

> <Mpro-x0161_dock>
-8.57351

> <Mpro-x0072_dock>
-8.323334

> <Mpro-x0104_dock>
-8.207204

> <Mpro-x0195_dock>
-7.863698

> <Mpro-x0692_dock>
-5.806924

> <Mpro-x0305_dock>
-5.21796

> <Mpro-x0387_dock>
-5.018422

> <site>
active-noncovalent

> <covalent_distance_min>
9.1350765

> <covalent_distance_mean>
9.912313

> <covalent_distance_stderr>
0.071168326

$$$$
ANT-OPE-c0c-1
  -OEChem-04062011563D

 39 40  0     1  0  0  0  0  0999 V2000
   12.3993    1.6025   23.5750 C   0  0  0  0  0  0  0  0  0  0  0  0
   12.3560    0.9548   22.3404 C   0  0  0  0  0  0  0  0  0  0  0  0
   11.7763    1.0312   24.6846 C   0  0  0  0  0  0  0  0  0  0  0  0
   11.6897   -0.2642   22.2154 C   0  0  0  0  0  0  0  0  0  0  0  0
   11.1099   -0.1878   24.5595 C   0  0  0  0  0  0  0  0  0  0  0  0
   11.0666   -0.8356   23.3249 C   0  0  0  0  0  0  0  0  0  0  0  0
    6.0278    0.3075   17.9721 C   0  0  0  0  0  0  0  0  0  0  0  0
    6.8704   -0.5224   18.5906 C   0  0  0  0  0  0  0  0  0  0  0  0
    6.3265   -1.7213   19.2639 C   0  0  0  0  0  0  0  0  0  0  0  0
    6.6855   -3.1703   22.8216 C   0  0  0  0  0  0  0  0  0  0  0  0
    6.0743   -2.9839   21.4343 C   0  0  0  0  0  0  0  0  0  0  0  0
    7.2989   -0.7850   21.3190 C   0  0  0  0  0  0  0  0  0  0  0  0
    8.2003   -3.3335   22.8043 C   0  0  0  0  0  0  0  0  0  0  0  0
    8.7489   -1.1789   21.5588 C   0  0  0  0  0  0  0  0  0  0  0  0
   10.3496   -2.1466   23.1911 C   0  0  0  0  0  0  0  0  0  0  0  0
    6.5496   -1.8448   20.6409 N   0  0  0  0  0  0  0  0  0  0  0  0
    8.8925   -1.9896   22.8258 N   0  3  2  0  0  0  0  0  0  0  0  0
    5.7171   -2.5392   18.5728 O   0  0  0  0  0  0  0  0  0  0  0  0
   12.9193    2.5511   23.6725 H   0  0  0  0  0  0  0  0  0  0  0  0
   12.8420    1.3990   21.4766 H   0  0  0  0  0  0  0  0  0  0  0  0
   11.8107    1.5347   25.6462 H   0  0  0  0  0  0  0  0  0  0  0  0
   11.6610   -0.7616   21.2495 H   0  0  0  0  0  0  0  0  0  0  0  0
   10.6273   -0.6254   25.4294 H   0  0  0  0  0  0  0  0  0  0  0  0
    6.3666    1.2025   17.4611 H   0  0  0  0  0  0  0  0  0  0  0  0
    4.9632    0.0987   17.9679 H   0  0  0  0  0  0  0  0  0  0  0  0
    7.9381   -0.3484   18.6163 H   0  0  0  0  0  0  0  0  0  0  0  0
    6.3756   -2.3702   23.5040 H   0  0  0  0  0  0  0  0  0  0  0  0
    6.2550   -4.0896   23.2401 H   0  0  0  0  0  0  0  0  0  0  0  0
    6.2473   -3.8988   20.8553 H   0  0  0  0  0  0  0  0  0  0  0  0
    4.9888   -2.8668   21.5373 H   0  0  0  0  0  0  0  0  0  0  0  0
    6.7773   -0.4949   22.2378 H   0  0  0  0  0  0  0  0  0  0  0  0
    7.2947    0.1083   20.6834 H   0  0  0  0  0  0  0  0  0  0  0  0
    8.5091   -3.8541   23.7177 H   0  0  0  0  0  0  0  0  0  0  0  0
    8.5642   -3.8930   21.9355 H   0  0  0  0  0  0  0  0  0  0  0  0
    9.1803   -1.7528   20.7306 H   0  0  0  0  0  0  0  0  0  0  0  0
    9.3444   -0.2710   21.7058 H   0  0  0  0  0  0  0  0  0  0  0  0
   10.8038   -2.7686   22.4123 H   0  0  0  0  0  0  0  0  0  0  0  0
   10.3796   -2.7114   24.1291 H   0  0  0  0  0  0  0  0  0  0  0  0
    8.4715   -1.4407   23.5878 H   0  0  0  0  0  0  0  0  0  0  0  0
  1  2  1  0  0  0  0
  1  3  2  0  0  0  0
  2  4  2  0  0  0  0
  3  5  1  0  0  0  0
  4  6  1  0  0  0  0
  5  6  2  0  0  0  0
  6 15  1  0  0  0  0
  7  8  2  0  0  0  0
  8  9  1  0  0  0  0
  9 16  1  0  0  0  0
  9 18  2  0  0  0  0
 10 11  1  0  0  0  0
 10 13  1  0  0  0  0
 11 16  1  0  0  0  0
 12 14  1  0  0  0  0
 12 16  1  0  0  0  0
 13 17  1  0  0  0  0
 14 17  1  0  0  0  0
 15 17  1  0  0  0  0
  1 19  1  0  0  0  0
  2 20  1  0  0  0  0
  3 21  1  0  0  0  0
  4 22  1  0  0  0  0
  5 23  1  0  0  0  0
  7 24  1  0  0  0  0
  7 25  1  0  0  0  0
  8 26  1  0  0  0  0
 10 27  1  0  0  0  0
 10 28  1  0  0  0  0
 11 29  1  0  0  0  0
 11 30  1  0  0  0  0
 12 31  1  0  0  0  0
 12 32  1  0  0  0  0
 13 33  1  0  0  0  0
 13 34  1  0  0  0  0
 14 35  1  0  0  0  0
 14 36  1  0  0  0  0
 15 37  1  0  0  0  0
 15 38  1  0  0  0  0
 17 39  1  0  0  0  0
M  CHG  1  17   1
M  END
> <creator>
Anthony Sama, OpenSourceMycetoma

> <fragments>
x0831

> <real_space>
Z1937798708

> <SCR>
FALSE

> <BB>
BBV-75802684

> <link>
https://covid.postera.ai/covid/submissions/c0c3e7cc-d84c-4086-99e2-cbf4c6968220

> <covalent_frag>
TRUE

> <covalent_warhead>
TRUE

> <acrylamide>
TRUE

> <acrylamide_adduct>
FALSE

> <chloroacetamide>
FALSE

> <chloroacetamide_adduct>
FALSE

> <vinylsulfonamide>
FALSE

> <vinylsulfonamide_adduct>
FALSE

> <in_molport_or_mcule>
FALSE

> <in_emolecules>
FALSE

> <Hybrid2>
-8.552860

> <Mpro-x0831_dock>
-8.55286

> <site>
active-covalent

> <covalent_distance_min>
6.52152

> <covalent_distance_mean>
7.005321

> <covalent_distance_stderr>
0.03277492

$$$$
MIH-UNI-e57-11
  -OEChem-04062011563D

 37 39  0     1  0  0  0  0  0999 V2000
   14.4689   -2.2527   23.2477 C   0  0  0  0  0  0  0  0  0  0  0  0
   14.5627   -1.4539   24.3836 C   0  0  0  0  0  0  0  0  0  0  0  0
   13.5313   -1.9524   22.2600 C   0  0  0  0  0  0  0  0  0  0  0  0
   13.7202   -0.3530   24.5322 C   0  0  0  0  0  0  0  0  0  0  0  0
   12.6757   -0.8489   22.3981 C   0  0  0  0  0  0  0  0  0  0  0  0
   12.7755   -0.0386   23.5431 C   0  0  0  0  0  0  0  0  0  0  0  0
    9.5522    0.7699   20.9645 C   0  0  0  0  0  0  0  0  0  0  0  0
   11.6764   -0.5613   21.3047 C   0  0  0  0  0  0  0  0  0  0  0  0
    8.3997    1.3360   25.2591 C   0  0  0  0  0  0  0  0  0  0  0  0
    9.7040    1.9573   24.7818 C   0  0  0  0  0  0  0  0  0  0  0  0
   11.3797    1.6708   22.3622 C   0  0  0  0  0  0  0  0  0  0  0  0
    8.0968    0.1902   24.3088 C   0  0  0  0  0  0  0  0  0  0  0  0
   11.8637    1.1557   23.7223 C   0  0  1  0  0  0  0  0  0  0  0  0
   10.6973    0.8088   24.6311 C   0  0  2  0  0  0  0  0  0  0  0  0
    9.1006   -0.3160   20.0190 C   0  0  0  0  0  0  0  0  0  0  0  0
   10.8045    0.5930   21.5582 N   0  0  0  0  0  0  0  0  0  0  0  0
    8.8150    1.7366   21.1727 O   0  0  0  0  0  0  0  0  0  0  0  0
    9.7080   -0.5657   23.9558 S   0  0  0  0  0  0  0  0  0  0  0  0
    7.3459   -0.3846   20.1337 Cl  0  0  0  0  0  0  0  0  0  0  0  0
   15.1252   -3.1102   23.1306 H   0  0  0  0  0  0  0  0  0  0  0  0
   15.2916   -1.6876   25.1540 H   0  0  0  0  0  0  0  0  0  0  0  0
   13.4687   -2.5855   21.3781 H   0  0  0  0  0  0  0  0  0  0  0  0
   13.8044    0.2620   25.4250 H   0  0  0  0  0  0  0  0  0  0  0  0
   12.2142   -0.3458   20.3736 H   0  0  0  0  0  0  0  0  0  0  0  0
   11.0628   -1.4537   21.1497 H   0  0  0  0  0  0  0  0  0  0  0  0
    8.5094    0.9642   26.2859 H   0  0  0  0  0  0  0  0  0  0  0  0
    7.5861    2.0685   25.2632 H   0  0  0  0  0  0  0  0  0  0  0  0
    9.5447    2.4796   23.8281 H   0  0  0  0  0  0  0  0  0  0  0  0
   10.0730    2.7020   25.4971 H   0  0  0  0  0  0  0  0  0  0  0  0
   10.6618    2.4870   22.4966 H   0  0  0  0  0  0  0  0  0  0  0  0
   12.2208    2.0784   21.7862 H   0  0  0  0  0  0  0  0  0  0  0  0
    7.4083   -0.5358   24.7492 H   0  0  0  0  0  0  0  0  0  0  0  0
    7.6682    0.5590   23.3717 H   0  0  0  0  0  0  0  0  0  0  0  0
   12.4376    1.9664   24.1905 H   0  0  0  0  0  0  0  0  0  0  0  0
   11.0747    0.5029   25.6119 H   0  0  0  0  0  0  0  0  0  0  0  0
    9.5320   -1.2582   20.3359 H   0  0  0  0  0  0  0  0  0  0  0  0
    9.3984   -0.0496   19.0117 H   0  0  0  0  0  0  0  0  0  0  0  0
  1  2  1  0  0  0  0
  1  3  2  0  0  0  0
  2  4  2  0  0  0  0
  3  5  1  0  0  0  0
  4  6  1  0  0  0  0
  5  6  2  0  0  0  0
  5  8  1  0  0  0  0
  6 13  1  0  0  0  0
  7 15  1  0  0  0  0
  7 16  1  0  0  0  0
  7 17  2  0  0  0  0
  8 16  1  0  0  0  0
  9 10  1  0  0  0  0
  9 12  1  0  0  0  0
 10 14  1  0  0  0  0
 11 13  1  0  0  0  0
 11 16  1  0  0  0  0
 12 18  1  0  0  0  0
 13 14  1  0  0  0  0
 14 18  1  0  0  0  0
 15 19  1  0  0  0  0
  1 20  1  0  0  0  0
  2 21  1  0  0  0  0
  3 22  1  0  0  0  0
  4 23  1  0  0  0  0
  8 24  1  0  0  0  0
  8 25  1  0  0  0  0
  9 26  1  0  0  0  0
  9 27  1  0  0  0  0
 10 28  1  0  0  0  0
 10 29  1  0  0  0  0
 11 30  1  0  0  0  0
 11 31  1  0  0  0  0
 12 32  1  0  0  0  0
 12 33  1  0  0  0  0
 13 34  1  0  0  0  0
 14 35  1  0  0  0  0
 15 36  1  0  0  0  0
 15 37  1  0  0  0  0
M  END
> <creator>
Mihaela Smilova, University of Oxford

> <fragments>
x0678

> <real_space>
FALSE

> <SCR>
FALSE

> <BB>
FALSE

> <link>
https://covid.postera.ai/covid/submissions/e573136b-dbda-4fa9-8a0d-95e3d7d1615f

> <covalent_frag>
TRUE

> <covalent_warhead>
TRUE

> <acrylamide>
FALSE

> <acrylamide_adduct>
FALSE

> <chloroacetamide>
TRUE

> <chloroacetamide_adduct>
FALSE

> <vinylsulfonamide>
FALSE

> <vinylsulfonamide_adduct>
FALSE

> <in_molport_or_mcule>
FALSE

> <in_emolecules>
FALSE

> <Hybrid2>
-8.518147

> <Mpro-x0678_dock>
-8.518147

> <Mpro-x0072_dock>
-7.618694

> <Mpro-x0874_dock>
-7.191026

> <Mpro-x0830_dock>
-6.747326

> <Mpro-x0104_dock>
-6.119081

> <Mpro-x1093_dock>
-5.610554

> <Mpro-x0107_dock>
-5.047756

> <site>
active-noncovalent

> <covalent_distance_min>
3.1621935

> <covalent_distance_mean>
3.7957697

> <covalent_distance_stderr>
0.033479303

$$$$
DAR-DIA-fb2-10
  -OEChem-04062011563D

 53 55  0     0  0  0  0  0  0999 V2000
   12.7158    1.4728   24.0553 C   0  0  0  0  0  0  0  0  0  0  0  0
   12.3849   -0.5629   22.7575 C   0  0  0  0  0  0  0  0  0  0  0  0
   11.5026    1.2316   24.6794 C   0  0  0  0  0  0  0  0  0  0  0  0
   10.7376    0.1038   24.3456 C   0  0  0  0  0  0  0  0  0  0  0  0
   11.1629   -0.8013   23.3891 C   0  0  0  0  0  0  0  0  0  0  0  0
   13.1548    0.5647   23.0876 C   0  0  0  0  0  0  0  0  0  0  0  0
    9.6535    1.3365   25.9837 C   0  0  0  0  0  0  0  0  0  0  0  0
   10.7974    1.9885   25.7113 C   0  0  0  0  0  0  0  0  0  0  0  0
    6.0850   -1.8131   19.4946 C   0  0  0  0  0  0  0  0  0  0  0  0
   12.5033    4.9306   23.7398 C   0  0  0  0  0  0  0  0  0  0  0  0
    9.4830    0.0834   25.1614 C   0  0  0  0  0  0  0  0  0  0  0  0
    6.7617   -2.4673   21.7827 C   0  0  0  0  0  0  0  0  0  0  0  0
    7.6540   -0.3591   20.8701 C   0  0  0  0  0  0  0  0  0  0  0  0
    8.1562   -2.8928   22.2185 C   0  0  0  0  0  0  0  0  0  0  0  0
    9.0626   -0.7523   21.2942 C   0  0  0  0  0  0  0  0  0  0  0  0
   12.7791    4.7464   22.2844 C   0  0  0  0  0  0  0  0  0  0  0  0
   10.3448   -2.0069   23.0313 C   0  0  0  0  0  0  0  0  0  0  0  0
   11.3078    3.2445   26.3098 C   0  0  0  0  0  0  0  0  0  0  0  0
    6.2076   -0.8170   18.3692 C   0  0  0  0  0  0  0  0  0  0  0  0
   10.8351    4.4634   25.5235 C   0  0  0  0  0  0  0  0  0  0  0  0
    6.8237   -1.5475   20.6467 N   0  0  0  0  0  0  0  0  0  0  0  0
   11.2978    4.3982   24.1563 N   0  0  0  0  0  0  0  0  0  0  0  0
    8.9819   -1.6580   22.5027 N   0  3  0  0  0  0  0  0  0  0  0  0
    5.3562   -2.7982   19.3511 O   0  0  0  0  0  0  0  0  0  0  0  0
   13.3228    5.5122   24.4412 O   0  0  0  0  0  0  0  0  0  0  0  0
   14.3238    0.7720   22.4663 F   0  0  0  0  0  0  0  0  0  0  0  0
    4.9280    0.3683   18.6040 Cl  0  0  0  0  0  0  0  0  0  0  0  0
   13.3191    2.3403   24.3016 H   0  0  0  0  0  0  0  0  0  0  0  0
   12.7533   -1.2505   21.9998 H   0  0  0  0  0  0  0  0  0  0  0  0
    8.9236    1.6634   26.7116 H   0  0  0  0  0  0  0  0  0  0  0  0
    8.5925    0.1519   24.5300 H   0  0  0  0  0  0  0  0  0  0  0  0
    9.4375   -0.7995   25.8051 H   0  0  0  0  0  0  0  0  0  0  0  0
    6.1706   -3.3538   21.5327 H   0  0  0  0  0  0  0  0  0  0  0  0
    6.2414   -1.9494   22.5976 H   0  0  0  0  0  0  0  0  0  0  0  0
    7.1673    0.2350   21.6531 H   0  0  0  0  0  0  0  0  0  0  0  0
    7.7114    0.2707   19.9807 H   0  0  0  0  0  0  0  0  0  0  0  0
    8.1109   -3.4753   23.1444 H   0  0  0  0  0  0  0  0  0  0  0  0
    8.6708   -3.4710   21.4429 H   0  0  0  0  0  0  0  0  0  0  0  0
    9.5935   -1.2933   20.5029 H   0  0  0  0  0  0  0  0  0  0  0  0
    9.6383    0.1317   21.5871 H   0  0  0  0  0  0  0  0  0  0  0  0
   12.3965    5.5809   21.6750 H   0  0  0  0  0  0  0  0  0  0  0  0
   13.8575    4.6954   22.0640 H   0  0  0  0  0  0  0  0  0  0  0  0
   12.3483    3.8377   21.8344 H   0  0  0  0  0  0  0  0  0  0  0  0
   10.8384   -2.6050   22.2578 H   0  0  0  0  0  0  0  0  0  0  0  0
   10.1886   -2.6518   23.9028 H   0  0  0  0  0  0  0  0  0  0  0  0
   12.4054    3.2068   26.2922 H   0  0  0  0  0  0  0  0  0  0  0  0
   10.9822    3.3032   27.3574 H   0  0  0  0  0  0  0  0  0  0  0  0
    6.0683   -1.3332   17.4262 H   0  0  0  0  0  0  0  0  0  0  0  0
    7.1769   -0.3357   18.4302 H   0  0  0  0  0  0  0  0  0  0  0  0
    9.7409    4.5017   25.5206 H   0  0  0  0  0  0  0  0  0  0  0  0
   11.2013    5.3881   25.9820 H   0  0  0  0  0  0  0  0  0  0  0  0
   10.7086    3.9390   23.4680 H   0  0  0  0  0  0  0  0  0  0  0  0
    8.5044   -1.1330   23.2484 H   0  0  0  0  0  0  0  0  0  0  0  0
  1  3  1  0  0  0  0
  1  6  2  0  0  0  0
  2  5  2  0  0  0  0
  2  6  1  0  0  0  0
  3  4  2  0  0  0  0
  3  8  1  0  0  0  0
  4  5  1  0  0  0  0
  4 11  1  0  0  0  0
  5 17  1  0  0  0  0
  6 26  1  0  0  0  0
  7  8  2  0  0  0  0
  7 11  1  0  0  0  0
  8 18  1  0  0  0  0
  9 19  1  0  0  0  0
  9 21  1  0  0  0  0
  9 24  2  0  0  0  0
 10 16  1  0  0  0  0
 10 22  1  0  0  0  0
 10 25  2  0  0  0  0
 12 14  1  0  0  0  0
 12 21  1  0  0  0  0
 13 15  1  0  0  0  0
 13 21  1  0  0  0  0
 14 23  1  0  0  0  0
 15 23  1  0  0  0  0
 17 23  1  0  0  0  0
 18 20  1  0  0  0  0
 19 27  1  0  0  0  0
 20 22  1  0  0  0  0
  1 28  1  0  0  0  0
  2 29  1  0  0  0  0
  7 30  1  0  0  0  0
 11 31  1  0  0  0  0
 11 32  1  0  0  0  0
 12 33  1  0  0  0  0
 12 34  1  0  0  0  0
 13 35  1  0  0  0  0
 13 36  1  0  0  0  0
 14 37  1  0  0  0  0
 14 38  1  0  0  0  0
 15 39  1  0  0  0  0
 15 40  1  0  0  0  0
 16 41  1  0  0  0  0
 16 42  1  0  0  0  0
 16 43  1  0  0  0  0
 17 44  1  0  0  0  0
 17 45  1  0  0  0  0
 18 46  1  0  0  0  0
 18 47  1  0  0  0  0
 19 48  1  0  0  0  0
 19 49  1  0  0  0  0
 20 50  1  0  0  0  0
 20 51  1  0  0  0  0
 22 52  1  0  0  0  0
 23 53  1  0  0  0  0
M  CHG  1  23   1
M  END
> <creator>
Daren Fearon, Diamond Light Source Ltd

> <fragments>
x0830

> <real_space>
FALSE

> <SCR>
FALSE

> <BB>
FALSE

> <link>
https://covid.postera.ai/covid/submissions/fb20be43-b2ad-4a19-a5ce-eb2fe8d462e2

> <covalent_frag>
TRUE

> <covalent_warhead>
TRUE

> <acrylamide>
FALSE

> <acrylamide_adduct>
FALSE

> <chloroacetamide>
TRUE

> <chloroacetamide_adduct>
FALSE

> <vinylsulfonamide>
FALSE

> <vinylsulfonamide_adduct>
FALSE

> <in_molport_or_mcule>
FALSE

> <in_emolecules>
FALSE

> <Hybrid2>
-8.437851

> <Mpro-x0830_dock>
-8.437851

> <Mpro-x0195_dock>
-7.981242

> <Mpro-x0104_dock>
-7.453414

> <Mpro-x0305_dock>
-0.265322

> <site>
active-covalent

> <covalent_distance_min>
3.3799126

> <covalent_distance_mean>
4.54066

> <covalent_distance_stderr>
0.06179234

$$$$
MAK-UNK-af8-2
  -OEChem-04062011563D

 44 45  0     1  0  0  0  0  0999 V2000
    9.7470   -2.4788   23.9414 C   0  0  0  0  0  0  0  0  0  0  0  0
   10.8579   -2.4644   23.0981 C   0  0  0  0  0  0  0  0  0  0  0  0
    9.3621   -1.3154   24.6079 C   0  0  0  0  0  0  0  0  0  0  0  0
   11.5841   -1.2867   22.9212 C   0  0  0  0  0  0  0  0  0  0  0  0
   10.0883   -0.1376   24.4310 C   0  0  0  0  0  0  0  0  0  0  0  0
   11.1993   -0.1233   23.5876 C   0  0  0  0  0  0  0  0  0  0  0  0
    8.6194    8.0999   24.4642 C   0  0  0  0  0  0  0  0  0  0  0  0
   10.5171    7.3015   23.0922 C   0  0  0  0  0  0  0  0  0  0  0  0
    8.6325    5.7592   23.4697 C   0  0  0  0  0  0  0  0  0  0  0  0
   11.5102    6.2158   23.4801 C   0  0  0  0  0  0  0  0  0  0  0  0
    9.5979    4.6489   23.8618 C   0  0  0  0  0  0  0  0  0  0  0  0
   12.8918    3.7161   22.2787 C   0  0  0  0  0  0  0  0  0  0  0  0
   11.9844    1.1510   23.3970 C   0  0  0  0  0  0  0  0  0  0  0  0
    7.1119    8.1126   24.4976 C   0  0  0  0  0  0  0  0  0  0  0  0
   11.1284    2.4176   23.5407 C   0  0  0  0  0  0  0  0  0  0  0  0
   11.8848    3.7476   23.4219 C   0  0  2  0  0  0  0  0  0  0  0  0
    9.2190    7.0785   23.7288 N   0  0  0  0  0  0  0  0  0  0  0  0
   10.9159    4.8643   23.1519 N   0  3  0  0  0  0  0  0  0  0  0  0
    9.2433    8.9709   25.0759 O   0  0  0  0  0  0  0  0  0  0  0  0
    6.6299    7.1107   25.8620 Cl  0  0  0  0  0  0  0  0  0  0  0  0
    9.1809   -3.3956   24.0780 H   0  0  0  0  0  0  0  0  0  0  0  0
   11.1571   -3.3699   22.5782 H   0  0  0  0  0  0  0  0  0  0  0  0
    8.4966   -1.3259   25.2637 H   0  0  0  0  0  0  0  0  0  0  0  0
   12.4484   -1.2849   22.2623 H   0  0  0  0  0  0  0  0  0  0  0  0
    9.7812    0.7639   24.9544 H   0  0  0  0  0  0  0  0  0  0  0  0
   10.9210    8.2811   23.3666 H   0  0  0  0  0  0  0  0  0  0  0  0
   10.3548    7.3097   22.0075 H   0  0  0  0  0  0  0  0  0  0  0  0
    8.4030    5.7102   22.3983 H   0  0  0  0  0  0  0  0  0  0  0  0
    7.6914    5.6197   24.0045 H   0  0  0  0  0  0  0  0  0  0  0  0
   12.4355    6.3142   22.9032 H   0  0  0  0  0  0  0  0  0  0  0  0
   11.7392    6.2319   24.5516 H   0  0  0  0  0  0  0  0  0  0  0  0
    9.7940    4.6372   24.9398 H   0  0  0  0  0  0  0  0  0  0  0  0
    9.2132    3.6737   23.5461 H   0  0  0  0  0  0  0  0  0  0  0  0
   12.4120    3.4633   21.3268 H   0  0  0  0  0  0  0  0  0  0  0  0
   13.6712    2.9717   22.4722 H   0  0  0  0  0  0  0  0  0  0  0  0
   13.3825    4.6885   22.1610 H   0  0  0  0  0  0  0  0  0  0  0  0
   12.5011    1.1461   22.4300 H   0  0  0  0  0  0  0  0  0  0  0  0
   12.7817    1.1847   24.1517 H   0  0  0  0  0  0  0  0  0  0  0  0
    6.7363    7.6884   23.5734 H   0  0  0  0  0  0  0  0  0  0  0  0
    6.7723    9.1313   24.6452 H   0  0  0  0  0  0  0  0  0  0  0  0
   10.3313    2.3988   22.7859 H   0  0  0  0  0  0  0  0  0  0  0  0
   10.6241    2.3752   24.5154 H   0  0  0  0  0  0  0  0  0  0  0  0
   12.3981    4.0027   24.3542 H   0  0  0  0  0  0  0  0  0  0  0  0
   10.7259    4.8488   22.1403 H   0  0  0  0  0  0  0  0  0  0  0  0
  1  2  1  0  0  0  0
  1  3  2  0  0  0  0
  2  4  2  0  0  0  0
  3  5  1  0  0  0  0
  4  6  1  0  0  0  0
  5  6  2  0  0  0  0
  6 13  1  0  0  0  0
  7 14  1  0  0  0  0
  7 17  1  0  0  0  0
  7 19  2  0  0  0  0
  8 10  1  0  0  0  0
  8 17  1  0  0  0  0
  9 11  1  0  0  0  0
  9 17  1  0  0  0  0
 10 18  1  0  0  0  0
 11 18  1  0  0  0  0
 12 16  1  0  0  0  0
 13 15  1  0  0  0  0
 14 20  1  0  0  0  0
 15 16  1  0  0  0  0
 16 18  1  0  0  0  0
  1 21  1  0  0  0  0
  2 22  1  0  0  0  0
  3 23  1  0  0  0  0
  4 24  1  0  0  0  0
  5 25  1  0  0  0  0
  8 26  1  0  0  0  0
  8 27  1  0  0  0  0
  9 28  1  0  0  0  0
  9 29  1  0  0  0  0
 10 30  1  0  0  0  0
 10 31  1  0  0  0  0
 11 32  1  0  0  0  0
 11 33  1  0  0  0  0
 12 34  1  0  0  0  0
 12 35  1  0  0  0  0
 12 36  1  0  0  0  0
 13 37  1  0  0  0  0
 13 38  1  0  0  0  0
 14 39  1  0  0  0  0
 14 40  1  0  0  0  0
 15 41  1  0  0  0  0
 15 42  1  0  0  0  0
 16 43  1  0  0  0  0
 18 44  1  0  0  0  0
M  CHG  1  18   1
M  END
> <creator>
Maksym Voznyy

> <fragments>
x0104

> <real_space>
FALSE

> <SCR>
FALSE

> <BB>
FALSE

> <link>
https://covid.postera.ai/covid/submissions/af83ef51-35cf-489e-b3bd-9012d86d8275

> <covalent_frag>
TRUE

> <covalent_warhead>
TRUE

> <acrylamide>
FALSE

> <acrylamide_adduct>
FALSE

> <chloroacetamide>
TRUE

> <chloroacetamide_adduct>
FALSE

> <vinylsulfonamide>
FALSE

> <vinylsulfonamide_adduct>
FALSE

> <in_molport_or_mcule>
FALSE

> <in_emolecules>
FALSE

> <Hybrid2>
-8.429302

> <Mpro-x0104_dock>
-8.429302

> <Mpro-x0072_dock>
-7.927613

> <Mpro-x0161_dock>
-6.412905

> <Mpro-x0195_dock>
-6.062131

> <Mpro-x0692_dock>
-5.286107

> <Mpro-x0387_dock>
-4.670419

> <Mpro-x0305_dock>
-3.938857

> <site>
active-noncovalent

> <covalent_distance_min>
10.097626

> <covalent_distance_mean>
10.857786

> <covalent_distance_stderr>
0.07661758

$$$$
PAU-UNI-b33-1
  -OEChem-04062011563D

 54 57  0     1  0  0  0  0  0999 V2000
   14.7748   -1.1917   24.0149 C   0  0  0  0  0  0  0  0  0  0  0  0
   13.9782   -2.3189   24.2286 C   0  0  0  0  0  0  0  0  0  0  0  0
    5.6670    1.3495   19.2661 C   0  0  0  0  0  0  0  0  0  0  0  0
   14.2013    0.0519   23.7211 C   0  0  0  0  0  0  0  0  0  0  0  0
   12.5831   -2.2459   24.1572 C   0  0  0  0  0  0  0  0  0  0  0  0
    6.1589    0.5883   20.3206 C   0  0  0  0  0  0  0  0  0  0  0  0
    6.3066    1.2503   18.0410 C   0  0  0  0  0  0  0  0  0  0  0  0
    7.8280   -0.2653   18.8571 C   0  0  0  0  0  0  0  0  0  0  0  0
   12.8012    0.1434   23.6453 C   0  0  0  0  0  0  0  0  0  0  0  0
   12.0339   -0.9974   23.8633 C   0  0  0  0  0  0  0  0  0  0  0  0
    7.2598   -0.2371   20.1205 C   0  0  0  0  0  0  0  0  0  0  0  0
   10.7702    0.7658   23.4289 C   0  0  0  0  0  0  0  0  0  0  0  0
    6.4686    2.6920   24.8393 C   0  0  0  0  0  0  0  0  0  0  0  0
    9.1042   -1.4044   21.3705 C   0  0  0  0  0  0  0  0  0  0  0  0
    8.4327    3.5065   21.9729 C   0  0  0  0  0  0  0  0  0  0  0  0
    9.7175    2.7004   22.1719 C   0  0  0  0  0  0  0  0  0  0  0  0
    7.8879    4.0159   23.3043 C   0  0  0  0  0  0  0  0  0  0  0  0
    8.9298    2.1311   24.5136 C   0  0  0  0  0  0  0  0  0  0  0  0
    9.5029    1.5732   23.1991 C   0  0  2  0  0  0  0  0  0  0  0  0
    5.3589    3.6342   24.4462 C   0  0  0  0  0  0  0  0  0  0  0  0
    9.2691   -2.2507   22.6224 C   0  0  0  0  0  0  0  0  0  0  0  0
    9.5556   -1.3894   23.8514 C   0  0  0  0  0  0  0  0  0  0  0  0
    7.3782    0.4597   17.8085 N   0  0  0  0  0  0  0  0  0  0  0  0
   11.9990    1.2287   23.3771 N   0  0  0  0  0  0  0  0  0  0  0  0
   10.7390   -0.5700   23.7186 N   0  0  0  0  0  0  0  0  0  0  0  0
    7.7136    2.9136   24.2520 N   0  0  0  0  0  0  0  0  0  0  0  0
    7.7830   -1.0229   21.1738 N   0  0  0  0  0  0  0  0  0  0  0  0
    6.2345    1.7885   25.6460 O   0  0  0  0  0  0  0  0  0  0  0  0
   10.0806   -1.1119   20.6861 O   0  0  0  0  0  0  0  0  0  0  0  0
    4.5929    2.9434   23.0201 Cl  0  0  0  0  0  0  0  0  0  0  0  0
   15.8563   -1.2796   24.0785 H   0  0  0  0  0  0  0  0  0  0  0  0
   14.4507   -3.2718   24.4545 H   0  0  0  0  0  0  0  0  0  0  0  0
    4.8099    1.9998   19.3991 H   0  0  0  0  0  0  0  0  0  0  0  0
   14.8292    0.9216   23.5575 H   0  0  0  0  0  0  0  0  0  0  0  0
   11.9654   -3.1212   24.3241 H   0  0  0  0  0  0  0  0  0  0  0  0
    5.6772    0.6458   21.2931 H   0  0  0  0  0  0  0  0  0  0  0  0
    5.9620    1.8242   17.1871 H   0  0  0  0  0  0  0  0  0  0  0  0
    8.6891   -0.8902   18.6392 H   0  0  0  0  0  0  0  0  0  0  0  0
    8.6309    4.3535   21.3065 H   0  0  0  0  0  0  0  0  0  0  0  0
    7.6772    2.8812   21.4815 H   0  0  0  0  0  0  0  0  0  0  0  0
   10.0419    2.2829   21.2107 H   0  0  0  0  0  0  0  0  0  0  0  0
   10.5181    3.3725   22.5089 H   0  0  0  0  0  0  0  0  0  0  0  0
    8.5860    4.7304   23.7569 H   0  0  0  0  0  0  0  0  0  0  0  0
    6.9429    4.5426   23.1388 H   0  0  0  0  0  0  0  0  0  0  0  0
    8.7450    1.3145   25.2155 H   0  0  0  0  0  0  0  0  0  0  0  0
    9.6470    2.8062   24.9987 H   0  0  0  0  0  0  0  0  0  0  0  0
    8.7537    0.8612   22.7756 H   0  0  0  0  0  0  0  0  0  0  0  0
    5.7868    4.6012   24.2072 H   0  0  0  0  0  0  0  0  0  0  0  0
    4.6450    3.6953   25.2596 H   0  0  0  0  0  0  0  0  0  0  0  0
   10.1120   -2.9300   22.4476 H   0  0  0  0  0  0  0  0  0  0  0  0
    8.3847   -2.8802   22.7739 H   0  0  0  0  0  0  0  0  0  0  0  0
    9.6725   -2.0105   24.7473 H   0  0  0  0  0  0  0  0  0  0  0  0
    8.7168   -0.7082   24.0381 H   0  0  0  0  0  0  0  0  0  0  0  0
    7.1022   -1.3224   21.8685 H   0  0  0  0  0  0  0  0  0  0  0  0
  1  2  1  0  0  0  0
  1  4  2  0  0  0  0
  2  5  2  0  0  0  0
  3  6  2  0  0  0  0
  3  7  1  0  0  0  0
  4  9  1  0  0  0  0
  5 10  1  0  0  0  0
  6 11  1  0  0  0  0
  7 23  2  0  0  0  0
  8 11  2  0  0  0  0
  8 23  1  0  0  0  0
  9 10  2  0  0  0  0
  9 24  1  0  0  0  0
 10 25  1  0  0  0  0
 11 27  1  0  0  0  0
 12 19  1  0  0  0  0
 12 24  2  0  0  0  0
 12 25  1  0  0  0  0
 13 20  1  0  0  0  0
 13 26  1  0  0  0  0
 13 28  2  0  0  0  0
 14 21  1  0  0  0  0
 14 27  1  0  0  0  0
 14 29  2  0  0  0  0
 15 16  1  0  0  0  0
 15 17  1  0  0  0  0
 16 19  1  0  0  0  0
 17 26  1  0  0  0  0
 18 19  1  0  0  0  0
 18 26  1  0  0  0  0
 20 30  1  0  0  0  0
 21 22  1  0  0  0  0
 22 25  1  0  0  0  0
  1 31  1  0  0  0  0
  2 32  1  0  0  0  0
  3 33  1  0  0  0  0
  4 34  1  0  0  0  0
  5 35  1  0  0  0  0
  6 36  1  0  0  0  0
  7 37  1  0  0  0  0
  8 38  1  0  0  0  0
 15 39  1  0  0  0  0
 15 40  1  0  0  0  0
 16 41  1  0  0  0  0
 16 42  1  0  0  0  0
 17 43  1  0  0  0  0
 17 44  1  0  0  0  0
 18 45  1  0  0  0  0
 18 46  1  0  0  0  0
 19 47  1  0  0  0  0
 20 48  1  0  0  0  0
 20 49  1  0  0  0  0
 21 50  1  0  0  0  0
 21 51  1  0  0  0  0
 22 52  1  0  0  0  0
 22 53  1  0  0  0  0
 27 54  1  0  0  0  0
M  END
> <creator>
paul brear, University of Cambridge

> <fragments>
x0678

> <real_space>
FALSE

> <SCR>
FALSE

> <BB>
FALSE

> <link>
https://covid.postera.ai/covid/submissions/b33c5197-3533-4123-947f-64fd2b824d4f

> <covalent_frag>
TRUE

> <covalent_warhead>
TRUE

> <acrylamide>
FALSE

> <acrylamide_adduct>
FALSE

> <chloroacetamide>
TRUE

> <chloroacetamide_adduct>
FALSE

> <vinylsulfonamide>
FALSE

> <vinylsulfonamide_adduct>
FALSE

> <in_molport_or_mcule>
FALSE

> <in_emolecules>
FALSE

> <Hybrid2>
-8.426173

> <Mpro-x0678_dock>
-8.426173

> <Mpro-x0749_dock>
-3.894047

> <site>
active-noncovalent

> <covalent_distance_min>
8.526108

> <covalent_distance_mean>
9.804056

> <covalent_distance_stderr>
0.09036891

$$$$
WAR-XCH-72a-9
  -OEChem-04062011563D

 62 64  0     1  0  0  0  0  0999 V2000
    6.3928   -5.2049   22.8557 C   0  0  0  0  0  0  0  0  0  0  0  0
    7.0454   -4.8845   21.7365 C   0  0  0  0  0  0  0  0  0  0  0  0
    6.5701   -3.7373   20.9372 C   0  0  0  0  0  0  0  0  0  0  0  0
    7.9457   -4.1676   27.1579 C   0  0  0  0  0  0  0  0  0  0  0  0
    8.0526   -4.9990   25.8833 C   0  0  0  0  0  0  0  0  0  0  0  0
    7.9029   -2.6738   26.8515 C   0  0  0  0  0  0  0  0  0  0  0  0
    8.0048   -0.4364   20.1464 C   0  0  0  0  0  0  0  0  0  0  0  0
    9.2422   -4.5686   25.0281 C   0  0  0  0  0  0  0  0  0  0  0  0
    9.0922   -2.2395   25.9978 C   0  0  0  0  0  0  0  0  0  0  0  0
    8.9587   -0.2472   21.3224 C   0  0  0  0  0  0  0  0  0  0  0  0
   11.8627    0.0484   24.1420 C   0  0  0  0  0  0  0  0  0  0  0  0
   12.3964   -1.5732   22.2715 C   0  0  0  0  0  0  0  0  0  0  0  0
   13.1994    0.7563   23.9097 C   0  0  0  0  0  0  0  0  0  0  0  0
   13.7314   -0.8636   22.0368 C   0  0  0  0  0  0  0  0  0  0  0  0
    6.7549   -1.2219   20.5447 C   0  0  0  0  0  0  0  0  0  0  0  0
    8.0185   -2.3432   22.3628 C   0  0  0  0  0  0  0  0  0  0  0  0
    9.1980   -3.0678   24.7102 C   0  0  0  0  0  0  0  0  0  0  0  0
   11.3645   -0.6141   22.8599 C   0  0  0  0  0  0  0  0  0  0  0  0
    9.2836   -1.5965   21.9545 C   0  0  2  0  0  0  0  0  0  0  0  0
   14.2485   -0.1763   23.3024 C   0  0  0  0  0  0  0  0  0  0  0  0
   10.4243   -2.6516   23.9003 C   0  0  0  0  0  0  0  0  0  0  0  0
    7.0955   -2.4795   21.2294 N   0  0  0  0  0  0  0  0  0  0  0  0
   10.1212   -1.3721   23.1623 N   0  3  1  0  0  0  0  0  0  0  0  0
    5.7401   -3.9638   20.0550 O   0  0  0  0  0  0  0  0  0  0  0  0
   14.6032   -1.1584   24.2739 O   0  0  0  0  0  0  0  0  0  0  0  0
    6.6939   -6.0363   23.4843 H   0  0  0  0  0  0  0  0  0  0  0  0
    5.5287   -4.6271   23.1662 H   0  0  0  0  0  0  0  0  0  0  0  0
    7.9112   -5.4363   21.3944 H   0  0  0  0  0  0  0  0  0  0  0  0
    7.0453   -4.4563   27.7119 H   0  0  0  0  0  0  0  0  0  0  0  0
    8.8041   -4.3823   27.8062 H   0  0  0  0  0  0  0  0  0  0  0  0
    8.1493   -6.0594   26.1428 H   0  0  0  0  0  0  0  0  0  0  0  0
    7.1287   -4.8957   25.3011 H   0  0  0  0  0  0  0  0  0  0  0  0
    6.9702   -2.4353   26.3257 H   0  0  0  0  0  0  0  0  0  0  0  0
    7.8948   -2.1061   27.7889 H   0  0  0  0  0  0  0  0  0  0  0  0
    7.7125    0.5424   19.7495 H   0  0  0  0  0  0  0  0  0  0  0  0
    8.5232   -0.9667   19.3377 H   0  0  0  0  0  0  0  0  0  0  0  0
   10.1727   -4.8108   25.5578 H   0  0  0  0  0  0  0  0  0  0  0  0
    9.2474   -5.1484   24.0974 H   0  0  0  0  0  0  0  0  0  0  0  0
    8.9912   -1.1757   25.7514 H   0  0  0  0  0  0  0  0  0  0  0  0
   10.0137   -2.3429   26.5851 H   0  0  0  0  0  0  0  0  0  0  0  0
    9.8749    0.2450   20.9758 H   0  0  0  0  0  0  0  0  0  0  0  0
    8.4908    0.4182   22.0593 H   0  0  0  0  0  0  0  0  0  0  0  0
   11.9631   -0.6803   24.9428 H   0  0  0  0  0  0  0  0  0  0  0  0
   11.1288    0.7868   24.4626 H   0  0  0  0  0  0  0  0  0  0  0  0
   12.0263   -1.9432   21.3165 H   0  0  0  0  0  0  0  0  0  0  0  0
   12.5428   -2.4331   22.9202 H   0  0  0  0  0  0  0  0  0  0  0  0
   13.0512    1.6216   23.2491 H   0  0  0  0  0  0  0  0  0  0  0  0
   13.5765    1.1778   24.8520 H   0  0  0  0  0  0  0  0  0  0  0  0
   14.4826   -1.5749   21.6668 H   0  0  0  0  0  0  0  0  0  0  0  0
   13.6198   -0.1218   21.2346 H   0  0  0  0  0  0  0  0  0  0  0  0
    6.1416   -0.6355   21.2390 H   0  0  0  0  0  0  0  0  0  0  0  0
    6.1629   -1.3955   19.6450 H   0  0  0  0  0  0  0  0  0  0  0  0
    8.2739   -3.3262   22.7729 H   0  0  0  0  0  0  0  0  0  0  0  0
    7.4742   -1.7968   23.1436 H   0  0  0  0  0  0  0  0  0  0  0  0
    8.3113   -2.8688   24.0954 H   0  0  0  0  0  0  0  0  0  0  0  0
   11.0871    0.1436   22.1240 H   0  0  0  0  0  0  0  0  0  0  0  0
    9.8873   -2.2074   21.2734 H   0  0  0  0  0  0  0  0  0  0  0  0
   15.1515    0.4004   23.0676 H   0  0  0  0  0  0  0  0  0  0  0  0
   10.6864   -3.4015   23.1488 H   0  0  0  0  0  0  0  0  0  0  0  0
   11.2862   -2.4548   24.5438 H   0  0  0  0  0  0  0  0  0  0  0  0
    9.5774   -0.7846   23.8159 H   0  0  0  0  0  0  0  0  0  0  0  0
   14.9601   -0.6776   25.0372 H   0  0  0  0  0  0  0  0  0  0  0  0
  1  2  2  0  0  0  0
  2  3  1  0  0  0  0
  3 22  1  0  0  0  0
  3 24  2  0  0  0  0
  4  5  1  0  0  0  0
  4  6  1  0  0  0  0
  5  8  1  0  0  0  0
  6  9  1  0  0  0  0
  7 10  1  0  0  0  0
  7 15  1  0  0  0  0
  8 17  1  0  0  0  0
  9 17  1  0  0  0  0
 10 19  1  0  0  0  0
 11 13  1  0  0  0  0
 11 18  1  0  0  0  0
 12 14  1  0  0  0  0
 12 18  1  0  0  0  0
 13 20  1  0  0  0  0
 14 20  1  0  0  0  0
 15 22  1  0  0  0  0
 16 19  1  0  0  0  0
 16 22  1  0  0  0  0
 17 21  1  0  0  0  0
 18 23  1  0  0  0  0
 19 23  1  0  0  0  0
 20 25  1  0  0  0  0
 21 23  1  0  0  0  0
  1 26  1  0  0  0  0
  1 27  1  0  0  0  0
  2 28  1  0  0  0  0
  4 29  1  0  0  0  0
  4 30  1  0  0  0  0
  5 31  1  0  0  0  0
  5 32  1  0  0  0  0
  6 33  1  0  0  0  0
  6 34  1  0  0  0  0
  7 35  1  0  0  0  0
  7 36  1  0  0  0  0
  8 37  1  0  0  0  0
  8 38  1  0  0  0  0
  9 39  1  0  0  0  0
  9 40  1  0  0  0  0
 10 41  1  0  0  0  0
 10 42  1  0  0  0  0
 11 43  1  0  0  0  0
 11 44  1  0  0  0  0
 12 45  1  0  0  0  0
 12 46  1  0  0  0  0
 13 47  1  0  0  0  0
 13 48  1  0  0  0  0
 14 49  1  0  0  0  0
 14 50  1  0  0  0  0
 15 51  1  0  0  0  0
 15 52  1  0  0  0  0
 16 53  1  0  0  0  0
 16 54  1  0  0  0  0
 17 55  1  0  0  0  0
 18 56  1  0  0  0  0
 19 57  1  0  0  0  0
 20 58  1  0  0  0  0
 21 59  1  0  0  0  0
 21 60  1  0  0  0  0
 23 61  1  0  0  0  0
 25 62  1  0  0  0  0
M  CHG  1  23   1
M  END
> <creator>
Warren Thompson, XChem - Diamond Light Source

> <fragments>
x1418

> <real_space>
FALSE

> <SCR>
FALSE

> <BB>
FALSE

> <link>
https://covid.postera.ai/covid/submissions/72a8c209-a4b2-4e6c-8301-3438755f7985

> <covalent_frag>
TRUE

> <covalent_warhead>
TRUE

> <acrylamide>
TRUE

> <acrylamide_adduct>
FALSE

> <chloroacetamide>
FALSE

> <chloroacetamide_adduct>
FALSE

> <vinylsulfonamide>
FALSE

> <vinylsulfonamide_adduct>
FALSE

> <in_molport_or_mcule>
FALSE

> <in_emolecules>
FALSE

> <Hybrid2>
-8.417408

> <Mpro-x1418_dock>
-8.417408

> <Mpro-x1458_dock>
-3.929056

> <Mpro-x1478_dock>
-1.24729

> <Mpro-x1493_dock>
-0.856952

> <site>
active-covalent

> <covalent_distance_min>
3.2755165

> <covalent_distance_mean>
3.9563024

> <covalent_distance_stderr>
0.05429177

$$$$
SEA-TRI-f74-1
  -OEChem-04062011563D

 45 47  0     1  0  0  0  0  0999 V2000
   14.2878   -2.0967   26.2938 C   0  0  0  0  0  0  0  0  0  0  0  0
   14.0469   -0.9389   25.5624 C   0  0  0  0  0  0  0  0  0  0  0  0
   13.3839   -3.1618   26.2682 C   0  0  0  0  0  0  0  0  0  0  0  0
   12.8917   -0.8174   24.7846 C   0  0  0  0  0  0  0  0  0  0  0  0
   11.9619   -1.8788   24.7410 C   0  0  0  0  0  0  0  0  0  0  0  0
   12.2258   -3.0330   25.4847 C   0  0  0  0  0  0  0  0  0  0  0  0
   10.1653   -3.0449   24.2120 C   0  0  0  0  0  0  0  0  0  0  0  0
    7.2432   -4.0180   20.3758 C   0  0  0  0  0  0  0  0  0  0  0  0
    6.6775   -4.7133   23.8303 C   0  0  0  0  0  0  0  0  0  0  0  0
    7.9997   -4.3328   24.4987 C   0  0  0  0  0  0  0  0  0  0  0  0
    6.9108   -5.3239   22.4513 C   0  0  0  0  0  0  0  0  0  0  0  0
    9.0234   -4.0703   22.1941 C   0  0  0  0  0  0  0  0  0  0  0  0
    8.8369   -3.4250   23.5784 C   0  0  2  0  0  0  0  0  0  0  0  0
   12.6831    0.4504   24.0180 C   0  0  0  0  0  0  0  0  0  0  0  0
    8.1369   -3.0999   19.5807 C   0  0  0  0  0  0  0  0  0  0  0  0
   11.6401    1.3765   24.6450 C   0  0  0  0  0  0  0  0  0  0  0  0
   10.7785   -1.9008   24.0174 N   0  0  0  0  0  0  0  0  0  0  0  0
    7.7213   -4.4339   21.6178 N   0  0  0  0  0  0  0  0  0  0  0  0
   10.8446    2.1506   22.2327 N   0  0  0  0  0  0  0  0  0  0  0  0
    6.1523   -4.3524   19.9064 O   0  0  0  0  0  0  0  0  0  0  0  0
   10.2656    3.5713   24.2974 O   0  0  0  0  0  0  0  0  0  0  0  0
   12.6556    3.4842   23.4813 O   0  0  0  0  0  0  0  0  0  0  0  0
   10.9408   -4.1591   25.2527 S   0  0  0  0  0  0  0  0  0  0  0  0
   11.3707    2.8427   23.6992 S   0  0  0  0  0  0  0  0  0  0  0  0
    7.6844   -1.4555   20.0154 Cl  0  0  0  0  0  0  0  0  0  0  0  0
   15.1905   -2.1760   26.8939 H   0  0  0  0  0  0  0  0  0  0  0  0
   14.7683   -0.1263   25.6019 H   0  0  0  0  0  0  0  0  0  0  0  0
   13.5786   -4.0628   26.8418 H   0  0  0  0  0  0  0  0  0  0  0  0
    6.1384   -5.4268   24.4637 H   0  0  0  0  0  0  0  0  0  0  0  0
    6.0423   -3.8240   23.7360 H   0  0  0  0  0  0  0  0  0  0  0  0
    7.7977   -3.8269   25.4510 H   0  0  0  0  0  0  0  0  0  0  0  0
    8.5593   -5.2463   24.7405 H   0  0  0  0  0  0  0  0  0  0  0  0
    7.4511   -6.2741   22.5383 H   0  0  0  0  0  0  0  0  0  0  0  0
    5.9489   -5.5374   21.9749 H   0  0  0  0  0  0  0  0  0  0  0  0
    9.5832   -3.3963   21.5414 H   0  0  0  0  0  0  0  0  0  0  0  0
    9.6103   -4.9952   22.2685 H   0  0  0  0  0  0  0  0  0  0  0  0
    8.2761   -2.4696   23.4365 H   0  0  0  0  0  0  0  0  0  0  0  0
   12.3540    0.2049   22.9951 H   0  0  0  0  0  0  0  0  0  0  0  0
   13.6318    0.9983   23.8979 H   0  0  0  0  0  0  0  0  0  0  0  0
    7.9617   -3.2671   18.5240 H   0  0  0  0  0  0  0  0  0  0  0  0
    9.1682   -3.2876   19.8567 H   0  0  0  0  0  0  0  0  0  0  0  0
   10.6694    0.8734   24.7006 H   0  0  0  0  0  0  0  0  0  0  0  0
   11.9226    1.6920   25.6539 H   0  0  0  0  0  0  0  0  0  0  0  0
   11.5406    1.6583   21.6593 H   0  0  0  0  0  0  0  0  0  0  0  0
    9.9129    1.7179   22.2152 H   0  0  0  0  0  0  0  0  0  0  0  0
  1  2  2  0  0  0  0
  1  3  1  0  0  0  0
  2  4  1  0  0  0  0
  3  6  2  0  0  0  0
  4  5  2  0  0  0  0
  4 14  1  0  0  0  0
  5  6  1  0  0  0  0
  5 17  1  0  0  0  0
  6 23  1  0  0  0  0
  7 13  1  0  0  0  0
  7 17  2  0  0  0  0
  7 23  1  0  0  0  0
  8 15  1  0  0  0  0
  8 18  1  0  0  0  0
  8 20  2  0  0  0  0
  9 10  1  0  0  0  0
  9 11  1  0  0  0  0
 10 13  1  0  0  0  0
 11 18  1  0  0  0  0
 12 13  1  0  0  0  0
 12 18  1  0  0  0  0
 14 16  1  0  0  0  0
 15 25  1  0  0  0  0
 16 24  1  0  0  0  0
 19 24  1  0  0  0  0
 21 24  2  0  0  0  0
 22 24  2  0  0  0  0
  1 26  1  0  0  0  0
  2 27  1  0  0  0  0
  3 28  1  0  0  0  0
  9 29  1  0  0  0  0
  9 30  1  0  0  0  0
 10 31  1  0  0  0  0
 10 32  1  0  0  0  0
 11 33  1  0  0  0  0
 11 34  1  0  0  0  0
 12 35  1  0  0  0  0
 12 36  1  0  0  0  0
 13 37  1  0  0  0  0
 14 38  1  0  0  0  0
 14 39  1  0  0  0  0
 15 40  1  0  0  0  0
 15 41  1  0  0  0  0
 16 42  1  0  0  0  0
 16 43  1  0  0  0  0
 19 44  1  0  0  0  0
 19 45  1  0  0  0  0
M  END
> <creator>
Sean McKenna, Trinity College Dublin

> <fragments>
x0749

> <real_space>
FALSE

> <SCR>
FALSE

> <BB>
FALSE

> <link>
https://covid.postera.ai/covid/submissions/f744d433-db41-4726-81e7-4b0fb5dadfe9

> <covalent_frag>
TRUE

> <covalent_warhead>
TRUE

> <acrylamide>
FALSE

> <acrylamide_adduct>
FALSE

> <chloroacetamide>
TRUE

> <chloroacetamide_adduct>
FALSE

> <vinylsulfonamide>
FALSE

> <vinylsulfonamide_adduct>
FALSE

> <in_molport_or_mcule>
FALSE

> <in_emolecules>
FALSE

> <Hybrid2>
-8.382774

> <Mpro-x0749_dock>
-8.382774

> <Mpro-x0946_dock>
-5.865558

> <site>
active-covalent

> <covalent_distance_min>
3.1467047

> <covalent_distance_mean>
4.2100363

> <covalent_distance_stderr>
0.10123518

$$$$
MAK-UNK-af8-8
  -OEChem-04062011563D

 42 44  0     1  0  0  0  0  0999 V2000
   13.3465   -1.2940   23.3423 C   0  0  0  0  0  0  0  0  0  0  0  0
   13.1814   -0.0992   24.0428 C   0  0  0  0  0  0  0  0  0  0  0  0
   12.2367   -2.0805   23.0335 C   0  0  0  0  0  0  0  0  0  0  0  0
   10.7966   -0.4775   24.1260 C   0  0  0  0  0  0  0  0  0  0  0  0
   11.9065    0.3091   24.4347 C   0  0  0  0  0  0  0  0  0  0  0  0
   10.9618   -1.6723   23.4254 C   0  0  0  0  0  0  0  0  0  0  0  0
    7.1837   -5.3480   26.2609 C   0  0  0  0  0  0  0  0  0  0  0  0
    7.0877   -1.7536   26.6222 C   0  0  0  0  0  0  0  0  0  0  0  0
    6.0251   -2.0311   25.5397 C   0  0  0  0  0  0  0  0  0  0  0  0
    9.1828   -2.7288   25.5527 C   0  0  0  0  0  0  0  0  0  0  0  0
    7.4086   -3.1930   23.7444 C   0  0  0  0  0  0  0  0  0  0  0  0
    8.6619   -2.3719   24.1379 C   0  0  0  0  0  0  0  0  0  0  0  0
    8.0386   -2.9561   26.5610 C   0  0  2  0  0  0  0  0  0  0  0  0
    6.4322   -3.3742   24.9232 C   0  0  1  0  0  0  0  0  0  0  0  0
   11.7307    1.5875   25.1824 C   0  0  0  0  0  0  0  0  0  0  0  0
    9.7652   -2.5208   23.0931 C   0  0  0  0  0  0  0  0  0  0  0  0
    6.1698   -6.1596   25.4973 C   0  0  0  0  0  0  0  0  0  0  0  0
    7.1844   -3.9932   26.0002 N   0  0  0  0  0  0  0  0  0  0  0  0
    7.9519   -5.8985   27.0514 O   0  0  0  0  0  0  0  0  0  0  0  0
    4.7199   -6.2235   26.4939 Cl  0  0  0  0  0  0  0  0  0  0  0  0
   14.3393   -1.6117   23.0370 H   0  0  0  0  0  0  0  0  0  0  0  0
   14.0520    0.5075   24.2784 H   0  0  0  0  0  0  0  0  0  0  0  0
   12.3748   -3.0103   22.4880 H   0  0  0  0  0  0  0  0  0  0  0  0
    9.8024   -0.1592   24.4304 H   0  0  0  0  0  0  0  0  0  0  0  0
    7.5966   -0.7981   26.4596 H   0  0  0  0  0  0  0  0  0  0  0  0
    6.5984   -1.7077   27.6023 H   0  0  0  0  0  0  0  0  0  0  0  0
    5.0407   -2.1152   26.0152 H   0  0  0  0  0  0  0  0  0  0  0  0
    5.9704   -1.2225   24.8038 H   0  0  0  0  0  0  0  0  0  0  0  0
    9.7976   -3.6370   25.5033 H   0  0  0  0  0  0  0  0  0  0  0  0
    9.8392   -1.9259   25.9103 H   0  0  0  0  0  0  0  0  0  0  0  0
    6.8967   -2.6972   22.9106 H   0  0  0  0  0  0  0  0  0  0  0  0
    7.7124   -4.1837   23.3814 H   0  0  0  0  0  0  0  0  0  0  0  0
    8.3738   -1.3123   24.1483 H   0  0  0  0  0  0  0  0  0  0  0  0
    8.4367   -3.2197   27.5438 H   0  0  0  0  0  0  0  0  0  0  0  0
    5.5720   -3.9802   24.6230 H   0  0  0  0  0  0  0  0  0  0  0  0
   11.5740    2.4194   24.4850 H   0  0  0  0  0  0  0  0  0  0  0  0
   10.8702    1.5364   25.8621 H   0  0  0  0  0  0  0  0  0  0  0  0
   12.6102    1.8120   25.7999 H   0  0  0  0  0  0  0  0  0  0  0  0
    9.3742   -2.2456   22.1082 H   0  0  0  0  0  0  0  0  0  0  0  0
   10.0613   -3.5726   23.0229 H   0  0  0  0  0  0  0  0  0  0  0  0
    6.5605   -7.1597   25.3454 H   0  0  0  0  0  0  0  0  0  0  0  0
    5.9539   -5.6613   24.5587 H   0  0  0  0  0  0  0  0  0  0  0  0
  1  2  2  0  0  0  0
  1  3  1  0  0  0  0
  2  5  1  0  0  0  0
  3  6  2  0  0  0  0
  4  5  2  0  0  0  0
  4  6  1  0  0  0  0
  5 15  1  0  0  0  0
  6 16  1  0  0  0  0
  7 17  1  0  0  0  0
  7 18  1  0  0  0  0
  7 19  2  0  0  0  0
  8  9  1  0  0  0  0
  8 13  1  0  0  0  0
  9 14  1  0  0  0  0
 10 12  1  0  0  0  0
 10 13  1  0  0  0  0
 11 12  1  0  0  0  0
 11 14  1  0  0  0  0
 12 16  1  0  0  0  0
 13 18  1  0  0  0  0
 14 18  1  0  0  0  0
 17 20  1  0  0  0  0
  1 21  1  0  0  0  0
  2 22  1  0  0  0  0
  3 23  1  0  0  0  0
  4 24  1  0  0  0  0
  8 25  1  0  0  0  0
  8 26  1  0  0  0  0
  9 27  1  0  0  0  0
  9 28  1  0  0  0  0
 10 29  1  0  0  0  0
 10 30  1  0  0  0  0
 11 31  1  0  0  0  0
 11 32  1  0  0  0  0
 12 33  1  0  0  0  0
 13 34  1  0  0  0  0
 14 35  1  0  0  0  0
 15 36  1  0  0  0  0
 15 37  1  0  0  0  0
 15 38  1  0  0  0  0
 16 39  1  0  0  0  0
 16 40  1  0  0  0  0
 17 41  1  0  0  0  0
 17 42  1  0  0  0  0
M  END
> <creator>
Maksym Voznyy

> <fragments>
x0072

> <real_space>
FALSE

> <SCR>
FALSE

> <BB>
FALSE

> <link>
https://covid.postera.ai/covid/submissions/af83ef51-35cf-489e-b3bd-9012d86d8275

> <covalent_frag>
TRUE

> <covalent_warhead>
TRUE

> <acrylamide>
FALSE

> <acrylamide_adduct>
FALSE

> <chloroacetamide>
TRUE

> <chloroacetamide_adduct>
FALSE

> <vinylsulfonamide>
FALSE

> <vinylsulfonamide_adduct>
FALSE

> <in_molport_or_mcule>
FALSE

> <in_emolecules>
FALSE

> <Hybrid2>
-8.368351

> <Mpro-x0072_dock>
-8.368351

> <Mpro-x0161_dock>
-7.587638

> <Mpro-x0104_dock>
-7.32944

> <Mpro-x0195_dock>
-6.535265

> <Mpro-x0692_dock>
-6.004552

> <Mpro-x0387_dock>
-5.960294

> <Mpro-x0305_dock>
-4.851583

> <site>
active-noncovalent

> <covalent_distance_min>
8.485125

> <covalent_distance_mean>
10.363577

> <covalent_distance_stderr>
0.14186022

$$$$
MIH-UNI-e57-4
  -OEChem-04062011563D

 46 48  0     0  0  0  0  0  0999 V2000
   13.5897   -0.0346   22.2522 C   0  0  0  0  0  0  0  0  0  0  0  0
   13.2345    1.1602   22.8788 C   0  0  0  0  0  0  0  0  0  0  0  0
   11.7112    2.4288   24.3185 C   0  0  0  0  0  0  0  0  0  0  0  0
   12.8012   -1.1694   22.4177 C   0  0  0  0  0  0  0  0  0  0  0  0
   10.5645    2.4845   25.1112 C   0  0  0  0  0  0  0  0  0  0  0  0
   10.1310    0.1549   24.6501 C   0  0  0  0  0  0  0  0  0  0  0  0
   12.0837    1.2345   23.6803 C   0  0  0  0  0  0  0  0  0  0  0  0
   11.2819    0.0806   23.8486 C   0  0  0  0  0  0  0  0  0  0  0  0
   11.6545   -1.1137   23.2104 C   0  0  0  0  0  0  0  0  0  0  0  0
    9.7759    1.3498   25.2767 C   0  0  0  0  0  0  0  0  0  0  0  0
    6.0858   -3.7598   20.8830 C   0  0  0  0  0  0  0  0  0  0  0  0
    7.0929   -2.9839   23.0054 C   0  0  0  0  0  0  0  0  0  0  0  0
    7.9308   -2.0095   20.9027 C   0  0  0  0  0  0  0  0  0  0  0  0
    8.5162   -3.2504   23.4732 C   0  0  0  0  0  0  0  0  0  0  0  0
    9.3678   -2.2598   21.3399 C   0  0  0  0  0  0  0  0  0  0  0  0
   10.8506   -2.3732   23.3458 C   0  0  0  0  0  0  0  0  0  0  0  0
    5.7081   -5.0543   21.5577 C   0  0  0  0  0  0  0  0  0  0  0  0
    7.0155   -2.9589   21.5448 N   0  0  0  0  0  0  0  0  0  0  0  0
    7.7710   -0.1823   26.1357 N   0  0  0  0  0  0  0  0  0  0  0  0
    9.4394   -2.2272   22.8502 N   0  3  0  0  0  0  0  0  0  0  0  0
    5.5673   -3.4697   19.8018 O   0  0  0  0  0  0  0  0  0  0  0  0
    8.7483    1.6632   27.6471 O   0  0  0  0  0  0  0  0  0  0  0  0
    7.3827    2.3143   25.6325 O   0  0  0  0  0  0  0  0  0  0  0  0
    8.3414    1.4226   26.2699 S   0  0  0  0  0  0  0  0  0  0  0  0
    7.1841   -6.0043   21.6871 Cl  0  0  0  0  0  0  0  0  0  0  0  0
   14.4823   -0.0780   21.6350 H   0  0  0  0  0  0  0  0  0  0  0  0
   13.8661    2.0349   22.7359 H   0  0  0  0  0  0  0  0  0  0  0  0
   12.3128    3.3277   24.2026 H   0  0  0  0  0  0  0  0  0  0  0  0
   13.0885   -2.0943   21.9242 H   0  0  0  0  0  0  0  0  0  0  0  0
   10.2962    3.4204   25.5946 H   0  0  0  0  0  0  0  0  0  0  0  0
    9.4964   -0.7167   24.7971 H   0  0  0  0  0  0  0  0  0  0  0  0
    6.4242   -3.7466   23.4167 H   0  0  0  0  0  0  0  0  0  0  0  0
    6.7399   -2.0117   23.3705 H   0  0  0  0  0  0  0  0  0  0  0  0
    7.6096   -1.0016   21.1924 H   0  0  0  0  0  0  0  0  0  0  0  0
    7.8743   -2.0619   19.8141 H   0  0  0  0  0  0  0  0  0  0  0  0
    8.5930   -3.1406   24.5597 H   0  0  0  0  0  0  0  0  0  0  0  0
    8.8669   -4.2453   23.1766 H   0  0  0  0  0  0  0  0  0  0  0  0
    9.7338   -3.2373   21.0065 H   0  0  0  0  0  0  0  0  0  0  0  0
   10.0281   -1.4710   20.9651 H   0  0  0  0  0  0  0  0  0  0  0  0
   11.3007   -3.1934   22.7763 H   0  0  0  0  0  0  0  0  0  0  0  0
   10.7853   -2.6901   24.3923 H   0  0  0  0  0  0  0  0  0  0  0  0
    4.9839   -5.5740   20.9407 H   0  0  0  0  0  0  0  0  0  0  0  0
    5.3185   -4.8352   22.5452 H   0  0  0  0  0  0  0  0  0  0  0  0
    7.8544   -0.7936   26.9571 H   0  0  0  0  0  0  0  0  0  0  0  0
    6.9232   -0.3476   25.5796 H   0  0  0  0  0  0  0  0  0  0  0  0
    9.1176   -1.2974   23.1528 H   0  0  0  0  0  0  0  0  0  0  0  0
  1  2  2  0  0  0  0
  1  4  1  0  0  0  0
  2  7  1  0  0  0  0
  3  5  2  0  0  0  0
  3  7  1  0  0  0  0
  4  9  2  0  0  0  0
  5 10  1  0  0  0  0
  6  8  1  0  0  0  0
  6 10  2  0  0  0  0
  7  8  2  0  0  0  0
  8  9  1  0  0  0  0
  9 16  1  0  0  0  0
 10 24  1  0  0  0  0
 11 17  1  0  0  0  0
 11 18  1  0  0  0  0
 11 21  2  0  0  0  0
 12 14  1  0  0  0  0
 12 18  1  0  0  0  0
 13 15  1  0  0  0  0
 13 18  1  0  0  0  0
 14 20  1  0  0  0  0
 15 20  1  0  0  0  0
 16 20  1  0  0  0  0
 17 25  1  0  0  0  0
 19 24  1  0  0  0  0
 22 24  2  0  0  0  0
 23 24  2  0  0  0  0
  1 26  1  0  0  0  0
  2 27  1  0  0  0  0
  3 28  1  0  0  0  0
  4 29  1  0  0  0  0
  5 30  1  0  0  0  0
  6 31  1  0  0  0  0
 12 32  1  0  0  0  0
 12 33  1  0  0  0  0
 13 34  1  0  0  0  0
 13 35  1  0  0  0  0
 14 36  1  0  0  0  0
 14 37  1  0  0  0  0
 15 38  1  0  0  0  0
 15 39  1  0  0  0  0
 16 40  1  0  0  0  0
 16 41  1  0  0  0  0
 17 42  1  0  0  0  0
 17 43  1  0  0  0  0
 19 44  1  0  0  0  0
 19 45  1  0  0  0  0
 20 46  1  0  0  0  0
M  CHG  1  20   1
M  END
> <creator>
Mihaela Smilova, University of Oxford

> <fragments>
x0830

> <real_space>
FALSE

> <SCR>
FALSE

> <BB>
FALSE

> <link>
https://covid.postera.ai/covid/submissions/e573136b-dbda-4fa9-8a0d-95e3d7d1615f

> <covalent_frag>
TRUE

> <covalent_warhead>
TRUE

> <acrylamide>
FALSE

> <acrylamide_adduct>
FALSE

> <chloroacetamide>
TRUE

> <chloroacetamide_adduct>
FALSE

> <vinylsulfonamide>
FALSE

> <vinylsulfonamide_adduct>
FALSE

> <in_molport_or_mcule>
FALSE

> <in_emolecules>
FALSE

> <Hybrid2>
-8.354447

> <Mpro-x0830_dock>
-8.354447

> <Mpro-x0072_dock>
-7.922699

> <Mpro-x1093_dock>
-7.378269

> <Mpro-x0874_dock>
-7.012408

> <Mpro-x0104_dock>
-6.979752

> <Mpro-x0107_dock>
-5.984561

> <Mpro-x0678_dock>
-5.106936

> <site>
active-covalent

> <covalent_distance_min>
3.0756335

> <covalent_distance_mean>
3.769388

> <covalent_distance_stderr>
0.027254548

$$$$
NIY-UNK-626-6
  -OEChem-04062011563D

 61 64  0     0  0  0  0  0  0999 V2000
   14.5989   -0.8813   21.7978 C   0  0  0  0  0  0  0  0  0  0  0  0
   13.4529   -1.6282   22.0679 C   0  0  0  0  0  0  0  0  0  0  0  0
   14.6933    0.4345   22.2431 C   0  0  0  0  0  0  0  0  0  0  0  0
   11.5377    6.0362   22.8220 C   0  0  0  0  0  0  0  0  0  0  0  0
   11.0607    6.4261   25.0632 C   0  0  0  0  0  0  0  0  0  0  0  0
   12.3944   -1.0658   22.7940 C   0  0  0  0  0  0  0  0  0  0  0  0
   12.4796    0.2682   23.2291 C   0  0  0  0  0  0  0  0  0  0  0  0
   13.6393    1.0074   22.9543 C   0  0  0  0  0  0  0  0  0  0  0  0
   10.5965    6.5310   23.7705 C   0  0  0  0  0  0  0  0  0  0  0  0
   12.6856    5.5722   23.4260 C   0  0  0  0  0  0  0  0  0  0  0  0
    8.8816    0.5753   24.4059 C   0  0  0  0  0  0  0  0  0  0  0  0
   11.1511   -1.8722   23.0582 C   0  0  0  0  0  0  0  0  0  0  0  0
   11.3550    0.9239   23.9937 C   0  0  0  0  0  0  0  0  0  0  0  0
    6.5503    5.8167   21.0483 C   0  0  0  0  0  0  0  0  0  0  0  0
    6.9869    4.0858   22.8208 C   0  0  0  0  0  0  0  0  0  0  0  0
   10.4138   -1.3596   24.2890 C   0  0  0  0  0  0  0  0  0  0  0  0
    7.3406    6.8365   21.8532 C   0  0  0  0  0  0  0  0  0  0  0  0
    7.7764    5.1095   23.6216 C   0  0  0  0  0  0  0  0  0  0  0  0
    5.9282    4.7490   21.9434 C   0  0  0  0  0  0  0  0  0  0  0  0
    9.2744    7.0919   23.4074 C   0  0  0  0  0  0  0  0  0  0  0  0
   13.7862    2.4245   23.4102 C   0  0  0  0  0  0  0  0  0  0  0  0
    7.7883   -0.4502   24.5806 C   0  0  0  0  0  0  0  0  0  0  0  0
   10.1673    0.0777   24.1801 N   0  0  0  0  0  0  0  0  0  0  0  0
   13.8064    5.0163   22.7154 N   0  0  0  0  0  0  0  0  0  0  0  0
    8.3845    6.1222   22.6796 N   0  3  0  0  0  0  0  0  0  0  0  0
    8.6028    1.7749   24.4734 O   0  0  0  0  0  0  0  0  0  0  0  0
   12.2308    3.3578   21.5455 O   0  0  0  0  0  0  0  0  0  0  0  0
   14.6996    3.1809   21.0776 O   0  0  0  0  0  0  0  0  0  0  0  0
    5.3033    3.7704   21.1209 O   0  0  0  0  0  0  0  0  0  0  0  0
   12.6255    5.7336   25.1297 S   0  0  0  0  0  0  0  0  0  0  0  0
   13.6102    3.4650   21.9987 S   0  0  0  0  0  0  0  0  0  0  0  0
    6.3035    0.4447   24.8822 Cl  0  0  0  0  0  0  0  0  0  0  0  0
   15.4183   -1.3269   21.2414 H   0  0  0  0  0  0  0  0  0  0  0  0
   13.3885   -2.6517   21.7073 H   0  0  0  0  0  0  0  0  0  0  0  0
   15.5940    1.0058   22.0335 H   0  0  0  0  0  0  0  0  0  0  0  0
   11.3791    6.0222   21.7505 H   0  0  0  0  0  0  0  0  0  0  0  0
   10.5595    6.7216   25.9745 H   0  0  0  0  0  0  0  0  0  0  0  0
   10.4770   -1.8140   22.1954 H   0  0  0  0  0  0  0  0  0  0  0  0
   11.4319   -2.9235   23.1954 H   0  0  0  0  0  0  0  0  0  0  0  0
   11.7282    1.2347   24.9738 H   0  0  0  0  0  0  0  0  0  0  0  0
   11.0152    1.8132   23.4495 H   0  0  0  0  0  0  0  0  0  0  0  0
    5.7614    6.3229   20.4785 H   0  0  0  0  0  0  0  0  0  0  0  0
    7.1974    5.3447   20.2972 H   0  0  0  0  0  0  0  0  0  0  0  0
    7.6657    3.4883   22.1981 H   0  0  0  0  0  0  0  0  0  0  0  0
    6.5073    3.3714   23.5006 H   0  0  0  0  0  0  0  0  0  0  0  0
    9.4367   -1.8480   24.3926 H   0  0  0  0  0  0  0  0  0  0  0  0
   10.9915   -1.5921   25.1896 H   0  0  0  0  0  0  0  0  0  0  0  0
    7.8661    7.5282   21.1889 H   0  0  0  0  0  0  0  0  0  0  0  0
    6.7001    7.3979   22.5407 H   0  0  0  0  0  0  0  0  0  0  0  0
    7.1410    5.6527   24.3277 H   0  0  0  0  0  0  0  0  0  0  0  0
    8.5979    4.6269   24.1588 H   0  0  0  0  0  0  0  0  0  0  0  0
    5.1529    5.2040   22.5712 H   0  0  0  0  0  0  0  0  0  0  0  0
    8.7040    7.4164   24.2931 H   0  0  0  0  0  0  0  0  0  0  0  0
    9.3639    7.9706   22.7478 H   0  0  0  0  0  0  0  0  0  0  0  0
   14.7689    2.6149   23.8523 H   0  0  0  0  0  0  0  0  0  0  0  0
   13.0174    2.7049   24.1368 H   0  0  0  0  0  0  0  0  0  0  0  0
    8.0269   -1.0748   25.4333 H   0  0  0  0  0  0  0  0  0  0  0  0
    7.6982   -1.0251   23.6665 H   0  0  0  0  0  0  0  0  0  0  0  0
   14.7096    5.1680   23.1846 H   0  0  0  0  0  0  0  0  0  0  0  0
    8.9874    5.6040   22.0244 H   0  0  0  0  0  0  0  0  0  0  0  0
    4.9193    3.1089   21.7180 H   0  0  0  0  0  0  0  0  0  0  0  0
  1  2  2  0  0  0  0
  1  3  1  0  0  0  0
  2  6  1  0  0  0  0
  3  8  2  0  0  0  0
  4  9  1  0  0  0  0
  4 10  2  0  0  0  0
  5  9  2  0  0  0  0
  5 30  1  0  0  0  0
  6  7  2  0  0  0  0
  6 12  1  0  0  0  0
  7  8  1  0  0  0  0
  7 13  1  0  0  0  0
  8 21  1  0  0  0  0
  9 20  1  0  0  0  0
 10 24  1  0  0  0  0
 10 30  1  0  0  0  0
 11 22  1  0  0  0  0
 11 23  1  0  0  0  0
 11 26  2  0  0  0  0
 12 16  1  0  0  0  0
 13 23  1  0  0  0  0
 14 17  1  0  0  0  0
 14 19  1  0  0  0  0
 15 18  1  0  0  0  0
 15 19  1  0  0  0  0
 16 23  1  0  0  0  0
 17 25  1  0  0  0  0
 18 25  1  0  0  0  0
 19 29  1  0  0  0  0
 20 25  1  0  0  0  0
 21 31  1  0  0  0  0
 22 32  1  0  0  0  0
 24 31  1  0  0  0  0
 27 31  2  0  0  0  0
 28 31  2  0  0  0  0
  1 33  1  0  0  0  0
  2 34  1  0  0  0  0
  3 35  1  0  0  0  0
  4 36  1  0  0  0  0
  5 37  1  0  0  0  0
 12 38  1  0  0  0  0
 12 39  1  0  0  0  0
 13 40  1  0  0  0  0
 13 41  1  0  0  0  0
 14 42  1  0  0  0  0
 14 43  1  0  0  0  0
 15 44  1  0  0  0  0
 15 45  1  0  0  0  0
 16 46  1  0  0  0  0
 16 47  1  0  0  0  0
 17 48  1  0  0  0  0
 17 49  1  0  0  0  0
 18 50  1  0  0  0  0
 18 51  1  0  0  0  0
 19 52  1  0  0  0  0
 20 53  1  0  0  0  0
 20 54  1  0  0  0  0
 21 55  1  0  0  0  0
 21 56  1  0  0  0  0
 22 57  1  0  0  0  0
 22 58  1  0  0  0  0
 24 59  1  0  0  0  0
 25 60  1  0  0  0  0
 29 61  1  0  0  0  0
M  CHG  1  25   1
M  END
> <creator>
Niyaz Zaman

> <fragments>
x0195

> <real_space>
FALSE

> <SCR>
FALSE

> <BB>
FALSE

> <link>
https://covid.postera.ai/covid/submissions/62612a68-06cc-4f11-8abb-79197bdbf3d2

> <covalent_frag>
TRUE

> <covalent_warhead>
TRUE

> <acrylamide>
FALSE

> <acrylamide_adduct>
FALSE

> <chloroacetamide>
TRUE

> <chloroacetamide_adduct>
FALSE

> <vinylsulfonamide>
FALSE

> <vinylsulfonamide_adduct>
FALSE

> <in_molport_or_mcule>
FALSE

> <in_emolecules>
FALSE

> <Hybrid2>
-8.347075

> <Mpro-x0195_dock>
-8.347075

> <Mpro-x0387_dock>
-3.780727

> <Mpro-x0305_dock>
-0.720966

> <Mpro-x0736_dock>
-0.62425

> <Mpro-x0689_dock>
1.951909

> <Mpro-x1374_dock>
2.658042

> <site>
active-noncovalent

> <covalent_distance_min>
8.410488

> <covalent_distance_mean>
8.980874

> <covalent_distance_stderr>
0.08445042

$$$$
DAR-DIA-fb2-12
  -OEChem-04062011563D

 46 48  0     0  0  0  0  0  0999 V2000
   11.0807    1.6109   24.3241 C   0  0  0  0  0  0  0  0  0  0  0  0
   10.9465    2.9996   24.3232 C   0  0  0  0  0  0  0  0  0  0  0  0
   14.1386    1.1772   22.2647 C   0  0  0  0  0  0  0  0  0  0  0  0
   12.9278    3.1913   22.9574 C   0  0  0  0  0  0  0  0  0  0  0  0
   13.3510   -1.0002   22.9478 C   0  0  0  0  0  0  0  0  0  0  0  0
   12.1410    0.9930   23.6412 C   0  0  0  0  0  0  0  0  0  0  0  0
   13.0783    1.7951   22.9476 C   0  0  0  0  0  0  0  0  0  0  0  0
   12.2915   -0.4032   23.6315 C   0  0  0  0  0  0  0  0  0  0  0  0
   14.2727   -0.2115   22.2656 C   0  0  0  0  0  0  0  0  0  0  0  0
   11.8682    3.7883   23.6411 C   0  0  0  0  0  0  0  0  0  0  0  0
    6.5260   -2.9644   22.1513 C   0  0  0  0  0  0  0  0  0  0  0  0
    8.7433   -1.8524   21.5904 C   0  0  0  0  0  0  0  0  0  0  0  0
    8.6443   -3.7503   23.1596 C   0  0  0  0  0  0  0  0  0  0  0  0
    9.5995   -1.0639   22.5721 C   0  0  0  0  0  0  0  0  0  0  0  0
    9.4971   -2.9900   24.1647 C   0  0  0  0  0  0  0  0  0  0  0  0
   11.3366   -1.3115   24.3486 C   0  0  0  0  0  0  0  0  0  0  0  0
    5.7684   -3.4667   23.3543 C   0  0  0  0  0  0  0  0  0  0  0  0
    7.9063   -2.8304   22.2938 N   0  0  0  0  0  0  0  0  0  0  0  0
   13.0452    5.9845   22.6943 N   0  0  0  0  0  0  0  0  0  0  0  0
   10.3969   -2.0288   23.4207 N   0  3  0  0  0  0  0  0  0  0  0  0
    5.9082   -2.7020   21.1162 O   0  0  0  0  0  0  0  0  0  0  0  0
   10.4806    5.8720   22.9299 O   0  0  0  0  0  0  0  0  0  0  0  0
   11.9044    6.0077   25.0040 O   0  0  0  0  0  0  0  0  0  0  0  0
   15.2906   -0.7856   21.6107 F   0  0  0  0  0  0  0  0  0  0  0  0
   11.7012    5.5265   23.6447 S   0  0  0  0  0  0  0  0  0  0  0  0
    6.0850   -2.3296   24.6598 Cl  0  0  0  0  0  0  0  0  0  0  0  0
   10.3411    1.0292   24.8692 H   0  0  0  0  0  0  0  0  0  0  0  0
   10.1174    3.4545   24.8587 H   0  0  0  0  0  0  0  0  0  0  0  0
   14.8713    1.7738   21.7255 H   0  0  0  0  0  0  0  0  0  0  0  0
   13.6427    3.8181   22.4270 H   0  0  0  0  0  0  0  0  0  0  0  0
   13.4671   -2.0807   22.9427 H   0  0  0  0  0  0  0  0  0  0  0  0
    8.1262   -1.1635   21.0074 H   0  0  0  0  0  0  0  0  0  0  0  0
    9.3718   -2.4065   20.8843 H   0  0  0  0  0  0  0  0  0  0  0  0
    9.2755   -4.3728   22.5119 H   0  0  0  0  0  0  0  0  0  0  0  0
    7.9777   -4.4283   23.6980 H   0  0  0  0  0  0  0  0  0  0  0  0
   10.3153   -0.4303   22.0378 H   0  0  0  0  0  0  0  0  0  0  0  0
    8.9913   -0.4473   23.2441 H   0  0  0  0  0  0  0  0  0  0  0  0
    8.8871   -2.4075   24.8636 H   0  0  0  0  0  0  0  0  0  0  0  0
   10.1428   -3.6766   24.7210 H   0  0  0  0  0  0  0  0  0  0  0  0
   11.8718   -2.0830   24.9125 H   0  0  0  0  0  0  0  0  0  0  0  0
   10.7145   -0.7524   25.0558 H   0  0  0  0  0  0  0  0  0  0  0  0
    6.1406   -4.4499   23.6187 H   0  0  0  0  0  0  0  0  0  0  0  0
    4.7097   -3.4815   23.1219 H   0  0  0  0  0  0  0  0  0  0  0  0
   12.8666    6.3441   21.7487 H   0  0  0  0  0  0  0  0  0  0  0  0
   13.8386    6.4347   23.1667 H   0  0  0  0  0  0  0  0  0  0  0  0
   10.9829   -2.5868   22.7845 H   0  0  0  0  0  0  0  0  0  0  0  0
  1  2  2  0  0  0  0
  1  6  1  0  0  0  0
  2 10  1  0  0  0  0
  3  7  1  0  0  0  0
  3  9  2  0  0  0  0
  4  7  1  0  0  0  0
  4 10  2  0  0  0  0
  5  8  2  0  0  0  0
  5  9  1  0  0  0  0
  6  7  2  0  0  0  0
  6  8  1  0  0  0  0
  8 16  1  0  0  0  0
  9 24  1  0  0  0  0
 10 25  1  0  0  0  0
 11 17  1  0  0  0  0
 11 18  1  0  0  0  0
 11 21  2  0  0  0  0
 12 14  1  0  0  0  0
 12 18  1  0  0  0  0
 13 15  1  0  0  0  0
 13 18  1  0  0  0  0
 14 20  1  0  0  0  0
 15 20  1  0  0  0  0
 16 20  1  0  0  0  0
 17 26  1  0  0  0  0
 19 25  1  0  0  0  0
 22 25  2  0  0  0  0
 23 25  2  0  0  0  0
  1 27  1  0  0  0  0
  2 28  1  0  0  0  0
  3 29  1  0  0  0  0
  4 30  1  0  0  0  0
  5 31  1  0  0  0  0
 12 32  1  0  0  0  0
 12 33  1  0  0  0  0
 13 34  1  0  0  0  0
 13 35  1  0  0  0  0
 14 36  1  0  0  0  0
 14 37  1  0  0  0  0
 15 38  1  0  0  0  0
 15 39  1  0  0  0  0
 16 40  1  0  0  0  0
 16 41  1  0  0  0  0
 17 42  1  0  0  0  0
 17 43  1  0  0  0  0
 19 44  1  0  0  0  0
 19 45  1  0  0  0  0
 20 46  1  0  0  0  0
M  CHG  1  20   1
M  END
> <creator>
Daren Fearon, Diamond Light Source Ltd

> <fragments>
x0195

> <real_space>
FALSE

> <SCR>
FALSE

> <BB>
FALSE

> <link>
https://covid.postera.ai/covid/submissions/fb20be43-b2ad-4a19-a5ce-eb2fe8d462e2

> <covalent_frag>
TRUE

> <covalent_warhead>
TRUE

> <acrylamide>
FALSE

> <acrylamide_adduct>
FALSE

> <chloroacetamide>
TRUE

> <chloroacetamide_adduct>
FALSE

> <vinylsulfonamide>
FALSE

> <vinylsulfonamide_adduct>
FALSE

> <in_molport_or_mcule>
FALSE

> <in_emolecules>
FALSE

> <Hybrid2>
-8.322442

> <Mpro-x0195_dock>
-8.322442

> <Mpro-x0830_dock>
-7.41562

> <Mpro-x0104_dock>
-5.977081

> <Mpro-x0305_dock>
-5.002491

> <site>
active-noncovalent

> <covalent_distance_min>
4.8428373

> <covalent_distance_mean>
6.1744742

> <covalent_distance_stderr>
0.09042779

$$$$
DAV-CRI-eab-4
  -OEChem-04062011563D

 34 35  0     1  0  0  0  0  0999 V2000
   11.0287   -1.8970   22.2716 C   0  0  0  0  0  0  0  0  0  0  0  0
   12.0995   -0.4533   23.9114 C   0  0  0  0  0  0  0  0  0  0  0  0
   12.1585   -1.1459   22.7654 C   0  0  0  0  0  0  0  0  0  0  0  0
    9.8231   -1.8505   22.8659 C   0  0  0  0  0  0  0  0  0  0  0  0
    6.5102   -1.9697   21.3016 C   0  0  0  0  0  0  0  0  0  0  0  0
    8.6819    0.1956   23.8165 C   0  0  0  0  0  0  0  0  0  0  0  0
    8.9741    1.1331   24.9639 C   0  0  0  0  0  0  0  0  0  0  0  0
   10.8556   -0.4013   24.7491 C   0  0  2  0  0  0  0  0  0  0  0  0
    9.5834   -1.0092   24.1015 C   0  0  2  0  0  0  0  0  0  0  0  0
    8.0992   -3.5524   23.4144 C   0  0  0  0  0  0  0  0  0  0  0  0
    5.6641   -0.7664   20.9726 C   0  0  0  0  0  0  0  0  0  0  0  0
    8.6565   -2.6388   22.3447 C   0  0  1  0  0  0  0  0  0  0  0  0
    7.7091   -1.6471   21.9275 N   0  0  0  0  0  0  0  0  0  0  0  0
   10.4534    1.0105   25.1193 N   0  3  0  0  0  0  0  0  0  0  0  0
    6.1396   -3.1136   21.0433 O   0  0  0  0  0  0  0  0  0  0  0  0
   13.6191   -1.1883   21.8444 Cl  0  0  0  0  0  0  0  0  0  0  0  0
    6.1102   -0.2143   19.3505 Cl  0  0  0  0  0  0  0  0  0  0  0  0
   11.1773   -2.5109   21.3877 H   0  0  0  0  0  0  0  0  0  0  0  0
   12.9700    0.0867   24.2753 H   0  0  0  0  0  0  0  0  0  0  0  0
    7.6231   -0.0805   23.7814 H   0  0  0  0  0  0  0  0  0  0  0  0
    8.9401    0.6716   22.8620 H   0  0  0  0  0  0  0  0  0  0  0  0
    8.7276    2.1781   24.7618 H   0  0  0  0  0  0  0  0  0  0  0  0
    8.5208    0.8005   25.9029 H   0  0  0  0  0  0  0  0  0  0  0  0
   11.0540   -0.9064   25.7026 H   0  0  0  0  0  0  0  0  0  0  0  0
    9.0974   -1.6384   24.8611 H   0  0  0  0  0  0  0  0  0  0  0  0
    7.7768   -2.9915   24.2992 H   0  0  0  0  0  0  0  0  0  0  0  0
    7.2306   -4.1018   23.0362 H   0  0  0  0  0  0  0  0  0  0  0  0
    8.8513   -4.2788   23.7396 H   0  0  0  0  0  0  0  0  0  0  0  0
    4.5944   -0.9892   20.9848 H   0  0  0  0  0  0  0  0  0  0  0  0
    5.8711    0.0308   21.6917 H   0  0  0  0  0  0  0  0  0  0  0  0
    8.9766   -3.1996   21.4653 H   0  0  0  0  0  0  0  0  0  0  0  0
    7.9234   -0.6638   22.0968 H   0  0  0  0  0  0  0  0  0  0  0  0
   10.9147    1.6856   24.4934 H   0  0  0  0  0  0  0  0  0  0  0  0
   10.7522    1.2489   26.0750 H   0  0  0  0  0  0  0  0  0  0  0  0
  1  3  1  0  0  0  0
  1  4  2  0  0  0  0
  2  3  2  0  0  0  0
  2  8  1  0  0  0  0
  3 16  1  0  0  0  0
  4  9  1  0  0  0  0
  4 12  1  0  0  0  0
  5 11  1  0  0  0  0
  5 13  1  0  0  0  0
  5 15  2  0  0  0  0
  6  7  1  0  0  0  0
  6  9  1  0  0  0  0
  7 14  1  0  0  0  0
  8  9  1  0  0  0  0
  8 14  1  0  0  0  0
 10 12  1  0  0  0  0
 11 17  1  0  0  0  0
 12 13  1  0  0  0  0
  1 18  1  0  0  0  0
  2 19  1  0  0  0  0
  6 20  1  0  0  0  0
  6 21  1  0  0  0  0
  7 22  1  0  0  0  0
  7 23  1  0  0  0  0
  8 24  1  0  0  0  0
  9 25  1  0  0  0  0
 10 26  1  0  0  0  0
 10 27  1  0  0  0  0
 10 28  1  0  0  0  0
 11 29  1  0  0  0  0
 11 30  1  0  0  0  0
 12 31  1  0  0  0  0
 13 32  1  0  0  0  0
 14 33  1  0  0  0  0
 14 34  1  0  0  0  0
M  CHG  1  14   1
M  END
> <creator>
David Briggs, Crick Institute

> <fragments>
x0831

> <real_space>
FALSE

> <SCR>
FALSE

> <BB>
FALSE

> <link>
https://covid.postera.ai/covid/submissions/eab5efcb-b199-4c70-afb4-8b9adb33206d

> <covalent_frag>
TRUE

> <covalent_warhead>
TRUE

> <acrylamide>
FALSE

> <acrylamide_adduct>
FALSE

> <chloroacetamide>
TRUE

> <chloroacetamide_adduct>
FALSE

> <vinylsulfonamide>
FALSE

> <vinylsulfonamide_adduct>
FALSE

> <in_molport_or_mcule>
FALSE

> <in_emolecules>
FALSE

> <Hybrid2>
-8.275120

> <Mpro-x0831_dock>
-8.27512

> <Mpro-x1382_dock>
-6.386034

> <site>
active-covalent

> <covalent_distance_min>
3.0322764

> <covalent_distance_mean>
3.6282809

> <covalent_distance_stderr>
0.030340716

$$$$
HAR-NEW-972-2
  -OEChem-04062011563D

 44 46  0     1  0  0  0  0  0999 V2000
   11.2495   -1.7794   25.1859 C   0  0  0  0  0  0  0  0  0  0  0  0
   11.9545   -2.9661   25.2075 C   0  0  0  0  0  0  0  0  0  0  0  0
    9.7413   -3.0944   24.2979 C   0  0  0  0  0  0  0  0  0  0  0  0
    6.3120   -3.1518   20.7709 C   0  0  0  0  0  0  0  0  0  0  0  0
   11.8008   -0.5015   25.7130 C   0  0  0  0  0  0  0  0  0  0  0  0
   13.3523   -3.1327   25.7002 C   0  0  0  0  0  0  0  0  0  0  0  0
   13.3285   -0.5816   25.8866 C   0  0  0  0  0  0  0  0  0  0  0  0
    6.8186   -5.4964   23.4135 C   0  0  0  0  0  0  0  0  0  0  0  0
    8.1212   -5.0316   24.0669 C   0  0  0  0  0  0  0  0  0  0  0  0
    6.8520   -5.2852   21.9025 C   0  0  0  0  0  0  0  0  0  0  0  0
    8.4387   -3.4081   22.1456 C   0  0  0  0  0  0  0  0  0  0  0  0
    8.4415   -3.5770   23.6749 C   0  0  2  0  0  0  0  0  0  0  0  0
   13.7677   -1.9082   26.5526 C   0  0  2  0  0  0  0  0  0  0  0  0
    6.7134   -1.7264   20.4865 C   0  0  0  0  0  0  0  0  0  0  0  0
   15.2750   -1.9173   26.7987 C   0  0  0  0  0  0  0  0  0  0  0  0
    9.9736   -1.8526   24.6677 N   0  0  0  0  0  0  0  0  0  0  0  0
    7.1733   -3.8941   21.5778 N   0  0  0  0  0  0  0  0  0  0  0  0
   15.5737   -1.0306   27.9415 N   0  3  0  0  0  0  0  0  0  0  0  0
    5.2629   -3.5896   20.2915 O   0  0  0  0  0  0  0  0  0  0  0  0
   11.0144   -4.2231   24.5501 S   0  0  0  0  0  0  0  0  0  0  0  0
    5.9752   -0.7354   21.7398 Cl  0  0  0  0  0  0  0  0  0  0  0  0
   11.5489    0.3275   25.0427 H   0  0  0  0  0  0  0  0  0  0  0  0
   11.3346   -0.2933   26.6835 H   0  0  0  0  0  0  0  0  0  0  0  0
   13.4485   -4.0459   26.2993 H   0  0  0  0  0  0  0  0  0  0  0  0
   14.0204   -3.2326   24.8355 H   0  0  0  0  0  0  0  0  0  0  0  0
   13.8097   -0.4949   24.9032 H   0  0  0  0  0  0  0  0  0  0  0  0
   13.6661    0.2751   26.4820 H   0  0  0  0  0  0  0  0  0  0  0  0
    6.6557   -6.5573   23.6346 H   0  0  0  0  0  0  0  0  0  0  0  0
    5.9730   -4.9454   23.8432 H   0  0  0  0  0  0  0  0  0  0  0  0
    8.0383   -5.1226   25.1570 H   0  0  0  0  0  0  0  0  0  0  0  0
    8.9389   -5.6960   23.7572 H   0  0  0  0  0  0  0  0  0  0  0  0
    7.6228   -5.9157   21.4434 H   0  0  0  0  0  0  0  0  0  0  0  0
    5.8905   -5.5761   21.4680 H   0  0  0  0  0  0  0  0  0  0  0  0
    8.6263   -2.3635   21.8860 H   0  0  0  0  0  0  0  0  0  0  0  0
    9.2434   -3.9959   21.6848 H   0  0  0  0  0  0  0  0  0  0  0  0
    7.6365   -2.9242   24.0915 H   0  0  0  0  0  0  0  0  0  0  0  0
   13.2651   -1.9778   27.5275 H   0  0  0  0  0  0  0  0  0  0  0  0
    6.3310   -1.4411   19.5130 H   0  0  0  0  0  0  0  0  0  0  0  0
    7.7933   -1.6484   20.5380 H   0  0  0  0  0  0  0  0  0  0  0  0
   15.8141   -1.5352   25.9340 H   0  0  0  0  0  0  0  0  0  0  0  0
   15.6224   -2.9162   27.0557 H   0  0  0  0  0  0  0  0  0  0  0  0
   14.7150   -0.7540   28.4342 H   0  0  0  0  0  0  0  0  0  0  0  0
   16.0454   -0.1707   27.6330 H   0  0  0  0  0  0  0  0  0  0  0  0
   16.1876   -1.4942   28.6235 H   0  0  0  0  0  0  0  0  0  0  0  0
  1  2  2  0  0  0  0
  1  5  1  0  0  0  0
  1 16  1  0  0  0  0
  2  6  1  0  0  0  0
  2 20  1  0  0  0  0
  3 12  1  0  0  0  0
  3 16  2  0  0  0  0
  3 20  1  0  0  0  0
  4 14  1  0  0  0  0
  4 17  1  0  0  0  0
  4 19  2  0  0  0  0
  5  7  1  0  0  0  0
  6 13  1  0  0  0  0
  7 13  1  0  0  0  0
  8  9  1  0  0  0  0
  8 10  1  0  0  0  0
  9 12  1  0  0  0  0
 10 17  1  0  0  0  0
 11 12  1  0  0  0  0
 11 17  1  0  0  0  0
 13 15  1  0  0  0  0
 14 21  1  0  0  0  0
 15 18  1  0  0  0  0
  5 22  1  0  0  0  0
  5 23  1  0  0  0  0
  6 24  1  0  0  0  0
  6 25  1  0  0  0  0
  7 26  1  0  0  0  0
  7 27  1  0  0  0  0
  8 28  1  0  0  0  0
  8 29  1  0  0  0  0
  9 30  1  0  0  0  0
  9 31  1  0  0  0  0
 10 32  1  0  0  0  0
 10 33  1  0  0  0  0
 11 34  1  0  0  0  0
 11 35  1  0  0  0  0
 12 36  1  0  0  0  0
 13 37  1  0  0  0  0
 14 38  1  0  0  0  0
 14 39  1  0  0  0  0
 15 40  1  0  0  0  0
 15 41  1  0  0  0  0
 18 42  1  0  0  0  0
 18 43  1  0  0  0  0
 18 44  1  0  0  0  0
M  CHG  1  18   1
M  END
> <creator>
Harriet Stanway-Gordon, Newcastle University

> <fragments>
x0749

> <real_space>
FALSE

> <SCR>
FALSE

> <BB>
FALSE

> <link>
https://covid.postera.ai/covid/submissions/972ef1cc-c982-4e98-8f85-722ab0ff6735

> <covalent_frag>
TRUE

> <covalent_warhead>
TRUE

> <acrylamide>
FALSE

> <acrylamide_adduct>
FALSE

> <chloroacetamide>
TRUE

> <chloroacetamide_adduct>
FALSE

> <vinylsulfonamide>
FALSE

> <vinylsulfonamide_adduct>
FALSE

> <in_molport_or_mcule>
FALSE

> <in_emolecules>
FALSE

> <Hybrid2>
-8.274970

> <Mpro-x0749_dock>
-8.27497

> <Mpro-x0107_dock>
-7.313594

> <Mpro-x0759_dock>
-7.04473

> <site>
active-covalent

> <covalent_distance_min>
3.0088375

> <covalent_distance_mean>
3.5399427

> <covalent_distance_stderr>
0.019395346

$$$$
DAR-DIA-cab-2
  -OEChem-04062011563D

 40 42  0     1  0  0  0  0  0999 V2000
    8.7491   -4.6689   25.4331 C   0  0  0  0  0  0  0  0  0  0  0  0
   10.0590   -4.2890   25.1609 C   0  0  0  0  0  0  0  0  0  0  0  0
   12.9579   -0.0091   22.8113 C   0  0  0  0  0  0  0  0  0  0  0  0
    7.6985   -4.1021   24.7146 C   0  0  0  0  0  0  0  0  0  0  0  0
   10.3190   -3.3299   24.1814 C   0  0  0  0  0  0  0  0  0  0  0  0
   11.9764   -0.9412   22.4743 C   0  0  0  0  0  0  0  0  0  0  0  0
   12.5987    1.1909   23.4251 C   0  0  0  0  0  0  0  0  0  0  0  0
   10.2766    0.5268   23.3648 C   0  0  0  0  0  0  0  0  0  0  0  0
   10.6358   -0.6732   22.7510 C   0  0  0  0  0  0  0  0  0  0  0  0
    7.9475   -3.1457   23.7178 C   0  0  0  0  0  0  0  0  0  0  0  0
    9.2700   -2.7228   23.4685 C   0  0  0  0  0  0  0  0  0  0  0  0
   11.2581    1.4589   23.7018 C   0  0  0  0  0  0  0  0  0  0  0  0
    6.5433   -2.1381   20.5276 C   0  0  0  0  0  0  0  0  0  0  0  0
    6.7786   -2.5748   22.9533 C   0  0  0  0  0  0  0  0  0  0  0  0
    8.2969   -0.9429   21.9235 C   0  0  0  0  0  0  0  0  0  0  0  0
    9.5642   -1.6907   22.3826 C   0  0  1  0  0  0  0  0  0  0  0  0
   11.9619    3.5370   24.6192 C   0  0  0  0  0  0  0  0  0  0  0  0
    7.0427   -1.3835   19.3213 C   0  0  0  0  0  0  0  0  0  0  0  0
    7.1948   -1.8859   21.7336 N   0  0  0  0  0  0  0  0  0  0  0  0
    5.6047   -2.9284   20.3999 O   0  0  0  0  0  0  0  0  0  0  0  0
   10.9078    2.6297   24.3013 O   0  0  0  0  0  0  0  0  0  0  0  0
    6.0952    0.0964   19.2262 Cl  0  0  0  0  0  0  0  0  0  0  0  0
    8.5452   -5.4056   26.2041 H   0  0  0  0  0  0  0  0  0  0  0  0
   10.8815   -4.7399   25.7094 H   0  0  0  0  0  0  0  0  0  0  0  0
   14.0016   -0.2180   22.5963 H   0  0  0  0  0  0  0  0  0  0  0  0
    6.6787   -4.4071   24.9362 H   0  0  0  0  0  0  0  0  0  0  0  0
   11.3522   -3.0568   23.9717 H   0  0  0  0  0  0  0  0  0  0  0  0
   12.2657   -1.8732   21.9960 H   0  0  0  0  0  0  0  0  0  0  0  0
   13.3679    1.9128   23.6851 H   0  0  0  0  0  0  0  0  0  0  0  0
    9.2321    0.7386   23.5815 H   0  0  0  0  0  0  0  0  0  0  0  0
    6.1180   -3.3861   22.6500 H   0  0  0  0  0  0  0  0  0  0  0  0
    6.2376   -1.8929   23.6025 H   0  0  0  0  0  0  0  0  0  0  0  0
    8.0302   -0.1604   22.6312 H   0  0  0  0  0  0  0  0  0  0  0  0
    8.4728   -0.4720   20.9548 H   0  0  0  0  0  0  0  0  0  0  0  0
    9.9511   -2.2311   21.4811 H   0  0  0  0  0  0  0  0  0  0  0  0
   11.5452    4.4294   25.0927 H   0  0  0  0  0  0  0  0  0  0  0  0
   12.4954    3.8117   23.7058 H   0  0  0  0  0  0  0  0  0  0  0  0
   12.6538    3.0500   25.3105 H   0  0  0  0  0  0  0  0  0  0  0  0
    6.8789   -1.9883   18.4370 H   0  0  0  0  0  0  0  0  0  0  0  0
    8.0904   -1.1470   19.4649 H   0  0  0  0  0  0  0  0  0  0  0  0
  1  2  1  0  0  0  0
  1  4  2  0  0  0  0
  2  5  2  0  0  0  0
  3  6  1  0  0  0  0
  3  7  2  0  0  0  0
  4 10  1  0  0  0  0
  5 11  1  0  0  0  0
  6  9  2  0  0  0  0
  7 12  1  0  0  0  0
  8  9  1  0  0  0  0
  8 12  2  0  0  0  0
  9 16  1  0  0  0  0
 10 11  2  0  0  0  0
 10 14  1  0  0  0  0
 11 16  1  0  0  0  0
 12 21  1  0  0  0  0
 13 18  1  0  0  0  0
 13 19  1  0  0  0  0
 13 20  2  0  0  0  0
 14 19  1  0  0  0  0
 15 16  1  0  0  0  0
 15 19  1  0  0  0  0
 17 21  1  0  0  0  0
 18 22  1  0  0  0  0
  1 23  1  0  0  0  0
  2 24  1  0  0  0  0
  3 25  1  0  0  0  0
  4 26  1  0  0  0  0
  5 27  1  0  0  0  0
  6 28  1  0  0  0  0
  7 29  1  0  0  0  0
  8 30  1  0  0  0  0
 14 31  1  0  0  0  0
 14 32  1  0  0  0  0
 15 33  1  0  0  0  0
 15 34  1  0  0  0  0
 16 35  1  0  0  0  0
 17 36  1  0  0  0  0
 17 37  1  0  0  0  0
 17 38  1  0  0  0  0
 18 39  1  0  0  0  0
 18 40  1  0  0  0  0
M  END
> <creator>
Daren Fearon, Diamond Light Source Ltd

> <fragments>
x0830

> <real_space>
FALSE

> <SCR>
FALSE

> <BB>
FALSE

> <link>
https://covid.postera.ai/covid/submissions/caba39e3-6989-456c-b896-1cac12e2588e

> <covalent_frag>
TRUE

> <covalent_warhead>
TRUE

> <acrylamide>
FALSE

> <acrylamide_adduct>
FALSE

> <chloroacetamide>
TRUE

> <chloroacetamide_adduct>
FALSE

> <vinylsulfonamide>
FALSE

> <vinylsulfonamide_adduct>
FALSE

> <in_molport_or_mcule>
FALSE

> <in_emolecules>
FALSE

> <Hybrid2>
-8.254995

> <Mpro-x0830_dock>
-8.254995

> <Mpro-x1392_dock>
-8.103967

> <Mpro-x0195_dock>
-7.771151

> <Mpro-x0305_dock>
-4.781939

> <Mpro-x1249_dock>
-3.963564

> <site>
active-covalent

> <covalent_distance_min>
3.0078201

> <covalent_distance_mean>
3.6876483

> <covalent_distance_stderr>
0.076965734

$$$$
PAU-WEI-f73-1
  -OEChem-04062011563D

 59 62  0     1  0  0  0  0  0999 V2000
   13.5966   -0.0638   22.3485 C   0  0  0  0  0  0  0  0  0  0  0  0
   13.3554    1.1742   22.9553 C   0  0  0  0  0  0  0  0  0  0  0  0
   12.5552   -0.9608   22.1194 C   0  0  0  0  0  0  0  0  0  0  0  0
    9.0212   -1.1359   19.9179 C   0  0  0  0  0  0  0  0  0  0  0  0
    7.8520   -0.5064   19.4013 C   0  0  0  0  0  0  0  0  0  0  0  0
   10.0978    2.3957   24.0763 C   0  0  0  0  0  0  0  0  0  0  0  0
   12.0404    1.5086   23.3355 C   0  0  0  0  0  0  0  0  0  0  0  0
   11.2429   -0.6510   22.4881 C   0  0  0  0  0  0  0  0  0  0  0  0
   11.4459    2.6428   23.9560 C   0  0  0  0  0  0  0  0  0  0  0  0
   11.0166    0.5901   23.0936 C   0  0  0  0  0  0  0  0  0  0  0  0
    9.0638   -1.0986   21.2943 C   0  0  0  0  0  0  0  0  0  0  0  0
    7.0453   -0.0120   20.4027 C   0  0  0  0  0  0  0  0  0  0  0  0
    9.3238   -5.3547   26.2649 C   0  0  0  0  0  0  0  0  0  0  0  0
   10.3252    6.0008   23.1260 C   0  0  0  0  0  0  0  0  0  0  0  0
    9.9427   -3.0063   25.7927 C   0  0  0  0  0  0  0  0  0  0  0  0
    8.1259   -4.0132   24.4667 C   0  0  0  0  0  0  0  0  0  0  0  0
   10.6102   -2.4920   24.5256 C   0  0  0  0  0  0  0  0  0  0  0  0
    8.7655   -3.5121   23.1789 C   0  0  0  0  0  0  0  0  0  0  0  0
    9.2246    6.3813   22.1921 C   0  0  0  0  0  0  0  0  0  0  0  0
   12.1415    3.8691   24.3964 C   0  0  0  0  0  0  0  0  0  0  0  0
    8.1186   -6.2413   26.4522 C   0  0  0  0  0  0  0  0  0  0  0  0
   12.5132    4.8260   23.2492 C   0  0  0  0  0  0  0  0  0  0  0  0
   10.1311   -1.6529   22.2230 C   0  0  2  0  0  0  0  0  0  0  0  0
    9.8485    1.1551   23.5536 N   0  0  0  0  0  0  0  0  0  0  0  0
    9.1345   -4.1939   25.5162 N   0  0  0  0  0  0  0  0  0  0  0  0
   11.3551    5.2888   22.5325 N   0  0  0  0  0  0  0  0  0  0  0  0
    9.5512   -2.2537   23.4725 N   0  3  0  0  0  0  0  0  0  0  0  0
   10.4005   -5.6866   26.7674 O   0  0  0  0  0  0  0  0  0  0  0  0
   10.2564    6.3265   24.3054 O   0  0  0  0  0  0  0  0  0  0  0  0
    7.6980   -0.3071   21.9581 S   0  0  0  0  0  0  0  0  0  0  0  0
    6.9169   -5.2834   27.3101 Cl  0  0  0  0  0  0  0  0  0  0  0  0
    5.4009    0.8923   20.1102 Br  0  0  0  0  0  0  0  0  0  0  0  0
   14.6091   -0.3273   22.0537 H   0  0  0  0  0  0  0  0  0  0  0  0
   14.1785    1.8619   23.1266 H   0  0  0  0  0  0  0  0  0  0  0  0
   12.7753   -1.9154   21.6469 H   0  0  0  0  0  0  0  0  0  0  0  0
    9.7900   -1.5919   19.3071 H   0  0  0  0  0  0  0  0  0  0  0  0
    7.6234   -0.4256   18.3459 H   0  0  0  0  0  0  0  0  0  0  0  0
    9.2928    2.9897   24.4865 H   0  0  0  0  0  0  0  0  0  0  0  0
   10.7066   -3.2231   26.5459 H   0  0  0  0  0  0  0  0  0  0  0  0
    9.2759   -2.2455   26.2164 H   0  0  0  0  0  0  0  0  0  0  0  0
    7.3935   -3.2877   24.8412 H   0  0  0  0  0  0  0  0  0  0  0  0
    7.5831   -4.9371   24.2601 H   0  0  0  0  0  0  0  0  0  0  0  0
   11.1068   -1.5342   24.7117 H   0  0  0  0  0  0  0  0  0  0  0  0
   11.3322   -3.2101   24.1207 H   0  0  0  0  0  0  0  0  0  0  0  0
    9.4554   -4.2475   22.7502 H   0  0  0  0  0  0  0  0  0  0  0  0
    7.9980   -3.2529   22.4424 H   0  0  0  0  0  0  0  0  0  0  0  0
    8.4334    5.6161   22.1406 H   0  0  0  0  0  0  0  0  0  0  0  0
    8.7138    7.3079   22.4995 H   0  0  0  0  0  0  0  0  0  0  0  0
    9.5307    6.5522   21.1477 H   0  0  0  0  0  0  0  0  0  0  0  0
   13.0738    3.6050   24.9335 H   0  0  0  0  0  0  0  0  0  0  0  0
   11.5406    4.4275   25.1423 H   0  0  0  0  0  0  0  0  0  0  0  0
    8.4039   -7.1009   27.0480 H   0  0  0  0  0  0  0  0  0  0  0  0
    7.7394   -6.5291   25.4784 H   0  0  0  0  0  0  0  0  0  0  0  0
   13.0248    5.7155   23.6303 H   0  0  0  0  0  0  0  0  0  0  0  0
   13.1740    4.3351   22.5273 H   0  0  0  0  0  0  0  0  0  0  0  0
   10.5914   -2.5276   21.7439 H   0  0  0  0  0  0  0  0  0  0  0  0
    8.9381    0.7183   23.5117 H   0  0  0  0  0  0  0  0  0  0  0  0
   11.2887    5.0824   21.5370 H   0  0  0  0  0  0  0  0  0  0  0  0
    8.8907   -1.5608   23.8512 H   0  0  0  0  0  0  0  0  0  0  0  0
  1  2  2  0  0  0  0
  1  3  1  0  0  0  0
  2  7  1  0  0  0  0
  3  8  2  0  0  0  0
  4  5  1  0  0  0  0
  4 11  2  0  0  0  0
  5 12  2  0  0  0  0
  6  9  2  0  0  0  0
  6 24  1  0  0  0  0
  7  9  1  0  0  0  0
  7 10  2  0  0  0  0
  8 10  1  0  0  0  0
  8 23  1  0  0  0  0
  9 20  1  0  0  0  0
 10 24  1  0  0  0  0
 11 23  1  0  0  0  0
 11 30  1  0  0  0  0
 12 30  1  0  0  0  0
 12 32  1  0  0  0  0
 13 21  1  0  0  0  0
 13 25  1  0  0  0  0
 13 28  2  0  0  0  0
 14 19  1  0  0  0  0
 14 26  1  0  0  0  0
 14 29  2  0  0  0  0
 15 17  1  0  0  0  0
 15 25  1  0  0  0  0
 16 18  1  0  0  0  0
 16 25  1  0  0  0  0
 17 27  1  0  0  0  0
 18 27  1  0  0  0  0
 20 22  1  0  0  0  0
 21 31  1  0  0  0  0
 22 26  1  0  0  0  0
 23 27  1  0  0  0  0
  1 33  1  0  0  0  0
  2 34  1  0  0  0  0
  3 35  1  0  0  0  0
  4 36  1  0  0  0  0
  5 37  1  0  0  0  0
  6 38  1  0  0  0  0
 15 39  1  0  0  0  0
 15 40  1  0  0  0  0
 16 41  1  0  0  0  0
 16 42  1  0  0  0  0
 17 43  1  0  0  0  0
 17 44  1  0  0  0  0
 18 45  1  0  0  0  0
 18 46  1  0  0  0  0
 19 47  1  0  0  0  0
 19 48  1  0  0  0  0
 19 49  1  0  0  0  0
 20 50  1  0  0  0  0
 20 51  1  0  0  0  0
 21 52  1  0  0  0  0
 21 53  1  0  0  0  0
 22 54  1  0  0  0  0
 22 55  1  0  0  0  0
 23 56  1  0  0  0  0
 24 57  1  0  0  0  0
 26 58  1  0  0  0  0
 27 59  1  0  0  0  0
M  CHG  1  27   1
M  END
> <creator>
Paul Gehrtz, Weizmann Institute

> <fragments>
x0104

> <real_space>
FALSE

> <SCR>
FALSE

> <BB>
FALSE

> <link>
https://covid.postera.ai/covid/submissions/f734c343-ab19-4bdf-8469-060177d375ae

> <covalent_frag>
TRUE

> <covalent_warhead>
TRUE

> <acrylamide>
FALSE

> <acrylamide_adduct>
FALSE

> <chloroacetamide>
TRUE

> <chloroacetamide_adduct>
FALSE

> <vinylsulfonamide>
FALSE

> <vinylsulfonamide_adduct>
FALSE

> <in_molport_or_mcule>
FALSE

> <in_emolecules>
FALSE

> <Hybrid2>
-8.244346

> <Mpro-x0104_dock>
-8.244346

> <Mpro-x1249_dock>
-4.485584

> <Mpro-x1385_dock>
-3.43194

> <Mpro-x0305_dock>
-1.927304

> <Mpro-x0830_dock>
0.225976

> <site>
active-noncovalent

> <covalent_distance_min>
9.074199

> <covalent_distance_mean>
9.783028

> <covalent_distance_stderr>
0.059112582

$$$$
JAN-GHE-641-5
  -OEChem-04062011563D

 53 55  0     0  0  0  0  0  0999 V2000
   12.0601    6.0214   25.9099 C   0  0  0  0  0  0  0  0  0  0  0  0
   10.9096    6.7767   25.6554 C   0  0  0  0  0  0  0  0  0  0  0  0
   12.5603    5.1396   24.9538 C   0  0  0  0  0  0  0  0  0  0  0  0
    8.9469    6.6918   22.5731 C   0  0  0  0  0  0  0  0  0  0  0  0
   10.2562    6.6370   24.4148 C   0  0  0  0  0  0  0  0  0  0  0  0
   11.9291    4.9843   23.7163 C   0  0  0  0  0  0  0  0  0  0  0  0
    9.0997    7.2264   23.8316 C   0  0  0  0  0  0  0  0  0  0  0  0
   10.7800    5.7459   23.4758 C   0  0  0  0  0  0  0  0  0  0  0  0
    9.1695   -1.6901   22.8081 C   0  0  0  0  0  0  0  0  0  0  0  0
   10.3036   -1.9530   23.4607 C   0  0  0  0  0  0  0  0  0  0  0  0
   11.5783   -1.4577   22.9037 C   0  0  0  0  0  0  0  0  0  0  0  0
    7.2857    5.3005   25.7425 C   0  0  0  0  0  0  0  0  0  0  0  0
   11.3206    0.7133   24.2243 C   0  0  0  0  0  0  0  0  0  0  0  0
   13.3061    0.2971   22.8196 C   0  0  0  0  0  0  0  0  0  0  0  0
   11.1870    2.1118   23.6331 C   0  0  0  0  0  0  0  0  0  0  0  0
   13.1837    1.6813   22.2024 C   0  0  0  0  0  0  0  0  0  0  0  0
    6.2785    4.2198   25.5284 C   0  0  0  0  0  0  0  0  0  0  0  0
    8.2153    8.2310   24.4561 C   0  0  0  0  0  0  0  0  0  0  0  0
   12.4947    4.0262   22.7097 C   0  0  0  0  0  0  0  0  0  0  0  0
    7.5773    7.7696   25.7789 C   0  0  0  0  0  0  0  0  0  0  0  0
    9.9649    5.7997   22.3677 N   0  0  0  0  0  0  0  0  0  0  0  0
   12.0127   -0.1948   23.2991 N   0  0  0  0  0  0  0  0  0  0  0  0
    6.7801    6.5841   25.6119 N   0  0  0  0  0  0  0  0  0  0  0  0
   12.5478    2.6101   23.2098 N   0  3  0  0  0  0  0  0  0  0  0  0
   12.1838   -2.1956   22.1245 O   0  0  0  0  0  0  0  0  0  0  0  0
    8.4439    5.0027   26.0096 O   0  0  0  0  0  0  0  0  0  0  0  0
   12.5679    6.1246   26.8653 H   0  0  0  0  0  0  0  0  0  0  0  0
   10.5330    7.4595   26.4116 H   0  0  0  0  0  0  0  0  0  0  0  0
   13.4558    4.5660   25.1822 H   0  0  0  0  0  0  0  0  0  0  0  0
    8.2061    6.8648   21.8047 H   0  0  0  0  0  0  0  0  0  0  0  0
    8.2028   -2.0270   23.1672 H   0  0  0  0  0  0  0  0  0  0  0  0
    9.1924   -1.1212   21.8846 H   0  0  0  0  0  0  0  0  0  0  0  0
   10.3214   -2.5167   24.3844 H   0  0  0  0  0  0  0  0  0  0  0  0
   11.9023    0.7383   25.1533 H   0  0  0  0  0  0  0  0  0  0  0  0
   10.3205    0.3555   24.4719 H   0  0  0  0  0  0  0  0  0  0  0  0
   13.7376   -0.3925   22.0871 H   0  0  0  0  0  0  0  0  0  0  0  0
   13.9860    0.3171   23.6801 H   0  0  0  0  0  0  0  0  0  0  0  0
   10.5357    2.1221   22.7518 H   0  0  0  0  0  0  0  0  0  0  0  0
   10.8015    2.8108   24.3825 H   0  0  0  0  0  0  0  0  0  0  0  0
   14.1724    2.0860   21.9632 H   0  0  0  0  0  0  0  0  0  0  0  0
   12.5587    1.6784   21.3024 H   0  0  0  0  0  0  0  0  0  0  0  0
    6.2194    3.9027   24.4748 H   0  0  0  0  0  0  0  0  0  0  0  0
    6.5165    3.3050   26.0948 H   0  0  0  0  0  0  0  0  0  0  0  0
    5.2452    4.4755   25.8125 H   0  0  0  0  0  0  0  0  0  0  0  0
    7.3964    8.5011   23.7605 H   0  0  0  0  0  0  0  0  0  0  0  0
    8.7521    9.1844   24.6358 H   0  0  0  0  0  0  0  0  0  0  0  0
   11.8943    4.0140   21.7938 H   0  0  0  0  0  0  0  0  0  0  0  0
   13.5186    4.3010   22.4340 H   0  0  0  0  0  0  0  0  0  0  0  0
    8.3444    7.5318   26.5227 H   0  0  0  0  0  0  0  0  0  0  0  0
    6.9288    8.5479   26.1943 H   0  0  0  0  0  0  0  0  0  0  0  0
   10.0980    5.2595   21.5239 H   0  0  0  0  0  0  0  0  0  0  0  0
    5.7928    6.6937   25.3859 H   0  0  0  0  0  0  0  0  0  0  0  0
   13.1480    2.6167   24.0461 H   0  0  0  0  0  0  0  0  0  0  0  0
  1  2  1  0  0  0  0
  1  3  2  0  0  0  0
  2  5  2  0  0  0  0
  3  6  1  0  0  0  0
  4  7  2  0  0  0  0
  4 21  1  0  0  0  0
  5  7  1  0  0  0  0
  5  8  1  0  0  0  0
  6  8  2  0  0  0  0
  6 19  1  0  0  0  0
  7 18  1  0  0  0  0
  8 21  1  0  0  0  0
  9 10  2  0  0  0  0
 10 11  1  0  0  0  0
 11 22  1  0  0  0  0
 11 25  2  0  0  0  0
 12 17  1  0  0  0  0
 12 23  1  0  0  0  0
 12 26  2  0  0  0  0
 13 15  1  0  0  0  0
 13 22  1  0  0  0  0
 14 16  1  0  0  0  0
 14 22  1  0  0  0  0
 15 24  1  0  0  0  0
 16 24  1  0  0  0  0
 18 20  1  0  0  0  0
 19 24  1  0  0  0  0
 20 23  1  0  0  0  0
  1 27  1  0  0  0  0
  2 28  1  0  0  0  0
  3 29  1  0  0  0  0
  4 30  1  0  0  0  0
  9 31  1  0  0  0  0
  9 32  1  0  0  0  0
 10 33  1  0  0  0  0
 13 34  1  0  0  0  0
 13 35  1  0  0  0  0
 14 36  1  0  0  0  0
 14 37  1  0  0  0  0
 15 38  1  0  0  0  0
 15 39  1  0  0  0  0
 16 40  1  0  0  0  0
 16 41  1  0  0  0  0
 17 42  1  0  0  0  0
 17 43  1  0  0  0  0
 17 44  1  0  0  0  0
 18 45  1  0  0  0  0
 18 46  1  0  0  0  0
 19 47  1  0  0  0  0
 19 48  1  0  0  0  0
 20 49  1  0  0  0  0
 20 50  1  0  0  0  0
 21 51  1  0  0  0  0
 23 52  1  0  0  0  0
 24 53  1  0  0  0  0
M  CHG  1  24   1
M  END
> <creator>
Jan, Ghent University

> <fragments>
x0104

> <real_space>
FALSE

> <SCR>
FALSE

> <BB>
FALSE

> <link>
https://covid.postera.ai/covid/submissions/6413aaf8-c5d7-46f1-8e3f-314432f79018

> <covalent_frag>
TRUE

> <covalent_warhead>
TRUE

> <acrylamide>
TRUE

> <acrylamide_adduct>
FALSE

> <chloroacetamide>
FALSE

> <chloroacetamide_adduct>
FALSE

> <vinylsulfonamide>
FALSE

> <vinylsulfonamide_adduct>
FALSE

> <in_molport_or_mcule>
FALSE

> <in_emolecules>
FALSE

> <Hybrid2>
-8.227654

> <Mpro-x0104_dock>
-8.227654

> <Mpro-x0692_dock>
-7.005859

> <site>
active-noncovalent

> <covalent_distance_min>
4.1351185

> <covalent_distance_mean>
5.470249

> <covalent_distance_stderr>
0.046680428

$$$$
AGN-NEW-63f-2
  -OEChem-04062011563D

 48 50  0     1  0  0  0  0  0999 V2000
    6.0463    0.9544   17.8136 C   0  0  0  0  0  0  0  0  0  0  0  0
   10.1165   -0.2961   24.5802 C   0  0  0  0  0  0  0  0  0  0  0  0
   12.2934    0.7432   24.7134 C   0  0  0  0  0  0  0  0  0  0  0  0
   11.3556    0.1755   22.5604 C   0  0  0  0  0  0  0  0  0  0  0  0
    4.7979    1.3870   18.2310 C   0  0  0  0  0  0  0  0  0  0  0  0
    5.1201    0.5582   20.3494 C   0  0  0  0  0  0  0  0  0  0  0  0
    6.8480    0.2926   18.7370 C   0  0  0  0  0  0  0  0  0  0  0  0
   11.1547    0.2396   25.3422 C   0  0  0  0  0  0  0  0  0  0  0  0
   10.2169   -0.3282   23.1893 C   0  0  0  0  0  0  0  0  0  0  0  0
    6.3835    0.0866   20.0312 C   0  0  0  0  0  0  0  0  0  0  0  0
   12.3938    0.7112   23.3225 C   0  0  0  0  0  0  0  0  0  0  0  0
    8.4468   -0.0982   21.4272 C   0  0  0  0  0  0  0  0  0  0  0  0
    5.0954   -5.9528   23.4162 C   0  0  0  0  0  0  0  0  0  0  0  0
    6.0220   -6.1590   22.4755 C   0  0  0  0  0  0  0  0  0  0  0  0
    6.5097   -5.0301   21.6389 C   0  0  0  0  0  0  0  0  0  0  0  0
    8.7995   -2.3039   22.6400 C   0  0  0  0  0  0  0  0  0  0  0  0
    6.5830   -1.7480   21.7042 C   0  0  0  0  0  0  0  0  0  0  0  0
    7.6337   -2.8280   21.8226 C   0  0  2  0  0  0  0  0  0  0  0  0
    8.1983   -0.1851   18.3138 C   0  0  0  0  0  0  0  0  0  0  0  0
   11.0476    0.2747   26.8294 C   0  0  0  0  0  0  0  0  0  0  0  0
    4.3124    1.2053   19.4796 N   0  0  0  0  0  0  0  0  0  0  0  0
    9.1335   -0.8875   22.3937 N   0  0  0  0  0  0  0  0  0  0  0  0
    7.1769   -0.5939   21.0258 N   0  0  0  0  0  0  0  0  0  0  0  0
    7.0884   -4.0295   22.4039 N   0  0  0  0  0  0  0  0  0  0  0  0
    8.9121    0.9577   20.9856 O   0  0  0  0  0  0  0  0  0  0  0  0
    6.3950   -5.0159   20.4175 O   0  0  0  0  0  0  0  0  0  0  0  0
   13.4873    1.1949   22.7187 F   0  0  0  0  0  0  0  0  0  0  0  0
    6.3789    1.1308   16.7964 H   0  0  0  0  0  0  0  0  0  0  0  0
    9.2293   -0.6881   25.0726 H   0  0  0  0  0  0  0  0  0  0  0  0
   13.1070    1.1638   25.2984 H   0  0  0  0  0  0  0  0  0  0  0  0
   11.4455    0.1545   21.4774 H   0  0  0  0  0  0  0  0  0  0  0  0
    4.1341    1.9081   17.5491 H   0  0  0  0  0  0  0  0  0  0  0  0
    4.7022    0.4283   21.3433 H   0  0  0  0  0  0  0  0  0  0  0  0
    4.7437   -6.7815   24.0218 H   0  0  0  0  0  0  0  0  0  0  0  0
    4.6671   -4.9756   23.6104 H   0  0  0  0  0  0  0  0  0  0  0  0
    6.4252   -7.1528   22.3136 H   0  0  0  0  0  0  0  0  0  0  0  0
    8.5925   -2.3945   23.7264 H   0  0  0  0  0  0  0  0  0  0  0  0
    9.7056   -2.9114   22.4382 H   0  0  0  0  0  0  0  0  0  0  0  0
    5.7376   -2.1043   21.1239 H   0  0  0  0  0  0  0  0  0  0  0  0
    6.2471   -1.4117   22.6807 H   0  0  0  0  0  0  0  0  0  0  0  0
    7.9865   -3.1179   20.8140 H   0  0  0  0  0  0  0  0  0  0  0  0
    8.9501    0.5916   18.4953 H   0  0  0  0  0  0  0  0  0  0  0  0
    8.4893   -1.0887   18.8635 H   0  0  0  0  0  0  0  0  0  0  0  0
    8.2114   -0.4421   17.2473 H   0  0  0  0  0  0  0  0  0  0  0  0
   11.4597   -0.6444   27.2637 H   0  0  0  0  0  0  0  0  0  0  0  0
   11.5914    1.1315   27.2479 H   0  0  0  0  0  0  0  0  0  0  0  0
   10.0027    0.3737   27.1513 H   0  0  0  0  0  0  0  0  0  0  0  0
    7.1101   -4.1163   23.4175 H   0  0  0  0  0  0  0  0  0  0  0  0
  1  5  2  0  0  0  0
  1  7  1  0  0  0  0
  2  8  2  0  0  0  0
  2  9  1  0  0  0  0
  3  8  1  0  0  0  0
  3 11  2  0  0  0  0
  4  9  2  0  0  0  0
  4 11  1  0  0  0  0
  5 21  1  0  0  0  0
  6 10  1  0  0  0  0
  6 21  2  0  0  0  0
  7 10  2  0  0  0  0
  7 19  1  0  0  0  0
  8 20  1  0  0  0  0
  9 22  1  0  0  0  0
 10 23  1  0  0  0  0
 11 27  1  0  0  0  0
 12 22  1  0  0  0  0
 12 23  1  0  0  0  0
 12 25  2  0  0  0  0
 13 14  2  0  0  0  0
 14 15  1  0  0  0  0
 15 24  1  0  0  0  0
 15 26  2  0  0  0  0
 16 18  1  0  0  0  0
 16 22  1  0  0  0  0
 17 18  1  0  0  0  0
 17 23  1  0  0  0  0
 18 24  1  0  0  0  0
  1 28  1  0  0  0  0
  2 29  1  0  0  0  0
  3 30  1  0  0  0  0
  4 31  1  0  0  0  0
  5 32  1  0  0  0  0
  6 33  1  0  0  0  0
 13 34  1  0  0  0  0
 13 35  1  0  0  0  0
 14 36  1  0  0  0  0
 16 37  1  0  0  0  0
 16 38  1  0  0  0  0
 17 39  1  0  0  0  0
 17 40  1  0  0  0  0
 18 41  1  0  0  0  0
 19 42  1  0  0  0  0
 19 43  1  0  0  0  0
 19 44  1  0  0  0  0
 20 45  1  0  0  0  0
 20 46  1  0  0  0  0
 20 47  1  0  0  0  0
 24 48  1  0  0  0  0
M  END
> <creator>
Agnieszka K. Bronowska, Newcastle University

> <fragments>
x0434

> <real_space>
FALSE

> <SCR>
FALSE

> <BB>
FALSE

> <link>
https://covid.postera.ai/covid/submissions/63f62ae9-356c-42dc-952d-659386dd09a9

> <covalent_frag>
FALSE

> <covalent_warhead>
TRUE

> <acrylamide>
TRUE

> <acrylamide_adduct>
FALSE

> <chloroacetamide>
FALSE

> <chloroacetamide_adduct>
FALSE

> <vinylsulfonamide>
FALSE

> <vinylsulfonamide_adduct>
FALSE

> <in_molport_or_mcule>
FALSE

> <in_emolecules>
FALSE

> <Hybrid2>
-8.184485

> <Mpro-x0434_dock>
-8.184485

> <site>
active-noncovalent

> <covalent_distance_min>
10.037237

> <covalent_distance_mean>
10.538304

> <covalent_distance_stderr>
0.07365258

$$$$
PAU-WEI-b9b-4
  -OEChem-04062011563D

 52 54  0     1  0  0  0  0  0999 V2000
    8.1407    0.6062   25.8018 C   0  0  0  0  0  0  0  0  0  0  0  0
   11.1149   -1.9324   23.5432 C   0  0  0  0  0  0  0  0  0  0  0  0
   11.3758   -1.0464   24.5884 C   0  0  0  0  0  0  0  0  0  0  0  0
   11.5982   -1.6624   22.2628 C   0  0  0  0  0  0  0  0  0  0  0  0
    8.2721    1.8388   22.2918 C   0  0  0  0  0  0  0  0  0  0  0  0
    7.8283    1.2029   23.4512 C   0  0  0  0  0  0  0  0  0  0  0  0
   12.1198    0.1098   24.3532 C   0  0  0  0  0  0  0  0  0  0  0  0
   12.3422   -0.5062   22.0277 C   0  0  0  0  0  0  0  0  0  0  0  0
    9.4836    2.5301   22.2957 C   0  0  0  0  0  0  0  0  0  0  0  0
    9.8073    1.9498   24.6185 C   0  0  0  0  0  0  0  0  0  0  0  0
    8.5959    1.2584   24.6146 C   0  0  0  0  0  0  0  0  0  0  0  0
   12.6030    0.3799   23.0728 C   0  0  0  0  0  0  0  0  0  0  0  0
   10.2512    2.5857   23.4590 C   0  0  0  0  0  0  0  0  0  0  0  0
   11.4669    7.3664   26.5865 C   0  0  0  0  0  0  0  0  0  0  0  0
   12.6818    5.7990   25.1090 C   0  0  0  0  0  0  0  0  0  0  0  0
   10.2512    5.4775   25.3958 C   0  0  0  0  0  0  0  0  0  0  0  0
   12.5412    5.6621   23.6001 C   0  0  0  0  0  0  0  0  0  0  0  0
   10.0776    5.3333   23.8897 C   0  0  0  0  0  0  0  0  0  0  0  0
   13.4070    1.6296   22.8179 C   0  0  0  0  0  0  0  0  0  0  0  0
   10.4165    7.3949   27.6681 C   0  0  0  0  0  0  0  0  0  0  0  0
   12.5940    2.8709   22.4111 C   0  0  0  0  0  0  0  0  0  0  0  0
   11.5646    3.3355   23.4630 C   0  0  1  0  0  0  0  0  0  0  0  0
    7.7710    0.0766   26.7659 N   0  0  0  0  0  0  0  0  0  0  0  0
   11.4392    6.2764   25.7166 N   0  0  0  0  0  0  0  0  0  0  0  0
   11.3435    4.8085   23.2535 N   0  3  0  0  0  0  0  0  0  0  0  0
   12.2848    8.2873   26.5168 O   0  0  0  0  0  0  0  0  0  0  0  0
    9.0443    8.2822   27.0144 Cl  0  0  0  0  0  0  0  0  0  0  0  0
   10.5368   -2.8333   23.7268 H   0  0  0  0  0  0  0  0  0  0  0  0
   11.0005   -1.2570   25.5856 H   0  0  0  0  0  0  0  0  0  0  0  0
   11.3962   -2.3526   21.4491 H   0  0  0  0  0  0  0  0  0  0  0  0
    7.6742    1.7967   21.3861 H   0  0  0  0  0  0  0  0  0  0  0  0
    6.8820    0.6674   23.4326 H   0  0  0  0  0  0  0  0  0  0  0  0
   12.3180    0.7947   25.1736 H   0  0  0  0  0  0  0  0  0  0  0  0
   12.7145   -0.3040   21.0269 H   0  0  0  0  0  0  0  0  0  0  0  0
    9.8212    3.0219   21.3872 H   0  0  0  0  0  0  0  0  0  0  0  0
   10.4100    1.9976   25.5232 H   0  0  0  0  0  0  0  0  0  0  0  0
   12.9779    4.8354   25.5374 H   0  0  0  0  0  0  0  0  0  0  0  0
   13.4698    6.5203   25.3617 H   0  0  0  0  0  0  0  0  0  0  0  0
    9.3863    5.9900   25.8362 H   0  0  0  0  0  0  0  0  0  0  0  0
   10.2949    4.4839   25.8470 H   0  0  0  0  0  0  0  0  0  0  0  0
   12.3843    6.6483   23.1357 H   0  0  0  0  0  0  0  0  0  0  0  0
   13.4304    5.1942   23.1457 H   0  0  0  0  0  0  0  0  0  0  0  0
    9.2605    4.6375   23.6363 H   0  0  0  0  0  0  0  0  0  0  0  0
    9.8636    6.3115   23.4311 H   0  0  0  0  0  0  0  0  0  0  0  0
   14.1184    1.3993   22.0137 H   0  0  0  0  0  0  0  0  0  0  0  0
   14.0215    1.8723   23.6940 H   0  0  0  0  0  0  0  0  0  0  0  0
   10.8164    7.9122   28.5328 H   0  0  0  0  0  0  0  0  0  0  0  0
   10.1250    6.3774   27.9017 H   0  0  0  0  0  0  0  0  0  0  0  0
   13.3209    3.6821   22.2651 H   0  0  0  0  0  0  0  0  0  0  0  0
   12.1177    2.7178   21.4353 H   0  0  0  0  0  0  0  0  0  0  0  0
   12.0259    3.2721   24.4559 H   0  0  0  0  0  0  0  0  0  0  0  0
   11.2048    4.9222   22.2080 H   0  0  0  0  0  0  0  0  0  0  0  0
  1 11  1  0  0  0  0
  1 23  3  0  0  0  0
  2  3  1  0  0  0  0
  2  4  2  0  0  0  0
  3  7  2  0  0  0  0
  4  8  1  0  0  0  0
  5  6  2  0  0  0  0
  5  9  1  0  0  0  0
  6 11  1  0  0  0  0
  7 12  1  0  0  0  0
  8 12  2  0  0  0  0
  9 13  2  0  0  0  0
 10 11  2  0  0  0  0
 10 13  1  0  0  0  0
 12 19  1  0  0  0  0
 13 22  1  0  0  0  0
 14 20  1  0  0  0  0
 14 24  1  0  0  0  0
 14 26  2  0  0  0  0
 15 17  1  0  0  0  0
 15 24  1  0  0  0  0
 16 18  1  0  0  0  0
 16 24  1  0  0  0  0
 17 25  1  0  0  0  0
 18 25  1  0  0  0  0
 19 21  1  0  0  0  0
 20 27  1  0  0  0  0
 21 22  1  0  0  0  0
 22 25  1  0  0  0  0
  2 28  1  0  0  0  0
  3 29  1  0  0  0  0
  4 30  1  0  0  0  0
  5 31  1  0  0  0  0
  6 32  1  0  0  0  0
  7 33  1  0  0  0  0
  8 34  1  0  0  0  0
  9 35  1  0  0  0  0
 10 36  1  0  0  0  0
 15 37  1  0  0  0  0
 15 38  1  0  0  0  0
 16 39  1  0  0  0  0
 16 40  1  0  0  0  0
 17 41  1  0  0  0  0
 17 42  1  0  0  0  0
 18 43  1  0  0  0  0
 18 44  1  0  0  0  0
 19 45  1  0  0  0  0
 19 46  1  0  0  0  0
 20 47  1  0  0  0  0
 20 48  1  0  0  0  0
 21 49  1  0  0  0  0
 21 50  1  0  0  0  0
 22 51  1  0  0  0  0
 25 52  1  0  0  0  0
M  CHG  1  25   1
M  END
> <creator>
Paul Gehrtz, Weizmann Institute of Science

> <fragments>
x0104

> <real_space>
FALSE

> <SCR>
FALSE

> <BB>
FALSE

> <link>
https://covid.postera.ai/covid/submissions/b9b69149-728b-48ac-b50d-9dc89a43712c

> <covalent_frag>
TRUE

> <covalent_warhead>
TRUE

> <acrylamide>
FALSE

> <acrylamide_adduct>
FALSE

> <chloroacetamide>
TRUE

> <chloroacetamide_adduct>
FALSE

> <vinylsulfonamide>
FALSE

> <vinylsulfonamide_adduct>
FALSE

> <in_molport_or_mcule>
FALSE

> <in_emolecules>
FALSE

> <Hybrid2>
-8.106890

> <Mpro-x0104_dock>
-8.10689

> <Mpro-x0305_dock>
-5.572177

> <Mpro-x0770_dock>
-5.229884

> <Mpro-x1385_dock>
-4.043506

> <Mpro-x1380_dock>
-3.094646

> <site>
active-noncovalent

> <covalent_distance_min>
14.0844345

> <covalent_distance_mean>
14.939256

> <covalent_distance_stderr>
0.03837211

$$$$
DUN-NEW-f8c-3
  -OEChem-04062011563D

 47 49  0     1  0  0  0  0  0999 V2000
    7.4019   -0.7415   21.2378 C   0  0  0  0  0  0  0  0  0  0  0  0
    8.4223    0.0740   20.7485 C   0  0  0  0  0  0  0  0  0  0  0  0
    7.6691   -1.6590   22.2540 C   0  0  0  0  0  0  0  0  0  0  0  0
    9.7098   -0.0281   21.2752 C   0  0  0  0  0  0  0  0  0  0  0  0
    8.9566   -1.7612   22.7806 C   0  0  0  0  0  0  0  0  0  0  0  0
    9.9770   -0.9457   22.2913 C   0  0  0  0  0  0  0  0  0  0  0  0
   11.3336    0.6531   24.5549 C   0  0  0  0  0  0  0  0  0  0  0  0
    7.2066   -4.8499   26.7473 C   0  0  0  0  0  0  0  0  0  0  0  0
   13.4877   -1.7596   22.8911 C   0  0  0  0  0  0  0  0  0  0  0  0
   13.3490   -0.5520   23.8010 C   0  0  0  0  0  0  0  0  0  0  0  0
   12.0534   -2.2561   22.7488 C   0  0  0  0  0  0  0  0  0  0  0  0
    8.9880   -4.1217   23.6105 C   0  0  0  0  0  0  0  0  0  0  0  0
    9.2447   -2.2604   25.1969 C   0  0  0  0  0  0  0  0  0  0  0  0
    7.6676   -4.5273   24.2655 C   0  0  0  0  0  0  0  0  0  0  0  0
    7.9256   -2.6504   25.8692 C   0  0  0  0  0  0  0  0  0  0  0  0
   12.0273    0.0851   23.3584 C   0  0  1  0  0  0  0  0  0  0  0  0
    6.1803   -5.9167   26.4595 C   0  0  0  0  0  0  0  0  0  0  0  0
    9.2014   -2.6831   23.7921 N   0  0  0  0  0  0  0  0  0  0  0  0
   11.2583   -1.0306   22.7985 N   0  0  3  0  0  0  0  0  0  0  0  0
    7.6192   -4.0720   25.6653 N   0  0  0  0  0  0  0  0  0  0  0  0
   10.5379    1.7379   24.2716 N   0  0  0  0  0  0  0  0  0  0  0  0
   11.4639    0.1683   25.6763 O   0  0  0  0  0  0  0  0  0  0  0  0
    7.6301   -4.7152   27.8981 O   0  0  0  0  0  0  0  0  0  0  0  0
    4.7471   -5.0874   25.8639 Cl  0  0  0  0  0  0  0  0  0  0  0  0
    6.3993   -0.6615   20.8281 H   0  0  0  0  0  0  0  0  0  0  0  0
    8.2140    0.7890   19.9580 H   0  0  0  0  0  0  0  0  0  0  0  0
    6.8657   -2.2893   22.6270 H   0  0  0  0  0  0  0  0  0  0  0  0
   10.4968    0.6131   20.8862 H   0  0  0  0  0  0  0  0  0  0  0  0
   13.9363   -1.5033   21.9271 H   0  0  0  0  0  0  0  0  0  0  0  0
   14.1093   -2.5277   23.3659 H   0  0  0  0  0  0  0  0  0  0  0  0
   13.3579   -0.8397   24.8574 H   0  0  0  0  0  0  0  0  0  0  0  0
   14.1771    0.1455   23.6234 H   0  0  0  0  0  0  0  0  0  0  0  0
   11.9233   -2.7650   21.7847 H   0  0  0  0  0  0  0  0  0  0  0  0
   11.7758   -2.9481   23.5520 H   0  0  0  0  0  0  0  0  0  0  0  0
    9.8128   -4.6805   24.0572 H   0  0  0  0  0  0  0  0  0  0  0  0
    8.9475   -4.3613   22.5468 H   0  0  0  0  0  0  0  0  0  0  0  0
    9.3895   -1.1832   25.2434 H   0  0  0  0  0  0  0  0  0  0  0  0
   10.0665   -2.7395   25.7257 H   0  0  0  0  0  0  0  0  0  0  0  0
    6.8273   -4.0696   23.7489 H   0  0  0  0  0  0  0  0  0  0  0  0
    7.5568   -5.6052   24.2257 H   0  0  0  0  0  0  0  0  0  0  0  0
    7.9754   -2.4797   26.9481 H   0  0  0  0  0  0  0  0  0  0  0  0
    7.1125   -2.0371   25.4758 H   0  0  0  0  0  0  0  0  0  0  0  0
   12.2206    0.9008   22.6485 H   0  0  0  0  0  0  0  0  0  0  0  0
    5.9523   -6.4407   27.3801 H   0  0  0  0  0  0  0  0  0  0  0  0
    6.5703   -6.5813   25.6978 H   0  0  0  0  0  0  0  0  0  0  0  0
   10.0318    2.1821   25.0307 H   0  0  0  0  0  0  0  0  0  0  0  0
   10.4363    2.1122   23.3338 H   0  0  0  0  0  0  0  0  0  0  0  0
  1  2  1  0  0  0  0
  1  3  2  0  0  0  0
  2  4  2  0  0  0  0
  3  5  1  0  0  0  0
  4  6  1  0  0  0  0
  5  6  2  0  0  0  0
  5 18  1  0  0  0  0
  6 19  1  0  0  0  0
  7 16  1  0  0  0  0
  7 21  1  0  0  0  0
  7 22  2  0  0  0  0
  8 17  1  0  0  0  0
  8 20  1  0  0  0  0
  8 23  2  0  0  0  0
  9 10  1  0  0  0  0
  9 11  1  0  0  0  0
 10 16  1  0  0  0  0
 11 19  1  0  0  0  0
 12 14  1  0  0  0  0
 12 18  1  0  0  0  0
 13 15  1  0  0  0  0
 13 18  1  0  0  0  0
 14 20  1  0  0  0  0
 15 20  1  0  0  0  0
 16 19  1  0  0  0  0
 17 24  1  0  0  0  0
  1 25  1  0  0  0  0
  2 26  1  0  0  0  0
  3 27  1  0  0  0  0
  4 28  1  0  0  0  0
  9 29  1  0  0  0  0
  9 30  1  0  0  0  0
 10 31  1  0  0  0  0
 10 32  1  0  0  0  0
 11 33  1  0  0  0  0
 11 34  1  0  0  0  0
 12 35  1  0  0  0  0
 12 36  1  0  0  0  0
 13 37  1  0  0  0  0
 13 38  1  0  0  0  0
 14 39  1  0  0  0  0
 14 40  1  0  0  0  0
 15 41  1  0  0  0  0
 15 42  1  0  0  0  0
 16 43  1  0  0  0  0
 17 44  1  0  0  0  0
 17 45  1  0  0  0  0
 21 46  1  0  0  0  0
 21 47  1  0  0  0  0
M  END
> <creator>
Duncan Miller, Newcastle University

> <fragments>
x0072

> <real_space>
FALSE

> <SCR>
FALSE

> <BB>
FALSE

> <link>
https://covid.postera.ai/covid/submissions/f8ce3686-4774-4f4e-b96a-ab98611b1edd

> <covalent_frag>
TRUE

> <covalent_warhead>
TRUE

> <acrylamide>
FALSE

> <acrylamide_adduct>
FALSE

> <chloroacetamide>
TRUE

> <chloroacetamide_adduct>
FALSE

> <vinylsulfonamide>
FALSE

> <vinylsulfonamide_adduct>
FALSE

> <in_molport_or_mcule>
FALSE

> <in_emolecules>
FALSE

> <Hybrid2>
-8.081551

> <Mpro-x0072_dock>
-8.081551

> <Mpro-x1458_dock>
-2.922227

> <site>
active-noncovalent

$$$$
FOC-CAS-e3a-2
  -OEChem-04062011563D

 40 42  0     1  0  0  0  0  0999 V2000
    9.3565   -2.8672   24.5220 C   0  0  0  0  0  0  0  0  0  0  0  0
    7.0716   -2.3066   23.9722 C   0  0  0  0  0  0  0  0  0  0  0  0
    8.9996   -4.2108   24.6353 C   0  0  0  0  0  0  0  0  0  0  0  0
    6.7147   -3.6503   24.0854 C   0  0  0  0  0  0  0  0  0  0  0  0
    5.9201    0.9905   18.4870 C   0  0  0  0  0  0  0  0  0  0  0  0
    5.4141    1.2163   19.7482 C   0  0  0  0  0  0  0  0  0  0  0  0
    7.7183   -0.0866   19.4014 C   0  0  0  0  0  0  0  0  0  0  0  0
    8.3925   -1.9150   24.1905 C   0  0  0  0  0  0  0  0  0  0  0  0
    7.6787   -4.6024   24.4170 C   0  0  0  0  0  0  0  0  0  0  0  0
    7.2127    0.1398   20.6626 C   0  0  0  0  0  0  0  0  0  0  0  0
    7.5751    2.8056   22.6521 C   0  0  0  0  0  0  0  0  0  0  0  0
    9.8510    1.8636   22.7679 C   0  0  0  0  0  0  0  0  0  0  0  0
   10.5918    1.0368   23.8048 C   0  0  0  0  0  0  0  0  0  0  0  0
    8.7802   -0.4531   24.0663 C   0  0  2  0  0  0  0  0  0  0  0  0
    7.9151    0.3172   23.0489 C   0  0  1  0  0  0  0  0  0  0  0  0
    6.2727    2.8480   23.4122 C   0  0  0  0  0  0  0  0  0  0  0  0
    7.0813    0.3349   18.2910 N   0  0  0  0  0  0  0  0  0  0  0  0
    6.0514    0.7951   20.8586 N   0  0  0  0  0  0  0  0  0  0  0  0
    8.3990    1.7000   22.8825 N   0  0  0  0  0  0  0  0  0  0  0  0
    7.9285   -0.3253   21.7483 N   0  0  0  0  0  0  0  0  0  0  0  0
    7.8555    3.7290   21.8834 O   0  0  0  0  0  0  0  0  0  0  0  0
   10.1719   -0.3250   23.7489 O   0  0  0  0  0  0  0  0  0  0  0  0
    7.3364   -5.8931   24.5230 F   0  0  0  0  0  0  0  0  0  0  0  0
    5.4728    4.3479   22.9564 Cl  0  0  0  0  0  0  0  0  0  0  0  0
   10.3880   -2.5716   24.6948 H   0  0  0  0  0  0  0  0  0  0  0  0
    6.3138   -1.5718   23.7132 H   0  0  0  0  0  0  0  0  0  0  0  0
    9.7500   -4.9522   24.8927 H   0  0  0  0  0  0  0  0  0  0  0  0
    5.6864   -3.9555   23.9159 H   0  0  0  0  0  0  0  0  0  0  0  0
    5.4080    1.3305   17.5955 H   0  0  0  0  0  0  0  0  0  0  0  0
    4.4805    1.7422   19.9051 H   0  0  0  0  0  0  0  0  0  0  0  0
    8.6509   -0.6126   19.2322 H   0  0  0  0  0  0  0  0  0  0  0  0
   10.1335    2.9176   22.8509 H   0  0  0  0  0  0  0  0  0  0  0  0
   10.1196    1.5271   21.7595 H   0  0  0  0  0  0  0  0  0  0  0  0
   11.6671    1.0621   23.6011 H   0  0  0  0  0  0  0  0  0  0  0  0
   10.4381    1.4311   24.8163 H   0  0  0  0  0  0  0  0  0  0  0  0
    8.6160   -0.0124   25.0766 H   0  0  0  0  0  0  0  0  0  0  0  0
    6.8785    0.3148   23.4068 H   0  0  0  0  0  0  0  0  0  0  0  0
    6.4864    2.8478   24.4747 H   0  0  0  0  0  0  0  0  0  0  0  0
    5.6673    1.9985   23.1184 H   0  0  0  0  0  0  0  0  0  0  0  0
    8.4948   -1.1547   21.6407 H   0  0  0  0  0  0  0  0  0  0  0  0
  1  3  2  0  0  0  0
  1  8  1  0  0  0  0
  2  4  1  0  0  0  0
  2  8  2  0  0  0  0
  3  9  1  0  0  0  0
  4  9  2  0  0  0  0
  5  6  2  0  0  0  0
  5 17  1  0  0  0  0
  6 18  1  0  0  0  0
  7 10  1  0  0  0  0
  7 17  2  0  0  0  0
  8 14  1  0  0  0  0
  9 23  1  0  0  0  0
 10 18  2  0  0  0  0
 10 20  1  0  0  0  0
 11 16  1  0  0  0  0
 11 19  1  0  0  0  0
 11 21  2  0  0  0  0
 12 13  1  0  0  0  0
 12 19  1  0  0  0  0
 13 22  1  0  0  0  0
 14 15  1  0  0  0  0
 14 22  1  0  0  0  0
 15 19  1  0  0  0  0
 15 20  1  0  0  0  0
 16 24  1  0  0  0  0
  1 25  1  0  0  0  0
  2 26  1  0  0  0  0
  3 27  1  0  0  0  0
  4 28  1  0  0  0  0
  5 29  1  0  0  0  0
  6 30  1  0  0  0  0
  7 31  1  0  0  0  0
 12 32  1  0  0  0  0
 12 33  1  0  0  0  0
 13 34  1  0  0  0  0
 13 35  1  0  0  0  0
 14 36  1  0  0  0  0
 15 37  1  0  0  0  0
 16 38  1  0  0  0  0
 16 39  1  0  0  0  0
 20 40  1  0  0  0  0
M  END
> <creator>
Focco Vandenakker, Case Western Reserve University

> <fragments>
x0107

> <real_space>
FALSE

> <SCR>
FALSE

> <BB>
FALSE

> <link>
https://covid.postera.ai/covid/submissions/e3a94da8-a626-4ab7-8bea-dbe05e26b3f4

> <covalent_frag>
TRUE

> <covalent_warhead>
TRUE

> <acrylamide>
FALSE

> <acrylamide_adduct>
FALSE

> <chloroacetamide>
TRUE

> <chloroacetamide_adduct>
FALSE

> <vinylsulfonamide>
FALSE

> <vinylsulfonamide_adduct>
FALSE

> <in_molport_or_mcule>
FALSE

> <in_emolecules>
FALSE

> <Hybrid2>
-8.065756

> <Mpro-x0107_dock>
-8.065756

> <Mpro-x0759_dock>
-6.909032

> <site>
active-noncovalent

> <covalent_distance_min>
6.799977

> <covalent_distance_mean>
7.318665

> <covalent_distance_stderr>
0.020504696

$$$$
MAK-UNK-af8-7
  -OEChem-04062011563D

 47 48  0     1  0  0  0  0  0999 V2000
   11.2080    6.7829   25.5107 C   0  0  0  0  0  0  0  0  0  0  0  0
    9.9757    7.0808   24.9291 C   0  0  0  0  0  0  0  0  0  0  0  0
   12.1004    5.9330   24.8573 C   0  0  0  0  0  0  0  0  0  0  0  0
   10.5281    5.6786   23.0407 C   0  0  0  0  0  0  0  0  0  0  0  0
    9.6357    6.5286   23.6941 C   0  0  0  0  0  0  0  0  0  0  0  0
   11.7604    5.3808   23.6223 C   0  0  0  0  0  0  0  0  0  0  0  0
   10.6742    0.7505   24.6783 C   0  0  0  0  0  0  0  0  0  0  0  0
   11.6859   -1.0436   22.1117 C   0  0  0  0  0  0  0  0  0  0  0  0
   13.5092    2.0925   22.6132 C   0  0  0  0  0  0  0  0  0  0  0  0
   11.0705    2.5622   22.9837 C   0  0  0  0  0  0  0  0  0  0  0  0
   13.2728    0.6322   22.9758 C   0  0  0  0  0  0  0  0  0  0  0  0
   10.8203    1.0706   23.2189 C   0  0  1  0  0  0  0  0  0  0  0  0
   12.5016    3.0051   23.3142 C   0  0  2  0  0  0  0  0  0  0  0  0
    8.3185    6.8487   23.0722 C   0  0  0  0  0  0  0  0  0  0  0  0
    7.8055    0.0658   25.7583 C   0  0  0  0  0  0  0  0  0  0  0  0
   12.7224    4.4640   22.9183 C   0  0  0  0  0  0  0  0  0  0  0  0
   10.2550   -1.4367   21.8388 C   0  0  0  0  0  0  0  0  0  0  0  0
    8.9607    0.8803   26.3003 C   0  0  0  0  0  0  0  0  0  0  0  0
   11.8952    0.2082   22.7037 N   0  0  0  0  0  0  0  0  0  0  0  0
   11.3752   -0.0542   25.2768 O   0  0  0  0  0  0  0  0  0  0  0  0
   12.5913   -1.8222   21.8002 O   0  0  0  0  0  0  0  0  0  0  0  0
    9.6564    1.4876   25.2070 O   0  0  0  0  0  0  0  0  0  0  0  0
    9.6921   -2.3057   23.2618 Cl  0  0  0  0  0  0  0  0  0  0  0  0
   11.4727    7.2130   26.4724 H   0  0  0  0  0  0  0  0  0  0  0  0
    9.2869    7.7445   25.4454 H   0  0  0  0  0  0  0  0  0  0  0  0
   13.0581    5.7059   25.3183 H   0  0  0  0  0  0  0  0  0  0  0  0
   10.2640    5.2487   22.0774 H   0  0  0  0  0  0  0  0  0  0  0  0
   14.5295    2.3743   22.8993 H   0  0  0  0  0  0  0  0  0  0  0  0
   13.4397    2.2137   21.5246 H   0  0  0  0  0  0  0  0  0  0  0  0
   10.8647    2.7796   21.9268 H   0  0  0  0  0  0  0  0  0  0  0  0
   10.3608    3.1611   23.5687 H   0  0  0  0  0  0  0  0  0  0  0  0
   13.9838    0.0035   22.4299 H   0  0  0  0  0  0  0  0  0  0  0  0
   13.4583    0.4693   24.0443 H   0  0  0  0  0  0  0  0  0  0  0  0
    9.8614    0.8111   22.7569 H   0  0  0  0  0  0  0  0  0  0  0  0
   12.6526    2.9248   24.3979 H   0  0  0  0  0  0  0  0  0  0  0  0
    8.4026    7.7382   22.4359 H   0  0  0  0  0  0  0  0  0  0  0  0
    7.9546    6.0148   22.4581 H   0  0  0  0  0  0  0  0  0  0  0  0
    7.5529    7.0383   23.8359 H   0  0  0  0  0  0  0  0  0  0  0  0
    7.1049    0.7002   25.2082 H   0  0  0  0  0  0  0  0  0  0  0  0
    8.1686   -0.7220   25.0901 H   0  0  0  0  0  0  0  0  0  0  0  0
    7.2678   -0.4307   26.5729 H   0  0  0  0  0  0  0  0  0  0  0  0
   12.6121    4.5678   21.8341 H   0  0  0  0  0  0  0  0  0  0  0  0
   13.7524    4.7527   23.1514 H   0  0  0  0  0  0  0  0  0  0  0  0
   10.2292   -2.0857   20.9713 H   0  0  0  0  0  0  0  0  0  0  0  0
    9.6665   -0.5384   21.6934 H   0  0  0  0  0  0  0  0  0  0  0  0
    9.6576    0.2399   26.8492 H   0  0  0  0  0  0  0  0  0  0  0  0
    8.5962    1.6674   26.9670 H   0  0  0  0  0  0  0  0  0  0  0  0
  1  2  1  0  0  0  0
  1  3  2  0  0  0  0
  2  5  2  0  0  0  0
  3  6  1  0  0  0  0
  4  5  1  0  0  0  0
  4  6  2  0  0  0  0
  5 14  1  0  0  0  0
  6 16  1  0  0  0  0
  7 12  1  0  0  0  0
  7 20  2  0  0  0  0
  7 22  1  0  0  0  0
  8 17  1  0  0  0  0
  8 19  1  0  0  0  0
  8 21  2  0  0  0  0
  9 11  1  0  0  0  0
  9 13  1  0  0  0  0
 10 12  1  0  0  0  0
 10 13  1  0  0  0  0
 11 19  1  0  0  0  0
 12 19  1  0  0  0  0
 13 16  1  0  0  0  0
 15 18  1  0  0  0  0
 17 23  1  0  0  0  0
 18 22  1  0  0  0  0
  1 24  1  0  0  0  0
  2 25  1  0  0  0  0
  3 26  1  0  0  0  0
  4 27  1  0  0  0  0
  9 28  1  0  0  0  0
  9 29  1  0  0  0  0
 10 30  1  0  0  0  0
 10 31  1  0  0  0  0
 11 32  1  0  0  0  0
 11 33  1  0  0  0  0
 12 34  1  0  0  0  0
 13 35  1  0  0  0  0
 14 36  1  0  0  0  0
 14 37  1  0  0  0  0
 14 38  1  0  0  0  0
 15 39  1  0  0  0  0
 15 40  1  0  0  0  0
 15 41  1  0  0  0  0
 16 42  1  0  0  0  0
 16 43  1  0  0  0  0
 17 44  1  0  0  0  0
 17 45  1  0  0  0  0
 18 46  1  0  0  0  0
 18 47  1  0  0  0  0
M  END
> <creator>
Maksym Voznyy

> <fragments>
x0104

> <real_space>
FALSE

> <SCR>
FALSE

> <BB>
FALSE

> <link>
https://covid.postera.ai/covid/submissions/af83ef51-35cf-489e-b3bd-9012d86d8275

> <covalent_frag>
TRUE

> <covalent_warhead>
TRUE

> <acrylamide>
FALSE

> <acrylamide_adduct>
FALSE

> <chloroacetamide>
TRUE

> <chloroacetamide_adduct>
FALSE

> <vinylsulfonamide>
FALSE

> <vinylsulfonamide_adduct>
FALSE

> <in_molport_or_mcule>
FALSE

> <in_emolecules>
FALSE

> <Hybrid2>
-8.032699

> <Mpro-x0104_dock>
-8.032699

> <Mpro-x0195_dock>
-7.665983

> <Mpro-x0161_dock>
-7.36497

> <Mpro-x0072_dock>
-7.126076

> <Mpro-x0692_dock>
-6.263299

> <Mpro-x0387_dock>
-4.082296

> <Mpro-x0305_dock>
-3.533942

> <site>
active-noncovalent

> <covalent_distance_min>
4.2761216

> <covalent_distance_mean>
5.0549054

> <covalent_distance_stderr>
0.065261215

$$$$
NIR-THE-ed2-1
  -OEChem-04062011563D

 59 61  0     0  0  0  0  0  0999 V2000
    9.3780   -2.9175   22.5795 C   0  0  0  0  0  0  0  0  0  0  0  0
    9.3597   -1.7692   21.7880 C   0  0  0  0  0  0  0  0  0  0  0  0
    4.6395    1.2668   18.5018 C   0  0  0  0  0  0  0  0  0  0  0  0
    9.3492   -1.5469   24.5689 C   0  0  0  0  0  0  0  0  0  0  0  0
    5.5017    0.7355   17.5562 C   0  0  0  0  0  0  0  0  0  0  0  0
    7.1347    0.3571   19.1273 C   0  0  0  0  0  0  0  0  0  0  0  0
    9.3726   -2.8064   23.9700 C   0  0  0  0  0  0  0  0  0  0  0  0
    9.3363   -0.5096   22.3869 C   0  0  0  0  0  0  0  0  0  0  0  0
    5.0789    1.3323   19.8193 C   0  0  0  0  0  0  0  0  0  0  0  0
    9.3310   -0.3985   23.7774 C   0  0  0  0  0  0  0  0  0  0  0  0
    6.3491    0.8709   20.1464 C   0  0  0  0  0  0  0  0  0  0  0  0
    9.3912   -4.0153   24.8019 C   0  0  0  0  0  0  0  0  0  0  0  0
    6.1599    0.2118   22.5425 C   0  0  0  0  0  0  0  0  0  0  0  0
    8.7360    1.1456   25.6280 C   0  0  0  0  0  0  0  0  0  0  0  0
    7.1738   -3.3307   25.8552 C   0  0  0  0  0  0  0  0  0  0  0  0
    8.2765   -5.4567   26.4720 C   0  0  0  0  0  0  0  0  0  0  0  0
    5.8887   -3.9737   25.3477 C   0  0  0  0  0  0  0  0  0  0  0  0
    7.1195   -6.3494   26.0391 C   0  0  0  0  0  0  0  0  0  0  0  0
    4.1701    1.9010   20.8592 C   0  0  0  0  0  0  0  0  0  0  0  0
    5.3061   -0.9404   22.0647 C   0  0  0  0  0  0  0  0  0  0  0  0
    9.3182    0.7032   21.5143 C   0  0  0  0  0  0  0  0  0  0  0  0
    8.8951    2.6047   25.9872 C   0  0  0  0  0  0  0  0  0  0  0  0
    8.1010    1.6047   21.7476 C   0  0  0  0  0  0  0  0  0  0  0  0
    6.7424    0.2773   17.8360 N   0  0  0  0  0  0  0  0  0  0  0  0
    8.3247   -4.2269   25.6806 N   0  0  0  0  0  0  0  0  0  0  0  0
    9.3068    0.8543   24.3956 N   0  0  0  0  0  0  0  0  0  0  0  0
    6.8586    0.9173   21.5182 N   0  0  0  0  0  0  0  0  0  0  0  0
   10.3574   -4.7615   24.6510 O   0  0  0  0  0  0  0  0  0  0  0  0
    6.1576    0.4695   23.7489 O   0  0  0  0  0  0  0  0  0  0  0  0
    8.1403    0.3846   26.3857 O   0  0  0  0  0  0  0  0  0  0  0  0
    5.5157   -5.5118   26.2499 S   0  0  0  0  0  0  0  0  0  0  0  0
    7.4852    3.4725   25.3589 Cl  0  0  0  0  0  0  0  0  0  0  0  0
    9.3960   -3.8940   22.1022 H   0  0  0  0  0  0  0  0  0  0  0  0
    9.3643   -1.8666   20.7056 H   0  0  0  0  0  0  0  0  0  0  0  0
    3.6546    1.6184   18.2137 H   0  0  0  0  0  0  0  0  0  0  0  0
    9.3460   -1.4613   25.6536 H   0  0  0  0  0  0  0  0  0  0  0  0
    5.2067    0.6624   16.5146 H   0  0  0  0  0  0  0  0  0  0  0  0
    8.1352   -0.0189   19.3198 H   0  0  0  0  0  0  0  0  0  0  0  0
    7.3318   -2.3868   25.3265 H   0  0  0  0  0  0  0  0  0  0  0  0
    7.0993   -3.0833   26.9214 H   0  0  0  0  0  0  0  0  0  0  0  0
    8.1939   -5.1798   27.5300 H   0  0  0  0  0  0  0  0  0  0  0  0
    9.2149   -6.0104   26.3591 H   0  0  0  0  0  0  0  0  0  0  0  0
    5.0490   -3.2864   25.4908 H   0  0  0  0  0  0  0  0  0  0  0  0
    5.9557   -4.1935   24.2768 H   0  0  0  0  0  0  0  0  0  0  0  0
    7.2292   -6.6531   24.9923 H   0  0  0  0  0  0  0  0  0  0  0  0
    7.1078   -7.2606   26.6457 H   0  0  0  0  0  0  0  0  0  0  0  0
    3.5532    1.1088   21.2989 H   0  0  0  0  0  0  0  0  0  0  0  0
    4.7400    2.3861   21.6612 H   0  0  0  0  0  0  0  0  0  0  0  0
    3.5075    2.6639   20.4320 H   0  0  0  0  0  0  0  0  0  0  0  0
    5.8901   -1.8645   22.0516 H   0  0  0  0  0  0  0  0  0  0  0  0
    4.8938   -0.7259   21.0752 H   0  0  0  0  0  0  0  0  0  0  0  0
    4.4691   -1.0829   22.7559 H   0  0  0  0  0  0  0  0  0  0  0  0
    9.3268    0.3900   20.4577 H   0  0  0  0  0  0  0  0  0  0  0  0
   10.2412    1.2906   21.6510 H   0  0  0  0  0  0  0  0  0  0  0  0
    9.7999    3.0486   25.5643 H   0  0  0  0  0  0  0  0  0  0  0  0
    8.9246    2.7107   27.0753 H   0  0  0  0  0  0  0  0  0  0  0  0
    8.0799    1.9575   22.7836 H   0  0  0  0  0  0  0  0  0  0  0  0
    8.1209    2.4796   21.0894 H   0  0  0  0  0  0  0  0  0  0  0  0
    9.7478    1.6239   23.8973 H   0  0  0  0  0  0  0  0  0  0  0  0
  1  2  2  0  0  0  0
  1  7  1  0  0  0  0
  2  8  1  0  0  0  0
  3  5  2  0  0  0  0
  3  9  1  0  0  0  0
  4  7  2  0  0  0  0
  4 10  1  0  0  0  0
  5 24  1  0  0  0  0
  6 11  1  0  0  0  0
  6 24  2  0  0  0  0
  7 12  1  0  0  0  0
  8 10  2  0  0  0  0
  8 21  1  0  0  0  0
  9 11  2  0  0  0  0
  9 19  1  0  0  0  0
 10 26  1  0  0  0  0
 11 27  1  0  0  0  0
 12 25  1  0  0  0  0
 12 28  2  0  0  0  0
 13 20  1  0  0  0  0
 13 27  1  0  0  0  0
 13 29  2  0  0  0  0
 14 22  1  0  0  0  0
 14 26  1  0  0  0  0
 14 30  2  0  0  0  0
 15 17  1  0  0  0  0
 15 25  1  0  0  0  0
 16 18  1  0  0  0  0
 16 25  1  0  0  0  0
 17 31  1  0  0  0  0
 18 31  1  0  0  0  0
 21 23  1  0  0  0  0
 22 32  1  0  0  0  0
 23 27  1  0  0  0  0
  1 33  1  0  0  0  0
  2 34  1  0  0  0  0
  3 35  1  0  0  0  0
  4 36  1  0  0  0  0
  5 37  1  0  0  0  0
  6 38  1  0  0  0  0
 15 39  1  0  0  0  0
 15 40  1  0  0  0  0
 16 41  1  0  0  0  0
 16 42  1  0  0  0  0
 17 43  1  0  0  0  0
 17 44  1  0  0  0  0
 18 45  1  0  0  0  0
 18 46  1  0  0  0  0
 19 47  1  0  0  0  0
 19 48  1  0  0  0  0
 19 49  1  0  0  0  0
 20 50  1  0  0  0  0
 20 51  1  0  0  0  0
 20 52  1  0  0  0  0
 21 53  1  0  0  0  0
 21 54  1  0  0  0  0
 22 55  1  0  0  0  0
 22 56  1  0  0  0  0
 23 57  1  0  0  0  0
 23 58  1  0  0  0  0
 26 59  1  0  0  0  0
M  END
> <creator>
Nir London, The Weizmann Institute of Science

> <fragments>
x0107

> <real_space>
FALSE

> <SCR>
FALSE

> <BB>
FALSE

> <link>
https://covid.postera.ai/covid/submissions/ed286faa-f0a4-44f4-b4c7-e3e3ee31719b

> <covalent_frag>
TRUE

> <covalent_warhead>
TRUE

> <acrylamide>
FALSE

> <acrylamide_adduct>
FALSE

> <chloroacetamide>
TRUE

> <chloroacetamide_adduct>
FALSE

> <vinylsulfonamide>
FALSE

> <vinylsulfonamide_adduct>
FALSE

> <in_molport_or_mcule>
FALSE

> <in_emolecules>
FALSE

> <Hybrid2>
-8.030373

> <Mpro-x0107_dock>
-8.030373

> <Mpro-x0305_dock>
-4.212311

> <Mpro-x0786_dock>
1.620144

> <site>
active-noncovalent

> <covalent_distance_min>
8.910005

> <covalent_distance_mean>
9.93354

> <covalent_distance_stderr>
0.07057653

$$$$
GER-FIO-88d-1
  -OEChem-04062011563D

 58 61  0     0  0  0  0  0  0999 V2000
   13.1327   -2.0601   23.2015 C   0  0  0  0  0  0  0  0  0  0  0  0
   14.1855   -1.5654   22.4413 C   0  0  0  0  0  0  0  0  0  0  0  0
    8.6301   -0.0330   26.4473 C   0  0  0  0  0  0  0  0  0  0  0  0
    7.4696    6.8743   22.1940 C   0  0  0  0  0  0  0  0  0  0  0  0
   12.1442   -1.1941   23.6747 C   0  0  0  0  0  0  0  0  0  0  0  0
    9.8130    0.4295   25.8706 C   0  0  0  0  0  0  0  0  0  0  0  0
   14.2489   -0.2043   22.1570 C   0  0  0  0  0  0  0  0  0  0  0  0
    7.5183   -0.2924   25.6458 C   0  0  0  0  0  0  0  0  0  0  0  0
    8.4584    5.9017   22.0951 C   0  0  0  0  0  0  0  0  0  0  0  0
    8.7723    0.3733   23.6910 C   0  0  0  0  0  0  0  0  0  0  0  0
    6.8899    7.0860   23.4345 C   0  0  0  0  0  0  0  0  0  0  0  0
    8.1915    5.4684   24.4183 C   0  0  0  0  0  0  0  0  0  0  0  0
    9.8840    0.6327   24.4925 C   0  0  0  0  0  0  0  0  0  0  0  0
   12.1966    0.1839   23.4002 C   0  0  0  0  0  0  0  0  0  0  0  0
   13.2641    0.6720   22.6401 C   0  0  0  0  0  0  0  0  0  0  0  0
    7.5894   -0.0892   24.2677 C   0  0  0  0  0  0  0  0  0  0  0  0
    8.8320    5.1808   23.2238 C   0  0  0  0  0  0  0  0  0  0  0  0
   11.1455    1.1268   23.8774 C   0  0  0  0  0  0  0  0  0  0  0  0
   11.3587    2.4624   23.7362 C   0  0  0  0  0  0  0  0  0  0  0  0
   10.3020    3.3961   24.1912 C   0  0  0  0  0  0  0  0  0  0  0  0
   12.8428    4.3740   23.2604 C   0  0  0  0  0  0  0  0  0  0  0  0
   13.3368    2.1269   22.2916 C   0  0  0  0  0  0  0  0  0  0  0  0
    8.5431   -2.9606   22.6764 C   0  0  0  0  0  0  0  0  0  0  0  0
    6.4009   -0.3679   23.4110 C   0  0  0  0  0  0  0  0  0  0  0  0
   13.6016    4.9973   22.1089 C   0  0  0  0  0  0  0  0  0  0  0  0
    7.2266    6.4057   24.5532 N   0  0  0  0  0  0  0  0  0  0  0  0
   12.4964    3.0112   23.1171 N   0  0  0  0  0  0  0  0  0  0  0  0
    9.8356    4.1839   23.1543 N   0  0  0  0  0  0  0  0  0  0  0  0
    6.1902   -1.7789   23.2086 N   0  0  0  0  0  0  0  0  0  0  0  0
    9.9603    3.3847   25.3659 O   0  0  0  0  0  0  0  0  0  0  0  0
   12.5961    5.0752   24.2452 O   0  0  0  0  0  0  0  0  0  0  0  0
    7.2192   -1.6557   20.8340 O   0  0  0  0  0  0  0  0  0  0  0  0
    6.3146   -3.8591   21.6605 O   0  0  0  0  0  0  0  0  0  0  0  0
    6.9798   -2.5950   21.9120 S   0  0  0  0  0  0  0  0  0  0  0  0
   12.3924    5.6169   20.9926 Cl  0  0  0  0  0  0  0  0  0  0  0  0
   13.0754   -3.1214   23.4253 H   0  0  0  0  0  0  0  0  0  0  0  0
   14.9528   -2.2367   22.0679 H   0  0  0  0  0  0  0  0  0  0  0  0
    8.5752   -0.1915   27.5204 H   0  0  0  0  0  0  0  0  0  0  0  0
    7.1625    7.4484   21.3273 H   0  0  0  0  0  0  0  0  0  0  0  0
   11.3346   -1.6187   24.2637 H   0  0  0  0  0  0  0  0  0  0  0  0
   10.6710    0.6274   26.5087 H   0  0  0  0  0  0  0  0  0  0  0  0
   15.0710    0.1744   21.5545 H   0  0  0  0  0  0  0  0  0  0  0  0
    6.6009   -0.6530   26.1034 H   0  0  0  0  0  0  0  0  0  0  0  0
    8.9308    5.7139   21.1345 H   0  0  0  0  0  0  0  0  0  0  0  0
    8.8211    0.5301   22.6153 H   0  0  0  0  0  0  0  0  0  0  0  0
    6.1135    7.8327   23.5640 H   0  0  0  0  0  0  0  0  0  0  0  0
    8.4398    4.9395   25.3336 H   0  0  0  0  0  0  0  0  0  0  0  0
   14.3799    2.4474   22.3855 H   0  0  0  0  0  0  0  0  0  0  0  0
   13.0255    2.2649   21.2488 H   0  0  0  0  0  0  0  0  0  0  0  0
    9.1643   -3.4913   21.9532 H   0  0  0  0  0  0  0  0  0  0  0  0
    9.0130   -2.0196   22.9665 H   0  0  0  0  0  0  0  0  0  0  0  0
    8.3603   -3.5834   23.5534 H   0  0  0  0  0  0  0  0  0  0  0  0
    5.4847    0.0415   23.8593 H   0  0  0  0  0  0  0  0  0  0  0  0
    6.5020    0.0936   22.4191 H   0  0  0  0  0  0  0  0  0  0  0  0
   14.1957    4.2297   21.6303 H   0  0  0  0  0  0  0  0  0  0  0  0
   14.2083    5.8071   22.4925 H   0  0  0  0  0  0  0  0  0  0  0  0
   10.2442    4.0490   22.2316 H   0  0  0  0  0  0  0  0  0  0  0  0
    6.0760   -2.3460   24.0755 H   0  0  0  0  0  0  0  0  0  0  0  0
  1  2  1  0  0  0  0
  1  5  2  0  0  0  0
  2  7  2  0  0  0  0
  3  6  1  0  0  0  0
  3  8  2  0  0  0  0
  4  9  2  0  0  0  0
  4 11  1  0  0  0  0
  5 14  1  0  0  0  0
  6 13  2  0  0  0  0
  7 15  1  0  0  0  0
  8 16  1  0  0  0  0
  9 17  1  0  0  0  0
 10 13  1  0  0  0  0
 10 16  2  0  0  0  0
 11 26  2  0  0  0  0
 12 17  2  0  0  0  0
 12 26  1  0  0  0  0
 13 18  1  0  0  0  0
 14 15  2  0  0  0  0
 14 18  1  0  0  0  0
 15 22  1  0  0  0  0
 16 24  1  0  0  0  0
 17 28  1  0  0  0  0
 18 19  2  0  0  0  0
 19 20  1  0  0  0  0
 19 27  1  0  0  0  0
 20 28  1  0  0  0  0
 20 30  2  0  0  0  0
 21 25  1  0  0  0  0
 21 27  1  0  0  0  0
 21 31  2  0  0  0  0
 22 27  1  0  0  0  0
 23 34  1  0  0  0  0
 24 29  1  0  0  0  0
 25 35  1  0  0  0  0
 29 34  1  0  0  0  0
 32 34  2  0  0  0  0
 33 34  2  0  0  0  0
  1 36  1  0  0  0  0
  2 37  1  0  0  0  0
  3 38  1  0  0  0  0
  4 39  1  0  0  0  0
  5 40  1  0  0  0  0
  6 41  1  0  0  0  0
  7 42  1  0  0  0  0
  8 43  1  0  0  0  0
  9 44  1  0  0  0  0
 10 45  1  0  0  0  0
 11 46  1  0  0  0  0
 12 47  1  0  0  0  0
 22 48  1  0  0  0  0
 22 49  1  0  0  0  0
 23 50  1  0  0  0  0
 23 51  1  0  0  0  0
 23 52  1  0  0  0  0
 24 53  1  0  0  0  0
 24 54  1  0  0  0  0
 25 55  1  0  0  0  0
 25 56  1  0  0  0  0
 28 57  1  0  0  0  0
 29 58  1  0  0  0  0
M  END
> <creator>
Geraldo R Sartori, Fiocruz - CE

> <fragments>
x0195

> <real_space>
FALSE

> <SCR>
FALSE

> <BB>
FALSE

> <link>
https://covid.postera.ai/covid/submissions/88d97d8c-3d99-4435-b726-d1500fd3959b

> <covalent_frag>
TRUE

> <covalent_warhead>
TRUE

> <acrylamide>
FALSE

> <acrylamide_adduct>
FALSE

> <chloroacetamide>
TRUE

> <chloroacetamide_adduct>
FALSE

> <vinylsulfonamide>
FALSE

> <vinylsulfonamide_adduct>
FALSE

> <in_molport_or_mcule>
FALSE

> <in_emolecules>
FALSE

> <Hybrid2>
-8.016589

> <Mpro-x0195_dock>
-8.016589

> <Mpro-x0874_dock>
-6.658993

> <Mpro-x0161_dock>
-5.530325

> <Mpro-x0434_dock>
-2.076902

> <Mpro-x1392_dock>
-0.359231

> <site>
active-noncovalent

> <covalent_distance_min>
10.770989

> <covalent_distance_mean>
11.988277

> <covalent_distance_stderr>
0.080781884

$$$$
PAU-WEI-f73-3
  -OEChem-04062011563D

 50 52  0     1  0  0  0  0  0999 V2000
   14.3476   -0.2280   21.3423 C   0  0  0  0  0  0  0  0  0  0  0  0
   10.3698   -3.1129   23.9218 C   0  0  0  0  0  0  0  0  0  0  0  0
   10.0036   -4.0104   24.9661 C   0  0  0  0  0  0  0  0  0  0  0  0
   12.0576   -0.4709   22.1871 C   0  0  0  0  0  0  0  0  0  0  0  0
   13.4858    1.1611   23.1636 C   0  0  0  0  0  0  0  0  0  0  0  0
   13.2990    0.1539   22.2306 C   0  0  0  0  0  0  0  0  0  0  0  0
   11.0551   -0.0750   23.0655 C   0  0  0  0  0  0  0  0  0  0  0  0
    9.6212   -1.9568   23.9467 C   0  0  0  0  0  0  0  0  0  0  0  0
   11.3424    0.9423   23.9613 C   0  0  0  0  0  0  0  0  0  0  0  0
    8.9889   -3.5059   25.7496 C   0  0  0  0  0  0  0  0  0  0  0  0
    6.2434   -1.2594   18.7132 C   0  0  0  0  0  0  0  0  0  0  0  0
    8.3668   -0.2397   19.4698 C   0  0  0  0  0  0  0  0  0  0  0  0
    7.8805   -2.5526   20.1678 C   0  0  0  0  0  0  0  0  0  0  0  0
    8.7200    0.1396   20.9005 C   0  0  0  0  0  0  0  0  0  0  0  0
    8.2284   -2.2083   21.6097 C   0  0  0  0  0  0  0  0  0  0  0  0
    9.8498    3.6968   24.6163 C   0  0  0  0  0  0  0  0  0  0  0  0
    5.6505    0.1206   18.5797 C   0  0  0  0  0  0  0  0  0  0  0  0
   10.3387    2.6144   25.5176 C   0  0  0  0  0  0  0  0  0  0  0  0
    9.6989   -0.7593   23.0145 C   0  0  2  0  0  0  0  0  0  0  0  0
   15.2007   -0.5388   20.6195 N   0  0  0  0  0  0  0  0  0  0  0  0
   12.5361    1.5729   24.0332 N   0  0  0  0  0  0  0  0  0  0  0  0
    7.4288   -1.3619   19.4398 N   0  0  0  0  0  0  0  0  0  0  0  0
   10.3233    1.3496   24.8583 N   0  0  0  0  0  0  0  0  0  0  0  0
    9.2402   -1.0843   21.6208 N   0  3  0  0  0  0  0  0  0  0  0  0
    5.6702   -2.2156   18.1849 O   0  0  0  0  0  0  0  0  0  0  0  0
    8.4821   -1.9565   25.2253 S   0  0  0  0  0  0  0  0  0  0  0  0
    5.2865    0.6725   20.2108 Cl  0  0  0  0  0  0  0  0  0  0  0  0
    8.2304   -4.4087   27.2385 Br  0  0  0  0  0  0  0  0  0  0  0  0
   11.1441   -3.3094   23.1911 H   0  0  0  0  0  0  0  0  0  0  0  0
   10.4676   -4.9757   25.1260 H   0  0  0  0  0  0  0  0  0  0  0  0
   11.8664   -1.2670   21.4707 H   0  0  0  0  0  0  0  0  0  0  0  0
   14.4318    1.6881   23.2488 H   0  0  0  0  0  0  0  0  0  0  0  0
    7.9483    0.6301   18.9538 H   0  0  0  0  0  0  0  0  0  0  0  0
    9.2633   -0.5449   18.9165 H   0  0  0  0  0  0  0  0  0  0  0  0
    8.7604   -2.9414   19.6411 H   0  0  0  0  0  0  0  0  0  0  0  0
    7.1288   -3.3437   20.1608 H   0  0  0  0  0  0  0  0  0  0  0  0
    9.5166    0.8906   20.9159 H   0  0  0  0  0  0  0  0  0  0  0  0
    7.8505    0.5119   21.4538 H   0  0  0  0  0  0  0  0  0  0  0  0
    7.3507   -1.8768   22.1757 H   0  0  0  0  0  0  0  0  0  0  0  0
    8.6885   -3.0660   22.1109 H   0  0  0  0  0  0  0  0  0  0  0  0
    8.8201    3.4740   24.3000 H   0  0  0  0  0  0  0  0  0  0  0  0
    9.8689    4.6569   25.1527 H   0  0  0  0  0  0  0  0  0  0  0  0
   10.5000    3.7582   23.7312 H   0  0  0  0  0  0  0  0  0  0  0  0
    4.7391    0.0566   17.9963 H   0  0  0  0  0  0  0  0  0  0  0  0
    6.3826    0.7745   18.1200 H   0  0  0  0  0  0  0  0  0  0  0  0
   11.3682    2.8444   25.8292 H   0  0  0  0  0  0  0  0  0  0  0  0
    9.6895    2.5650   26.4043 H   0  0  0  0  0  0  0  0  0  0  0  0
    8.9513   -0.0199   23.3321 H   0  0  0  0  0  0  0  0  0  0  0  0
    9.5792    0.7011   25.0144 H   0  0  0  0  0  0  0  0  0  0  0  0
   10.0703   -1.4134   21.1087 H   0  0  0  0  0  0  0  0  0  0  0  0
  1  6  1  0  0  0  0
  1 20  3  0  0  0  0
  2  3  1  0  0  0  0
  2  8  2  0  0  0  0
  3 10  2  0  0  0  0
  4  6  2  0  0  0  0
  4  7  1  0  0  0  0
  5  6  1  0  0  0  0
  5 21  2  0  0  0  0
  7  9  2  0  0  0  0
  7 19  1  0  0  0  0
  8 19  1  0  0  0  0
  8 26  1  0  0  0  0
  9 21  1  0  0  0  0
  9 23  1  0  0  0  0
 10 26  1  0  0  0  0
 10 28  1  0  0  0  0
 11 17  1  0  0  0  0
 11 22  1  0  0  0  0
 11 25  2  0  0  0  0
 12 14  1  0  0  0  0
 12 22  1  0  0  0  0
 13 15  1  0  0  0  0
 13 22  1  0  0  0  0
 14 24  1  0  0  0  0
 15 24  1  0  0  0  0
 16 18  1  0  0  0  0
 17 27  1  0  0  0  0
 18 23  1  0  0  0  0
 19 24  1  0  0  0  0
  2 29  1  0  0  0  0
  3 30  1  0  0  0  0
  4 31  1  0  0  0  0
  5 32  1  0  0  0  0
 12 33  1  0  0  0  0
 12 34  1  0  0  0  0
 13 35  1  0  0  0  0
 13 36  1  0  0  0  0
 14 37  1  0  0  0  0
 14 38  1  0  0  0  0
 15 39  1  0  0  0  0
 15 40  1  0  0  0  0
 16 41  1  0  0  0  0
 16 42  1  0  0  0  0
 16 43  1  0  0  0  0
 17 44  1  0  0  0  0
 17 45  1  0  0  0  0
 18 46  1  0  0  0  0
 18 47  1  0  0  0  0
 19 48  1  0  0  0  0
 23 49  1  0  0  0  0
 24 50  1  0  0  0  0
M  CHG  1  24   1
M  END
> <creator>
Paul Gehrtz, Weizmann Institute

> <fragments>
x0830

> <real_space>
FALSE

> <SCR>
FALSE

> <BB>
FALSE

> <link>
https://covid.postera.ai/covid/submissions/f734c343-ab19-4bdf-8469-060177d375ae

> <covalent_frag>
TRUE

> <covalent_warhead>
TRUE

> <acrylamide>
FALSE

> <acrylamide_adduct>
FALSE

> <chloroacetamide>
TRUE

> <chloroacetamide_adduct>
FALSE

> <vinylsulfonamide>
FALSE

> <vinylsulfonamide_adduct>
FALSE

> <in_molport_or_mcule>
FALSE

> <in_emolecules>
FALSE

> <Hybrid2>
-8.014444

> <Mpro-x0830_dock>
-8.014444

> <Mpro-x1249_dock>
-5.984598

> <Mpro-x0104_dock>
-5.773022

> <Mpro-x1385_dock>
-4.304121

> <Mpro-x0305_dock>
-3.000816

> <site>
active-covalent

> <covalent_distance_min>
3.0168977

> <covalent_distance_mean>
3.6942713

> <covalent_distance_stderr>
0.039768703

$$$$
MAK-UNK-af8-21
  -OEChem-04062011563D

 63 65  0     1  0  0  0  0  0999 V2000
   10.1016    6.4762   24.9800 C   0  0  0  0  0  0  0  0  0  0  0  0
   14.1042    0.0794   22.0186 C   0  0  0  0  0  0  0  0  0  0  0  0
   13.5284    1.3070   22.3458 C   0  0  0  0  0  0  0  0  0  0  0  0
   13.7210   -1.0749   22.7016 C   0  0  0  0  0  0  0  0  0  0  0  0
   12.1863    0.2261   24.0392 C   0  0  0  0  0  0  0  0  0  0  0  0
   12.5695    1.3804   23.3561 C   0  0  0  0  0  0  0  0  0  0  0  0
   12.7621   -1.0015   23.7120 C   0  0  0  0  0  0  0  0  0  0  0  0
    7.7819   -5.1124   23.1880 C   0  0  0  0  0  0  0  0  0  0  0  0
   10.6425    2.9651   22.9248 C   0  0  0  0  0  0  0  0  0  0  0  0
   12.9250    3.8810   23.5131 C   0  0  0  0  0  0  0  0  0  0  0  0
    8.9821   -3.9570   25.0171 C   0  0  0  0  0  0  0  0  0  0  0  0
    8.9647   -2.8959   22.7930 C   0  0  0  0  0  0  0  0  0  0  0  0
   10.4879   -3.7637   25.1203 C   0  0  0  0  0  0  0  0  0  0  0  0
   10.4711   -2.6848   22.8635 C   0  0  0  0  0  0  0  0  0  0  0  0
   11.9424    2.7164   23.7106 C   0  0  2  0  0  0  0  0  0  0  0  0
   10.0170    4.3006   23.3239 C   0  0  1  0  0  0  0  0  0  0  0  0
   12.2977    5.2218   23.8982 C   0  0  2  0  0  0  0  0  0  0  0  0
   10.9829    5.4739   23.1529 C   0  0  2  0  0  0  0  0  0  0  0  0
    6.4681    4.0958   21.9573 C   0  0  0  0  0  0  0  0  0  0  0  0
   12.3505   -2.2430   24.4471 C   0  0  0  0  0  0  0  0  0  0  0  0
    7.3890   -5.1203   21.7322 C   0  0  0  0  0  0  0  0  0  0  0  0
    7.6210    3.7552   22.8762 C   0  0  0  0  0  0  0  0  0  0  0  0
    9.8599    6.3396   26.1068 N   0  0  0  0  0  0  0  0  0  0  0  0
    8.5568   -4.0368   23.6196 N   0  0  0  0  0  0  0  0  0  0  0  0
   10.8855   -2.5491   24.3116 N   0  3  0  0  0  0  0  0  0  0  0  0
    8.8178    4.5346   22.4687 N   0  3  0  0  0  0  0  0  0  0  0  0
    7.4124   -6.0364   23.9172 O   0  0  0  0  0  0  0  0  0  0  0  0
   13.2092    6.2707   23.5729 O   0  0  0  0  0  0  0  0  0  0  0  0
   10.3716    6.6483   23.6895 O   0  0  0  0  0  0  0  0  0  0  0  0
    5.8571   -5.9809   21.6286 Cl  0  0  0  0  0  0  0  0  0  0  0  0
   14.8508    0.0223   21.2317 H   0  0  0  0  0  0  0  0  0  0  0  0
   13.8328    2.2010   21.8077 H   0  0  0  0  0  0  0  0  0  0  0  0
   14.1754   -2.0270   22.4405 H   0  0  0  0  0  0  0  0  0  0  0  0
   11.4381    0.2826   24.8264 H   0  0  0  0  0  0  0  0  0  0  0  0
   10.8563    2.9565   21.8471 H   0  0  0  0  0  0  0  0  0  0  0  0
    9.9340    2.1482   23.1123 H   0  0  0  0  0  0  0  0  0  0  0  0
   13.8346    3.7198   24.1062 H   0  0  0  0  0  0  0  0  0  0  0  0
   13.2658    3.9225   22.4691 H   0  0  0  0  0  0  0  0  0  0  0  0
    8.6912   -4.8595   25.5637 H   0  0  0  0  0  0  0  0  0  0  0  0
    8.4502   -3.1143   25.4755 H   0  0  0  0  0  0  0  0  0  0  0  0
    8.4336   -2.0140   23.1712 H   0  0  0  0  0  0  0  0  0  0  0  0
    8.6702   -3.0228   21.7498 H   0  0  0  0  0  0  0  0  0  0  0  0
   10.7834   -3.5762   26.1576 H   0  0  0  0  0  0  0  0  0  0  0  0
   11.0407   -4.6249   24.7284 H   0  0  0  0  0  0  0  0  0  0  0  0
   11.0241   -3.5269   22.4325 H   0  0  0  0  0  0  0  0  0  0  0  0
   10.7550   -1.7578   22.3549 H   0  0  0  0  0  0  0  0  0  0  0  0
   11.6846    2.6612   24.7976 H   0  0  0  0  0  0  0  0  0  0  0  0
    9.6360    4.2595   24.3513 H   0  0  0  0  0  0  0  0  0  0  0  0
   12.1297    5.2643   24.9816 H   0  0  0  0  0  0  0  0  0  0  0  0
   11.1857    5.6645   22.0904 H   0  0  0  0  0  0  0  0  0  0  0  0
    6.2200    5.1584   22.0401 H   0  0  0  0  0  0  0  0  0  0  0  0
    6.7200    3.8874   20.9123 H   0  0  0  0  0  0  0  0  0  0  0  0
    5.5737    3.5184   22.2137 H   0  0  0  0  0  0  0  0  0  0  0  0
   12.8908   -3.1204   24.0758 H   0  0  0  0  0  0  0  0  0  0  0  0
   12.5555   -2.1540   25.5194 H   0  0  0  0  0  0  0  0  0  0  0  0
    8.1498   -5.6451   21.1657 H   0  0  0  0  0  0  0  0  0  0  0  0
    7.2648   -4.0973   21.3962 H   0  0  0  0  0  0  0  0  0  0  0  0
    7.8897    2.6972   22.8130 H   0  0  0  0  0  0  0  0  0  0  0  0
    7.4028    4.0209   23.9142 H   0  0  0  0  0  0  0  0  0  0  0  0
   10.3804   -1.7410   24.7010 H   0  0  0  0  0  0  0  0  0  0  0  0
    8.5912    5.5370   22.4805 H   0  0  0  0  0  0  0  0  0  0  0  0
    9.0551    4.3094   21.4943 H   0  0  0  0  0  0  0  0  0  0  0  0
   14.0157    6.1017   24.0834 H   0  0  0  0  0  0  0  0  0  0  0  0
  1 23  3  0  0  0  0
  1 29  1  0  0  0  0
  2  3  2  0  0  0  0
  2  4  1  0  0  0  0
  3  6  1  0  0  0  0
  4  7  2  0  0  0  0
  5  6  2  0  0  0  0
  5  7  1  0  0  0  0
  6 15  1  0  0  0  0
  7 20  1  0  0  0  0
  8 21  1  0  0  0  0
  8 24  1  0  0  0  0
  8 27  2  0  0  0  0
  9 15  1  0  0  0  0
  9 16  1  0  0  0  0
 10 15  1  0  0  0  0
 10 17  1  0  0  0  0
 11 13  1  0  0  0  0
 11 24  1  0  0  0  0
 12 14  1  0  0  0  0
 12 24  1  0  0  0  0
 13 25  1  0  0  0  0
 14 25  1  0  0  0  0
 16 18  1  0  0  0  0
 16 26  1  0  0  0  0
 17 18  1  0  0  0  0
 17 28  1  0  0  0  0
 18 29  1  0  0  0  0
 19 22  1  0  0  0  0
 20 25  1  0  0  0  0
 21 30  1  0  0  0  0
 22 26  1  0  0  0  0
  2 31  1  0  0  0  0
  3 32  1  0  0  0  0
  4 33  1  0  0  0  0
  5 34  1  0  0  0  0
  9 35  1  0  0  0  0
  9 36  1  0  0  0  0
 10 37  1  0  0  0  0
 10 38  1  0  0  0  0
 11 39  1  0  0  0  0
 11 40  1  0  0  0  0
 12 41  1  0  0  0  0
 12 42  1  0  0  0  0
 13 43  1  0  0  0  0
 13 44  1  0  0  0  0
 14 45  1  0  0  0  0
 14 46  1  0  0  0  0
 15 47  1  0  0  0  0
 16 48  1  0  0  0  0
 17 49  1  0  0  0  0
 18 50  1  0  0  0  0
 19 51  1  0  0  0  0
 19 52  1  0  0  0  0
 19 53  1  0  0  0  0
 20 54  1  0  0  0  0
 20 55  1  0  0  0  0
 21 56  1  0  0  0  0
 21 57  1  0  0  0  0
 22 58  1  0  0  0  0
 22 59  1  0  0  0  0
 25 60  1  0  0  0  0
 26 61  1  0  0  0  0
 26 62  1  0  0  0  0
 28 63  1  0  0  0  0
M  CHG  2  25   1  26   1
M  END
> <creator>
Maksym Voznyy

> <fragments>
x0161

> <real_space>
FALSE

> <SCR>
FALSE

> <BB>
FALSE

> <link>
https://covid.postera.ai/covid/submissions/af83ef51-35cf-489e-b3bd-9012d86d8275

> <covalent_frag>
TRUE

> <covalent_warhead>
TRUE

> <acrylamide>
FALSE

> <acrylamide_adduct>
FALSE

> <chloroacetamide>
TRUE

> <chloroacetamide_adduct>
FALSE

> <vinylsulfonamide>
FALSE

> <vinylsulfonamide_adduct>
FALSE

> <in_molport_or_mcule>
FALSE

> <in_emolecules>
FALSE

> <Hybrid2>
-7.992857

> <Mpro-x0161_dock>
-7.992857

> <Mpro-x0104_dock>
-7.147109

> <Mpro-x0195_dock>
-6.075974

> <Mpro-x0072_dock>
-5.981178

> <Mpro-x0387_dock>
-5.360083

> <Mpro-x0692_dock>
-3.909633

> <Mpro-x0305_dock>
0.258218

> <site>
active-noncovalent

$$$$
SEA-TRI-98d-1
  -OEChem-04062011563D

 67 70  0     0  0  0  0  0  0999 V2000
   10.4082    1.9031   26.0396 C   0  0  0  0  0  0  0  0  0  0  0  0
   11.5209    2.1119   25.2243 C   0  0  0  0  0  0  0  0  0  0  0  0
    9.6552    0.7403   25.9066 C   0  0  0  0  0  0  0  0  0  0  0  0
   13.0115    1.3515   23.4347 C   0  0  0  0  0  0  0  0  0  0  0  0
   12.6153   -0.7699   22.3528 C   0  0  0  0  0  0  0  0  0  0  0  0
   11.8946    1.1578   24.2638 C   0  0  0  0  0  0  0  0  0  0  0  0
   11.1288   -0.0246   24.1285 C   0  0  0  0  0  0  0  0  0  0  0  0
   11.5025   -0.9787   23.1681 C   0  0  0  0  0  0  0  0  0  0  0  0
   10.0119   -0.2182   24.9576 C   0  0  0  0  0  0  0  0  0  0  0  0
   13.3683    0.3930   22.4858 C   0  0  0  0  0  0  0  0  0  0  0  0
    5.8433   -0.8149   17.5808 C   0  0  0  0  0  0  0  0  0  0  0  0
    6.0300   -0.7230   18.8991 C   0  0  0  0  0  0  0  0  0  0  0  0
    6.2716   -1.9573   19.6729 C   0  0  0  0  0  0  0  0  0  0  0  0
    7.6877   -0.6422   21.3429 C   0  0  0  0  0  0  0  0  0  0  0  0
    7.2598   -3.0534   21.6461 C   0  0  0  0  0  0  0  0  0  0  0  0
    5.4444   -2.3637   25.6201 C   0  0  0  0  0  0  0  0  0  0  0  0
    6.9935   -4.2088   25.4124 C   0  0  0  0  0  0  0  0  0  0  0  0
    9.1681   -0.8616   21.6315 C   0  0  0  0  0  0  0  0  0  0  0  0
    8.7348   -3.3004   21.9203 C   0  0  0  0  0  0  0  0  0  0  0  0
    4.5849   -2.9117   24.4857 C   0  0  0  0  0  0  0  0  0  0  0  0
    6.1789   -4.8104   24.2721 C   0  0  0  0  0  0  0  0  0  0  0  0
    3.8586   -5.0272   23.3782 C   0  0  0  0  0  0  0  0  0  0  0  0
   10.7644   -2.2647   22.9397 C   0  0  0  0  0  0  0  0  0  0  0  0
    7.6712   -2.1803   26.5219 C   0  0  0  0  0  0  0  0  0  0  0  0
    9.1206   -2.1184   26.0759 C   0  0  0  0  0  0  0  0  0  0  0  0
    7.0583   -1.8623   20.8183 N   0  0  0  0  0  0  0  0  0  0  0  0
    6.8522   -2.7474   25.4511 N   0  0  0  0  0  0  0  0  0  0  0  0
    4.7336   -4.4114   24.4327 N   0  3  0  0  0  0  0  0  0  0  0  0
    9.3311   -2.0577   22.5383 N   0  3  0  0  0  0  0  0  0  0  0  0
    5.7574   -2.9980   19.2595 O   0  0  0  0  0  0  0  0  0  0  0  0
    9.2188   -1.3279   24.8946 O   0  0  0  0  0  0  0  0  0  0  0  0
   14.7409    0.6493   21.4793 Cl  0  0  0  0  0  0  0  0  0  0  0  0
   10.1300    2.6489   26.7786 H   0  0  0  0  0  0  0  0  0  0  0  0
   12.0948    3.0282   25.3460 H   0  0  0  0  0  0  0  0  0  0  0  0
    8.7901    0.5871   26.5465 H   0  0  0  0  0  0  0  0  0  0  0  0
   13.6058    2.2587   23.5327 H   0  0  0  0  0  0  0  0  0  0  0  0
   12.8935   -1.5174   21.6127 H   0  0  0  0  0  0  0  0  0  0  0  0
    5.6616    0.0555   16.9592 H   0  0  0  0  0  0  0  0  0  0  0  0
    5.8703   -1.7838   17.0935 H   0  0  0  0  0  0  0  0  0  0  0  0
    6.0107    0.2249   19.4207 H   0  0  0  0  0  0  0  0  0  0  0  0
    7.1505   -0.3653   22.2577 H   0  0  0  0  0  0  0  0  0  0  0  0
    7.6006    0.1915   20.6453 H   0  0  0  0  0  0  0  0  0  0  0  0
    6.8240   -3.9371   21.1694 H   0  0  0  0  0  0  0  0  0  0  0  0
    6.7145   -2.8938   22.5844 H   0  0  0  0  0  0  0  0  0  0  0  0
    5.3549   -1.2686   25.6148 H   0  0  0  0  0  0  0  0  0  0  0  0
    5.0508   -2.7108   26.5873 H   0  0  0  0  0  0  0  0  0  0  0  0
    6.6897   -4.6615   26.3683 H   0  0  0  0  0  0  0  0  0  0  0  0
    8.0478   -4.4753   25.2549 H   0  0  0  0  0  0  0  0  0  0  0  0
    9.7386   -1.0533   20.7157 H   0  0  0  0  0  0  0  0  0  0  0  0
    9.5906    0.0036   22.1528 H   0  0  0  0  0  0  0  0  0  0  0  0
    8.8624   -4.1164   22.6390 H   0  0  0  0  0  0  0  0  0  0  0  0
    9.2931   -3.5248   21.0045 H   0  0  0  0  0  0  0  0  0  0  0  0
    3.5264   -2.6934   24.6616 H   0  0  0  0  0  0  0  0  0  0  0  0
    4.8856   -2.5097   23.5112 H   0  0  0  0  0  0  0  0  0  0  0  0
    6.5185   -4.4547   23.2923 H   0  0  0  0  0  0  0  0  0  0  0  0
    6.2219   -5.9042   24.3005 H   0  0  0  0  0  0  0  0  0  0  0  0
    4.1847   -4.6455   22.4090 H   0  0  0  0  0  0  0  0  0  0  0  0
    3.9797   -6.1107   23.4344 H   0  0  0  0  0  0  0  0  0  0  0  0
    2.8275   -4.7361   23.5878 H   0  0  0  0  0  0  0  0  0  0  0  0
   11.2320   -2.8536   22.1433 H   0  0  0  0  0  0  0  0  0  0  0  0
   10.7515   -2.8797   23.8460 H   0  0  0  0  0  0  0  0  0  0  0  0
    7.5561   -2.8085   27.4110 H   0  0  0  0  0  0  0  0  0  0  0  0
    7.2972   -1.1759   26.7420 H   0  0  0  0  0  0  0  0  0  0  0  0
    9.4836   -3.1237   25.8408 H   0  0  0  0  0  0  0  0  0  0  0  0
    9.7609   -1.6791   26.8478 H   0  0  0  0  0  0  0  0  0  0  0  0
    4.4101   -4.7835   25.3364 H   0  0  0  0  0  0  0  0  0  0  0  0
    8.8094   -1.8621   23.4039 H   0  0  0  0  0  0  0  0  0  0  0  0
  1  2  2  0  0  0  0
  1  3  1  0  0  0  0
  2  6  1  0  0  0  0
  3  9  2  0  0  0  0
  4  6  2  0  0  0  0
  4 10  1  0  0  0  0
  5  8  1  0  0  0  0
  5 10  2  0  0  0  0
  6  7  1  0  0  0  0
  7  8  2  0  0  0  0
  7  9  1  0  0  0  0
  8 23  1  0  0  0  0
  9 31  1  0  0  0  0
 10 32  1  0  0  0  0
 11 12  2  0  0  0  0
 12 13  1  0  0  0  0
 13 26  1  0  0  0  0
 13 30  2  0  0  0  0
 14 18  1  0  0  0  0
 14 26  1  0  0  0  0
 15 19  1  0  0  0  0
 15 26  1  0  0  0  0
 16 20  1  0  0  0  0
 16 27  1  0  0  0  0
 17 21  1  0  0  0  0
 17 27  1  0  0  0  0
 18 29  1  0  0  0  0
 19 29  1  0  0  0  0
 20 28  1  0  0  0  0
 21 28  1  0  0  0  0
 22 28  1  0  0  0  0
 23 29  1  0  0  0  0
 24 25  1  0  0  0  0
 24 27  1  0  0  0  0
 25 31  1  0  0  0  0
  1 33  1  0  0  0  0
  2 34  1  0  0  0  0
  3 35  1  0  0  0  0
  4 36  1  0  0  0  0
  5 37  1  0  0  0  0
 11 38  1  0  0  0  0
 11 39  1  0  0  0  0
 12 40  1  0  0  0  0
 14 41  1  0  0  0  0
 14 42  1  0  0  0  0
 15 43  1  0  0  0  0
 15 44  1  0  0  0  0
 16 45  1  0  0  0  0
 16 46  1  0  0  0  0
 17 47  1  0  0  0  0
 17 48  1  0  0  0  0
 18 49  1  0  0  0  0
 18 50  1  0  0  0  0
 19 51  1  0  0  0  0
 19 52  1  0  0  0  0
 20 53  1  0  0  0  0
 20 54  1  0  0  0  0
 21 55  1  0  0  0  0
 21 56  1  0  0  0  0
 22 57  1  0  0  0  0
 22 58  1  0  0  0  0
 22 59  1  0  0  0  0
 23 60  1  0  0  0  0
 23 61  1  0  0  0  0
 24 62  1  0  0  0  0
 24 63  1  0  0  0  0
 25 64  1  0  0  0  0
 25 65  1  0  0  0  0
 28 66  1  0  0  0  0
 29 67  1  0  0  0  0
M  CHG  2  28   1  29   1
M  END
> <creator>
Sean McKenna, Trinity College Dublin

> <fragments>
x0830

> <real_space>
FALSE

> <SCR>
FALSE

> <BB>
FALSE

> <link>
https://covid.postera.ai/covid/submissions/98d2cd42-0e2b-453d-9da9-1b5d9463869d

> <covalent_frag>
TRUE

> <covalent_warhead>
TRUE

> <acrylamide>
TRUE

> <acrylamide_adduct>
FALSE

> <chloroacetamide>
FALSE

> <chloroacetamide_adduct>
FALSE

> <vinylsulfonamide>
FALSE

> <vinylsulfonamide_adduct>
FALSE

> <in_molport_or_mcule>
FALSE

> <in_emolecules>
FALSE

> <Hybrid2>
-7.992652

> <Mpro-x0830_dock>
-7.992652

> <site>
active-covalent

> <covalent_distance_min>
6.820517

> <covalent_distance_mean>
7.678358

> <covalent_distance_stderr>
0.044244356

$$$$
AVI-UNI-70b-1
  -OEChem-04062011563D

 50 52  0     1  0  0  0  0  0999 V2000
    6.7216   -5.6875   21.9464 C   0  0  0  0  0  0  0  0  0  0  0  0
    7.3036   -4.5602   22.5262 C   0  0  0  0  0  0  0  0  0  0  0  0
    6.0619    1.0486   17.8532 C   0  0  0  0  0  0  0  0  0  0  0  0
    7.3110    0.7720   18.4088 C   0  0  0  0  0  0  0  0  0  0  0  0
    5.5195   -6.1874   22.4472 C   0  0  0  0  0  0  0  0  0  0  0  0
    5.0523    0.8864   20.0422 C   0  0  0  0  0  0  0  0  0  0  0  0
    5.4814   -4.4329   24.1076 C   0  0  0  0  0  0  0  0  0  0  0  0
    6.3014    0.6098   20.5978 C   0  0  0  0  0  0  0  0  0  0  0  0
    6.6835   -3.9329   23.6068 C   0  0  0  0  0  0  0  0  0  0  0  0
    4.9325    1.1058   18.6699 C   0  0  0  0  0  0  0  0  0  0  0  0
    7.4308    0.5526   19.7811 C   0  0  0  0  0  0  0  0  0  0  0  0
    4.8994   -5.5601   23.5277 C   0  0  0  0  0  0  0  0  0  0  0  0
    9.7443    1.2377   23.2020 C   0  0  0  0  0  0  0  0  0  0  0  0
    8.1205    0.3542   24.8155 C   0  0  0  0  0  0  0  0  0  0  0  0
    7.2565    1.4990   22.7537 C   0  0  0  0  0  0  0  0  0  0  0  0
    6.7829   -0.3652   24.9123 C   0  0  0  0  0  0  0  0  0  0  0  0
    6.8914   -1.0536   22.4258 C   0  0  0  0  0  0  0  0  0  0  0  0
    6.4135    0.3725   22.0999 C   0  0  2  0  0  0  0  0  0  0  0  0
    7.3107   -2.7212   24.2307 C   0  0  0  0  0  0  0  0  0  0  0  0
   10.7849    0.7740   24.1893 C   0  0  0  0  0  0  0  0  0  0  0  0
    8.4040    1.0134   23.5369 N   0  0  0  0  0  0  0  0  0  0  0  0
    6.6081   -1.4378   23.8654 N   0  3  1  0  0  0  0  0  0  0  0  0
   10.1101    1.7822   22.1563 O   0  0  0  0  0  0  0  0  0  0  0  0
    3.7139    1.3761   18.1273 O   0  0  0  0  0  0  0  0  0  0  0  0
    8.6583    0.2824   20.3072 O   0  0  0  0  0  0  0  0  0  0  0  0
    3.4169   -6.1781   24.1458 Cl  0  0  0  0  0  0  0  0  0  0  0  0
   11.1655   -0.8934   23.7741 Cl  0  0  0  0  0  0  0  0  0  0  0  0
    7.2048   -6.1758   21.1051 H   0  0  0  0  0  0  0  0  0  0  0  0
    8.2404   -4.1776   22.1296 H   0  0  0  0  0  0  0  0  0  0  0  0
    5.9747    1.2192   16.7838 H   0  0  0  0  0  0  0  0  0  0  0  0
    8.1872    0.7313   17.7671 H   0  0  0  0  0  0  0  0  0  0  0  0
    5.0775   -7.0670   21.9855 H   0  0  0  0  0  0  0  0  0  0  0  0
    4.1698    0.9310   20.6758 H   0  0  0  0  0  0  0  0  0  0  0  0
    5.0016   -3.9399   24.9499 H   0  0  0  0  0  0  0  0  0  0  0  0
    8.1723    1.1129   25.6185 H   0  0  0  0  0  0  0  0  0  0  0  0
    8.9466   -0.3481   25.0331 H   0  0  0  0  0  0  0  0  0  0  0  0
    7.6433    2.1872   21.9857 H   0  0  0  0  0  0  0  0  0  0  0  0
    6.6039    2.1160   23.3856 H   0  0  0  0  0  0  0  0  0  0  0  0
    6.6648   -0.8341   25.8962 H   0  0  0  0  0  0  0  0  0  0  0  0
    5.9624    0.3457   24.7591 H   0  0  0  0  0  0  0  0  0  0  0  0
    6.3556   -1.7772   21.7842 H   0  0  0  0  0  0  0  0  0  0  0  0
    7.9709   -1.2031   22.2368 H   0  0  0  0  0  0  0  0  0  0  0  0
    5.3591    0.4807   22.4866 H   0  0  0  0  0  0  0  0  0  0  0  0
    7.2973   -2.7869   25.3239 H   0  0  0  0  0  0  0  0  0  0  0  0
    8.3539   -2.6093   23.9159 H   0  0  0  0  0  0  0  0  0  0  0  0
   10.3675    0.8228   25.1886 H   0  0  0  0  0  0  0  0  0  0  0  0
   11.6678    1.3943   24.0865 H   0  0  0  0  0  0  0  0  0  0  0  0
    5.5837   -1.6966   23.8932 H   0  0  0  0  0  0  0  0  0  0  0  0
    3.7934    1.5040   17.1685 H   0  0  0  0  0  0  0  0  0  0  0  0
    9.3295    0.2791   19.6069 H   0  0  0  0  0  0  0  0  0  0  0  0
  1  2  2  0  0  0  0
  1  5  1  0  0  0  0
  2  9  1  0  0  0  0
  3  4  2  0  0  0  0
  3 10  1  0  0  0  0
  4 11  1  0  0  0  0
  5 12  2  0  0  0  0
  6  8  1  0  0  0  0
  6 10  2  0  0  0  0
  7  9  2  0  0  0  0
  7 12  1  0  0  0  0
  8 11  2  0  0  0  0
  8 18  1  0  0  0  0
  9 19  1  0  0  0  0
 10 24  1  0  0  0  0
 11 25  1  0  0  0  0
 12 26  1  0  0  0  0
 13 20  1  0  0  0  0
 13 21  1  0  0  0  0
 13 23  2  0  0  0  0
 14 16  1  0  0  0  0
 14 21  1  0  0  0  0
 15 18  1  0  0  0  0
 15 21  1  0  0  0  0
 16 22  1  0  0  0  0
 17 18  1  0  0  0  0
 17 22  1  0  0  0  0
 19 22  1  0  0  0  0
 20 27  1  0  0  0  0
  1 28  1  0  0  0  0
  2 29  1  0  0  0  0
  3 30  1  0  0  0  0
  4 31  1  0  0  0  0
  5 32  1  0  0  0  0
  6 33  1  0  0  0  0
  7 34  1  0  0  0  0
 14 35  1  0  0  0  0
 14 36  1  0  0  0  0
 15 37  1  0  0  0  0
 15 38  1  0  0  0  0
 16 39  1  0  0  0  0
 16 40  1  0  0  0  0
 17 41  1  0  0  0  0
 17 42  1  0  0  0  0
 18 43  1  0  0  0  0
 19 44  1  0  0  0  0
 19 45  1  0  0  0  0
 20 46  1  0  0  0  0
 20 47  1  0  0  0  0
 22 48  1  0  0  0  0
 24 49  1  0  0  0  0
 25 50  1  0  0  0  0
M  CHG  1  22   1
M  END
> <creator>
Avinash Punekar, University of Dundee

> <fragments>
x0107

> <real_space>
FALSE

> <SCR>
FALSE

> <BB>
FALSE

> <link>
https://covid.postera.ai/covid/submissions/70b60925-898c-4c22-8c51-c254c464e488

> <covalent_frag>
TRUE

> <covalent_warhead>
TRUE

> <acrylamide>
FALSE

> <acrylamide_adduct>
FALSE

> <chloroacetamide>
TRUE

> <chloroacetamide_adduct>
FALSE

> <vinylsulfonamide>
FALSE

> <vinylsulfonamide_adduct>
FALSE

> <in_molport_or_mcule>
FALSE

> <in_emolecules>
FALSE

> <Hybrid2>
-7.957927

> <Mpro-x0107_dock>
-7.957927

> <Mpro-x0831_dock>
-6.5627

> <Mpro-x1382_dock>
-3.398732

> <site>
active-noncovalent

> <covalent_distance_min>
5.0461893

> <covalent_distance_mean>
6.2124567

> <covalent_distance_stderr>
0.08042155

$$$$
MIH-UNI-e57-5
  -OEChem-04062011563D

 46 47  0     0  0  0  0  0  0999 V2000
   14.7313   -1.8162   24.2196 C   0  0  0  0  0  0  0  0  0  0  0  0
   14.5301   -2.3943   22.9663 C   0  0  0  0  0  0  0  0  0  0  0  0
   14.0769   -0.6306   24.5540 C   0  0  0  0  0  0  0  0  0  0  0  0
   13.6746   -1.7867   22.0473 C   0  0  0  0  0  0  0  0  0  0  0  0
   13.2214   -0.0230   23.6350 C   0  0  0  0  0  0  0  0  0  0  0  0
   13.0202   -0.6011   22.3816 C   0  0  0  0  0  0  0  0  0  0  0  0
    6.7284   -0.9940   20.5269 C   0  0  0  0  0  0  0  0  0  0  0  0
    8.7275   -1.7034   21.8002 C   0  0  0  0  0  0  0  0  0  0  0  0
    8.3436    0.7123   21.5002 C   0  0  0  0  0  0  0  0  0  0  0  0
   10.1749   -1.5494   21.3565 C   0  0  0  0  0  0  0  0  0  0  0  0
    9.7868    0.9031   21.0534 C   0  0  0  0  0  0  0  0  0  0  0  0
   12.5305    1.2454   24.0153 C   0  0  0  0  0  0  0  0  0  0  0  0
   12.1054    0.0342   21.3764 C   0  0  0  0  0  0  0  0  0  0  0  0
    5.9204    0.1472   19.9625 C   0  0  0  0  0  0  0  0  0  0  0  0
   11.6410    1.1100   25.2531 C   0  0  0  0  0  0  0  0  0  0  0  0
    7.8866   -0.6539   21.2244 N   0  0  0  0  0  0  0  0  0  0  0  0
   10.0137   -0.4091   26.7007 N   0  0  0  0  0  0  0  0  0  0  0  0
   10.6505   -0.1558   21.7014 N   0  3  0  0  0  0  0  0  0  0  0  0
    6.3416   -2.1520   20.3499 O   0  0  0  0  0  0  0  0  0  0  0  0
    9.2410    0.4979   24.4209 O   0  0  0  0  0  0  0  0  0  0  0  0
   11.0036   -1.3109   24.5044 O   0  0  0  0  0  0  0  0  0  0  0  0
   10.3885   -0.1195   25.0629 S   0  0  0  0  0  0  0  0  0  0  0  0
    6.5607    0.4714   18.3554 Cl  0  0  0  0  0  0  0  0  0  0  0  0
   15.3981   -2.2890   24.9345 H   0  0  0  0  0  0  0  0  0  0  0  0
   15.0403   -3.3173   22.7065 H   0  0  0  0  0  0  0  0  0  0  0  0
   14.2417   -0.1873   25.5326 H   0  0  0  0  0  0  0  0  0  0  0  0
   13.5240   -2.2451   21.0734 H   0  0  0  0  0  0  0  0  0  0  0  0
    8.3613   -2.6946   21.5150 H   0  0  0  0  0  0  0  0  0  0  0  0
    8.6460   -1.6289   22.8915 H   0  0  0  0  0  0  0  0  0  0  0  0
    8.2499    0.8746   22.5809 H   0  0  0  0  0  0  0  0  0  0  0  0
    7.7162    1.4585   21.0098 H   0  0  0  0  0  0  0  0  0  0  0  0
   10.8198   -2.2556   21.8894 H   0  0  0  0  0  0  0  0  0  0  0  0
   10.2903   -1.6868   20.2755 H   0  0  0  0  0  0  0  0  0  0  0  0
    9.8961    0.8085   19.9673 H   0  0  0  0  0  0  0  0  0  0  0  0
   10.1659    1.8772   21.3790 H   0  0  0  0  0  0  0  0  0  0  0  0
   11.8990    1.5823   23.1759 H   0  0  0  0  0  0  0  0  0  0  0  0
   13.2575    2.0589   24.1784 H   0  0  0  0  0  0  0  0  0  0  0  0
   12.2752    1.1145   21.3137 H   0  0  0  0  0  0  0  0  0  0  0  0
   12.2622   -0.3867   20.3774 H   0  0  0  0  0  0  0  0  0  0  0  0
    6.0494    1.0167   20.5969 H   0  0  0  0  0  0  0  0  0  0  0  0
    4.8821   -0.1569   19.8953 H   0  0  0  0  0  0  0  0  0  0  0  0
   12.2357    0.8004   26.1185 H   0  0  0  0  0  0  0  0  0  0  0  0
   11.1356    2.0484   25.5006 H   0  0  0  0  0  0  0  0  0  0  0  0
    9.1079   -0.0734   27.0507 H   0  0  0  0  0  0  0  0  0  0  0  0
   10.3085   -1.3052   27.1075 H   0  0  0  0  0  0  0  0  0  0  0  0
   10.5612   -0.0433   22.7207 H   0  0  0  0  0  0  0  0  0  0  0  0
  1  2  1  0  0  0  0
  1  3  2  0  0  0  0
  2  4  2  0  0  0  0
  3  5  1  0  0  0  0
  4  6  1  0  0  0  0
  5  6  2  0  0  0  0
  5 12  1  0  0  0  0
  6 13  1  0  0  0  0
  7 14  1  0  0  0  0
  7 16  1  0  0  0  0
  7 19  2  0  0  0  0
  8 10  1  0  0  0  0
  8 16  1  0  0  0  0
  9 11  1  0  0  0  0
  9 16  1  0  0  0  0
 10 18  1  0  0  0  0
 11 18  1  0  0  0  0
 12 15  1  0  0  0  0
 13 18  1  0  0  0  0
 14 23  1  0  0  0  0
 15 22  1  0  0  0  0
 17 22  1  0  0  0  0
 20 22  2  0  0  0  0
 21 22  2  0  0  0  0
  1 24  1  0  0  0  0
  2 25  1  0  0  0  0
  3 26  1  0  0  0  0
  4 27  1  0  0  0  0
  8 28  1  0  0  0  0
  8 29  1  0  0  0  0
  9 30  1  0  0  0  0
  9 31  1  0  0  0  0
 10 32  1  0  0  0  0
 10 33  1  0  0  0  0
 11 34  1  0  0  0  0
 11 35  1  0  0  0  0
 12 36  1  0  0  0  0
 12 37  1  0  0  0  0
 13 38  1  0  0  0  0
 13 39  1  0  0  0  0
 14 40  1  0  0  0  0
 14 41  1  0  0  0  0
 15 42  1  0  0  0  0
 15 43  1  0  0  0  0
 17 44  1  0  0  0  0
 17 45  1  0  0  0  0
 18 46  1  0  0  0  0
M  CHG  1  18   1
M  END
> <creator>
Mihaela Smilova, University of Oxford

> <fragments>
x0678

> <real_space>
FALSE

> <SCR>
FALSE

> <BB>
FALSE

> <link>
https://covid.postera.ai/covid/submissions/e573136b-dbda-4fa9-8a0d-95e3d7d1615f

> <covalent_frag>
TRUE

> <covalent_warhead>
TRUE

> <acrylamide>
FALSE

> <acrylamide_adduct>
FALSE

> <chloroacetamide>
TRUE

> <chloroacetamide_adduct>
FALSE

> <vinylsulfonamide>
FALSE

> <vinylsulfonamide_adduct>
FALSE

> <in_molport_or_mcule>
FALSE

> <in_emolecules>
FALSE

> <Hybrid2>
-7.947098

> <Mpro-x0678_dock>
-7.947098

> <Mpro-x0874_dock>
-6.790889

> <Mpro-x0104_dock>
-6.398272

> <Mpro-x0830_dock>
-6.365194

> <Mpro-x0072_dock>
-6.025852

> <Mpro-x1093_dock>
-5.811719

> <Mpro-x0107_dock>
-4.03061

> <site>
active-noncovalent

> <covalent_distance_min>
3.865355

> <covalent_distance_mean>
4.7727795

> <covalent_distance_stderr>
0.08736675

$$$$
PAU-WEI-b9b-6
  -OEChem-04062011563D

 55 57  0     1  0  0  0  0  0999 V2000
    8.3224    0.7186   25.7846 C   0  0  0  0  0  0  0  0  0  0  0  0
    8.4495    1.7588   22.2128 C   0  0  0  0  0  0  0  0  0  0  0  0
    8.0055    1.1898   23.4064 C   0  0  0  0  0  0  0  0  0  0  0  0
    9.6660    2.4404   22.1753 C   0  0  0  0  0  0  0  0  0  0  0  0
   11.5391   -1.0179   24.6525 C   0  0  0  0  0  0  0  0  0  0  0  0
   11.7480   -1.7631   22.3638 C   0  0  0  0  0  0  0  0  0  0  0  0
   12.2919    0.1172   24.3516 C   0  0  0  0  0  0  0  0  0  0  0  0
   12.5008   -0.6279   22.0629 C   0  0  0  0  0  0  0  0  0  0  0  0
    9.9943    1.9839   24.5249 C   0  0  0  0  0  0  0  0  0  0  0  0
    8.7778    1.3023   24.5624 C   0  0  0  0  0  0  0  0  0  0  0  0
   11.2672   -1.9581   23.6585 C   0  0  0  0  0  0  0  0  0  0  0  0
   12.7727    0.3122   23.0569 C   0  0  0  0  0  0  0  0  0  0  0  0
   10.4383    2.5530   23.3313 C   0  0  0  0  0  0  0  0  0  0  0  0
   11.7003    7.4863   26.1919 C   0  0  0  0  0  0  0  0  0  0  0  0
   12.8984    5.8326   24.7971 C   0  0  0  0  0  0  0  0  0  0  0  0
   10.4665    5.5450   25.1090 C   0  0  0  0  0  0  0  0  0  0  0  0
   12.7511    5.6154   23.2983 C   0  0  0  0  0  0  0  0  0  0  0  0
   10.2862    5.3210   23.6135 C   0  0  0  0  0  0  0  0  0  0  0  0
   10.4625   -3.1720   23.9793 C   0  0  0  0  0  0  0  0  0  0  0  0
   13.5848    1.5402   22.7321 C   0  0  0  0  0  0  0  0  0  0  0  0
   10.3842    7.9607   26.7546 C   0  0  0  0  0  0  0  0  0  0  0  0
   12.7792    2.7638   22.2616 C   0  0  0  0  0  0  0  0  0  0  0  0
   11.7571    3.2921   23.2904 C   0  0  1  0  0  0  0  0  0  0  0  0
    7.9526    0.2446   26.7772 N   0  0  0  0  0  0  0  0  0  0  0  0
   11.6615    6.3512   25.3823 N   0  0  0  0  0  0  0  0  0  0  0  0
   11.5459    4.7533   23.0023 N   0  3  0  0  0  0  0  0  0  0  0  0
   12.7305    8.1087   26.4628 O   0  0  0  0  0  0  0  0  0  0  0  0
   10.7400    9.3671   27.7513 Cl  0  0  0  0  0  0  0  0  0  0  0  0
    7.8479    1.6724   21.3127 H   0  0  0  0  0  0  0  0  0  0  0  0
    7.0553    0.6611   23.4198 H   0  0  0  0  0  0  0  0  0  0  0  0
   10.0038    2.8799   21.2404 H   0  0  0  0  0  0  0  0  0  0  0  0
   11.1691   -1.1620   25.6642 H   0  0  0  0  0  0  0  0  0  0  0  0
   11.5398   -2.4900   21.5830 H   0  0  0  0  0  0  0  0  0  0  0  0
   12.4975    0.8451   25.1319 H   0  0  0  0  0  0  0  0  0  0  0  0
   12.8717   -0.4838   21.0516 H   0  0  0  0  0  0  0  0  0  0  0  0
   10.6007    2.0760   25.4237 H   0  0  0  0  0  0  0  0  0  0  0  0
   13.1891    4.8913   25.2759 H   0  0  0  0  0  0  0  0  0  0  0  0
   13.6924    6.5605   25.0078 H   0  0  0  0  0  0  0  0  0  0  0  0
    9.6071    6.0870   25.5241 H   0  0  0  0  0  0  0  0  0  0  0  0
   10.5047    4.5769   25.6131 H   0  0  0  0  0  0  0  0  0  0  0  0
   12.5995    6.5763   22.7819 H   0  0  0  0  0  0  0  0  0  0  0  0
   13.6351    5.1171   22.8669 H   0  0  0  0  0  0  0  0  0  0  0  0
    9.4632    4.6187   23.4009 H   0  0  0  0  0  0  0  0  0  0  0  0
   10.0776    6.2746   23.1035 H   0  0  0  0  0  0  0  0  0  0  0  0
    9.3953   -2.9765   23.8180 H   0  0  0  0  0  0  0  0  0  0  0  0
   10.7587   -4.0235   23.3530 H   0  0  0  0  0  0  0  0  0  0  0  0
   10.6058   -3.4806   25.0232 H   0  0  0  0  0  0  0  0  0  0  0  0
   14.2914    1.2616   21.9391 H   0  0  0  0  0  0  0  0  0  0  0  0
   14.2043    1.8253   23.5918 H   0  0  0  0  0  0  0  0  0  0  0  0
    9.9573    7.1717   27.3632 H   0  0  0  0  0  0  0  0  0  0  0  0
    9.7321    8.2404   25.9352 H   0  0  0  0  0  0  0  0  0  0  0  0
   13.5114    3.5606   22.0696 H   0  0  0  0  0  0  0  0  0  0  0  0
   12.2981    2.5618   21.2972 H   0  0  0  0  0  0  0  0  0  0  0  0
   12.2217    3.2790   24.2837 H   0  0  0  0  0  0  0  0  0  0  0  0
   11.4041    4.8114   21.9527 H   0  0  0  0  0  0  0  0  0  0  0  0
  1 10  1  0  0  0  0
  1 24  3  0  0  0  0
  2  3  1  0  0  0  0
  2  4  2  0  0  0  0
  3 10  2  0  0  0  0
  4 13  1  0  0  0  0
  5  7  2  0  0  0  0
  5 11  1  0  0  0  0
  6  8  1  0  0  0  0
  6 11  2  0  0  0  0
  7 12  1  0  0  0  0
  8 12  2  0  0  0  0
  9 10  1  0  0  0  0
  9 13  2  0  0  0  0
 11 19  1  0  0  0  0
 12 20  1  0  0  0  0
 13 23  1  0  0  0  0
 14 21  1  0  0  0  0
 14 25  1  0  0  0  0
 14 27  2  0  0  0  0
 15 17  1  0  0  0  0
 15 25  1  0  0  0  0
 16 18  1  0  0  0  0
 16 25  1  0  0  0  0
 17 26  1  0  0  0  0
 18 26  1  0  0  0  0
 20 22  1  0  0  0  0
 21 28  1  0  0  0  0
 22 23  1  0  0  0  0
 23 26  1  0  0  0  0
  2 29  1  0  0  0  0
  3 30  1  0  0  0  0
  4 31  1  0  0  0  0
  5 32  1  0  0  0  0
  6 33  1  0  0  0  0
  7 34  1  0  0  0  0
  8 35  1  0  0  0  0
  9 36  1  0  0  0  0
 15 37  1  0  0  0  0
 15 38  1  0  0  0  0
 16 39  1  0  0  0  0
 16 40  1  0  0  0  0
 17 41  1  0  0  0  0
 17 42  1  0  0  0  0
 18 43  1  0  0  0  0
 18 44  1  0  0  0  0
 19 45  1  0  0  0  0
 19 46  1  0  0  0  0
 19 47  1  0  0  0  0
 20 48  1  0  0  0  0
 20 49  1  0  0  0  0
 21 50  1  0  0  0  0
 21 51  1  0  0  0  0
 22 52  1  0  0  0  0
 22 53  1  0  0  0  0
 23 54  1  0  0  0  0
 26 55  1  0  0  0  0
M  CHG  1  26   1
M  END
> <creator>
Paul Gehrtz, Weizmann Institute of Science

> <fragments>
x0104

> <real_space>
FALSE

> <SCR>
FALSE

> <BB>
FALSE

> <link>
https://covid.postera.ai/covid/submissions/b9b69149-728b-48ac-b50d-9dc89a43712c

> <covalent_frag>
TRUE

> <covalent_warhead>
TRUE

> <acrylamide>
FALSE

> <acrylamide_adduct>
FALSE

> <chloroacetamide>
TRUE

> <chloroacetamide_adduct>
FALSE

> <vinylsulfonamide>
FALSE

> <vinylsulfonamide_adduct>
FALSE

> <in_molport_or_mcule>
FALSE

> <in_emolecules>
FALSE

> <Hybrid2>
-7.943945

> <Mpro-x0104_dock>
-7.943945

> <Mpro-x1385_dock>
-4.216689

> <Mpro-x0305_dock>
-4.101925

> <Mpro-x1380_dock>
-3.286715

> <Mpro-x0770_dock>
-1.955106

> <site>
active-noncovalent

> <covalent_distance_min>
13.61869

> <covalent_distance_mean>
14.555472

> <covalent_distance_stderr>
0.06374253

$$$$
TIM-UNK-6bd-2
  -OEChem-04062011563D

 33 35  0     0  0  0  0  0  0999 V2000
    7.4393   -0.7980   20.1255 C   0  0  0  0  0  0  0  0  0  0  0  0
   12.2621    0.0250   23.0313 C   0  0  0  0  0  0  0  0  0  0  0  0
    8.5712   -0.4870   20.8701 C   0  0  0  0  0  0  0  0  0  0  0  0
   11.2338   -0.5137   22.2661 C   0  0  0  0  0  0  0  0  0  0  0  0
    6.5927   -1.8135   20.5553 C   0  0  0  0  0  0  0  0  0  0  0  0
   11.9685    0.4195   24.3267 C   0  0  0  0  0  0  0  0  0  0  0  0
    9.7706   -0.2158   24.1172 C   0  0  0  0  0  0  0  0  0  0  0  0
    9.9612   -0.6398   22.8119 C   0  0  0  0  0  0  0  0  0  0  0  0
    8.8667   -1.1984   22.0382 C   0  0  0  0  0  0  0  0  0  0  0  0
    8.0494   -2.2509   22.4716 C   0  0  0  0  0  0  0  0  0  0  0  0
    6.8918   -2.5333   21.7182 C   0  0  0  0  0  0  0  0  0  0  0  0
    9.4641   -3.0760   24.4195 C   0  0  0  0  0  0  0  0  0  0  0  0
    7.0912   -3.6597   24.1987 C   0  0  0  0  0  0  0  0  0  0  0  0
    6.4117   -4.3977   23.0642 C   0  0  0  0  0  0  0  0  0  0  0  0
    9.4354   -3.7810   25.7536 C   0  0  0  0  0  0  0  0  0  0  0  0
   10.7448    0.3126   24.8913 N   0  0  0  0  0  0  0  0  0  0  0  0
    8.2828   -2.9820   23.6812 N   0  0  0  0  0  0  0  0  0  0  0  0
   10.5225   -2.5407   24.0688 O   0  0  0  0  0  0  0  0  0  0  0  0
    5.9651   -3.4895   22.0591 O   0  0  0  0  0  0  0  0  0  0  0  0
    9.7513   -5.4801   25.4273 Cl  0  0  0  0  0  0  0  0  0  0  0  0
    7.2120   -0.2446   19.2192 H   0  0  0  0  0  0  0  0  0  0  0  0
   13.2623    0.1324   22.6276 H   0  0  0  0  0  0  0  0  0  0  0  0
    9.1994    0.3379   20.5407 H   0  0  0  0  0  0  0  0  0  0  0  0
   11.4386   -0.8307   21.2465 H   0  0  0  0  0  0  0  0  0  0  0  0
    5.7021   -2.0470   19.9773 H   0  0  0  0  0  0  0  0  0  0  0  0
   12.7359    0.8462   24.9645 H   0  0  0  0  0  0  0  0  0  0  0  0
    8.8012   -0.2880   24.6020 H   0  0  0  0  0  0  0  0  0  0  0  0
    6.4374   -2.8885   24.6099 H   0  0  0  0  0  0  0  0  0  0  0  0
    7.3447   -4.3717   24.9813 H   0  0  0  0  0  0  0  0  0  0  0  0
    7.0674   -5.1570   22.6144 H   0  0  0  0  0  0  0  0  0  0  0  0
    5.5268   -4.9233   23.4433 H   0  0  0  0  0  0  0  0  0  0  0  0
    8.4517   -3.6598   26.1891 H   0  0  0  0  0  0  0  0  0  0  0  0
   10.2154   -3.3685   26.3807 H   0  0  0  0  0  0  0  0  0  0  0  0
  1  3  1  0  0  0  0
  1  5  2  0  0  0  0
  2  4  2  0  0  0  0
  2  6  1  0  0  0  0
  3  9  2  0  0  0  0
  4  8  1  0  0  0  0
  5 11  1  0  0  0  0
  6 16  2  0  0  0  0
  7  8  2  0  0  0  0
  7 16  1  0  0  0  0
  8  9  1  0  0  0  0
  9 10  1  0  0  0  0
 10 11  2  0  0  0  0
 10 17  1  0  0  0  0
 11 19  1  0  0  0  0
 12 15  1  0  0  0  0
 12 17  1  0  0  0  0
 12 18  2  0  0  0  0
 13 14  1  0  0  0  0
 13 17  1  0  0  0  0
 14 19  1  0  0  0  0
 15 20  1  0  0  0  0
  1 21  1  0  0  0  0
  2 22  1  0  0  0  0
  3 23  1  0  0  0  0
  4 24  1  0  0  0  0
  5 25  1  0  0  0  0
  6 26  1  0  0  0  0
  7 27  1  0  0  0  0
 13 28  1  0  0  0  0
 13 29  1  0  0  0  0
 14 30  1  0  0  0  0
 14 31  1  0  0  0  0
 15 32  1  0  0  0  0
 15 33  1  0  0  0  0
M  END
> <creator>
Tim Rooney

> <fragments>
x0759

> <real_space>
FALSE

> <SCR>
FALSE

> <BB>
FALSE

> <link>
https://covid.postera.ai/covid/submissions/6bd61028-4a4e-4443-bf8e-c261bf8e211c

> <covalent_frag>
TRUE

> <covalent_warhead>
TRUE

> <acrylamide>
FALSE

> <acrylamide_adduct>
FALSE

> <chloroacetamide>
TRUE

> <chloroacetamide_adduct>
FALSE

> <vinylsulfonamide>
FALSE

> <vinylsulfonamide_adduct>
FALSE

> <in_molport_or_mcule>
FALSE

> <in_emolecules>
FALSE

> <Hybrid2>
-7.935658

> <Mpro-x0759_dock>
-7.935658

> <Mpro-x0678_dock>
-6.854067

> <Mpro-x0774_dock>
-5.633261

> <Mpro-x0434_dock>
-5.607661

> <site>
active-covalent

> <covalent_distance_min>
7.507069

> <covalent_distance_mean>
8.424901

> <covalent_distance_stderr>
0.06589152

$$$$
WAL-WAB-df1-2
  -OEChem-04062011563D

 48 50  0     1  0  0  0  0  0999 V2000
   13.0485   -1.8434   23.0031 C   0  0  0  0  0  0  0  0  0  0  0  0
   13.2419   -0.6943   23.7697 C   0  0  0  0  0  0  0  0  0  0  0  0
   11.7555   -2.2846   22.7216 C   0  0  0  0  0  0  0  0  0  0  0  0
    7.2112    0.0319   20.4596 C   0  0  0  0  0  0  0  0  0  0  0  0
    7.8972   -1.1514   20.8588 C   0  0  0  0  0  0  0  0  0  0  0  0
   10.8493   -0.4275   23.9734 C   0  0  0  0  0  0  0  0  0  0  0  0
   12.1423    0.0137   24.2549 C   0  0  0  0  0  0  0  0  0  0  0  0
   10.6559   -1.5767   23.2068 C   0  0  0  0  0  0  0  0  0  0  0  0
    7.2598    1.0099   21.4284 C   0  0  0  0  0  0  0  0  0  0  0  0
    8.4442   -1.0326   22.1176 C   0  0  0  0  0  0  0  0  0  0  0  0
    6.5872   -5.6478   26.1762 C   0  0  0  0  0  0  0  0  0  0  0  0
    8.5060   -4.0910   26.0513 C   0  0  0  0  0  0  0  0  0  0  0  0
    6.3709   -3.3791   25.0474 C   0  0  0  0  0  0  0  0  0  0  0  0
    9.2563   -3.6915   24.7892 C   0  0  0  0  0  0  0  0  0  0  0  0
    7.0899   -2.9669   23.7700 C   0  0  0  0  0  0  0  0  0  0  0  0
   12.3499    1.2431   25.0732 C   0  0  0  0  0  0  0  0  0  0  0  0
    6.6745    2.3679   21.3957 C   0  0  0  0  0  0  0  0  0  0  0  0
    5.1468   -5.9201   25.8227 C   0  0  0  0  0  0  0  0  0  0  0  0
    9.2471   -2.0579   22.9006 C   0  0  2  0  0  0  0  0  0  0  0  0
    7.1148   -4.4294   25.7510 N   0  0  0  0  0  0  0  0  0  0  0  0
    8.5092   -2.5676   24.1066 N   0  3  0  0  0  0  0  0  0  0  0  0
    7.2232   -6.4947   26.8089 O   0  0  0  0  0  0  0  0  0  0  0  0
    8.1298    0.5006   22.8126 S   0  0  0  0  0  0  0  0  0  0  0  0
    5.1538   -6.6953   24.2426 Cl  0  0  0  0  0  0  0  0  0  0  0  0
   13.9048   -2.3946   22.6252 H   0  0  0  0  0  0  0  0  0  0  0  0
   14.2530   -0.3577   23.9834 H   0  0  0  0  0  0  0  0  0  0  0  0
   11.6142   -3.1814   22.1242 H   0  0  0  0  0  0  0  0  0  0  0  0
    6.7098    0.1555   19.5080 H   0  0  0  0  0  0  0  0  0  0  0  0
    7.9840   -2.0421   20.2496 H   0  0  0  0  0  0  0  0  0  0  0  0
    9.9916    0.1245   24.3506 H   0  0  0  0  0  0  0  0  0  0  0  0
    9.0162   -4.9335   26.5286 H   0  0  0  0  0  0  0  0  0  0  0  0
    8.4955   -3.2661   26.7742 H   0  0  0  0  0  0  0  0  0  0  0  0
    6.2840   -2.5274   25.7329 H   0  0  0  0  0  0  0  0  0  0  0  0
    5.3559   -3.6948   24.8002 H   0  0  0  0  0  0  0  0  0  0  0  0
   10.2552   -3.3171   25.0355 H   0  0  0  0  0  0  0  0  0  0  0  0
    9.3377   -4.5220   24.0790 H   0  0  0  0  0  0  0  0  0  0  0  0
    7.1338   -3.7844   23.0417 H   0  0  0  0  0  0  0  0  0  0  0  0
    6.6046   -2.0957   23.3180 H   0  0  0  0  0  0  0  0  0  0  0  0
   12.3933    2.1288   24.4276 H   0  0  0  0  0  0  0  0  0  0  0  0
   11.5376    1.3808   25.7986 H   0  0  0  0  0  0  0  0  0  0  0  0
   13.2832    1.1858   25.6485 H   0  0  0  0  0  0  0  0  0  0  0  0
    5.6496    2.3653   21.7985 H   0  0  0  0  0  0  0  0  0  0  0  0
    7.2676    3.0852   21.9861 H   0  0  0  0  0  0  0  0  0  0  0  0
    6.6337    2.7730   20.3712 H   0  0  0  0  0  0  0  0  0  0  0  0
    4.6131   -4.9779   25.7726 H   0  0  0  0  0  0  0  0  0  0  0  0
    4.7235   -6.5885   26.5636 H   0  0  0  0  0  0  0  0  0  0  0  0
    9.3410   -2.9673   22.2918 H   0  0  0  0  0  0  0  0  0  0  0  0
    8.4580   -1.7833   24.7714 H   0  0  0  0  0  0  0  0  0  0  0  0
  1  2  2  0  0  0  0
  1  3  1  0  0  0  0
  2  7  1  0  0  0  0
  3  8  2  0  0  0  0
  4  5  1  0  0  0  0
  4  9  2  0  0  0  0
  5 10  2  0  0  0  0
  6  7  2  0  0  0  0
  6  8  1  0  0  0  0
  7 16  1  0  0  0  0
  8 19  1  0  0  0  0
  9 17  1  0  0  0  0
  9 23  1  0  0  0  0
 10 19  1  0  0  0  0
 10 23  1  0  0  0  0
 11 18  1  0  0  0  0
 11 20  1  0  0  0  0
 11 22  2  0  0  0  0
 12 14  1  0  0  0  0
 12 20  1  0  0  0  0
 13 15  1  0  0  0  0
 13 20  1  0  0  0  0
 14 21  1  0  0  0  0
 15 21  1  0  0  0  0
 18 24  1  0  0  0  0
 19 21  1  0  0  0  0
  1 25  1  0  0  0  0
  2 26  1  0  0  0  0
  3 27  1  0  0  0  0
  4 28  1  0  0  0  0
  5 29  1  0  0  0  0
  6 30  1  0  0  0  0
 12 31  1  0  0  0  0
 12 32  1  0  0  0  0
 13 33  1  0  0  0  0
 13 34  1  0  0  0  0
 14 35  1  0  0  0  0
 14 36  1  0  0  0  0
 15 37  1  0  0  0  0
 15 38  1  0  0  0  0
 16 39  1  0  0  0  0
 16 40  1  0  0  0  0
 16 41  1  0  0  0  0
 17 42  1  0  0  0  0
 17 43  1  0  0  0  0
 17 44  1  0  0  0  0
 18 45  1  0  0  0  0
 18 46  1  0  0  0  0
 19 47  1  0  0  0  0
 21 48  1  0  0  0  0
M  CHG  1  21   1
M  END
> <creator>
Walter Novak, Wabash College

> <fragments>
x0072

> <real_space>
FALSE

> <SCR>
FALSE

> <BB>
FALSE

> <link>
https://covid.postera.ai/covid/submissions/df110a02-5e29-4376-b131-9bc605243968

> <covalent_frag>
TRUE

> <covalent_warhead>
TRUE

> <acrylamide>
FALSE

> <acrylamide_adduct>
FALSE

> <chloroacetamide>
TRUE

> <chloroacetamide_adduct>
FALSE

> <vinylsulfonamide>
FALSE

> <vinylsulfonamide_adduct>
FALSE

> <in_molport_or_mcule>
FALSE

> <in_emolecules>
FALSE

> <Hybrid2>
-7.907163

> <Mpro-x0072_dock>
-7.907163

> <Mpro-x0692_dock>
-4.555583

> <Mpro-x1334_dock>
-4.137011

> <Mpro-x1348_dock>
-1.981842

> <Mpro-x1382_dock>
-1.47539

> <site>
active-noncovalent

> <covalent_distance_min>
9.051684

> <covalent_distance_mean>
9.79495

> <covalent_distance_stderr>
0.05591167

$$$$
NIR-THE-c33-4
  -OEChem-04062011563D

 47 50  0     0  0  0  0  0  0999 V2000
   10.6139    5.7079   23.2891 C   0  0  0  0  0  0  0  0  0  0  0  0
    9.5749    5.2421   24.0896 C   0  0  0  0  0  0  0  0  0  0  0  0
    7.8506   -1.0492   23.8564 C   0  0  0  0  0  0  0  0  0  0  0  0
    6.5137   -1.5174   21.8574 C   0  0  0  0  0  0  0  0  0  0  0  0
   11.6314    4.8407   22.8927 C   0  0  0  0  0  0  0  0  0  0  0  0
    9.5532    3.9090   24.4967 C   0  0  0  0  0  0  0  0  0  0  0  0
    8.8265   -0.2937   24.5070 C   0  0  0  0  0  0  0  0  0  0  0  0
    6.1716   -1.2233   20.5372 C   0  0  0  0  0  0  0  0  0  0  0  0
    9.1158    1.0460   22.5197 C   0  0  0  0  0  0  0  0  0  0  0  0
    7.7788    0.5779   20.5207 C   0  0  0  0  0  0  0  0  0  0  0  0
    7.4937   -0.7673   22.5277 C   0  0  0  0  0  0  0  0  0  0  0  0
    8.1358    0.2960   21.8494 C   0  0  0  0  0  0  0  0  0  0  0  0
    9.4579    0.7519   23.8400 C   0  0  0  0  0  0  0  0  0  0  0  0
   11.6183    3.4948   23.2885 C   0  0  0  0  0  0  0  0  0  0  0  0
   10.5726    3.0257   24.1056 C   0  0  0  0  0  0  0  0  0  0  0  0
    6.8029   -0.1777   19.8701 C   0  0  0  0  0  0  0  0  0  0  0  0
   13.0312    0.2084   22.2841 C   0  0  0  0  0  0  0  0  0  0  0  0
   12.7465    2.5950   22.8488 C   0  0  0  0  0  0  0  0  0  0  0  0
   11.9071    0.9073   24.4525 C   0  0  0  0  0  0  0  0  0  0  0  0
   10.5239    1.5750   24.5523 C   0  0  2  0  0  0  0  0  0  0  0  0
   12.7758   -1.2308   22.6552 C   0  0  0  0  0  0  0  0  0  0  0  0
   12.5345    1.1787   23.1555 N   0  0  0  0  0  0  0  0  0  0  0  0
    5.1116    1.3172   18.4525 N   0  0  0  0  0  0  0  0  0  0  0  0
   13.6514    0.4636   21.2484 O   0  0  0  0  0  0  0  0  0  0  0  0
    7.4990    0.8671   17.5904 O   0  0  0  0  0  0  0  0  0  0  0  0
    5.8196   -1.0109   17.6067 O   0  0  0  0  0  0  0  0  0  0  0  0
    6.3734    0.1892   18.2180 S   0  0  0  0  0  0  0  0  0  0  0  0
   11.2253   -1.6654   21.9456 Cl  0  0  0  0  0  0  0  0  0  0  0  0
   10.6322    6.7468   22.9727 H   0  0  0  0  0  0  0  0  0  0  0  0
    8.7819    5.9169   24.3983 H   0  0  0  0  0  0  0  0  0  0  0  0
    7.3695   -1.8616   24.3973 H   0  0  0  0  0  0  0  0  0  0  0  0
    6.0069   -2.3388   22.3595 H   0  0  0  0  0  0  0  0  0  0  0  0
   12.4374    5.2187   22.2684 H   0  0  0  0  0  0  0  0  0  0  0  0
    8.7365    3.5604   25.1242 H   0  0  0  0  0  0  0  0  0  0  0  0
    9.0872   -0.5304   25.5353 H   0  0  0  0  0  0  0  0  0  0  0  0
    5.4105   -1.8178   20.0389 H   0  0  0  0  0  0  0  0  0  0  0  0
    9.6164    1.8675   22.0099 H   0  0  0  0  0  0  0  0  0  0  0  0
    8.2664    1.3933   19.9890 H   0  0  0  0  0  0  0  0  0  0  0  0
   12.8953    2.7232   21.7738 H   0  0  0  0  0  0  0  0  0  0  0  0
   13.6660    2.8943   23.3642 H   0  0  0  0  0  0  0  0  0  0  0  0
   12.5795    1.3188   25.2136 H   0  0  0  0  0  0  0  0  0  0  0  0
   11.8332   -0.1684   24.6336 H   0  0  0  0  0  0  0  0  0  0  0  0
   10.2458    1.5624   25.6408 H   0  0  0  0  0  0  0  0  0  0  0  0
   12.7271   -1.3110   23.7349 H   0  0  0  0  0  0  0  0  0  0  0  0
   13.5634   -1.8458   22.2360 H   0  0  0  0  0  0  0  0  0  0  0  0
    5.2981    2.3023   18.2284 H   0  0  0  0  0  0  0  0  0  0  0  0
    4.1520    1.0179   18.2411 H   0  0  0  0  0  0  0  0  0  0  0  0
  1  2  1  0  0  0  0
  1  5  2  0  0  0  0
  2  6  2  0  0  0  0
  3  7  2  0  0  0  0
  3 11  1  0  0  0  0
  4  8  2  0  0  0  0
  4 11  1  0  0  0  0
  5 14  1  0  0  0  0
  6 15  1  0  0  0  0
  7 13  1  0  0  0  0
  8 16  1  0  0  0  0
  9 12  1  0  0  0  0
  9 13  2  0  0  0  0
 10 12  1  0  0  0  0
 10 16  2  0  0  0  0
 11 12  2  0  0  0  0
 13 20  1  0  0  0  0
 14 15  2  0  0  0  0
 14 18  1  0  0  0  0
 15 20  1  0  0  0  0
 16 27  1  0  0  0  0
 17 21  1  0  0  0  0
 17 22  1  0  0  0  0
 17 24  2  0  0  0  0
 18 22  1  0  0  0  0
 19 20  1  0  0  0  0
 19 22  1  0  0  0  0
 21 28  1  0  0  0  0
 23 27  1  0  0  0  0
 25 27  2  0  0  0  0
 26 27  2  0  0  0  0
  1 29  1  0  0  0  0
  2 30  1  0  0  0  0
  3 31  1  0  0  0  0
  4 32  1  0  0  0  0
  5 33  1  0  0  0  0
  6 34  1  0  0  0  0
  7 35  1  0  0  0  0
  8 36  1  0  0  0  0
  9 37  1  0  0  0  0
 10 38  1  0  0  0  0
 18 39  1  0  0  0  0
 18 40  1  0  0  0  0
 19 41  1  0  0  0  0
 19 42  1  0  0  0  0
 20 43  1  0  0  0  0
 21 44  1  0  0  0  0
 21 45  1  0  0  0  0
 23 46  1  0  0  0  0
 23 47  1  0  0  0  0
M  END
> <creator>
Nir London, The Weizmann Institute of Science

> <fragments>
x0874

> <real_space>
FALSE

> <SCR>
FALSE

> <BB>
FALSE

> <link>
https://covid.postera.ai/covid/submissions/c331be7a-6ba0-49a5-9756-17aee0dabcbf

> <covalent_frag>
FALSE

> <covalent_warhead>
TRUE

> <acrylamide>
FALSE

> <acrylamide_adduct>
FALSE

> <chloroacetamide>
TRUE

> <chloroacetamide_adduct>
FALSE

> <vinylsulfonamide>
FALSE

> <vinylsulfonamide_adduct>
FALSE

> <in_molport_or_mcule>
FALSE

> <in_emolecules>
FALSE

> <Hybrid2>
-7.902070

> <Mpro-x0874_dock>
-7.90207

> <Mpro-x0195_dock>
-7.558257

> <Mpro-x0104_dock>
-6.586657

> <Mpro-x0305_dock>
-1.303178

> <site>
active-noncovalent

$$$$
DAR-DIA-fb2-15
  -OEChem-04062011563D

 52 54  0     0  0  0  0  0  0999 V2000
   11.2269    0.2848   25.1745 C   0  0  0  0  0  0  0  0  0  0  0  0
    9.5583   -1.4701   24.9925 C   0  0  0  0  0  0  0  0  0  0  0  0
   12.5490   -0.0864   21.7871 C   0  0  0  0  0  0  0  0  0  0  0  0
   11.6306    0.0267   23.8495 C   0  0  0  0  0  0  0  0  0  0  0  0
    9.9416   -1.7440   23.6765 C   0  0  0  0  0  0  0  0  0  0  0  0
   12.6179    0.5816   22.9879 C   0  0  0  0  0  0  0  0  0  0  0  0
   10.9800   -0.9797   23.1325 C   0  0  0  0  0  0  0  0  0  0  0  0
   10.1896   -0.4718   25.7318 C   0  0  0  0  0  0  0  0  0  0  0  0
    6.1477   -2.3135   18.8865 C   0  0  0  0  0  0  0  0  0  0  0  0
   11.7071    4.2838   24.2659 C   0  0  0  0  0  0  0  0  0  0  0  0
    7.2753   -3.7086   20.5889 C   0  0  0  0  0  0  0  0  0  0  0  0
    7.6753   -1.2730   20.6323 C   0  0  0  0  0  0  0  0  0  0  0  0
    7.0211   -3.7128   22.0891 C   0  0  0  0  0  0  0  0  0  0  0  0
    7.4291   -1.2444   22.1349 C   0  0  0  0  0  0  0  0  0  0  0  0
   10.2854    4.6440   24.5442 C   0  0  0  0  0  0  0  0  0  0  0  0
   13.5531    1.6775   23.3139 C   0  0  0  0  0  0  0  0  0  0  0  0
    9.2408   -2.8263   22.9094 C   0  0  0  0  0  0  0  0  0  0  0  0
    6.4046   -1.1670   17.9413 C   0  0  0  0  0  0  0  0  0  0  0  0
   13.1715    3.0335   22.6928 C   0  0  0  0  0  0  0  0  0  0  0  0
   11.5580   -1.0260   21.8839 N   0  0  0  0  0  0  0  0  0  0  0  0
    6.9779   -2.4006   20.0039 N   0  0  0  0  0  0  0  0  0  0  0  0
   11.8847    3.4927   23.1422 N   0  0  0  0  0  0  0  0  0  0  0  0
    7.7648   -2.5797   22.7571 N   0  3  0  0  0  0  0  0  0  0  0  0
    5.2345   -3.1052   18.6390 O   0  0  0  0  0  0  0  0  0  0  0  0
   12.5905    4.6908   25.0113 O   0  0  0  0  0  0  0  0  0  0  0  0
    9.6904   -0.1623   27.3517 Cl  0  0  0  0  0  0  0  0  0  0  0  0
    5.3880    0.1658   18.4779 Cl  0  0  0  0  0  0  0  0  0  0  0  0
   11.7186    1.0634   25.7521 H   0  0  0  0  0  0  0  0  0  0  0  0
    8.7527   -2.0494   25.4411 H   0  0  0  0  0  0  0  0  0  0  0  0
   13.1151    0.0211   20.8722 H   0  0  0  0  0  0  0  0  0  0  0  0
    8.3147   -3.9937   20.3935 H   0  0  0  0  0  0  0  0  0  0  0  0
    6.6380   -4.4467   20.0850 H   0  0  0  0  0  0  0  0  0  0  0  0
    7.2986   -0.3555   20.1623 H   0  0  0  0  0  0  0  0  0  0  0  0
    8.7512   -1.3058   20.4472 H   0  0  0  0  0  0  0  0  0  0  0  0
    5.9498   -3.5689   22.2998 H   0  0  0  0  0  0  0  0  0  0  0  0
    7.3509   -4.6544   22.5587 H   0  0  0  0  0  0  0  0  0  0  0  0
    8.0418   -0.4765   22.6357 H   0  0  0  0  0  0  0  0  0  0  0  0
    6.3673   -1.0434   22.3476 H   0  0  0  0  0  0  0  0  0  0  0  0
    9.7851    3.9093   25.1954 H   0  0  0  0  0  0  0  0  0  0  0  0
   10.1909    5.6090   25.0676 H   0  0  0  0  0  0  0  0  0  0  0  0
    9.6390    4.7317   23.6563 H   0  0  0  0  0  0  0  0  0  0  0  0
   14.5740    1.4212   22.9682 H   0  0  0  0  0  0  0  0  0  0  0  0
   13.6558    1.8068   24.4102 H   0  0  0  0  0  0  0  0  0  0  0  0
    9.6495   -2.9229   21.8978 H   0  0  0  0  0  0  0  0  0  0  0  0
    9.3479   -3.7964   23.4066 H   0  0  0  0  0  0  0  0  0  0  0  0
    6.1241   -1.4686   16.9385 H   0  0  0  0  0  0  0  0  0  0  0  0
    7.4498   -0.8870   18.0044 H   0  0  0  0  0  0  0  0  0  0  0  0
   13.8958    3.8076   22.9655 H   0  0  0  0  0  0  0  0  0  0  0  0
   13.1361    2.9687   21.6004 H   0  0  0  0  0  0  0  0  0  0  0  0
   11.2905   -1.6618   21.1453 H   0  0  0  0  0  0  0  0  0  0  0  0
   11.0612    3.2225   22.6066 H   0  0  0  0  0  0  0  0  0  0  0  0
    7.3874   -2.5350   23.7474 H   0  0  0  0  0  0  0  0  0  0  0  0
  1  4  1  0  0  0  0
  1  8  2  0  0  0  0
  2  5  2  0  0  0  0
  2  8  1  0  0  0  0
  3  6  2  0  0  0  0
  3 20  1  0  0  0  0
  4  6  1  0  0  0  0
  4  7  2  0  0  0  0
  5  7  1  0  0  0  0
  5 17  1  0  0  0  0
  6 16  1  0  0  0  0
  7 20  1  0  0  0  0
  8 26  1  0  0  0  0
  9 18  1  0  0  0  0
  9 21  1  0  0  0  0
  9 24  2  0  0  0  0
 10 15  1  0  0  0  0
 10 22  1  0  0  0  0
 10 25  2  0  0  0  0
 11 13  1  0  0  0  0
 11 21  1  0  0  0  0
 12 14  1  0  0  0  0
 12 21  1  0  0  0  0
 13 23  1  0  0  0  0
 14 23  1  0  0  0  0
 16 19  1  0  0  0  0
 17 23  1  0  0  0  0
 18 27  1  0  0  0  0
 19 22  1  0  0  0  0
  1 28  1  0  0  0  0
  2 29  1  0  0  0  0
  3 30  1  0  0  0  0
 11 31  1  0  0  0  0
 11 32  1  0  0  0  0
 12 33  1  0  0  0  0
 12 34  1  0  0  0  0
 13 35  1  0  0  0  0
 13 36  1  0  0  0  0
 14 37  1  0  0  0  0
 14 38  1  0  0  0  0
 15 39  1  0  0  0  0
 15 40  1  0  0  0  0
 15 41  1  0  0  0  0
 16 42  1  0  0  0  0
 16 43  1  0  0  0  0
 17 44  1  0  0  0  0
 17 45  1  0  0  0  0
 18 46  1  0  0  0  0
 18 47  1  0  0  0  0
 19 48  1  0  0  0  0
 19 49  1  0  0  0  0
 20 50  1  0  0  0  0
 22 51  1  0  0  0  0
 23 52  1  0  0  0  0
M  CHG  1  23   1
M  END
> <creator>
Daren Fearon, Diamond Light Source Ltd

> <fragments>
x0830

> <real_space>
FALSE

> <SCR>
FALSE

> <BB>
FALSE

> <link>
https://covid.postera.ai/covid/submissions/fb20be43-b2ad-4a19-a5ce-eb2fe8d462e2

> <covalent_frag>
TRUE

> <covalent_warhead>
TRUE

> <acrylamide>
FALSE

> <acrylamide_adduct>
FALSE

> <chloroacetamide>
TRUE

> <chloroacetamide_adduct>
FALSE

> <vinylsulfonamide>
FALSE

> <vinylsulfonamide_adduct>
FALSE

> <in_molport_or_mcule>
FALSE

> <in_emolecules>
FALSE

> <Hybrid2>
-7.877357

> <Mpro-x0830_dock>
-7.877357

> <Mpro-x0104_dock>
-7.763759

> <Mpro-x0195_dock>
-6.439428

> <Mpro-x0305_dock>
-3.066612

> <site>
active-covalent

> <covalent_distance_min>
2.987735

> <covalent_distance_mean>
3.360178

> <covalent_distance_stderr>
0.015578579

$$$$
MIH-UNI-e57-7
  -OEChem-04062011563D

 54 56  0     1  0  0  0  0  0999 V2000
    8.8750   -2.8600   25.3576 C   0  0  0  0  0  0  0  0  0  0  0  0
    8.5267   -1.9121   26.3197 C   0  0  0  0  0  0  0  0  0  0  0  0
    9.2859   -2.4484   24.0897 C   0  0  0  0  0  0  0  0  0  0  0  0
    9.0001   -0.1409   24.7462 C   0  0  0  0  0  0  0  0  0  0  0  0
    8.5893   -0.5525   26.0140 C   0  0  0  0  0  0  0  0  0  0  0  0
    9.3484   -1.0888   23.7840 C   0  0  0  0  0  0  0  0  0  0  0  0
    6.7051    0.3644   18.4752 C   0  0  0  0  0  0  0  0  0  0  0  0
   13.1983    0.7721   23.2192 C   0  0  0  0  0  0  0  0  0  0  0  0
   13.4417   -1.6129   22.4469 C   0  0  0  0  0  0  0  0  0  0  0  0
   11.6875    0.5370   23.3154 C   0  0  0  0  0  0  0  0  0  0  0  0
   11.9217   -1.7584   22.5717 C   0  0  0  0  0  0  0  0  0  0  0  0
    7.0777   -0.3987   20.7979 C   0  0  0  0  0  0  0  0  0  0  0  0
    9.0420    0.2964   19.4742 C   0  0  0  0  0  0  0  0  0  0  0  0
    7.5512    0.4397   21.9761 C   0  0  0  0  0  0  0  0  0  0  0  0
    9.5441    1.1428   20.6363 C   0  0  0  0  0  0  0  0  0  0  0  0
   13.9974   -0.5222   23.3610 C   0  0  0  0  0  0  0  0  0  0  0  0
    8.2181    0.4604   27.0439 C   0  0  0  0  0  0  0  0  0  0  0  0
    5.2885    0.7276   18.8433 C   0  0  0  0  0  0  0  0  0  0  0  0
    9.7938   -0.6421   22.4072 C   0  0  2  0  0  0  0  0  0  0  0  0
    7.5853    0.1309   19.5317 N   0  0  0  0  0  0  0  0  0  0  0  0
   11.2457   -0.4738   22.3454 N   0  0  0  0  0  0  0  0  0  0  0  0
    9.0548    0.5869   21.9532 N   0  3  0  0  0  0  0  0  0  0  0  0
    7.0173    0.2885   17.2841 O   0  0  0  0  0  0  0  0  0  0  0  0
   13.9826   -0.9626   24.7168 O   0  0  0  0  0  0  0  0  0  0  0  0
    5.3810    2.1869   19.8229 Cl  0  0  0  0  0  0  0  0  0  0  0  0
    8.8264   -3.9186   25.5957 H   0  0  0  0  0  0  0  0  0  0  0  0
    8.2083   -2.2422   27.3052 H   0  0  0  0  0  0  0  0  0  0  0  0
    9.5546   -3.1939   23.3460 H   0  0  0  0  0  0  0  0  0  0  0  0
    9.0500    0.9189   24.5076 H   0  0  0  0  0  0  0  0  0  0  0  0
   13.4429    1.2546   22.2607 H   0  0  0  0  0  0  0  0  0  0  0  0
   13.5155    1.4906   23.9924 H   0  0  0  0  0  0  0  0  0  0  0  0
   13.9305   -2.5739   22.6761 H   0  0  0  0  0  0  0  0  0  0  0  0
   13.7120   -1.3945   21.4026 H   0  0  0  0  0  0  0  0  0  0  0  0
   11.4603    0.2007   24.3343 H   0  0  0  0  0  0  0  0  0  0  0  0
   11.1582    1.4866   23.1606 H   0  0  0  0  0  0  0  0  0  0  0  0
   11.5669   -2.5184   21.8627 H   0  0  0  0  0  0  0  0  0  0  0  0
   11.6976   -2.1244   23.5812 H   0  0  0  0  0  0  0  0  0  0  0  0
    7.3940   -1.4380   20.9383 H   0  0  0  0  0  0  0  0  0  0  0  0
    5.9817   -0.4003   20.7379 H   0  0  0  0  0  0  0  0  0  0  0  0
    9.2766    0.7785   18.5165 H   0  0  0  0  0  0  0  0  0  0  0  0
    9.5614   -0.6643   19.4815 H   0  0  0  0  0  0  0  0  0  0  0  0
    7.1234    1.4532   21.9256 H   0  0  0  0  0  0  0  0  0  0  0  0
    7.2724   -0.0146   22.9414 H   0  0  0  0  0  0  0  0  0  0  0  0
   10.6457    1.1752   20.6735 H   0  0  0  0  0  0  0  0  0  0  0  0
    9.1630    2.1730   20.5556 H   0  0  0  0  0  0  0  0  0  0  0  0
   15.0555   -0.3250   23.0931 H   0  0  0  0  0  0  0  0  0  0  0  0
    9.0986    0.7478   27.6316 H   0  0  0  0  0  0  0  0  0  0  0  0
    7.7985    1.3633   26.5816 H   0  0  0  0  0  0  0  0  0  0  0  0
    7.4544    0.0703   27.7293 H   0  0  0  0  0  0  0  0  0  0  0  0
    4.8570   -0.0818   19.4211 H   0  0  0  0  0  0  0  0  0  0  0  0
    4.7288    0.9231   17.9359 H   0  0  0  0  0  0  0  0  0  0  0  0
    9.5155   -1.4052   21.6712 H   0  0  0  0  0  0  0  0  0  0  0  0
    9.2802    1.3291   22.6767 H   0  0  0  0  0  0  0  0  0  0  0  0
   13.0526   -1.1097   24.9528 H   0  0  0  0  0  0  0  0  0  0  0  0
  1  2  2  0  0  0  0
  1  3  1  0  0  0  0
  2  5  1  0  0  0  0
  3  6  2  0  0  0  0
  4  5  2  0  0  0  0
  4  6  1  0  0  0  0
  5 17  1  0  0  0  0
  6 19  1  0  0  0  0
  7 18  1  0  0  0  0
  7 20  1  0  0  0  0
  7 23  2  0  0  0  0
  8 10  1  0  0  0  0
  8 16  1  0  0  0  0
  9 11  1  0  0  0  0
  9 16  1  0  0  0  0
 10 21  1  0  0  0  0
 11 21  1  0  0  0  0
 12 14  1  0  0  0  0
 12 20  1  0  0  0  0
 13 15  1  0  0  0  0
 13 20  1  0  0  0  0
 14 22  1  0  0  0  0
 15 22  1  0  0  0  0
 16 24  1  0  0  0  0
 18 25  1  0  0  0  0
 19 21  1  0  0  0  0
 19 22  1  0  0  0  0
  1 26  1  0  0  0  0
  2 27  1  0  0  0  0
  3 28  1  0  0  0  0
  4 29  1  0  0  0  0
  8 30  1  0  0  0  0
  8 31  1  0  0  0  0
  9 32  1  0  0  0  0
  9 33  1  0  0  0  0
 10 34  1  0  0  0  0
 10 35  1  0  0  0  0
 11 36  1  0  0  0  0
 11 37  1  0  0  0  0
 12 38  1  0  0  0  0
 12 39  1  0  0  0  0
 13 40  1  0  0  0  0
 13 41  1  0  0  0  0
 14 42  1  0  0  0  0
 14 43  1  0  0  0  0
 15 44  1  0  0  0  0
 15 45  1  0  0  0  0
 16 46  1  0  0  0  0
 17 47  1  0  0  0  0
 17 48  1  0  0  0  0
 17 49  1  0  0  0  0
 18 50  1  0  0  0  0
 18 51  1  0  0  0  0
 19 52  1  0  0  0  0
 22 53  1  0  0  0  0
 24 54  1  0  0  0  0
M  CHG  1  22   1
M  END
> <creator>
Mihaela Smilova, University of Oxford

> <fragments>
x0678

> <real_space>
FALSE

> <SCR>
FALSE

> <BB>
FALSE

> <link>
https://covid.postera.ai/covid/submissions/e573136b-dbda-4fa9-8a0d-95e3d7d1615f

> <covalent_frag>
TRUE

> <covalent_warhead>
TRUE

> <acrylamide>
FALSE

> <acrylamide_adduct>
FALSE

> <chloroacetamide>
TRUE

> <chloroacetamide_adduct>
FALSE

> <vinylsulfonamide>
FALSE

> <vinylsulfonamide_adduct>
FALSE

> <in_molport_or_mcule>
FALSE

> <in_emolecules>
FALSE

> <Hybrid2>
-7.846193

> <Mpro-x0678_dock>
-7.846193

> <Mpro-x0072_dock>
-7.758202

> <Mpro-x0107_dock>
-5.703465

> <Mpro-x1093_dock>
-5.078955

> <Mpro-x0874_dock>
-4.733116

> <Mpro-x0104_dock>
-4.376657

> <Mpro-x0830_dock>
-3.597326

> <site>
active-noncovalent

> <covalent_distance_min>
3.634651

> <covalent_distance_mean>
4.9839134

> <covalent_distance_stderr>
0.046379495

$$$$
MIH-UNI-e57-6
  -OEChem-04062011563D

 54 56  0     1  0  0  0  0  0999 V2000
   11.9016    0.0408   25.1010 C   0  0  0  0  0  0  0  0  0  0  0  0
   12.9771   -0.4961   24.3934 C   0  0  0  0  0  0  0  0  0  0  0  0
   10.6203   -0.4818   24.9249 C   0  0  0  0  0  0  0  0  0  0  0  0
   11.4901   -2.0780   23.3335 C   0  0  0  0  0  0  0  0  0  0  0  0
   12.7713   -1.5554   23.5096 C   0  0  0  0  0  0  0  0  0  0  0  0
   10.4146   -1.5412   24.0412 C   0  0  0  0  0  0  0  0  0  0  0  0
    6.8837   -5.7423   26.7179 C   0  0  0  0  0  0  0  0  0  0  0  0
    6.9873    0.6629   22.3924 C   0  0  0  0  0  0  0  0  0  0  0  0
    8.2007   -0.0003   23.0440 C   0  0  0  0  0  0  0  0  0  0  0  0
    8.8069   -4.3090   26.1157 C   0  0  0  0  0  0  0  0  0  0  0  0
    6.7178   -4.0521   24.8259 C   0  0  0  0  0  0  0  0  0  0  0  0
    9.0694   -1.6541   21.4983 C   0  0  0  0  0  0  0  0  0  0  0  0
    8.9149   -2.7999   26.2775 C   0  0  0  0  0  0  0  0  0  0  0  0
    6.7988   -2.5381   24.9680 C   0  0  0  0  0  0  0  0  0  0  0  0
    6.7383    0.3667   20.9194 C   0  0  0  0  0  0  0  0  0  0  0  0
    8.2899   -1.2841   20.2402 C   0  0  0  0  0  0  0  0  0  0  0  0
   13.9220   -2.1298   22.7545 C   0  0  0  0  0  0  0  0  0  0  0  0
    5.4433   -6.1107   26.4656 C   0  0  0  0  0  0  0  0  0  0  0  0
    9.0233   -2.1080   23.8495 C   0  0  2  0  0  0  0  0  0  0  0  0
    7.4165   -4.7244   25.9271 N   0  0  0  0  0  0  0  0  0  0  0  0
    8.3193   -1.4370   22.7496 N   0  0  1  0  0  0  0  0  0  0  0  0
    8.2333   -2.0923   25.1295 N   0  3  0  0  0  0  0  0  0  0  0  0
    7.5138   -6.3405   27.5938 O   0  0  0  0  0  0  0  0  0  0  0  0
    7.9329    0.0940   20.1990 O   0  0  0  0  0  0  0  0  0  0  0  0
    4.4724   -5.1171   27.5462 Cl  0  0  0  0  0  0  0  0  0  0  0  0
   12.0619    0.8656   25.7893 H   0  0  0  0  0  0  0  0  0  0  0  0
   13.9720   -0.0827   24.5375 H   0  0  0  0  0  0  0  0  0  0  0  0
    9.7881   -0.0568   25.4799 H   0  0  0  0  0  0  0  0  0  0  0  0
   11.3292   -2.9045   22.6453 H   0  0  0  0  0  0  0  0  0  0  0  0
    6.0753    0.3846   22.9546 H   0  0  0  0  0  0  0  0  0  0  0  0
    7.0609    1.7594   22.5327 H   0  0  0  0  0  0  0  0  0  0  0  0
    9.0857    0.5116   22.6291 H   0  0  0  0  0  0  0  0  0  0  0  0
    8.2227    0.1950   24.1302 H   0  0  0  0  0  0  0  0  0  0  0  0
    9.4259   -4.6312   25.2714 H   0  0  0  0  0  0  0  0  0  0  0  0
    9.1856   -4.8234   27.0083 H   0  0  0  0  0  0  0  0  0  0  0  0
    5.6727   -4.3865   24.8521 H   0  0  0  0  0  0  0  0  0  0  0  0
    7.1192   -4.3415   23.8523 H   0  0  0  0  0  0  0  0  0  0  0  0
    9.3969   -2.6988   21.4335 H   0  0  0  0  0  0  0  0  0  0  0  0
    9.9655   -1.0232   21.5229 H   0  0  0  0  0  0  0  0  0  0  0  0
    8.4161   -2.4741   27.2038 H   0  0  0  0  0  0  0  0  0  0  0  0
    9.9649   -2.4640   26.3038 H   0  0  0  0  0  0  0  0  0  0  0  0
    6.3833   -2.0212   24.0870 H   0  0  0  0  0  0  0  0  0  0  0  0
    6.2512   -2.2053   25.8638 H   0  0  0  0  0  0  0  0  0  0  0  0
    6.1161   -0.5168   20.8311 H   0  0  0  0  0  0  0  0  0  0  0  0
    6.2185    1.1936   20.4501 H   0  0  0  0  0  0  0  0  0  0  0  0
    8.8045   -1.6012   19.3066 H   0  0  0  0  0  0  0  0  0  0  0  0
    7.3362   -1.8475   20.2465 H   0  0  0  0  0  0  0  0  0  0  0  0
   14.3835   -2.9458   23.3240 H   0  0  0  0  0  0  0  0  0  0  0  0
   13.6032   -2.5224   21.7802 H   0  0  0  0  0  0  0  0  0  0  0  0
   14.6874   -1.3684   22.5549 H   0  0  0  0  0  0  0  0  0  0  0  0
    5.3031   -7.1602   26.6983 H   0  0  0  0  0  0  0  0  0  0  0  0
    5.1990   -5.8867   25.4336 H   0  0  0  0  0  0  0  0  0  0  0  0
    9.0975   -3.1722   23.5974 H   0  0  0  0  0  0  0  0  0  0  0  0
    8.1839   -1.0712   25.4124 H   0  0  0  0  0  0  0  0  0  0  0  0
  1  2  2  0  0  0  0
  1  3  1  0  0  0  0
  2  5  1  0  0  0  0
  3  6  2  0  0  0  0
  4  5  2  0  0  0  0
  4  6  1  0  0  0  0
  5 17  1  0  0  0  0
  6 19  1  0  0  0  0
  7 18  1  0  0  0  0
  7 20  1  0  0  0  0
  7 23  2  0  0  0  0
  8  9  1  0  0  0  0
  8 15  1  0  0  0  0
  9 21  1  0  0  0  0
 10 13  1  0  0  0  0
 10 20  1  0  0  0  0
 11 14  1  0  0  0  0
 11 20  1  0  0  0  0
 12 16  1  0  0  0  0
 12 21  1  0  0  0  0
 13 22  1  0  0  0  0
 14 22  1  0  0  0  0
 15 24  1  0  0  0  0
 16 24  1  0  0  0  0
 18 25  1  0  0  0  0
 19 21  1  0  0  0  0
 19 22  1  0  0  0  0
  1 26  1  0  0  0  0
  2 27  1  0  0  0  0
  3 28  1  0  0  0  0
  4 29  1  0  0  0  0
  8 30  1  0  0  0  0
  8 31  1  0  0  0  0
  9 32  1  0  0  0  0
  9 33  1  0  0  0  0
 10 34  1  0  0  0  0
 10 35  1  0  0  0  0
 11 36  1  0  0  0  0
 11 37  1  0  0  0  0
 12 38  1  0  0  0  0
 12 39  1  0  0  0  0
 13 40  1  0  0  0  0
 13 41  1  0  0  0  0
 14 42  1  0  0  0  0
 14 43  1  0  0  0  0
 15 44  1  0  0  0  0
 15 45  1  0  0  0  0
 16 46  1  0  0  0  0
 16 47  1  0  0  0  0
 17 48  1  0  0  0  0
 17 49  1  0  0  0  0
 17 50  1  0  0  0  0
 18 51  1  0  0  0  0
 18 52  1  0  0  0  0
 19 53  1  0  0  0  0
 22 54  1  0  0  0  0
M  CHG  1  22   1
M  END
> <creator>
Mihaela Smilova, University of Oxford

> <fragments>
x0072

> <real_space>
FALSE

> <SCR>
FALSE

> <BB>
FALSE

> <link>
https://covid.postera.ai/covid/submissions/e573136b-dbda-4fa9-8a0d-95e3d7d1615f

> <covalent_frag>
TRUE

> <covalent_warhead>
TRUE

> <acrylamide>
FALSE

> <acrylamide_adduct>
FALSE

> <chloroacetamide>
TRUE

> <chloroacetamide_adduct>
FALSE

> <vinylsulfonamide>
FALSE

> <vinylsulfonamide_adduct>
FALSE

> <in_molport_or_mcule>
FALSE

> <in_emolecules>
FALSE

> <Hybrid2>
-7.828751

> <Mpro-x0072_dock>
-7.828751

> <Mpro-x0678_dock>
-6.400278

> <Mpro-x1093_dock>
-5.14562

> <Mpro-x0874_dock>
-5.119208

> <Mpro-x0830_dock>
-3.866101

> <Mpro-x0104_dock>
-3.093307

> <Mpro-x0107_dock>
-1.301112

> <site>
active-noncovalent

> <covalent_distance_min>
9.717412

> <covalent_distance_mean>
10.583583

> <covalent_distance_stderr>
0.06552421

$$$$
GER-FIO-88d-2
  -OEChem-04062011563D

 58 62  0     0  0  0  0  0  0999 V2000
   15.0254    0.4138   23.3119 C   0  0  0  0  0  0  0  0  0  0  0  0
   15.0859    1.4619   24.2219 C   0  0  0  0  0  0  0  0  0  0  0  0
    5.6877   -0.3971   19.5106 C   0  0  0  0  0  0  0  0  0  0  0  0
   13.7955    0.0191   22.7788 C   0  0  0  0  0  0  0  0  0  0  0  0
   13.9166    2.1189   24.5919 C   0  0  0  0  0  0  0  0  0  0  0  0
    6.6871   -0.0512   20.4133 C   0  0  0  0  0  0  0  0  0  0  0  0
    7.5909   -4.8107   22.8639 C   0  0  0  0  0  0  0  0  0  0  0  0
    6.9894   -5.1975   24.0631 C   0  0  0  0  0  0  0  0  0  0  0  0
    8.2509   -3.5266   25.2684 C   0  0  0  0  0  0  0  0  0  0  0  0
    9.8560   -2.0866   23.8335 C   0  0  0  0  0  0  0  0  0  0  0  0
    6.0148   -0.4367   18.1648 C   0  0  0  0  0  0  0  0  0  0  0  0
    8.1901    0.1721   18.5838 C   0  0  0  0  0  0  0  0  0  0  0  0
    8.8785   -3.1110   24.0692 C   0  0  0  0  0  0  0  0  0  0  0  0
   12.6026    0.6664   23.1453 C   0  0  0  0  0  0  0  0  0  0  0  0
   12.6798    1.7343   24.0490 C   0  0  0  0  0  0  0  0  0  0  0  0
    7.9649    0.2404   19.9492 C   0  0  0  0  0  0  0  0  0  0  0  0
    8.5346   -3.7649   22.8820 C   0  0  0  0  0  0  0  0  0  0  0  0
    7.3144   -4.5636   25.2539 C   0  0  0  0  0  0  0  0  0  0  0  0
   10.2209   -1.9892   22.5118 C   0  0  0  0  0  0  0  0  0  0  0  0
   11.2690    0.2730   22.6165 C   0  0  0  0  0  0  0  0  0  0  0  0
   10.2134    1.0974   22.8198 C   0  0  0  0  0  0  0  0  0  0  0  0
    8.9236    0.7036   22.2233 C   0  0  0  0  0  0  0  0  0  0  0  0
    9.2451    3.2379   23.5648 C   0  0  0  0  0  0  0  0  0  0  0  0
   11.4341    2.4496   24.4814 C   0  0  0  0  0  0  0  0  0  0  0  0
   11.2045   -1.0491   21.8849 C   0  0  0  0  0  0  0  0  0  0  0  0
    9.0494    4.0447   24.8299 C   0  0  0  0  0  0  0  0  0  0  0  0
    7.2446   -0.1600   17.6763 N   0  0  0  0  0  0  0  0  0  0  0  0
   10.2703    2.2664   23.5952 N   0  0  0  0  0  0  0  0  0  0  0  0
    7.6385   -6.2675   27.2779 N   0  0  0  0  0  0  0  0  0  0  0  0
    9.0033    0.5961   20.8442 N   0  0  0  0  0  0  0  0  0  0  0  0
    7.9544    0.5160   22.9512 O   0  0  0  0  0  0  0  0  0  0  0  0
    8.5236    3.4877   22.5957 O   0  0  0  0  0  0  0  0  0  0  0  0
    6.5929   -3.9452   27.6767 O   0  0  0  0  0  0  0  0  0  0  0  0
    5.2778   -5.6905   26.4229 O   0  0  0  0  0  0  0  0  0  0  0  0
    9.3997   -3.1206   21.5367 S   0  0  0  0  0  0  0  0  0  0  0  0
    6.5514   -5.0624   26.7441 S   0  0  0  0  0  0  0  0  0  0  0  0
    8.6230    2.8969   26.0921 Cl  0  0  0  0  0  0  0  0  0  0  0  0
   15.9349   -0.0990   23.0126 H   0  0  0  0  0  0  0  0  0  0  0  0
   16.0397    1.7661   24.6422 H   0  0  0  0  0  0  0  0  0  0  0  0
    4.6845   -0.6284   19.8499 H   0  0  0  0  0  0  0  0  0  0  0  0
   13.7979   -0.8101   22.0759 H   0  0  0  0  0  0  0  0  0  0  0  0
   13.9699    2.9338   25.3098 H   0  0  0  0  0  0  0  0  0  0  0  0
    6.4595   -0.0120   21.4753 H   0  0  0  0  0  0  0  0  0  0  0  0
    7.3300   -5.3128   21.9366 H   0  0  0  0  0  0  0  0  0  0  0  0
    6.2609   -6.0044   24.0497 H   0  0  0  0  0  0  0  0  0  0  0  0
    8.5027   -3.0321   26.2036 H   0  0  0  0  0  0  0  0  0  0  0  0
   10.2685   -1.4529   24.6097 H   0  0  0  0  0  0  0  0  0  0  0  0
    5.2706   -0.7001   17.4204 H   0  0  0  0  0  0  0  0  0  0  0  0
    9.1668    0.3885   18.1612 H   0  0  0  0  0  0  0  0  0  0  0  0
   11.1700    2.0979   25.4844 H   0  0  0  0  0  0  0  0  0  0  0  0
   11.6351    3.5267   24.5345 H   0  0  0  0  0  0  0  0  0  0  0  0
   12.2017   -1.4889   21.8826 H   0  0  0  0  0  0  0  0  0  0  0  0
   10.9461   -0.8500   20.8452 H   0  0  0  0  0  0  0  0  0  0  0  0
    8.2402    4.7458   24.6715 H   0  0  0  0  0  0  0  0  0  0  0  0
    9.9807    4.5400   25.0720 H   0  0  0  0  0  0  0  0  0  0  0  0
    8.2315   -6.0560   28.0897 H   0  0  0  0  0  0  0  0  0  0  0  0
    7.3328   -7.2471   27.2310 H   0  0  0  0  0  0  0  0  0  0  0  0
    9.9011    0.7905   20.4055 H   0  0  0  0  0  0  0  0  0  0  0  0
  1  2  1  0  0  0  0
  1  4  2  0  0  0  0
  2  5  2  0  0  0  0
  3  6  2  0  0  0  0
  3 11  1  0  0  0  0
  4 14  1  0  0  0  0
  5 15  1  0  0  0  0
  6 16  1  0  0  0  0
  7  8  2  0  0  0  0
  7 17  1  0  0  0  0
  8 18  1  0  0  0  0
  9 13  1  0  0  0  0
  9 18  2  0  0  0  0
 10 13  1  0  0  0  0
 10 19  2  0  0  0  0
 11 27  2  0  0  0  0
 12 16  2  0  0  0  0
 12 27  1  0  0  0  0
 13 17  2  0  0  0  0
 14 15  2  0  0  0  0
 14 20  1  0  0  0  0
 15 24  1  0  0  0  0
 16 30  1  0  0  0  0
 17 35  1  0  0  0  0
 18 36  1  0  0  0  0
 19 25  1  0  0  0  0
 19 35  1  0  0  0  0
 20 21  2  0  0  0  0
 20 25  1  0  0  0  0
 21 22  1  0  0  0  0
 21 28  1  0  0  0  0
 22 30  1  0  0  0  0
 22 31  2  0  0  0  0
 23 26  1  0  0  0  0
 23 28  1  0  0  0  0
 23 32  2  0  0  0  0
 24 28  1  0  0  0  0
 26 37  1  0  0  0  0
 29 36  1  0  0  0  0
 33 36  2  0  0  0  0
 34 36  2  0  0  0  0
  1 38  1  0  0  0  0
  2 39  1  0  0  0  0
  3 40  1  0  0  0  0
  4 41  1  0  0  0  0
  5 42  1  0  0  0  0
  6 43  1  0  0  0  0
  7 44  1  0  0  0  0
  8 45  1  0  0  0  0
  9 46  1  0  0  0  0
 10 47  1  0  0  0  0
 11 48  1  0  0  0  0
 12 49  1  0  0  0  0
 24 50  1  0  0  0  0
 24 51  1  0  0  0  0
 25 52  1  0  0  0  0
 25 53  1  0  0  0  0
 26 54  1  0  0  0  0
 26 55  1  0  0  0  0
 29 56  1  0  0  0  0
 29 57  1  0  0  0  0
 30 58  1  0  0  0  0
M  END
> <creator>
Geraldo R Sartori, Fiocruz - CE

> <fragments>
x0874

> <real_space>
FALSE

> <SCR>
FALSE

> <BB>
FALSE

> <link>
https://covid.postera.ai/covid/submissions/88d97d8c-3d99-4435-b726-d1500fd3959b

> <covalent_frag>
TRUE

> <covalent_warhead>
TRUE

> <acrylamide>
FALSE

> <acrylamide_adduct>
FALSE

> <chloroacetamide>
TRUE

> <chloroacetamide_adduct>
FALSE

> <vinylsulfonamide>
FALSE

> <vinylsulfonamide_adduct>
FALSE

> <in_molport_or_mcule>
FALSE

> <in_emolecules>
FALSE

> <Hybrid2>
-7.802330

> <Mpro-x0874_dock>
-7.80233

> <Mpro-x0161_dock>
-7.069513

> <Mpro-x0195_dock>
-6.735645

> <Mpro-x1392_dock>
-6.557495

> <Mpro-x0434_dock>
-6.176702

> <site>
active-noncovalent

> <covalent_distance_min>
9.372556

> <covalent_distance_mean>
9.759841

> <covalent_distance_stderr>
0.030628143

$$$$
DAV-CRI-eab-2
  -OEChem-04062011563D

 34 35  0     1  0  0  0  0  0999 V2000
   10.6185   -1.3240   23.9571 C   0  0  0  0  0  0  0  0  0  0  0  0
   12.1337    0.5357   24.3445 C   0  0  0  0  0  0  0  0  0  0  0  0
   11.2233   -0.3306   24.8101 C   0  0  0  0  0  0  0  0  0  0  0  0
   11.0480   -1.5396   22.7016 C   0  0  0  0  0  0  0  0  0  0  0  0
    9.0767   -0.8136   20.6648 C   0  0  0  0  0  0  0  0  0  0  0  0
   14.5266   -0.9170   22.8560 C   0  0  0  0  0  0  0  0  0  0  0  0
   14.1345    0.5488   22.8165 C   0  0  0  0  0  0  0  0  0  0  0  0
   13.4825   -1.5921   21.9781 C   0  0  0  0  0  0  0  0  0  0  0  0
   12.6061    0.5232   22.9114 C   0  0  1  0  0  0  0  0  0  0  0  0
   12.1972   -0.7471   22.1104 C   0  0  2  0  0  0  0  0  0  0  0  0
    9.2189   -3.2078   22.5014 C   0  0  0  0  0  0  0  0  0  0  0  0
    8.8509   -0.1749   19.3182 C   0  0  0  0  0  0  0  0  0  0  0  0
   10.4026   -2.5643   21.8133 C   0  0  1  0  0  0  0  0  0  0  0  0
   10.0207   -1.8342   20.6404 N   0  0  0  0  0  0  0  0  0  0  0  0
    8.4800   -0.4344   21.6710 O   0  0  0  0  0  0  0  0  0  0  0  0
   10.7016   -0.2528   26.4544 Cl  0  0  0  0  0  0  0  0  0  0  0  0
    7.1463   -0.3921   18.8915 Cl  0  0  0  0  0  0  0  0  0  0  0  0
    9.7898   -1.8969   24.3565 H   0  0  0  0  0  0  0  0  0  0  0  0
   12.5613    1.2917   24.9971 H   0  0  0  0  0  0  0  0  0  0  0  0
   15.5319   -1.0584   22.4323 H   0  0  0  0  0  0  0  0  0  0  0  0
   14.5320   -1.3195   23.8772 H   0  0  0  0  0  0  0  0  0  0  0  0
   14.5804    1.0740   23.6690 H   0  0  0  0  0  0  0  0  0  0  0  0
   14.4819    1.0372   21.9021 H   0  0  0  0  0  0  0  0  0  0  0  0
   13.8197   -1.6612   20.9309 H   0  0  0  0  0  0  0  0  0  0  0  0
   13.3130   -2.6255   22.3289 H   0  0  0  0  0  0  0  0  0  0  0  0
   12.1988    1.3907   22.4108 H   0  0  0  0  0  0  0  0  0  0  0  0
   11.8934   -0.4217   21.1100 H   0  0  0  0  0  0  0  0  0  0  0  0
    8.4639   -2.4667   22.7880 H   0  0  0  0  0  0  0  0  0  0  0  0
    8.7359   -3.9323   21.8371 H   0  0  0  0  0  0  0  0  0  0  0  0
    9.5314   -3.7301   23.4117 H   0  0  0  0  0  0  0  0  0  0  0  0
    9.0787    0.8939   19.3170 H   0  0  0  0  0  0  0  0  0  0  0  0
    9.4736   -0.6736   18.5705 H   0  0  0  0  0  0  0  0  0  0  0  0
   11.1524   -3.3038   21.5291 H   0  0  0  0  0  0  0  0  0  0  0  0
   10.4599   -2.0732   19.7507 H   0  0  0  0  0  0  0  0  0  0  0  0
  1  3  1  0  0  0  0
  1  4  2  0  0  0  0
  2  3  2  0  0  0  0
  2  9  1  0  0  0  0
  3 16  1  0  0  0  0
  4 10  1  0  0  0  0
  4 13  1  0  0  0  0
  5 12  1  0  0  0  0
  5 14  1  0  0  0  0
  5 15  2  0  0  0  0
  6  7  1  0  0  0  0
  6  8  1  0  0  0  0
  7  9  1  0  0  0  0
  8 10  1  0  0  0  0
  9 10  1  0  0  0  0
 11 13  1  0  0  0  0
 12 17  1  0  0  0  0
 13 14  1  0  0  0  0
  1 18  1  0  0  0  0
  2 19  1  0  0  0  0
  6 20  1  0  0  0  0
  6 21  1  0  0  0  0
  7 22  1  0  0  0  0
  7 23  1  0  0  0  0
  8 24  1  0  0  0  0
  8 25  1  0  0  0  0
  9 26  1  0  0  0  0
 10 27  1  0  0  0  0
 11 28  1  0  0  0  0
 11 29  1  0  0  0  0
 11 30  1  0  0  0  0
 12 31  1  0  0  0  0
 12 32  1  0  0  0  0
 13 33  1  0  0  0  0
 14 34  1  0  0  0  0
M  END
> <creator>
David Briggs, Crick Institute

> <fragments>
x1382

> <real_space>
FALSE

> <SCR>
FALSE

> <BB>
FALSE

> <link>
https://covid.postera.ai/covid/submissions/eab5efcb-b199-4c70-afb4-8b9adb33206d

> <covalent_frag>
TRUE

> <covalent_warhead>
TRUE

> <acrylamide>
FALSE

> <acrylamide_adduct>
FALSE

> <chloroacetamide>
TRUE

> <chloroacetamide_adduct>
FALSE

> <vinylsulfonamide>
FALSE

> <vinylsulfonamide_adduct>
FALSE

> <in_molport_or_mcule>
FALSE

> <in_emolecules>
FALSE

> <Hybrid2>
-7.781020

> <Mpro-x1382_dock>
-7.78102

> <Mpro-x0831_dock>
-7.412742

> <site>
active-covalent

> <covalent_distance_min>
3.0294418

> <covalent_distance_mean>
3.556292

> <covalent_distance_stderr>
0.03149161

$$$$
WAR-XCH-72a-5
  -OEChem-04062011563D

 61 63  0     1  0  0  0  0  0999 V2000
    6.3313   -1.9059   19.7661 C   0  0  0  0  0  0  0  0  0  0  0  0
    7.4407   -4.6991   27.9180 C   0  0  0  0  0  0  0  0  0  0  0  0
    8.4490   -5.7065   27.3744 C   0  0  0  0  0  0  0  0  0  0  0  0
    6.7722   -3.9125   26.7948 C   0  0  0  0  0  0  0  0  0  0  0  0
    6.9158   -4.8306   21.7562 C   0  0  0  0  0  0  0  0  0  0  0  0
    9.4805   -5.0381   26.4682 C   0  0  0  0  0  0  0  0  0  0  0  0
    7.8008   -3.2412   25.8875 C   0  0  0  0  0  0  0  0  0  0  0  0
    7.8018   -4.3197   22.8926 C   0  0  0  0  0  0  0  0  0  0  0  0
   10.4628   -0.5339   24.5119 C   0  0  0  0  0  0  0  0  0  0  0  0
   11.4261   -2.0578   22.7334 C   0  0  0  0  0  0  0  0  0  0  0  0
   11.5359    0.5109   24.1978 C   0  0  0  0  0  0  0  0  0  0  0  0
   12.4970   -1.0121   22.4169 C   0  0  0  0  0  0  0  0  0  0  0  0
    5.8993   -3.7731   21.3316 C   0  0  0  0  0  0  0  0  0  0  0  0
    7.4070   -1.9593   22.0721 C   0  0  0  0  0  0  0  0  0  0  0  0
    8.8119   -4.2530   25.3316 C   0  0  0  0  0  0  0  0  0  0  0  0
   10.1662   -1.3982   23.2889 C   0  0  0  0  0  0  0  0  0  0  0  0
    8.4482   -2.9897   22.5052 C   0  0  1  0  0  0  0  0  0  0  0  0
   12.8043   -0.1198   23.6215 C   0  0  0  0  0  0  0  0  0  0  0  0
    7.0524   -0.6083   19.5021 C   0  0  0  0  0  0  0  0  0  0  0  0
    9.8607   -3.5506   24.4715 C   0  0  0  0  0  0  0  0  0  0  0  0
    6.5620   -2.5086   21.0023 N   0  0  0  0  0  0  0  0  0  0  0  0
    9.1976   -2.4591   23.6734 N   0  3  1  0  0  0  0  0  0  0  0  0
    5.5875   -2.3694   18.8978 O   0  0  0  0  0  0  0  0  0  0  0  0
   13.4362   -0.8893   24.6427 O   0  0  0  0  0  0  0  0  0  0  0  0
    8.6050   -1.0307   18.7885 Cl  0  0  0  0  0  0  0  0  0  0  0  0
    6.6781   -5.2217   28.5066 H   0  0  0  0  0  0  0  0  0  0  0  0
    7.9497   -4.0039   28.5970 H   0  0  0  0  0  0  0  0  0  0  0  0
    8.9577   -6.2041   28.2079 H   0  0  0  0  0  0  0  0  0  0  0  0
    7.9201   -6.4858   26.8121 H   0  0  0  0  0  0  0  0  0  0  0  0
    6.1456   -4.5874   26.1988 H   0  0  0  0  0  0  0  0  0  0  0  0
    6.1068   -3.1539   27.2225 H   0  0  0  0  0  0  0  0  0  0  0  0
    7.5423   -5.1019   20.8990 H   0  0  0  0  0  0  0  0  0  0  0  0
    6.3922   -5.7429   22.0652 H   0  0  0  0  0  0  0  0  0  0  0  0
   10.1056   -4.3653   27.0694 H   0  0  0  0  0  0  0  0  0  0  0  0
   10.1471   -5.8034   26.0529 H   0  0  0  0  0  0  0  0  0  0  0  0
    7.2820   -2.7385   25.0625 H   0  0  0  0  0  0  0  0  0  0  0  0
    8.3259   -2.4614   26.4540 H   0  0  0  0  0  0  0  0  0  0  0  0
    7.2214   -4.2206   23.8060 H   0  0  0  0  0  0  0  0  0  0  0  0
    8.5885   -5.0490   23.0792 H   0  0  0  0  0  0  0  0  0  0  0  0
   10.7765   -1.1462   25.3541 H   0  0  0  0  0  0  0  0  0  0  0  0
    9.5497   -0.0177   24.8057 H   0  0  0  0  0  0  0  0  0  0  0  0
   11.1703   -2.5833   21.8145 H   0  0  0  0  0  0  0  0  0  0  0  0
   11.8203   -2.7927   23.4308 H   0  0  0  0  0  0  0  0  0  0  0  0
   11.1382    1.2495   23.4883 H   0  0  0  0  0  0  0  0  0  0  0  0
   11.7833    1.0867   25.1007 H   0  0  0  0  0  0  0  0  0  0  0  0
   13.4184   -1.5008   22.0715 H   0  0  0  0  0  0  0  0  0  0  0  0
   12.1688   -0.3905   21.5728 H   0  0  0  0  0  0  0  0  0  0  0  0
    5.3560   -4.1008   20.4369 H   0  0  0  0  0  0  0  0  0  0  0  0
    5.1605   -3.6314   22.1271 H   0  0  0  0  0  0  0  0  0  0  0  0
    6.8262   -1.6217   22.9270 H   0  0  0  0  0  0  0  0  0  0  0  0
    7.9077   -1.0815   21.6561 H   0  0  0  0  0  0  0  0  0  0  0  0
    8.2759   -4.9617   24.6880 H   0  0  0  0  0  0  0  0  0  0  0  0
    9.6747   -0.8051   22.5147 H   0  0  0  0  0  0  0  0  0  0  0  0
    9.1894   -3.1460   21.7157 H   0  0  0  0  0  0  0  0  0  0  0  0
   13.5001    0.6747   23.3253 H   0  0  0  0  0  0  0  0  0  0  0  0
    7.2037   -0.0922   20.4434 H   0  0  0  0  0  0  0  0  0  0  0  0
    6.4699   -0.0182   18.8038 H   0  0  0  0  0  0  0  0  0  0  0  0
   10.3226   -4.2365   23.7560 H   0  0  0  0  0  0  0  0  0  0  0  0
   10.6338   -3.0769   25.0829 H   0  0  0  0  0  0  0  0  0  0  0  0
    8.5120   -2.0134   24.3030 H   0  0  0  0  0  0  0  0  0  0  0  0
   14.2339   -1.2742   24.2468 H   0  0  0  0  0  0  0  0  0  0  0  0
  1 19  1  0  0  0  0
  1 21  1  0  0  0  0
  1 23  2  0  0  0  0
  2  3  1  0  0  0  0
  2  4  1  0  0  0  0
  3  6  1  0  0  0  0
  4  7  1  0  0  0  0
  5  8  1  0  0  0  0
  5 13  1  0  0  0  0
  6 15  1  0  0  0  0
  7 15  1  0  0  0  0
  8 17  1  0  0  0  0
  9 11  1  0  0  0  0
  9 16  1  0  0  0  0
 10 12  1  0  0  0  0
 10 16  1  0  0  0  0
 11 18  1  0  0  0  0
 12 18  1  0  0  0  0
 13 21  1  0  0  0  0
 14 17  1  0  0  0  0
 14 21  1  0  0  0  0
 15 20  1  0  0  0  0
 16 22  1  0  0  0  0
 17 22  1  0  0  0  0
 18 24  1  0  0  0  0
 19 25  1  0  0  0  0
 20 22  1  0  0  0  0
  2 26  1  0  0  0  0
  2 27  1  0  0  0  0
  3 28  1  0  0  0  0
  3 29  1  0  0  0  0
  4 30  1  0  0  0  0
  4 31  1  0  0  0  0
  5 32  1  0  0  0  0
  5 33  1  0  0  0  0
  6 34  1  0  0  0  0
  6 35  1  0  0  0  0
  7 36  1  0  0  0  0
  7 37  1  0  0  0  0
  8 38  1  0  0  0  0
  8 39  1  0  0  0  0
  9 40  1  0  0  0  0
  9 41  1  0  0  0  0
 10 42  1  0  0  0  0
 10 43  1  0  0  0  0
 11 44  1  0  0  0  0
 11 45  1  0  0  0  0
 12 46  1  0  0  0  0
 12 47  1  0  0  0  0
 13 48  1  0  0  0  0
 13 49  1  0  0  0  0
 14 50  1  0  0  0  0
 14 51  1  0  0  0  0
 15 52  1  0  0  0  0
 16 53  1  0  0  0  0
 17 54  1  0  0  0  0
 18 55  1  0  0  0  0
 19 56  1  0  0  0  0
 19 57  1  0  0  0  0
 20 58  1  0  0  0  0
 20 59  1  0  0  0  0
 22 60  1  0  0  0  0
 24 61  1  0  0  0  0
M  CHG  1  22   1
M  END
> <creator>
Warren Thompson, XChem - Diamond Light Source

> <fragments>
x1418

> <real_space>
FALSE

> <SCR>
FALSE

> <BB>
FALSE

> <link>
https://covid.postera.ai/covid/submissions/72a8c209-a4b2-4e6c-8301-3438755f7985

> <covalent_frag>
TRUE

> <covalent_warhead>
TRUE

> <acrylamide>
FALSE

> <acrylamide_adduct>
FALSE

> <chloroacetamide>
TRUE

> <chloroacetamide_adduct>
FALSE

> <vinylsulfonamide>
FALSE

> <vinylsulfonamide_adduct>
FALSE

> <in_molport_or_mcule>
FALSE

> <in_emolecules>
FALSE

> <Hybrid2>
-7.760713

> <Mpro-x1418_dock>
-7.760713

> <Mpro-x1458_dock>
-3.043593

> <Mpro-x1493_dock>
-1.362255

> <Mpro-x1478_dock>
-0.981395

> <site>
active-covalent

> <covalent_distance_min>
4.2450314

> <covalent_distance_mean>
5.0719814

> <covalent_distance_stderr>
0.04038941

$$$$
MAK-UNK-e4a-20
  -OEChem-04062011563D

 41 43  0     0  0  0  0  0  0999 V2000
   10.6145    2.0566   22.5980 C   0  0  0  0  0  0  0  0  0  0  0  0
   11.7222   -1.7201   22.5190 C   0  0  0  0  0  0  0  0  0  0  0  0
   10.1325    3.3427   22.7030 C   0  0  0  0  0  0  0  0  0  0  0  0
   12.1782    3.0117   24.0278 C   0  0  0  0  0  0  0  0  0  0  0  0
   11.7994    1.8646   23.3655 C   0  0  0  0  0  0  0  0  0  0  0  0
   11.7004   -0.6541   23.3938 C   0  0  0  0  0  0  0  0  0  0  0  0
   10.0505   -2.3654   23.7835 C   0  0  0  0  0  0  0  0  0  0  0  0
    5.7807   -2.3732   19.8398 C   0  0  0  0  0  0  0  0  0  0  0  0
    6.4067   -4.0211   21.5758 C   0  0  0  0  0  0  0  0  0  0  0  0
    6.0730   -1.6799   22.2692 C   0  0  0  0  0  0  0  0  0  0  0  0
    7.7300   -4.0759   22.3250 C   0  0  0  0  0  0  0  0  0  0  0  0
    7.3914   -1.7001   23.0309 C   0  0  0  0  0  0  0  0  0  0  0  0
   12.5567    0.5467   23.4424 C   0  0  0  0  0  0  0  0  0  0  0  0
    8.9201   -3.1856   24.3316 C   0  0  0  0  0  0  0  0  0  0  0  0
    5.4677   -0.9365   19.5057 C   0  0  0  0  0  0  0  0  0  0  0  0
   10.7771   -2.7025   22.7411 N   0  0  0  0  0  0  0  0  0  0  0  0
    6.0882   -2.6519   21.1707 N   0  0  0  0  0  0  0  0  0  0  0  0
    7.6774   -3.1126   23.4896 N   0  3  0  0  0  0  0  0  0  0  0  0
    5.7547   -3.2202   18.9432 O   0  0  0  0  0  0  0  0  0  0  0  0
   11.1072    4.3127   23.7235 S   0  0  0  0  0  0  0  0  0  0  0  0
   10.4486   -0.8795   24.5443 S   0  0  0  0  0  0  0  0  0  0  0  0
    7.0000   -0.1657   19.1110 Cl  0  0  0  0  0  0  0  0  0  0  0  0
   10.1366    1.2928   21.9975 H   0  0  0  0  0  0  0  0  0  0  0  0
   12.4124   -1.8339   21.6935 H   0  0  0  0  0  0  0  0  0  0  0  0
    9.2553    3.7595   22.2287 H   0  0  0  0  0  0  0  0  0  0  0  0
   13.0324    3.1526   24.6757 H   0  0  0  0  0  0  0  0  0  0  0  0
    6.4518   -4.6830   20.7053 H   0  0  0  0  0  0  0  0  0  0  0  0
    5.5860   -4.3758   22.2111 H   0  0  0  0  0  0  0  0  0  0  0  0
    5.2412   -1.9502   22.9310 H   0  0  0  0  0  0  0  0  0  0  0  0
    5.8814   -0.6662   21.9134 H   0  0  0  0  0  0  0  0  0  0  0  0
    7.9003   -5.0762   22.7362 H   0  0  0  0  0  0  0  0  0  0  0  0
    8.5749   -3.7892   21.6886 H   0  0  0  0  0  0  0  0  0  0  0  0
    8.2306   -1.3722   22.4073 H   0  0  0  0  0  0  0  0  0  0  0  0
    7.3294   -1.0728   23.9260 H   0  0  0  0  0  0  0  0  0  0  0  0
   13.3124    0.5355   22.6297 H   0  0  0  0  0  0  0  0  0  0  0  0
   13.1796    0.5598   24.3609 H   0  0  0  0  0  0  0  0  0  0  0  0
    9.1941   -4.2441   24.3966 H   0  0  0  0  0  0  0  0  0  0  0  0
    8.6395   -2.8511   25.3362 H   0  0  0  0  0  0  0  0  0  0  0  0
    5.0252   -0.4620   20.3742 H   0  0  0  0  0  0  0  0  0  0  0  0
    4.8062   -0.9115   18.6473 H   0  0  0  0  0  0  0  0  0  0  0  0
    6.8966   -3.4029   24.0944 H   0  0  0  0  0  0  0  0  0  0  0  0
  1  3  2  0  0  0  0
  1  5  1  0  0  0  0
  2  6  2  0  0  0  0
  2 16  1  0  0  0  0
  3 20  1  0  0  0  0
  4  5  2  0  0  0  0
  4 20  1  0  0  0  0
  5 13  1  0  0  0  0
  6 13  1  0  0  0  0
  6 21  1  0  0  0  0
  7 14  1  0  0  0  0
  7 16  2  0  0  0  0
  7 21  1  0  0  0  0
  8 15  1  0  0  0  0
  8 17  1  0  0  0  0
  8 19  2  0  0  0  0
  9 11  1  0  0  0  0
  9 17  1  0  0  0  0
 10 12  1  0  0  0  0
 10 17  1  0  0  0  0
 11 18  1  0  0  0  0
 12 18  1  0  0  0  0
 14 18  1  0  0  0  0
 15 22  1  0  0  0  0
  1 23  1  0  0  0  0
  2 24  1  0  0  0  0
  3 25  1  0  0  0  0
  4 26  1  0  0  0  0
  9 27  1  0  0  0  0
  9 28  1  0  0  0  0
 10 29  1  0  0  0  0
 10 30  1  0  0  0  0
 11 31  1  0  0  0  0
 11 32  1  0  0  0  0
 12 33  1  0  0  0  0
 12 34  1  0  0  0  0
 13 35  1  0  0  0  0
 13 36  1  0  0  0  0
 14 37  1  0  0  0  0
 14 38  1  0  0  0  0
 15 39  1  0  0  0  0
 15 40  1  0  0  0  0
 18 41  1  0  0  0  0
M  CHG  1  18   1
M  END
> <creator>
Maksym Voznyy

> <fragments>
x0692

> <real_space>
FALSE

> <SCR>
FALSE

> <BB>
FALSE

> <link>
https://covid.postera.ai/covid/submissions/e4a48a85-91ce-4c28-86d4-edf9997dafca

> <covalent_frag>
TRUE

> <covalent_warhead>
TRUE

> <acrylamide>
FALSE

> <acrylamide_adduct>
FALSE

> <chloroacetamide>
TRUE

> <chloroacetamide_adduct>
FALSE

> <vinylsulfonamide>
FALSE

> <vinylsulfonamide_adduct>
FALSE

> <in_molport_or_mcule>
FALSE

> <in_emolecules>
FALSE

> <Hybrid2>
-7.758801

> <Mpro-x0692_dock>
-7.758801

> <Mpro-x0387_dock>
-4.113832

> <site>
active-covalent

> <covalent_distance_min>
3.148353

> <covalent_distance_mean>
3.9222007

> <covalent_distance_stderr>
0.05464614

$$$$
BEN-VAN-ed8-4
  -OEChem-04062011563D

 47 48  0     0  0  0  0  0  0999 V2000
    8.8733    6.0622   23.0407 C   0  0  0  0  0  0  0  0  0  0  0  0
    7.6555    5.7602   22.4415 C   0  0  0  0  0  0  0  0  0  0  0  0
    9.4389    0.7517   23.6300 C   0  0  0  0  0  0  0  0  0  0  0  0
   11.5675    1.7876   24.1120 C   0  0  0  0  0  0  0  0  0  0  0  0
   11.4829   -0.2607   22.8336 C   0  0  0  0  0  0  0  0  0  0  0  0
   10.1766    1.7797   24.2168 C   0  0  0  0  0  0  0  0  0  0  0  0
   10.0920   -0.2686   22.9384 C   0  0  0  0  0  0  0  0  0  0  0  0
    9.4858    5.1270   23.8675 C   0  0  0  0  0  0  0  0  0  0  0  0
   12.2207    0.7674   23.4204 C   0  0  0  0  0  0  0  0  0  0  0  0
    8.8445    3.9142   24.0614 C   0  0  0  0  0  0  0  0  0  0  0  0
    7.0962    4.5189   22.6990 C   0  0  0  0  0  0  0  0  0  0  0  0
    3.6800    1.7346   18.9764 C   0  0  0  0  0  0  0  0  0  0  0  0
    4.3630    0.9007   19.7666 C   0  0  0  0  0  0  0  0  0  0  0  0
    5.8401    1.0253   19.8942 C   0  0  0  0  0  0  0  0  0  0  0  0
    7.7212   -0.0576   21.0745 C   0  0  0  0  0  0  0  0  0  0  0  0
    4.4340    2.9657   23.5618 C   0  0  0  0  0  0  0  0  0  0  0  0
    9.4792    2.8700   24.9578 C   0  0  0  0  0  0  0  0  0  0  0  0
    7.9554   -1.1960   22.0436 C   0  0  0  0  0  0  0  0  0  0  0  0
    5.1752    2.9860   22.2684 C   0  0  0  0  0  0  0  0  0  0  0  0
    7.6613    3.5849   23.4965 N   0  0  0  0  0  0  0  0  0  0  0  0
    9.3585   -1.2921   22.3555 N   0  0  0  0  0  0  0  0  0  0  0  0
    5.8536    4.2272   22.0833 N   0  0  0  0  0  0  0  0  0  0  0  0
    6.3654    0.0690   20.7602 N   0  0  0  0  0  0  0  0  0  0  0  0
    6.4832    1.8796   19.2932 O   0  0  0  0  0  0  0  0  0  0  0  0
    8.6215    0.6512   20.6327 O   0  0  0  0  0  0  0  0  0  0  0  0
   10.6572    5.4014   24.4544 F   0  0  0  0  0  0  0  0  0  0  0  0
   13.5563    0.7754   23.3194 F   0  0  0  0  0  0  0  0  0  0  0  0
    9.3439    7.0246   22.8639 H   0  0  0  0  0  0  0  0  0  0  0  0
    7.1713    6.4836   21.7932 H   0  0  0  0  0  0  0  0  0  0  0  0
    8.3545    0.7467   23.7141 H   0  0  0  0  0  0  0  0  0  0  0  0
   12.1509    2.5843   24.5658 H   0  0  0  0  0  0  0  0  0  0  0  0
   12.0024   -1.0510   22.2974 H   0  0  0  0  0  0  0  0  0  0  0  0
    2.6028    1.6378   18.8883 H   0  0  0  0  0  0  0  0  0  0  0  0
    4.1585    2.5223   18.4054 H   0  0  0  0  0  0  0  0  0  0  0  0
    3.8446    0.1263   20.3211 H   0  0  0  0  0  0  0  0  0  0  0  0
    3.6941    3.7797   23.5738 H   0  0  0  0  0  0  0  0  0  0  0  0
    3.9188    2.0004   23.6738 H   0  0  0  0  0  0  0  0  0  0  0  0
    5.1423    3.1020   24.3923 H   0  0  0  0  0  0  0  0  0  0  0  0
    8.7033    2.4511   25.6225 H   0  0  0  0  0  0  0  0  0  0  0  0
   10.1751    3.3722   25.6529 H   0  0  0  0  0  0  0  0  0  0  0  0
    7.6115   -2.1318   21.5920 H   0  0  0  0  0  0  0  0  0  0  0  0
    7.3842   -1.0146   22.9597 H   0  0  0  0  0  0  0  0  0  0  0  0
    5.9125    2.1698   22.2643 H   0  0  0  0  0  0  0  0  0  0  0  0
    4.4621    2.8402   21.4436 H   0  0  0  0  0  0  0  0  0  0  0  0
    9.8409   -2.1588   22.1383 H   0  0  0  0  0  0  0  0  0  0  0  0
    5.4641    4.9403   21.5012 H   0  0  0  0  0  0  0  0  0  0  0  0
    5.7163   -0.5832   21.1945 H   0  0  0  0  0  0  0  0  0  0  0  0
  1  2  2  0  0  0  0
  1  8  1  0  0  0  0
  2 11  1  0  0  0  0
  3  6  1  0  0  0  0
  3  7  2  0  0  0  0
  4  6  2  0  0  0  0
  4  9  1  0  0  0  0
  5  7  1  0  0  0  0
  5  9  2  0  0  0  0
  6 17  1  0  0  0  0
  7 21  1  0  0  0  0
  8 10  2  0  0  0  0
  8 26  1  0  0  0  0
  9 27  1  0  0  0  0
 10 17  1  0  0  0  0
 10 20  1  0  0  0  0
 11 20  2  0  0  0  0
 11 22  1  0  0  0  0
 12 13  2  0  0  0  0
 13 14  1  0  0  0  0
 14 23  1  0  0  0  0
 14 24  2  0  0  0  0
 15 18  1  0  0  0  0
 15 23  1  0  0  0  0
 15 25  2  0  0  0  0
 16 19  1  0  0  0  0
 18 21  1  0  0  0  0
 19 22  1  0  0  0  0
  1 28  1  0  0  0  0
  2 29  1  0  0  0  0
  3 30  1  0  0  0  0
  4 31  1  0  0  0  0
  5 32  1  0  0  0  0
 12 33  1  0  0  0  0
 12 34  1  0  0  0  0
 13 35  1  0  0  0  0
 16 36  1  0  0  0  0
 16 37  1  0  0  0  0
 16 38  1  0  0  0  0
 17 39  1  0  0  0  0
 17 40  1  0  0  0  0
 18 41  1  0  0  0  0
 18 42  1  0  0  0  0
 19 43  1  0  0  0  0
 19 44  1  0  0  0  0
 21 45  1  0  0  0  0
 22 46  1  0  0  0  0
 23 47  1  0  0  0  0
M  END
> <creator>
Benjamin P. Brown, Vanderbilt University, Laboratory of Jens Meiler

> <fragments>
x0434

> <real_space>
FALSE

> <SCR>
FALSE

> <BB>
FALSE

> <link>
https://covid.postera.ai/covid/submissions/ed886787-7a03-461a-8e89-d76e33337a9e

> <covalent_frag>
FALSE

> <covalent_warhead>
TRUE

> <acrylamide>
TRUE

> <acrylamide_adduct>
FALSE

> <chloroacetamide>
FALSE

> <chloroacetamide_adduct>
FALSE

> <vinylsulfonamide>
FALSE

> <vinylsulfonamide_adduct>
FALSE

> <in_molport_or_mcule>
FALSE

> <in_emolecules>
FALSE

> <Hybrid2>
-7.746318

> <Mpro-x0434_dock>
-7.746318

> <Mpro-x0305_dock>
-2.73206

> <site>
active-noncovalent

> <covalent_distance_min>
6.963706

> <covalent_distance_mean>
7.7325664

> <covalent_distance_stderr>
0.030624542

$$$$
NIR-THE-c33-3
  -OEChem-04062011563D

 53 56  0     1  0  0  0  0  0999 V2000
    8.3760   -3.8985   26.1585 C   0  0  0  0  0  0  0  0  0  0  0  0
    7.1181   -3.3373   25.9586 C   0  0  0  0  0  0  0  0  0  0  0  0
    7.3053    2.9442   23.9478 C   0  0  0  0  0  0  0  0  0  0  0  0
    9.4189   -3.6029   25.2811 C   0  0  0  0  0  0  0  0  0  0  0  0
    6.9007   -2.4823   24.8791 C   0  0  0  0  0  0  0  0  0  0  0  0
    6.2444    2.2525   23.3519 C   0  0  0  0  0  0  0  0  0  0  0  0
   10.5910    1.5429   24.7230 C   0  0  0  0  0  0  0  0  0  0  0  0
    8.5186    2.2686   24.1861 C   0  0  0  0  0  0  0  0  0  0  0  0
    9.2161   -2.7393   24.1939 C   0  0  0  0  0  0  0  0  0  0  0  0
    7.9418   -2.1796   23.9867 C   0  0  0  0  0  0  0  0  0  0  0  0
    7.5717    0.2212   23.2220 C   0  0  0  0  0  0  0  0  0  0  0  0
    9.7675    2.6446   24.7553 C   0  0  0  0  0  0  0  0  0  0  0  0
    8.6236    0.9254   23.8185 C   0  0  0  0  0  0  0  0  0  0  0  0
    6.3778    0.9120   22.9954 C   0  0  0  0  0  0  0  0  0  0  0  0
   11.0515   -0.6072   21.6652 C   0  0  0  0  0  0  0  0  0  0  0  0
   12.2300    4.7824   23.1960 C   0  0  0  0  0  0  0  0  0  0  0  0
   10.3755   -2.4459   23.2724 C   0  0  0  0  0  0  0  0  0  0  0  0
    8.7276   -1.4455   21.7084 C   0  0  0  0  0  0  0  0  0  0  0  0
    7.6854   -1.2437   22.8200 C   0  0  1  0  0  0  0  0  0  0  0  0
   12.9043    4.5644   21.8822 C   0  0  0  0  0  0  0  0  0  0  0  0
   10.1261    3.9745   25.2883 C   0  0  0  0  0  0  0  0  0  0  0  0
   12.4650   -0.7679   22.1672 C   0  0  0  0  0  0  0  0  0  0  0  0
   10.0080    5.1151   24.2611 C   0  0  0  0  0  0  0  0  0  0  0  0
    9.8923    0.5111   24.1560 N   0  0  0  0  0  0  0  0  0  0  0  0
   10.0898   -1.4413   22.2399 N   0  0  0  0  0  0  0  0  0  0  0  0
   10.8519    4.9028   23.1159 N   0  0  0  0  0  0  0  0  0  0  0  0
   10.8099    0.2360   20.7981 O   0  0  0  0  0  0  0  0  0  0  0  0
   12.9029    4.8376   24.2187 O   0  0  0  0  0  0  0  0  0  0  0  0
    5.3391    0.2828   22.4259 F   0  0  0  0  0  0  0  0  0  0  0  0
   12.9523    0.7973   22.8071 Cl  0  0  0  0  0  0  0  0  0  0  0  0
    8.5458   -4.5663   26.9981 H   0  0  0  0  0  0  0  0  0  0  0  0
    6.3057   -3.5660   26.6421 H   0  0  0  0  0  0  0  0  0  0  0  0
    7.1860    3.9890   24.2199 H   0  0  0  0  0  0  0  0  0  0  0  0
   10.3965   -4.0480   25.4500 H   0  0  0  0  0  0  0  0  0  0  0  0
    5.9122   -2.0531   24.7345 H   0  0  0  0  0  0  0  0  0  0  0  0
    5.3065    2.7685   23.1649 H   0  0  0  0  0  0  0  0  0  0  0  0
   11.6107    1.3985   25.0525 H   0  0  0  0  0  0  0  0  0  0  0  0
   11.2274   -2.1217   23.8767 H   0  0  0  0  0  0  0  0  0  0  0  0
   10.6567   -3.3653   22.7450 H   0  0  0  0  0  0  0  0  0  0  0  0
    8.5838   -2.4238   21.2309 H   0  0  0  0  0  0  0  0  0  0  0  0
    8.6106   -0.6888   20.9244 H   0  0  0  0  0  0  0  0  0  0  0  0
    6.6917   -1.5198   22.3743 H   0  0  0  0  0  0  0  0  0  0  0  0
   13.1891    5.5102   21.3938 H   0  0  0  0  0  0  0  0  0  0  0  0
   13.8416    3.9936   21.9802 H   0  0  0  0  0  0  0  0  0  0  0  0
   12.3099    4.0185   21.1322 H   0  0  0  0  0  0  0  0  0  0  0  0
   11.1677    3.9645   25.6658 H   0  0  0  0  0  0  0  0  0  0  0  0
    9.5124    4.2322   26.1751 H   0  0  0  0  0  0  0  0  0  0  0  0
   13.1027   -1.0457   21.3362 H   0  0  0  0  0  0  0  0  0  0  0  0
   12.4747   -1.5122   22.9548 H   0  0  0  0  0  0  0  0  0  0  0  0
    8.9832    5.2012   23.8863 H   0  0  0  0  0  0  0  0  0  0  0  0
   10.2905    6.0748   24.7063 H   0  0  0  0  0  0  0  0  0  0  0  0
   10.2562   -0.4199   24.0065 H   0  0  0  0  0  0  0  0  0  0  0  0
   10.4139    4.8376   22.1984 H   0  0  0  0  0  0  0  0  0  0  0  0
  1  2  1  0  0  0  0
  1  4  2  0  0  0  0
  2  5  2  0  0  0  0
  3  6  2  0  0  0  0
  3  8  1  0  0  0  0
  4  9  1  0  0  0  0
  5 10  1  0  0  0  0
  6 14  1  0  0  0  0
  7 12  2  0  0  0  0
  7 24  1  0  0  0  0
  8 12  1  0  0  0  0
  8 13  2  0  0  0  0
  9 10  2  0  0  0  0
  9 17  1  0  0  0  0
 10 19  1  0  0  0  0
 11 13  1  0  0  0  0
 11 14  2  0  0  0  0
 11 19  1  0  0  0  0
 12 21  1  0  0  0  0
 13 24  1  0  0  0  0
 14 29  1  0  0  0  0
 15 22  1  0  0  0  0
 15 25  1  0  0  0  0
 15 27  2  0  0  0  0
 16 20  1  0  0  0  0
 16 26  1  0  0  0  0
 16 28  2  0  0  0  0
 17 25  1  0  0  0  0
 18 19  1  0  0  0  0
 18 25  1  0  0  0  0
 21 23  1  0  0  0  0
 22 30  1  0  0  0  0
 23 26  1  0  0  0  0
  1 31  1  0  0  0  0
  2 32  1  0  0  0  0
  3 33  1  0  0  0  0
  4 34  1  0  0  0  0
  5 35  1  0  0  0  0
  6 36  1  0  0  0  0
  7 37  1  0  0  0  0
 17 38  1  0  0  0  0
 17 39  1  0  0  0  0
 18 40  1  0  0  0  0
 18 41  1  0  0  0  0
 19 42  1  0  0  0  0
 20 43  1  0  0  0  0
 20 44  1  0  0  0  0
 20 45  1  0  0  0  0
 21 46  1  0  0  0  0
 21 47  1  0  0  0  0
 22 48  1  0  0  0  0
 22 49  1  0  0  0  0
 23 50  1  0  0  0  0
 23 51  1  0  0  0  0
 24 52  1  0  0  0  0
 26 53  1  0  0  0  0
M  END
> <creator>
Nir London, The Weizmann Institute of Science

> <fragments>
x0874

> <real_space>
FALSE

> <SCR>
FALSE

> <BB>
FALSE

> <link>
https://covid.postera.ai/covid/submissions/c331be7a-6ba0-49a5-9756-17aee0dabcbf

> <covalent_frag>
FALSE

> <covalent_warhead>
TRUE

> <acrylamide>
FALSE

> <acrylamide_adduct>
FALSE

> <chloroacetamide>
TRUE

> <chloroacetamide_adduct>
FALSE

> <vinylsulfonamide>
FALSE

> <vinylsulfonamide_adduct>
FALSE

> <in_molport_or_mcule>
FALSE

> <in_emolecules>
FALSE

> <Hybrid2>
-7.733530

> <Mpro-x0874_dock>
-7.73353

> <Mpro-x0195_dock>
-6.9427

> <Mpro-x0104_dock>
-5.091883

> <Mpro-x0305_dock>
-4.310741

> <site>
active-noncovalent

> <covalent_distance_min>
6.8652267

> <covalent_distance_mean>
7.228282

> <covalent_distance_stderr>
0.03246438

$$$$
JAN-GHE-641-10
  -OEChem-04062011563D

 44 46  0     0  0  0  0  0  0999 V2000
   11.2094    6.0469   25.9495 C   0  0  0  0  0  0  0  0  0  0  0  0
    9.8592    6.2324   25.6307 C   0  0  0  0  0  0  0  0  0  0  0  0
   12.1491    5.7920   24.9526 C   0  0  0  0  0  0  0  0  0  0  0  0
    8.4315    6.1170   22.2678 C   0  0  0  0  0  0  0  0  0  0  0  0
    9.4549    6.1589   24.2829 C   0  0  0  0  0  0  0  0  0  0  0  0
   11.7715    5.7145   23.6090 C   0  0  0  0  0  0  0  0  0  0  0  0
    8.2061    6.2919   23.6138 C   0  0  0  0  0  0  0  0  0  0  0  0
   10.4185    5.9021   23.3051 C   0  0  0  0  0  0  0  0  0  0  0  0
   11.3341   -1.2022   22.0811 C   0  0  0  0  0  0  0  0  0  0  0  0
   11.4671   -1.0246   23.3972 C   0  0  0  0  0  0  0  0  0  0  0  0
   11.0601    0.2639   23.9865 C   0  0  0  0  0  0  0  0  0  0  0  0
    5.8364    5.5044   23.9730 C   0  0  0  0  0  0  0  0  0  0  0  0
   11.5855    2.7618   23.8511 C   0  0  0  0  0  0  0  0  0  0  0  0
   12.7300    1.5717   22.4853 C   0  0  0  0  0  0  0  0  0  0  0  0
   12.8760    2.9908   23.0530 C   0  0  0  0  0  0  0  0  0  0  0  0
    6.8978    6.5673   24.2414 C   0  0  0  0  0  0  0  0  0  0  0  0
   12.8093    5.4388   22.5612 C   0  0  0  0  0  0  0  0  0  0  0  0
    9.7688    5.8822   22.0916 N   0  0  0  0  0  0  0  0  0  0  0  0
   11.7232    1.3570   23.5085 N   0  0  0  0  0  0  0  0  0  0  0  0
    6.1555    4.2715   24.5019 N   0  0  0  0  0  0  0  0  0  0  0  0
   12.7528    4.0411   22.0344 N   0  3  0  0  0  0  0  0  0  0  0  0
   10.1796    0.2955   24.8426 O   0  0  0  0  0  0  0  0  0  0  0  0
    4.8047    5.7282   23.3462 O   0  0  0  0  0  0  0  0  0  0  0  0
   11.5268    6.1019   26.9876 H   0  0  0  0  0  0  0  0  0  0  0  0
    9.1396    6.4303   26.4199 H   0  0  0  0  0  0  0  0  0  0  0  0
   13.1906    5.6513   25.2328 H   0  0  0  0  0  0  0  0  0  0  0  0
    7.7620    6.1380   21.4191 H   0  0  0  0  0  0  0  0  0  0  0  0
   11.6159   -2.1275   21.5899 H   0  0  0  0  0  0  0  0  0  0  0  0
   10.9323   -0.4067   21.4625 H   0  0  0  0  0  0  0  0  0  0  0  0
   11.8632   -1.7941   24.0470 H   0  0  0  0  0  0  0  0  0  0  0  0
   11.6693    2.9716   24.9205 H   0  0  0  0  0  0  0  0  0  0  0  0
   10.6706    3.2044   23.4461 H   0  0  0  0  0  0  0  0  0  0  0  0
   12.3228    1.4844   21.4736 H   0  0  0  0  0  0  0  0  0  0  0  0
   13.6127    0.9365   22.5950 H   0  0  0  0  0  0  0  0  0  0  0  0
   13.7659    3.1285   23.6778 H   0  0  0  0  0  0  0  0  0  0  0  0
    6.9941    6.6650   25.3402 H   0  0  0  0  0  0  0  0  0  0  0  0
    6.4896    7.5383   23.8996 H   0  0  0  0  0  0  0  0  0  0  0  0
   12.6891    6.1047   21.6999 H   0  0  0  0  0  0  0  0  0  0  0  0
   13.8200    5.5849   22.9575 H   0  0  0  0  0  0  0  0  0  0  0  0
   10.2137    5.7183   21.1990 H   0  0  0  0  0  0  0  0  0  0  0  0
    7.0274    4.1549   25.0082 H   0  0  0  0  0  0  0  0  0  0  0  0
    5.5311    3.4794   24.3922 H   0  0  0  0  0  0  0  0  0  0  0  0
   13.4961    3.9342   21.3214 H   0  0  0  0  0  0  0  0  0  0  0  0
   11.8656    3.9280   21.5124 H   0  0  0  0  0  0  0  0  0  0  0  0
  1  2  1  0  0  0  0
  1  3  2  0  0  0  0
  2  5  2  0  0  0  0
  3  6  1  0  0  0  0
  4  7  2  0  0  0  0
  4 18  1  0  0  0  0
  5  7  1  0  0  0  0
  5  8  1  0  0  0  0
  6  8  2  0  0  0  0
  6 17  1  0  0  0  0
  7 16  1  0  0  0  0
  8 18  1  0  0  0  0
  9 10  2  0  0  0  0
 10 11  1  0  0  0  0
 11 19  1  0  0  0  0
 11 22  2  0  0  0  0
 12 16  1  0  0  0  0
 12 20  1  0  0  0  0
 12 23  2  0  0  0  0
 13 15  1  0  0  0  0
 13 19  1  0  0  0  0
 14 15  1  0  0  0  0
 14 19  1  0  0  0  0
 15 21  1  0  0  0  0
 17 21  1  0  0  0  0
  1 24  1  0  0  0  0
  2 25  1  0  0  0  0
  3 26  1  0  0  0  0
  4 27  1  0  0  0  0
  9 28  1  0  0  0  0
  9 29  1  0  0  0  0
 10 30  1  0  0  0  0
 13 31  1  0  0  0  0
 13 32  1  0  0  0  0
 14 33  1  0  0  0  0
 14 34  1  0  0  0  0
 15 35  1  0  0  0  0
 16 36  1  0  0  0  0
 16 37  1  0  0  0  0
 17 38  1  0  0  0  0
 17 39  1  0  0  0  0
 18 40  1  0  0  0  0
 20 41  1  0  0  0  0
 20 42  1  0  0  0  0
 21 43  1  0  0  0  0
 21 44  1  0  0  0  0
M  CHG  1  21   1
M  END
> <creator>
Jan, Ghent University

> <fragments>
x0104

> <real_space>
FALSE

> <SCR>
FALSE

> <BB>
FALSE

> <link>
https://covid.postera.ai/covid/submissions/6413aaf8-c5d7-46f1-8e3f-314432f79018

> <covalent_frag>
TRUE

> <covalent_warhead>
TRUE

> <acrylamide>
TRUE

> <acrylamide_adduct>
FALSE

> <chloroacetamide>
FALSE

> <chloroacetamide_adduct>
FALSE

> <vinylsulfonamide>
FALSE

> <vinylsulfonamide_adduct>
FALSE

> <in_molport_or_mcule>
FALSE

> <in_emolecules>
FALSE

> <Hybrid2>
-7.572403

> <Mpro-x0104_dock>
-7.572403

> <Mpro-x0692_dock>
-6.636539

> <site>
active-noncovalent

> <covalent_distance_min>
3.5362163

> <covalent_distance_mean>
4.424992

> <covalent_distance_stderr>
0.05496647

$$$$
MAK-UNK-af8-19
  -OEChem-04062011563D

 63 65  0     1  0  0  0  0  0999 V2000
    7.3775    3.8683   22.4552 C   0  0  0  0  0  0  0  0  0  0  0  0
   14.0421   -1.3893   22.4030 C   0  0  0  0  0  0  0  0  0  0  0  0
   13.3104   -2.3247   23.1344 C   0  0  0  0  0  0  0  0  0  0  0  0
   13.8257   -0.0255   22.6005 C   0  0  0  0  0  0  0  0  0  0  0  0
   12.1456   -0.5327   24.2610 C   0  0  0  0  0  0  0  0  0  0  0  0
   12.3621   -1.8965   24.0634 C   0  0  0  0  0  0  0  0  0  0  0  0
   12.8774    0.4028   23.5296 C   0  0  0  0  0  0  0  0  0  0  0  0
    6.4763   -4.4348   23.3168 C   0  0  0  0  0  0  0  0  0  0  0  0
   10.9929    1.9164   22.0164 C   0  0  0  0  0  0  0  0  0  0  0  0
    9.6377    2.5023   21.6390 C   0  0  0  0  0  0  0  0  0  0  0  0
   11.3071    3.7286   23.7464 C   0  0  0  0  0  0  0  0  0  0  0  0
    8.5435   -3.3077   22.5570 C   0  0  0  0  0  0  0  0  0  0  0  0
    8.7719   -5.3384   23.9343 C   0  0  0  0  0  0  0  0  0  0  0  0
    9.5404   -2.5716   23.4402 C   0  0  0  0  0  0  0  0  0  0  0  0
    9.7744   -4.6331   24.8377 C   0  0  0  0  0  0  0  0  0  0  0  0
    9.9485    4.3128   23.3706 C   0  0  2  0  0  0  0  0  0  0  0  0
   11.3554    2.2255   23.4679 C   0  0  2  0  0  0  0  0  0  0  0  0
    9.5712    4.0058   21.9191 C   0  0  2  0  0  0  0  0  0  0  0  0
    9.8819    7.7446   25.0181 C   0  0  0  0  0  0  0  0  0  0  0  0
   11.5748   -2.9028   24.8498 C   0  0  0  0  0  0  0  0  0  0  0  0
    5.8605   -5.5607   24.1084 C   0  0  0  0  0  0  0  0  0  0  0  0
    9.7784    6.2365   24.9533 C   0  0  0  0  0  0  0  0  0  0  0  0
    6.6075    3.3540   23.1547 N   0  0  0  0  0  0  0  0  0  0  0  0
    7.8689   -4.3722   23.2998 N   0  0  0  0  0  0  0  0  0  0  0  0
   10.5014   -3.5738   24.0398 N   0  3  0  0  0  0  0  0  0  0  0  0
   10.0005    5.7907   23.5540 N   0  3  0  0  0  0  0  0  0  0  0  0
    5.7401   -3.6345   22.7339 O   0  0  0  0  0  0  0  0  0  0  0  0
    8.2497    4.4650   21.6466 O   0  0  0  0  0  0  0  0  0  0  0  0
   12.6667    1.7336   23.7228 O   0  0  0  0  0  0  0  0  0  0  0  0
    4.1154   -5.3697   23.9823 Cl  0  0  0  0  0  0  0  0  0  0  0  0
   14.7806   -1.7228   21.6801 H   0  0  0  0  0  0  0  0  0  0  0  0
   13.4856   -3.3851   22.9733 H   0  0  0  0  0  0  0  0  0  0  0  0
   14.3988    0.6981   22.0277 H   0  0  0  0  0  0  0  0  0  0  0  0
   11.4068   -0.1959   24.9845 H   0  0  0  0  0  0  0  0  0  0  0  0
   10.9911    0.8314   21.8584 H   0  0  0  0  0  0  0  0  0  0  0  0
   11.7692    2.3115   21.3484 H   0  0  0  0  0  0  0  0  0  0  0  0
    9.4281    2.3134   20.5792 H   0  0  0  0  0  0  0  0  0  0  0  0
    8.8427    1.9869   22.1939 H   0  0  0  0  0  0  0  0  0  0  0  0
   12.1113    4.2242   23.1854 H   0  0  0  0  0  0  0  0  0  0  0  0
   11.5254    3.9104   24.8062 H   0  0  0  0  0  0  0  0  0  0  0  0
    7.8171   -2.5953   22.1535 H   0  0  0  0  0  0  0  0  0  0  0  0
    9.0509   -3.7726   21.7029 H   0  0  0  0  0  0  0  0  0  0  0  0
    9.2892   -5.8764   23.1306 H   0  0  0  0  0  0  0  0  0  0  0  0
    8.2273   -6.0828   24.5176 H   0  0  0  0  0  0  0  0  0  0  0  0
   10.1323   -1.8651   22.8494 H   0  0  0  0  0  0  0  0  0  0  0  0
    9.0477   -2.0428   24.2639 H   0  0  0  0  0  0  0  0  0  0  0  0
    9.2864   -4.1400   25.6859 H   0  0  0  0  0  0  0  0  0  0  0  0
   10.5268   -5.3389   25.2042 H   0  0  0  0  0  0  0  0  0  0  0  0
    9.1666    3.9618   24.0547 H   0  0  0  0  0  0  0  0  0  0  0  0
   10.6635    1.6998   24.1370 H   0  0  0  0  0  0  0  0  0  0  0  0
   10.2596    4.5248   21.2282 H   0  0  0  0  0  0  0  0  0  0  0  0
   10.8835    8.0679   24.7185 H   0  0  0  0  0  0  0  0  0  0  0  0
    9.1581    8.2202   24.3481 H   0  0  0  0  0  0  0  0  0  0  0  0
    9.6976    8.1108   26.0336 H   0  0  0  0  0  0  0  0  0  0  0  0
   12.2217   -3.6983   25.2350 H   0  0  0  0  0  0  0  0  0  0  0  0
   11.0766   -2.4342   25.7054 H   0  0  0  0  0  0  0  0  0  0  0  0
    6.1706   -5.4732   25.1435 H   0  0  0  0  0  0  0  0  0  0  0  0
    6.1644   -6.5049   23.6712 H   0  0  0  0  0  0  0  0  0  0  0  0
    8.7855    5.8861   25.2484 H   0  0  0  0  0  0  0  0  0  0  0  0
   10.5408    5.7520   25.5696 H   0  0  0  0  0  0  0  0  0  0  0  0
   10.9769   -4.0491   23.2603 H   0  0  0  0  0  0  0  0  0  0  0  0
   10.9126    6.1347   23.2283 H   0  0  0  0  0  0  0  0  0  0  0  0
    9.2987    6.2268   22.9426 H   0  0  0  0  0  0  0  0  0  0  0  0
  1 23  3  0  0  0  0
  1 28  1  0  0  0  0
  2  3  1  0  0  0  0
  2  4  2  0  0  0  0
  3  6  2  0  0  0  0
  4  7  1  0  0  0  0
  5  6  1  0  0  0  0
  5  7  2  0  0  0  0
  6 20  1  0  0  0  0
  7 29  1  0  0  0  0
  8 21  1  0  0  0  0
  8 24  1  0  0  0  0
  8 27  2  0  0  0  0
  9 10  1  0  0  0  0
  9 17  1  0  0  0  0
 10 18  1  0  0  0  0
 11 16  1  0  0  0  0
 11 17  1  0  0  0  0
 12 14  1  0  0  0  0
 12 24  1  0  0  0  0
 13 15  1  0  0  0  0
 13 24  1  0  0  0  0
 14 25  1  0  0  0  0
 15 25  1  0  0  0  0
 16 18  1  0  0  0  0
 16 26  1  0  0  0  0
 17 29  1  0  0  0  0
 18 28  1  0  0  0  0
 19 22  1  0  0  0  0
 20 25  1  0  0  0  0
 21 30  1  0  0  0  0
 22 26  1  0  0  0  0
  2 31  1  0  0  0  0
  3 32  1  0  0  0  0
  4 33  1  0  0  0  0
  5 34  1  0  0  0  0
  9 35  1  0  0  0  0
  9 36  1  0  0  0  0
 10 37  1  0  0  0  0
 10 38  1  0  0  0  0
 11 39  1  0  0  0  0
 11 40  1  0  0  0  0
 12 41  1  0  0  0  0
 12 42  1  0  0  0  0
 13 43  1  0  0  0  0
 13 44  1  0  0  0  0
 14 45  1  0  0  0  0
 14 46  1  0  0  0  0
 15 47  1  0  0  0  0
 15 48  1  0  0  0  0
 16 49  1  0  0  0  0
 17 50  1  0  0  0  0
 18 51  1  0  0  0  0
 19 52  1  0  0  0  0
 19 53  1  0  0  0  0
 19 54  1  0  0  0  0
 20 55  1  0  0  0  0
 20 56  1  0  0  0  0
 21 57  1  0  0  0  0
 21 58  1  0  0  0  0
 22 59  1  0  0  0  0
 22 60  1  0  0  0  0
 25 61  1  0  0  0  0
 26 62  1  0  0  0  0
 26 63  1  0  0  0  0
M  CHG  2  25   1  26   1
M  END
> <creator>
Maksym Voznyy

> <fragments>
x0161

> <real_space>
FALSE

> <SCR>
FALSE

> <BB>
FALSE

> <link>
https://covid.postera.ai/covid/submissions/af83ef51-35cf-489e-b3bd-9012d86d8275

> <covalent_frag>
TRUE

> <covalent_warhead>
TRUE

> <acrylamide>
FALSE

> <acrylamide_adduct>
FALSE

> <chloroacetamide>
TRUE

> <chloroacetamide_adduct>
FALSE

> <vinylsulfonamide>
FALSE

> <vinylsulfonamide_adduct>
FALSE

> <in_molport_or_mcule>
FALSE

> <in_emolecules>
FALSE

> <Hybrid2>
-7.556659

> <Mpro-x0161_dock>
-7.556659

> <Mpro-x0072_dock>
-6.043078

> <Mpro-x0104_dock>
-5.849115

> <Mpro-x0195_dock>
-5.785156

> <Mpro-x0305_dock>
-4.265905

> <Mpro-x0387_dock>
-3.575886

> <Mpro-x0692_dock>
0.540218

> <site>
active-noncovalent

> <covalent_distance_min>
5.5810823

> <covalent_distance_mean>
7.086179

> <covalent_distance_stderr>
0.055947028

$$$$
PAU-WEI-c6d-1
  -OEChem-04062011563D

 55 57  0     1  0  0  0  0  0999 V2000
    7.7390    0.3235   20.6585 C   0  0  0  0  0  0  0  0  0  0  0  0
    9.0769   -0.0467   20.7943 C   0  0  0  0  0  0  0  0  0  0  0  0
    6.7301   -0.5330   21.0994 C   0  0  0  0  0  0  0  0  0  0  0  0
    9.4061   -1.2735   21.3708 C   0  0  0  0  0  0  0  0  0  0  0  0
    7.0593   -1.7597   21.6760 C   0  0  0  0  0  0  0  0  0  0  0  0
    8.3972   -2.1300   21.8117 C   0  0  0  0  0  0  0  0  0  0  0  0
    9.2492   -1.1047   25.2489 C   0  0  0  0  0  0  0  0  0  0  0  0
    6.2313   -5.5096   26.8710 C   0  0  0  0  0  0  0  0  0  0  0  0
   12.9578    0.2049   23.7483 C   0  0  0  0  0  0  0  0  0  0  0  0
   11.7308    1.1024   23.9013 C   0  0  0  0  0  0  0  0  0  0  0  0
   12.5606   -1.2705   23.7635 C   0  0  0  0  0  0  0  0  0  0  0  0
    9.1292   -3.1227   26.6435 C   0  0  0  0  0  0  0  0  0  0  0  0
   10.9171    0.7195   25.1344 C   0  0  0  0  0  0  0  0  0  0  0  0
   11.7298   -1.6093   24.9992 C   0  0  0  0  0  0  0  0  0  0  0  0
    8.4580   -4.4786   26.8036 C   0  0  0  0  0  0  0  0  0  0  0  0
    6.5725   -3.3151   25.6443 C   0  0  0  0  0  0  0  0  0  0  0  0
    8.9846   -2.5816   25.2184 C   0  0  1  0  0  0  0  0  0  0  0  0
    7.5974   -2.8557   24.5958 C   0  0  1  0  0  0  0  0  0  0  0  0
    8.7523   -3.4564   22.4349 C   0  0  0  0  0  0  0  0  0  0  0  0
    4.7788   -5.4531   26.4698 C   0  0  0  0  0  0  0  0  0  0  0  0
    7.7040   -3.8809   23.4594 C   0  0  0  0  0  0  0  0  0  0  0  0
   10.5787   -0.7053   25.1168 N   0  0  0  0  0  0  0  0  0  0  0  0
    7.0419   -4.4592   26.4365 N   0  0  0  0  0  0  0  0  0  0  0  0
    8.3023   -0.3255   25.3843 O   0  0  0  0  0  0  0  0  0  0  0  0
    6.6386   -6.4570   27.5485 O   0  0  0  0  0  0  0  0  0  0  0  0
    4.6554   -6.2596   24.9103 Cl  0  0  0  0  0  0  0  0  0  0  0  0
    7.4829    1.2793   20.2108 H   0  0  0  0  0  0  0  0  0  0  0  0
    9.8626    0.6205   20.4520 H   0  0  0  0  0  0  0  0  0  0  0  0
    5.6884   -0.2446   20.9949 H   0  0  0  0  0  0  0  0  0  0  0  0
   10.4512   -1.5537   21.4723 H   0  0  0  0  0  0  0  0  0  0  0  0
    6.2666   -2.4206   22.0165 H   0  0  0  0  0  0  0  0  0  0  0  0
   13.4779    0.4414   22.8134 H   0  0  0  0  0  0  0  0  0  0  0  0
   13.6604    0.4031   24.5669 H   0  0  0  0  0  0  0  0  0  0  0  0
   12.0478    2.1484   23.9781 H   0  0  0  0  0  0  0  0  0  0  0  0
   11.1011    1.0217   23.0067 H   0  0  0  0  0  0  0  0  0  0  0  0
   11.9855   -1.5071   22.8595 H   0  0  0  0  0  0  0  0  0  0  0  0
   13.4621   -1.8930   23.7427 H   0  0  0  0  0  0  0  0  0  0  0  0
    8.6946   -2.4154   27.3633 H   0  0  0  0  0  0  0  0  0  0  0  0
   10.1925   -3.2072   26.9025 H   0  0  0  0  0  0  0  0  0  0  0  0
   11.4941    0.9068   26.0478 H   0  0  0  0  0  0  0  0  0  0  0  0
   10.0136    1.3352   25.1866 H   0  0  0  0  0  0  0  0  0  0  0  0
   11.4261   -2.6565   24.9545 H   0  0  0  0  0  0  0  0  0  0  0  0
   12.3307   -1.4854   25.9081 H   0  0  0  0  0  0  0  0  0  0  0  0
    8.9494   -5.2266   26.1524 H   0  0  0  0  0  0  0  0  0  0  0  0
    8.6096   -4.8382   27.8349 H   0  0  0  0  0  0  0  0  0  0  0  0
    6.3122   -2.4745   26.3066 H   0  0  0  0  0  0  0  0  0  0  0  0
    5.6327   -3.6289   25.1595 H   0  0  0  0  0  0  0  0  0  0  0  0
    9.7672   -3.0344   24.5813 H   0  0  0  0  0  0  0  0  0  0  0  0
    7.2260   -1.9135   24.1414 H   0  0  0  0  0  0  0  0  0  0  0  0
    8.8440   -4.2208   21.6524 H   0  0  0  0  0  0  0  0  0  0  0  0
    9.7385   -3.3897   22.9123 H   0  0  0  0  0  0  0  0  0  0  0  0
    4.4801   -4.4152   26.3768 H   0  0  0  0  0  0  0  0  0  0  0  0
    4.1891   -5.9814   27.2100 H   0  0  0  0  0  0  0  0  0  0  0  0
    6.7227   -3.9805   22.9881 H   0  0  0  0  0  0  0  0  0  0  0  0
    7.9577   -4.8527   23.8907 H   0  0  0  0  0  0  0  0  0  0  0  0
  1  2  1  0  0  0  0
  1  3  2  0  0  0  0
  2  4  2  0  0  0  0
  3  5  1  0  0  0  0
  4  6  1  0  0  0  0
  5  6  2  0  0  0  0
  6 19  1  0  0  0  0
  7 17  1  0  0  0  0
  7 22  1  0  0  0  0
  7 24  2  0  0  0  0
  8 20  1  0  0  0  0
  8 23  1  0  0  0  0
  8 25  2  0  0  0  0
  9 10  1  0  0  0  0
  9 11  1  0  0  0  0
 10 13  1  0  0  0  0
 11 14  1  0  0  0  0
 12 15  1  0  0  0  0
 12 17  1  0  0  0  0
 13 22  1  0  0  0  0
 14 22  1  0  0  0  0
 15 23  1  0  0  0  0
 16 18  1  0  0  0  0
 16 23  1  0  0  0  0
 17 18  1  0  0  0  0
 18 21  1  0  0  0  0
 19 21  1  0  0  0  0
 20 26  1  0  0  0  0
  1 27  1  0  0  0  0
  2 28  1  0  0  0  0
  3 29  1  0  0  0  0
  4 30  1  0  0  0  0
  5 31  1  0  0  0  0
  9 32  1  0  0  0  0
  9 33  1  0  0  0  0
 10 34  1  0  0  0  0
 10 35  1  0  0  0  0
 11 36  1  0  0  0  0
 11 37  1  0  0  0  0
 12 38  1  0  0  0  0
 12 39  1  0  0  0  0
 13 40  1  0  0  0  0
 13 41  1  0  0  0  0
 14 42  1  0  0  0  0
 14 43  1  0  0  0  0
 15 44  1  0  0  0  0
 15 45  1  0  0  0  0
 16 46  1  0  0  0  0
 16 47  1  0  0  0  0
 17 48  1  0  0  0  0
 18 49  1  0  0  0  0
 19 50  1  0  0  0  0
 19 51  1  0  0  0  0
 20 52  1  0  0  0  0
 20 53  1  0  0  0  0
 21 54  1  0  0  0  0
 21 55  1  0  0  0  0
M  END
> <creator>
Paul Gehrtz, Weizmann Institute of Science

> <fragments>
x0072

> <real_space>
FALSE

> <SCR>
FALSE

> <BB>
FALSE

> <link>
https://covid.postera.ai/covid/submissions/c6d65c11-5869-45d6-b685-d9786aded1de

> <covalent_frag>
TRUE

> <covalent_warhead>
TRUE

> <acrylamide>
FALSE

> <acrylamide_adduct>
FALSE

> <chloroacetamide>
TRUE

> <chloroacetamide_adduct>
FALSE

> <vinylsulfonamide>
FALSE

> <vinylsulfonamide_adduct>
FALSE

> <in_molport_or_mcule>
FALSE

> <in_emolecules>
FALSE

> <Hybrid2>
-7.551484

> <Mpro-x0072_dock>
-7.551484

> <Mpro-x0305_dock>
-3.451063

> <Mpro-x1380_dock>
-3.180478

> <site>
active-noncovalent

> <covalent_distance_min>
8.611591

> <covalent_distance_mean>
9.215273

> <covalent_distance_stderr>
0.07268703

$$$$
MAK-UNK-af8-27
  -OEChem-04062011563D

 59 61  0     0  0  0  0  0  0999 V2000
    8.0232   -1.6134   22.8683 C   0  0  0  0  0  0  0  0  0  0  0  0
    7.2719   -2.7602   23.1004 C   0  0  0  0  0  0  0  0  0  0  0  0
   11.2951    2.3456   23.8324 C   0  0  0  0  0  0  0  0  0  0  0  0
   13.1366    1.2770   22.7726 C   0  0  0  0  0  0  0  0  0  0  0  0
    9.7403   -2.5238   24.2392 C   0  0  0  0  0  0  0  0  0  0  0  0
   11.9404    1.1705   23.4635 C   0  0  0  0  0  0  0  0  0  0  0  0
   11.8578    3.5738   23.5038 C   0  0  0  0  0  0  0  0  0  0  0  0
    9.2820   -1.4852   23.4449 C   0  0  0  0  0  0  0  0  0  0  0  0
   13.0578    3.5727   22.8112 C   0  0  0  0  0  0  0  0  0  0  0  0
    7.8203   -3.7418   23.9100 C   0  0  0  0  0  0  0  0  0  0  0  0
    5.8748    5.9064   22.6437 C   0  0  0  0  0  0  0  0  0  0  0  0
    8.1885    6.7632   22.4594 C   0  0  0  0  0  0  0  0  0  0  0  0
    7.8170    4.3511   22.1175 C   0  0  0  0  0  0  0  0  0  0  0  0
    9.3321    6.4720   23.4200 C   0  0  0  0  0  0  0  0  0  0  0  0
    8.9571    4.0233   23.0722 C   0  0  0  0  0  0  0  0  0  0  0  0
   13.7091    4.8626   22.4322 C   0  0  0  0  0  0  0  0  0  0  0  0
    5.1557   -6.3909   23.9830 C   0  0  0  0  0  0  0  0  0  0  0  0
   11.3653   -0.1590   23.8007 C   0  0  0  0  0  0  0  0  0  0  0  0
   11.1658    4.8456   23.8972 C   0  0  0  0  0  0  0  0  0  0  0  0
    4.9551    4.7122   22.6026 C   0  0  0  0  0  0  0  0  0  0  0  0
    5.7445   -5.0844   23.5722 C   0  0  0  0  0  0  0  0  0  0  0  0
   13.7141    2.4520   22.4357 N   0  0  0  0  0  0  0  0  0  0  0  0
    9.0395   -3.6529   24.4875 N   0  0  0  0  0  0  0  0  0  0  0  0
    7.2303    5.6581   22.4322 N   0  0  0  0  0  0  0  0  0  0  0  0
   10.0537   -0.3532   23.2324 N   0  0  0  0  0  0  0  0  0  0  0  0
    7.0415   -4.9037   24.1380 N   0  0  0  0  0  0  0  0  0  0  0  0
    9.9652    5.1503   23.0462 N   0  3  0  0  0  0  0  0  0  0  0  0
    5.4013    7.0250   22.8599 O   0  0  0  0  0  0  0  0  0  0  0  0
    4.8938    4.0671   24.2390 Cl  0  0  0  0  0  0  0  0  0  0  0  0
    7.6193   -0.8264   22.2370 H   0  0  0  0  0  0  0  0  0  0  0  0
    6.2885   -2.8683   22.6550 H   0  0  0  0  0  0  0  0  0  0  0  0
   10.3544    2.3021   24.3758 H   0  0  0  0  0  0  0  0  0  0  0  0
   13.6854    0.3943   22.4580 H   0  0  0  0  0  0  0  0  0  0  0  0
   10.7148   -2.4816   24.7164 H   0  0  0  0  0  0  0  0  0  0  0  0
    7.6964    7.6969   22.7494 H   0  0  0  0  0  0  0  0  0  0  0  0
    8.5644    6.8983   21.4379 H   0  0  0  0  0  0  0  0  0  0  0  0
    8.1811    4.3985   21.0840 H   0  0  0  0  0  0  0  0  0  0  0  0
    7.0756    3.5514   22.1584 H   0  0  0  0  0  0  0  0  0  0  0  0
   10.1085    7.2397   23.3409 H   0  0  0  0  0  0  0  0  0  0  0  0
    8.9886    6.3993   24.4581 H   0  0  0  0  0  0  0  0  0  0  0  0
    8.6077    3.9079   24.1044 H   0  0  0  0  0  0  0  0  0  0  0  0
    9.4768    3.1136   22.7547 H   0  0  0  0  0  0  0  0  0  0  0  0
   14.3886    5.1924   23.2265 H   0  0  0  0  0  0  0  0  0  0  0  0
   14.2819    4.7589   21.5025 H   0  0  0  0  0  0  0  0  0  0  0  0
   12.9626    5.6480   22.2617 H   0  0  0  0  0  0  0  0  0  0  0  0
    5.0727   -6.4278   25.0793 H   0  0  0  0  0  0  0  0  0  0  0  0
    4.1565   -6.4994   23.5360 H   0  0  0  0  0  0  0  0  0  0  0  0
    5.8032   -7.2099   23.6367 H   0  0  0  0  0  0  0  0  0  0  0  0
   12.0046   -0.9763   23.4339 H   0  0  0  0  0  0  0  0  0  0  0  0
   11.2715   -0.2981   24.8880 H   0  0  0  0  0  0  0  0  0  0  0  0
   10.8136    4.8005   24.9334 H   0  0  0  0  0  0  0  0  0  0  0  0
   11.8391    5.7053   23.8107 H   0  0  0  0  0  0  0  0  0  0  0  0
    5.3691    3.9729   21.9264 H   0  0  0  0  0  0  0  0  0  0  0  0
    3.9687    5.0388   22.2938 H   0  0  0  0  0  0  0  0  0  0  0  0
    5.8241   -5.0554   22.4755 H   0  0  0  0  0  0  0  0  0  0  0  0
    5.0873   -4.2711   23.9138 H   0  0  0  0  0  0  0  0  0  0  0  0
    9.6732    0.3809   22.6446 H   0  0  0  0  0  0  0  0  0  0  0  0
    7.4452   -5.6052   24.7243 H   0  0  0  0  0  0  0  0  0  0  0  0
   10.3062    5.2349   22.0786 H   0  0  0  0  0  0  0  0  0  0  0  0
  1  2  2  0  0  0  0
  1  8  1  0  0  0  0
  2 10  1  0  0  0  0
  3  6  2  0  0  0  0
  3  7  1  0  0  0  0
  4  6  1  0  0  0  0
  4 22  2  0  0  0  0
  5  8  2  0  0  0  0
  5 23  1  0  0  0  0
  6 18  1  0  0  0  0
  7  9  2  0  0  0  0
  7 19  1  0  0  0  0
  8 25  1  0  0  0  0
  9 16  1  0  0  0  0
  9 22  1  0  0  0  0
 10 23  2  0  0  0  0
 10 26  1  0  0  0  0
 11 20  1  0  0  0  0
 11 24  1  0  0  0  0
 11 28  2  0  0  0  0
 12 14  1  0  0  0  0
 12 24  1  0  0  0  0
 13 15  1  0  0  0  0
 13 24  1  0  0  0  0
 14 27  1  0  0  0  0
 15 27  1  0  0  0  0
 17 21  1  0  0  0  0
 18 25  1  0  0  0  0
 19 27  1  0  0  0  0
 20 29  1  0  0  0  0
 21 26  1  0  0  0  0
  1 30  1  0  0  0  0
  2 31  1  0  0  0  0
  3 32  1  0  0  0  0
  4 33  1  0  0  0  0
  5 34  1  0  0  0  0
 12 35  1  0  0  0  0
 12 36  1  0  0  0  0
 13 37  1  0  0  0  0
 13 38  1  0  0  0  0
 14 39  1  0  0  0  0
 14 40  1  0  0  0  0
 15 41  1  0  0  0  0
 15 42  1  0  0  0  0
 16 43  1  0  0  0  0
 16 44  1  0  0  0  0
 16 45  1  0  0  0  0
 17 46  1  0  0  0  0
 17 47  1  0  0  0  0
 17 48  1  0  0  0  0
 18 49  1  0  0  0  0
 18 50  1  0  0  0  0
 19 51  1  0  0  0  0
 19 52  1  0  0  0  0
 20 53  1  0  0  0  0
 20 54  1  0  0  0  0
 21 55  1  0  0  0  0
 21 56  1  0  0  0  0
 25 57  1  0  0  0  0
 26 58  1  0  0  0  0
 27 59  1  0  0  0  0
M  CHG  1  27   1
M  END
> <creator>
Maksym Voznyy

> <fragments>
x0104

> <real_space>
FALSE

> <SCR>
FALSE

> <BB>
FALSE

> <link>
https://covid.postera.ai/covid/submissions/af83ef51-35cf-489e-b3bd-9012d86d8275

> <covalent_frag>
TRUE

> <covalent_warhead>
TRUE

> <acrylamide>
FALSE

> <acrylamide_adduct>
FALSE

> <chloroacetamide>
TRUE

> <chloroacetamide_adduct>
FALSE

> <vinylsulfonamide>
FALSE

> <vinylsulfonamide_adduct>
FALSE

> <in_molport_or_mcule>
FALSE

> <in_emolecules>
FALSE

> <Hybrid2>
-7.550834

> <Mpro-x0104_dock>
-7.550834

> <Mpro-x0161_dock>
-6.947416

> <Mpro-x0072_dock>
-5.060246

> <Mpro-x0692_dock>
-3.563692

> <Mpro-x0305_dock>
-2.123932

> <Mpro-x0195_dock>
-1.875492

> <Mpro-x0387_dock>
-1.489388

> <site>
active-noncovalent

> <covalent_distance_min>
13.155334

> <covalent_distance_mean>
13.655

> <covalent_distance_stderr>
0.043064833

$$$$
STU-CHA-7e7-1
  -OEChem-04062011563D

 53 55  0     1  0  0  0  0  0999 V2000
   14.3248    2.5835   21.7757 C   0  0  0  0  0  0  0  0  0  0  0  0
   13.8567    3.8624   22.0763 C   0  0  0  0  0  0  0  0  0  0  0  0
   12.2637    2.9150   23.6221 C   0  0  0  0  0  0  0  0  0  0  0  0
   13.7718    1.4571   22.4017 C   0  0  0  0  0  0  0  0  0  0  0  0
   12.7194    1.6246   23.3193 C   0  0  0  0  0  0  0  0  0  0  0  0
   12.8286    4.0281   23.0006 C   0  0  0  0  0  0  0  0  0  0  0  0
    6.8656   -3.8431   23.8052 C   0  0  0  0  0  0  0  0  0  0  0  0
   14.2760    0.0827   22.0321 C   0  0  0  0  0  0  0  0  0  0  0  0
   12.1170    0.4416   24.0263 C   0  0  0  0  0  0  0  0  0  0  0  0
    9.9731   -1.9923   24.1124 C   0  0  0  0  0  0  0  0  0  0  0  0
    9.0689   -1.8961   21.7624 C   0  0  0  0  0  0  0  0  0  0  0  0
    8.5419   -2.1183   24.6318 C   0  0  0  0  0  0  0  0  0  0  0  0
    7.6568   -2.0219   22.3295 C   0  0  0  0  0  0  0  0  0  0  0  0
   10.0176   -1.2373   22.7752 C   0  0  0  0  0  0  0  0  0  0  0  0
   13.8786   -1.0054   23.0361 C   0  0  2  0  0  0  0  0  0  0  0  0
   14.2280   -2.4082   22.5545 C   0  0  0  0  0  0  0  0  0  0  0  0
    5.5959   -3.9087   22.9944 C   0  0  0  0  0  0  0  0  0  0  0  0
   11.4424   -1.1825   22.2292 C   0  0  0  0  0  0  0  0  0  0  0  0
    7.6708   -2.7206   23.6157 N   0  0  0  0  0  0  0  0  0  0  0  0
   11.0105    5.8136   22.2185 N   0  0  0  0  0  0  0  0  0  0  0  0
   12.3974   -0.8958   23.3612 N   0  3  2  0  0  0  0  0  0  0  0  0
    7.1309   -4.7618   24.5847 O   0  0  0  0  0  0  0  0  0  0  0  0
   11.6449    5.5963   24.7076 O   0  0  0  0  0  0  0  0  0  0  0  0
   13.3068    6.5869   23.0937 O   0  0  0  0  0  0  0  0  0  0  0  0
   12.2478    5.6298   23.3825 S   0  0  0  0  0  0  0  0  0  0  0  0
    6.0074   -4.6998   21.4769 Cl  0  0  0  0  0  0  0  0  0  0  0  0
   15.1251    2.4688   21.0488 H   0  0  0  0  0  0  0  0  0  0  0  0
   14.3028    4.7223   21.5841 H   0  0  0  0  0  0  0  0  0  0  0  0
   11.4639    3.0470   24.3471 H   0  0  0  0  0  0  0  0  0  0  0  0
   13.9073   -0.1908   21.0389 H   0  0  0  0  0  0  0  0  0  0  0  0
   15.3681    0.1363   21.9727 H   0  0  0  0  0  0  0  0  0  0  0  0
   12.5231    0.3610   25.0413 H   0  0  0  0  0  0  0  0  0  0  0  0
   11.0279    0.5544   24.0808 H   0  0  0  0  0  0  0  0  0  0  0  0
   10.5828   -1.4657   24.8562 H   0  0  0  0  0  0  0  0  0  0  0  0
   10.4063   -2.9941   23.9959 H   0  0  0  0  0  0  0  0  0  0  0  0
    9.4404   -2.8921   21.4889 H   0  0  0  0  0  0  0  0  0  0  0  0
    9.0380   -1.3030   20.8405 H   0  0  0  0  0  0  0  0  0  0  0  0
    8.5439   -2.6900   25.5614 H   0  0  0  0  0  0  0  0  0  0  0  0
    8.1317   -1.1279   24.8628 H   0  0  0  0  0  0  0  0  0  0  0  0
    7.2217   -1.0301   22.5002 H   0  0  0  0  0  0  0  0  0  0  0  0
    7.0155   -2.5404   21.6101 H   0  0  0  0  0  0  0  0  0  0  0  0
    9.6850   -0.2058   22.9453 H   0  0  0  0  0  0  0  0  0  0  0  0
   14.4136   -0.8253   23.9828 H   0  0  0  0  0  0  0  0  0  0  0  0
   13.7126   -2.6149   21.6185 H   0  0  0  0  0  0  0  0  0  0  0  0
   13.9225   -3.1398   23.3001 H   0  0  0  0  0  0  0  0  0  0  0  0
   15.3020   -2.4858   22.3962 H   0  0  0  0  0  0  0  0  0  0  0  0
    5.2470   -2.8998   22.8055 H   0  0  0  0  0  0  0  0  0  0  0  0
    4.8638   -4.4977   23.5349 H   0  0  0  0  0  0  0  0  0  0  0  0
   11.5639   -0.3808   21.4956 H   0  0  0  0  0  0  0  0  0  0  0  0
   11.7436   -2.1369   21.7887 H   0  0  0  0  0  0  0  0  0  0  0  0
   10.0361    5.7897   22.5430 H   0  0  0  0  0  0  0  0  0  0  0  0
   11.1732    6.4649   21.4408 H   0  0  0  0  0  0  0  0  0  0  0  0
   12.2175   -1.5987   24.0742 H   0  0  0  0  0  0  0  0  0  0  0  0
  1  2  2  0  0  0  0
  1  4  1  0  0  0  0
  2  6  1  0  0  0  0
  3  5  1  0  0  0  0
  3  6  2  0  0  0  0
  4  5  2  0  0  0  0
  4  8  1  0  0  0  0
  5  9  1  0  0  0  0
  6 25  1  0  0  0  0
  7 17  1  0  0  0  0
  7 19  1  0  0  0  0
  7 22  2  0  0  0  0
  8 15  1  0  0  0  0
  9 21  1  0  0  0  0
 10 12  1  0  0  0  0
 10 14  1  0  0  0  0
 11 13  1  0  0  0  0
 11 14  1  0  0  0  0
 12 19  1  0  0  0  0
 13 19  1  0  0  0  0
 14 18  1  0  0  0  0
 15 16  1  0  0  0  0
 15 21  1  0  0  0  0
 17 26  1  0  0  0  0
 18 21  1  0  0  0  0
 20 25  1  0  0  0  0
 23 25  2  0  0  0  0
 24 25  2  0  0  0  0
  1 27  1  0  0  0  0
  2 28  1  0  0  0  0
  3 29  1  0  0  0  0
  8 30  1  0  0  0  0
  8 31  1  0  0  0  0
  9 32  1  0  0  0  0
  9 33  1  0  0  0  0
 10 34  1  0  0  0  0
 10 35  1  0  0  0  0
 11 36  1  0  0  0  0
 11 37  1  0  0  0  0
 12 38  1  0  0  0  0
 12 39  1  0  0  0  0
 13 40  1  0  0  0  0
 13 41  1  0  0  0  0
 14 42  1  0  0  0  0
 15 43  1  0  0  0  0
 16 44  1  0  0  0  0
 16 45  1  0  0  0  0
 16 46  1  0  0  0  0
 17 47  1  0  0  0  0
 17 48  1  0  0  0  0
 18 49  1  0  0  0  0
 18 50  1  0  0  0  0
 20 51  1  0  0  0  0
 20 52  1  0  0  0  0
 21 53  1  0  0  0  0
M  CHG  1  21   1
M  END
> <creator>
Stuart Ward, Charles River Laboratories

> <fragments>
x0195

> <real_space>
FALSE

> <SCR>
FALSE

> <BB>
FALSE

> <link>
https://covid.postera.ai/covid/submissions/7e77017b-a521-42fe-bec8-f27e4097f6d0

> <covalent_frag>
TRUE

> <covalent_warhead>
TRUE

> <acrylamide>
FALSE

> <acrylamide_adduct>
FALSE

> <chloroacetamide>
TRUE

> <chloroacetamide_adduct>
FALSE

> <vinylsulfonamide>
FALSE

> <vinylsulfonamide_adduct>
FALSE

> <in_molport_or_mcule>
FALSE

> <in_emolecules>
FALSE

> <Hybrid2>
-7.504455

> <Mpro-x0195_dock>
-7.504455

> <Mpro-x0770_dock>
0.393317

> <site>
active-noncovalent

> <covalent_distance_min>
4.2211776

> <covalent_distance_mean>
4.9904447

> <covalent_distance_stderr>
0.0614168

$$$$
DUN-NEW-f8c-2
  -OEChem-04062011563D

 51 53  0     1  0  0  0  0  0999 V2000
    7.3400   -0.8581   20.6475 C   0  0  0  0  0  0  0  0  0  0  0  0
    8.2921    0.1318   20.4044 C   0  0  0  0  0  0  0  0  0  0  0  0
    7.5534   -1.7985   21.6555 C   0  0  0  0  0  0  0  0  0  0  0  0
    9.4577    0.1813   21.1690 C   0  0  0  0  0  0  0  0  0  0  0  0
    8.7189   -1.7490   22.4201 C   0  0  0  0  0  0  0  0  0  0  0  0
    9.6711   -0.7591   22.1769 C   0  0  0  0  0  0  0  0  0  0  0  0
   10.3866   -0.3996   25.2860 C   0  0  0  0  0  0  0  0  0  0  0  0
    6.3560   -5.8071   26.6948 C   0  0  0  0  0  0  0  0  0  0  0  0
   13.0075   -1.1323   23.7263 C   0  0  0  0  0  0  0  0  0  0  0  0
   12.5566    0.2240   24.2477 C   0  0  0  0  0  0  0  0  0  0  0  0
   12.0639   -1.3922   22.5557 C   0  0  0  0  0  0  0  0  0  0  0  0
    8.4177   -4.6199   26.0197 C   0  0  0  0  0  0  0  0  0  0  0  0
    6.4201   -4.3846   24.5886 C   0  0  0  0  0  0  0  0  0  0  0  0
    8.6427   -3.1154   25.9856 C   0  0  0  0  0  0  0  0  0  0  0  0
    6.6196   -2.8759   24.5327 C   0  0  0  0  0  0  0  0  0  0  0  0
   11.0366    0.1886   24.0724 C   0  0  1  0  0  0  0  0  0  0  0  0
    8.9223   -2.7731   23.4976 C   0  0  0  0  0  0  0  0  0  0  0  0
    4.8767   -5.5852   26.8848 C   0  0  0  0  0  0  0  0  0  0  0  0
   10.8312   -0.6950   22.9245 N   0  0  3  0  0  0  0  0  0  0  0  0
    7.0080   -4.9505   25.8079 N   0  0  0  0  0  0  0  0  0  0  0  0
    9.1096    0.0587   25.5082 N   0  0  0  0  0  0  0  0  0  0  0  0
    8.0770   -2.5222   24.7162 N   0  3  0  0  0  0  0  0  0  0  0  0
   10.9546   -1.2273   25.9944 O   0  0  0  0  0  0  0  0  0  0  0  0
    6.9141   -6.7134   27.3188 O   0  0  0  0  0  0  0  0  0  0  0  0
    4.6903   -3.9593   27.5326 Cl  0  0  0  0  0  0  0  0  0  0  0  0
    6.4325   -0.8966   20.0521 H   0  0  0  0  0  0  0  0  0  0  0  0
    8.1259    0.8639   19.6196 H   0  0  0  0  0  0  0  0  0  0  0  0
    6.8053   -2.5657   21.8370 H   0  0  0  0  0  0  0  0  0  0  0  0
   10.1926    0.9573   20.9703 H   0  0  0  0  0  0  0  0  0  0  0  0
   14.0578   -1.1296   23.4207 H   0  0  0  0  0  0  0  0  0  0  0  0
   12.8760   -1.9008   24.4969 H   0  0  0  0  0  0  0  0  0  0  0  0
   12.8705    0.3802   25.2844 H   0  0  0  0  0  0  0  0  0  0  0  0
   12.9866    1.0207   23.6288 H   0  0  0  0  0  0  0  0  0  0  0  0
   12.4851   -0.9722   21.6303 H   0  0  0  0  0  0  0  0  0  0  0  0
   11.8869   -2.4647   22.4004 H   0  0  0  0  0  0  0  0  0  0  0  0
    9.0469   -5.1007   25.2630 H   0  0  0  0  0  0  0  0  0  0  0  0
    8.7100   -5.0343   26.9932 H   0  0  0  0  0  0  0  0  0  0  0  0
    5.3508   -4.6321   24.5985 H   0  0  0  0  0  0  0  0  0  0  0  0
    6.8415   -4.8343   23.6869 H   0  0  0  0  0  0  0  0  0  0  0  0
    8.1296   -2.6289   26.8299 H   0  0  0  0  0  0  0  0  0  0  0  0
    9.7145   -2.8596   26.0277 H   0  0  0  0  0  0  0  0  0  0  0  0
    6.2902   -2.4547   23.5683 H   0  0  0  0  0  0  0  0  0  0  0  0
    6.0599   -2.3829   25.3431 H   0  0  0  0  0  0  0  0  0  0  0  0
   10.6449    1.2060   23.9276 H   0  0  0  0  0  0  0  0  0  0  0  0
    8.6704   -3.7778   23.1415 H   0  0  0  0  0  0  0  0  0  0  0  0
    9.9641   -2.7902   23.8354 H   0  0  0  0  0  0  0  0  0  0  0  0
    4.5001   -6.3137   27.5938 H   0  0  0  0  0  0  0  0  0  0  0  0
    4.3835   -5.6615   25.9225 H   0  0  0  0  0  0  0  0  0  0  0  0
    8.5993   -0.2920   26.3122 H   0  0  0  0  0  0  0  0  0  0  0  0
    8.6568    0.7337   24.9005 H   0  0  0  0  0  0  0  0  0  0  0  0
    8.0991   -1.4712   24.8576 H   0  0  0  0  0  0  0  0  0  0  0  0
  1  2  1  0  0  0  0
  1  3  2  0  0  0  0
  2  4  2  0  0  0  0
  3  5  1  0  0  0  0
  4  6  1  0  0  0  0
  5  6  2  0  0  0  0
  5 17  1  0  0  0  0
  6 19  1  0  0  0  0
  7 16  1  0  0  0  0
  7 21  1  0  0  0  0
  7 23  2  0  0  0  0
  8 18  1  0  0  0  0
  8 20  1  0  0  0  0
  8 24  2  0  0  0  0
  9 10  1  0  0  0  0
  9 11  1  0  0  0  0
 10 16  1  0  0  0  0
 11 19  1  0  0  0  0
 12 14  1  0  0  0  0
 12 20  1  0  0  0  0
 13 15  1  0  0  0  0
 13 20  1  0  0  0  0
 14 22  1  0  0  0  0
 15 22  1  0  0  0  0
 16 19  1  0  0  0  0
 17 22  1  0  0  0  0
 18 25  1  0  0  0  0
  1 26  1  0  0  0  0
  2 27  1  0  0  0  0
  3 28  1  0  0  0  0
  4 29  1  0  0  0  0
  9 30  1  0  0  0  0
  9 31  1  0  0  0  0
 10 32  1  0  0  0  0
 10 33  1  0  0  0  0
 11 34  1  0  0  0  0
 11 35  1  0  0  0  0
 12 36  1  0  0  0  0
 12 37  1  0  0  0  0
 13 38  1  0  0  0  0
 13 39  1  0  0  0  0
 14 40  1  0  0  0  0
 14 41  1  0  0  0  0
 15 42  1  0  0  0  0
 15 43  1  0  0  0  0
 16 44  1  0  0  0  0
 17 45  1  0  0  0  0
 17 46  1  0  0  0  0
 18 47  1  0  0  0  0
 18 48  1  0  0  0  0
 21 49  1  0  0  0  0
 21 50  1  0  0  0  0
 22 51  1  0  0  0  0
M  CHG  1  22   1
M  END
> <creator>
Duncan Miller, Newcastle University

> <fragments>
x0072

> <real_space>
FALSE

> <SCR>
FALSE

> <BB>
FALSE

> <link>
https://covid.postera.ai/covid/submissions/f8ce3686-4774-4f4e-b96a-ab98611b1edd

> <covalent_frag>
TRUE

> <covalent_warhead>
TRUE

> <acrylamide>
FALSE

> <acrylamide_adduct>
FALSE

> <chloroacetamide>
TRUE

> <chloroacetamide_adduct>
FALSE

> <vinylsulfonamide>
FALSE

> <vinylsulfonamide_adduct>
FALSE

> <in_molport_or_mcule>
FALSE

> <in_emolecules>
FALSE

> <Hybrid2>
-7.494275

> <Mpro-x0072_dock>
-7.494275

> <Mpro-x1458_dock>
-3.052801

> <site>
active-noncovalent

> <covalent_distance_min>
9.1521015

> <covalent_distance_mean>
10.053598

> <covalent_distance_stderr>
0.053401515

$$$$
DAR-DIA-fb2-9
  -OEChem-04062011563D

 46 48  0     0  0  0  0  0  0999 V2000
   13.7262   -0.8465   22.2409 C   0  0  0  0  0  0  0  0  0  0  0  0
   13.6105    0.4512   22.7400 C   0  0  0  0  0  0  0  0  0  0  0  0
   10.4067    0.2286   24.6017 C   0  0  0  0  0  0  0  0  0  0  0  0
   12.7437   -1.7913   22.5218 C   0  0  0  0  0  0  0  0  0  0  0  0
   10.2911    1.5262   25.1009 C   0  0  0  0  0  0  0  0  0  0  0  0
   12.3756    2.1218   24.0388 C   0  0  0  0  0  0  0  0  0  0  0  0
   12.5082    0.8203   23.5280 C   0  0  0  0  0  0  0  0  0  0  0  0
   11.5091   -0.1405   23.8137 C   0  0  0  0  0  0  0  0  0  0  0  0
   11.6418   -1.4420   23.3031 C   0  0  0  0  0  0  0  0  0  0  0  0
   11.2737    2.4710   24.8199 C   0  0  0  0  0  0  0  0  0  0  0  0
    6.2133   -2.4985   20.2078 C   0  0  0  0  0  0  0  0  0  0  0  0
    6.9640   -2.9190   22.5275 C   0  0  0  0  0  0  0  0  0  0  0  0
    7.9126   -0.9806   21.3376 C   0  0  0  0  0  0  0  0  0  0  0  0
    8.3553   -3.3646   22.9532 C   0  0  0  0  0  0  0  0  0  0  0  0
    9.3190   -1.3963   21.7472 C   0  0  0  0  0  0  0  0  0  0  0  0
   10.6194   -2.5081   23.5661 C   0  0  0  0  0  0  0  0  0  0  0  0
    6.3308   -1.6469   18.9690 C   0  0  0  0  0  0  0  0  0  0  0  0
    7.0169   -2.1412   21.2896 N   0  0  0  0  0  0  0  0  0  0  0  0
   11.9331    3.9412   26.9432 N   0  0  0  0  0  0  0  0  0  0  0  0
    9.2516   -2.1508   23.0562 N   0  3  0  0  0  0  0  0  0  0  0  0
    5.4323   -3.4536   20.2111 O   0  0  0  0  0  0  0  0  0  0  0  0
   11.8936    4.9880   24.5877 O   0  0  0  0  0  0  0  0  0  0  0  0
    9.7186    4.3673   25.6977 O   0  0  0  0  0  0  0  0  0  0  0  0
   11.1266    4.0949   25.4448 S   0  0  0  0  0  0  0  0  0  0  0  0
    5.1217   -0.3763   19.1146 Cl  0  0  0  0  0  0  0  0  0  0  0  0
   14.5836   -1.1188   21.6323 H   0  0  0  0  0  0  0  0  0  0  0  0
   14.3909    1.1732   22.5077 H   0  0  0  0  0  0  0  0  0  0  0  0
    9.6183   -0.4810   24.8422 H   0  0  0  0  0  0  0  0  0  0  0  0
   12.8441   -2.7987   22.1260 H   0  0  0  0  0  0  0  0  0  0  0  0
    9.4294    1.7886   25.7089 H   0  0  0  0  0  0  0  0  0  0  0  0
   13.1369    2.8700   23.8252 H   0  0  0  0  0  0  0  0  0  0  0  0
    6.3201   -3.7959   22.4078 H   0  0  0  0  0  0  0  0  0  0  0  0
    6.5076   -2.2837   23.2963 H   0  0  0  0  0  0  0  0  0  0  0  0
    7.4919   -0.2751   22.0644 H   0  0  0  0  0  0  0  0  0  0  0  0
    7.9584   -0.4616   20.3786 H   0  0  0  0  0  0  0  0  0  0  0  0
    8.3255   -3.8331   23.9422 H   0  0  0  0  0  0  0  0  0  0  0  0
    8.8049   -4.0550   22.2306 H   0  0  0  0  0  0  0  0  0  0  0  0
    9.7859   -2.0523   21.0041 H   0  0  0  0  0  0  0  0  0  0  0  0
    9.9494   -0.5161   21.9103 H   0  0  0  0  0  0  0  0  0  0  0  0
   10.8981   -3.4514   23.0844 H   0  0  0  0  0  0  0  0  0  0  0  0
   10.5148   -2.6996   24.6395 H   0  0  0  0  0  0  0  0  0  0  0  0
    6.1231   -2.2605   18.0997 H   0  0  0  0  0  0  0  0  0  0  0  0
    7.3238   -1.2138   18.9333 H   0  0  0  0  0  0  0  0  0  0  0  0
   11.4681    3.4085   27.6884 H   0  0  0  0  0  0  0  0  0  0  0  0
   12.9547    3.8342   26.9320 H   0  0  0  0  0  0  0  0  0  0  0  0
    8.8350   -1.5186   23.7537 H   0  0  0  0  0  0  0  0  0  0  0  0
  1  2  2  0  0  0  0
  1  4  1  0  0  0  0
  2  7  1  0  0  0  0
  3  5  2  0  0  0  0
  3  8  1  0  0  0  0
  4  9  2  0  0  0  0
  5 10  1  0  0  0  0
  6  7  1  0  0  0  0
  6 10  2  0  0  0  0
  7  8  2  0  0  0  0
  8  9  1  0  0  0  0
  9 16  1  0  0  0  0
 10 24  1  0  0  0  0
 11 17  1  0  0  0  0
 11 18  1  0  0  0  0
 11 21  2  0  0  0  0
 12 14  1  0  0  0  0
 12 18  1  0  0  0  0
 13 15  1  0  0  0  0
 13 18  1  0  0  0  0
 14 20  1  0  0  0  0
 15 20  1  0  0  0  0
 16 20  1  0  0  0  0
 17 25  1  0  0  0  0
 19 24  1  0  0  0  0
 22 24  2  0  0  0  0
 23 24  2  0  0  0  0
  1 26  1  0  0  0  0
  2 27  1  0  0  0  0
  3 28  1  0  0  0  0
  4 29  1  0  0  0  0
  5 30  1  0  0  0  0
  6 31  1  0  0  0  0
 12 32  1  0  0  0  0
 12 33  1  0  0  0  0
 13 34  1  0  0  0  0
 13 35  1  0  0  0  0
 14 36  1  0  0  0  0
 14 37  1  0  0  0  0
 15 38  1  0  0  0  0
 15 39  1  0  0  0  0
 16 40  1  0  0  0  0
 16 41  1  0  0  0  0
 17 42  1  0  0  0  0
 17 43  1  0  0  0  0
 19 44  1  0  0  0  0
 19 45  1  0  0  0  0
 20 46  1  0  0  0  0
M  CHG  1  20   1
M  END
> <creator>
Daren Fearon, Diamond Light Source Ltd

> <fragments>
x0830

> <real_space>
FALSE

> <SCR>
FALSE

> <BB>
FALSE

> <link>
https://covid.postera.ai/covid/submissions/fb20be43-b2ad-4a19-a5ce-eb2fe8d462e2

> <covalent_frag>
TRUE

> <covalent_warhead>
TRUE

> <acrylamide>
FALSE

> <acrylamide_adduct>
FALSE

> <chloroacetamide>
TRUE

> <chloroacetamide_adduct>
FALSE

> <vinylsulfonamide>
FALSE

> <vinylsulfonamide_adduct>
FALSE

> <in_molport_or_mcule>
FALSE

> <in_emolecules>
FALSE

> <Hybrid2>
-7.490153

> <Mpro-x0830_dock>
-7.490153

> <Mpro-x0195_dock>
-7.084243

> <Mpro-x0104_dock>
-6.003057

> <Mpro-x0305_dock>
-4.856644

> <site>
active-covalent

> <covalent_distance_min>
4.0716977

> <covalent_distance_mean>
4.9602423

> <covalent_distance_stderr>
0.038857702

$$$$
MAK-UNK-72b-1
  -OEChem-04062011563D

 65 68  0     0  0  0  0  0  0999 V2000
    8.5329    6.1881   22.1952 C   0  0  0  0  0  0  0  0  0  0  0  0
    8.4284    4.9556   24.2706 C   0  0  0  0  0  0  0  0  0  0  0  0
    7.2133    5.8317   21.9171 C   0  0  0  0  0  0  0  0  0  0  0  0
    7.1088    4.5994   23.9926 C   0  0  0  0  0  0  0  0  0  0  0  0
    9.7704   -0.0349   22.6065 C   0  0  0  0  0  0  0  0  0  0  0  0
    8.9409    0.5109   23.5904 C   0  0  0  0  0  0  0  0  0  0  0  0
   10.7711    1.8359   24.4801 C   0  0  0  0  0  0  0  0  0  0  0  0
   13.2849    0.6738   22.0946 C   0  0  0  0  0  0  0  0  0  0  0  0
   11.6263    1.2992   23.4973 C   0  0  0  0  0  0  0  0  0  0  0  0
    9.1405    5.7499   23.3719 C   0  0  0  0  0  0  0  0  0  0  0  0
    6.5012    5.0374   22.8158 C   0  0  0  0  0  0  0  0  0  0  0  0
   13.0011    1.4762   23.1756 C   0  0  0  0  0  0  0  0  0  0  0  0
   11.1073    0.3780   22.5850 C   0  0  0  0  0  0  0  0  0  0  0  0
    9.4315    1.4321   24.5137 C   0  0  0  0  0  0  0  0  0  0  0  0
    4.4146    0.2585   19.2141 C   0  0  0  0  0  0  0  0  0  0  0  0
   12.7731    5.0835   23.3458 C   0  0  0  0  0  0  0  0  0  0  0  0
    3.4887    2.4731   19.8137 C   0  0  0  0  0  0  0  0  0  0  0  0
    5.9383    2.2412   19.6778 C   0  0  0  0  0  0  0  0  0  0  0  0
    3.6080    3.1587   21.1669 C   0  0  0  0  0  0  0  0  0  0  0  0
    6.0948    2.9255   21.0290 C   0  0  0  0  0  0  0  0  0  0  0  0
   10.5513    6.1304   23.6700 C   0  0  0  0  0  0  0  0  0  0  0  0
    5.0813    4.6561   22.5168 C   0  0  0  0  0  0  0  0  0  0  0  0
   13.9748    2.3744   23.8801 C   0  0  0  0  0  0  0  0  0  0  0  0
    5.6430   -0.5850   18.9838 C   0  0  0  0  0  0  0  0  0  0  0  0
   13.5614    4.2914   22.3332 C   0  0  0  0  0  0  0  0  0  0  0  0
   12.1363    0.0156   21.7454 N   0  0  0  0  0  0  0  0  0  0  0  0
    4.6287    1.5894   19.5697 N   0  0  0  0  0  0  0  0  0  0  0  0
   11.4985    5.3817   22.8836 N   0  0  0  0  0  0  0  0  0  0  0  0
    4.9375    3.8759   21.2405 N   0  3  0  0  0  0  0  0  0  0  0  0
   14.5600    3.4135   22.9890 N   0  3  0  0  0  0  0  0  0  0  0  0
    3.2992   -0.2526   19.0839 O   0  0  0  0  0  0  0  0  0  0  0  0
   13.2213    5.4135   24.4406 O   0  0  0  0  0  0  0  0  0  0  0  0
    8.6114    1.9388   25.4446 F   0  0  0  0  0  0  0  0  0  0  0  0
    6.0805   -1.2741   20.5432 Cl  0  0  0  0  0  0  0  0  0  0  0  0
    9.0804    6.8068   21.4890 H   0  0  0  0  0  0  0  0  0  0  0  0
    8.8937    4.6109   25.1904 H   0  0  0  0  0  0  0  0  0  0  0  0
    6.7475    6.1789   20.9987 H   0  0  0  0  0  0  0  0  0  0  0  0
    6.5612    3.9800   24.6981 H   0  0  0  0  0  0  0  0  0  0  0  0
    9.3875   -0.7523   21.8885 H   0  0  0  0  0  0  0  0  0  0  0  0
    7.8975    0.2105   23.6357 H   0  0  0  0  0  0  0  0  0  0  0  0
   11.1374    2.5555   25.2068 H   0  0  0  0  0  0  0  0  0  0  0  0
   14.1998    0.5110   21.5419 H   0  0  0  0  0  0  0  0  0  0  0  0
    2.5482    1.9150   19.7684 H   0  0  0  0  0  0  0  0  0  0  0  0
    3.4663    3.2129   19.0042 H   0  0  0  0  0  0  0  0  0  0  0  0
    6.0049    2.9740   18.8645 H   0  0  0  0  0  0  0  0  0  0  0  0
    6.7579    1.5342   19.5384 H   0  0  0  0  0  0  0  0  0  0  0  0
    2.8234    3.9124   21.2889 H   0  0  0  0  0  0  0  0  0  0  0  0
    3.5650    2.4430   21.9956 H   0  0  0  0  0  0  0  0  0  0  0  0
    6.0951    2.2063   21.8557 H   0  0  0  0  0  0  0  0  0  0  0  0
    7.0138    3.5198   21.0565 H   0  0  0  0  0  0  0  0  0  0  0  0
   10.7251    7.1968   23.4684 H   0  0  0  0  0  0  0  0  0  0  0  0
   10.7991    5.9633   24.7273 H   0  0  0  0  0  0  0  0  0  0  0  0
    4.6621    4.0338   23.3147 H   0  0  0  0  0  0  0  0  0  0  0  0
    4.4463    5.5429   22.4167 H   0  0  0  0  0  0  0  0  0  0  0  0
   13.4951    2.9051   24.7095 H   0  0  0  0  0  0  0  0  0  0  0  0
   14.8143    1.8029   24.2906 H   0  0  0  0  0  0  0  0  0  0  0  0
    6.4426    0.0504   18.6203 H   0  0  0  0  0  0  0  0  0  0  0  0
    5.4004   -1.3750   18.2824 H   0  0  0  0  0  0  0  0  0  0  0  0
   14.1132    4.9618   21.6685 H   0  0  0  0  0  0  0  0  0  0  0  0
   12.8962    3.6441   21.7550 H   0  0  0  0  0  0  0  0  0  0  0  0
   12.0552   -0.6421   20.9823 H   0  0  0  0  0  0  0  0  0  0  0  0
   11.2240    5.0850   21.9501 H   0  0  0  0  0  0  0  0  0  0  0  0
    4.9600    4.5623   20.4737 H   0  0  0  0  0  0  0  0  0  0  0  0
   15.2158    3.9911   23.5354 H   0  0  0  0  0  0  0  0  0  0  0  0
   15.1335    2.9507   22.2683 H   0  0  0  0  0  0  0  0  0  0  0  0
  1  3  2  0  0  0  0
  1 10  1  0  0  0  0
  2  4  1  0  0  0  0
  2 10  2  0  0  0  0
  3 11  1  0  0  0  0
  4 11  2  0  0  0  0
  5  6  2  0  0  0  0
  5 13  1  0  0  0  0
  6 14  1  0  0  0  0
  7  9  1  0  0  0  0
  7 14  2  0  0  0  0
  8 12  2  0  0  0  0
  8 26  1  0  0  0  0
  9 12  1  0  0  0  0
  9 13  2  0  0  0  0
 10 21  1  0  0  0  0
 11 22  1  0  0  0  0
 12 23  1  0  0  0  0
 13 26  1  0  0  0  0
 14 33  1  0  0  0  0
 15 24  1  0  0  0  0
 15 27  1  0  0  0  0
 15 31  2  0  0  0  0
 16 25  1  0  0  0  0
 16 28  1  0  0  0  0
 16 32  2  0  0  0  0
 17 19  1  0  0  0  0
 17 27  1  0  0  0  0
 18 20  1  0  0  0  0
 18 27  1  0  0  0  0
 19 29  1  0  0  0  0
 20 29  1  0  0  0  0
 21 28  1  0  0  0  0
 22 29  1  0  0  0  0
 23 30  1  0  0  0  0
 24 34  1  0  0  0  0
 25 30  1  0  0  0  0
  1 35  1  0  0  0  0
  2 36  1  0  0  0  0
  3 37  1  0  0  0  0
  4 38  1  0  0  0  0
  5 39  1  0  0  0  0
  6 40  1  0  0  0  0
  7 41  1  0  0  0  0
  8 42  1  0  0  0  0
 17 43  1  0  0  0  0
 17 44  1  0  0  0  0
 18 45  1  0  0  0  0
 18 46  1  0  0  0  0
 19 47  1  0  0  0  0
 19 48  1  0  0  0  0
 20 49  1  0  0  0  0
 20 50  1  0  0  0  0
 21 51  1  0  0  0  0
 21 52  1  0  0  0  0
 22 53  1  0  0  0  0
 22 54  1  0  0  0  0
 23 55  1  0  0  0  0
 23 56  1  0  0  0  0
 24 57  1  0  0  0  0
 24 58  1  0  0  0  0
 25 59  1  0  0  0  0
 25 60  1  0  0  0  0
 26 61  1  0  0  0  0
 28 62  1  0  0  0  0
 29 63  1  0  0  0  0
 30 64  1  0  0  0  0
 30 65  1  0  0  0  0
M  CHG  2  29   1  30   1
M  END
> <creator>
Maksym Voznyy

> <fragments>
x0104

> <real_space>
FALSE

> <SCR>
FALSE

> <BB>
FALSE

> <link>
https://covid.postera.ai/covid/submissions/72b7ba6b-2341-4058-ade7-8abdba1e8f26

> <covalent_frag>
TRUE

> <covalent_warhead>
TRUE

> <acrylamide>
FALSE

> <acrylamide_adduct>
FALSE

> <chloroacetamide>
TRUE

> <chloroacetamide_adduct>
FALSE

> <vinylsulfonamide>
FALSE

> <vinylsulfonamide_adduct>
FALSE

> <in_molport_or_mcule>
FALSE

> <in_emolecules>
FALSE

> <Hybrid2>
-7.483333

> <Mpro-x0104_dock>
-7.483333

> <Mpro-x0692_dock>
1.985334

> <site>
active-noncovalent

> <covalent_distance_min>
3.1250427

> <covalent_distance_mean>
3.5528452

> <covalent_distance_stderr>
0.021864966

$$$$
PAU-WEI-b9b-3
  -OEChem-04062011563D

 54 56  0     1  0  0  0  0  0999 V2000
    8.2921    1.7024   22.4353 C   0  0  0  0  0  0  0  0  0  0  0  0
    9.4552    2.4649   22.5419 C   0  0  0  0  0  0  0  0  0  0  0  0
   11.5036   -1.1742   24.5833 C   0  0  0  0  0  0  0  0  0  0  0  0
   11.8332   -1.5704   22.2229 C   0  0  0  0  0  0  0  0  0  0  0  0
   12.1796    0.0410   24.4737 C   0  0  0  0  0  0  0  0  0  0  0  0
   12.5091   -0.3552   22.1133 C   0  0  0  0  0  0  0  0  0  0  0  0
    7.8566    0.9394   23.5187 C   0  0  0  0  0  0  0  0  0  0  0  0
    9.7474    1.7013   24.8153 C   0  0  0  0  0  0  0  0  0  0  0  0
   11.3305   -1.9800   23.4579 C   0  0  0  0  0  0  0  0  0  0  0  0
   12.6823    0.4505   23.2387 C   0  0  0  0  0  0  0  0  0  0  0  0
   10.1829    2.4644   23.7319 C   0  0  0  0  0  0  0  0  0  0  0  0
    8.5843    0.9388   24.7087 C   0  0  0  0  0  0  0  0  0  0  0  0
   10.5688    8.4842   25.5634 C   0  0  0  0  0  0  0  0  0  0  0  0
   11.9397    7.0742   24.0622 C   0  0  0  0  0  0  0  0  0  0  0  0
    9.5318    6.5792   24.2355 C   0  0  0  0  0  0  0  0  0  0  0  0
   12.2778    5.6055   24.2721 C   0  0  0  0  0  0  0  0  0  0  0  0
    9.8337    5.1016   24.4463 C   0  0  0  0  0  0  0  0  0  0  0  0
   10.6079   -3.2793   23.5742 C   0  0  0  0  0  0  0  0  0  0  0  0
   13.4112    1.7649   23.1208 C   0  0  0  0  0  0  0  0  0  0  0  0
   11.8060    8.7999   26.3653 C   0  0  0  0  0  0  0  0  0  0  0  0
   12.5321    2.9849   22.7947 C   0  0  0  0  0  0  0  0  0  0  0  0
   11.4446    3.2904   23.8463 C   0  0  1  0  0  0  0  0  0  0  0  0
   10.6559    7.4114   24.6774 N   0  0  0  0  0  0  0  0  0  0  0  0
   11.1355    4.7584   23.7572 N   0  3  0  0  0  0  0  0  0  0  0  0
    9.5572    9.1731   25.7192 O   0  0  0  0  0  0  0  0  0  0  0  0
    8.0471   -0.0037   26.0447 Cl  0  0  0  0  0  0  0  0  0  0  0  0
   12.1528    7.3749   27.3384 Cl  0  0  0  0  0  0  0  0  0  0  0  0
    7.7258    1.7031   21.5084 H   0  0  0  0  0  0  0  0  0  0  0  0
    9.7872    3.0564   21.6926 H   0  0  0  0  0  0  0  0  0  0  0  0
   11.1158   -1.4857   25.5497 H   0  0  0  0  0  0  0  0  0  0  0  0
   11.7017   -2.1915   21.3407 H   0  0  0  0  0  0  0  0  0  0  0  0
   12.3085    0.6630   25.3554 H   0  0  0  0  0  0  0  0  0  0  0  0
   12.8978   -0.0437   21.1473 H   0  0  0  0  0  0  0  0  0  0  0  0
    6.9484    0.3497   23.4212 H   0  0  0  0  0  0  0  0  0  0  0  0
   10.3181    1.7046   25.7412 H   0  0  0  0  0  0  0  0  0  0  0  0
   12.7418    7.6960   24.4719 H   0  0  0  0  0  0  0  0  0  0  0  0
   11.8633    7.3060   22.9929 H   0  0  0  0  0  0  0  0  0  0  0  0
    9.3685    6.7914   23.1719 H   0  0  0  0  0  0  0  0  0  0  0  0
    8.6074    6.8329   24.7572 H   0  0  0  0  0  0  0  0  0  0  0  0
   13.1713    5.3293   23.7029 H   0  0  0  0  0  0  0  0  0  0  0  0
   12.4250    5.3648   25.3310 H   0  0  0  0  0  0  0  0  0  0  0  0
    9.9386    4.8516   25.5079 H   0  0  0  0  0  0  0  0  0  0  0  0
    9.0529    4.4802   23.9961 H   0  0  0  0  0  0  0  0  0  0  0  0
    9.5344   -3.1364   23.4000 H   0  0  0  0  0  0  0  0  0  0  0  0
   10.9839   -4.0109   22.8471 H   0  0  0  0  0  0  0  0  0  0  0  0
   10.7430   -3.7227   24.5694 H   0  0  0  0  0  0  0  0  0  0  0  0
   14.1592    1.6509   22.3250 H   0  0  0  0  0  0  0  0  0  0  0  0
   13.9829    1.9667   24.0355 H   0  0  0  0  0  0  0  0  0  0  0  0
   11.6013    9.6486   27.0080 H   0  0  0  0  0  0  0  0  0  0  0  0
   12.6263    8.9942   25.6839 H   0  0  0  0  0  0  0  0  0  0  0  0
   13.2092    3.8491   22.7447 H   0  0  0  0  0  0  0  0  0  0  0  0
   12.0955    2.8896   21.7933 H   0  0  0  0  0  0  0  0  0  0  0  0
   11.8798    3.1680   24.8455 H   0  0  0  0  0  0  0  0  0  0  0  0
   11.0194    4.9729   22.7572 H   0  0  0  0  0  0  0  0  0  0  0  0
  1  2  2  0  0  0  0
  1  7  1  0  0  0  0
  2 11  1  0  0  0  0
  3  5  2  0  0  0  0
  3  9  1  0  0  0  0
  4  6  1  0  0  0  0
  4  9  2  0  0  0  0
  5 10  1  0  0  0  0
  6 10  2  0  0  0  0
  7 12  2  0  0  0  0
  8 11  2  0  0  0  0
  8 12  1  0  0  0  0
  9 18  1  0  0  0  0
 10 19  1  0  0  0  0
 11 22  1  0  0  0  0
 12 26  1  0  0  0  0
 13 20  1  0  0  0  0
 13 23  1  0  0  0  0
 13 25  2  0  0  0  0
 14 16  1  0  0  0  0
 14 23  1  0  0  0  0
 15 17  1  0  0  0  0
 15 23  1  0  0  0  0
 16 24  1  0  0  0  0
 17 24  1  0  0  0  0
 19 21  1  0  0  0  0
 20 27  1  0  0  0  0
 21 22  1  0  0  0  0
 22 24  1  0  0  0  0
  1 28  1  0  0  0  0
  2 29  1  0  0  0  0
  3 30  1  0  0  0  0
  4 31  1  0  0  0  0
  5 32  1  0  0  0  0
  6 33  1  0  0  0  0
  7 34  1  0  0  0  0
  8 35  1  0  0  0  0
 14 36  1  0  0  0  0
 14 37  1  0  0  0  0
 15 38  1  0  0  0  0
 15 39  1  0  0  0  0
 16 40  1  0  0  0  0
 16 41  1  0  0  0  0
 17 42  1  0  0  0  0
 17 43  1  0  0  0  0
 18 44  1  0  0  0  0
 18 45  1  0  0  0  0
 18 46  1  0  0  0  0
 19 47  1  0  0  0  0
 19 48  1  0  0  0  0
 20 49  1  0  0  0  0
 20 50  1  0  0  0  0
 21 51  1  0  0  0  0
 21 52  1  0  0  0  0
 22 53  1  0  0  0  0
 24 54  1  0  0  0  0
M  CHG  1  24   1
M  END
> <creator>
Paul Gehrtz, Weizmann Institute of Science

> <fragments>
x0104

> <real_space>
FALSE

> <SCR>
FALSE

> <BB>
FALSE

> <link>
https://covid.postera.ai/covid/submissions/b9b69149-728b-48ac-b50d-9dc89a43712c

> <covalent_frag>
TRUE

> <covalent_warhead>
TRUE

> <acrylamide>
FALSE

> <acrylamide_adduct>
FALSE

> <chloroacetamide>
TRUE

> <chloroacetamide_adduct>
FALSE

> <vinylsulfonamide>
FALSE

> <vinylsulfonamide_adduct>
FALSE

> <in_molport_or_mcule>
FALSE

> <in_emolecules>
FALSE

> <Hybrid2>
-7.439302

> <Mpro-x0104_dock>
-7.439302

> <Mpro-x1385_dock>
-4.143651

> <Mpro-x0305_dock>
-4.071931

> <Mpro-x1380_dock>
-3.338899

> <Mpro-x0770_dock>
-2.423698

> <site>
active-noncovalent

> <covalent_distance_min>
13.600588

> <covalent_distance_mean>
14.928815

> <covalent_distance_stderr>
0.11486617

$$$$
MAK-UNK-af8-30
  -OEChem-04062011563D

 61 63  0     1  0  0  0  0  0999 V2000
    7.7312   -2.6835   25.7582 C   0  0  0  0  0  0  0  0  0  0  0  0
    7.1062   -3.7880   26.3262 C   0  0  0  0  0  0  0  0  0  0  0  0
    9.6091   -4.0602   25.2740 C   0  0  0  0  0  0  0  0  0  0  0  0
    9.0066   -2.8137   25.2199 C   0  0  0  0  0  0  0  0  0  0  0  0
    7.7938   -4.9910   26.3306 C   0  0  0  0  0  0  0  0  0  0  0  0
   11.7550    7.3678   26.0477 C   0  0  0  0  0  0  0  0  0  0  0  0
   11.9526    5.0965   25.0896 C   0  0  0  0  0  0  0  0  0  0  0  0
    9.8250    6.3085   24.7760 C   0  0  0  0  0  0  0  0  0  0  0  0
   11.9771    4.7195   23.6156 C   0  0  0  0  0  0  0  0  0  0  0  0
    9.8191    5.9454   23.2970 C   0  0  0  0  0  0  0  0  0  0  0  0
    9.7149   -1.6285   24.5943 C   0  0  1  0  0  0  0  0  0  0  0  0
    9.6717    1.0211   23.4315 C   0  0  1  0  0  0  0  0  0  0  0  0
    9.3904   -1.4727   23.1010 C   0  0  1  0  0  0  0  0  0  0  0  0
   10.0006   -0.1832   22.5410 C   0  0  1  0  0  0  0  0  0  0  0  0
    9.9968    0.7185   24.8990 C   0  0  2  0  0  0  0  0  0  0  0  0
    5.4036   -7.3472   28.0214 C   0  0  0  0  0  0  0  0  0  0  0  0
   10.9094    8.6032   26.2281 C   0  0  0  0  0  0  0  0  0  0  0  0
    5.8357   -6.0279   27.4779 C   0  0  0  0  0  0  0  0  0  0  0  0
    9.8130    3.4241   23.4612 C   0  0  0  0  0  0  0  0  0  0  0  0
    9.0336   -5.1561   25.8175 N   0  0  0  0  0  0  0  0  0  0  0  0
   11.1914    6.3266   25.3101 N   0  0  0  0  0  0  0  0  0  0  0  0
    7.1430   -6.1073   26.9125 N   0  0  0  0  0  0  0  0  0  0  0  0
   10.4309    2.1937   22.9863 N   0  0  0  0  0  0  0  0  0  0  0  0
   10.5735    4.6581   23.0595 N   0  3  0  0  0  0  0  0  0  0  0  0
   12.8831    7.3320   26.5457 O   0  0  0  0  0  0  0  0  0  0  0  0
    9.3113   -0.4614   25.3161 O   0  0  0  0  0  0  0  0  0  0  0  0
    9.9397   -2.5662   22.3646 O   0  0  0  0  0  0  0  0  0  0  0  0
    9.4632    0.0179   21.2326 O   0  0  0  0  0  0  0  0  0  0  0  0
    9.5648    1.8194   25.6970 O   0  0  0  0  0  0  0  0  0  0  0  0
    9.9516    8.3500   27.6829 Cl  0  0  0  0  0  0  0  0  0  0  0  0
    7.2179   -1.7260   25.7394 H   0  0  0  0  0  0  0  0  0  0  0  0
    6.1110   -3.6952   26.7489 H   0  0  0  0  0  0  0  0  0  0  0  0
   10.6038   -4.2229   24.8705 H   0  0  0  0  0  0  0  0  0  0  0  0
   11.5308    4.2697   25.6713 H   0  0  0  0  0  0  0  0  0  0  0  0
   12.9702    5.2679   25.4636 H   0  0  0  0  0  0  0  0  0  0  0  0
    9.4032    7.3102   24.9288 H   0  0  0  0  0  0  0  0  0  0  0  0
    9.1854    5.6087   25.3181 H   0  0  0  0  0  0  0  0  0  0  0  0
   12.5262    5.4756   23.0327 H   0  0  0  0  0  0  0  0  0  0  0  0
   12.4473    3.7357   23.4513 H   0  0  0  0  0  0  0  0  0  0  0  0
    8.7945    5.8106   22.9125 H   0  0  0  0  0  0  0  0  0  0  0  0
   10.3181    6.7294   22.7058 H   0  0  0  0  0  0  0  0  0  0  0  0
   10.8031   -1.7920   24.7483 H   0  0  0  0  0  0  0  0  0  0  0  0
    8.6122    1.2702   23.3318 H   0  0  0  0  0  0  0  0  0  0  0  0
    8.3059   -1.4668   22.9291 H   0  0  0  0  0  0  0  0  0  0  0  0
   11.0862   -0.3104   22.4309 H   0  0  0  0  0  0  0  0  0  0  0  0
   11.0754    0.5870   25.0518 H   0  0  0  0  0  0  0  0  0  0  0  0
    6.1083   -7.6716   28.8012 H   0  0  0  0  0  0  0  0  0  0  0  0
    4.3964   -7.2536   28.4534 H   0  0  0  0  0  0  0  0  0  0  0  0
    5.3871   -8.0901   27.2103 H   0  0  0  0  0  0  0  0  0  0  0  0
   10.2584    8.7123   25.3682 H   0  0  0  0  0  0  0  0  0  0  0  0
   11.5614    9.4597   26.3560 H   0  0  0  0  0  0  0  0  0  0  0  0
    5.1264   -5.7107   26.6992 H   0  0  0  0  0  0  0  0  0  0  0  0
    5.8410   -5.2885   28.2922 H   0  0  0  0  0  0  0  0  0  0  0  0
    9.7692    3.4478   24.5549 H   0  0  0  0  0  0  0  0  0  0  0  0
    8.8029    3.5479   23.0568 H   0  0  0  0  0  0  0  0  0  0  0  0
    7.6476   -6.9700   26.9120 H   0  0  0  0  0  0  0  0  0  0  0  0
   11.3828    2.1317   23.3468 H   0  0  0  0  0  0  0  0  0  0  0  0
   10.6861    4.5843   22.0074 H   0  0  0  0  0  0  0  0  0  0  0  0
    9.5321   -3.3693   22.7222 H   0  0  0  0  0  0  0  0  0  0  0  0
    9.8771    0.8235   20.8887 H   0  0  0  0  0  0  0  0  0  0  0  0
    9.7842    1.5967   26.6146 H   0  0  0  0  0  0  0  0  0  0  0  0
  1  2  2  0  0  0  0
  1  4  1  0  0  0  0
  2  5  1  0  0  0  0
  3  4  2  0  0  0  0
  3 20  1  0  0  0  0
  4 11  1  0  0  0  0
  5 20  2  0  0  0  0
  5 22  1  0  0  0  0
  6 17  1  0  0  0  0
  6 21  1  0  0  0  0
  6 25  2  0  0  0  0
  7  9  1  0  0  0  0
  7 21  1  0  0  0  0
  8 10  1  0  0  0  0
  8 21  1  0  0  0  0
  9 24  1  0  0  0  0
 10 24  1  0  0  0  0
 11 13  1  0  0  0  0
 11 26  1  0  0  0  0
 12 14  1  0  0  0  0
 12 15  1  0  0  0  0
 12 23  1  0  0  0  0
 13 14  1  0  0  0  0
 13 27  1  0  0  0  0
 14 28  1  0  0  0  0
 15 26  1  0  0  0  0
 15 29  1  0  0  0  0
 16 18  1  0  0  0  0
 17 30  1  0  0  0  0
 18 22  1  0  0  0  0
 19 23  1  0  0  0  0
 19 24  1  0  0  0  0
  1 31  1  0  0  0  0
  2 32  1  0  0  0  0
  3 33  1  0  0  0  0
  7 34  1  0  0  0  0
  7 35  1  0  0  0  0
  8 36  1  0  0  0  0
  8 37  1  0  0  0  0
  9 38  1  0  0  0  0
  9 39  1  0  0  0  0
 10 40  1  0  0  0  0
 10 41  1  0  0  0  0
 11 42  1  0  0  0  0
 12 43  1  0  0  0  0
 13 44  1  0  0  0  0
 14 45  1  0  0  0  0
 15 46  1  0  0  0  0
 16 47  1  0  0  0  0
 16 48  1  0  0  0  0
 16 49  1  0  0  0  0
 17 50  1  0  0  0  0
 17 51  1  0  0  0  0
 18 52  1  0  0  0  0
 18 53  1  0  0  0  0
 19 54  1  0  0  0  0
 19 55  1  0  0  0  0
 22 56  1  0  0  0  0
 23 57  1  0  0  0  0
 24 58  1  0  0  0  0
 27 59  1  0  0  0  0
 28 60  1  0  0  0  0
 29 61  1  0  0  0  0
M  CHG  1  24   1
M  END
> <creator>
Maksym Voznyy

> <fragments>
x0104

> <real_space>
FALSE

> <SCR>
FALSE

> <BB>
FALSE

> <link>
https://covid.postera.ai/covid/submissions/af83ef51-35cf-489e-b3bd-9012d86d8275

> <covalent_frag>
TRUE

> <covalent_warhead>
TRUE

> <acrylamide>
FALSE

> <acrylamide_adduct>
FALSE

> <chloroacetamide>
TRUE

> <chloroacetamide_adduct>
FALSE

> <vinylsulfonamide>
FALSE

> <vinylsulfonamide_adduct>
FALSE

> <in_molport_or_mcule>
FALSE

> <in_emolecules>
FALSE

> <Hybrid2>
-7.412730

> <Mpro-x0104_dock>
-7.41273

> <Mpro-x0161_dock>
-3.601494

> <Mpro-x0072_dock>
-3.270336

> <Mpro-x0305_dock>
-0.056258

> <Mpro-x0692_dock>
0.97546

> <site>
active-noncovalent

$$$$
NAU-LAT-f72-4
  -OEChem-04062011563D

 38 39  0     1  0  0  0  0  0999 V2000
   12.1248    0.2474   24.0036 C   0  0  0  0  0  0  0  0  0  0  0  0
   12.4265   -0.9121   23.2894 C   0  0  0  0  0  0  0  0  0  0  0  0
   10.9445    0.3239   24.7431 C   0  0  0  0  0  0  0  0  0  0  0  0
   11.5478   -1.9952   23.3146 C   0  0  0  0  0  0  0  0  0  0  0  0
   10.0658   -0.7592   24.7682 C   0  0  0  0  0  0  0  0  0  0  0  0
   10.3675   -1.9187   24.0540 C   0  0  0  0  0  0  0  0  0  0  0  0
    8.3782   -0.2701   21.1853 C   0  0  0  0  0  0  0  0  0  0  0  0
    8.1045   -0.9214   22.3177 C   0  0  0  0  0  0  0  0  0  0  0  0
    7.7261   -2.3423   22.2471 C   0  0  0  0  0  0  0  0  0  0  0  0
    8.0503   -4.6769   22.8309 C   0  0  0  0  0  0  0  0  0  0  0  0
    7.2019   -4.9825   24.0671 C   0  0  0  0  0  0  0  0  0  0  0  0
    8.5635   -3.2956   25.3482 C   0  0  0  0  0  0  0  0  0  0  0  0
    9.4140   -3.0930   24.0815 C   0  0  1  0  0  0  0  0  0  0  0  0
    5.7160   -4.2343   26.6573 C   0  0  0  0  0  0  0  0  0  0  0  0
    8.5145   -3.2894   22.9114 N   0  0  0  0  0  0  0  0  0  0  0  0
    7.9673   -4.6767   25.3192 N   0  0  1  0  0  0  0  0  0  0  0  0
    6.6973   -2.6091   21.6201 O   0  0  0  0  0  0  0  0  0  0  0  0
    7.9781   -4.6649   27.8922 O   0  0  0  0  0  0  0  0  0  0  0  0
    6.8729   -6.5773   26.6647 O   0  0  0  0  0  0  0  0  0  0  0  0
    7.2146   -5.1765   26.7757 S   0  0  0  0  0  0  0  0  0  0  0  0
   12.8097    1.0902   23.9850 H   0  0  0  0  0  0  0  0  0  0  0  0
   13.3460   -0.9722   22.7145 H   0  0  0  0  0  0  0  0  0  0  0  0
   10.7098    1.2261   25.3001 H   0  0  0  0  0  0  0  0  0  0  0  0
   11.7910   -2.8945   22.7549 H   0  0  0  0  0  0  0  0  0  0  0  0
    9.1485   -0.6906   25.3470 H   0  0  0  0  0  0  0  0  0  0  0  0
    8.6625    0.7768   21.1732 H   0  0  0  0  0  0  0  0  0  0  0  0
    8.3207   -0.7865   20.2330 H   0  0  0  0  0  0  0  0  0  0  0  0
    8.1513   -0.4410   23.2863 H   0  0  0  0  0  0  0  0  0  0  0  0
    8.8695   -5.3716   22.8084 H   0  0  0  0  0  0  0  0  0  0  0  0
    7.4559   -4.7670   21.9347 H   0  0  0  0  0  0  0  0  0  0  0  0
    6.2974   -4.3634   24.0368 H   0  0  0  0  0  0  0  0  0  0  0  0
    6.8931   -6.0354   24.0727 H   0  0  0  0  0  0  0  0  0  0  0  0
    9.1902   -3.2090   26.2306 H   0  0  0  0  0  0  0  0  0  0  0  0
    7.7661   -2.5619   25.3959 H   0  0  0  0  0  0  0  0  0  0  0  0
   10.1068   -4.0323   24.0674 H   0  0  0  0  0  0  0  0  0  0  0  0
    5.1058   -4.4461   27.5367 H   0  0  0  0  0  0  0  0  0  0  0  0
    5.9770   -3.1757   26.6189 H   0  0  0  0  0  0  0  0  0  0  0  0
    5.1927   -4.5327   25.7477 H   0  0  0  0  0  0  0  0  0  0  0  0
  1  2  1  0  0  0  0
  1  3  2  0  0  0  0
  2  4  2  0  0  0  0
  3  5  1  0  0  0  0
  4  6  1  0  0  0  0
  5  6  2  0  0  0  0
  6 13  1  0  0  0  0
  7  8  2  0  0  0  0
  8  9  1  0  0  0  0
  9 15  1  0  0  0  0
  9 17  2  0  0  0  0
 10 11  1  0  0  0  0
 10 15  1  0  0  0  0
 11 16  1  0  0  0  0
 12 13  1  0  0  0  0
 12 16  1  0  0  0  0
 13 15  1  0  0  0  0
 14 20  1  0  0  0  0
 16 20  1  0  0  0  0
 18 20  2  0  0  0  0
 19 20  2  0  0  0  0
  1 21  1  0  0  0  0
  2 22  1  0  0  0  0
  3 23  1  0  0  0  0
  4 24  1  0  0  0  0
  5 25  1  0  0  0  0
  7 26  1  0  0  0  0
  7 27  1  0  0  0  0
  8 28  1  0  0  0  0
 10 29  1  0  0  0  0
 10 30  1  0  0  0  0
 11 31  1  0  0  0  0
 11 32  1  0  0  0  0
 12 33  1  0  0  0  0
 12 34  1  0  0  0  0
 13 35  1  0  0  0  0
 14 36  1  0  0  0  0
 14 37  1  0  0  0  0
 14 38  1  0  0  0  0
M  END
> <creator>
Nauris Narvaiss, Latvian Institute of Organic Synthesis

> <fragments>
x0072

> <real_space>
FALSE

> <SCR>
FALSE

> <BB>
FALSE

> <link>
https://covid.postera.ai/covid/submissions/f723e322-ea7d-4382-bbcf-496494e8aab2

> <covalent_frag>
TRUE

> <covalent_warhead>
TRUE

> <acrylamide>
TRUE

> <acrylamide_adduct>
FALSE

> <chloroacetamide>
FALSE

> <chloroacetamide_adduct>
FALSE

> <vinylsulfonamide>
FALSE

> <vinylsulfonamide_adduct>
FALSE

> <in_molport_or_mcule>
FALSE

> <in_emolecules>
FALSE

> <Hybrid2>
-7.399308

> <Mpro-x0072_dock>
-7.399308

> <Mpro-x0397_dock>
-5.452068

> <Mpro-x0104_dock>
-5.145594

> <Mpro-x0692_dock>
-4.913342

> <Mpro-x1308_dock>
-3.553369

> <site>
active-noncovalent

> <covalent_distance_min>
4.203485

> <covalent_distance_mean>
4.888451

> <covalent_distance_stderr>
0.037128575

$$$$
DAR-DIA-fb2-3
  -OEChem-04062011563D

 44 45  0     0  0  0  0  0  0999 V2000
    8.8734    0.8205   27.2646 C   0  0  0  0  0  0  0  0  0  0  0  0
   10.8355    1.2497   25.8694 C   0  0  0  0  0  0  0  0  0  0  0  0
   11.6410    0.9274   24.7772 C   0  0  0  0  0  0  0  0  0  0  0  0
    9.3650   -0.5891   25.3277 C   0  0  0  0  0  0  0  0  0  0  0  0
    9.6975    0.4914   26.1447 C   0  0  0  0  0  0  0  0  0  0  0  0
   10.1704   -0.9115   24.2354 C   0  0  0  0  0  0  0  0  0  0  0  0
   11.3084   -0.1532   23.9602 C   0  0  0  0  0  0  0  0  0  0  0  0
    5.9915   -1.7388   19.3539 C   0  0  0  0  0  0  0  0  0  0  0  0
    6.6347   -2.9641   21.4048 C   0  0  0  0  0  0  0  0  0  0  0  0
    6.9227   -0.5167   21.3806 C   0  0  0  0  0  0  0  0  0  0  0  0
    8.0496   -3.1460   21.9346 C   0  0  0  0  0  0  0  0  0  0  0  0
    8.3423   -0.6618   21.9121 C   0  0  0  0  0  0  0  0  0  0  0  0
   13.5798    1.2985   22.0818 C   0  0  0  0  0  0  0  0  0  0  0  0
    9.7892   -2.0785   23.3731 C   0  0  0  0  0  0  0  0  0  0  0  0
    6.5012   -0.6847   18.4038 C   0  0  0  0  0  0  0  0  0  0  0  0
   13.4929   -0.0257   22.7612 C   0  0  0  0  0  0  0  0  0  0  0  0
    8.2040    1.0877   28.1741 N   0  0  0  0  0  0  0  0  0  0  0  0
    6.5132   -1.7188   20.6466 N   0  0  0  0  0  0  0  0  0  0  0  0
   12.1369   -0.4664   22.8603 N   0  0  0  0  0  0  0  0  0  0  0  0
    8.4355   -1.9247   22.7389 N   0  3  0  0  0  0  0  0  0  0  0  0
    5.1569   -2.5559   18.9566 O   0  0  0  0  0  0  0  0  0  0  0  0
    5.4108    0.6897   18.5442 Cl  0  0  0  0  0  0  0  0  0  0  0  0
   11.1095    2.0933   26.4988 H   0  0  0  0  0  0  0  0  0  0  0  0
   12.5262    1.5241   24.5734 H   0  0  0  0  0  0  0  0  0  0  0  0
    8.4777   -1.1830   25.5377 H   0  0  0  0  0  0  0  0  0  0  0  0
    6.3632   -3.8242   20.7849 H   0  0  0  0  0  0  0  0  0  0  0  0
    5.9140   -2.9186   22.2304 H   0  0  0  0  0  0  0  0  0  0  0  0
    6.2136   -0.3827   22.2065 H   0  0  0  0  0  0  0  0  0  0  0  0
    6.8633    0.3792   20.7603 H   0  0  0  0  0  0  0  0  0  0  0  0
    8.1030   -4.0091   22.6059 H   0  0  0  0  0  0  0  0  0  0  0  0
    8.7798   -3.2611   21.1256 H   0  0  0  0  0  0  0  0  0  0  0  0
    9.0780   -0.7337   21.1033 H   0  0  0  0  0  0  0  0  0  0  0  0
    8.5961    0.1770   22.5684 H   0  0  0  0  0  0  0  0  0  0  0  0
   13.0058    2.0428   22.6533 H   0  0  0  0  0  0  0  0  0  0  0  0
   14.6325    1.6127   22.0245 H   0  0  0  0  0  0  0  0  0  0  0  0
   13.1656    1.2172   21.0660 H   0  0  0  0  0  0  0  0  0  0  0  0
   10.5053   -2.2177   22.5561 H   0  0  0  0  0  0  0  0  0  0  0  0
    9.7609   -3.0068   23.9538 H   0  0  0  0  0  0  0  0  0  0  0  0
    6.4749   -1.0791   17.3943 H   0  0  0  0  0  0  0  0  0  0  0  0
    7.5029   -0.3974   18.7022 H   0  0  0  0  0  0  0  0  0  0  0  0
   14.0690   -0.7638   22.1840 H   0  0  0  0  0  0  0  0  0  0  0  0
   13.9170    0.0611   23.7724 H   0  0  0  0  0  0  0  0  0  0  0  0
   11.7313   -1.0215   22.1317 H   0  0  0  0  0  0  0  0  0  0  0  0
    7.7592   -1.8374   23.5100 H   0  0  0  0  0  0  0  0  0  0  0  0
  1  5  1  0  0  0  0
  1 17  3  0  0  0  0
  2  3  2  0  0  0  0
  2  5  1  0  0  0  0
  3  7  1  0  0  0  0
  4  5  2  0  0  0  0
  4  6  1  0  0  0  0
  6  7  2  0  0  0  0
  6 14  1  0  0  0  0
  7 19  1  0  0  0  0
  8 15  1  0  0  0  0
  8 18  1  0  0  0  0
  8 21  2  0  0  0  0
  9 11  1  0  0  0  0
  9 18  1  0  0  0  0
 10 12  1  0  0  0  0
 10 18  1  0  0  0  0
 11 20  1  0  0  0  0
 12 20  1  0  0  0  0
 13 16  1  0  0  0  0
 14 20  1  0  0  0  0
 15 22  1  0  0  0  0
 16 19  1  0  0  0  0
  2 23  1  0  0  0  0
  3 24  1  0  0  0  0
  4 25  1  0  0  0  0
  9 26  1  0  0  0  0
  9 27  1  0  0  0  0
 10 28  1  0  0  0  0
 10 29  1  0  0  0  0
 11 30  1  0  0  0  0
 11 31  1  0  0  0  0
 12 32  1  0  0  0  0
 12 33  1  0  0  0  0
 13 34  1  0  0  0  0
 13 35  1  0  0  0  0
 13 36  1  0  0  0  0
 14 37  1  0  0  0  0
 14 38  1  0  0  0  0
 15 39  1  0  0  0  0
 15 40  1  0  0  0  0
 16 41  1  0  0  0  0
 16 42  1  0  0  0  0
 19 43  1  0  0  0  0
 20 44  1  0  0  0  0
M  CHG  1  20   1
M  END
> <creator>
Daren Fearon, Diamond Light Source Ltd

> <fragments>
x0830

> <real_space>
FALSE

> <SCR>
FALSE

> <BB>
FALSE

> <link>
https://covid.postera.ai/covid/submissions/fb20be43-b2ad-4a19-a5ce-eb2fe8d462e2

> <covalent_frag>
TRUE

> <covalent_warhead>
TRUE

> <acrylamide>
FALSE

> <acrylamide_adduct>
FALSE

> <chloroacetamide>
TRUE

> <chloroacetamide_adduct>
FALSE

> <vinylsulfonamide>
FALSE

> <vinylsulfonamide_adduct>
FALSE

> <in_molport_or_mcule>
FALSE

> <in_emolecules>
FALSE

> <Hybrid2>
-7.398350

> <Mpro-x0830_dock>
-7.39835

> <Mpro-x0195_dock>
-6.600506

> <Mpro-x0104_dock>
-6.253122

> <Mpro-x0305_dock>
-5.087771

> <site>
active-covalent

> <covalent_distance_min>
2.9707396

> <covalent_distance_mean>
3.3819122

> <covalent_distance_stderr>
0.01697099

$$$$
AVI-UNI-a66-1
  -OEChem-04062011563D

 32 34  0     0  0  0  0  0  0999 V2000
   15.2109   -1.9743   22.5032 C   0  0  0  0  0  0  0  0  0  0  0  0
   15.1134   -1.3634   23.7466 C   0  0  0  0  0  0  0  0  0  0  0  0
   14.1079   -1.9889   21.6492 C   0  0  0  0  0  0  0  0  0  0  0  0
   13.9195   -0.7532   24.1255 C   0  0  0  0  0  0  0  0  0  0  0  0
    9.5430   -1.4765   24.9954 C   0  0  0  0  0  0  0  0  0  0  0  0
    8.6438   -2.5383   25.0609 C   0  0  0  0  0  0  0  0  0  0  0  0
    9.0411   -2.9963   22.7290 C   0  0  0  0  0  0  0  0  0  0  0  0
    9.9488   -1.9239   22.6372 C   0  0  0  0  0  0  0  0  0  0  0  0
   12.8786   -1.4213   22.0285 C   0  0  0  0  0  0  0  0  0  0  0  0
   10.1995   -1.1722   23.7930 C   0  0  0  0  0  0  0  0  0  0  0  0
   12.8038   -0.7695   23.2719 C   0  0  0  0  0  0  0  0  0  0  0  0
    8.3956   -3.3023   23.9277 C   0  0  0  0  0  0  0  0  0  0  0  0
   10.5635   -1.6263   21.3227 C   0  0  0  0  0  0  0  0  0  0  0  0
    8.3862   -1.1842   20.3528 C   0  0  0  0  0  0  0  0  0  0  0  0
    7.6758   -1.1993   19.0222 C   0  0  0  0  0  0  0  0  0  0  0  0
   11.8716   -1.4653   21.1008 N   0  3  0  0  0  0  0  0  0  0  0  0
    9.7314   -1.5757   20.2798 N   0  0  0  0  0  0  0  0  0  0  0  0
    7.8123   -0.8408   21.3854 O   0  0  0  0  0  0  0  0  0  0  0  0
   11.3693    0.1644   23.7824 S   0  0  0  0  0  0  0  0  0  0  0  0
    7.2916   -4.6202   24.0003 Cl  0  0  0  0  0  0  0  0  0  0  0  0
    7.7703   -2.8437   18.3726 Cl  0  0  0  0  0  0  0  0  0  0  0  0
   16.1439   -2.4360   22.1938 H   0  0  0  0  0  0  0  0  0  0  0  0
   15.9701   -1.3442   24.4136 H   0  0  0  0  0  0  0  0  0  0  0  0
   14.2071   -2.4691   20.6776 H   0  0  0  0  0  0  0  0  0  0  0  0
   13.8766   -0.2507   25.0896 H   0  0  0  0  0  0  0  0  0  0  0  0
    9.7317   -0.8961   25.8959 H   0  0  0  0  0  0  0  0  0  0  0  0
    8.1496   -2.7592   26.0034 H   0  0  0  0  0  0  0  0  0  0  0  0
    8.8390   -3.6003   21.8454 H   0  0  0  0  0  0  0  0  0  0  0  0
    8.1780   -0.5130   18.3349 H   0  0  0  0  0  0  0  0  0  0  0  0
    6.6236   -0.9154   19.1036 H   0  0  0  0  0  0  0  0  0  0  0  0
   12.1545   -1.4687   20.1232 H   0  0  0  0  0  0  0  0  0  0  0  0
   10.0987   -1.8402   19.3550 H   0  0  0  0  0  0  0  0  0  0  0  0
  1  2  1  0  0  0  0
  1  3  2  0  0  0  0
  2  4  2  0  0  0  0
  3  9  1  0  0  0  0
  4 11  1  0  0  0  0
  5  6  2  0  0  0  0
  5 10  1  0  0  0  0
  6 12  1  0  0  0  0
  7  8  1  0  0  0  0
  7 12  2  0  0  0  0
  8 10  2  0  0  0  0
  8 13  1  0  0  0  0
  9 11  2  0  0  0  0
  9 16  1  0  0  0  0
 10 19  1  0  0  0  0
 11 19  1  0  0  0  0
 12 20  1  0  0  0  0
 13 16  2  0  0  0  0
 13 17  1  0  0  0  0
 14 15  1  0  0  0  0
 14 17  1  0  0  0  0
 14 18  2  0  0  0  0
 15 21  1  0  0  0  0
  1 22  1  0  0  0  0
  2 23  1  0  0  0  0
  3 24  1  0  0  0  0
  4 25  1  0  0  0  0
  5 26  1  0  0  0  0
  6 27  1  0  0  0  0
  7 28  1  0  0  0  0
 15 29  1  0  0  0  0
 15 30  1  0  0  0  0
 16 31  1  0  0  0  0
 17 32  1  0  0  0  0
M  CHG  1  16   1
M  END
> <creator>
Avinash Punekar, University of Dundee

> <fragments>
x1382

> <real_space>
FALSE

> <SCR>
FALSE

> <BB>
FALSE

> <link>
https://covid.postera.ai/covid/submissions/a66764d4-9e84-45cf-b096-f27dd30ef425

> <covalent_frag>
TRUE

> <covalent_warhead>
TRUE

> <acrylamide>
FALSE

> <acrylamide_adduct>
FALSE

> <chloroacetamide>
TRUE

> <chloroacetamide_adduct>
FALSE

> <vinylsulfonamide>
FALSE

> <vinylsulfonamide_adduct>
FALSE

> <in_molport_or_mcule>
FALSE

> <in_emolecules>
FALSE

> <Hybrid2>
-7.383278

> <Mpro-x1382_dock>
-7.383278

> <site>
active-covalent

> <covalent_distance_min>
3.5350702

> <covalent_distance_mean>
5.267934

> <covalent_distance_stderr>
0.08233973

$$$$
KAT-FAI-9b6-1
  -OEChem-04062011563D

 46 48  0     1  0  0  0  0  0999 V2000
    9.2890   -0.5553   24.7416 C   0  0  0  0  0  0  0  0  0  0  0  0
   12.6535    0.2532   23.3894 C   0  0  0  0  0  0  0  0  0  0  0  0
   12.7116   -0.5775   22.2705 C   0  0  0  0  0  0  0  0  0  0  0  0
    8.0637   -4.2035   26.5823 C   0  0  0  0  0  0  0  0  0  0  0  0
   11.5183    0.2533   24.1999 C   0  0  0  0  0  0  0  0  0  0  0  0
    8.9085   -4.1109   25.4763 C   0  0  0  0  0  0  0  0  0  0  0  0
    6.7106   -3.8897   26.4547 C   0  0  0  0  0  0  0  0  0  0  0  0
   11.6343   -1.4082   21.9619 C   0  0  0  0  0  0  0  0  0  0  0  0
    7.0470   -3.3907   24.1149 C   0  0  0  0  0  0  0  0  0  0  0  0
   10.4410   -0.5773   23.8913 C   0  0  0  0  0  0  0  0  0  0  0  0
    8.4001   -3.7045   24.2425 C   0  0  0  0  0  0  0  0  0  0  0  0
    6.2022   -3.4833   25.2210 C   0  0  0  0  0  0  0  0  0  0  0  0
   10.4990   -1.4081   22.7723 C   0  0  0  0  0  0  0  0  0  0  0  0
    6.6752   -4.8447   20.8285 C   0  0  0  0  0  0  0  0  0  0  0  0
    8.3560   -1.7887   21.5529 C   0  0  0  0  0  0  0  0  0  0  0  0
    8.0584   -2.8267   20.4805 C   0  0  0  0  0  0  0  0  0  0  0  0
    8.9682   -4.6071   21.9036 C   0  0  0  0  0  0  0  0  0  0  0  0
    9.3267   -3.6047   23.0299 C   0  0  1  0  0  0  0  0  0  0  0  0
    4.7554   -3.1472   25.0848 C   0  0  0  0  0  0  0  0  0  0  0  0
    6.1880   -5.7658   21.9182 C   0  0  0  0  0  0  0  0  0  0  0  0
    8.3554   -0.5376   25.4308 N   0  0  0  0  0  0  0  0  0  0  0  0
    9.4364   -2.2493   22.4399 N   0  0  3  0  0  0  0  0  0  0  0  0
    7.8493   -4.1384   21.0835 N   0  0  0  0  0  0  0  0  0  0  0  0
    6.0285   -4.7563   19.7814 O   0  0  0  0  0  0  0  0  0  0  0  0
    6.1295   -7.4525   21.2916 S   0  0  0  0  0  0  0  0  0  0  0  0
   13.4922    0.9003   23.6294 H   0  0  0  0  0  0  0  0  0  0  0  0
   13.5954   -0.5770   21.6393 H   0  0  0  0  0  0  0  0  0  0  0  0
    8.4597   -4.5201   27.5430 H   0  0  0  0  0  0  0  0  0  0  0  0
   11.4895    0.9072   25.0686 H   0  0  0  0  0  0  0  0  0  0  0  0
    9.9614   -4.3579   25.5851 H   0  0  0  0  0  0  0  0  0  0  0  0
    6.0599   -3.9640   27.3221 H   0  0  0  0  0  0  0  0  0  0  0  0
   11.6914   -2.0502   21.0865 H   0  0  0  0  0  0  0  0  0  0  0  0
    6.6499   -3.0747   23.1531 H   0  0  0  0  0  0  0  0  0  0  0  0
    8.6018   -0.8208   21.0932 H   0  0  0  0  0  0  0  0  0  0  0  0
    7.4585   -1.6154   22.1636 H   0  0  0  0  0  0  0  0  0  0  0  0
    7.1678   -2.5489   19.9317 H   0  0  0  0  0  0  0  0  0  0  0  0
    8.8930   -2.9028   19.7937 H   0  0  0  0  0  0  0  0  0  0  0  0
    9.8515   -4.7917   21.2792 H   0  0  0  0  0  0  0  0  0  0  0  0
    8.6767   -5.5825   22.3179 H   0  0  0  0  0  0  0  0  0  0  0  0
   10.3613   -3.9087   23.3864 H   0  0  0  0  0  0  0  0  0  0  0  0
    4.5902   -2.0821   25.2880 H   0  0  0  0  0  0  0  0  0  0  0  0
    4.3882   -3.3699   24.0747 H   0  0  0  0  0  0  0  0  0  0  0  0
    4.1430   -3.7337   25.7820 H   0  0  0  0  0  0  0  0  0  0  0  0
    5.1977   -5.4470   22.2282 H   0  0  0  0  0  0  0  0  0  0  0  0
    6.8661   -5.7007   22.7635 H   0  0  0  0  0  0  0  0  0  0  0  0
    5.2567   -7.2211   20.2993 H   0  0  0  0  0  0  0  0  0  0  0  0
  1 10  1  0  0  0  0
  1 21  3  0  0  0  0
  2  3  1  0  0  0  0
  2  5  2  0  0  0  0
  3  8  2  0  0  0  0
  4  6  1  0  0  0  0
  4  7  2  0  0  0  0
  5 10  1  0  0  0  0
  6 11  2  0  0  0  0
  7 12  1  0  0  0  0
  8 13  1  0  0  0  0
  9 11  1  0  0  0  0
  9 12  2  0  0  0  0
 10 13  2  0  0  0  0
 11 18  1  0  0  0  0
 12 19  1  0  0  0  0
 13 22  1  0  0  0  0
 14 20  1  0  0  0  0
 14 23  1  0  0  0  0
 14 24  2  0  0  0  0
 15 16  1  0  0  0  0
 15 22  1  0  0  0  0
 16 23  1  0  0  0  0
 17 18  1  0  0  0  0
 17 23  1  0  0  0  0
 18 22  1  0  0  0  0
 20 25  1  0  0  0  0
  2 26  1  0  0  0  0
  3 27  1  0  0  0  0
  4 28  1  0  0  0  0
  5 29  1  0  0  0  0
  6 30  1  0  0  0  0
  7 31  1  0  0  0  0
  8 32  1  0  0  0  0
  9 33  1  0  0  0  0
 15 34  1  0  0  0  0
 15 35  1  0  0  0  0
 16 36  1  0  0  0  0
 16 37  1  0  0  0  0
 17 38  1  0  0  0  0
 17 39  1  0  0  0  0
 18 40  1  0  0  0  0
 19 41  1  0  0  0  0
 19 42  1  0  0  0  0
 19 43  1  0  0  0  0
 20 44  1  0  0  0  0
 20 45  1  0  0  0  0
 25 46  1  0  0  0  0
M  END
> <creator>
Kathleen Frey, Fairleigh Dickinson University

> <fragments>
x0708

> <real_space>
FALSE

> <SCR>
FALSE

> <BB>
FALSE

> <link>
https://covid.postera.ai/covid/submissions/9b65c29e-39dc-40b1-b388-d5c5a2718f9c

> <covalent_frag>
TRUE

> <covalent_warhead>
TRUE

> <acrylamide>
FALSE

> <acrylamide_adduct>
FALSE

> <chloroacetamide>
FALSE

> <chloroacetamide_adduct>
TRUE

> <vinylsulfonamide>
FALSE

> <vinylsulfonamide_adduct>
FALSE

> <in_molport_or_mcule>
FALSE

> <in_emolecules>
FALSE

> <Hybrid2>
-7.361490

> <Mpro-x0708_dock>
-7.36149

> <Mpro-x0689_dock>
-0.402429

> <site>
active-covalent

> <covalent_distance_min>
3.373845

> <covalent_distance_mean>
4.306037

> <covalent_distance_stderr>
0.033893652

$$$$
WAL-WAB-df1-1
  -OEChem-04062011563D

 41 43  0     0  0  0  0  0  0999 V2000
   13.6392   -1.9648   23.3427 C   0  0  0  0  0  0  0  0  0  0  0  0
    8.6094   -3.1184   26.8160 C   0  0  0  0  0  0  0  0  0  0  0  0
   12.3856   -2.5214   23.1140 C   0  0  0  0  0  0  0  0  0  0  0  0
    8.1026   -2.3044   25.8030 C   0  0  0  0  0  0  0  0  0  0  0  0
    8.2259   -4.4574   26.8922 C   0  0  0  0  0  0  0  0  0  0  0  0
   13.7667   -0.6624   23.8320 C   0  0  0  0  0  0  0  0  0  0  0  0
    6.8288   -4.1683   24.9424 C   0  0  0  0  0  0  0  0  0  0  0  0
   11.2245   -1.7862   23.3700 C   0  0  0  0  0  0  0  0  0  0  0  0
    7.2123   -2.8293   24.8662 C   0  0  0  0  0  0  0  0  0  0  0  0
   11.3251   -0.4678   23.8649 C   0  0  0  0  0  0  0  0  0  0  0  0
    7.3356   -4.9823   25.9554 C   0  0  0  0  0  0  0  0  0  0  0  0
   12.5963    0.0703   24.0871 C   0  0  0  0  0  0  0  0  0  0  0  0
   10.7293    1.5248   24.6007 C   0  0  0  0  0  0  0  0  0  0  0  0
    9.9225   -2.3838   23.1244 C   0  0  0  0  0  0  0  0  0  0  0  0
    8.6092    2.7457   25.0220 C   0  0  0  0  0  0  0  0  0  0  0  0
    6.6649   -1.9477   23.7708 C   0  0  0  0  0  0  0  0  0  0  0  0
    8.1559    4.1076   25.4945 C   0  0  0  0  0  0  0  0  0  0  0  0
    7.5288   -1.9561   22.5120 C   0  0  0  0  0  0  0  0  0  0  0  0
   10.2661    0.3770   24.1639 N   0  0  0  0  0  0  0  0  0  0  0  0
   10.0088    2.6197   24.9981 N   0  0  0  0  0  0  0  0  0  0  0  0
    8.8825   -1.5179   22.7654 N   0  0  0  0  0  0  0  0  0  0  0  0
    9.7554   -3.6100   23.2533 O   0  0  0  0  0  0  0  0  0  0  0  0
    7.7823    1.8999   24.6920 O   0  0  0  0  0  0  0  0  0  0  0  0
    6.9670   -6.2680   26.0287 F   0  0  0  0  0  0  0  0  0  0  0  0
   12.4307    1.6784   24.6864 S   0  0  0  0  0  0  0  0  0  0  0  0
    9.3966    5.2817   25.0278 Cl  0  0  0  0  0  0  0  0  0  0  0  0
   14.5329   -2.5487   23.1376 H   0  0  0  0  0  0  0  0  0  0  0  0
    9.3030   -2.7099   27.5452 H   0  0  0  0  0  0  0  0  0  0  0  0
   12.3181   -3.5380   22.7338 H   0  0  0  0  0  0  0  0  0  0  0  0
    8.4069   -1.2622   25.7517 H   0  0  0  0  0  0  0  0  0  0  0  0
    8.6201   -5.0908   27.6811 H   0  0  0  0  0  0  0  0  0  0  0  0
   14.7488   -0.2350   24.0097 H   0  0  0  0  0  0  0  0  0  0  0  0
    6.1364   -4.5864   24.2169 H   0  0  0  0  0  0  0  0  0  0  0  0
    6.5919   -0.9218   24.1535 H   0  0  0  0  0  0  0  0  0  0  0  0
    5.6392   -2.2525   23.5269 H   0  0  0  0  0  0  0  0  0  0  0  0
    8.0150    4.1547   26.5773 H   0  0  0  0  0  0  0  0  0  0  0  0
    7.2140    4.3684   25.0037 H   0  0  0  0  0  0  0  0  0  0  0  0
    7.5957   -2.9729   22.1124 H   0  0  0  0  0  0  0  0  0  0  0  0
    7.1128   -1.3096   21.7322 H   0  0  0  0  0  0  0  0  0  0  0  0
   10.5499    3.4372   25.3128 H   0  0  0  0  0  0  0  0  0  0  0  0
    9.0574   -0.5188   22.7359 H   0  0  0  0  0  0  0  0  0  0  0  0
  1  3  1  0  0  0  0
  1  6  2  0  0  0  0
  2  4  2  0  0  0  0
  2  5  1  0  0  0  0
  3  8  2  0  0  0  0
  4  9  1  0  0  0  0
  5 11  2  0  0  0  0
  6 12  1  0  0  0  0
  7  9  2  0  0  0  0
  7 11  1  0  0  0  0
  8 10  1  0  0  0  0
  8 14  1  0  0  0  0
  9 16  1  0  0  0  0
 10 12  2  0  0  0  0
 10 19  1  0  0  0  0
 11 24  1  0  0  0  0
 12 25  1  0  0  0  0
 13 19  2  0  0  0  0
 13 20  1  0  0  0  0
 13 25  1  0  0  0  0
 14 21  1  0  0  0  0
 14 22  2  0  0  0  0
 15 17  1  0  0  0  0
 15 20  1  0  0  0  0
 15 23  2  0  0  0  0
 16 18  1  0  0  0  0
 17 26  1  0  0  0  0
 18 21  1  0  0  0  0
  1 27  1  0  0  0  0
  2 28  1  0  0  0  0
  3 29  1  0  0  0  0
  4 30  1  0  0  0  0
  5 31  1  0  0  0  0
  6 32  1  0  0  0  0
  7 33  1  0  0  0  0
 16 34  1  0  0  0  0
 16 35  1  0  0  0  0
 17 36  1  0  0  0  0
 17 37  1  0  0  0  0
 18 38  1  0  0  0  0
 18 39  1  0  0  0  0
 20 40  1  0  0  0  0
 21 41  1  0  0  0  0
M  END
> <creator>
Walter Novak, Wabash College

> <fragments>
x0072

> <real_space>
FALSE

> <SCR>
FALSE

> <BB>
FALSE

> <link>
https://covid.postera.ai/covid/submissions/df110a02-5e29-4376-b131-9bc605243968

> <covalent_frag>
TRUE

> <covalent_warhead>
TRUE

> <acrylamide>
FALSE

> <acrylamide_adduct>
FALSE

> <chloroacetamide>
TRUE

> <chloroacetamide_adduct>
FALSE

> <vinylsulfonamide>
FALSE

> <vinylsulfonamide_adduct>
FALSE

> <in_molport_or_mcule>
FALSE

> <in_emolecules>
FALSE

> <Hybrid2>
-7.359375

> <Mpro-x0072_dock>
-7.359375

> <Mpro-x1334_dock>
-4.624845

> <Mpro-x0692_dock>
-4.111686

> <Mpro-x1348_dock>
-3.879507

> <Mpro-x1382_dock>
-0.726502

> <site>
active-noncovalent

> <covalent_distance_min>
10.2232895

> <covalent_distance_mean>
11.112113

> <covalent_distance_stderr>
0.01994506

$$$$
MAK-UNK-af8-17
  -OEChem-04062011563D

 64 66  0     1  0  0  0  0  0999 V2000
   10.8869   -1.5601   24.3483 C   0  0  0  0  0  0  0  0  0  0  0  0
   10.9866   -1.2806   21.9505 C   0  0  0  0  0  0  0  0  0  0  0  0
    9.5303   -1.8710   24.2557 C   0  0  0  0  0  0  0  0  0  0  0  0
    9.6300   -1.5916   21.8579 C   0  0  0  0  0  0  0  0  0  0  0  0
   12.6537    5.5790   22.6081 C   0  0  0  0  0  0  0  0  0  0  0  0
   13.3955    3.3239   22.1601 C   0  0  0  0  0  0  0  0  0  0  0  0
   11.8603    3.7523   23.9758 C   0  0  0  0  0  0  0  0  0  0  0  0
   11.6150   -1.2649   23.1957 C   0  0  0  0  0  0  0  0  0  0  0  0
   13.4127    4.6845   21.8536 C   0  0  0  0  0  0  0  0  0  0  0  0
   11.8775    5.1129   23.6693 C   0  0  0  0  0  0  0  0  0  0  0  0
   12.6193    2.8577   23.2212 C   0  0  0  0  0  0  0  0  0  0  0  0
    8.9018   -1.8868   23.0105 C   0  0  0  0  0  0  0  0  0  0  0  0
    6.3879    4.4377   21.9946 C   0  0  0  0  0  0  0  0  0  0  0  0
    7.5052    4.6844   24.2657 C   0  0  0  0  0  0  0  0  0  0  0  0
    7.7946    6.4032   22.5233 C   0  0  0  0  0  0  0  0  0  0  0  0
    9.0080    4.6544   24.5092 C   0  0  0  0  0  0  0  0  0  0  0  0
    9.3009    6.3978   22.7395 C   0  0  0  0  0  0  0  0  0  0  0  0
   14.2425    5.1830   20.7190 C   0  0  0  0  0  0  0  0  0  0  0  0
   13.9426   -1.9717   22.5624 C   0  0  0  0  0  0  0  0  0  0  0  0
   11.0612    6.0752   24.4808 C   0  0  0  0  0  0  0  0  0  0  0  0
    6.3347    2.9369   22.1296 C   0  0  0  0  0  0  0  0  0  0  0  0
   13.3555    0.5113   22.7994 C   0  0  0  0  0  0  0  0  0  0  0  0
   13.0947   -0.9249   23.2965 C   0  0  1  0  0  0  0  0  0  0  0  0
    7.2052    5.1173   22.8967 N   0  0  0  0  0  0  0  0  0  0  0  0
    6.5016   -0.7281   23.0467 N   0  0  0  0  0  0  0  0  0  0  0  0
   12.6020    1.4819   23.5312 N   0  0  0  0  0  0  0  0  0  0  0  0
    9.5921    6.0080   24.1714 N   0  3  0  0  0  0  0  0  0  0  0  0
    5.7243    4.9875   21.1118 O   0  0  0  0  0  0  0  0  0  0  0  0
    6.9402   -2.7838   21.5543 O   0  0  0  0  0  0  0  0  0  0  0  0
    6.8328   -3.0758   24.0545 O   0  0  0  0  0  0  0  0  0  0  0  0
    7.2044   -2.2781   22.8941 S   0  0  0  0  0  0  0  0  0  0  0  0
    7.9718    2.3487   21.8620 Cl  0  0  0  0  0  0  0  0  0  0  0  0
   11.3680   -1.5499   25.3227 H   0  0  0  0  0  0  0  0  0  0  0  0
   11.5458   -1.0515   21.0472 H   0  0  0  0  0  0  0  0  0  0  0  0
    8.9721   -2.0990   25.1599 H   0  0  0  0  0  0  0  0  0  0  0  0
    9.1502   -1.6006   20.8828 H   0  0  0  0  0  0  0  0  0  0  0  0
   12.6670    6.6398   22.3691 H   0  0  0  0  0  0  0  0  0  0  0  0
   13.9880    2.6277   21.5706 H   0  0  0  0  0  0  0  0  0  0  0  0
   11.2545    3.3906   24.8036 H   0  0  0  0  0  0  0  0  0  0  0  0
    7.0832    3.6947   24.4598 H   0  0  0  0  0  0  0  0  0  0  0  0
    7.0150    5.3886   24.9471 H   0  0  0  0  0  0  0  0  0  0  0  0
    7.3191    7.1732   23.1451 H   0  0  0  0  0  0  0  0  0  0  0  0
    7.5845    6.6624   21.4829 H   0  0  0  0  0  0  0  0  0  0  0  0
    9.2243    4.4597   25.5650 H   0  0  0  0  0  0  0  0  0  0  0  0
    9.5102    3.9056   23.8858 H   0  0  0  0  0  0  0  0  0  0  0  0
    9.8072    5.6796   22.0855 H   0  0  0  0  0  0  0  0  0  0  0  0
    9.7172    7.3979   22.5830 H   0  0  0  0  0  0  0  0  0  0  0  0
   15.2489    5.4447   21.0681 H   0  0  0  0  0  0  0  0  0  0  0  0
   14.3341    4.4258   19.9295 H   0  0  0  0  0  0  0  0  0  0  0  0
   13.7926    6.0712   20.2565 H   0  0  0  0  0  0  0  0  0  0  0  0
   13.7124   -1.9876   21.4923 H   0  0  0  0  0  0  0  0  0  0  0  0
   13.7738   -2.9803   22.9552 H   0  0  0  0  0  0  0  0  0  0  0  0
   15.0113   -1.7496   22.6625 H   0  0  0  0  0  0  0  0  0  0  0  0
   11.1662    5.8773   25.5530 H   0  0  0  0  0  0  0  0  0  0  0  0
   11.3737    7.1094   24.3002 H   0  0  0  0  0  0  0  0  0  0  0  0
    5.6680    2.5393   21.3728 H   0  0  0  0  0  0  0  0  0  0  0  0
    6.0079    2.6857   23.1321 H   0  0  0  0  0  0  0  0  0  0  0  0
   14.4203    0.7627   22.8693 H   0  0  0  0  0  0  0  0  0  0  0  0
   13.0774    0.5915   21.7416 H   0  0  0  0  0  0  0  0  0  0  0  0
   13.3816   -0.9697   24.3565 H   0  0  0  0  0  0  0  0  0  0  0  0
    6.0780   -0.3066   22.2111 H   0  0  0  0  0  0  0  0  0  0  0  0
    6.0069   -0.5069   23.9194 H   0  0  0  0  0  0  0  0  0  0  0  0
   12.0275    1.1970   24.3018 H   0  0  0  0  0  0  0  0  0  0  0  0
    9.1331    6.7016   24.7779 H   0  0  0  0  0  0  0  0  0  0  0  0
  1  3  2  0  0  0  0
  1  8  1  0  0  0  0
  2  4  1  0  0  0  0
  2  8  2  0  0  0  0
  3 12  1  0  0  0  0
  4 12  2  0  0  0  0
  5  9  1  0  0  0  0
  5 10  2  0  0  0  0
  6  9  2  0  0  0  0
  6 11  1  0  0  0  0
  7 10  1  0  0  0  0
  7 11  2  0  0  0  0
  8 23  1  0  0  0  0
  9 18  1  0  0  0  0
 10 20  1  0  0  0  0
 11 26  1  0  0  0  0
 12 31  1  0  0  0  0
 13 21  1  0  0  0  0
 13 24  1  0  0  0  0
 13 28  2  0  0  0  0
 14 16  1  0  0  0  0
 14 24  1  0  0  0  0
 15 17  1  0  0  0  0
 15 24  1  0  0  0  0
 16 27  1  0  0  0  0
 17 27  1  0  0  0  0
 19 23  1  0  0  0  0
 20 27  1  0  0  0  0
 21 32  1  0  0  0  0
 22 23  1  0  0  0  0
 22 26  1  0  0  0  0
 25 31  1  0  0  0  0
 29 31  2  0  0  0  0
 30 31  2  0  0  0  0
  1 33  1  0  0  0  0
  2 34  1  0  0  0  0
  3 35  1  0  0  0  0
  4 36  1  0  0  0  0
  5 37  1  0  0  0  0
  6 38  1  0  0  0  0
  7 39  1  0  0  0  0
 14 40  1  0  0  0  0
 14 41  1  0  0  0  0
 15 42  1  0  0  0  0
 15 43  1  0  0  0  0
 16 44  1  0  0  0  0
 16 45  1  0  0  0  0
 17 46  1  0  0  0  0
 17 47  1  0  0  0  0
 18 48  1  0  0  0  0
 18 49  1  0  0  0  0
 18 50  1  0  0  0  0
 19 51  1  0  0  0  0
 19 52  1  0  0  0  0
 19 53  1  0  0  0  0
 20 54  1  0  0  0  0
 20 55  1  0  0  0  0
 21 56  1  0  0  0  0
 21 57  1  0  0  0  0
 22 58  1  0  0  0  0
 22 59  1  0  0  0  0
 23 60  1  0  0  0  0
 25 61  1  0  0  0  0
 25 62  1  0  0  0  0
 26 63  1  0  0  0  0
 27 64  1  0  0  0  0
M  CHG  1  27   1
M  END
> <creator>
Maksym Voznyy

> <fragments>
x0195

> <real_space>
FALSE

> <SCR>
FALSE

> <BB>
FALSE

> <link>
https://covid.postera.ai/covid/submissions/af83ef51-35cf-489e-b3bd-9012d86d8275

> <covalent_frag>
TRUE

> <covalent_warhead>
TRUE

> <acrylamide>
FALSE

> <acrylamide_adduct>
FALSE

> <chloroacetamide>
TRUE

> <chloroacetamide_adduct>
FALSE

> <vinylsulfonamide>
FALSE

> <vinylsulfonamide_adduct>
FALSE

> <in_molport_or_mcule>
FALSE

> <in_emolecules>
FALSE

> <Hybrid2>
-7.316123

> <Mpro-x0195_dock>
-7.316123

> <Mpro-x0072_dock>
-6.749164

> <Mpro-x0161_dock>
-6.323732

> <Mpro-x0104_dock>
-6.306612

> <Mpro-x0387_dock>
-5.806719

> <Mpro-x0305_dock>
-2.526579

> <Mpro-x0692_dock>
-1.049195

> <site>
active-noncovalent

> <covalent_distance_min>
5.8446503

> <covalent_distance_mean>
7.473277

> <covalent_distance_stderr>
0.14390008

$$$$
MAK-UNK-af8-20
  -OEChem-04062011563D

 56 57  0     1  0  0  0  0  0999 V2000
    9.7420    5.9137   26.4092 C   0  0  0  0  0  0  0  0  0  0  0  0
   13.1645   -1.1235   23.8372 C   0  0  0  0  0  0  0  0  0  0  0  0
   12.0787   -1.9210   23.4759 C   0  0  0  0  0  0  0  0  0  0  0  0
   12.9782    0.2356   24.0898 C   0  0  0  0  0  0  0  0  0  0  0  0
   10.6202   -0.0002   23.6197 C   0  0  0  0  0  0  0  0  0  0  0  0
   10.8065   -1.3594   23.3671 C   0  0  0  0  0  0  0  0  0  0  0  0
   11.7061    0.7972   23.9810 C   0  0  0  0  0  0  0  0  0  0  0  0
    6.3790   -5.2451   26.2791 C   0  0  0  0  0  0  0  0  0  0  0  0
    8.4033   -3.8239   26.2186 C   0  0  0  0  0  0  0  0  0  0  0  0
    6.4515   -3.1150   24.8916 C   0  0  0  0  0  0  0  0  0  0  0  0
    9.3187   -3.6172   25.0208 C   0  0  0  0  0  0  0  0  0  0  0  0
    7.3384   -2.8957   23.6734 C   0  0  0  0  0  0  0  0  0  0  0  0
   11.8694    6.7109   22.1029 C   0  0  0  0  0  0  0  0  0  0  0  0
    9.6098    5.2671   25.1037 C   0  0  0  0  0  0  0  0  0  0  0  0
    9.6387   -2.2172   22.9780 C   0  0  0  0  0  0  0  0  0  0  0  0
    4.9730   -5.4753   25.7855 C   0  0  0  0  0  0  0  0  0  0  0  0
   12.8004    5.6295   22.6060 C   0  0  0  0  0  0  0  0  0  0  0  0
   10.4730    2.7777   23.5193 C   0  0  0  0  0  0  0  0  0  0  0  0
   10.8149    4.2556   23.3261 C   0  0  2  0  0  0  0  0  0  0  0  0
    9.8459    6.4266   27.4447 N   0  0  0  0  0  0  0  0  0  0  0  0
    7.0352   -4.1163   25.7906 N   0  0  0  0  0  0  0  0  0  0  0  0
    8.7344   -2.5404   24.1340 N   0  3  0  0  0  0  0  0  0  0  0  0
   12.1049    4.3159   22.5427 N   0  3  0  0  0  0  0  0  0  0  0  0
    6.8782   -6.0468   27.0729 O   0  0  0  0  0  0  0  0  0  0  0  0
   11.5242    2.1234   24.2281 O   0  0  0  0  0  0  0  0  0  0  0  0
   10.8863    4.8933   24.6026 O   0  0  0  0  0  0  0  0  0  0  0  0
    5.1062   -6.4288   24.3120 Cl  0  0  0  0  0  0  0  0  0  0  0  0
   14.1548   -1.5609   23.9223 H   0  0  0  0  0  0  0  0  0  0  0  0
   12.2337   -2.9788   23.2806 H   0  0  0  0  0  0  0  0  0  0  0  0
   13.8280    0.8514   24.3707 H   0  0  0  0  0  0  0  0  0  0  0  0
    9.6295    0.4404   23.5354 H   0  0  0  0  0  0  0  0  0  0  0  0
    8.7958   -4.6324   26.8434 H   0  0  0  0  0  0  0  0  0  0  0  0
    8.3679   -2.9211   26.8405 H   0  0  0  0  0  0  0  0  0  0  0  0
    6.3464   -2.1856   25.4644 H   0  0  0  0  0  0  0  0  0  0  0  0
    5.4518   -3.3998   24.5590 H   0  0  0  0  0  0  0  0  0  0  0  0
   10.3066   -3.2735   25.3439 H   0  0  0  0  0  0  0  0  0  0  0  0
    9.4225   -4.5282   24.4206 H   0  0  0  0  0  0  0  0  0  0  0  0
    7.4081   -3.7938   23.0495 H   0  0  0  0  0  0  0  0  0  0  0  0
    6.9697   -2.0573   23.0736 H   0  0  0  0  0  0  0  0  0  0  0  0
   11.6018    6.5235   21.0585 H   0  0  0  0  0  0  0  0  0  0  0  0
   10.9450    6.7415   22.6889 H   0  0  0  0  0  0  0  0  0  0  0  0
   12.3413    7.6975   22.1596 H   0  0  0  0  0  0  0  0  0  0  0  0
    9.0019    4.3611   25.1827 H   0  0  0  0  0  0  0  0  0  0  0  0
    9.1325    5.9316   24.3772 H   0  0  0  0  0  0  0  0  0  0  0  0
    9.0188   -1.7230   22.2223 H   0  0  0  0  0  0  0  0  0  0  0  0
    9.9721   -3.1742   22.5623 H   0  0  0  0  0  0  0  0  0  0  0  0
    4.5153   -4.5169   25.5685 H   0  0  0  0  0  0  0  0  0  0  0  0
    4.4224   -6.0279   26.5381 H   0  0  0  0  0  0  0  0  0  0  0  0
   13.0840    5.7930   23.6493 H   0  0  0  0  0  0  0  0  0  0  0  0
   13.6978    5.5480   21.9864 H   0  0  0  0  0  0  0  0  0  0  0  0
   10.3477    2.2776   22.5536 H   0  0  0  0  0  0  0  0  0  0  0  0
    9.5344    2.6580   24.0724 H   0  0  0  0  0  0  0  0  0  0  0  0
   10.0705    4.7394   22.6807 H   0  0  0  0  0  0  0  0  0  0  0  0
    8.6624   -1.6823   24.6981 H   0  0  0  0  0  0  0  0  0  0  0  0
   12.7413    3.5833   22.8856 H   0  0  0  0  0  0  0  0  0  0  0  0
   11.9145    4.0881   21.5570 H   0  0  0  0  0  0  0  0  0  0  0  0
  1 14  1  0  0  0  0
  1 20  3  0  0  0  0
  2  3  1  0  0  0  0
  2  4  2  0  0  0  0
  3  6  2  0  0  0  0
  4  7  1  0  0  0  0
  5  6  1  0  0  0  0
  5  7  2  0  0  0  0
  6 15  1  0  0  0  0
  7 25  1  0  0  0  0
  8 16  1  0  0  0  0
  8 21  1  0  0  0  0
  8 24  2  0  0  0  0
  9 11  1  0  0  0  0
  9 21  1  0  0  0  0
 10 12  1  0  0  0  0
 10 21  1  0  0  0  0
 11 22  1  0  0  0  0
 12 22  1  0  0  0  0
 13 17  1  0  0  0  0
 14 26  1  0  0  0  0
 15 22  1  0  0  0  0
 16 27  1  0  0  0  0
 17 23  1  0  0  0  0
 18 19  1  0  0  0  0
 18 25  1  0  0  0  0
 19 23  1  0  0  0  0
 19 26  1  0  0  0  0
  2 28  1  0  0  0  0
  3 29  1  0  0  0  0
  4 30  1  0  0  0  0
  5 31  1  0  0  0  0
  9 32  1  0  0  0  0
  9 33  1  0  0  0  0
 10 34  1  0  0  0  0
 10 35  1  0  0  0  0
 11 36  1  0  0  0  0
 11 37  1  0  0  0  0
 12 38  1  0  0  0  0
 12 39  1  0  0  0  0
 13 40  1  0  0  0  0
 13 41  1  0  0  0  0
 13 42  1  0  0  0  0
 14 43  1  0  0  0  0
 14 44  1  0  0  0  0
 15 45  1  0  0  0  0
 15 46  1  0  0  0  0
 16 47  1  0  0  0  0
 16 48  1  0  0  0  0
 17 49  1  0  0  0  0
 17 50  1  0  0  0  0
 18 51  1  0  0  0  0
 18 52  1  0  0  0  0
 19 53  1  0  0  0  0
 22 54  1  0  0  0  0
 23 55  1  0  0  0  0
 23 56  1  0  0  0  0
M  CHG  2  22   1  23   1
M  END
> <creator>
Maksym Voznyy

> <fragments>
x0072

> <real_space>
FALSE

> <SCR>
FALSE

> <BB>
FALSE

> <link>
https://covid.postera.ai/covid/submissions/af83ef51-35cf-489e-b3bd-9012d86d8275

> <covalent_frag>
TRUE

> <covalent_warhead>
TRUE

> <acrylamide>
FALSE

> <acrylamide_adduct>
FALSE

> <chloroacetamide>
TRUE

> <chloroacetamide_adduct>
FALSE

> <vinylsulfonamide>
FALSE

> <vinylsulfonamide_adduct>
FALSE

> <in_molport_or_mcule>
FALSE

> <in_emolecules>
FALSE

> <Hybrid2>
-7.310226

> <Mpro-x0072_dock>
-7.310226

> <Mpro-x0161_dock>
-6.661258

> <Mpro-x0195_dock>
-5.743536

> <Mpro-x0104_dock>
-4.680227

> <Mpro-x0387_dock>
-4.466464

> <Mpro-x0692_dock>
-4.199317

> <Mpro-x0305_dock>
-2.565701

> <site>
active-noncovalent

> <covalent_distance_min>
8.633455

> <covalent_distance_mean>
9.742001

> <covalent_distance_stderr>
0.077094726

$$$$
DAR-DIA-cab-6
  -OEChem-04062011563D

 53 56  0     1  0  0  0  0  0999 V2000
    7.3982   -4.7513   24.8562 C   0  0  0  0  0  0  0  0  0  0  0  0
    8.7668   -4.5043   24.8679 C   0  0  0  0  0  0  0  0  0  0  0  0
    6.5758   -4.0601   23.9689 C   0  0  0  0  0  0  0  0  0  0  0  0
    9.3127   -3.5543   24.0040 C   0  0  0  0  0  0  0  0  0  0  0  0
   12.2013    0.7201   23.8953 C   0  0  0  0  0  0  0  0  0  0  0  0
   11.4711   -0.9323   22.2725 C   0  0  0  0  0  0  0  0  0  0  0  0
    8.9627    1.0964   25.5475 C   0  0  0  0  0  0  0  0  0  0  0  0
   10.8983    0.7582   24.4301 C   0  0  0  0  0  0  0  0  0  0  0  0
    7.1142   -3.1111   23.0858 C   0  0  0  0  0  0  0  0  0  0  0  0
    8.4946   -2.8234   23.1243 C   0  0  0  0  0  0  0  0  0  0  0  0
   10.1714   -0.9115   22.7864 C   0  0  0  0  0  0  0  0  0  0  0  0
   10.2828    1.4799   25.4909 C   0  0  0  0  0  0  0  0  0  0  0  0
    9.9154   -0.0568   23.8645 C   0  0  0  0  0  0  0  0  0  0  0  0
   12.4720   -0.1300   22.8168 C   0  0  0  0  0  0  0  0  0  0  0  0
    6.4918   -1.8845   19.7283 C   0  0  0  0  0  0  0  0  0  0  0  0
   11.5837    4.1392   23.2905 C   0  0  0  0  0  0  0  0  0  0  0  0
    6.1862   -2.4024   22.1301 C   0  0  0  0  0  0  0  0  0  0  0  0
    8.0341   -0.9142   21.4980 C   0  0  0  0  0  0  0  0  0  0  0  0
    9.1025   -1.8017   22.1664 C   0  0  2  0  0  0  0  0  0  0  0  0
   12.6091    3.9555   22.2214 C   0  0  0  0  0  0  0  0  0  0  0  0
   10.9342    2.4649   26.3778 C   0  0  0  0  0  0  0  0  0  0  0  0
    7.2968   -1.1574   18.6809 C   0  0  0  0  0  0  0  0  0  0  0  0
   11.1704    3.8385   25.7239 C   0  0  0  0  0  0  0  0  0  0  0  0
    8.7506    0.1691   24.5628 N   0  0  0  0  0  0  0  0  0  0  0  0
    6.9065   -1.7314   21.0500 N   0  0  0  0  0  0  0  0  0  0  0  0
   11.9997    3.7457   24.5523 N   0  0  0  0  0  0  0  0  0  0  0  0
    5.5259   -2.5687   19.3807 O   0  0  0  0  0  0  0  0  0  0  0  0
   10.4878    4.6061   23.0028 O   0  0  0  0  0  0  0  0  0  0  0  0
   13.7088   -0.1721   22.3027 F   0  0  0  0  0  0  0  0  0  0  0  0
    6.5378    0.4156   18.4656 Cl  0  0  0  0  0  0  0  0  0  0  0  0
    6.9710   -5.4810   25.5371 H   0  0  0  0  0  0  0  0  0  0  0  0
    9.4128   -5.0523   25.5484 H   0  0  0  0  0  0  0  0  0  0  0  0
    5.5074   -4.2618   23.9689 H   0  0  0  0  0  0  0  0  0  0  0  0
   10.3886   -3.3861   24.0169 H   0  0  0  0  0  0  0  0  0  0  0  0
   12.9926    1.3390   24.3083 H   0  0  0  0  0  0  0  0  0  0  0  0
   11.7139   -1.5821   21.4346 H   0  0  0  0  0  0  0  0  0  0  0  0
    8.1546    1.3982   26.1994 H   0  0  0  0  0  0  0  0  0  0  0  0
    5.5247   -3.1323   21.6650 H   0  0  0  0  0  0  0  0  0  0  0  0
    5.5941   -1.6834   22.6885 H   0  0  0  0  0  0  0  0  0  0  0  0
    7.7072   -0.1254   22.1729 H   0  0  0  0  0  0  0  0  0  0  0  0
    8.4481   -0.4409   20.6060 H   0  0  0  0  0  0  0  0  0  0  0  0
    9.6095   -2.3576   21.3367 H   0  0  0  0  0  0  0  0  0  0  0  0
   12.5456    2.9647   21.7436 H   0  0  0  0  0  0  0  0  0  0  0  0
   12.4960    4.6822   21.4009 H   0  0  0  0  0  0  0  0  0  0  0  0
   13.6560    4.0517   22.5510 H   0  0  0  0  0  0  0  0  0  0  0  0
   11.9149    2.0787   26.7194 H   0  0  0  0  0  0  0  0  0  0  0  0
   10.3542    2.6126   27.3112 H   0  0  0  0  0  0  0  0  0  0  0  0
    7.2575   -1.7200   17.7555 H   0  0  0  0  0  0  0  0  0  0  0  0
    8.3116   -1.0356   19.0410 H   0  0  0  0  0  0  0  0  0  0  0  0
   10.2250    4.2898   25.4065 H   0  0  0  0  0  0  0  0  0  0  0  0
   11.6598    4.5261   26.4214 H   0  0  0  0  0  0  0  0  0  0  0  0
    7.8669   -0.2844   24.3766 H   0  0  0  0  0  0  0  0  0  0  0  0
   12.9416    3.3714   24.6556 H   0  0  0  0  0  0  0  0  0  0  0  0
  1  2  1  0  0  0  0
  1  3  2  0  0  0  0
  2  4  2  0  0  0  0
  3  9  1  0  0  0  0
  4 10  1  0  0  0  0
  5  8  1  0  0  0  0
  5 14  2  0  0  0  0
  6 11  2  0  0  0  0
  6 14  1  0  0  0  0
  7 12  2  0  0  0  0
  7 24  1  0  0  0  0
  8 12  1  0  0  0  0
  8 13  2  0  0  0  0
  9 10  2  0  0  0  0
  9 17  1  0  0  0  0
 10 19  1  0  0  0  0
 11 13  1  0  0  0  0
 11 19  1  0  0  0  0
 12 21  1  0  0  0  0
 13 24  1  0  0  0  0
 14 29  1  0  0  0  0
 15 22  1  0  0  0  0
 15 25  1  0  0  0  0
 15 27  2  0  0  0  0
 16 20  1  0  0  0  0
 16 26  1  0  0  0  0
 16 28  2  0  0  0  0
 17 25  1  0  0  0  0
 18 19  1  0  0  0  0
 18 25  1  0  0  0  0
 21 23  1  0  0  0  0
 22 30  1  0  0  0  0
 23 26  1  0  0  0  0
  1 31  1  0  0  0  0
  2 32  1  0  0  0  0
  3 33  1  0  0  0  0
  4 34  1  0  0  0  0
  5 35  1  0  0  0  0
  6 36  1  0  0  0  0
  7 37  1  0  0  0  0
 17 38  1  0  0  0  0
 17 39  1  0  0  0  0
 18 40  1  0  0  0  0
 18 41  1  0  0  0  0
 19 42  1  0  0  0  0
 20 43  1  0  0  0  0
 20 44  1  0  0  0  0
 20 45  1  0  0  0  0
 21 46  1  0  0  0  0
 21 47  1  0  0  0  0
 22 48  1  0  0  0  0
 22 49  1  0  0  0  0
 23 50  1  0  0  0  0
 23 51  1  0  0  0  0
 24 52  1  0  0  0  0
 26 53  1  0  0  0  0
M  END
> <creator>
Daren Fearon, Diamond Light Source Ltd

> <fragments>
x0830

> <real_space>
FALSE

> <SCR>
FALSE

> <BB>
FALSE

> <link>
https://covid.postera.ai/covid/submissions/caba39e3-6989-456c-b896-1cac12e2588e

> <covalent_frag>
TRUE

> <covalent_warhead>
TRUE

> <acrylamide>
FALSE

> <acrylamide_adduct>
FALSE

> <chloroacetamide>
TRUE

> <chloroacetamide_adduct>
FALSE

> <vinylsulfonamide>
FALSE

> <vinylsulfonamide_adduct>
FALSE

> <in_molport_or_mcule>
FALSE

> <in_emolecules>
FALSE

> <Hybrid2>
-7.310155

> <Mpro-x0830_dock>
-7.310155

> <Mpro-x0195_dock>
-7.052263

> <Mpro-x1392_dock>
-6.476729

> <Mpro-x1249_dock>
-3.950525

> <Mpro-x0305_dock>
-2.188191

> <site>
active-covalent

> <covalent_distance_min>
3.0275252

> <covalent_distance_mean>
3.4942615

> <covalent_distance_stderr>
0.022457168

$$$$
DAV-CRI-eab-7
  -OEChem-04062011563D

 31 32  0     1  0  0  0  0  0999 V2000
   10.8210   -1.7996   22.4599 C   0  0  0  0  0  0  0  0  0  0  0  0
   11.9047   -0.1964   23.9273 C   0  0  0  0  0  0  0  0  0  0  0  0
    8.7767    1.0944   24.3677 C   0  0  0  0  0  0  0  0  0  0  0  0
   11.9641   -1.0238   22.8753 C   0  0  0  0  0  0  0  0  0  0  0  0
    9.6892   -1.8531   23.1857 C   0  0  0  0  0  0  0  0  0  0  0  0
    6.7059   -2.4846   21.1484 C   0  0  0  0  0  0  0  0  0  0  0  0
    8.2756   -0.2789   24.6441 C   0  0  0  0  0  0  0  0  0  0  0  0
   10.6537   -0.0265   24.7398 C   0  0  2  0  0  0  0  0  0  0  0  0
    9.5550   -1.0911   24.4966 C   0  0  2  0  0  0  0  0  0  0  0  0
    7.7266   -3.1588   23.9748 C   0  0  0  0  0  0  0  0  0  0  0  0
    6.0598   -1.4833   20.2253 C   0  0  0  0  0  0  0  0  0  0  0  0
    8.5556   -2.7508   22.7761 C   0  0  1  0  0  0  0  0  0  0  0  0
   10.0529    1.2857   24.4040 N   0  0  0  0  0  0  0  0  0  0  0  0
    7.8036   -1.9757   21.8329 N   0  0  0  0  0  0  0  0  0  0  0  0
    6.2695   -3.6275   21.2733 O   0  0  0  0  0  0  0  0  0  0  0  0
   13.4184   -1.1697   21.9561 Cl  0  0  0  0  0  0  0  0  0  0  0  0
    6.3065    0.1295   20.9129 Cl  0  0  0  0  0  0  0  0  0  0  0  0
   10.8913   -2.3443   21.5202 H   0  0  0  0  0  0  0  0  0  0  0  0
   12.7857    0.3662   24.2359 H   0  0  0  0  0  0  0  0  0  0  0  0
    8.0693    1.8938   24.1098 H   0  0  0  0  0  0  0  0  0  0  0  0
    7.8584   -0.3341   25.6535 H   0  0  0  0  0  0  0  0  0  0  0  0
    7.4952   -0.5239   23.9163 H   0  0  0  0  0  0  0  0  0  0  0  0
   10.9321   -0.0143   25.7937 H   0  0  0  0  0  0  0  0  0  0  0  0
    9.6222   -1.8107   25.3368 H   0  0  0  0  0  0  0  0  0  0  0  0
    7.3145   -2.2881   24.4979 H   0  0  0  0  0  0  0  0  0  0  0  0
    6.8851   -3.7874   23.6649 H   0  0  0  0  0  0  0  0  0  0  0  0
    8.3301   -3.7215   24.6947 H   0  0  0  0  0  0  0  0  0  0  0  0
    6.4858   -1.5039   19.2191 H   0  0  0  0  0  0  0  0  0  0  0  0
    4.9871   -1.6858   20.1631 H   0  0  0  0  0  0  0  0  0  0  0  0
    8.9644   -3.6197   22.2577 H   0  0  0  0  0  0  0  0  0  0  0  0
    8.0858   -1.0111   21.6569 H   0  0  0  0  0  0  0  0  0  0  0  0
  1  4  1  0  0  0  0
  1  5  2  0  0  0  0
  2  4  2  0  0  0  0
  2  8  1  0  0  0  0
  3  7  1  0  0  0  0
  3 13  2  0  0  0  0
  4 16  1  0  0  0  0
  5  9  1  0  0  0  0
  5 12  1  0  0  0  0
  6 11  1  0  0  0  0
  6 14  1  0  0  0  0
  6 15  2  0  0  0  0
  7  9  1  0  0  0  0
  8  9  1  0  0  0  0
  8 13  1  0  0  0  0
 10 12  1  0  0  0  0
 11 17  1  0  0  0  0
 12 14  1  0  0  0  0
  1 18  1  0  0  0  0
  2 19  1  0  0  0  0
  3 20  1  0  0  0  0
  7 21  1  0  0  0  0
  7 22  1  0  0  0  0
  8 23  1  0  0  0  0
  9 24  1  0  0  0  0
 10 25  1  0  0  0  0
 10 26  1  0  0  0  0
 10 27  1  0  0  0  0
 11 28  1  0  0  0  0
 11 29  1  0  0  0  0
 12 30  1  0  0  0  0
 14 31  1  0  0  0  0
M  END
> <creator>
David Briggs, Crick Institute

> <fragments>
x0831

> <real_space>
FALSE

> <SCR>
FALSE

> <BB>
FALSE

> <link>
https://covid.postera.ai/covid/submissions/eab5efcb-b199-4c70-afb4-8b9adb33206d

> <covalent_frag>
TRUE

> <covalent_warhead>
TRUE

> <acrylamide>
FALSE

> <acrylamide_adduct>
FALSE

> <chloroacetamide>
TRUE

> <chloroacetamide_adduct>
FALSE

> <vinylsulfonamide>
FALSE

> <vinylsulfonamide_adduct>
FALSE

> <in_molport_or_mcule>
FALSE

> <in_emolecules>
FALSE

> <Hybrid2>
-7.294122

> <Mpro-x0831_dock>
-7.294122

> <Mpro-x1382_dock>
-5.753086

> <site>
active-covalent

> <covalent_distance_min>
3.1564994

> <covalent_distance_mean>
3.5856557

> <covalent_distance_stderr>
0.022888277

$$$$
AGN-NEW-cce-2
  -OEChem-04062011563D

 39 40  0     0  0  0  0  0  0999 V2000
   12.9691   -0.5147   22.1753 C   0  0  0  0  0  0  0  0  0  0  0  0
    5.8454    0.6992   17.7444 C   0  0  0  0  0  0  0  0  0  0  0  0
   11.6216   -0.7812   21.9333 C   0  0  0  0  0  0  0  0  0  0  0  0
    6.7003    0.2078   18.7247 C   0  0  0  0  0  0  0  0  0  0  0  0
   13.3354    0.3372   23.2174 C   0  0  0  0  0  0  0  0  0  0  0  0
    4.7390    1.4259   18.1537 C   0  0  0  0  0  0  0  0  0  0  0  0
   10.6402   -0.1959   22.7334 C   0  0  0  0  0  0  0  0  0  0  0  0
    6.4265    0.4546   20.0654 C   0  0  0  0  0  0  0  0  0  0  0  0
   11.0065    0.6560   23.7754 C   0  0  0  0  0  0  0  0  0  0  0  0
   12.3541    0.9226   24.0174 C   0  0  0  0  0  0  0  0  0  0  0  0
    5.2942    1.1924   20.3708 C   0  0  0  0  0  0  0  0  0  0  0  0
    8.1945    4.0521   25.9856 C   0  0  0  0  0  0  0  0  0  0  0  0
    8.6000    2.8156   25.6798 C   0  0  0  0  0  0  0  0  0  0  0  0
    9.7508    2.6014   24.7550 C   0  0  0  0  0  0  0  0  0  0  0  0
    8.6444    0.2405   21.2403 C   0  0  0  0  0  0  0  0  0  0  0  0
    4.9453    1.4890   21.7935 C   0  0  0  0  0  0  0  0  0  0  0  0
    9.2054   -0.5026   22.4484 C   0  0  0  0  0  0  0  0  0  0  0  0
    4.4402    1.6861   19.4463 N   0  0  0  0  0  0  0  0  0  0  0  0
   10.0112    1.2399   24.5684 N   0  0  0  0  0  0  0  0  0  0  0  0
    7.2914   -0.0418   21.0696 N   0  0  0  0  0  0  0  0  0  0  0  0
   10.3496    3.5469   24.2562 O   0  0  0  0  0  0  0  0  0  0  0  0
    9.3432    0.9741   20.5485 O   0  0  0  0  0  0  0  0  0  0  0  0
   12.8560    1.9717   25.2955 Cl  0  0  0  0  0  0  0  0  0  0  0  0
   13.7332   -0.9712   21.5528 H   0  0  0  0  0  0  0  0  0  0  0  0
    6.0398    0.5190   16.6933 H   0  0  0  0  0  0  0  0  0  0  0  0
   11.3466   -1.4456   21.1182 H   0  0  0  0  0  0  0  0  0  0  0  0
    7.5756   -0.3665   18.4323 H   0  0  0  0  0  0  0  0  0  0  0  0
   14.3901    0.5361   23.3908 H   0  0  0  0  0  0  0  0  0  0  0  0
    4.0421    1.8312   17.4275 H   0  0  0  0  0  0  0  0  0  0  0  0
    7.3627    4.2465   26.6534 H   0  0  0  0  0  0  0  0  0  0  0  0
    8.7033    4.9106   25.5598 H   0  0  0  0  0  0  0  0  0  0  0  0
    8.0921    1.9569   26.1052 H   0  0  0  0  0  0  0  0  0  0  0  0
    5.4091    2.4304   22.1088 H   0  0  0  0  0  0  0  0  0  0  0  0
    3.8599    1.5716   21.9254 H   0  0  0  0  0  0  0  0  0  0  0  0
    5.2888    0.6885   22.4598 H   0  0  0  0  0  0  0  0  0  0  0  0
    9.0744   -1.5828   22.2778 H   0  0  0  0  0  0  0  0  0  0  0  0
    8.5844   -0.2553   23.3237 H   0  0  0  0  0  0  0  0  0  0  0  0
    9.3991    0.5909   25.0733 H   0  0  0  0  0  0  0  0  0  0  0  0
    6.8762   -0.6794   21.7458 H   0  0  0  0  0  0  0  0  0  0  0  0
  1  3  2  0  0  0  0
  1  5  1  0  0  0  0
  2  4  2  0  0  0  0
  2  6  1  0  0  0  0
  3  7  1  0  0  0  0
  4  8  1  0  0  0  0
  5 10  2  0  0  0  0
  6 18  2  0  0  0  0
  7  9  2  0  0  0  0
  7 17  1  0  0  0  0
  8 11  2  0  0  0  0
  8 20  1  0  0  0  0
  9 10  1  0  0  0  0
  9 19  1  0  0  0  0
 10 23  1  0  0  0  0
 11 16  1  0  0  0  0
 11 18  1  0  0  0  0
 12 13  2  0  0  0  0
 13 14  1  0  0  0  0
 14 19  1  0  0  0  0
 14 21  2  0  0  0  0
 15 17  1  0  0  0  0
 15 20  1  0  0  0  0
 15 22  2  0  0  0  0
  1 24  1  0  0  0  0
  2 25  1  0  0  0  0
  3 26  1  0  0  0  0
  4 27  1  0  0  0  0
  5 28  1  0  0  0  0
  6 29  1  0  0  0  0
 12 30  1  0  0  0  0
 12 31  1  0  0  0  0
 13 32  1  0  0  0  0
 16 33  1  0  0  0  0
 16 34  1  0  0  0  0
 16 35  1  0  0  0  0
 17 36  1  0  0  0  0
 17 37  1  0  0  0  0
 19 38  1  0  0  0  0
 20 39  1  0  0  0  0
M  END
> <creator>
Agnieszka K. Bronowska, Newcastle University

> <fragments>
x0434

> <real_space>
FALSE

> <SCR>
FALSE

> <BB>
FALSE

> <link>
https://covid.postera.ai/covid/submissions/cce853d0-9767-46b3-a896-595a9bb2325f

> <covalent_frag>
FALSE

> <covalent_warhead>
TRUE

> <acrylamide>
TRUE

> <acrylamide_adduct>
FALSE

> <chloroacetamide>
FALSE

> <chloroacetamide_adduct>
FALSE

> <vinylsulfonamide>
FALSE

> <vinylsulfonamide_adduct>
FALSE

> <in_molport_or_mcule>
FALSE

> <in_emolecules>
FALSE

> <Hybrid2>
-7.266014

> <Mpro-x0434_dock>
-7.266014

> <site>
active-noncovalent

> <covalent_distance_min>
8.326347

> <covalent_distance_mean>
8.90949

> <covalent_distance_stderr>
0.085607365

$$$$
MAK-UNK-e4a-1
  -OEChem-04062011563D

 41 42  0     1  0  0  0  0  0999 V2000
    5.1627   -4.7627   23.9599 C   0  0  0  0  0  0  0  0  0  0  0  0
    4.3144   -4.2416   23.0079 C   0  0  0  0  0  0  0  0  0  0  0  0
    6.6331   -3.4837   22.6932 C   0  0  0  0  0  0  0  0  0  0  0  0
    6.5059   -4.3236   23.7778 C   0  0  0  0  0  0  0  0  0  0  0  0
   11.6667   -0.2433   23.7852 C   0  0  0  0  0  0  0  0  0  0  0  0
    7.5758   -5.5295   25.7124 C   0  0  0  0  0  0  0  0  0  0  0  0
    9.6689   -0.9210   25.2015 C   0  0  0  0  0  0  0  0  0  0  0  0
   10.8220   -2.5668   23.7782 C   0  0  0  0  0  0  0  0  0  0  0  0
    9.6062   -1.9677   26.3154 C   0  0  0  0  0  0  0  0  0  0  0  0
   10.7428   -3.5792   24.9204 C   0  0  0  0  0  0  0  0  0  0  0  0
   12.2372   -0.5039   22.4140 C   0  0  0  0  0  0  0  0  0  0  0  0
    9.4712   -4.3188   26.8297 C   0  0  0  0  0  0  0  0  0  0  0  0
    8.9661   -5.6721   26.3222 C   0  0  1  0  0  0  0  0  0  0  0  0
   10.7765   -1.1947   24.2811 N   0  0  0  0  0  0  0  0  0  0  0  0
    9.5613   -3.3277   25.7583 N   0  0  0  0  0  0  0  0  0  0  0  0
    7.5966   -4.6930   24.6005 N   0  0  0  0  0  0  0  0  0  0  0  0
    8.9234   -6.6471   27.4510 N   0  3  0  0  0  0  0  0  0  0  0  0
   11.9996    0.7767   24.3940 O   0  0  0  0  0  0  0  0  0  0  0  0
    6.6019   -6.1002   26.1951 O   0  0  0  0  0  0  0  0  0  0  0  0
    5.1372   -3.2274   21.9002 S   0  0  0  0  0  0  0  0  0  0  0  0
   13.7326   -1.4008   22.6528 Cl  0  0  0  0  0  0  0  0  0  0  0  0
    4.8295   -5.4277   24.7470 H   0  0  0  0  0  0  0  0  0  0  0  0
    3.2508   -4.4069   22.9105 H   0  0  0  0  0  0  0  0  0  0  0  0
    7.5296   -3.0046   22.3242 H   0  0  0  0  0  0  0  0  0  0  0  0
    8.7472   -0.9386   24.6067 H   0  0  0  0  0  0  0  0  0  0  0  0
    9.7473    0.0728   25.6466 H   0  0  0  0  0  0  0  0  0  0  0  0
   11.7340   -2.7363   23.1966 H   0  0  0  0  0  0  0  0  0  0  0  0
    9.9722   -2.6892   23.0953 H   0  0  0  0  0  0  0  0  0  0  0  0
   10.4684   -1.8447   26.9843 H   0  0  0  0  0  0  0  0  0  0  0  0
    8.7031   -1.7820   26.9092 H   0  0  0  0  0  0  0  0  0  0  0  0
   10.6796   -4.5834   24.4839 H   0  0  0  0  0  0  0  0  0  0  0  0
   11.6650   -3.5384   25.5153 H   0  0  0  0  0  0  0  0  0  0  0  0
   12.4452    0.4454   21.9337 H   0  0  0  0  0  0  0  0  0  0  0  0
   11.5315   -1.1005   21.8475 H   0  0  0  0  0  0  0  0  0  0  0  0
    8.7893   -3.9303   27.5947 H   0  0  0  0  0  0  0  0  0  0  0  0
   10.4508   -4.4279   27.3110 H   0  0  0  0  0  0  0  0  0  0  0  0
    9.6485   -6.1042   25.5810 H   0  0  0  0  0  0  0  0  0  0  0  0
    8.5018   -4.3012   24.3495 H   0  0  0  0  0  0  0  0  0  0  0  0
    7.9573   -6.9027   27.6672 H   0  0  0  0  0  0  0  0  0  0  0  0
    9.3459   -6.2421   28.2896 H   0  0  0  0  0  0  0  0  0  0  0  0
    9.4365   -7.4979   27.2091 H   0  0  0  0  0  0  0  0  0  0  0  0
  1  2  2  0  0  0  0
  1  4  1  0  0  0  0
  2 20  1  0  0  0  0
  3  4  2  0  0  0  0
  3 20  1  0  0  0  0
  4 16  1  0  0  0  0
  5 11  1  0  0  0  0
  5 14  1  0  0  0  0
  5 18  2  0  0  0  0
  6 13  1  0  0  0  0
  6 16  1  0  0  0  0
  6 19  2  0  0  0  0
  7  9  1  0  0  0  0
  7 14  1  0  0  0  0
  8 10  1  0  0  0  0
  8 14  1  0  0  0  0
  9 15  1  0  0  0  0
 10 15  1  0  0  0  0
 11 21  1  0  0  0  0
 12 13  1  0  0  0  0
 12 15  1  0  0  0  0
 13 17  1  0  0  0  0
  1 22  1  0  0  0  0
  2 23  1  0  0  0  0
  3 24  1  0  0  0  0
  7 25  1  0  0  0  0
  7 26  1  0  0  0  0
  8 27  1  0  0  0  0
  8 28  1  0  0  0  0
  9 29  1  0  0  0  0
  9 30  1  0  0  0  0
 10 31  1  0  0  0  0
 10 32  1  0  0  0  0
 11 33  1  0  0  0  0
 11 34  1  0  0  0  0
 12 35  1  0  0  0  0
 12 36  1  0  0  0  0
 13 37  1  0  0  0  0
 16 38  1  0  0  0  0
 17 39  1  0  0  0  0
 17 40  1  0  0  0  0
 17 41  1  0  0  0  0
M  CHG  1  17   1
M  END
> <creator>
Maksym Voznyy

> <fragments>
x0387

> <real_space>
FALSE

> <SCR>
FALSE

> <BB>
FALSE

> <link>
https://covid.postera.ai/covid/submissions/e4a48a85-91ce-4c28-86d4-edf9997dafca

> <covalent_frag>
TRUE

> <covalent_warhead>
TRUE

> <acrylamide>
FALSE

> <acrylamide_adduct>
FALSE

> <chloroacetamide>
TRUE

> <chloroacetamide_adduct>
FALSE

> <vinylsulfonamide>
FALSE

> <vinylsulfonamide_adduct>
FALSE

> <in_molport_or_mcule>
FALSE

> <in_emolecules>
FALSE

> <Hybrid2>
-7.265724

> <Mpro-x0387_dock>
-7.265724

> <Mpro-x0692_dock>
-5.007765

> <site>
active-noncovalent

> <covalent_distance_min>
3.9919057

> <covalent_distance_mean>
5.850525

> <covalent_distance_stderr>
0.08408365

$$$$
DUN-NEW-f8c-22
  -OEChem-04062011563D

 37 38  0     1  0  0  0  0  0999 V2000
   13.3346   -0.3718   23.8897 C   0  0  0  0  0  0  0  0  0  0  0  0
   12.4575    0.4299   24.6201 C   0  0  0  0  0  0  0  0  0  0  0  0
   12.8844   -1.5673   23.3294 C   0  0  0  0  0  0  0  0  0  0  0  0
   11.1302    0.0362   24.7902 C   0  0  0  0  0  0  0  0  0  0  0  0
   11.5572   -1.9610   23.4995 C   0  0  0  0  0  0  0  0  0  0  0  0
   10.6800   -1.1593   24.2300 C   0  0  0  0  0  0  0  0  0  0  0  0
    7.1062   -4.3312   25.6433 C   0  0  0  0  0  0  0  0  0  0  0  0
    6.6068   -2.7196   23.8378 C   0  0  0  0  0  0  0  0  0  0  0  0
    6.8666   -1.2195   23.7898 C   0  0  0  0  0  0  0  0  0  0  0  0
    8.9828   -3.1084   24.4355 C   0  0  0  0  0  0  0  0  0  0  0  0
    9.2344   -1.5889   24.4152 C   0  0  2  0  0  0  0  0  0  0  0  0
    9.2505    0.6450   21.5445 C   0  0  0  0  0  0  0  0  0  0  0  0
    7.9111   -4.4724   26.9105 C   0  0  0  0  0  0  0  0  0  0  0  0
    7.5664   -3.4018   24.7096 N   0  0  0  0  0  0  0  0  0  0  0  0
    8.2898   -0.9495   23.4286 N   0  0  1  0  0  0  0  0  0  0  0  0
    6.0971   -5.0245   25.4904 O   0  0  0  0  0  0  0  0  0  0  0  0
    7.4386   -1.1627   21.0187 O   0  0  0  0  0  0  0  0  0  0  0  0
    9.7854   -1.9124   21.5810 O   0  0  0  0  0  0  0  0  0  0  0  0
    8.6689   -1.0156   21.7585 S   0  0  0  0  0  0  0  0  0  0  0  0
    6.7751   -4.9056   28.1832 Cl  0  0  0  0  0  0  0  0  0  0  0  0
   14.3677   -0.0644   23.7561 H   0  0  0  0  0  0  0  0  0  0  0  0
   12.8075    1.3613   25.0555 H   0  0  0  0  0  0  0  0  0  0  0  0
   13.5668   -2.1912   22.7597 H   0  0  0  0  0  0  0  0  0  0  0  0
   10.4540    0.6671   25.3611 H   0  0  0  0  0  0  0  0  0  0  0  0
   11.2153   -2.8941   23.0595 H   0  0  0  0  0  0  0  0  0  0  0  0
    5.5769   -2.9089   24.1675 H   0  0  0  0  0  0  0  0  0  0  0  0
    6.7114   -3.1617   22.8357 H   0  0  0  0  0  0  0  0  0  0  0  0
    6.2112   -0.7746   23.0326 H   0  0  0  0  0  0  0  0  0  0  0  0
    6.6376   -0.7597   24.7585 H   0  0  0  0  0  0  0  0  0  0  0  0
    9.2076   -3.5557   23.4592 H   0  0  0  0  0  0  0  0  0  0  0  0
    9.6401   -3.5883   25.1624 H   0  0  0  0  0  0  0  0  0  0  0  0
    8.9145   -1.1702   25.4370 H   0  0  0  0  0  0  0  0  0  0  0  0
    9.5423    0.7760   20.5013 H   0  0  0  0  0  0  0  0  0  0  0  0
    8.4414    1.3294   21.8040 H   0  0  0  0  0  0  0  0  0  0  0  0
   10.1067    0.7975   22.2032 H   0  0  0  0  0  0  0  0  0  0  0  0
    8.3792   -3.5213   27.1374 H   0  0  0  0  0  0  0  0  0  0  0  0
    8.6404   -5.2632   26.7773 H   0  0  0  0  0  0  0  0  0  0  0  0
  1  2  1  0  0  0  0
  1  3  2  0  0  0  0
  2  4  2  0  0  0  0
  3  5  1  0  0  0  0
  4  6  1  0  0  0  0
  5  6  2  0  0  0  0
  6 11  1  0  0  0  0
  7 13  1  0  0  0  0
  7 14  1  0  0  0  0
  7 16  2  0  0  0  0
  8  9  1  0  0  0  0
  8 14  1  0  0  0  0
  9 15  1  0  0  0  0
 10 11  1  0  0  0  0
 10 14  1  0  0  0  0
 11 15  1  0  0  0  0
 12 19  1  0  0  0  0
 13 20  1  0  0  0  0
 15 19  1  0  0  0  0
 17 19  2  0  0  0  0
 18 19  2  0  0  0  0
  1 21  1  0  0  0  0
  2 22  1  0  0  0  0
  3 23  1  0  0  0  0
  4 24  1  0  0  0  0
  5 25  1  0  0  0  0
  8 26  1  0  0  0  0
  8 27  1  0  0  0  0
  9 28  1  0  0  0  0
  9 29  1  0  0  0  0
 10 30  1  0  0  0  0
 10 31  1  0  0  0  0
 11 32  1  0  0  0  0
 12 33  1  0  0  0  0
 12 34  1  0  0  0  0
 12 35  1  0  0  0  0
 13 36  1  0  0  0  0
 13 37  1  0  0  0  0
M  END
> <creator>
Duncan Miller, Newcastle University

> <fragments>
x0072

> <real_space>
FALSE

> <SCR>
FALSE

> <BB>
FALSE

> <link>
https://covid.postera.ai/covid/submissions/f8ce3686-4774-4f4e-b96a-ab98611b1edd

> <covalent_frag>
TRUE

> <covalent_warhead>
TRUE

> <acrylamide>
FALSE

> <acrylamide_adduct>
FALSE

> <chloroacetamide>
TRUE

> <chloroacetamide_adduct>
FALSE

> <vinylsulfonamide>
FALSE

> <vinylsulfonamide_adduct>
FALSE

> <in_molport_or_mcule>
FALSE

> <in_emolecules>
FALSE

> <Hybrid2>
-7.261208

> <Mpro-x0072_dock>
-7.261208

> <Mpro-x1458_dock>
-3.659506

> <site>
active-noncovalent

> <covalent_distance_min>
9.583303

> <covalent_distance_mean>
10.480276

> <covalent_distance_stderr>
0.03720316

$$$$
MIH-UNI-e57-15
  -OEChem-04062011563D

 44 46  0     1  0  0  0  0  0999 V2000
    6.8741    0.3987   22.6434 C   0  0  0  0  0  0  0  0  0  0  0  0
    7.8585    0.9441   21.8193 C   0  0  0  0  0  0  0  0  0  0  0  0
    7.1175    0.2364   24.0072 C   0  0  0  0  0  0  0  0  0  0  0  0
    9.0864    1.3271   22.3590 C   0  0  0  0  0  0  0  0  0  0  0  0
    8.3454    0.6195   24.5470 C   0  0  0  0  0  0  0  0  0  0  0  0
   12.8425    3.9382   22.2246 C   0  0  0  0  0  0  0  0  0  0  0  0
   12.2876    5.1775   22.5429 C   0  0  0  0  0  0  0  0  0  0  0  0
   10.6981    4.0903   23.9958 C   0  0  0  0  0  0  0  0  0  0  0  0
    9.3298    1.1648   23.7229 C   0  0  0  0  0  0  0  0  0  0  0  0
   12.3285    2.7590   22.7850 C   0  0  0  0  0  0  0  0  0  0  0  0
   11.2502    2.8369   23.6858 C   0  0  0  0  0  0  0  0  0  0  0  0
   11.2151    5.2533   23.4267 C   0  0  0  0  0  0  0  0  0  0  0  0
   12.2735   -0.9987   22.3543 C   0  0  0  0  0  0  0  0  0  0  0  0
   12.9594    1.4401   22.4084 C   0  0  0  0  0  0  0  0  0  0  0  0
   11.6854    0.4286   24.2836 C   0  0  0  0  0  0  0  0  0  0  0  0
   10.6706    1.5827   24.3130 C   0  0  2  0  0  0  0  0  0  0  0  0
    8.4536    5.8461   22.3550 C   0  0  0  0  0  0  0  0  0  0  0  0
   11.0590   -1.8590   22.6005 C   0  0  0  0  0  0  0  0  0  0  0  0
   12.2735    0.2621   22.9552 N   0  0  0  0  0  0  0  0  0  0  0  0
   10.6458    6.5216   23.7518 N   0  0  0  0  0  0  0  0  0  0  0  0
   13.1933   -1.4358   21.6585 O   0  0  0  0  0  0  0  0  0  0  0  0
    8.4904    5.7749   24.9552 O   0  0  0  0  0  0  0  0  0  0  0  0
    8.4999    8.0194   23.8118 O   0  0  0  0  0  0  0  0  0  0  0  0
    8.9318    6.6372   23.8748 S   0  0  0  0  0  0  0  0  0  0  0  0
   11.4079   -2.8242   24.0301 Cl  0  0  0  0  0  0  0  0  0  0  0  0
    5.9176    0.1018   22.2232 H   0  0  0  0  0  0  0  0  0  0  0  0
    7.6688    1.0715   20.7575 H   0  0  0  0  0  0  0  0  0  0  0  0
    6.3509   -0.1871   24.6493 H   0  0  0  0  0  0  0  0  0  0  0  0
    9.8476    1.7510   21.7093 H   0  0  0  0  0  0  0  0  0  0  0  0
    8.5262    0.4892   25.6107 H   0  0  0  0  0  0  0  0  0  0  0  0
   13.6795    3.8945   21.5318 H   0  0  0  0  0  0  0  0  0  0  0  0
   12.7003    6.0776   22.0947 H   0  0  0  0  0  0  0  0  0  0  0  0
    9.8611    4.1547   24.6882 H   0  0  0  0  0  0  0  0  0  0  0  0
   12.9978    1.3711   21.3177 H   0  0  0  0  0  0  0  0  0  0  0  0
   13.9862    1.4100   22.7922 H   0  0  0  0  0  0  0  0  0  0  0  0
   12.5179    0.6418   24.9671 H   0  0  0  0  0  0  0  0  0  0  0  0
   11.2229   -0.5037   24.6270 H   0  0  0  0  0  0  0  0  0  0  0  0
   10.4757    1.8032   25.3974 H   0  0  0  0  0  0  0  0  0  0  0  0
    7.3642    5.8463   22.2946 H   0  0  0  0  0  0  0  0  0  0  0  0
    8.8827    6.4084   21.5243 H   0  0  0  0  0  0  0  0  0  0  0  0
    8.8361    4.8244   22.3635 H   0  0  0  0  0  0  0  0  0  0  0  0
   10.9069   -2.5043   21.7432 H   0  0  0  0  0  0  0  0  0  0  0  0
   10.2057   -1.2165   22.7835 H   0  0  0  0  0  0  0  0  0  0  0  0
   11.0982    7.3228   23.2813 H   0  0  0  0  0  0  0  0  0  0  0  0
  1  2  1  0  0  0  0
  1  3  2  0  0  0  0
  2  4  2  0  0  0  0
  3  5  1  0  0  0  0
  4  9  1  0  0  0  0
  5  9  2  0  0  0  0
  6  7  2  0  0  0  0
  6 10  1  0  0  0  0
  7 12  1  0  0  0  0
  8 11  1  0  0  0  0
  8 12  2  0  0  0  0
  9 16  1  0  0  0  0
 10 11  2  0  0  0  0
 10 14  1  0  0  0  0
 11 16  1  0  0  0  0
 12 20  1  0  0  0  0
 13 18  1  0  0  0  0
 13 19  1  0  0  0  0
 13 21  2  0  0  0  0
 14 19  1  0  0  0  0
 15 16  1  0  0  0  0
 15 19  1  0  0  0  0
 17 24  1  0  0  0  0
 18 25  1  0  0  0  0
 20 24  1  0  0  0  0
 22 24  2  0  0  0  0
 23 24  2  0  0  0  0
  1 26  1  0  0  0  0
  2 27  1  0  0  0  0
  3 28  1  0  0  0  0
  4 29  1  0  0  0  0
  5 30  1  0  0  0  0
  6 31  1  0  0  0  0
  7 32  1  0  0  0  0
  8 33  1  0  0  0  0
 14 34  1  0  0  0  0
 14 35  1  0  0  0  0
 15 36  1  0  0  0  0
 15 37  1  0  0  0  0
 16 38  1  0  0  0  0
 17 39  1  0  0  0  0
 17 40  1  0  0  0  0
 17 41  1  0  0  0  0
 18 42  1  0  0  0  0
 18 43  1  0  0  0  0
 20 44  1  0  0  0  0
M  END
> <creator>
Mihaela Smilova, University of Oxford

> <fragments>
x0104

> <real_space>
FALSE

> <SCR>
FALSE

> <BB>
FALSE

> <link>
https://covid.postera.ai/covid/submissions/e573136b-dbda-4fa9-8a0d-95e3d7d1615f

> <covalent_frag>
TRUE

> <covalent_warhead>
TRUE

> <acrylamide>
FALSE

> <acrylamide_adduct>
FALSE

> <chloroacetamide>
TRUE

> <chloroacetamide_adduct>
FALSE

> <vinylsulfonamide>
FALSE

> <vinylsulfonamide_adduct>
FALSE

> <in_molport_or_mcule>
FALSE

> <in_emolecules>
FALSE

> <Hybrid2>
-7.183770

> <Mpro-x0104_dock>
-7.18377

> <Mpro-x0874_dock>
-7.015887

> <Mpro-x0072_dock>
-4.962049

> <Mpro-x0678_dock>
-4.230817

> <Mpro-x0830_dock>
-3.940953

> <Mpro-x1093_dock>
-3.810109

> <Mpro-x0107_dock>
-3.809425

> <site>
active-noncovalent

> <covalent_distance_min>
3.6811755

> <covalent_distance_mean>
4.806705

> <covalent_distance_stderr>
0.07239117

$$$$
AGN-NEW-63f-1
  -OEChem-04062011563D

 48 50  0     1  0  0  0  0  0999 V2000
    5.8612    0.8934   17.8393 C   0  0  0  0  0  0  0  0  0  0  0  0
   11.6085    0.2817   22.0729 C   0  0  0  0  0  0  0  0  0  0  0  0
   12.8346    1.0580   24.0045 C   0  0  0  0  0  0  0  0  0  0  0  0
   10.5797    0.2287   24.2582 C   0  0  0  0  0  0  0  0  0  0  0  0
    4.7101    1.5021   18.3128 C   0  0  0  0  0  0  0  0  0  0  0  0
    5.2093    0.9571   20.4880 C   0  0  0  0  0  0  0  0  0  0  0  0
    6.7086    0.2946   18.7648 C   0  0  0  0  0  0  0  0  0  0  0  0
   12.7689    0.8169   22.6322 C   0  0  0  0  0  0  0  0  0  0  0  0
   10.5139   -0.0124   22.8859 C   0  0  0  0  0  0  0  0  0  0  0  0
    6.3837    0.3226   20.1165 C   0  0  0  0  0  0  0  0  0  0  0  0
   11.7400    0.7639   24.8175 C   0  0  0  0  0  0  0  0  0  0  0  0
    8.5743    0.1367   21.3026 C   0  0  0  0  0  0  0  0  0  0  0  0
    6.8297   -5.5897   25.0370 C   0  0  0  0  0  0  0  0  0  0  0  0
    6.0776   -4.4895   24.9360 C   0  0  0  0  0  0  0  0  0  0  0  0
    6.6298   -3.2543   24.3185 C   0  0  0  0  0  0  0  0  0  0  0  0
    8.8846   -1.8968   22.7955 C   0  0  0  0  0  0  0  0  0  0  0  0
    6.6267   -1.2646   22.0207 C   0  0  0  0  0  0  0  0  0  0  0  0
    7.5919   -2.4148   22.1934 C   0  0  2  0  0  0  0  0  0  0  0  0
    7.9562   -0.3695   18.2820 C   0  0  0  0  0  0  0  0  0  0  0  0
   13.9390    1.1321   21.7627 C   0  0  0  0  0  0  0  0  0  0  0  0
    4.3611    1.5496   19.6180 N   0  0  0  0  0  0  0  0  0  0  0  0
    9.3025   -0.5701   22.3020 N   0  0  0  0  0  0  0  0  0  0  0  0
    7.2297   -0.2836   21.1158 N   0  0  0  0  0  0  0  0  0  0  0  0
    7.0218   -3.4612   23.0052 N   0  0  0  0  0  0  0  0  0  0  0  0
    9.0697    1.0675   20.6588 O   0  0  0  0  0  0  0  0  0  0  0  0
    6.7171   -2.1935   24.9287 O   0  0  0  0  0  0  0  0  0  0  0  0
   11.8203    1.0630   26.5105 Cl  0  0  0  0  0  0  0  0  0  0  0  0
    6.0856    0.8889   16.7781 H   0  0  0  0  0  0  0  0  0  0  0  0
   11.5597    0.0948   21.0024 H   0  0  0  0  0  0  0  0  0  0  0  0
   13.7420    1.4753   24.4354 H   0  0  0  0  0  0  0  0  0  0  0  0
    9.7244   -0.0018   24.8903 H   0  0  0  0  0  0  0  0  0  0  0  0
    4.0159    1.9833   17.6316 H   0  0  0  0  0  0  0  0  0  0  0  0
    4.9016    1.0124   21.5281 H   0  0  0  0  0  0  0  0  0  0  0  0
    6.4202   -6.4867   25.4897 H   0  0  0  0  0  0  0  0  0  0  0  0
    7.8528   -5.6330   24.6802 H   0  0  0  0  0  0  0  0  0  0  0  0
    5.0578   -4.4885   25.3053 H   0  0  0  0  0  0  0  0  0  0  0  0
    8.7996   -1.8103   23.8986 H   0  0  0  0  0  0  0  0  0  0  0  0
    9.7078   -2.6132   22.5963 H   0  0  0  0  0  0  0  0  0  0  0  0
    5.6928   -1.6151   21.5927 H   0  0  0  0  0  0  0  0  0  0  0  0
    6.4364   -0.7607   22.9637 H   0  0  0  0  0  0  0  0  0  0  0  0
    7.7990   -2.8794   21.2099 H   0  0  0  0  0  0  0  0  0  0  0  0
    8.7853    0.3473   18.2635 H   0  0  0  0  0  0  0  0  0  0  0  0
    8.2345   -1.2094   18.9303 H   0  0  0  0  0  0  0  0  0  0  0  0
    7.8231   -0.7764   17.2719 H   0  0  0  0  0  0  0  0  0  0  0  0
   13.8724    2.1620   21.3913 H   0  0  0  0  0  0  0  0  0  0  0  0
   14.8838    1.0200   22.3101 H   0  0  0  0  0  0  0  0  0  0  0  0
   13.9889    0.4539   20.9008 H   0  0  0  0  0  0  0  0  0  0  0  0
    6.9391   -4.3876   22.5927 H   0  0  0  0  0  0  0  0  0  0  0  0
  1  5  2  0  0  0  0
  1  7  1  0  0  0  0
  2  8  2  0  0  0  0
  2  9  1  0  0  0  0
  3  8  1  0  0  0  0
  3 11  2  0  0  0  0
  4  9  2  0  0  0  0
  4 11  1  0  0  0  0
  5 21  1  0  0  0  0
  6 10  1  0  0  0  0
  6 21  2  0  0  0  0
  7 10  2  0  0  0  0
  7 19  1  0  0  0  0
  8 20  1  0  0  0  0
  9 22  1  0  0  0  0
 10 23  1  0  0  0  0
 11 27  1  0  0  0  0
 12 22  1  0  0  0  0
 12 23  1  0  0  0  0
 12 25  2  0  0  0  0
 13 14  2  0  0  0  0
 14 15  1  0  0  0  0
 15 24  1  0  0  0  0
 15 26  2  0  0  0  0
 16 18  1  0  0  0  0
 16 22  1  0  0  0  0
 17 18  1  0  0  0  0
 17 23  1  0  0  0  0
 18 24  1  0  0  0  0
  1 28  1  0  0  0  0
  2 29  1  0  0  0  0
  3 30  1  0  0  0  0
  4 31  1  0  0  0  0
  5 32  1  0  0  0  0
  6 33  1  0  0  0  0
 13 34  1  0  0  0  0
 13 35  1  0  0  0  0
 14 36  1  0  0  0  0
 16 37  1  0  0  0  0
 16 38  1  0  0  0  0
 17 39  1  0  0  0  0
 17 40  1  0  0  0  0
 18 41  1  0  0  0  0
 19 42  1  0  0  0  0
 19 43  1  0  0  0  0
 19 44  1  0  0  0  0
 20 45  1  0  0  0  0
 20 46  1  0  0  0  0
 20 47  1  0  0  0  0
 24 48  1  0  0  0  0
M  END
> <creator>
Agnieszka K. Bronowska, Newcastle University

> <fragments>
x0434

> <real_space>
FALSE

> <SCR>
FALSE

> <BB>
FALSE

> <link>
https://covid.postera.ai/covid/submissions/63f62ae9-356c-42dc-952d-659386dd09a9

> <covalent_frag>
FALSE

> <covalent_warhead>
TRUE

> <acrylamide>
TRUE

> <acrylamide_adduct>
FALSE

> <chloroacetamide>
FALSE

> <chloroacetamide_adduct>
FALSE

> <vinylsulfonamide>
FALSE

> <vinylsulfonamide_adduct>
FALSE

> <in_molport_or_mcule>
FALSE

> <in_emolecules>
FALSE

> <Hybrid2>
-7.177935

> <Mpro-x0434_dock>
-7.177935

> <site>
active-noncovalent

> <covalent_distance_min>
9.507154

> <covalent_distance_mean>
10.274366

> <covalent_distance_stderr>
0.049262296

$$$$
NAU-LAT-f72-5
  -OEChem-04062011563D

 52 54  0     0  0  0  0  0  0999 V2000
    6.4074    1.8962   23.8561 C   0  0  0  0  0  0  0  0  0  0  0  0
    6.7553    1.9075   22.5054 C   0  0  0  0  0  0  0  0  0  0  0  0
    6.6375    3.0232   24.6452 C   0  0  0  0  0  0  0  0  0  0  0  0
    7.3335    3.0459   21.9437 C   0  0  0  0  0  0  0  0  0  0  0  0
    7.2157    4.1616   24.0835 C   0  0  0  0  0  0  0  0  0  0  0  0
   10.3515    7.2745   25.3056 C   0  0  0  0  0  0  0  0  0  0  0  0
    9.6773    6.7699   24.1936 C   0  0  0  0  0  0  0  0  0  0  0  0
   12.3038    5.9828   24.7081 C   0  0  0  0  0  0  0  0  0  0  0  0
    7.5637    4.1730   22.7327 C   0  0  0  0  0  0  0  0  0  0  0  0
   11.6648    6.8810   25.5628 C   0  0  0  0  0  0  0  0  0  0  0  0
   10.3163    5.8717   23.3389 C   0  0  0  0  0  0  0  0  0  0  0  0
   11.6296    5.4781   23.5961 C   0  0  0  0  0  0  0  0  0  0  0  0
   10.6446   -1.0491   23.7272 C   0  0  0  0  0  0  0  0  0  0  0  0
   10.3322    1.4093   24.3019 C   0  0  0  0  0  0  0  0  0  0  0  0
   12.5672    0.5082   23.7877 C   0  0  0  0  0  0  0  0  0  0  0  0
   10.5821    2.5772   23.3524 C   0  0  0  0  0  0  0  0  0  0  0  0
   12.8234    1.6703   22.8347 C   0  0  0  0  0  0  0  0  0  0  0  0
   12.3852    7.4210   26.7516 C   0  0  0  0  0  0  0  0  0  0  0  0
    8.1861    5.3985   22.1289 C   0  0  0  0  0  0  0  0  0  0  0  0
    9.1661   -1.2488   23.9454 C   0  0  0  0  0  0  0  0  0  0  0  0
   11.1333    0.2430   23.9126 N   0  0  0  0  0  0  0  0  0  0  0  0
   12.0473    2.8636   23.2891 N   0  0  0  0  0  0  0  0  0  0  0  0
    9.6121    5.3744   22.2201 N   0  0  0  0  0  0  0  0  0  0  0  0
   11.3419   -2.0125   23.3993 O   0  0  0  0  0  0  0  0  0  0  0  0
   11.8497    4.4075   21.2342 O   0  0  0  0  0  0  0  0  0  0  0  0
   13.8949    4.5587   22.6977 O   0  0  0  0  0  0  0  0  0  0  0  0
   12.4728    4.3439   22.5386 S   0  0  0  0  0  0  0  0  0  0  0  0
    8.3824   -0.9386   22.4002 Cl  0  0  0  0  0  0  0  0  0  0  0  0
    5.9560    1.0102   24.2930 H   0  0  0  0  0  0  0  0  0  0  0  0
    6.5752    1.0305   21.8907 H   0  0  0  0  0  0  0  0  0  0  0  0
    6.3657    3.0151   25.6965 H   0  0  0  0  0  0  0  0  0  0  0  0
    7.6016    3.0457   20.8905 H   0  0  0  0  0  0  0  0  0  0  0  0
    7.3914    5.0350   24.7059 H   0  0  0  0  0  0  0  0  0  0  0  0
    9.8456    7.9737   25.9661 H   0  0  0  0  0  0  0  0  0  0  0  0
    8.6539    7.0837   24.0037 H   0  0  0  0  0  0  0  0  0  0  0  0
   13.3278    5.6783   24.9115 H   0  0  0  0  0  0  0  0  0  0  0  0
   10.6348    1.6752   25.3220 H   0  0  0  0  0  0  0  0  0  0  0  0
    9.2647    1.1840   24.3273 H   0  0  0  0  0  0  0  0  0  0  0  0
   13.1013   -0.3819   23.4410 H   0  0  0  0  0  0  0  0  0  0  0  0
   12.9384    0.7463   24.7919 H   0  0  0  0  0  0  0  0  0  0  0  0
   10.2040    2.3497   22.3490 H   0  0  0  0  0  0  0  0  0  0  0  0
   10.0571    3.4615   23.7296 H   0  0  0  0  0  0  0  0  0  0  0  0
   13.8924    1.9091   22.8428 H   0  0  0  0  0  0  0  0  0  0  0  0
   12.5335    1.4059   21.8113 H   0  0  0  0  0  0  0  0  0  0  0  0
   12.2236    6.7741   27.6226 H   0  0  0  0  0  0  0  0  0  0  0  0
   13.4649    7.4906   26.5656 H   0  0  0  0  0  0  0  0  0  0  0  0
   12.0402    8.4330   27.0009 H   0  0  0  0  0  0  0  0  0  0  0  0
    7.9174    5.4865   21.0705 H   0  0  0  0  0  0  0  0  0  0  0  0
    7.8339    6.3060   22.6304 H   0  0  0  0  0  0  0  0  0  0  0  0
    8.8210   -0.5376   24.6871 H   0  0  0  0  0  0  0  0  0  0  0  0
    8.9915   -2.2737   24.2524 H   0  0  0  0  0  0  0  0  0  0  0  0
   10.1603    4.9929   21.4736 H   0  0  0  0  0  0  0  0  0  0  0  0
  1  2  1  0  0  0  0
  1  3  2  0  0  0  0
  2  4  2  0  0  0  0
  3  5  1  0  0  0  0
  4  9  1  0  0  0  0
  5  9  2  0  0  0  0
  6  7  2  0  0  0  0
  6 10  1  0  0  0  0
  7 11  1  0  0  0  0
  8 10  2  0  0  0  0
  8 12  1  0  0  0  0
  9 19  1  0  0  0  0
 10 18  1  0  0  0  0
 11 12  2  0  0  0  0
 11 23  1  0  0  0  0
 12 27  1  0  0  0  0
 13 20  1  0  0  0  0
 13 21  1  0  0  0  0
 13 24  2  0  0  0  0
 14 16  1  0  0  0  0
 14 21  1  0  0  0  0
 15 17  1  0  0  0  0
 15 21  1  0  0  0  0
 16 22  1  0  0  0  0
 17 22  1  0  0  0  0
 19 23  1  0  0  0  0
 20 28  1  0  0  0  0
 22 27  1  0  0  0  0
 25 27  2  0  0  0  0
 26 27  2  0  0  0  0
  1 29  1  0  0  0  0
  2 30  1  0  0  0  0
  3 31  1  0  0  0  0
  4 32  1  0  0  0  0
  5 33  1  0  0  0  0
  6 34  1  0  0  0  0
  7 35  1  0  0  0  0
  8 36  1  0  0  0  0
 14 37  1  0  0  0  0
 14 38  1  0  0  0  0
 15 39  1  0  0  0  0
 15 40  1  0  0  0  0
 16 41  1  0  0  0  0
 16 42  1  0  0  0  0
 17 43  1  0  0  0  0
 17 44  1  0  0  0  0
 18 45  1  0  0  0  0
 18 46  1  0  0  0  0
 18 47  1  0  0  0  0
 19 48  1  0  0  0  0
 19 49  1  0  0  0  0
 20 50  1  0  0  0  0
 20 51  1  0  0  0  0
 23 52  1  0  0  0  0
M  END
> <creator>
Nauris Narvaiss, Latvian Institute of Organic Synthesis

> <fragments>
x0104

> <real_space>
FALSE

> <SCR>
FALSE

> <BB>
FALSE

> <link>
https://covid.postera.ai/covid/submissions/f723e322-ea7d-4382-bbcf-496494e8aab2

> <covalent_frag>
TRUE

> <covalent_warhead>
TRUE

> <acrylamide>
FALSE

> <acrylamide_adduct>
FALSE

> <chloroacetamide>
TRUE

> <chloroacetamide_adduct>
FALSE

> <vinylsulfonamide>
FALSE

> <vinylsulfonamide_adduct>
FALSE

> <in_molport_or_mcule>
FALSE

> <in_emolecules>
FALSE

> <Hybrid2>
-7.171019

> <Mpro-x0104_dock>
-7.171019

> <Mpro-x0072_dock>
-6.628852

> <Mpro-x0692_dock>
-3.886248

> <Mpro-x1308_dock>
-2.929773

> <Mpro-x0397_dock>
-1.256784

> <site>
active-noncovalent

> <covalent_distance_min>
3.5043168

> <covalent_distance_mean>
4.0931797

> <covalent_distance_stderr>
0.03475288

$$$$
JAN-GHE-641-9
  -OEChem-04062011563D

 47 49  0     0  0  0  0  0  0999 V2000
   13.4594   -0.7036   22.3821 C   0  0  0  0  0  0  0  0  0  0  0  0
   13.3306    0.5851   22.9128 C   0  0  0  0  0  0  0  0  0  0  0  0
   12.4246   -1.6295   22.4984 C   0  0  0  0  0  0  0  0  0  0  0  0
   10.4026    1.8761   24.6793 C   0  0  0  0  0  0  0  0  0  0  0  0
   12.1365    0.9412   23.5707 C   0  0  0  0  0  0  0  0  0  0  0  0
   11.2311   -1.2990   23.1468 C   0  0  0  0  0  0  0  0  0  0  0  0
   11.6721    2.1243   24.2106 C   0  0  0  0  0  0  0  0  0  0  0  0
   11.1164   -0.0071   23.6723 C   0  0  0  0  0  0  0  0  0  0  0  0
    5.5017   -0.0272   18.1463 C   0  0  0  0  0  0  0  0  0  0  0  0
    6.2849   -1.1002   18.2750 C   0  0  0  0  0  0  0  0  0  0  0  0
    6.0978   -1.9839   19.4432 C   0  0  0  0  0  0  0  0  0  0  0  0
   12.8383    4.0243   23.0296 C   0  0  0  0  0  0  0  0  0  0  0  0
    7.7876   -0.6018   20.7691 C   0  0  0  0  0  0  0  0  0  0  0  0
    6.6154   -2.5167   21.7926 C   0  0  0  0  0  0  0  0  0  0  0  0
    9.1126   -1.1037   21.3307 C   0  0  0  0  0  0  0  0  0  0  0  0
    7.9272   -3.0470   22.3493 C   0  0  0  0  0  0  0  0  0  0  0  0
   12.4116    3.3949   24.3525 C   0  0  0  0  0  0  0  0  0  0  0  0
   10.1372   -2.3202   23.2538 C   0  0  0  0  0  0  0  0  0  0  0  0
   10.0763    0.5879   24.3500 N   0  0  0  0  0  0  0  0  0  0  0  0
    6.8292   -1.7021   20.5945 N   0  0  0  0  0  0  0  0  0  0  0  0
   11.7738    4.3980   22.2368 N   0  0  0  0  0  0  0  0  0  0  0  0
    8.8575   -1.8832   22.5983 N   0  3  0  0  0  0  0  0  0  0  0  0
    5.3005   -2.9165   19.3295 O   0  0  0  0  0  0  0  0  0  0  0  0
   14.0128    4.1781   22.7065 O   0  0  0  0  0  0  0  0  0  0  0  0
   14.3785   -0.9840   21.8742 H   0  0  0  0  0  0  0  0  0  0  0  0
   14.1469    1.2948   22.8134 H   0  0  0  0  0  0  0  0  0  0  0  0
   12.5558   -2.6234   22.0764 H   0  0  0  0  0  0  0  0  0  0  0  0
    9.7014    2.4988   25.2175 H   0  0  0  0  0  0  0  0  0  0  0  0
    5.5913    0.6587   17.3106 H   0  0  0  0  0  0  0  0  0  0  0  0
    4.7426    0.1850   18.8918 H   0  0  0  0  0  0  0  0  0  0  0  0
    7.0525   -1.3453   17.5526 H   0  0  0  0  0  0  0  0  0  0  0  0
    7.3286    0.1261   21.4485 H   0  0  0  0  0  0  0  0  0  0  0  0
    7.9931   -0.0895   19.8284 H   0  0  0  0  0  0  0  0  0  0  0  0
    5.9440   -3.3544   21.5791 H   0  0  0  0  0  0  0  0  0  0  0  0
    6.1111   -1.8823   22.5318 H   0  0  0  0  0  0  0  0  0  0  0  0
    9.6299   -1.7655   20.6269 H   0  0  0  0  0  0  0  0  0  0  0  0
    9.7638   -0.2625   21.5899 H   0  0  0  0  0  0  0  0  0  0  0  0
    7.7648   -3.5470   23.3097 H   0  0  0  0  0  0  0  0  0  0  0  0
    8.4227   -3.7345   21.6547 H   0  0  0  0  0  0  0  0  0  0  0  0
   11.8099    4.1492   24.8960 H   0  0  0  0  0  0  0  0  0  0  0  0
   13.3241    3.2574   24.9648 H   0  0  0  0  0  0  0  0  0  0  0  0
   10.4280   -3.2632   22.7786 H   0  0  0  0  0  0  0  0  0  0  0  0
    9.8972   -2.5343   24.3009 H   0  0  0  0  0  0  0  0  0  0  0  0
    9.1982    0.1396   24.5726 H   0  0  0  0  0  0  0  0  0  0  0  0
   11.9490    4.8273   21.3339 H   0  0  0  0  0  0  0  0  0  0  0  0
   10.8179    4.2500   22.5431 H   0  0  0  0  0  0  0  0  0  0  0  0
    8.3898   -1.2499   23.2613 H   0  0  0  0  0  0  0  0  0  0  0  0
  1  2  1  0  0  0  0
  1  3  2  0  0  0  0
  2  5  2  0  0  0  0
  3  6  1  0  0  0  0
  4  7  2  0  0  0  0
  4 19  1  0  0  0  0
  5  7  1  0  0  0  0
  5  8  1  0  0  0  0
  6  8  2  0  0  0  0
  6 18  1  0  0  0  0
  7 17  1  0  0  0  0
  8 19  1  0  0  0  0
  9 10  2  0  0  0  0
 10 11  1  0  0  0  0
 11 20  1  0  0  0  0
 11 23  2  0  0  0  0
 12 17  1  0  0  0  0
 12 21  1  0  0  0  0
 12 24  2  0  0  0  0
 13 15  1  0  0  0  0
 13 20  1  0  0  0  0
 14 16  1  0  0  0  0
 14 20  1  0  0  0  0
 15 22  1  0  0  0  0
 16 22  1  0  0  0  0
 18 22  1  0  0  0  0
  1 25  1  0  0  0  0
  2 26  1  0  0  0  0
  3 27  1  0  0  0  0
  4 28  1  0  0  0  0
  9 29  1  0  0  0  0
  9 30  1  0  0  0  0
 10 31  1  0  0  0  0
 13 32  1  0  0  0  0
 13 33  1  0  0  0  0
 14 34  1  0  0  0  0
 14 35  1  0  0  0  0
 15 36  1  0  0  0  0
 15 37  1  0  0  0  0
 16 38  1  0  0  0  0
 16 39  1  0  0  0  0
 17 40  1  0  0  0  0
 17 41  1  0  0  0  0
 18 42  1  0  0  0  0
 18 43  1  0  0  0  0
 19 44  1  0  0  0  0
 21 45  1  0  0  0  0
 21 46  1  0  0  0  0
 22 47  1  0  0  0  0
M  CHG  1  22   1
M  END
> <creator>
Jan, Ghent University

> <fragments>
x0692

> <real_space>
FALSE

> <SCR>
FALSE

> <BB>
FALSE

> <link>
https://covid.postera.ai/covid/submissions/6413aaf8-c5d7-46f1-8e3f-314432f79018

> <covalent_frag>
TRUE

> <covalent_warhead>
TRUE

> <acrylamide>
TRUE

> <acrylamide_adduct>
FALSE

> <chloroacetamide>
FALSE

> <chloroacetamide_adduct>
FALSE

> <vinylsulfonamide>
FALSE

> <vinylsulfonamide_adduct>
FALSE

> <in_molport_or_mcule>
FALSE

> <in_emolecules>
FALSE

> <Hybrid2>
-7.157577

> <Mpro-x0692_dock>
-7.157577

> <Mpro-x0104_dock>
-6.673776

> <site>
active-covalent

> <covalent_distance_min>
5.789742

> <covalent_distance_mean>
7.1749196

> <covalent_distance_stderr>
0.060206514

$$$$
MAK-UNK-c44-5
  -OEChem-04062011563D

 56 57  0     1  0  0  0  0  0999 V2000
    7.9653    6.9248   23.5848 C   0  0  0  0  0  0  0  0  0  0  0  0
    8.5909    7.2562   24.5544 C   0  0  0  0  0  0  0  0  0  0  0  0
   13.1835   -0.3091   23.1645 C   0  0  0  0  0  0  0  0  0  0  0  0
   12.7467   -0.7780   21.9256 C   0  0  0  0  0  0  0  0  0  0  0  0
   12.3298   -0.3517   24.2669 C   0  0  0  0  0  0  0  0  0  0  0  0
   11.4562   -1.2895   21.7889 C   0  0  0  0  0  0  0  0  0  0  0  0
   11.0393   -0.8632   24.1302 C   0  0  0  0  0  0  0  0  0  0  0  0
    4.0912    1.6861   21.5558 C   0  0  0  0  0  0  0  0  0  0  0  0
    4.9469    2.5757   19.4789 C   0  0  0  0  0  0  0  0  0  0  0  0
    2.7886    1.9482   21.1314 C   0  0  0  0  0  0  0  0  0  0  0  0
    3.6443    2.8377   19.0544 C   0  0  0  0  0  0  0  0  0  0  0  0
   10.6025   -1.3321   22.8913 C   0  0  0  0  0  0  0  0  0  0  0  0
    5.1704    2.0000   20.7296 C   0  0  0  0  0  0  0  0  0  0  0  0
    2.5651    2.5239   19.8807 C   0  0  0  0  0  0  0  0  0  0  0  0
    8.5899    2.4098   23.3776 C   0  0  0  0  0  0  0  0  0  0  0  0
    6.8219    4.1518   21.8020 C   0  0  0  0  0  0  0  0  0  0  0  0
    9.9127    2.2304   24.0455 C   0  0  0  0  0  0  0  0  0  0  0  0
    7.2006    6.5249   22.4042 C   0  0  0  0  0  0  0  0  0  0  0  0
    9.2062   -1.8850   22.7441 C   0  0  0  0  0  0  0  0  0  0  0  0
    8.1802   -0.8191   22.3674 C   0  0  0  0  0  0  0  0  0  0  0  0
    6.5842    1.7151   21.1898 C   0  0  2  0  0  0  0  0  0  0  0  0
    7.5170    2.9360   21.1971 C   0  0  2  0  0  0  0  0  0  0  0  0
    7.6577    5.2542   21.8946 N   0  0  0  0  0  0  0  0  0  0  0  0
    8.6743    2.7221   22.0333 N   0  0  0  0  0  0  0  0  0  0  0  0
    8.4785   -0.1790   21.0736 N   0  0  0  0  0  0  0  0  0  0  0  0
    7.5608    2.2746   24.0291 O   0  0  0  0  0  0  0  0  0  0  0  0
    5.6377    4.1420   22.1348 O   0  0  0  0  0  0  0  0  0  0  0  0
    6.1552   -0.5804   20.0079 O   0  0  0  0  0  0  0  0  0  0  0  0
    7.7482    1.0617   18.9485 O   0  0  0  0  0  0  0  0  0  0  0  0
    1.2939    2.7783   19.4661 O   0  0  0  0  0  0  0  0  0  0  0  0
    7.1925    0.4253   20.1273 S   0  0  0  0  0  0  0  0  0  0  0  0
    9.5809    7.7805   26.0892 Br  0  0  0  0  0  0  0  0  0  0  0  0
   14.1888    0.0879   23.2711 H   0  0  0  0  0  0  0  0  0  0  0  0
   13.4117   -0.7459   21.0674 H   0  0  0  0  0  0  0  0  0  0  0  0
   12.6699    0.0123   25.2318 H   0  0  0  0  0  0  0  0  0  0  0  0
   11.1244   -1.6524   20.8197 H   0  0  0  0  0  0  0  0  0  0  0  0
   10.3811   -0.8923   24.9945 H   0  0  0  0  0  0  0  0  0  0  0  0
    4.2560    1.2375   22.5317 H   0  0  0  0  0  0  0  0  0  0  0  0
    5.7818    2.8237   18.8285 H   0  0  0  0  0  0  0  0  0  0  0  0
    1.9519    1.7011   21.7795 H   0  0  0  0  0  0  0  0  0  0  0  0
    3.4768    3.2859   18.0791 H   0  0  0  0  0  0  0  0  0  0  0  0
   10.3031    3.1715   24.4651 H   0  0  0  0  0  0  0  0  0  0  0  0
    9.8632    1.5311   24.8956 H   0  0  0  0  0  0  0  0  0  0  0  0
   10.7181    1.8449   23.4001 H   0  0  0  0  0  0  0  0  0  0  0  0
    7.3036    7.2582   21.5991 H   0  0  0  0  0  0  0  0  0  0  0  0
    6.1381    6.4215   22.6438 H   0  0  0  0  0  0  0  0  0  0  0  0
    8.9140   -2.3498   23.6942 H   0  0  0  0  0  0  0  0  0  0  0  0
    9.2032   -2.6918   21.9999 H   0  0  0  0  0  0  0  0  0  0  0  0
    7.1884   -1.2726   22.2740 H   0  0  0  0  0  0  0  0  0  0  0  0
    8.1240   -0.0279   23.1222 H   0  0  0  0  0  0  0  0  0  0  0  0
    6.5637    1.2645   22.1911 H   0  0  0  0  0  0  0  0  0  0  0  0
    7.9001    3.1632   20.1965 H   0  0  0  0  0  0  0  0  0  0  0  0
    8.6235    5.1647   21.5939 H   0  0  0  0  0  0  0  0  0  0  0  0
    9.5961    2.8051   21.6133 H   0  0  0  0  0  0  0  0  0  0  0  0
    9.3540    0.3603   21.0669 H   0  0  0  0  0  0  0  0  0  0  0  0
    0.6575    2.5055   20.1462 H   0  0  0  0  0  0  0  0  0  0  0  0
  1  2  3  0  0  0  0
  1 18  1  0  0  0  0
  2 32  1  0  0  0  0
  3  4  1  0  0  0  0
  3  5  2  0  0  0  0
  4  6  2  0  0  0  0
  5  7  1  0  0  0  0
  6 12  1  0  0  0  0
  7 12  2  0  0  0  0
  8 10  2  0  0  0  0
  8 13  1  0  0  0  0
  9 11  1  0  0  0  0
  9 13  2  0  0  0  0
 10 14  1  0  0  0  0
 11 14  2  0  0  0  0
 12 19  1  0  0  0  0
 13 21  1  0  0  0  0
 14 30  1  0  0  0  0
 15 17  1  0  0  0  0
 15 24  1  0  0  0  0
 15 26  2  0  0  0  0
 16 22  1  0  0  0  0
 16 23  1  0  0  0  0
 16 27  2  0  0  0  0
 18 23  1  0  0  0  0
 19 20  1  0  0  0  0
 20 25  1  0  0  0  0
 21 22  1  0  0  0  0
 21 31  1  0  0  0  0
 22 24  1  0  0  0  0
 25 31  1  0  0  0  0
 28 31  2  0  0  0  0
 29 31  2  0  0  0  0
  3 33  1  0  0  0  0
  4 34  1  0  0  0  0
  5 35  1  0  0  0  0
  6 36  1  0  0  0  0
  7 37  1  0  0  0  0
  8 38  1  0  0  0  0
  9 39  1  0  0  0  0
 10 40  1  0  0  0  0
 11 41  1  0  0  0  0
 17 42  1  0  0  0  0
 17 43  1  0  0  0  0
 17 44  1  0  0  0  0
 18 45  1  0  0  0  0
 18 46  1  0  0  0  0
 19 47  1  0  0  0  0
 19 48  1  0  0  0  0
 20 49  1  0  0  0  0
 20 50  1  0  0  0  0
 21 51  1  0  0  0  0
 22 52  1  0  0  0  0
 23 53  1  0  0  0  0
 24 54  1  0  0  0  0
 25 55  1  0  0  0  0
 30 56  1  0  0  0  0
M  END
> <creator>
Maksym Voznyy

> <fragments>
x0967

> <real_space>
FALSE

> <SCR>
FALSE

> <BB>
FALSE

> <link>
https://covid.postera.ai/covid/submissions/c44f4be0-55d2-49d8-8adb-cb0f0569aa6b

> <covalent_frag>
FALSE

> <covalent_warhead>
TRUE

> <acrylamide>
FALSE

> <acrylamide_adduct>
TRUE

> <chloroacetamide>
FALSE

> <chloroacetamide_adduct>
FALSE

> <vinylsulfonamide>
FALSE

> <vinylsulfonamide_adduct>
FALSE

> <in_molport_or_mcule>
FALSE

> <in_emolecules>
FALSE

> <Hybrid2>
-7.156637

> <Mpro-x0967_dock>
-7.156637

> <Mpro-x0072_dock>
-4.27188

> <site>
active-noncovalent

> <covalent_distance_min>
5.227153

> <covalent_distance_mean>
5.755675

> <covalent_distance_stderr>
0.032027394

$$$$
NIR-THE-99f-3
  -OEChem-04062011563D

 39 40  0     1  0  0  0  0  0999 V2000
    9.1858   -0.6727   26.0508 C   0  0  0  0  0  0  0  0  0  0  0  0
    8.1763   -1.5372   25.6277 C   0  0  0  0  0  0  0  0  0  0  0  0
   10.1630   -0.2478   25.1506 C   0  0  0  0  0  0  0  0  0  0  0  0
    8.1440   -1.9770   24.3043 C   0  0  0  0  0  0  0  0  0  0  0  0
   10.1307   -0.6876   23.8273 C   0  0  0  0  0  0  0  0  0  0  0  0
    9.1212   -1.5522   23.4041 C   0  0  0  0  0  0  0  0  0  0  0  0
   11.2835    2.2126   22.2305 C   0  0  0  0  0  0  0  0  0  0  0  0
    7.7089   -0.5051   20.5949 C   0  0  0  0  0  0  0  0  0  0  0  0
   13.5383   -0.2395   22.3330 C   0  0  0  0  0  0  0  0  0  0  0  0
   12.4172   -1.1479   22.8082 C   0  0  0  0  0  0  0  0  0  0  0  0
   13.3028    1.0401   23.1227 C   0  0  0  0  0  0  0  0  0  0  0  0
   11.2002   -0.2126   22.8686 C   0  0  2  0  0  0  0  0  0  0  0  0
   11.7782    1.1831   23.2057 C   0  0  2  0  0  0  0  0  0  0  0  0
    9.0663   -2.0369   21.9925 C   0  0  0  0  0  0  0  0  0  0  0  0
    6.3407   -0.3395   19.9843 C   0  0  0  0  0  0  0  0  0  0  0  0
   11.2580    3.4901   22.7381 N   0  0  0  0  0  0  0  0  0  0  0  0
    7.8378   -1.6697   21.3368 N   0  0  0  0  0  0  0  0  0  0  0  0
   10.9535    1.9201   21.0838 O   0  0  0  0  0  0  0  0  0  0  0  0
    8.6025    0.3211   20.4183 O   0  0  0  0  0  0  0  0  0  0  0  0
    5.6425    1.1616   20.6120 Cl  0  0  0  0  0  0  0  0  0  0  0  0
    9.2110   -0.3313   27.0813 H   0  0  0  0  0  0  0  0  0  0  0  0
    7.4159   -1.8680   26.3292 H   0  0  0  0  0  0  0  0  0  0  0  0
   10.9462    0.4246   25.4907 H   0  0  0  0  0  0  0  0  0  0  0  0
    7.3531   -2.6502   23.9841 H   0  0  0  0  0  0  0  0  0  0  0  0
   14.5271   -0.6671   22.5216 H   0  0  0  0  0  0  0  0  0  0  0  0
   13.4448   -0.0482   21.2577 H   0  0  0  0  0  0  0  0  0  0  0  0
   12.2538   -1.9917   22.1302 H   0  0  0  0  0  0  0  0  0  0  0  0
   12.6602   -1.5561   23.7977 H   0  0  0  0  0  0  0  0  0  0  0  0
   13.7111    0.9217   24.1341 H   0  0  0  0  0  0  0  0  0  0  0  0
   13.8024    1.8973   22.6602 H   0  0  0  0  0  0  0  0  0  0  0  0
   10.7234   -0.1916   21.8556 H   0  0  0  0  0  0  0  0  0  0  0  0
   11.4891    1.5319   24.2122 H   0  0  0  0  0  0  0  0  0  0  0  0
    9.8942   -1.6229   21.4014 H   0  0  0  0  0  0  0  0  0  0  0  0
    9.1529   -3.1302   21.9405 H   0  0  0  0  0  0  0  0  0  0  0  0
    6.3719   -0.2820   18.8935 H   0  0  0  0  0  0  0  0  0  0  0  0
    5.7069   -1.1802   20.2797 H   0  0  0  0  0  0  0  0  0  0  0  0
   10.9358    4.2449   22.1413 H   0  0  0  0  0  0  0  0  0  0  0  0
   11.5484    3.7085   23.6856 H   0  0  0  0  0  0  0  0  0  0  0  0
    7.0342   -2.2879   21.4211 H   0  0  0  0  0  0  0  0  0  0  0  0
  1  2  1  0  0  0  0
  1  3  2  0  0  0  0
  2  4  2  0  0  0  0
  3  5  1  0  0  0  0
  4  6  1  0  0  0  0
  5  6  2  0  0  0  0
  5 12  1  0  0  0  0
  6 14  1  0  0  0  0
  7 13  1  0  0  0  0
  7 16  1  0  0  0  0
  7 18  2  0  0  0  0
  8 15  1  0  0  0  0
  8 17  1  0  0  0  0
  8 19  2  0  0  0  0
  9 10  1  0  0  0  0
  9 11  1  0  0  0  0
 10 12  1  0  0  0  0
 11 13  1  0  0  0  0
 12 13  1  0  0  0  0
 14 17  1  0  0  0  0
 15 20  1  0  0  0  0
  1 21  1  0  0  0  0
  2 22  1  0  0  0  0
  3 23  1  0  0  0  0
  4 24  1  0  0  0  0
  9 25  1  0  0  0  0
  9 26  1  0  0  0  0
 10 27  1  0  0  0  0
 10 28  1  0  0  0  0
 11 29  1  0  0  0  0
 11 30  1  0  0  0  0
 12 31  1  0  0  0  0
 13 32  1  0  0  0  0
 14 33  1  0  0  0  0
 14 34  1  0  0  0  0
 15 35  1  0  0  0  0
 15 36  1  0  0  0  0
 16 37  1  0  0  0  0
 16 38  1  0  0  0  0
 17 39  1  0  0  0  0
M  END
> <creator>
Nir London, The Weizmann Institute of Science

> <fragments>
x0874

> <real_space>
FALSE

> <SCR>
FALSE

> <BB>
FALSE

> <link>
https://covid.postera.ai/covid/submissions/99f25457-1a81-4d52-9016-814e9f4f52d4

> <covalent_frag>
TRUE

> <covalent_warhead>
TRUE

> <acrylamide>
FALSE

> <acrylamide_adduct>
FALSE

> <chloroacetamide>
TRUE

> <chloroacetamide_adduct>
FALSE

> <vinylsulfonamide>
FALSE

> <vinylsulfonamide_adduct>
FALSE

> <in_molport_or_mcule>
FALSE

> <in_emolecules>
FALSE

> <Hybrid2>
-7.144211

> <Mpro-x0874_dock>
-7.144211

> <Mpro-x0759_dock>
-5.484169

> <Mpro-x1478_dock>
-4.887407

> <Mpro-x0820_dock>
-2.944642

> <site>
active-noncovalent

> <covalent_distance_min>
6.3401394

> <covalent_distance_mean>
7.1495943

> <covalent_distance_stderr>
0.078459516

$$$$
DAR-DIA-cab-5
  -OEChem-04062011563D

 53 56  0     1  0  0  0  0  0999 V2000
    8.2550   -4.5468   25.5956 C   0  0  0  0  0  0  0  0  0  0  0  0
    9.6255   -4.3142   25.5521 C   0  0  0  0  0  0  0  0  0  0  0  0
    7.4221   -3.9677   24.6405 C   0  0  0  0  0  0  0  0  0  0  0  0
   10.1630   -3.4890   24.5637 C   0  0  0  0  0  0  0  0  0  0  0  0
   13.0810    0.7078   23.8555 C   0  0  0  0  0  0  0  0  0  0  0  0
   12.3103   -1.1334   22.4723 C   0  0  0  0  0  0  0  0  0  0  0  0
    9.8749    1.3250   25.4987 C   0  0  0  0  0  0  0  0  0  0  0  0
   11.7880    0.8270   24.4025 C   0  0  0  0  0  0  0  0  0  0  0  0
    7.9518   -3.1459   23.6333 C   0  0  0  0  0  0  0  0  0  0  0  0
    9.3349   -2.8694   23.6109 C   0  0  0  0  0  0  0  0  0  0  0  0
   11.0200   -1.0340   23.0007 C   0  0  0  0  0  0  0  0  0  0  0  0
   11.1965    1.6854   25.3711 C   0  0  0  0  0  0  0  0  0  0  0  0
   10.7893   -0.0448   23.9633 C   0  0  0  0  0  0  0  0  0  0  0  0
   13.3264   -0.2770   22.8917 C   0  0  0  0  0  0  0  0  0  0  0  0
    7.2783   -2.3564   20.1565 C   0  0  0  0  0  0  0  0  0  0  0  0
   12.4775    4.0251   22.8235 C   0  0  0  0  0  0  0  0  0  0  0  0
    7.0122   -2.5571   22.6099 C   0  0  0  0  0  0  0  0  0  0  0  0
    8.8598   -1.1814   21.7598 C   0  0  0  0  0  0  0  0  0  0  0  0
    9.9333   -1.9860   22.5190 C   0  0  2  0  0  0  0  0  0  0  0  0
   13.4823    3.6949   21.7702 C   0  0  0  0  0  0  0  0  0  0  0  0
   11.8709    2.7708   26.1121 C   0  0  0  0  0  0  0  0  0  0  0  0
    8.0700   -1.7785   19.0105 C   0  0  0  0  0  0  0  0  0  0  0  0
   12.1055    4.0457   25.2819 C   0  0  0  0  0  0  0  0  0  0  0  0
    9.6388    0.2804   24.6458 N   0  0  0  0  0  0  0  0  0  0  0  0
    7.7181   -2.0383   21.4402 N   0  0  0  0  0  0  0  0  0  0  0  0
   12.9130    3.7943   24.1185 N   0  0  0  0  0  0  0  0  0  0  0  0
    6.3010   -3.0699   19.9166 O   0  0  0  0  0  0  0  0  0  0  0  0
   11.3801    4.4614   22.4961 O   0  0  0  0  0  0  0  0  0  0  0  0
   14.9050   -0.4290   22.2178 Cl  0  0  0  0  0  0  0  0  0  0  0  0
    7.3194   -0.2389   18.6068 Cl  0  0  0  0  0  0  0  0  0  0  0  0
    7.8346   -5.1783   26.3722 H   0  0  0  0  0  0  0  0  0  0  0  0
   10.2794   -4.7762   26.2867 H   0  0  0  0  0  0  0  0  0  0  0  0
    6.3523   -4.1569   24.6846 H   0  0  0  0  0  0  0  0  0  0  0  0
   11.2403   -3.3313   24.5366 H   0  0  0  0  0  0  0  0  0  0  0  0
   13.8745    1.3751   24.1820 H   0  0  0  0  0  0  0  0  0  0  0  0
   12.5181   -1.8944   21.7217 H   0  0  0  0  0  0  0  0  0  0  0  0
    9.0805    1.7169   26.1186 H   0  0  0  0  0  0  0  0  0  0  0  0
    6.3368   -3.3342   22.2542 H   0  0  0  0  0  0  0  0  0  0  0  0
    6.4359   -1.7662   23.0807 H   0  0  0  0  0  0  0  0  0  0  0  0
    8.5513   -0.3090   22.3326 H   0  0  0  0  0  0  0  0  0  0  0  0
    9.2613   -0.8313   20.8072 H   0  0  0  0  0  0  0  0  0  0  0  0
   10.4208   -2.6493   21.7595 H   0  0  0  0  0  0  0  0  0  0  0  0
   13.4031    2.6512   21.4259 H   0  0  0  0  0  0  0  0  0  0  0  0
   13.3599    4.3103   20.8645 H   0  0  0  0  0  0  0  0  0  0  0  0
   14.5356    3.8229   22.0670 H   0  0  0  0  0  0  0  0  0  0  0  0
   12.8545    2.4224   26.4844 H   0  0  0  0  0  0  0  0  0  0  0  0
   11.3085    3.0433   27.0279 H   0  0  0  0  0  0  0  0  0  0  0  0
    8.0095   -2.4553   18.1663 H   0  0  0  0  0  0  0  0  0  0  0  0
    9.0920   -1.6215   19.3346 H   0  0  0  0  0  0  0  0  0  0  0  0
   11.1579    4.4611   24.9246 H   0  0  0  0  0  0  0  0  0  0  0  0
   12.6122    4.8133   25.8761 H   0  0  0  0  0  0  0  0  0  0  0  0
    8.7482   -0.1838   24.5334 H   0  0  0  0  0  0  0  0  0  0  0  0
   13.8539    3.4275   24.2536 H   0  0  0  0  0  0  0  0  0  0  0  0
  1  2  1  0  0  0  0
  1  3  2  0  0  0  0
  2  4  2  0  0  0  0
  3  9  1  0  0  0  0
  4 10  1  0  0  0  0
  5  8  1  0  0  0  0
  5 14  2  0  0  0  0
  6 11  2  0  0  0  0
  6 14  1  0  0  0  0
  7 12  2  0  0  0  0
  7 24  1  0  0  0  0
  8 12  1  0  0  0  0
  8 13  2  0  0  0  0
  9 10  2  0  0  0  0
  9 17  1  0  0  0  0
 10 19  1  0  0  0  0
 11 13  1  0  0  0  0
 11 19  1  0  0  0  0
 12 21  1  0  0  0  0
 13 24  1  0  0  0  0
 14 29  1  0  0  0  0
 15 22  1  0  0  0  0
 15 25  1  0  0  0  0
 15 27  2  0  0  0  0
 16 20  1  0  0  0  0
 16 26  1  0  0  0  0
 16 28  2  0  0  0  0
 17 25  1  0  0  0  0
 18 19  1  0  0  0  0
 18 25  1  0  0  0  0
 21 23  1  0  0  0  0
 22 30  1  0  0  0  0
 23 26  1  0  0  0  0
  1 31  1  0  0  0  0
  2 32  1  0  0  0  0
  3 33  1  0  0  0  0
  4 34  1  0  0  0  0
  5 35  1  0  0  0  0
  6 36  1  0  0  0  0
  7 37  1  0  0  0  0
 17 38  1  0  0  0  0
 17 39  1  0  0  0  0
 18 40  1  0  0  0  0
 18 41  1  0  0  0  0
 19 42  1  0  0  0  0
 20 43  1  0  0  0  0
 20 44  1  0  0  0  0
 20 45  1  0  0  0  0
 21 46  1  0  0  0  0
 21 47  1  0  0  0  0
 22 48  1  0  0  0  0
 22 49  1  0  0  0  0
 23 50  1  0  0  0  0
 23 51  1  0  0  0  0
 24 52  1  0  0  0  0
 26 53  1  0  0  0  0
M  END
> <creator>
Daren Fearon, Diamond Light Source Ltd

> <fragments>
x0830

> <real_space>
FALSE

> <SCR>
FALSE

> <BB>
FALSE

> <link>
https://covid.postera.ai/covid/submissions/caba39e3-6989-456c-b896-1cac12e2588e

> <covalent_frag>
TRUE

> <covalent_warhead>
TRUE

> <acrylamide>
FALSE

> <acrylamide_adduct>
FALSE

> <chloroacetamide>
TRUE

> <chloroacetamide_adduct>
FALSE

> <vinylsulfonamide>
FALSE

> <vinylsulfonamide_adduct>
FALSE

> <in_molport_or_mcule>
FALSE

> <in_emolecules>
FALSE

> <Hybrid2>
-7.141233

> <Mpro-x0830_dock>
-7.141233

> <Mpro-x1392_dock>
-6.597232

> <Mpro-x0195_dock>
-6.459026

> <Mpro-x1249_dock>
-4.040133

> <Mpro-x0305_dock>
-2.043392

> <site>
active-covalent

> <covalent_distance_min>
3.1245437

> <covalent_distance_mean>
3.5599575

> <covalent_distance_stderr>
0.03190271

$$$$
PAU-WEI-b9b-9
  -OEChem-04062011563D

 71 74  0     1  0  0  0  0  0999 V2000
   12.9434    0.7122   22.6330 C   0  0  0  0  0  0  0  0  0  0  0  0
   12.7898    1.9790   23.2080 C   0  0  0  0  0  0  0  0  0  0  0  0
   11.8780   -0.1849   22.5890 C   0  0  0  0  0  0  0  0  0  0  0  0
    7.1909   -1.0291   19.6006 C   0  0  0  0  0  0  0  0  0  0  0  0
    8.2846    0.9480   20.4560 C   0  0  0  0  0  0  0  0  0  0  0  0
    6.0544   -0.2746   19.3096 C   0  0  0  0  0  0  0  0  0  0  0  0
    7.1481    1.7026   20.1650 C   0  0  0  0  0  0  0  0  0  0  0  0
    9.7173    3.2804   24.7001 C   0  0  0  0  0  0  0  0  0  0  0  0
   11.5394    2.3425   23.7463 C   0  0  0  0  0  0  0  0  0  0  0  0
    8.3060   -0.4178   20.1739 C   0  0  0  0  0  0  0  0  0  0  0  0
    6.0330    1.0912   19.5918 C   0  0  0  0  0  0  0  0  0  0  0  0
   10.6286    0.1534   23.1165 C   0  0  0  0  0  0  0  0  0  0  0  0
   11.0374    3.5095   24.3875 C   0  0  0  0  0  0  0  0  0  0  0  0
   10.4897    1.4232   23.6882 C   0  0  0  0  0  0  0  0  0  0  0  0
    8.8279   -5.2372   26.3611 C   0  0  0  0  0  0  0  0  0  0  0  0
    9.8239    6.8356   23.5598 C   0  0  0  0  0  0  0  0  0  0  0  0
   10.3627   -3.3896   25.7679 C   0  0  0  0  0  0  0  0  0  0  0  0
    7.9507   -2.8980   25.8850 C   0  0  0  0  0  0  0  0  0  0  0  0
   10.4579   -2.7024   24.4135 C   0  0  0  0  0  0  0  0  0  0  0  0
    8.0100   -2.2013   24.5323 C   0  0  0  0  0  0  0  0  0  0  0  0
    8.6081    7.1826   22.7662 C   0  0  0  0  0  0  0  0  0  0  0  0
    9.5348   -1.2326   20.4887 C   0  0  0  0  0  0  0  0  0  0  0  0
   11.7896    4.7484   24.6718 C   0  0  0  0  0  0  0  0  0  0  0  0
    7.6322   -5.5446   27.2270 C   0  0  0  0  0  0  0  0  0  0  0  0
    9.5733   -1.8608   21.8928 C   0  0  0  0  0  0  0  0  0  0  0  0
   12.0052    5.6480   23.4413 C   0  0  0  0  0  0  0  0  0  0  0  0
    9.4941   -0.8445   23.0517 C   0  0  1  0  0  0  0  0  0  0  0  0
    4.8181    1.8976   19.2787 C   0  0  0  0  0  0  0  0  0  0  0  0
    9.3962    2.0193   24.2747 N   0  0  0  0  0  0  0  0  0  0  0  0
    9.0130   -3.9025   26.0034 N   0  0  0  0  0  0  0  0  0  0  0  0
   10.7621    6.0877   22.8666 N   0  0  0  0  0  0  0  0  0  0  0  0
    9.3953   -1.6295   24.3294 N   0  3  0  0  0  0  0  0  0  0  0  0
    9.5721   -6.1572   26.0122 O   0  0  0  0  0  0  0  0  0  0  0  0
    9.9163    7.2160   24.7210 O   0  0  0  0  0  0  0  0  0  0  0  0
    3.8065    1.1692   18.7201 F   0  0  0  0  0  0  0  0  0  0  0  0
    4.2628    2.4970   20.3732 F   0  0  0  0  0  0  0  0  0  0  0  0
    5.0715    2.9082   18.3970 F   0  0  0  0  0  0  0  0  0  0  0  0
    6.2858   -5.8519   26.1358 Cl  0  0  0  0  0  0  0  0  0  0  0  0
   13.9059    0.4262   22.2169 H   0  0  0  0  0  0  0  0  0  0  0  0
   13.6305    2.6664   23.2341 H   0  0  0  0  0  0  0  0  0  0  0  0
   12.0296   -1.1623   22.1364 H   0  0  0  0  0  0  0  0  0  0  0  0
    7.1985   -2.0929   19.3780 H   0  0  0  0  0  0  0  0  0  0  0  0
    9.1495    1.4326   20.9016 H   0  0  0  0  0  0  0  0  0  0  0  0
    5.1909   -0.7589   18.8617 H   0  0  0  0  0  0  0  0  0  0  0  0
    7.1398    2.7662   20.3882 H   0  0  0  0  0  0  0  0  0  0  0  0
    8.9769    3.9000   25.1870 H   0  0  0  0  0  0  0  0  0  0  0  0
   11.0996   -4.1971   25.8206 H   0  0  0  0  0  0  0  0  0  0  0  0
   10.5935   -2.6862   26.5772 H   0  0  0  0  0  0  0  0  0  0  0  0
    8.0944   -2.1755   26.6975 H   0  0  0  0  0  0  0  0  0  0  0  0
    6.9598   -3.3355   26.0184 H   0  0  0  0  0  0  0  0  0  0  0  0
   11.4288   -2.2101   24.2973 H   0  0  0  0  0  0  0  0  0  0  0  0
   10.2967   -3.4018   23.5854 H   0  0  0  0  0  0  0  0  0  0  0  0
    7.8063   -2.8914   23.7059 H   0  0  0  0  0  0  0  0  0  0  0  0
    7.3039   -1.3653   24.4976 H   0  0  0  0  0  0  0  0  0  0  0  0
    7.8152    6.4231   22.8580 H   0  0  0  0  0  0  0  0  0  0  0  0
    8.1462    8.1270   23.0960 H   0  0  0  0  0  0  0  0  0  0  0  0
    8.7706    7.3024   21.6831 H   0  0  0  0  0  0  0  0  0  0  0  0
   10.4018   -0.5676   20.3800 H   0  0  0  0  0  0  0  0  0  0  0  0
    9.6720   -2.0205   19.7374 H   0  0  0  0  0  0  0  0  0  0  0  0
   12.7853    4.5009   25.0899 H   0  0  0  0  0  0  0  0  0  0  0  0
   11.2967    5.3461   25.4650 H   0  0  0  0  0  0  0  0  0  0  0  0
    7.4180   -4.6831   27.8491 H   0  0  0  0  0  0  0  0  0  0  0  0
    7.8434   -6.4295   27.8163 H   0  0  0  0  0  0  0  0  0  0  0  0
    8.6978   -2.5218   21.9597 H   0  0  0  0  0  0  0  0  0  0  0  0
   10.4483   -2.5128   22.0003 H   0  0  0  0  0  0  0  0  0  0  0  0
   12.5661    6.5494   23.7076 H   0  0  0  0  0  0  0  0  0  0  0  0
   12.5610    5.1183   22.6606 H   0  0  0  0  0  0  0  0  0  0  0  0
    8.5360   -0.3147   22.9877 H   0  0  0  0  0  0  0  0  0  0  0  0
    8.4873    1.5894   24.3767 H   0  0  0  0  0  0  0  0  0  0  0  0
   10.5610    5.8362   21.9000 H   0  0  0  0  0  0  0  0  0  0  0  0
    9.5681   -0.9642   25.0958 H   0  0  0  0  0  0  0  0  0  0  0  0
  1  2  2  0  0  0  0
  1  3  1  0  0  0  0
  2  9  1  0  0  0  0
  3 12  2  0  0  0  0
  4  6  2  0  0  0  0
  4 10  1  0  0  0  0
  5  7  1  0  0  0  0
  5 10  2  0  0  0  0
  6 11  1  0  0  0  0
  7 11  2  0  0  0  0
  8 13  2  0  0  0  0
  8 29  1  0  0  0  0
  9 13  1  0  0  0  0
  9 14  2  0  0  0  0
 10 22  1  0  0  0  0
 11 28  1  0  0  0  0
 12 14  1  0  0  0  0
 12 27  1  0  0  0  0
 13 23  1  0  0  0  0
 14 29  1  0  0  0  0
 15 24  1  0  0  0  0
 15 30  1  0  0  0  0
 15 33  2  0  0  0  0
 16 21  1  0  0  0  0
 16 31  1  0  0  0  0
 16 34  2  0  0  0  0
 17 19  1  0  0  0  0
 17 30  1  0  0  0  0
 18 20  1  0  0  0  0
 18 30  1  0  0  0  0
 19 32  1  0  0  0  0
 20 32  1  0  0  0  0
 22 25  1  0  0  0  0
 23 26  1  0  0  0  0
 24 38  1  0  0  0  0
 25 27  1  0  0  0  0
 26 31  1  0  0  0  0
 27 32  1  0  0  0  0
 28 35  1  0  0  0  0
 28 36  1  0  0  0  0
 28 37  1  0  0  0  0
  1 39  1  0  0  0  0
  2 40  1  0  0  0  0
  3 41  1  0  0  0  0
  4 42  1  0  0  0  0
  5 43  1  0  0  0  0
  6 44  1  0  0  0  0
  7 45  1  0  0  0  0
  8 46  1  0  0  0  0
 17 47  1  0  0  0  0
 17 48  1  0  0  0  0
 18 49  1  0  0  0  0
 18 50  1  0  0  0  0
 19 51  1  0  0  0  0
 19 52  1  0  0  0  0
 20 53  1  0  0  0  0
 20 54  1  0  0  0  0
 21 55  1  0  0  0  0
 21 56  1  0  0  0  0
 21 57  1  0  0  0  0
 22 58  1  0  0  0  0
 22 59  1  0  0  0  0
 23 60  1  0  0  0  0
 23 61  1  0  0  0  0
 24 62  1  0  0  0  0
 24 63  1  0  0  0  0
 25 64  1  0  0  0  0
 25 65  1  0  0  0  0
 26 66  1  0  0  0  0
 26 67  1  0  0  0  0
 27 68  1  0  0  0  0
 29 69  1  0  0  0  0
 31 70  1  0  0  0  0
 32 71  1  0  0  0  0
M  CHG  1  32   1
M  END
> <creator>
Paul Gehrtz, Weizmann Institute of Science

> <fragments>
x0104

> <real_space>
FALSE

> <SCR>
FALSE

> <BB>
FALSE

> <link>
https://covid.postera.ai/covid/submissions/b9b69149-728b-48ac-b50d-9dc89a43712c

> <covalent_frag>
TRUE

> <covalent_warhead>
TRUE

> <acrylamide>
FALSE

> <acrylamide_adduct>
FALSE

> <chloroacetamide>
TRUE

> <chloroacetamide_adduct>
FALSE

> <vinylsulfonamide>
FALSE

> <vinylsulfonamide_adduct>
FALSE

> <in_molport_or_mcule>
FALSE

> <in_emolecules>
FALSE

> <Hybrid2>
-7.114065

> <Mpro-x0104_dock>
-7.114065

> <Mpro-x0305_dock>
-2.54359

> <Mpro-x1385_dock>
-2.257143

> <Mpro-x1380_dock>
2.410174

> <Mpro-x0770_dock>
3.444225

> <site>
active-noncovalent

> <covalent_distance_min>
3.629174

> <covalent_distance_mean>
4.7954483

> <covalent_distance_stderr>
0.043950856

$$$$
NIM-UNI-7ba-1
  -OEChem-04062011563D

 51 54  0     0  0  0  0  0  0999 V2000
   13.2598    1.3703   22.1066 C   0  0  0  0  0  0  0  0  0  0  0  0
    5.9134    0.6899   20.4020 C   0  0  0  0  0  0  0  0  0  0  0  0
   12.6205    2.2925   22.9356 C   0  0  0  0  0  0  0  0  0  0  0  0
   11.0457    2.7799   24.7481 C   0  0  0  0  0  0  0  0  0  0  0  0
    6.5775   -0.1095   21.3257 C   0  0  0  0  0  0  0  0  0  0  0  0
   12.9869    0.0116   22.2348 C   0  0  0  0  0  0  0  0  0  0  0  0
   10.1324    2.3382   25.7058 C   0  0  0  0  0  0  0  0  0  0  0  0
   10.4988    0.0573   25.0050 C   0  0  0  0  0  0  0  0  0  0  0  0
    6.4122    0.7397   19.1102 C   0  0  0  0  0  0  0  0  0  0  0  0
    8.1226   -0.7072   19.6193 C   0  0  0  0  0  0  0  0  0  0  0  0
   11.6984    1.8657   23.9051 C   0  0  0  0  0  0  0  0  0  0  0  0
   11.4209    0.4841   24.0355 C   0  0  0  0  0  0  0  0  0  0  0  0
    7.7041   -0.8246   20.9349 C   0  0  0  0  0  0  0  0  0  0  0  0
   12.0737   -0.4301   23.1926 C   0  0  0  0  0  0  0  0  0  0  0  0
    9.8595    0.9795   25.8341 C   0  0  0  0  0  0  0  0  0  0  0  0
    9.7140   -1.4490   22.1707 C   0  0  0  0  0  0  0  0  0  0  0  0
    8.4272   -1.6764   21.8862 C   0  0  0  0  0  0  0  0  0  0  0  0
    7.8076   -2.8518   22.5815 C   0  0  0  0  0  0  0  0  0  0  0  0
    9.8292   -3.3439   23.6704 C   0  0  0  0  0  0  0  0  0  0  0  0
    5.6706   -3.7597   23.3184 C   0  0  0  0  0  0  0  0  0  0  0  0
   11.8270   -1.9047   23.2767 C   0  0  0  0  0  0  0  0  0  0  0  0
    4.2561   -3.9621   22.8350 C   0  0  0  0  0  0  0  0  0  0  0  0
    7.5035    0.0593   18.6936 N   0  0  0  0  0  0  0  0  0  0  0  0
    8.4986   -3.6026   23.4017 N   0  0  0  0  0  0  0  0  0  0  0  0
   10.4272   -2.2420   23.0401 N   0  0  0  0  0  0  0  0  0  0  0  0
    9.7456    0.1833   28.3753 N   0  0  0  0  0  0  0  0  0  0  0  0
    6.4802   -3.1549   22.3692 N   0  0  0  0  0  0  0  0  0  0  0  0
   10.4573   -4.0681   24.4447 O   0  0  0  0  0  0  0  0  0  0  0  0
    6.0197   -4.0981   24.4484 O   0  0  0  0  0  0  0  0  0  0  0  0
    7.8051    1.5249   27.3359 O   0  0  0  0  0  0  0  0  0  0  0  0
    8.1844   -0.8579   26.6103 O   0  0  0  0  0  0  0  0  0  0  0  0
    8.7161    0.4297   27.0342 S   0  0  0  0  0  0  0  0  0  0  0  0
    4.3026   -4.1445   21.0744 Cl  0  0  0  0  0  0  0  0  0  0  0  0
   13.9707    1.7141   21.3609 H   0  0  0  0  0  0  0  0  0  0  0  0
    5.0332    1.2560   20.6841 H   0  0  0  0  0  0  0  0  0  0  0  0
   12.8495    3.3498   22.8182 H   0  0  0  0  0  0  0  0  0  0  0  0
   11.2437    3.8463   24.6649 H   0  0  0  0  0  0  0  0  0  0  0  0
    6.2059   -0.1651   22.3458 H   0  0  0  0  0  0  0  0  0  0  0  0
   13.4915   -0.6969   21.5829 H   0  0  0  0  0  0  0  0  0  0  0  0
    9.6393    3.0648   26.3464 H   0  0  0  0  0  0  0  0  0  0  0  0
   10.2666   -0.9987   25.1274 H   0  0  0  0  0  0  0  0  0  0  0  0
    5.9304    1.3492   18.3529 H   0  0  0  0  0  0  0  0  0  0  0  0
    8.9949   -1.2397   19.2511 H   0  0  0  0  0  0  0  0  0  0  0  0
   10.2608   -0.6256   21.7301 H   0  0  0  0  0  0  0  0  0  0  0  0
   12.4307   -2.4440   22.5365 H   0  0  0  0  0  0  0  0  0  0  0  0
   12.1008   -2.2973   24.2632 H   0  0  0  0  0  0  0  0  0  0  0  0
    3.6567   -3.0835   23.0886 H   0  0  0  0  0  0  0  0  0  0  0  0
    3.7870   -4.8500   23.2662 H   0  0  0  0  0  0  0  0  0  0  0  0
   10.3904   -0.6160   28.3473 H   0  0  0  0  0  0  0  0  0  0  0  0
   10.1310    1.0113   28.8456 H   0  0  0  0  0  0  0  0  0  0  0  0
    6.0984   -2.9101   21.4599 H   0  0  0  0  0  0  0  0  0  0  0  0
  1  3  2  0  0  0  0
  1  6  1  0  0  0  0
  2  5  2  0  0  0  0
  2  9  1  0  0  0  0
  3 11  1  0  0  0  0
  4  7  2  0  0  0  0
  4 11  1  0  0  0  0
  5 13  1  0  0  0  0
  6 14  2  0  0  0  0
  7 15  1  0  0  0  0
  8 12  1  0  0  0  0
  8 15  2  0  0  0  0
  9 23  2  0  0  0  0
 10 13  2  0  0  0  0
 10 23  1  0  0  0  0
 11 12  2  0  0  0  0
 12 14  1  0  0  0  0
 13 17  1  0  0  0  0
 14 21  1  0  0  0  0
 15 32  1  0  0  0  0
 16 17  2  0  0  0  0
 16 25  1  0  0  0  0
 17 18  1  0  0  0  0
 18 24  2  0  0  0  0
 18 27  1  0  0  0  0
 19 24  1  0  0  0  0
 19 25  1  0  0  0  0
 19 28  2  0  0  0  0
 20 22  1  0  0  0  0
 20 27  1  0  0  0  0
 20 29  2  0  0  0  0
 21 25  1  0  0  0  0
 22 33  1  0  0  0  0
 26 32  1  0  0  0  0
 30 32  2  0  0  0  0
 31 32  2  0  0  0  0
  1 34  1  0  0  0  0
  2 35  1  0  0  0  0
  3 36  1  0  0  0  0
  4 37  1  0  0  0  0
  5 38  1  0  0  0  0
  6 39  1  0  0  0  0
  7 40  1  0  0  0  0
  8 41  1  0  0  0  0
  9 42  1  0  0  0  0
 10 43  1  0  0  0  0
 16 44  1  0  0  0  0
 21 45  1  0  0  0  0
 21 46  1  0  0  0  0
 22 47  1  0  0  0  0
 22 48  1  0  0  0  0
 26 49  1  0  0  0  0
 26 50  1  0  0  0  0
 27 51  1  0  0  0  0
M  END
> <creator>
Nimesh Mistry, University of Leeds

> <fragments>
x0830

> <real_space>
FALSE

> <SCR>
FALSE

> <BB>
FALSE

> <link>
https://covid.postera.ai/covid/submissions/7ba87d62-e988-4a36-a14e-34fe6d7cd8bf

> <covalent_frag>
TRUE

> <covalent_warhead>
TRUE

> <acrylamide>
FALSE

> <acrylamide_adduct>
FALSE

> <chloroacetamide>
TRUE

> <chloroacetamide_adduct>
FALSE

> <vinylsulfonamide>
FALSE

> <vinylsulfonamide_adduct>
FALSE

> <in_molport_or_mcule>
FALSE

> <in_emolecules>
FALSE

> <Hybrid2>
-7.062444

> <Mpro-x0830_dock>
-7.062444

> <Mpro-x0678_dock>
-6.214651

> <Mpro-x0434_dock>
-4.395156

> <Mpro-x0692_dock>
-2.182505

> <Mpro-x1385_dock>
-2.041111

> <Mpro-x1334_dock>
-0.436253

> <Mpro-x0770_dock>
2.013945

> <Mpro-x1386_dock>
2.40399

> <site>
active-covalent

> <covalent_distance_min>
3.0378282

> <covalent_distance_mean>
3.3798475

> <covalent_distance_stderr>
0.026884394

$$$$
DAV-CRI-d1e-1
  -OEChem-04062011563D

 33 34  0     0  0  0  0  0  0999 V2000
   13.2699   -0.8623   21.9459 C   0  0  0  0  0  0  0  0  0  0  0  0
   12.8182    0.9158   23.6803 C   0  0  0  0  0  0  0  0  0  0  0  0
   11.9264    1.1990   24.6913 C   0  0  0  0  0  0  0  0  0  0  0  0
   12.5162   -0.3152   23.0295 C   0  0  0  0  0  0  0  0  0  0  0  0
   11.4050   -0.9261   23.5680 C   0  0  0  0  0  0  0  0  0  0  0  0
    6.3100   -2.4940   19.8858 C   0  0  0  0  0  0  0  0  0  0  0  0
    7.2103   -3.1530   22.0940 C   0  0  0  0  0  0  0  0  0  0  0  0
    7.7260   -0.8913   21.2620 C   0  0  0  0  0  0  0  0  0  0  0  0
    8.6757   -3.3850   22.4323 C   0  0  0  0  0  0  0  0  0  0  0  0
    9.1999   -1.0887   21.5898 C   0  0  0  0  0  0  0  0  0  0  0  0
   10.7539   -2.2217   23.1825 C   0  0  0  0  0  0  0  0  0  0  0  0
    6.2173   -1.4355   18.8159 C   0  0  0  0  0  0  0  0  0  0  0  0
   13.8822   -1.3067   21.0659 N   0  0  0  0  0  0  0  0  0  0  0  0
    7.0685   -2.1784   21.0121 N   0  0  0  0  0  0  0  0  0  0  0  0
    9.3256   -2.0558   22.7457 N   0  3  0  0  0  0  0  0  0  0  0  0
    5.7273   -3.5691   19.7223 O   0  0  0  0  0  0  0  0  0  0  0  0
   10.7309   -0.0164   24.8527 S   0  0  0  0  0  0  0  0  0  0  0  0
    5.4518   -0.0350   19.5578 Cl  0  0  0  0  0  0  0  0  0  0  0  0
   13.6461    1.5667   23.4263 H   0  0  0  0  0  0  0  0  0  0  0  0
   11.9194    2.0615   25.3427 H   0  0  0  0  0  0  0  0  0  0  0  0
    6.7427   -4.1047   21.8231 H   0  0  0  0  0  0  0  0  0  0  0  0
    6.6685   -2.7610   22.9634 H   0  0  0  0  0  0  0  0  0  0  0  0
    7.2043   -0.4174   22.1023 H   0  0  0  0  0  0  0  0  0  0  0  0
    7.6370   -0.2161   20.4093 H   0  0  0  0  0  0  0  0  0  0  0  0
    8.7719   -4.0135   23.3235 H   0  0  0  0  0  0  0  0  0  0  0  0
    9.2231   -3.8394   21.5988 H   0  0  0  0  0  0  0  0  0  0  0  0
    9.7569   -1.5031   20.7420 H   0  0  0  0  0  0  0  0  0  0  0  0
    9.6552   -0.1440   21.9041 H   0  0  0  0  0  0  0  0  0  0  0  0
   11.2837   -2.6990   22.3511 H   0  0  0  0  0  0  0  0  0  0  0  0
   10.7466   -2.9257   24.0216 H   0  0  0  0  0  0  0  0  0  0  0  0
    5.6033   -1.8089   18.0043 H   0  0  0  0  0  0  0  0  0  0  0  0
    7.2179   -1.1815   18.4853 H   0  0  0  0  0  0  0  0  0  0  0  0
    8.8209   -1.6469   23.5443 H   0  0  0  0  0  0  0  0  0  0  0  0
  1  4  1  0  0  0  0
  1 13  3  0  0  0  0
  2  3  2  0  0  0  0
  2  4  1  0  0  0  0
  3 17  1  0  0  0  0
  4  5  2  0  0  0  0
  5 11  1  0  0  0  0
  5 17  1  0  0  0  0
  6 12  1  0  0  0  0
  6 14  1  0  0  0  0
  6 16  2  0  0  0  0
  7  9  1  0  0  0  0
  7 14  1  0  0  0  0
  8 10  1  0  0  0  0
  8 14  1  0  0  0  0
  9 15  1  0  0  0  0
 10 15  1  0  0  0  0
 11 15  1  0  0  0  0
 12 18  1  0  0  0  0
  2 19  1  0  0  0  0
  3 20  1  0  0  0  0
  7 21  1  0  0  0  0
  7 22  1  0  0  0  0
  8 23  1  0  0  0  0
  8 24  1  0  0  0  0
  9 25  1  0  0  0  0
  9 26  1  0  0  0  0
 10 27  1  0  0  0  0
 10 28  1  0  0  0  0
 11 29  1  0  0  0  0
 11 30  1  0  0  0  0
 12 31  1  0  0  0  0
 12 32  1  0  0  0  0
 15 33  1  0  0  0  0
M  CHG  1  15   1
M  END
> <creator>
David Briggs, Crick Institute

> <fragments>
x1386

> <real_space>
FALSE

> <SCR>
FALSE

> <BB>
FALSE

> <link>
https://covid.postera.ai/covid/submissions/d1e0885a-4deb-43bc-868d-ea4ea14cd272

> <covalent_frag>
TRUE

> <covalent_warhead>
TRUE

> <acrylamide>
FALSE

> <acrylamide_adduct>
FALSE

> <chloroacetamide>
TRUE

> <chloroacetamide_adduct>
FALSE

> <vinylsulfonamide>
FALSE

> <vinylsulfonamide_adduct>
FALSE

> <in_molport_or_mcule>
FALSE

> <in_emolecules>
FALSE

> <Hybrid2>
-7.032925

> <Mpro-x1386_dock>
-7.032925

> <Mpro-x1418_dock>
-5.776124

> <Mpro-x0305_dock>
-3.849246

> <site>
active-covalent

> <covalent_distance_min>
3.0063927

> <covalent_distance_mean>
3.6315436

> <covalent_distance_stderr>
0.10129816

$$$$
DAR-DIA-fb2-1
  -OEChem-04062011563D

 42 43  0     0  0  0  0  0  0999 V2000
   10.3627    6.5172   25.4764 C   0  0  0  0  0  0  0  0  0  0  0  0
    8.0129    6.8147   25.6920 C   0  0  0  0  0  0  0  0  0  0  0  0
   10.1939    6.4240   24.0994 C   0  0  0  0  0  0  0  0  0  0  0  0
    9.2565    6.7163   26.2949 C   0  0  0  0  0  0  0  0  0  0  0  0
    8.9082    6.5353   23.5947 C   0  0  0  0  0  0  0  0  0  0  0  0
   13.0652    0.9389   22.8930 C   0  0  0  0  0  0  0  0  0  0  0  0
   11.0802    2.4019   23.0941 C   0  0  0  0  0  0  0  0  0  0  0  0
   12.8830    3.1008   21.5661 C   0  0  0  0  0  0  0  0  0  0  0  0
   11.0471    3.7876   23.7220 C   0  0  0  0  0  0  0  0  0  0  0  0
   12.8757    4.4986   22.1702 C   0  0  0  0  0  0  0  0  0  0  0  0
    6.5933    7.3256   21.5306 C   0  0  0  0  0  0  0  0  0  0  0  0
   11.3901    6.2095   23.2197 C   0  0  0  0  0  0  0  0  0  0  0  0
   12.2029   -0.2490   23.2382 C   0  0  0  0  0  0  0  0  0  0  0  0
    7.4747    6.1249   21.5942 C   0  0  0  0  0  0  0  0  0  0  0  0
    7.8095    6.7291   24.3582 N   0  0  0  0  0  0  0  0  0  0  0  0
   12.3996    2.1100   22.5337 N   0  0  0  0  0  0  0  0  0  0  0  0
    8.7311    6.4398   22.1920 N   0  0  0  0  0  0  0  0  0  0  0  0
   11.4906    4.8050   22.6945 N   0  3  0  0  0  0  0  0  0  0  0  0
   14.2929    0.8266   22.9395 O   0  0  0  0  0  0  0  0  0  0  0  0
    9.3896    6.8102   27.6227 F   0  0  0  0  0  0  0  0  0  0  0  0
   12.5983   -1.5124   22.0783 Cl  0  0  0  0  0  0  0  0  0  0  0  0
   11.3511    6.4361   25.9199 H   0  0  0  0  0  0  0  0  0  0  0  0
    7.1187    6.9702   26.2864 H   0  0  0  0  0  0  0  0  0  0  0  0
   10.8026    1.6543   23.8437 H   0  0  0  0  0  0  0  0  0  0  0  0
   10.3519    2.3283   22.2772 H   0  0  0  0  0  0  0  0  0  0  0  0
   12.2194    3.0542   20.6941 H   0  0  0  0  0  0  0  0  0  0  0  0
   13.8896    2.8690   21.2141 H   0  0  0  0  0  0  0  0  0  0  0  0
   10.0281    4.0512   24.0235 H   0  0  0  0  0  0  0  0  0  0  0  0
   11.7191    3.8645   24.5841 H   0  0  0  0  0  0  0  0  0  0  0  0
   13.5794    4.5884   23.0053 H   0  0  0  0  0  0  0  0  0  0  0  0
   13.1093    5.2494   21.4083 H   0  0  0  0  0  0  0  0  0  0  0  0
    7.0832    8.1096   20.9345 H   0  0  0  0  0  0  0  0  0  0  0  0
    5.6361    7.0531   21.0619 H   0  0  0  0  0  0  0  0  0  0  0  0
    6.4098    7.6999   22.5485 H   0  0  0  0  0  0  0  0  0  0  0  0
   11.3633    6.8705   22.3467 H   0  0  0  0  0  0  0  0  0  0  0  0
   12.3207    6.4100   23.7616 H   0  0  0  0  0  0  0  0  0  0  0  0
   11.1608    0.0329   23.1405 H   0  0  0  0  0  0  0  0  0  0  0  0
   12.4431   -0.5775   24.2429 H   0  0  0  0  0  0  0  0  0  0  0  0
    6.9781    5.3461   22.1915 H   0  0  0  0  0  0  0  0  0  0  0  0
    7.6463    5.7509   20.5740 H   0  0  0  0  0  0  0  0  0  0  0  0
    9.5388    6.6041   21.6266 H   0  0  0  0  0  0  0  0  0  0  0  0
   10.8405    4.7428   21.8988 H   0  0  0  0  0  0  0  0  0  0  0  0
  1  3  1  0  0  0  0
  1  4  2  0  0  0  0
  2  4  1  0  0  0  0
  2 15  2  0  0  0  0
  3  5  2  0  0  0  0
  3 12  1  0  0  0  0
  4 20  1  0  0  0  0
  5 15  1  0  0  0  0
  5 17  1  0  0  0  0
  6 13  1  0  0  0  0
  6 16  1  0  0  0  0
  6 19  2  0  0  0  0
  7  9  1  0  0  0  0
  7 16  1  0  0  0  0
  8 10  1  0  0  0  0
  8 16  1  0  0  0  0
  9 18  1  0  0  0  0
 10 18  1  0  0  0  0
 11 14  1  0  0  0  0
 12 18  1  0  0  0  0
 13 21  1  0  0  0  0
 14 17  1  0  0  0  0
  1 22  1  0  0  0  0
  2 23  1  0  0  0  0
  7 24  1  0  0  0  0
  7 25  1  0  0  0  0
  8 26  1  0  0  0  0
  8 27  1  0  0  0  0
  9 28  1  0  0  0  0
  9 29  1  0  0  0  0
 10 30  1  0  0  0  0
 10 31  1  0  0  0  0
 11 32  1  0  0  0  0
 11 33  1  0  0  0  0
 11 34  1  0  0  0  0
 12 35  1  0  0  0  0
 12 36  1  0  0  0  0
 13 37  1  0  0  0  0
 13 38  1  0  0  0  0
 14 39  1  0  0  0  0
 14 40  1  0  0  0  0
 17 41  1  0  0  0  0
 18 42  1  0  0  0  0
M  CHG  1  18   1
M  END
> <creator>
Daren Fearon, Diamond Light Source Ltd

> <fragments>
x0104

> <real_space>
FALSE

> <SCR>
FALSE

> <BB>
FALSE

> <link>
https://covid.postera.ai/covid/submissions/fb20be43-b2ad-4a19-a5ce-eb2fe8d462e2

> <covalent_frag>
TRUE

> <covalent_warhead>
TRUE

> <acrylamide>
FALSE

> <acrylamide_adduct>
FALSE

> <chloroacetamide>
TRUE

> <chloroacetamide_adduct>
FALSE

> <vinylsulfonamide>
FALSE

> <vinylsulfonamide_adduct>
FALSE

> <in_molport_or_mcule>
FALSE

> <in_emolecules>
FALSE

> <Hybrid2>
-7.018445

> <Mpro-x0104_dock>
-7.018445

> <Mpro-x0830_dock>
-6.5672

> <Mpro-x0195_dock>
-6.050687

> <Mpro-x0305_dock>
-5.174741

> <site>
active-noncovalent

> <covalent_distance_min>
7.6374245

> <covalent_distance_mean>
8.811567

> <covalent_distance_stderr>
0.15417293

$$$$
BEN-VAN-ed8-10
  -OEChem-04062011563D

 50 51  0     0  0  0  0  0  0999 V2000
    9.1255    6.1633   23.0672 C   0  0  0  0  0  0  0  0  0  0  0  0
    7.8736    5.8662   22.5402 C   0  0  0  0  0  0  0  0  0  0  0  0
   12.0035    1.9108   23.6210 C   0  0  0  0  0  0  0  0  0  0  0  0
   11.8727   -0.0435   22.2066 C   0  0  0  0  0  0  0  0  0  0  0  0
    9.8713    0.8452   23.2272 C   0  0  0  0  0  0  0  0  0  0  0  0
   12.6270    0.9632   22.8094 C   0  0  0  0  0  0  0  0  0  0  0  0
   10.6256    1.8518   23.8300 C   0  0  0  0  0  0  0  0  0  0  0  0
   10.4948   -0.1025   22.4155 C   0  0  0  0  0  0  0  0  0  0  0  0
    9.8235    5.1921   23.7763 C   0  0  0  0  0  0  0  0  0  0  0  0
    9.2306    3.9492   23.9292 C   0  0  0  0  0  0  0  0  0  0  0  0
    7.3681    4.5930   22.7483 C   0  0  0  0  0  0  0  0  0  0  0  0
    3.8031    1.5263   18.7220 C   0  0  0  0  0  0  0  0  0  0  0  0
    4.5102    1.1136   19.7784 C   0  0  0  0  0  0  0  0  0  0  0  0
    5.9891    1.2740   19.8033 C   0  0  0  0  0  0  0  0  0  0  0  0
    7.9825    0.1680   20.7559 C   0  0  0  0  0  0  0  0  0  0  0  0
   14.1003    1.0263   22.5861 C   0  0  0  0  0  0  0  0  0  0  0  0
    3.8512    3.4277   22.2988 C   0  0  0  0  0  0  0  0  0  0  0  0
    9.9590    2.8651   24.6978 C   0  0  0  0  0  0  0  0  0  0  0  0
    8.3195   -1.0288   21.6184 C   0  0  0  0  0  0  0  0  0  0  0  0
    5.2802    3.2289   22.6745 C   0  0  0  0  0  0  0  0  0  0  0  0
    8.0166    3.6234   23.4317 N   0  0  0  0  0  0  0  0  0  0  0  0
    9.7445   -1.1038   21.8160 N   0  0  0  0  0  0  0  0  0  0  0  0
    6.0899    4.3064   22.2074 N   0  0  0  0  0  0  0  0  0  0  0  0
    6.6036    0.2750   20.5547 N   0  0  0  0  0  0  0  0  0  0  0  0
    6.5622    2.1883   19.2198 O   0  0  0  0  0  0  0  0  0  0  0  0
    8.8279    0.9338   20.3008 O   0  0  0  0  0  0  0  0  0  0  0  0
   11.0290    5.4612   24.2925 F   0  0  0  0  0  0  0  0  0  0  0  0
    9.5561    7.1500   22.9259 H   0  0  0  0  0  0  0  0  0  0  0  0
    7.3227    6.6178   21.9839 H   0  0  0  0  0  0  0  0  0  0  0  0
   12.5916    2.6957   24.0909 H   0  0  0  0  0  0  0  0  0  0  0  0
   12.3606   -0.7816   21.5740 H   0  0  0  0  0  0  0  0  0  0  0  0
    8.7969    0.8007   23.3913 H   0  0  0  0  0  0  0  0  0  0  0  0
    2.7247    1.4061   18.7110 H   0  0  0  0  0  0  0  0  0  0  0  0
    4.2628    1.9866   17.8546 H   0  0  0  0  0  0  0  0  0  0  0  0
    4.0102    0.6583   20.6262 H   0  0  0  0  0  0  0  0  0  0  0  0
   14.6276    0.4395   23.3481 H   0  0  0  0  0  0  0  0  0  0  0  0
   14.3705    0.6347   21.5968 H   0  0  0  0  0  0  0  0  0  0  0  0
   14.4657    2.0607   22.6287 H   0  0  0  0  0  0  0  0  0  0  0  0
    3.7644    3.4880   21.2039 H   0  0  0  0  0  0  0  0  0  0  0  0
    3.2539    2.5809   22.6678 H   0  0  0  0  0  0  0  0  0  0  0  0
    3.4806    4.3610   22.7478 H   0  0  0  0  0  0  0  0  0  0  0  0
    9.2474    2.3764   25.3865 H   0  0  0  0  0  0  0  0  0  0  0  0
   10.6928    3.3387   25.3736 H   0  0  0  0  0  0  0  0  0  0  0  0
    7.9653   -1.9402   21.1265 H   0  0  0  0  0  0  0  0  0  0  0  0
    7.8164   -0.9308   22.5857 H   0  0  0  0  0  0  0  0  0  0  0  0
    5.3584    3.1697   23.7701 H   0  0  0  0  0  0  0  0  0  0  0  0
    5.6410    2.2897   22.2299 H   0  0  0  0  0  0  0  0  0  0  0  0
   10.2302   -1.9376   21.5000 H   0  0  0  0  0  0  0  0  0  0  0  0
    5.7725    4.9011   21.4695 H   0  0  0  0  0  0  0  0  0  0  0  0
    6.0067   -0.4261   20.9876 H   0  0  0  0  0  0  0  0  0  0  0  0
  1  2  2  0  0  0  0
  1  9  1  0  0  0  0
  2 11  1  0  0  0  0
  3  6  1  0  0  0  0
  3  7  2  0  0  0  0
  4  6  2  0  0  0  0
  4  8  1  0  0  0  0
  5  7  1  0  0  0  0
  5  8  2  0  0  0  0
  6 16  1  0  0  0  0
  7 18  1  0  0  0  0
  8 22  1  0  0  0  0
  9 10  2  0  0  0  0
  9 27  1  0  0  0  0
 10 18  1  0  0  0  0
 10 21  1  0  0  0  0
 11 21  2  0  0  0  0
 11 23  1  0  0  0  0
 12 13  2  0  0  0  0
 13 14  1  0  0  0  0
 14 24  1  0  0  0  0
 14 25  2  0  0  0  0
 15 19  1  0  0  0  0
 15 24  1  0  0  0  0
 15 26  2  0  0  0  0
 17 20  1  0  0  0  0
 19 22  1  0  0  0  0
 20 23  1  0  0  0  0
  1 28  1  0  0  0  0
  2 29  1  0  0  0  0
  3 30  1  0  0  0  0
  4 31  1  0  0  0  0
  5 32  1  0  0  0  0
 12 33  1  0  0  0  0
 12 34  1  0  0  0  0
 13 35  1  0  0  0  0
 16 36  1  0  0  0  0
 16 37  1  0  0  0  0
 16 38  1  0  0  0  0
 17 39  1  0  0  0  0
 17 40  1  0  0  0  0
 17 41  1  0  0  0  0
 18 42  1  0  0  0  0
 18 43  1  0  0  0  0
 19 44  1  0  0  0  0
 19 45  1  0  0  0  0
 20 46  1  0  0  0  0
 20 47  1  0  0  0  0
 22 48  1  0  0  0  0
 23 49  1  0  0  0  0
 24 50  1  0  0  0  0
M  END
> <creator>
Benjamin P. Brown, Vanderbilt University, Laboratory of Jens Meiler

> <fragments>
x0434

> <real_space>
FALSE

> <SCR>
FALSE

> <BB>
FALSE

> <link>
https://covid.postera.ai/covid/submissions/ed886787-7a03-461a-8e89-d76e33337a9e

> <covalent_frag>
FALSE

> <covalent_warhead>
TRUE

> <acrylamide>
TRUE

> <acrylamide_adduct>
FALSE

> <chloroacetamide>
FALSE

> <chloroacetamide_adduct>
FALSE

> <vinylsulfonamide>
FALSE

> <vinylsulfonamide_adduct>
FALSE

> <in_molport_or_mcule>
FALSE

> <in_emolecules>
FALSE

> <Hybrid2>
-7.002871

> <Mpro-x0434_dock>
-7.002871

> <Mpro-x0305_dock>
-0.038834

> <site>
active-noncovalent

> <covalent_distance_min>
10.041033

> <covalent_distance_mean>
10.417812

> <covalent_distance_stderr>
0.04033051

$$$$
DAV-CRI-eab-3
  -OEChem-04062011563D

 34 35  0     1  0  0  0  0  0999 V2000
    8.7697   -1.4113   24.3071 C   0  0  0  0  0  0  0  0  0  0  0  0
   11.0271   -0.6415   24.7818 C   0  0  0  0  0  0  0  0  0  0  0  0
    9.7172   -0.6317   25.0680 C   0  0  0  0  0  0  0  0  0  0  0  0
    9.1196   -2.0389   23.1708 C   0  0  0  0  0  0  0  0  0  0  0  0
    6.1251   -2.2168   21.0662 C   0  0  0  0  0  0  0  0  0  0  0  0
   12.5690   -0.6542   22.7774 C   0  0  0  0  0  0  0  0  0  0  0  0
   11.6843    0.0152   21.7518 C   0  0  0  0  0  0  0  0  0  0  0  0
   11.5954   -1.4533   23.6438 C   0  0  2  0  0  0  0  0  0  0  0  0
   10.5315   -1.9630   22.6392 C   0  0  2  0  0  0  0  0  0  0  0  0
    7.5148   -3.9326   23.2159 C   0  0  0  0  0  0  0  0  0  0  0  0
    5.2231   -1.0530   20.7434 C   0  0  0  0  0  0  0  0  0  0  0  0
    8.1370   -2.8425   22.3710 C   0  0  1  0  0  0  0  0  0  0  0  0
    7.1710   -1.8844   21.9198 N   0  0  0  0  0  0  0  0  0  0  0  0
   10.6575   -1.0276   21.4482 N   0  3  0  0  0  0  0  0  0  0  0  0
    5.9186   -3.3422   20.6154 O   0  0  0  0  0  0  0  0  0  0  0  0
    9.1193    0.2881   26.4017 Cl  0  0  0  0  0  0  0  0  0  0  0  0
    6.1978    0.4239   20.8019 Cl  0  0  0  0  0  0  0  0  0  0  0  0
    7.7585   -1.4902   24.6867 H   0  0  0  0  0  0  0  0  0  0  0  0
   11.7271   -0.0556   25.3674 H   0  0  0  0  0  0  0  0  0  0  0  0
   13.3226   -1.2966   22.3060 H   0  0  0  0  0  0  0  0  0  0  0  0
   13.1019    0.1057   23.3667 H   0  0  0  0  0  0  0  0  0  0  0  0
   11.1731    0.9127   22.1188 H   0  0  0  0  0  0  0  0  0  0  0  0
   12.2132    0.2323   20.8146 H   0  0  0  0  0  0  0  0  0  0  0  0
   12.1094   -2.3195   24.0586 H   0  0  0  0  0  0  0  0  0  0  0  0
   10.8248   -2.9435   22.2726 H   0  0  0  0  0  0  0  0  0  0  0  0
    7.0013   -3.5227   24.0933 H   0  0  0  0  0  0  0  0  0  0  0  0
    6.7775   -4.4958   22.6340 H   0  0  0  0  0  0  0  0  0  0  0  0
    8.2766   -4.6321   23.5758 H   0  0  0  0  0  0  0  0  0  0  0  0
    4.7704   -1.1349   19.7522 H   0  0  0  0  0  0  0  0  0  0  0  0
    4.4303   -0.9888   21.4938 H   0  0  0  0  0  0  0  0  0  0  0  0
    8.6474   -3.2531   21.4987 H   0  0  0  0  0  0  0  0  0  0  0  0
    7.2545   -0.9184   22.2382 H   0  0  0  0  0  0  0  0  0  0  0  0
    9.7520   -0.5631   21.2693 H   0  0  0  0  0  0  0  0  0  0  0  0
   10.8874   -1.5462   20.5846 H   0  0  0  0  0  0  0  0  0  0  0  0
  1  3  1  0  0  0  0
  1  4  2  0  0  0  0
  2  3  2  0  0  0  0
  2  8  1  0  0  0  0
  3 16  1  0  0  0  0
  4  9  1  0  0  0  0
  4 12  1  0  0  0  0
  5 11  1  0  0  0  0
  5 13  1  0  0  0  0
  5 15  2  0  0  0  0
  6  7  1  0  0  0  0
  6  8  1  0  0  0  0
  7 14  1  0  0  0  0
  8  9  1  0  0  0  0
  9 14  1  0  0  0  0
 10 12  1  0  0  0  0
 11 17  1  0  0  0  0
 12 13  1  0  0  0  0
  1 18  1  0  0  0  0
  2 19  1  0  0  0  0
  6 20  1  0  0  0  0
  6 21  1  0  0  0  0
  7 22  1  0  0  0  0
  7 23  1  0  0  0  0
  8 24  1  0  0  0  0
  9 25  1  0  0  0  0
 10 26  1  0  0  0  0
 10 27  1  0  0  0  0
 10 28  1  0  0  0  0
 11 29  1  0  0  0  0
 11 30  1  0  0  0  0
 12 31  1  0  0  0  0
 13 32  1  0  0  0  0
 14 33  1  0  0  0  0
 14 34  1  0  0  0  0
M  CHG  1  14   1
M  END
> <creator>
David Briggs, Crick Institute

> <fragments>
x0831

> <real_space>
FALSE

> <SCR>
FALSE

> <BB>
FALSE

> <link>
https://covid.postera.ai/covid/submissions/eab5efcb-b199-4c70-afb4-8b9adb33206d

> <covalent_frag>
TRUE

> <covalent_warhead>
TRUE

> <acrylamide>
FALSE

> <acrylamide_adduct>
FALSE

> <chloroacetamide>
TRUE

> <chloroacetamide_adduct>
FALSE

> <vinylsulfonamide>
FALSE

> <vinylsulfonamide_adduct>
FALSE

> <in_molport_or_mcule>
FALSE

> <in_emolecules>
FALSE

> <Hybrid2>
-6.999310

> <Mpro-x0831_dock>
-6.99931

> <Mpro-x1382_dock>
-5.017061

> <site>
active-covalent

> <covalent_distance_min>
3.8418612

> <covalent_distance_mean>
5.197028

> <covalent_distance_stderr>
0.055119712

$$$$
DAV-CRI-eab-6
  -OEChem-04062011563D

 31 32  0     1  0  0  0  0  0999 V2000
    8.7296    0.1220   23.8192 C   0  0  0  0  0  0  0  0  0  0  0  0
   10.8672    0.9049   24.6758 C   0  0  0  0  0  0  0  0  0  0  0  0
   12.2093   -1.4909   22.3707 C   0  0  0  0  0  0  0  0  0  0  0  0
    9.5620    1.1165   24.4545 C   0  0  0  0  0  0  0  0  0  0  0  0
    9.1764   -1.1180   23.5493 C   0  0  0  0  0  0  0  0  0  0  0  0
    6.4809   -2.0404   21.2414 C   0  0  0  0  0  0  0  0  0  0  0  0
   12.4223   -0.1944   23.0658 C   0  0  0  0  0  0  0  0  0  0  0  0
   11.5441   -0.3801   24.2909 C   0  0  2  0  0  0  0  0  0  0  0  0
   10.5904   -1.5345   23.9037 C   0  0  2  0  0  0  0  0  0  0  0  0
    7.5123   -2.9045   24.0119 C   0  0  0  0  0  0  0  0  0  0  0  0
    5.6708   -1.0678   20.4228 C   0  0  0  0  0  0  0  0  0  0  0  0
    8.2799   -2.1586   22.9419 C   0  0  1  0  0  0  0  0  0  0  0  0
   11.2381   -2.2396   22.7729 N   0  0  0  0  0  0  0  0  0  0  0  0
    7.4160   -1.4237   22.0648 N   0  0  0  0  0  0  0  0  0  0  0  0
    6.2962   -3.2545   21.1762 O   0  0  0  0  0  0  0  0  0  0  0  0
    8.8323    2.6184   24.8950 Cl  0  0  0  0  0  0  0  0  0  0  0  0
    5.5378    0.4393   21.3426 Cl  0  0  0  0  0  0  0  0  0  0  0  0
    7.7143    0.4075   23.5494 H   0  0  0  0  0  0  0  0  0  0  0  0
   11.4676    1.6608   25.1784 H   0  0  0  0  0  0  0  0  0  0  0  0
   12.8908   -1.7979   21.5617 H   0  0  0  0  0  0  0  0  0  0  0  0
   13.4839   -0.1069   23.3200 H   0  0  0  0  0  0  0  0  0  0  0  0
   12.1356    0.6408   22.4201 H   0  0  0  0  0  0  0  0  0  0  0  0
   12.1731   -0.6698   25.1499 H   0  0  0  0  0  0  0  0  0  0  0  0
   10.5484   -2.2402   24.7641 H   0  0  0  0  0  0  0  0  0  0  0  0
    6.9025   -2.2267   24.6203 H   0  0  0  0  0  0  0  0  0  0  0  0
    6.8386   -3.6402   23.5600 H   0  0  0  0  0  0  0  0  0  0  0  0
    8.1944   -3.4313   24.6874 H   0  0  0  0  0  0  0  0  0  0  0  0
    6.1300   -0.8485   19.4557 H   0  0  0  0  0  0  0  0  0  0  0  0
    4.6701   -1.4766   20.2585 H   0  0  0  0  0  0  0  0  0  0  0  0
    8.8859   -2.8362   22.3381 H   0  0  0  0  0  0  0  0  0  0  0  0
    7.4906   -0.4063   22.0441 H   0  0  0  0  0  0  0  0  0  0  0  0
  1  4  1  0  0  0  0
  1  5  2  0  0  0  0
  2  4  2  0  0  0  0
  2  8  1  0  0  0  0
  3  7  1  0  0  0  0
  3 13  2  0  0  0  0
  4 16  1  0  0  0  0
  5  9  1  0  0  0  0
  5 12  1  0  0  0  0
  6 11  1  0  0  0  0
  6 14  1  0  0  0  0
  6 15  2  0  0  0  0
  7  8  1  0  0  0  0
  8  9  1  0  0  0  0
  9 13  1  0  0  0  0
 10 12  1  0  0  0  0
 11 17  1  0  0  0  0
 12 14  1  0  0  0  0
  1 18  1  0  0  0  0
  2 19  1  0  0  0  0
  3 20  1  0  0  0  0
  7 21  1  0  0  0  0
  7 22  1  0  0  0  0
  8 23  1  0  0  0  0
  9 24  1  0  0  0  0
 10 25  1  0  0  0  0
 10 26  1  0  0  0  0
 10 27  1  0  0  0  0
 11 28  1  0  0  0  0
 11 29  1  0  0  0  0
 12 30  1  0  0  0  0
 14 31  1  0  0  0  0
M  END
> <creator>
David Briggs, Crick Institute

> <fragments>
x0831

> <real_space>
FALSE

> <SCR>
FALSE

> <BB>
FALSE

> <link>
https://covid.postera.ai/covid/submissions/eab5efcb-b199-4c70-afb4-8b9adb33206d

> <covalent_frag>
TRUE

> <covalent_warhead>
TRUE

> <acrylamide>
FALSE

> <acrylamide_adduct>
FALSE

> <chloroacetamide>
TRUE

> <chloroacetamide_adduct>
FALSE

> <vinylsulfonamide>
FALSE

> <vinylsulfonamide_adduct>
FALSE

> <in_molport_or_mcule>
FALSE

> <in_emolecules>
FALSE

> <Hybrid2>
-6.993941

> <Mpro-x0831_dock>
-6.993941

> <Mpro-x1382_dock>
-4.580172

> <site>
active-covalent

> <covalent_distance_min>
6.096655

> <covalent_distance_mean>
6.3740582

> <covalent_distance_stderr>
0.028817438

$$$$
TAM-UNI-d1c-5
  -OEChem-04062011563D

 50 52  0     1  0  0  0  0  0999 V2000
   11.5857   -1.8453   22.6079 C   0  0  0  0  0  0  0  0  0  0  0  0
   10.5579   -2.7265   22.9430 C   0  0  0  0  0  0  0  0  0  0  0  0
    9.8926   -1.2654   24.7456 C   0  0  0  0  0  0  0  0  0  0  0  0
   11.7822   -0.6693   23.3450 C   0  0  0  0  0  0  0  0  0  0  0  0
   10.9164   -0.3679   24.4123 C   0  0  0  0  0  0  0  0  0  0  0  0
    9.7139   -2.4381   24.0124 C   0  0  0  0  0  0  0  0  0  0  0  0
    5.8421   -2.4073   19.6773 C   0  0  0  0  0  0  0  0  0  0  0  0
   12.8782    0.2865   22.9443 C   0  0  0  0  0  0  0  0  0  0  0  0
   11.1048    0.8820   25.2348 C   0  0  0  0  0  0  0  0  0  0  0  0
   13.2457    1.2560   24.0634 C   0  0  0  0  0  0  0  0  0  0  0  0
    6.4415   -4.1553   21.3224 C   0  0  0  0  0  0  0  0  0  0  0  0
    5.8496   -1.9195   22.1733 C   0  0  0  0  0  0  0  0  0  0  0  0
    7.6900   -4.1783   22.1920 C   0  0  0  0  0  0  0  0  0  0  0  0
    7.0890   -1.9097   23.0578 C   0  0  0  0  0  0  0  0  0  0  0  0
   10.2862    3.8664   24.9651 C   0  0  0  0  0  0  0  0  0  0  0  0
    8.6106   -3.3882   24.3746 C   0  0  0  0  0  0  0  0  0  0  0  0
    6.1314   -0.9687   19.3300 C   0  0  0  0  0  0  0  0  0  0  0  0
    6.0478   -2.7827   21.0041 N   0  0  0  0  0  0  0  0  0  0  0  0
   12.0186    1.8880   24.6181 N   0  0  1  0  0  0  0  0  0  0  0  0
    7.4492   -3.3325   23.4225 N   0  3  0  0  0  0  0  0  0  0  0  0
    5.4478   -3.1731   18.7941 O   0  0  0  0  0  0  0  0  0  0  0  0
   10.4231    2.5455   22.7149 O   0  0  0  0  0  0  0  0  0  0  0  0
   12.3186    4.0957   23.3389 O   0  0  0  0  0  0  0  0  0  0  0  0
   11.2980    3.1375   23.7030 S   0  0  0  0  0  0  0  0  0  0  0  0
    7.8206   -0.6830   19.7338 Cl  0  0  0  0  0  0  0  0  0  0  0  0
   12.2346   -2.0809   21.7679 H   0  0  0  0  0  0  0  0  0  0  0  0
   10.4231   -3.6356   22.3630 H   0  0  0  0  0  0  0  0  0  0  0  0
    9.2320   -1.0447   25.5815 H   0  0  0  0  0  0  0  0  0  0  0  0
   13.7757   -0.2727   22.6518 H   0  0  0  0  0  0  0  0  0  0  0  0
   12.5334    0.8483   22.0660 H   0  0  0  0  0  0  0  0  0  0  0  0
   10.1268    1.3611   25.3751 H   0  0  0  0  0  0  0  0  0  0  0  0
   11.5024    0.5955   26.2178 H   0  0  0  0  0  0  0  0  0  0  0  0
   13.7887    0.7375   24.8719 H   0  0  0  0  0  0  0  0  0  0  0  0
   13.9168    2.0307   23.6597 H   0  0  0  0  0  0  0  0  0  0  0  0
    6.6223   -4.7293   20.4082 H   0  0  0  0  0  0  0  0  0  0  0  0
    5.5984   -4.6278   21.8409 H   0  0  0  0  0  0  0  0  0  0  0  0
    4.9859   -2.3114   22.7241 H   0  0  0  0  0  0  0  0  0  0  0  0
    5.6071   -0.8948   21.8866 H   0  0  0  0  0  0  0  0  0  0  0  0
    7.9050   -5.1963   22.5327 H   0  0  0  0  0  0  0  0  0  0  0  0
    8.5628   -3.7715   21.6691 H   0  0  0  0  0  0  0  0  0  0  0  0
    7.9517   -1.4634   22.5505 H   0  0  0  0  0  0  0  0  0  0  0  0
    6.8922   -1.3735   23.9918 H   0  0  0  0  0  0  0  0  0  0  0  0
    9.7431    4.7062   24.5287 H   0  0  0  0  0  0  0  0  0  0  0  0
    9.5906    3.1088   25.3291 H   0  0  0  0  0  0  0  0  0  0  0  0
   10.9358    4.2089   25.7720 H   0  0  0  0  0  0  0  0  0  0  0  0
    8.9655   -4.4245   24.3775 H   0  0  0  0  0  0  0  0  0  0  0  0
    8.2114   -3.1694   25.3709 H   0  0  0  0  0  0  0  0  0  0  0  0
    5.4926   -0.3278   19.9268 H   0  0  0  0  0  0  0  0  0  0  0  0
    5.9731   -0.8251   18.2674 H   0  0  0  0  0  0  0  0  0  0  0  0
    6.6431   -3.7353   23.9202 H   0  0  0  0  0  0  0  0  0  0  0  0
  1  2  2  0  0  0  0
  1  4  1  0  0  0  0
  2  6  1  0  0  0  0
  3  5  1  0  0  0  0
  3  6  2  0  0  0  0
  4  5  2  0  0  0  0
  4  8  1  0  0  0  0
  5  9  1  0  0  0  0
  6 16  1  0  0  0  0
  7 17  1  0  0  0  0
  7 18  1  0  0  0  0
  7 21  2  0  0  0  0
  8 10  1  0  0  0  0
  9 19  1  0  0  0  0
 10 19  1  0  0  0  0
 11 13  1  0  0  0  0
 11 18  1  0  0  0  0
 12 14  1  0  0  0  0
 12 18  1  0  0  0  0
 13 20  1  0  0  0  0
 14 20  1  0  0  0  0
 15 24  1  0  0  0  0
 16 20  1  0  0  0  0
 17 25  1  0  0  0  0
 19 24  1  0  0  0  0
 22 24  2  0  0  0  0
 23 24  2  0  0  0  0
  1 26  1  0  0  0  0
  2 27  1  0  0  0  0
  3 28  1  0  0  0  0
  8 29  1  0  0  0  0
  8 30  1  0  0  0  0
  9 31  1  0  0  0  0
  9 32  1  0  0  0  0
 10 33  1  0  0  0  0
 10 34  1  0  0  0  0
 11 35  1  0  0  0  0
 11 36  1  0  0  0  0
 12 37  1  0  0  0  0
 12 38  1  0  0  0  0
 13 39  1  0  0  0  0
 13 40  1  0  0  0  0
 14 41  1  0  0  0  0
 14 42  1  0  0  0  0
 15 43  1  0  0  0  0
 15 44  1  0  0  0  0
 15 45  1  0  0  0  0
 16 46  1  0  0  0  0
 16 47  1  0  0  0  0
 17 48  1  0  0  0  0
 17 49  1  0  0  0  0
 20 50  1  0  0  0  0
M  CHG  1  20   1
M  END
> <creator>
Tamas Szommer, University of Oxford, TDI

> <fragments>
x0692

> <real_space>
FALSE

> <SCR>
FALSE

> <BB>
FALSE

> <link>
https://covid.postera.ai/covid/submissions/d1c3dd9f-771c-474e-9133-8c7e4ace8b98

> <covalent_frag>
TRUE

> <covalent_warhead>
TRUE

> <acrylamide>
FALSE

> <acrylamide_adduct>
FALSE

> <chloroacetamide>
TRUE

> <chloroacetamide_adduct>
FALSE

> <vinylsulfonamide>
FALSE

> <vinylsulfonamide_adduct>
FALSE

> <in_molport_or_mcule>
FALSE

> <in_emolecules>
FALSE

> <Hybrid2>
-6.992064

> <Mpro-x0692_dock>
-6.992064

> <Mpro-x1386_dock>
-6.769627

> <Mpro-x1392_dock>
-5.70209

> <Mpro-x1382_dock>
1.951218

> <site>
active-covalent

> <covalent_distance_min>
3.390829

> <covalent_distance_mean>
4.9223433

> <covalent_distance_stderr>
0.06269968

$$$$
DAV-CRI-eab-8
  -OEChem-04062011563D

 32 33  0     1  0  0  0  0  0999 V2000
   10.9228   -1.9203   22.1076 C   0  0  0  0  0  0  0  0  0  0  0  0
   11.9667   -0.4215   23.7091 C   0  0  0  0  0  0  0  0  0  0  0  0
   12.0817   -1.2605   22.6684 C   0  0  0  0  0  0  0  0  0  0  0  0
    9.7446   -1.9601   22.7608 C   0  0  0  0  0  0  0  0  0  0  0  0
    6.3723   -1.9954   21.3240 C   0  0  0  0  0  0  0  0  0  0  0  0
   10.0166    1.1196   23.7394 C   0  0  0  0  0  0  0  0  0  0  0  0
    8.2525   -0.7390   24.5217 C   0  0  0  0  0  0  0  0  0  0  0  0
   10.6265   -0.1501   24.3438 C   0  0  1  0  0  0  0  0  0  0  0  0
    9.6195   -1.3121   24.1367 C   0  0  2  0  0  0  0  0  0  0  0  0
    8.0785   -3.7539   23.1860 C   0  0  0  0  0  0  0  0  0  0  0  0
    5.4875   -0.7862   21.1592 C   0  0  0  0  0  0  0  0  0  0  0  0
    8.5750   -2.7152   22.2026 C   0  0  1  0  0  0  0  0  0  0  0  0
    7.5893   -1.7093   21.9316 N   0  0  0  0  0  0  0  0  0  0  0  0
    6.0154   -3.1147   20.9607 O   0  0  0  0  0  0  0  0  0  0  0  0
    8.2232    0.9693   23.9288 S   0  0  0  0  0  0  0  0  0  0  0  0
   13.6120   -1.5299   21.9192 Cl  0  0  0  0  0  0  0  0  0  0  0  0
    6.5319    0.6308   20.9689 Cl  0  0  0  0  0  0  0  0  0  0  0  0
   11.0211   -2.3779   21.1247 H   0  0  0  0  0  0  0  0  0  0  0  0
   12.8510    0.0411   24.1475 H   0  0  0  0  0  0  0  0  0  0  0  0
   10.3396    1.9981   24.3044 H   0  0  0  0  0  0  0  0  0  0  0  0
   10.2842    1.2680   22.6913 H   0  0  0  0  0  0  0  0  0  0  0  0
    7.4210   -1.2756   24.0521 H   0  0  0  0  0  0  0  0  0  0  0  0
    8.0997   -0.7648   25.6053 H   0  0  0  0  0  0  0  0  0  0  0  0
   10.8153    0.0297   25.3883 H   0  0  0  0  0  0  0  0  0  0  0  0
    9.9099   -2.0823   24.9201 H   0  0  0  0  0  0  0  0  0  0  0  0
    7.7832   -3.3003   24.1392 H   0  0  0  0  0  0  0  0  0  0  0  0
    7.2051   -4.2789   22.7848 H   0  0  0  0  0  0  0  0  0  0  0  0
    8.8571   -4.4937   23.3993 H   0  0  0  0  0  0  0  0  0  0  0  0
    4.8344   -0.8596   20.2862 H   0  0  0  0  0  0  0  0  0  0  0  0
    4.8733   -0.6606   22.0551 H   0  0  0  0  0  0  0  0  0  0  0  0
    8.8680   -3.1711   21.2547 H   0  0  0  0  0  0  0  0  0  0  0  0
    7.7894   -0.7444   22.1957 H   0  0  0  0  0  0  0  0  0  0  0  0
  1  3  1  0  0  0  0
  1  4  2  0  0  0  0
  2  3  2  0  0  0  0
  2  8  1  0  0  0  0
  3 16  1  0  0  0  0
  4  9  1  0  0  0  0
  4 12  1  0  0  0  0
  5 11  1  0  0  0  0
  5 13  1  0  0  0  0
  5 14  2  0  0  0  0
  6  8  1  0  0  0  0
  6 15  1  0  0  0  0
  7  9  1  0  0  0  0
  7 15  1  0  0  0  0
  8  9  1  0  0  0  0
 10 12  1  0  0  0  0
 11 17  1  0  0  0  0
 12 13  1  0  0  0  0
  1 18  1  0  0  0  0
  2 19  1  0  0  0  0
  6 20  1  0  0  0  0
  6 21  1  0  0  0  0
  7 22  1  0  0  0  0
  7 23  1  0  0  0  0
  8 24  1  0  0  0  0
  9 25  1  0  0  0  0
 10 26  1  0  0  0  0
 10 27  1  0  0  0  0
 10 28  1  0  0  0  0
 11 29  1  0  0  0  0
 11 30  1  0  0  0  0
 12 31  1  0  0  0  0
 13 32  1  0  0  0  0
M  END
> <creator>
David Briggs, Crick Institute

> <fragments>
x0831

> <real_space>
FALSE

> <SCR>
FALSE

> <BB>
FALSE

> <link>
https://covid.postera.ai/covid/submissions/eab5efcb-b199-4c70-afb4-8b9adb33206d

> <covalent_frag>
TRUE

> <covalent_warhead>
TRUE

> <acrylamide>
FALSE

> <acrylamide_adduct>
FALSE

> <chloroacetamide>
TRUE

> <chloroacetamide_adduct>
FALSE

> <vinylsulfonamide>
FALSE

> <vinylsulfonamide_adduct>
FALSE

> <in_molport_or_mcule>
FALSE

> <in_emolecules>
FALSE

> <Hybrid2>
-6.961595

> <Mpro-x0831_dock>
-6.961595

> <Mpro-x1382_dock>
-4.378825

> <site>
active-covalent

> <covalent_distance_min>
2.9959073

> <covalent_distance_mean>
3.6124048

> <covalent_distance_stderr>
0.022019466

$$$$
TIM-UNK-6bd-1
  -OEChem-04062011563D

 38 40  0     1  0  0  0  0  0999 V2000
    5.4621    1.6060   19.0792 C   0  0  0  0  0  0  0  0  0  0  0  0
    5.9212    0.2659   19.1001 C   0  0  0  0  0  0  0  0  0  0  0  0
    5.3241    2.0139   20.3876 C   0  0  0  0  0  0  0  0  0  0  0  0
    6.0496   -0.1044   20.4206 C   0  0  0  0  0  0  0  0  0  0  0  0
    6.4915   -1.3966   20.9686 C   0  0  0  0  0  0  0  0  0  0  0  0
   11.2584    1.0133   22.9495 C   0  0  0  0  0  0  0  0  0  0  0  0
    9.1723   -0.7308   25.4891 C   0  0  0  0  0  0  0  0  0  0  0  0
    8.5897   -1.9298   24.7481 C   0  0  0  0  0  0  0  0  0  0  0  0
   10.5448   -0.3274   24.9773 C   0  0  0  0  0  0  0  0  0  0  0  0
    8.1409   -2.6302   22.3560 C   0  0  0  0  0  0  0  0  0  0  0  0
    8.4724   -0.2549   22.1072 C   0  0  0  0  0  0  0  0  0  0  0  0
    9.2005   -2.1678   23.3586 C   0  0  1  0  0  0  0  0  0  0  0  0
    9.7376   -0.8959   22.6842 C   0  0  2  0  0  0  0  0  0  0  0  0
   12.5823    1.3463   23.5902 C   0  0  0  0  0  0  0  0  0  0  0  0
    5.6837    0.9659   21.1943 N   0  0  0  0  0  0  0  0  0  0  0  0
    7.6184   -1.3977   21.7760 N   0  0  0  0  0  0  0  0  0  0  0  0
   10.5104   -0.0062   23.5467 N   0  0  0  0  0  0  0  0  0  0  0  0
    5.8372   -2.3923   20.6659 O   0  0  0  0  0  0  0  0  0  0  0  0
   10.8953    1.6390   21.9498 O   0  0  0  0  0  0  0  0  0  0  0  0
   13.5379   -0.1312   23.5662 Cl  0  0  0  0  0  0  0  0  0  0  0  0
    5.2534    2.2075   18.2058 H   0  0  0  0  0  0  0  0  0  0  0  0
    6.1340   -0.3580   18.2427 H   0  0  0  0  0  0  0  0  0  0  0  0
    5.0003    2.9520   20.8160 H   0  0  0  0  0  0  0  0  0  0  0  0
    8.4790    0.1250   25.3954 H   0  0  0  0  0  0  0  0  0  0  0  0
    9.2282   -0.9535   26.5714 H   0  0  0  0  0  0  0  0  0  0  0  0
    8.7198   -2.8449   25.3664 H   0  0  0  0  0  0  0  0  0  0  0  0
    7.4864   -1.8027   24.6705 H   0  0  0  0  0  0  0  0  0  0  0  0
   10.9014    0.5622   25.4987 H   0  0  0  0  0  0  0  0  0  0  0  0
   11.2560   -1.1299   25.1696 H   0  0  0  0  0  0  0  0  0  0  0  0
    8.5945   -3.2023   21.5411 H   0  0  0  0  0  0  0  0  0  0  0  0
    7.3369   -3.2238   22.7963 H   0  0  0  0  0  0  0  0  0  0  0  0
    7.9325    0.3552   22.8379 H   0  0  0  0  0  0  0  0  0  0  0  0
    8.6727    0.3472   21.2174 H   0  0  0  0  0  0  0  0  0  0  0  0
    9.9961   -2.9176   23.4450 H   0  0  0  0  0  0  0  0  0  0  0  0
   10.3624   -1.2195   21.8398 H   0  0  0  0  0  0  0  0  0  0  0  0
   12.4075    1.6607   24.6124 H   0  0  0  0  0  0  0  0  0  0  0  0
   13.0709    2.1161   23.0047 H   0  0  0  0  0  0  0  0  0  0  0  0
    5.6787    0.9827   22.2050 H   0  0  0  0  0  0  0  0  0  0  0  0
  1  2  1  0  0  0  0
  1  3  2  0  0  0  0
  2  4  2  0  0  0  0
  3 15  1  0  0  0  0
  4  5  1  0  0  0  0
  4 15  1  0  0  0  0
  5 16  1  0  0  0  0
  5 18  2  0  0  0  0
  6 14  1  0  0  0  0
  6 17  1  0  0  0  0
  6 19  2  0  0  0  0
  7  8  1  0  0  0  0
  7  9  1  0  0  0  0
  8 12  1  0  0  0  0
  9 17  1  0  0  0  0
 10 12  1  0  0  0  0
 10 16  1  0  0  0  0
 11 13  1  0  0  0  0
 11 16  1  0  0  0  0
 12 13  1  0  0  0  0
 13 17  1  0  0  0  0
 14 20  1  0  0  0  0
  1 21  1  0  0  0  0
  2 22  1  0  0  0  0
  3 23  1  0  0  0  0
  7 24  1  0  0  0  0
  7 25  1  0  0  0  0
  8 26  1  0  0  0  0
  8 27  1  0  0  0  0
  9 28  1  0  0  0  0
  9 29  1  0  0  0  0
 10 30  1  0  0  0  0
 10 31  1  0  0  0  0
 11 32  1  0  0  0  0
 11 33  1  0  0  0  0
 12 34  1  0  0  0  0
 13 35  1  0  0  0  0
 14 36  1  0  0  0  0
 14 37  1  0  0  0  0
 15 38  1  0  0  0  0
M  END
> <creator>
Tim Rooney

> <fragments>
x0434

> <real_space>
FALSE

> <SCR>
FALSE

> <BB>
FALSE

> <link>
https://covid.postera.ai/covid/submissions/6bd61028-4a4e-4443-bf8e-c261bf8e211c

> <covalent_frag>
TRUE

> <covalent_warhead>
TRUE

> <acrylamide>
FALSE

> <acrylamide_adduct>
FALSE

> <chloroacetamide>
TRUE

> <chloroacetamide_adduct>
FALSE

> <vinylsulfonamide>
FALSE

> <vinylsulfonamide_adduct>
FALSE

> <in_molport_or_mcule>
FALSE

> <in_emolecules>
FALSE

> <Hybrid2>
-6.945223

> <Mpro-x0434_dock>
-6.945223

> <Mpro-x0678_dock>
-6.569339

> <Mpro-x0759_dock>
-5.40173

> <Mpro-x0774_dock>
-5.086136

> <site>
active-noncovalent

> <covalent_distance_min>
7.1945677

> <covalent_distance_mean>
7.643368

> <covalent_distance_stderr>
0.047414243

$$$$
DAR-DIA-fb2-4
  -OEChem-04062011563D

 43 44  0     0  0  0  0  0  0999 V2000
    7.7602   -2.3323   22.9111 C   0  0  0  0  0  0  0  0  0  0  0  0
    9.5916   -1.0050   23.8602 C   0  0  0  0  0  0  0  0  0  0  0  0
   10.1062   -2.8238   22.4168 C   0  0  0  0  0  0  0  0  0  0  0  0
    9.1512   -2.0550   23.0623 C   0  0  0  0  0  0  0  0  0  0  0  0
   10.9544   -0.7592   23.9864 C   0  0  0  0  0  0  0  0  0  0  0  0
   11.8286   -1.5861   23.2996 C   0  0  0  0  0  0  0  0  0  0  0  0
   12.5642    5.5764   23.3159 C   0  0  0  0  0  0  0  0  0  0  0  0
   11.9355    3.3338   22.4814 C   0  0  0  0  0  0  0  0  0  0  0  0
   10.8579    4.1451   24.5438 C   0  0  0  0  0  0  0  0  0  0  0  0
   12.2593    2.0051   23.1487 C   0  0  0  0  0  0  0  0  0  0  0  0
   11.1640    2.8270   25.2421 C   0  0  0  0  0  0  0  0  0  0  0  0
   14.3528   -1.7178   21.3361 C   0  0  0  0  0  0  0  0  0  0  0  0
   11.4262    0.3753   24.8472 C   0  0  0  0  0  0  0  0  0  0  0  0
   11.9583    6.8380   23.8772 C   0  0  0  0  0  0  0  0  0  0  0  0
   14.2037   -2.1293   22.7612 C   0  0  0  0  0  0  0  0  0  0  0  0
    6.6285   -2.5577   22.7880 N   0  0  0  0  0  0  0  0  0  0  0  0
   11.4383   -2.6157   22.5152 N   0  0  0  0  0  0  0  0  0  0  0  0
   11.8235    4.4056   23.4708 N   0  0  0  0  0  0  0  0  0  0  0  0
   13.2188   -1.3391   23.4247 N   0  0  0  0  0  0  0  0  0  0  0  0
   11.2214    1.7216   24.2115 N   0  3  0  0  0  0  0  0  0  0  0  0
   13.6638    5.6316   22.7593 O   0  0  0  0  0  0  0  0  0  0  0  0
   12.4917    6.9517   25.5507 Cl  0  0  0  0  0  0  0  0  0  0  0  0
    8.8771   -0.3753   24.3860 H   0  0  0  0  0  0  0  0  0  0  0  0
    9.8277   -3.6583   21.7796 H   0  0  0  0  0  0  0  0  0  0  0  0
   12.7065    3.5682   21.7407 H   0  0  0  0  0  0  0  0  0  0  0  0
   10.9790    3.2772   21.9475 H   0  0  0  0  0  0  0  0  0  0  0  0
    9.8621    4.1163   24.0851 H   0  0  0  0  0  0  0  0  0  0  0  0
   10.8453    4.9470   25.2839 H   0  0  0  0  0  0  0  0  0  0  0  0
   12.2149    1.1869   22.4226 H   0  0  0  0  0  0  0  0  0  0  0  0
   13.2424    2.0169   23.6326 H   0  0  0  0  0  0  0  0  0  0  0  0
   12.1279    2.8525   25.7625 H   0  0  0  0  0  0  0  0  0  0  0  0
   10.3689    2.5717   25.9501 H   0  0  0  0  0  0  0  0  0  0  0  0
   14.6547   -0.6611   21.2886 H   0  0  0  0  0  0  0  0  0  0  0  0
   15.1203   -2.3404   20.8531 H   0  0  0  0  0  0  0  0  0  0  0  0
   13.3931   -1.8485   20.8145 H   0  0  0  0  0  0  0  0  0  0  0  0
   10.8931    0.3948   25.8038 H   0  0  0  0  0  0  0  0  0  0  0  0
   12.4965    0.2892   25.0635 H   0  0  0  0  0  0  0  0  0  0  0  0
   10.8781    6.7578   23.8356 H   0  0  0  0  0  0  0  0  0  0  0  0
   12.3254    7.6862   23.3109 H   0  0  0  0  0  0  0  0  0  0  0  0
   13.9018   -3.1863   22.8000 H   0  0  0  0  0  0  0  0  0  0  0  0
   15.1690   -2.0046   23.2738 H   0  0  0  0  0  0  0  0  0  0  0  0
   13.4864   -0.5742   24.0095 H   0  0  0  0  0  0  0  0  0  0  0  0
   10.3042    1.6886   23.7453 H   0  0  0  0  0  0  0  0  0  0  0  0
  1  4  1  0  0  0  0
  1 16  3  0  0  0  0
  2  4  2  0  0  0  0
  2  5  1  0  0  0  0
  3  4  1  0  0  0  0
  3 17  2  0  0  0  0
  5  6  2  0  0  0  0
  5 13  1  0  0  0  0
  6 17  1  0  0  0  0
  6 19  1  0  0  0  0
  7 14  1  0  0  0  0
  7 18  1  0  0  0  0
  7 21  2  0  0  0  0
  8 10  1  0  0  0  0
  8 18  1  0  0  0  0
  9 11  1  0  0  0  0
  9 18  1  0  0  0  0
 10 20  1  0  0  0  0
 11 20  1  0  0  0  0
 12 15  1  0  0  0  0
 13 20  1  0  0  0  0
 14 22  1  0  0  0  0
 15 19  1  0  0  0  0
  2 23  1  0  0  0  0
  3 24  1  0  0  0  0
  8 25  1  0  0  0  0
  8 26  1  0  0  0  0
  9 27  1  0  0  0  0
  9 28  1  0  0  0  0
 10 29  1  0  0  0  0
 10 30  1  0  0  0  0
 11 31  1  0  0  0  0
 11 32  1  0  0  0  0
 12 33  1  0  0  0  0
 12 34  1  0  0  0  0
 12 35  1  0  0  0  0
 13 36  1  0  0  0  0
 13 37  1  0  0  0  0
 14 38  1  0  0  0  0
 14 39  1  0  0  0  0
 15 40  1  0  0  0  0
 15 41  1  0  0  0  0
 19 42  1  0  0  0  0
 20 43  1  0  0  0  0
M  CHG  1  20   1
M  END
> <creator>
Daren Fearon, Diamond Light Source Ltd

> <fragments>
x0195

> <real_space>
FALSE

> <SCR>
FALSE

> <BB>
FALSE

> <link>
https://covid.postera.ai/covid/submissions/fb20be43-b2ad-4a19-a5ce-eb2fe8d462e2

> <covalent_frag>
TRUE

> <covalent_warhead>
TRUE

> <acrylamide>
FALSE

> <acrylamide_adduct>
FALSE

> <chloroacetamide>
TRUE

> <chloroacetamide_adduct>
FALSE

> <vinylsulfonamide>
FALSE

> <vinylsulfonamide_adduct>
FALSE

> <in_molport_or_mcule>
FALSE

> <in_emolecules>
FALSE

> <Hybrid2>
-6.929774

> <Mpro-x0195_dock>
-6.929774

> <Mpro-x0830_dock>
-6.05949

> <Mpro-x0305_dock>
-5.769223

> <Mpro-x0104_dock>
-5.110994

> <site>
active-noncovalent

> <covalent_distance_min>
9.918967

> <covalent_distance_mean>
10.254536

> <covalent_distance_stderr>
0.029662957

$$$$
SEA-TRI-fac-1
  -OEChem-04062011563D

 57 60  0     1  0  0  0  0  0999 V2000
    9.8586   -4.8655   25.6487 C   0  0  0  0  0  0  0  0  0  0  0  0
   11.3819    0.4394   24.4613 C   0  0  0  0  0  0  0  0  0  0  0  0
   10.1360   -3.9514   24.6317 C   0  0  0  0  0  0  0  0  0  0  0  0
   10.3687   -0.4732   24.1677 C   0  0  0  0  0  0  0  0  0  0  0  0
    8.5412   -5.1947   25.9487 C   0  0  0  0  0  0  0  0  0  0  0  0
   12.5425    0.4657   23.6880 C   0  0  0  0  0  0  0  0  0  0  0  0
   11.6768   -1.3335   22.3276 C   0  0  0  0  0  0  0  0  0  0  0  0
   10.5162   -1.3597   23.1010 C   0  0  0  0  0  0  0  0  0  0  0  0
    9.0976   -3.3388   23.9081 C   0  0  0  0  0  0  0  0  0  0  0  0
    7.7659   -3.7114   24.1870 C   0  0  0  0  0  0  0  0  0  0  0  0
    7.4999   -4.6226   25.2210 C   0  0  0  0  0  0  0  0  0  0  0  0
   12.6900   -0.4208   22.6212 C   0  0  0  0  0  0  0  0  0  0  0  0
    6.3551   -2.7779   20.9768 C   0  0  0  0  0  0  0  0  0  0  0  0
    6.6059   -3.1335   23.4144 C   0  0  0  0  0  0  0  0  0  0  0  0
    8.1607   -1.5876   22.3092 C   0  0  0  0  0  0  0  0  0  0  0  0
    2.2091   -5.1010   26.3361 C   0  0  0  0  0  0  0  0  0  0  0  0
    3.5070   -7.1770   26.7680 C   0  0  0  0  0  0  0  0  0  0  0  0
    1.3432   -5.9159   25.3904 C   0  0  0  0  0  0  0  0  0  0  0  0
    2.5737   -7.8849   25.8004 C   0  0  0  0  0  0  0  0  0  0  0  0
    9.4101   -2.3567   22.7818 C   0  0  1  0  0  0  0  0  0  0  0  0
    6.8630   -2.0837   19.7384 C   0  0  0  0  0  0  0  0  0  0  0  0
    4.5309   -4.9484   27.2471 C   0  0  0  0  0  0  0  0  0  0  0  0
    5.9575   -5.3185   26.8920 C   0  0  0  0  0  0  0  0  0  0  0  0
    7.0284   -2.5025   22.1657 N   0  0  0  0  0  0  0  0  0  0  0  0
    3.5860   -5.7212   26.3724 N   0  3  0  0  0  0  0  0  0  0  0  0
    5.3913   -3.5427   20.8883 O   0  0  0  0  0  0  0  0  0  0  0  0
    1.2809   -7.2778   25.8163 O   0  0  0  0  0  0  0  0  0  0  0  0
    6.2178   -4.9683   25.5353 O   0  0  0  0  0  0  0  0  0  0  0  0
   14.1226   -0.3887   21.6681 Cl  0  0  0  0  0  0  0  0  0  0  0  0
    5.9604   -0.5794   19.5993 Cl  0  0  0  0  0  0  0  0  0  0  0  0
   10.6736   -5.3212   26.2044 H   0  0  0  0  0  0  0  0  0  0  0  0
   11.2667    1.1295   25.2922 H   0  0  0  0  0  0  0  0  0  0  0  0
   11.1745   -3.7179   24.4011 H   0  0  0  0  0  0  0  0  0  0  0  0
    9.4679   -0.4867   24.7757 H   0  0  0  0  0  0  0  0  0  0  0  0
    8.3316   -5.8978   26.7498 H   0  0  0  0  0  0  0  0  0  0  0  0
   13.3240    1.1823   23.9285 H   0  0  0  0  0  0  0  0  0  0  0  0
   11.7868   -2.0264   21.4966 H   0  0  0  0  0  0  0  0  0  0  0  0
    5.9163   -3.9331   23.1469 H   0  0  0  0  0  0  0  0  0  0  0  0
    6.0952   -2.4068   24.0390 H   0  0  0  0  0  0  0  0  0  0  0  0
    7.9263   -0.7719   22.9904 H   0  0  0  0  0  0  0  0  0  0  0  0
    8.3394   -1.1580   21.3219 H   0  0  0  0  0  0  0  0  0  0  0  0
    2.3170   -4.0709   25.9888 H   0  0  0  0  0  0  0  0  0  0  0  0
    1.8201   -5.1239   27.3580 H   0  0  0  0  0  0  0  0  0  0  0  0
    3.1250   -7.2096   27.7922 H   0  0  0  0  0  0  0  0  0  0  0  0
    4.5173   -7.5898   26.7209 H   0  0  0  0  0  0  0  0  0  0  0  0
    0.3218   -5.5220   25.3942 H   0  0  0  0  0  0  0  0  0  0  0  0
    1.7105   -5.8669   24.3583 H   0  0  0  0  0  0  0  0  0  0  0  0
    2.9706   -7.8839   24.7782 H   0  0  0  0  0  0  0  0  0  0  0  0
    2.4513   -8.9292   26.1042 H   0  0  0  0  0  0  0  0  0  0  0  0
    9.7696   -2.9413   21.8968 H   0  0  0  0  0  0  0  0  0  0  0  0
    6.6701   -2.7149   18.8788 H   0  0  0  0  0  0  0  0  0  0  0  0
    7.9191   -1.8749   19.8619 H   0  0  0  0  0  0  0  0  0  0  0  0
    4.3226   -3.8901   27.0663 H   0  0  0  0  0  0  0  0  0  0  0  0
    4.2896   -5.2128   28.2800 H   0  0  0  0  0  0  0  0  0  0  0  0
    6.6546   -4.7601   27.5245 H   0  0  0  0  0  0  0  0  0  0  0  0
    6.1425   -6.3894   27.0250 H   0  0  0  0  0  0  0  0  0  0  0  0
    3.9643   -5.6843   25.4143 H   0  0  0  0  0  0  0  0  0  0  0  0
  1  3  2  0  0  0  0
  1  5  1  0  0  0  0
  2  4  2  0  0  0  0
  2  6  1  0  0  0  0
  3  9  1  0  0  0  0
  4  8  1  0  0  0  0
  5 11  2  0  0  0  0
  6 12  2  0  0  0  0
  7  8  2  0  0  0  0
  7 12  1  0  0  0  0
  8 20  1  0  0  0  0
  9 10  2  0  0  0  0
  9 20  1  0  0  0  0
 10 11  1  0  0  0  0
 10 14  1  0  0  0  0
 11 28  1  0  0  0  0
 12 29  1  0  0  0  0
 13 21  1  0  0  0  0
 13 24  1  0  0  0  0
 13 26  2  0  0  0  0
 14 24  1  0  0  0  0
 15 20  1  0  0  0  0
 15 24  1  0  0  0  0
 16 18  1  0  0  0  0
 16 25  1  0  0  0  0
 17 19  1  0  0  0  0
 17 25  1  0  0  0  0
 18 27  1  0  0  0  0
 19 27  1  0  0  0  0
 21 30  1  0  0  0  0
 22 23  1  0  0  0  0
 22 25  1  0  0  0  0
 23 28  1  0  0  0  0
  1 31  1  0  0  0  0
  2 32  1  0  0  0  0
  3 33  1  0  0  0  0
  4 34  1  0  0  0  0
  5 35  1  0  0  0  0
  6 36  1  0  0  0  0
  7 37  1  0  0  0  0
 14 38  1  0  0  0  0
 14 39  1  0  0  0  0
 15 40  1  0  0  0  0
 15 41  1  0  0  0  0
 16 42  1  0  0  0  0
 16 43  1  0  0  0  0
 17 44  1  0  0  0  0
 17 45  1  0  0  0  0
 18 46  1  0  0  0  0
 18 47  1  0  0  0  0
 19 48  1  0  0  0  0
 19 49  1  0  0  0  0
 20 50  1  0  0  0  0
 21 51  1  0  0  0  0
 21 52  1  0  0  0  0
 22 53  1  0  0  0  0
 22 54  1  0  0  0  0
 23 55  1  0  0  0  0
 23 56  1  0  0  0  0
 25 57  1  0  0  0  0
M  CHG  1  25   1
M  END
> <creator>
Sean McKenna, Trinity College Dublin

> <fragments>
x1392

> <real_space>
FALSE

> <SCR>
FALSE

> <BB>
FALSE

> <link>
https://covid.postera.ai/covid/submissions/fac72a44-6fa7-423a-821d-e809b8703db9

> <covalent_frag>
TRUE

> <covalent_warhead>
TRUE

> <acrylamide>
FALSE

> <acrylamide_adduct>
FALSE

> <chloroacetamide>
TRUE

> <chloroacetamide_adduct>
FALSE

> <vinylsulfonamide>
FALSE

> <vinylsulfonamide_adduct>
FALSE

> <in_molport_or_mcule>
FALSE

> <in_emolecules>
FALSE

> <Hybrid2>
-6.918802

> <Mpro-x1392_dock>
-6.918802

> <site>
active-covalent

> <covalent_distance_min>
3.2425177

> <covalent_distance_mean>
3.5733986

> <covalent_distance_stderr>
0.017955389

$$$$
MAK-UNK-af8-28
  -OEChem-04062011563D

 58 61  0     0  0  0  0  0  0999 V2000
    9.0582   -1.3627   25.8032 C   0  0  0  0  0  0  0  0  0  0  0  0
    7.8268   -1.9852   25.6316 C   0  0  0  0  0  0  0  0  0  0  0  0
   13.9260   -1.1147   21.8484 C   0  0  0  0  0  0  0  0  0  0  0  0
    9.0499   -0.8236   23.4867 C   0  0  0  0  0  0  0  0  0  0  0  0
   14.2864    1.3314   21.8935 C   0  0  0  0  0  0  0  0  0  0  0  0
   13.6705    0.1755   22.2941 C   0  0  0  0  0  0  0  0  0  0  0  0
   12.6921    0.5140   23.2738 C   0  0  0  0  0  0  0  0  0  0  0  0
    9.6881   -0.7684   24.7153 C   0  0  0  0  0  0  0  0  0  0  0  0
   12.7265    1.8710   23.4556 C   0  0  0  0  0  0  0  0  0  0  0  0
    7.2719   -1.9858   24.3620 C   0  0  0  0  0  0  0  0  0  0  0  0
   11.8657   -0.4019   23.9116 C   0  0  0  0  0  0  0  0  0  0  0  0
    7.7135    6.1313   23.0695 C   0  0  0  0  0  0  0  0  0  0  0  0
   10.1285    6.0635   23.6029 C   0  0  0  0  0  0  0  0  0  0  0  0
    9.2182    4.3075   22.1328 C   0  0  0  0  0  0  0  0  0  0  0  0
   10.8299    5.0156   24.4547 C   0  0  0  0  0  0  0  0  0  0  0  0
    9.9080    3.2325   22.9620 C   0  0  0  0  0  0  0  0  0  0  0  0
    6.1400   -4.3693   22.5504 C   0  0  0  0  0  0  0  0  0  0  0  0
   14.0748    3.7519   22.4734 C   0  0  0  0  0  0  0  0  0  0  0  0
   11.9336    2.7782   24.3497 C   0  0  0  0  0  0  0  0  0  0  0  0
    6.7568    5.9808   21.9138 C   0  0  0  0  0  0  0  0  0  0  0  0
    5.5315   -3.0640   22.9358 C   0  0  0  0  0  0  0  0  0  0  0  0
    7.8538   -1.4191   23.2813 N   0  0  0  0  0  0  0  0  0  0  0  0
   13.1208   -2.0292   22.4661 N   0  0  0  0  0  0  0  0  0  0  0  0
   12.1040   -1.6774   23.4844 N   0  0  0  0  0  0  0  0  0  0  0  0
   13.7027    2.3597   22.6085 N   0  0  0  0  0  0  0  0  0  0  0  0
    8.9506    5.5013   22.9420 N   0  0  0  0  0  0  0  0  0  0  0  0
    6.0167   -2.6241   24.2032 N   0  0  0  0  0  0  0  0  0  0  0  0
   11.1527    3.8155   23.5929 N   0  3  0  0  0  0  0  0  0  0  0  0
    7.3689    6.7872   24.0560 O   0  0  0  0  0  0  0  0  0  0  0  0
   10.9129   -0.1428   24.8555 O   0  0  0  0  0  0  0  0  0  0  0  0
    5.8259    4.5183   22.2176 Cl  0  0  0  0  0  0  0  0  0  0  0  0
    9.5218   -1.3436   26.7854 H   0  0  0  0  0  0  0  0  0  0  0  0
    7.3281   -2.4516   26.4749 H   0  0  0  0  0  0  0  0  0  0  0  0
   14.6429   -1.4481   21.1162 H   0  0  0  0  0  0  0  0  0  0  0  0
    9.4951   -0.3768   22.6034 H   0  0  0  0  0  0  0  0  0  0  0  0
   15.0748    1.5284   21.1789 H   0  0  0  0  0  0  0  0  0  0  0  0
    9.8518    6.9177   24.2287 H   0  0  0  0  0  0  0  0  0  0  0  0
   10.7981    6.4385   22.8193 H   0  0  0  0  0  0  0  0  0  0  0  0
    9.8562    4.6179   21.2965 H   0  0  0  0  0  0  0  0  0  0  0  0
    8.3048    3.8947   21.7014 H   0  0  0  0  0  0  0  0  0  0  0  0
   11.7775    5.4035   24.8422 H   0  0  0  0  0  0  0  0  0  0  0  0
   10.2026    4.6744   25.2859 H   0  0  0  0  0  0  0  0  0  0  0  0
    9.2651    2.8600   23.7673 H   0  0  0  0  0  0  0  0  0  0  0  0
   10.2242    2.3989   22.3267 H   0  0  0  0  0  0  0  0  0  0  0  0
    5.8924   -5.1277   23.3078 H   0  0  0  0  0  0  0  0  0  0  0  0
    5.7442   -4.6840   21.5735 H   0  0  0  0  0  0  0  0  0  0  0  0
    7.2325   -4.2594   22.4852 H   0  0  0  0  0  0  0  0  0  0  0  0
   13.4503    4.1937   21.6925 H   0  0  0  0  0  0  0  0  0  0  0  0
   13.9162    4.2652   23.4259 H   0  0  0  0  0  0  0  0  0  0  0  0
   15.1322    3.8186   22.2024 H   0  0  0  0  0  0  0  0  0  0  0  0
   11.2096    2.2126   24.9459 H   0  0  0  0  0  0  0  0  0  0  0  0
   12.5863    3.3196   25.0429 H   0  0  0  0  0  0  0  0  0  0  0  0
    7.3264    5.8758   20.9974 H   0  0  0  0  0  0  0  0  0  0  0  0
    6.0992    6.8421   21.8875 H   0  0  0  0  0  0  0  0  0  0  0  0
    5.7834   -2.3116   22.1740 H   0  0  0  0  0  0  0  0  0  0  0  0
    4.4389   -3.1793   22.9900 H   0  0  0  0  0  0  0  0  0  0  0  0
    5.4731   -2.7554   25.0316 H   0  0  0  0  0  0  0  0  0  0  0  0
   11.7612    4.1399   22.8285 H   0  0  0  0  0  0  0  0  0  0  0  0
  1  2  2  0  0  0  0
  1  8  1  0  0  0  0
  2 10  1  0  0  0  0
  3  6  1  0  0  0  0
  3 23  2  0  0  0  0
  4  8  2  0  0  0  0
  4 22  1  0  0  0  0
  5  6  2  0  0  0  0
  5 25  1  0  0  0  0
  6  7  1  0  0  0  0
  7  9  2  0  0  0  0
  7 11  1  0  0  0  0
  8 30  1  0  0  0  0
  9 19  1  0  0  0  0
  9 25  1  0  0  0  0
 10 22  2  0  0  0  0
 10 27  1  0  0  0  0
 11 24  2  0  0  0  0
 11 30  1  0  0  0  0
 12 20  1  0  0  0  0
 12 26  1  0  0  0  0
 12 29  2  0  0  0  0
 13 15  1  0  0  0  0
 13 26  1  0  0  0  0
 14 16  1  0  0  0  0
 14 26  1  0  0  0  0
 15 28  1  0  0  0  0
 16 28  1  0  0  0  0
 17 21  1  0  0  0  0
 18 25  1  0  0  0  0
 19 28  1  0  0  0  0
 20 31  1  0  0  0  0
 21 27  1  0  0  0  0
 23 24  1  0  0  0  0
  1 32  1  0  0  0  0
  2 33  1  0  0  0  0
  3 34  1  0  0  0  0
  4 35  1  0  0  0  0
  5 36  1  0  0  0  0
 13 37  1  0  0  0  0
 13 38  1  0  0  0  0
 14 39  1  0  0  0  0
 14 40  1  0  0  0  0
 15 41  1  0  0  0  0
 15 42  1  0  0  0  0
 16 43  1  0  0  0  0
 16 44  1  0  0  0  0
 17 45  1  0  0  0  0
 17 46  1  0  0  0  0
 17 47  1  0  0  0  0
 18 48  1  0  0  0  0
 18 49  1  0  0  0  0
 18 50  1  0  0  0  0
 19 51  1  0  0  0  0
 19 52  1  0  0  0  0
 20 53  1  0  0  0  0
 20 54  1  0  0  0  0
 21 55  1  0  0  0  0
 21 56  1  0  0  0  0
 27 57  1  0  0  0  0
 28 58  1  0  0  0  0
M  CHG  1  28   1
M  END
> <creator>
Maksym Voznyy

> <fragments>
x0195

> <real_space>
FALSE

> <SCR>
FALSE

> <BB>
FALSE

> <link>
https://covid.postera.ai/covid/submissions/af83ef51-35cf-489e-b3bd-9012d86d8275

> <covalent_frag>
TRUE

> <covalent_warhead>
TRUE

> <acrylamide>
FALSE

> <acrylamide_adduct>
FALSE

> <chloroacetamide>
TRUE

> <chloroacetamide_adduct>
FALSE

> <vinylsulfonamide>
FALSE

> <vinylsulfonamide_adduct>
FALSE

> <in_molport_or_mcule>
FALSE

> <in_emolecules>
FALSE

> <Hybrid2>
-6.905110

> <Mpro-x0195_dock>
-6.90511

> <Mpro-x0072_dock>
-6.523725

> <Mpro-x0161_dock>
-6.031003

> <Mpro-x0104_dock>
-5.435701

> <Mpro-x0387_dock>
-3.699688

> <Mpro-x0305_dock>
-3.030128

> <Mpro-x0692_dock>
-2.644041

> <site>
active-noncovalent

> <covalent_distance_min>
8.465469

> <covalent_distance_mean>
9.869204

> <covalent_distance_stderr>
0.080548644

$$$$
DAN-PUR-678-1
  -OEChem-04062011563D

 34 34  0     1  0  0  0  0  0999 V2000
    8.6340   -4.9734   25.5523 C   0  0  0  0  0  0  0  0  0  0  0  0
    7.2956   -3.5169   22.0867 C   0  0  0  0  0  0  0  0  0  0  0  0
    6.0876   -6.6508   22.3400 C   0  0  0  0  0  0  0  0  0  0  0  0
    4.8750   -7.3478   22.9457 C   0  0  0  0  0  0  0  0  0  0  0  0
    5.2202   -4.8106   23.6903 C   0  0  0  0  0  0  0  0  0  0  0  0
    6.5001   -5.5705   23.3439 C   0  0  2  0  0  0  0  0  0  0  0  0
    9.4333   -4.5265   24.3858 C   0  0  0  0  0  0  0  0  0  0  0  0
    8.3621   -2.4526   22.2506 C   0  0  0  0  0  0  0  0  0  0  0  0
    8.9005   -5.1093   23.0827 C   0  0  0  0  0  0  0  0  0  0  0  0
    7.6303   -4.2031   25.9458 N   0  0  0  0  0  0  0  0  0  0  0  0
    7.5175   -4.7016   22.8208 N   0  0  0  0  0  0  0  0  0  0  0  0
    8.9756   -6.1161   26.1299 N   0  3  0  0  0  0  0  0  0  0  0  0
    6.3155   -3.3372   21.3596 O   0  0  0  0  0  0  0  0  0  0  0  0
    3.6984   -6.4272   25.1157 O   0  0  0  0  0  0  0  0  0  0  0  0
    2.8650   -5.6428   22.8513 O   0  0  0  0  0  0  0  0  0  0  0  0
    3.9350   -6.0513   23.7374 S   0  0  0  0  0  0  0  0  0  0  0  0
    7.9888   -1.3925   23.6242 Cl  0  0  0  0  0  0  0  0  0  0  0  0
    6.9053   -7.3699   22.2313 H   0  0  0  0  0  0  0  0  0  0  0  0
    5.8680   -6.2449   21.3511 H   0  0  0  0  0  0  0  0  0  0  0  0
    4.2455   -7.7961   22.1719 H   0  0  0  0  0  0  0  0  0  0  0  0
    5.1532   -8.1038   23.6829 H   0  0  0  0  0  0  0  0  0  0  0  0
    5.2914   -4.3760   24.6908 H   0  0  0  0  0  0  0  0  0  0  0  0
    4.9624   -4.0331   22.9697 H   0  0  0  0  0  0  0  0  0  0  0  0
    6.9255   -6.0272   24.2546 H   0  0  0  0  0  0  0  0  0  0  0  0
    9.4452   -3.4306   24.3329 H   0  0  0  0  0  0  0  0  0  0  0  0
   10.4753   -4.8421   24.5206 H   0  0  0  0  0  0  0  0  0  0  0  0
    9.3311   -2.9174   22.4493 H   0  0  0  0  0  0  0  0  0  0  0  0
    8.4101   -1.8268   21.3559 H   0  0  0  0  0  0  0  0  0  0  0  0
    8.9251   -6.2035   23.0950 H   0  0  0  0  0  0  0  0  0  0  0  0
    9.5033   -4.7597   22.2389 H   0  0  0  0  0  0  0  0  0  0  0  0
    7.4255   -3.3379   25.4585 H   0  0  0  0  0  0  0  0  0  0  0  0
    7.0522   -4.4600   26.7383 H   0  0  0  0  0  0  0  0  0  0  0  0
    9.7556   -6.6644   25.7846 H   0  0  0  0  0  0  0  0  0  0  0  0
    8.4577   -6.4620   26.9300 H   0  0  0  0  0  0  0  0  0  0  0  0
  1  7  1  0  0  0  0
  1 10  1  0  0  0  0
  1 12  2  0  0  0  0
  2  8  1  0  0  0  0
  2 11  1  0  0  0  0
  2 13  2  0  0  0  0
  3  4  1  0  0  0  0
  3  6  1  0  0  0  0
  4 16  1  0  0  0  0
  5  6  1  0  0  0  0
  5 16  1  0  0  0  0
  6 11  1  0  0  0  0
  7  9  1  0  0  0  0
  8 17  1  0  0  0  0
  9 11  1  0  0  0  0
 14 16  2  0  0  0  0
 15 16  2  0  0  0  0
  3 18  1  0  0  0  0
  3 19  1  0  0  0  0
  4 20  1  0  0  0  0
  4 21  1  0  0  0  0
  5 22  1  0  0  0  0
  5 23  1  0  0  0  0
  6 24  1  0  0  0  0
  7 25  1  0  0  0  0
  7 26  1  0  0  0  0
  8 27  1  0  0  0  0
  8 28  1  0  0  0  0
  9 29  1  0  0  0  0
  9 30  1  0  0  0  0
 10 31  1  0  0  0  0
 10 32  1  0  0  0  0
 12 33  1  0  0  0  0
 12 34  1  0  0  0  0
M  CHG  1  12   1
M  END
> <creator>
Daniel Flaherty, Purdue University

> <fragments>
x1311

> <real_space>
FALSE

> <SCR>
FALSE

> <BB>
FALSE

> <link>
https://covid.postera.ai/covid/submissions/6788a628-93c6-44af-8b51-b89c911ee181

> <covalent_frag>
TRUE

> <covalent_warhead>
TRUE

> <acrylamide>
FALSE

> <acrylamide_adduct>
FALSE

> <chloroacetamide>
TRUE

> <chloroacetamide_adduct>
FALSE

> <vinylsulfonamide>
FALSE

> <vinylsulfonamide_adduct>
FALSE

> <in_molport_or_mcule>
FALSE

> <in_emolecules>
FALSE

> <Hybrid2>
-6.892467

> <Mpro-x1311_dock>
-6.892467

> <site>
active-covalent

> <covalent_distance_min>
5.516344

> <covalent_distance_mean>
6.0019774

> <covalent_distance_stderr>
0.016695019

$$$$
MAK-UNK-af8-31
  -OEChem-04062011563D

 55 56  0     0  0  0  0  0  0999 V2000
   10.9419    0.1943   22.2480 C   0  0  0  0  0  0  0  0  0  0  0  0
   10.1822   -0.5633   23.1324 C   0  0  0  0  0  0  0  0  0  0  0  0
   12.1939    1.0058   24.1002 C   0  0  0  0  0  0  0  0  0  0  0  0
   11.9688    0.9965   22.7331 C   0  0  0  0  0  0  0  0  0  0  0  0
   10.4874   -0.4843   24.4817 C   0  0  0  0  0  0  0  0  0  0  0  0
    5.7153    4.8285   21.9894 C   0  0  0  0  0  0  0  0  0  0  0  0
   13.0516    4.1160   22.7424 C   0  0  0  0  0  0  0  0  0  0  0  0
    7.8429    6.0908   22.0238 C   0  0  0  0  0  0  0  0  0  0  0  0
    7.9534    3.6325   22.1567 C   0  0  0  0  0  0  0  0  0  0  0  0
    8.7914    6.2180   23.2069 C   0  0  0  0  0  0  0  0  0  0  0  0
    8.9058    3.7227   23.3415 C   0  0  0  0  0  0  0  0  0  0  0  0
    7.9876   -2.7971   26.0709 C   0  0  0  0  0  0  0  0  0  0  0  0
   12.8064    1.8266   21.8039 C   0  0  0  0  0  0  0  0  0  0  0  0
    5.0340    3.4848   22.0518 C   0  0  0  0  0  0  0  0  0  0  0  0
   12.4875    5.5175   22.5890 C   0  0  0  0  0  0  0  0  0  0  0  0
   11.8469    6.0335   23.8752 C   0  0  0  0  0  0  0  0  0  0  0  0
    8.6403   -2.1023   24.9246 C   0  0  0  0  0  0  0  0  0  0  0  0
   10.7262    5.1137   24.3349 C   0  0  0  0  0  0  0  0  0  0  0  0
   11.4771    0.2835   24.9902 N   0  0  0  0  0  0  0  0  0  0  0  0
    7.1069    4.8274   22.0735 N   0  0  0  0  0  0  0  0  0  0  0  0
    9.7044   -1.2629   25.3699 N   0  0  0  0  0  0  0  0  0  0  0  0
   12.4532    3.2261   21.8624 N   0  0  0  0  0  0  0  0  0  0  0  0
    9.6975    5.0077   23.2444 N   0  3  0  0  0  0  0  0  0  0  0  0
    5.0295    5.8474   21.8721 O   0  0  0  0  0  0  0  0  0  0  0  0
   13.9278    3.8281   23.5533 O   0  0  0  0  0  0  0  0  0  0  0  0
    4.8752    2.9230   20.3914 Cl  0  0  0  0  0  0  0  0  0  0  0  0
   10.7271    0.1539   21.1837 H   0  0  0  0  0  0  0  0  0  0  0  0
    9.3785   -1.1919   22.7624 H   0  0  0  0  0  0  0  0  0  0  0  0
   12.9810    1.6126   24.5372 H   0  0  0  0  0  0  0  0  0  0  0  0
    7.1541    6.9413   22.0145 H   0  0  0  0  0  0  0  0  0  0  0  0
    8.3973    6.1118   21.0777 H   0  0  0  0  0  0  0  0  0  0  0  0
    8.5135    3.5646   21.2162 H   0  0  0  0  0  0  0  0  0  0  0  0
    7.3619    2.7194   22.2426 H   0  0  0  0  0  0  0  0  0  0  0  0
    9.4300    7.1005   23.0972 H   0  0  0  0  0  0  0  0  0  0  0  0
    8.2545    6.2665   24.1609 H   0  0  0  0  0  0  0  0  0  0  0  0
    8.3714    3.7279   24.2981 H   0  0  0  0  0  0  0  0  0  0  0  0
    9.6230    2.8958   23.3239 H   0  0  0  0  0  0  0  0  0  0  0  0
    7.5820   -2.0508   26.7698 H   0  0  0  0  0  0  0  0  0  0  0  0
    7.1704   -3.4318   25.6975 H   0  0  0  0  0  0  0  0  0  0  0  0
    8.7287   -3.4217   26.5910 H   0  0  0  0  0  0  0  0  0  0  0  0
   13.8685    1.7360   22.0564 H   0  0  0  0  0  0  0  0  0  0  0  0
   12.6892    1.4949   20.7669 H   0  0  0  0  0  0  0  0  0  0  0  0
    4.0539    3.6080   22.4984 H   0  0  0  0  0  0  0  0  0  0  0  0
    5.6561    2.8014   22.6183 H   0  0  0  0  0  0  0  0  0  0  0  0
   11.7450    5.5011   21.7820 H   0  0  0  0  0  0  0  0  0  0  0  0
   13.3034    6.1836   22.2837 H   0  0  0  0  0  0  0  0  0  0  0  0
   11.4561    7.0461   23.7123 H   0  0  0  0  0  0  0  0  0  0  0  0
   12.6097    6.1149   24.6601 H   0  0  0  0  0  0  0  0  0  0  0  0
    9.0431   -2.8549   24.2308 H   0  0  0  0  0  0  0  0  0  0  0  0
    7.8916   -1.4872   24.4041 H   0  0  0  0  0  0  0  0  0  0  0  0
   11.0840    4.0991   24.5332 H   0  0  0  0  0  0  0  0  0  0  0  0
   10.2126    5.5028   25.2189 H   0  0  0  0  0  0  0  0  0  0  0  0
    9.9315   -1.1981   26.3411 H   0  0  0  0  0  0  0  0  0  0  0  0
   11.7092    3.5528   21.2529 H   0  0  0  0  0  0  0  0  0  0  0  0
   10.2153    4.9828   22.3551 H   0  0  0  0  0  0  0  0  0  0  0  0
  1  2  2  0  0  0  0
  1  4  1  0  0  0  0
  2  5  1  0  0  0  0
  3  4  2  0  0  0  0
  3 19  1  0  0  0  0
  4 13  1  0  0  0  0
  5 19  2  0  0  0  0
  5 21  1  0  0  0  0
  6 14  1  0  0  0  0
  6 20  1  0  0  0  0
  6 24  2  0  0  0  0
  7 15  1  0  0  0  0
  7 22  1  0  0  0  0
  7 25  2  0  0  0  0
  8 10  1  0  0  0  0
  8 20  1  0  0  0  0
  9 11  1  0  0  0  0
  9 20  1  0  0  0  0
 10 23  1  0  0  0  0
 11 23  1  0  0  0  0
 12 17  1  0  0  0  0
 13 22  1  0  0  0  0
 14 26  1  0  0  0  0
 15 16  1  0  0  0  0
 16 18  1  0  0  0  0
 17 21  1  0  0  0  0
 18 23  1  0  0  0  0
  1 27  1  0  0  0  0
  2 28  1  0  0  0  0
  3 29  1  0  0  0  0
  8 30  1  0  0  0  0
  8 31  1  0  0  0  0
  9 32  1  0  0  0  0
  9 33  1  0  0  0  0
 10 34  1  0  0  0  0
 10 35  1  0  0  0  0
 11 36  1  0  0  0  0
 11 37  1  0  0  0  0
 12 38  1  0  0  0  0
 12 39  1  0  0  0  0
 12 40  1  0  0  0  0
 13 41  1  0  0  0  0
 13 42  1  0  0  0  0
 14 43  1  0  0  0  0
 14 44  1  0  0  0  0
 15 45  1  0  0  0  0
 15 46  1  0  0  0  0
 16 47  1  0  0  0  0
 16 48  1  0  0  0  0
 17 49  1  0  0  0  0
 17 50  1  0  0  0  0
 18 51  1  0  0  0  0
 18 52  1  0  0  0  0
 21 53  1  0  0  0  0
 22 54  1  0  0  0  0
 23 55  1  0  0  0  0
M  CHG  1  23   1
M  END
> <creator>
Maksym Voznyy

> <fragments>
x0104

> <real_space>
FALSE

> <SCR>
FALSE

> <BB>
FALSE

> <link>
https://covid.postera.ai/covid/submissions/af83ef51-35cf-489e-b3bd-9012d86d8275

> <covalent_frag>
TRUE

> <covalent_warhead>
TRUE

> <acrylamide>
FALSE

> <acrylamide_adduct>
FALSE

> <chloroacetamide>
TRUE

> <chloroacetamide_adduct>
FALSE

> <vinylsulfonamide>
FALSE

> <vinylsulfonamide_adduct>
FALSE

> <in_molport_or_mcule>
FALSE

> <in_emolecules>
FALSE

> <Hybrid2>
-6.861592

> <Mpro-x0104_dock>
-6.861592

> <Mpro-x0072_dock>
-4.230329

> <Mpro-x0161_dock>
-3.997037

> <Mpro-x0195_dock>
-3.311059

> <Mpro-x0387_dock>
-3.131154

> <Mpro-x0692_dock>
-2.638464

> <Mpro-x0305_dock>
-2.327259

> <site>
active-noncovalent

> <covalent_distance_min>
4.9352264

> <covalent_distance_mean>
5.3546896

> <covalent_distance_stderr>
0.04485698

$$$$
DUN-NEW-f8c-23
  -OEChem-04062011563D

 42 44  0     0  0  0  0  0  0999 V2000
    5.6492   -5.6608   26.0866 C   0  0  0  0  0  0  0  0  0  0  0  0
    6.9319   -5.9956   25.6529 C   0  0  0  0  0  0  0  0  0  0  0  0
    5.4303   -4.4539   26.7509 C   0  0  0  0  0  0  0  0  0  0  0  0
   13.3738   -0.4682   24.0120 C   0  0  0  0  0  0  0  0  0  0  0  0
    7.9959   -5.1236   25.8837 C   0  0  0  0  0  0  0  0  0  0  0  0
    6.4943   -3.5819   26.9816 C   0  0  0  0  0  0  0  0  0  0  0  0
   12.9810   -1.5020   23.1581 C   0  0  0  0  0  0  0  0  0  0  0  0
   12.4512    0.1637   24.8385 C   0  0  0  0  0  0  0  0  0  0  0  0
    7.7771   -3.9167   26.5480 C   0  0  0  0  0  0  0  0  0  0  0  0
   10.6847   -1.2661   23.9780 C   0  0  0  0  0  0  0  0  0  0  0  0
   11.6304   -1.8864   23.1559 C   0  0  0  0  0  0  0  0  0  0  0  0
   11.1083   -0.2242   24.8313 C   0  0  0  0  0  0  0  0  0  0  0  0
    9.3645   -2.7221   22.9759 C   0  0  0  0  0  0  0  0  0  0  0  0
    6.9603   -3.3376   23.0362 C   0  0  0  0  0  0  0  0  0  0  0  0
    8.9277   -2.9730   26.7982 C   0  0  0  0  0  0  0  0  0  0  0  0
    6.0259   -4.3368   22.3943 C   0  0  0  0  0  0  0  0  0  0  0  0
    8.4992   -1.5081   26.8350 C   0  0  0  0  0  0  0  0  0  0  0  0
    9.3917   -1.7554   23.8634 N   0  0  0  0  0  0  0  0  0  0  0  0
    8.2825   -3.4606   22.5760 N   0  0  0  0  0  0  0  0  0  0  0  0
    9.6303   -0.5949   27.0526 N   0  0  0  0  0  0  0  0  0  0  0  0
    6.5375   -2.5487   23.8770 O   0  0  0  0  0  0  0  0  0  0  0  0
   10.7009    1.6943   26.5527 O   0  0  0  0  0  0  0  0  0  0  0  0
    8.7885    0.8956   25.1283 O   0  0  0  0  0  0  0  0  0  0  0  0
   10.8516   -3.1115   22.2256 S   0  0  0  0  0  0  0  0  0  0  0  0
    9.9909    0.6077   25.8950 S   0  0  0  0  0  0  0  0  0  0  0  0
    6.9670   -5.7866   22.0097 Cl  0  0  0  0  0  0  0  0  0  0  0  0
    4.8206   -6.3393   25.9056 H   0  0  0  0  0  0  0  0  0  0  0  0
    7.1023   -6.9347   25.1347 H   0  0  0  0  0  0  0  0  0  0  0  0
    4.4316   -4.1924   27.0877 H   0  0  0  0  0  0  0  0  0  0  0  0
   14.4146   -0.1556   24.0296 H   0  0  0  0  0  0  0  0  0  0  0  0
    8.9920   -5.3928   25.5424 H   0  0  0  0  0  0  0  0  0  0  0  0
    6.3144   -2.6439   27.5002 H   0  0  0  0  0  0  0  0  0  0  0  0
   13.7058   -1.9919   22.5152 H   0  0  0  0  0  0  0  0  0  0  0  0
   12.7882    0.9644   25.4924 H   0  0  0  0  0  0  0  0  0  0  0  0
    9.6718   -3.1133   26.0039 H   0  0  0  0  0  0  0  0  0  0  0  0
    9.4318   -3.2427   27.7350 H   0  0  0  0  0  0  0  0  0  0  0  0
    5.5684   -3.9594   21.4763 H   0  0  0  0  0  0  0  0  0  0  0  0
    5.2343   -4.6013   23.1010 H   0  0  0  0  0  0  0  0  0  0  0  0
    8.0466   -1.2278   25.8786 H   0  0  0  0  0  0  0  0  0  0  0  0
    7.7667   -1.3212   27.6271 H   0  0  0  0  0  0  0  0  0  0  0  0
    8.4562   -4.1824   21.8626 H   0  0  0  0  0  0  0  0  0  0  0  0
    9.8987   -0.4351   28.0313 H   0  0  0  0  0  0  0  0  0  0  0  0
  1  2  1  0  0  0  0
  1  3  2  0  0  0  0
  2  5  2  0  0  0  0
  3  6  1  0  0  0  0
  4  7  2  0  0  0  0
  4  8  1  0  0  0  0
  5  9  1  0  0  0  0
  6  9  2  0  0  0  0
  7 11  1  0  0  0  0
  8 12  2  0  0  0  0
  9 15  1  0  0  0  0
 10 11  2  0  0  0  0
 10 12  1  0  0  0  0
 10 18  1  0  0  0  0
 11 24  1  0  0  0  0
 12 25  1  0  0  0  0
 13 18  2  0  0  0  0
 13 19  1  0  0  0  0
 13 24  1  0  0  0  0
 14 16  1  0  0  0  0
 14 19  1  0  0  0  0
 14 21  2  0  0  0  0
 15 17  1  0  0  0  0
 16 26  1  0  0  0  0
 17 20  1  0  0  0  0
 20 25  1  0  0  0  0
 22 25  2  0  0  0  0
 23 25  2  0  0  0  0
  1 27  1  0  0  0  0
  2 28  1  0  0  0  0
  3 29  1  0  0  0  0
  4 30  1  0  0  0  0
  5 31  1  0  0  0  0
  6 32  1  0  0  0  0
  7 33  1  0  0  0  0
  8 34  1  0  0  0  0
 15 35  1  0  0  0  0
 15 36  1  0  0  0  0
 16 37  1  0  0  0  0
 16 38  1  0  0  0  0
 17 39  1  0  0  0  0
 17 40  1  0  0  0  0
 19 41  1  0  0  0  0
 20 42  1  0  0  0  0
M  END
> <creator>
Duncan Miller, Newcastle University

> <fragments>
x0072

> <real_space>
FALSE

> <SCR>
FALSE

> <BB>
FALSE

> <link>
https://covid.postera.ai/covid/submissions/f8ce3686-4774-4f4e-b96a-ab98611b1edd

> <covalent_frag>
TRUE

> <covalent_warhead>
TRUE

> <acrylamide>
FALSE

> <acrylamide_adduct>
FALSE

> <chloroacetamide>
TRUE

> <chloroacetamide_adduct>
FALSE

> <vinylsulfonamide>
FALSE

> <vinylsulfonamide_adduct>
FALSE

> <in_molport_or_mcule>
FALSE

> <in_emolecules>
FALSE

> <Hybrid2>
-6.849080

> <Mpro-x0072_dock>
-6.84908

> <Mpro-x1458_dock>
-3.306365

> <site>
active-noncovalent

> <covalent_distance_min>
3.5953045

> <covalent_distance_mean>
4.4970045

> <covalent_distance_stderr>
0.03682376

$$$$
SEA-TRI-822-1
  -OEChem-04062011563D

 42 44  0     1  0  0  0  0  0999 V2000
   11.2410    0.9422   25.0314 C   0  0  0  0  0  0  0  0  0  0  0  0
   10.3308   -0.0080   24.5687 C   0  0  0  0  0  0  0  0  0  0  0  0
   12.4229    1.1762   24.3284 C   0  0  0  0  0  0  0  0  0  0  0  0
   10.3134   -3.7435   24.4454 C   0  0  0  0  0  0  0  0  0  0  0  0
    9.7182   -4.6652   25.3544 C   0  0  0  0  0  0  0  0  0  0  0  0
   11.7844   -0.4905   22.7002 C   0  0  0  0  0  0  0  0  0  0  0  0
   10.6025   -0.7245   23.4031 C   0  0  0  0  0  0  0  0  0  0  0  0
   12.6946    0.4598   23.1629 C   0  0  0  0  0  0  0  0  0  0  0  0
    9.3868   -2.8812   23.9019 C   0  0  0  0  0  0  0  0  0  0  0  0
    8.3591   -4.4721   25.4713 C   0  0  0  0  0  0  0  0  0  0  0  0
    5.7360   -0.0130   19.3474 C   0  0  0  0  0  0  0  0  0  0  0  0
    6.1857   -1.5730   21.2143 C   0  0  0  0  0  0  0  0  0  0  0  0
    7.1255    0.7009   21.3543 C   0  0  0  0  0  0  0  0  0  0  0  0
    7.5358   -2.1754   21.5745 C   0  0  0  0  0  0  0  0  0  0  0  0
    8.4903    0.1323   21.7187 C   0  0  0  0  0  0  0  0  0  0  0  0
    5.3367    1.4152   19.0747 C   0  0  0  0  0  0  0  0  0  0  0  0
    9.6109   -1.7607   22.9002 C   0  0  1  0  0  0  0  0  0  0  0  0
    6.3464   -0.2671   20.5747 N   0  0  0  0  0  0  0  0  0  0  0  0
    8.3032   -1.1903   22.4278 N   0  3  0  0  0  0  0  0  0  0  0  0
    5.5137   -0.8748   18.4931 O   0  0  0  0  0  0  0  0  0  0  0  0
    7.8063   -3.1842   24.4874 S   0  0  0  0  0  0  0  0  0  0  0  0
   14.1535    0.7481   22.2967 Cl  0  0  0  0  0  0  0  0  0  0  0  0
    7.2537   -5.3467   26.4459 Cl  0  0  0  0  0  0  0  0  0  0  0  0
    3.5994    1.4075   18.7926 Cl  0  0  0  0  0  0  0  0  0  0  0  0
   11.0291    1.4998   25.9391 H   0  0  0  0  0  0  0  0  0  0  0  0
    9.4125   -0.1839   25.1228 H   0  0  0  0  0  0  0  0  0  0  0  0
   13.1232    1.9197   24.7010 H   0  0  0  0  0  0  0  0  0  0  0  0
   11.3687   -3.7178   24.2051 H   0  0  0  0  0  0  0  0  0  0  0  0
   10.2651   -5.4291   25.8926 H   0  0  0  0  0  0  0  0  0  0  0  0
   11.9915   -1.0514   21.7917 H   0  0  0  0  0  0  0  0  0  0  0  0
    5.6412   -2.2613   20.5603 H   0  0  0  0  0  0  0  0  0  0  0  0
    5.5738   -1.4265   22.1127 H   0  0  0  0  0  0  0  0  0  0  0  0
    6.5488    0.9291   22.2589 H   0  0  0  0  0  0  0  0  0  0  0  0
    7.2619    1.6409   20.8171 H   0  0  0  0  0  0  0  0  0  0  0  0
    7.4068   -3.0879   22.1655 H   0  0  0  0  0  0  0  0  0  0  0  0
    8.1392   -2.3929   20.6859 H   0  0  0  0  0  0  0  0  0  0  0  0
    9.1106   -0.0452   20.8331 H   0  0  0  0  0  0  0  0  0  0  0  0
    9.0150    0.8009   22.4088 H   0  0  0  0  0  0  0  0  0  0  0  0
    5.8561    1.7623   18.1887 H   0  0  0  0  0  0  0  0  0  0  0  0
    5.5699    2.0176   19.9451 H   0  0  0  0  0  0  0  0  0  0  0  0
   10.0308   -2.1909   21.9810 H   0  0  0  0  0  0  0  0  0  0  0  0
    7.7409   -1.0098   23.2709 H   0  0  0  0  0  0  0  0  0  0  0  0
  1  2  2  0  0  0  0
  1  3  1  0  0  0  0
  2  7  1  0  0  0  0
  3  8  2  0  0  0  0
  4  5  1  0  0  0  0
  4  9  2  0  0  0  0
  5 10  2  0  0  0  0
  6  7  2  0  0  0  0
  6  8  1  0  0  0  0
  7 17  1  0  0  0  0
  8 22  1  0  0  0  0
  9 17  1  0  0  0  0
  9 21  1  0  0  0  0
 10 21  1  0  0  0  0
 10 23  1  0  0  0  0
 11 16  1  0  0  0  0
 11 18  1  0  0  0  0
 11 20  2  0  0  0  0
 12 14  1  0  0  0  0
 12 18  1  0  0  0  0
 13 15  1  0  0  0  0
 13 18  1  0  0  0  0
 14 19  1  0  0  0  0
 15 19  1  0  0  0  0
 16 24  1  0  0  0  0
 17 19  1  0  0  0  0
  1 25  1  0  0  0  0
  2 26  1  0  0  0  0
  3 27  1  0  0  0  0
  4 28  1  0  0  0  0
  5 29  1  0  0  0  0
  6 30  1  0  0  0  0
 12 31  1  0  0  0  0
 12 32  1  0  0  0  0
 13 33  1  0  0  0  0
 13 34  1  0  0  0  0
 14 35  1  0  0  0  0
 14 36  1  0  0  0  0
 15 37  1  0  0  0  0
 15 38  1  0  0  0  0
 16 39  1  0  0  0  0
 16 40  1  0  0  0  0
 17 41  1  0  0  0  0
 19 42  1  0  0  0  0
M  CHG  1  19   1
M  END
> <creator>
Sean McKenna, Trinity College Dublin

> <fragments>
x0434

> <real_space>
FALSE

> <SCR>
FALSE

> <BB>
FALSE

> <link>
https://covid.postera.ai/covid/submissions/8222e606-be03-44bb-9b6d-d2d34531b7fa

> <covalent_frag>
TRUE

> <covalent_warhead>
TRUE

> <acrylamide>
FALSE

> <acrylamide_adduct>
FALSE

> <chloroacetamide>
TRUE

> <chloroacetamide_adduct>
FALSE

> <vinylsulfonamide>
FALSE

> <vinylsulfonamide_adduct>
FALSE

> <in_molport_or_mcule>
FALSE

> <in_emolecules>
FALSE

> <Hybrid2>
-6.837725

> <Mpro-x0434_dock>
-6.837725

> <Mpro-x1382_dock>
-2.328259

> <site>
active-noncovalent

> <covalent_distance_min>
5.4440255

> <covalent_distance_mean>
6.5060363

> <covalent_distance_stderr>
0.061889034

$$$$
DAV-CRI-eab-5
  -OEChem-04062011563D

 34 35  0     1  0  0  0  0  0999 V2000
    8.7067   -0.7151   24.8384 C   0  0  0  0  0  0  0  0  0  0  0  0
   11.1204   -0.7672   24.5495 C   0  0  0  0  0  0  0  0  0  0  0  0
   10.0419   -0.2814   25.1826 C   0  0  0  0  0  0  0  0  0  0  0  0
    8.4636   -1.4319   23.7260 C   0  0  0  0  0  0  0  0  0  0  0  0
    6.1572   -2.0204   21.0466 C   0  0  0  0  0  0  0  0  0  0  0  0
   11.9141   -1.5085   22.2635 C   0  0  0  0  0  0  0  0  0  0  0  0
    9.6703   -0.8698   21.5909 C   0  0  0  0  0  0  0  0  0  0  0  0
   10.9925   -1.7826   23.4412 C   0  0  2  0  0  0  0  0  0  0  0  0
    9.5903   -1.8197   22.7915 C   0  0  1  0  0  0  0  0  0  0  0  0
    6.0546   -1.3297   24.3137 C   0  0  0  0  0  0  0  0  0  0  0  0
    6.0844   -1.2816   19.7348 C   0  0  0  0  0  0  0  0  0  0  0  0
    7.0812   -1.8673   23.3411 C   0  0  1  0  0  0  0  0  0  0  0  0
    6.8983   -1.3532   22.0156 N   0  0  0  0  0  0  0  0  0  0  0  0
   11.1273   -0.5807   21.3997 N   0  3  0  0  0  0  0  0  0  0  0  0
    5.5910   -3.0989   21.2161 O   0  0  0  0  0  0  0  0  0  0  0  0
   10.2177    0.8455   26.4781 Cl  0  0  0  0  0  0  0  0  0  0  0  0
    6.1794    0.4523   20.0804 Cl  0  0  0  0  0  0  0  0  0  0  0  0
    7.9000   -0.4515   25.5079 H   0  0  0  0  0  0  0  0  0  0  0  0
   12.1151   -0.4517   24.8224 H   0  0  0  0  0  0  0  0  0  0  0  0
   12.8349   -0.9807   22.5380 H   0  0  0  0  0  0  0  0  0  0  0  0
   12.1525   -2.3986   21.6733 H   0  0  0  0  0  0  0  0  0  0  0  0
    9.2878   -1.3088   20.6565 H   0  0  0  0  0  0  0  0  0  0  0  0
    9.1742    0.0989   21.7685 H   0  0  0  0  0  0  0  0  0  0  0  0
   11.2007   -2.7642   23.8486 H   0  0  0  0  0  0  0  0  0  0  0  0
    9.4073   -2.8274   22.4385 H   0  0  0  0  0  0  0  0  0  0  0  0
    6.0765   -0.2349   24.3630 H   0  0  0  0  0  0  0  0  0  0  0  0
    5.0454   -1.6271   24.0099 H   0  0  0  0  0  0  0  0  0  0  0  0
    6.2361   -1.7097   25.3246 H   0  0  0  0  0  0  0  0  0  0  0  0
    6.8987   -1.5486   19.0567 H   0  0  0  0  0  0  0  0  0  0  0  0
    5.1292   -1.4980   19.2485 H   0  0  0  0  0  0  0  0  0  0  0  0
    7.0575   -2.9568   23.2939 H   0  0  0  0  0  0  0  0  0  0  0  0
    7.3297   -0.4607   21.7732 H   0  0  0  0  0  0  0  0  0  0  0  0
   11.3475    0.4154   21.6043 H   0  0  0  0  0  0  0  0  0  0  0  0
   11.3846   -0.7201   20.4017 H   0  0  0  0  0  0  0  0  0  0  0  0
  1  3  1  0  0  0  0
  1  4  2  0  0  0  0
  2  3  2  0  0  0  0
  2  8  1  0  0  0  0
  3 16  1  0  0  0  0
  4  9  1  0  0  0  0
  4 12  1  0  0  0  0
  5 11  1  0  0  0  0
  5 13  1  0  0  0  0
  5 15  2  0  0  0  0
  6  8  1  0  0  0  0
  6 14  1  0  0  0  0
  7  9  1  0  0  0  0
  7 14  1  0  0  0  0
  8  9  1  0  0  0  0
 10 12  1  0  0  0  0
 11 17  1  0  0  0  0
 12 13  1  0  0  0  0
  1 18  1  0  0  0  0
  2 19  1  0  0  0  0
  6 20  1  0  0  0  0
  6 21  1  0  0  0  0
  7 22  1  0  0  0  0
  7 23  1  0  0  0  0
  8 24  1  0  0  0  0
  9 25  1  0  0  0  0
 10 26  1  0  0  0  0
 10 27  1  0  0  0  0
 10 28  1  0  0  0  0
 11 29  1  0  0  0  0
 11 30  1  0  0  0  0
 12 31  1  0  0  0  0
 13 32  1  0  0  0  0
 14 33  1  0  0  0  0
 14 34  1  0  0  0  0
M  CHG  1  14   1
M  END
> <creator>
David Briggs, Crick Institute

> <fragments>
x0831

> <real_space>
FALSE

> <SCR>
FALSE

> <BB>
FALSE

> <link>
https://covid.postera.ai/covid/submissions/eab5efcb-b199-4c70-afb4-8b9adb33206d

> <covalent_frag>
TRUE

> <covalent_warhead>
TRUE

> <acrylamide>
FALSE

> <acrylamide_adduct>
FALSE

> <chloroacetamide>
TRUE

> <chloroacetamide_adduct>
FALSE

> <vinylsulfonamide>
FALSE

> <vinylsulfonamide_adduct>
FALSE

> <in_molport_or_mcule>
FALSE

> <in_emolecules>
FALSE

> <Hybrid2>
-6.807669

> <Mpro-x0831_dock>
-6.807669

> <Mpro-x1382_dock>
-4.328832

> <site>
active-covalent

> <covalent_distance_min>
5.926478

> <covalent_distance_mean>
7.0781794

> <covalent_distance_stderr>
0.051345907

$$$$
KAT-FAI-789-1
  -OEChem-04062011563D

 47 49  0     1  0  0  0  0  0999 V2000
   11.0461    0.9657   24.8099 C   0  0  0  0  0  0  0  0  0  0  0  0
   12.3862    0.9204   24.4257 C   0  0  0  0  0  0  0  0  0  0  0  0
    6.7022   -2.7541   25.5264 C   0  0  0  0  0  0  0  0  0  0  0  0
    7.5120   -2.4878   24.4225 C   0  0  0  0  0  0  0  0  0  0  0  0
    6.9860   -3.8407   26.3537 C   0  0  0  0  0  0  0  0  0  0  0  0
   10.1150    0.1304   24.1926 C   0  0  0  0  0  0  0  0  0  0  0  0
   12.7952    0.0399   23.4242 C   0  0  0  0  0  0  0  0  0  0  0  0
    8.8894   -4.3949   24.9729 C   0  0  0  0  0  0  0  0  0  0  0  0
    8.6056   -3.3082   24.1457 C   0  0  0  0  0  0  0  0  0  0  0  0
    8.0796   -4.6611   26.0769 C   0  0  0  0  0  0  0  0  0  0  0  0
   10.5240   -0.7501   23.1911 C   0  0  0  0  0  0  0  0  0  0  0  0
   11.8641   -0.7954   22.8069 C   0  0  0  0  0  0  0  0  0  0  0  0
    6.8190   -4.2945   20.7508 C   0  0  0  0  0  0  0  0  0  0  0  0
    8.8499   -1.1121   21.3925 C   0  0  0  0  0  0  0  0  0  0  0  0
    7.5906   -1.9236   21.0949 C   0  0  0  0  0  0  0  0  0  0  0  0
    9.0478   -3.8356   21.7139 C   0  0  0  0  0  0  0  0  0  0  0  0
    9.4922   -3.0152   22.9382 C   0  0  1  0  0  0  0  0  0  0  0  0
    8.3825   -5.8234   26.9612 C   0  0  0  0  0  0  0  0  0  0  0  0
    6.8072   -5.6152   21.4819 C   0  0  0  0  0  0  0  0  0  0  0  0
    9.5683   -1.5809   22.5868 N   0  0  3  0  0  0  0  0  0  0  0  0
    7.7776   -3.3696   21.1695 N   0  0  0  0  0  0  0  0  0  0  0  0
   12.3086   -1.6843   21.7881 N   0  3  0  0  0  0  0  0  0  0  0  0
   12.6888   -2.8337   22.1119 O   0  5  0  0  0  0  0  0  0  0  0  0
    6.0067   -4.0922   19.8454 O   0  0  0  0  0  0  0  0  0  0  0  0
   12.3066   -1.2901   20.5984 O   0  0  0  0  0  0  0  0  0  0  0  0
    5.1342   -6.2804   21.4851 S   0  0  0  0  0  0  0  0  0  0  0  0
   10.7277    1.6514   25.5895 H   0  0  0  0  0  0  0  0  0  0  0  0
   13.1111    1.5712   24.9062 H   0  0  0  0  0  0  0  0  0  0  0  0
    5.8507   -2.1151   25.7420 H   0  0  0  0  0  0  0  0  0  0  0  0
    7.2835   -1.6385   23.7838 H   0  0  0  0  0  0  0  0  0  0  0  0
    6.3491   -4.0411   27.2113 H   0  0  0  0  0  0  0  0  0  0  0  0
    9.0735    0.1743   24.5010 H   0  0  0  0  0  0  0  0  0  0  0  0
   13.8430    0.0161   23.1351 H   0  0  0  0  0  0  0  0  0  0  0  0
    9.7424   -5.0342   24.7581 H   0  0  0  0  0  0  0  0  0  0  0  0
    9.5149   -1.1040   20.5046 H   0  0  0  0  0  0  0  0  0  0  0  0
    8.5763   -0.0495   21.5493 H   0  0  0  0  0  0  0  0  0  0  0  0
    6.7961   -1.6405   21.7974 H   0  0  0  0  0  0  0  0  0  0  0  0
    7.2285   -1.6868   20.0853 H   0  0  0  0  0  0  0  0  0  0  0  0
    9.8306   -3.8064   20.9423 H   0  0  0  0  0  0  0  0  0  0  0  0
    8.9171   -4.8987   21.9702 H   0  0  0  0  0  0  0  0  0  0  0  0
   10.5244   -3.3762   23.2015 H   0  0  0  0  0  0  0  0  0  0  0  0
    7.8625   -6.7207   26.6040 H   0  0  0  0  0  0  0  0  0  0  0  0
    9.4596   -6.0331   26.9884 H   0  0  0  0  0  0  0  0  0  0  0  0
    8.0706   -5.6288   27.9956 H   0  0  0  0  0  0  0  0  0  0  0  0
    7.1478   -5.4539   22.5000 H   0  0  0  0  0  0  0  0  0  0  0  0
    7.4847   -6.3005   20.9820 H   0  0  0  0  0  0  0  0  0  0  0  0
    4.9936   -6.3574   20.1532 H   0  0  0  0  0  0  0  0  0  0  0  0
  1  2  1  0  0  0  0
  1  6  2  0  0  0  0
  2  7  2  0  0  0  0
  3  4  1  0  0  0  0
  3  5  2  0  0  0  0
  4  9  2  0  0  0  0
  5 10  1  0  0  0  0
  6 11  1  0  0  0  0
  7 12  1  0  0  0  0
  8  9  1  0  0  0  0
  8 10  2  0  0  0  0
  9 17  1  0  0  0  0
 10 18  1  0  0  0  0
 11 12  2  0  0  0  0
 11 20  1  0  0  0  0
 12 22  1  0  0  0  0
 13 19  1  0  0  0  0
 13 21  1  0  0  0  0
 13 24  2  0  0  0  0
 14 15  1  0  0  0  0
 14 20  1  0  0  0  0
 15 21  1  0  0  0  0
 16 17  1  0  0  0  0
 16 21  1  0  0  0  0
 17 20  1  0  0  0  0
 19 26  1  0  0  0  0
 22 23  1  0  0  0  0
 22 25  2  0  0  0  0
  1 27  1  0  0  0  0
  2 28  1  0  0  0  0
  3 29  1  0  0  0  0
  4 30  1  0  0  0  0
  5 31  1  0  0  0  0
  6 32  1  0  0  0  0
  7 33  1  0  0  0  0
  8 34  1  0  0  0  0
 14 35  1  0  0  0  0
 14 36  1  0  0  0  0
 15 37  1  0  0  0  0
 15 38  1  0  0  0  0
 16 39  1  0  0  0  0
 16 40  1  0  0  0  0
 17 41  1  0  0  0  0
 18 42  1  0  0  0  0
 18 43  1  0  0  0  0
 18 44  1  0  0  0  0
 19 45  1  0  0  0  0
 19 46  1  0  0  0  0
 26 47  1  0  0  0  0
M  CHG  2  22   1  23  -1
M  END
> <creator>
Kathleen Frey, Fairleigh Dickinson University, Long Island University

> <fragments>
x0708

> <real_space>
FALSE

> <SCR>
FALSE

> <BB>
FALSE

> <link>
https://covid.postera.ai/covid/submissions/78913094-1655-47bb-945c-71d0db4ccf4a

> <covalent_frag>
TRUE

> <covalent_warhead>
TRUE

> <acrylamide>
FALSE

> <acrylamide_adduct>
FALSE

> <chloroacetamide>
FALSE

> <chloroacetamide_adduct>
TRUE

> <vinylsulfonamide>
FALSE

> <vinylsulfonamide_adduct>
FALSE

> <in_molport_or_mcule>
FALSE

> <in_emolecules>
FALSE

> <Hybrid2>
-6.772408

> <Mpro-x0708_dock>
-6.772408

> <Mpro-x0689_dock>
-0.065892

> <site>
active-covalent

> <covalent_distance_min>
3.0737066

> <covalent_distance_mean>
3.5299258

> <covalent_distance_stderr>
0.017039288

$$$$
DAR-DIA-cab-11
  -OEChem-04062011563D

 59 62  0     1  0  0  0  0  0999 V2000
    8.0016   -3.4474   25.3298 C   0  0  0  0  0  0  0  0  0  0  0  0
    7.8314   -2.2618   26.0368 C   0  0  0  0  0  0  0  0  0  0  0  0
   11.4197    2.7193   24.8736 C   0  0  0  0  0  0  0  0  0  0  0  0
    8.9081   -3.5013   24.2731 C   0  0  0  0  0  0  0  0  0  0  0  0
    8.5552   -1.1243   25.6778 C   0  0  0  0  0  0  0  0  0  0  0  0
   11.9935    3.9520   25.1860 C   0  0  0  0  0  0  0  0  0  0  0  0
    9.8538    5.0269   24.8798 C   0  0  0  0  0  0  0  0  0  0  0  0
    7.8940    3.6987   24.2492 C   0  0  0  0  0  0  0  0  0  0  0  0
    8.1016    1.3144   23.9336 C   0  0  0  0  0  0  0  0  0  0  0  0
   10.0542    2.6235   24.5598 C   0  0  0  0  0  0  0  0  0  0  0  0
    9.2595    3.7946   24.5630 C   0  0  0  0  0  0  0  0  0  0  0  0
    9.6518   -2.3675   23.9101 C   0  0  0  0  0  0  0  0  0  0  0  0
    9.4505   -1.1501   24.5938 C   0  0  0  0  0  0  0  0  0  0  0  0
    9.4599    1.3911   24.2429 C   0  0  0  0  0  0  0  0  0  0  0  0
   11.2121    5.1036   25.1891 C   0  0  0  0  0  0  0  0  0  0  0  0
    7.3202    2.4660   23.9367 C   0  0  0  0  0  0  0  0  0  0  0  0
   12.9437   -1.6034   22.5893 C   0  0  0  0  0  0  0  0  0  0  0  0
   13.1021    5.5301   22.5768 C   0  0  0  0  0  0  0  0  0  0  0  0
   10.6354   -2.4804   22.7714 C   0  0  0  0  0  0  0  0  0  0  0  0
   10.9538   -0.0471   22.8544 C   0  0  0  0  0  0  0  0  0  0  0  0
   10.2554    0.0926   24.2215 C   0  0  2  0  0  0  0  0  0  0  0  0
   14.3019    4.8554   21.9993 C   0  0  0  0  0  0  0  0  0  0  0  0
    5.4725    1.0995   23.3249 C   0  0  0  0  0  0  0  0  0  0  0  0
   11.8273    6.4205   25.5233 C   0  0  0  0  0  0  0  0  0  0  0  0
   13.8762   -0.6080   23.2323 C   0  0  0  0  0  0  0  0  0  0  0  0
   12.3779    7.1674   24.3022 C   0  0  0  0  0  0  0  0  0  0  0  0
   11.5787   -1.3646   22.7386 N   0  0  0  0  0  0  0  0  0  0  0  0
   13.3854    6.4115   23.6077 N   0  0  0  0  0  0  0  0  0  0  0  0
   13.4153   -2.5640   21.9756 O   0  0  0  0  0  0  0  0  0  0  0  0
   11.9911    5.2775   22.1254 O   0  0  0  0  0  0  0  0  0  0  0  0
    5.9950    2.3904   23.6349 O   0  0  0  0  0  0  0  0  0  0  0  0
   14.2202    0.6169   22.0164 Cl  0  0  0  0  0  0  0  0  0  0  0  0
    7.4292   -4.3293   25.6004 H   0  0  0  0  0  0  0  0  0  0  0  0
    7.1360   -2.2206   26.8707 H   0  0  0  0  0  0  0  0  0  0  0  0
   12.0633    1.8427   24.8811 H   0  0  0  0  0  0  0  0  0  0  0  0
    9.0327   -4.4337   23.7279 H   0  0  0  0  0  0  0  0  0  0  0  0
    8.4198   -0.2096   26.2531 H   0  0  0  0  0  0  0  0  0  0  0  0
   13.0524    4.0034   25.4254 H   0  0  0  0  0  0  0  0  0  0  0  0
    9.2546    5.9359   24.8857 H   0  0  0  0  0  0  0  0  0  0  0  0
    7.2687    4.5899   24.2471 H   0  0  0  0  0  0  0  0  0  0  0  0
    7.6487    0.3564   23.6894 H   0  0  0  0  0  0  0  0  0  0  0  0
   11.2231   -3.3894   22.8940 H   0  0  0  0  0  0  0  0  0  0  0  0
   10.0830   -2.5312   21.8379 H   0  0  0  0  0  0  0  0  0  0  0  0
   10.2534    0.1311   22.0407 H   0  0  0  0  0  0  0  0  0  0  0  0
   11.7577    0.6862   22.7703 H   0  0  0  0  0  0  0  0  0  0  0  0
   11.0722    0.2205   24.9770 H   0  0  0  0  0  0  0  0  0  0  0  0
   14.5392    3.9088   22.5111 H   0  0  0  0  0  0  0  0  0  0  0  0
   14.1639    4.5867   20.9396 H   0  0  0  0  0  0  0  0  0  0  0  0
   15.2335    5.4428   22.0301 H   0  0  0  0  0  0  0  0  0  0  0  0
    4.4055    1.1810   23.1034 H   0  0  0  0  0  0  0  0  0  0  0  0
    5.6292    0.4286   24.1733 H   0  0  0  0  0  0  0  0  0  0  0  0
    5.9948    0.7053   22.4499 H   0  0  0  0  0  0  0  0  0  0  0  0
   12.6510    6.2677   26.2407 H   0  0  0  0  0  0  0  0  0  0  0  0
   11.1026    7.0657   26.0492 H   0  0  0  0  0  0  0  0  0  0  0  0
   14.7895   -1.1168   23.5175 H   0  0  0  0  0  0  0  0  0  0  0  0
   13.3771   -0.1591   24.0830 H   0  0  0  0  0  0  0  0  0  0  0  0
   11.5786    7.3654   23.5810 H   0  0  0  0  0  0  0  0  0  0  0  0
   12.8233    8.1255   24.5897 H   0  0  0  0  0  0  0  0  0  0  0  0
   14.3576    6.5304   23.8882 H   0  0  0  0  0  0  0  0  0  0  0  0
  1  2  1  0  0  0  0
  1  4  2  0  0  0  0
  2  5  2  0  0  0  0
  3  6  2  0  0  0  0
  3 10  1  0  0  0  0
  4 12  1  0  0  0  0
  5 13  1  0  0  0  0
  6 15  1  0  0  0  0
  7 11  1  0  0  0  0
  7 15  2  0  0  0  0
  8 11  1  0  0  0  0
  8 16  2  0  0  0  0
  9 14  2  0  0  0  0
  9 16  1  0  0  0  0
 10 11  2  0  0  0  0
 10 14  1  0  0  0  0
 12 13  2  0  0  0  0
 12 19  1  0  0  0  0
 13 21  1  0  0  0  0
 14 21  1  0  0  0  0
 15 24  1  0  0  0  0
 16 31  1  0  0  0  0
 17 25  1  0  0  0  0
 17 27  1  0  0  0  0
 17 29  2  0  0  0  0
 18 22  1  0  0  0  0
 18 28  1  0  0  0  0
 18 30  2  0  0  0  0
 19 27  1  0  0  0  0
 20 21  1  0  0  0  0
 20 27  1  0  0  0  0
 23 31  1  0  0  0  0
 24 26  1  0  0  0  0
 25 32  1  0  0  0  0
 26 28  1  0  0  0  0
  1 33  1  0  0  0  0
  2 34  1  0  0  0  0
  3 35  1  0  0  0  0
  4 36  1  0  0  0  0
  5 37  1  0  0  0  0
  6 38  1  0  0  0  0
  7 39  1  0  0  0  0
  8 40  1  0  0  0  0
  9 41  1  0  0  0  0
 19 42  1  0  0  0  0
 19 43  1  0  0  0  0
 20 44  1  0  0  0  0
 20 45  1  0  0  0  0
 21 46  1  0  0  0  0
 22 47  1  0  0  0  0
 22 48  1  0  0  0  0
 22 49  1  0  0  0  0
 23 50  1  0  0  0  0
 23 51  1  0  0  0  0
 23 52  1  0  0  0  0
 24 53  1  0  0  0  0
 24 54  1  0  0  0  0
 25 55  1  0  0  0  0
 25 56  1  0  0  0  0
 26 57  1  0  0  0  0
 26 58  1  0  0  0  0
 28 59  1  0  0  0  0
M  END
> <creator>
Daren Fearon, Diamond Light Source Ltd

> <fragments>
x0195

> <real_space>
FALSE

> <SCR>
FALSE

> <BB>
FALSE

> <link>
https://covid.postera.ai/covid/submissions/caba39e3-6989-456c-b896-1cac12e2588e

> <covalent_frag>
TRUE

> <covalent_warhead>
TRUE

> <acrylamide>
FALSE

> <acrylamide_adduct>
FALSE

> <chloroacetamide>
TRUE

> <chloroacetamide_adduct>
FALSE

> <vinylsulfonamide>
FALSE

> <vinylsulfonamide_adduct>
FALSE

> <in_molport_or_mcule>
FALSE

> <in_emolecules>
FALSE

> <Hybrid2>
-6.692318

> <Mpro-x0195_dock>
-6.692318

> <Mpro-x0830_dock>
-6.428091

> <Mpro-x1392_dock>
-6.157538

> <Mpro-x0305_dock>
-2.777232

> <Mpro-x1249_dock>
-2.455679

> <site>
active-noncovalent

> <covalent_distance_min>
6.246317

> <covalent_distance_mean>
6.7901697

> <covalent_distance_stderr>
0.06145296

$$$$
STU-CHA-83d-2
  -OEChem-04062011563D

 51 53  0     1  0  0  0  0  0999 V2000
   14.2434    3.0454   22.1518 C   0  0  0  0  0  0  0  0  0  0  0  0
   13.6433    4.2756   22.4195 C   0  0  0  0  0  0  0  0  0  0  0  0
   11.8354    3.1464   23.5517 C   0  0  0  0  0  0  0  0  0  0  0  0
   13.6493    1.8535   22.5902 C   0  0  0  0  0  0  0  0  0  0  0  0
   12.4255    1.9044   23.2801 C   0  0  0  0  0  0  0  0  0  0  0  0
   12.4415    4.3262   23.1209 C   0  0  0  0  0  0  0  0  0  0  0  0
    6.2952   -3.7766   21.7613 C   0  0  0  0  0  0  0  0  0  0  0  0
    5.6697   -3.4566   22.8961 C   0  0  0  0  0  0  0  0  0  0  0  0
    6.4464   -3.4144   24.1512 C   0  0  0  0  0  0  0  0  0  0  0  0
   14.2963    0.5329   22.2583 C   0  0  0  0  0  0  0  0  0  0  0  0
   11.7676    0.6470   23.7793 C   0  0  0  0  0  0  0  0  0  0  0  0
    9.7912   -2.6383   25.1811 C   0  0  0  0  0  0  0  0  0  0  0  0
    9.4266   -1.7344   22.8650 C   0  0  0  0  0  0  0  0  0  0  0  0
    8.3022   -2.4557   25.4585 C   0  0  0  0  0  0  0  0  0  0  0  0
    7.9369   -1.5837   23.1755 C   0  0  0  0  0  0  0  0  0  0  0  0
   13.8234   -0.6107   23.1490 C   0  0  0  0  0  0  0  0  0  0  0  0
   10.2830   -1.6302   24.1340 C   0  0  0  0  0  0  0  0  0  0  0  0
   11.7590   -1.8542   23.8143 C   0  0  0  0  0  0  0  0  0  0  0  0
    7.5155   -2.5243   24.2242 N   0  0  0  0  0  0  0  0  0  0  0  0
   12.4003    6.2472   24.9683 N   0  0  0  0  0  0  0  0  0  0  0  0
   12.3158   -0.6223   23.1595 N   0  3  1  0  0  0  0  0  0  0  0  0
    6.0981   -4.1684   25.0614 O   0  0  0  0  0  0  0  0  0  0  0  0
   12.1527    6.8292   22.4692 O   0  0  0  0  0  0  0  0  0  0  0  0
   10.2652    5.6543   23.6543 O   0  0  0  0  0  0  0  0  0  0  0  0
   11.6928    5.8666   23.4603 S   0  0  0  0  0  0  0  0  0  0  0  0
   15.1790    3.0205   21.5985 H   0  0  0  0  0  0  0  0  0  0  0  0
   14.1223    5.1883   22.0753 H   0  0  0  0  0  0  0  0  0  0  0  0
   10.8980    3.1880   24.1018 H   0  0  0  0  0  0  0  0  0  0  0  0
    5.7786   -3.8241   20.8085 H   0  0  0  0  0  0  0  0  0  0  0  0
    7.3567   -4.0003   21.7694 H   0  0  0  0  0  0  0  0  0  0  0  0
    4.6127   -3.2268   22.9282 H   0  0  0  0  0  0  0  0  0  0  0  0
   14.0790    0.2972   21.2089 H   0  0  0  0  0  0  0  0  0  0  0  0
   15.3849    0.6207   22.3573 H   0  0  0  0  0  0  0  0  0  0  0  0
   11.9122    0.5652   24.8631 H   0  0  0  0  0  0  0  0  0  0  0  0
   10.6963    0.6582   23.5492 H   0  0  0  0  0  0  0  0  0  0  0  0
   10.3519   -2.5092   26.1145 H   0  0  0  0  0  0  0  0  0  0  0  0
    9.9750   -3.6643   24.8372 H   0  0  0  0  0  0  0  0  0  0  0  0
    9.5964   -2.7015   22.3743 H   0  0  0  0  0  0  0  0  0  0  0  0
    9.7262   -0.9586   22.1502 H   0  0  0  0  0  0  0  0  0  0  0  0
    7.9667   -3.2085   26.1791 H   0  0  0  0  0  0  0  0  0  0  0  0
    8.1156   -1.4725   25.9074 H   0  0  0  0  0  0  0  0  0  0  0  0
    7.7214   -0.5728   23.5410 H   0  0  0  0  0  0  0  0  0  0  0  0
    7.3796   -1.7261   22.2490 H   0  0  0  0  0  0  0  0  0  0  0  0
   14.1658   -1.5735   22.7554 H   0  0  0  0  0  0  0  0  0  0  0  0
   14.1609   -0.4974   24.1858 H   0  0  0  0  0  0  0  0  0  0  0  0
   10.1795   -0.6180   24.5442 H   0  0  0  0  0  0  0  0  0  0  0  0
   11.9001   -2.6820   23.1140 H   0  0  0  0  0  0  0  0  0  0  0  0
   12.3465   -2.0303   24.7196 H   0  0  0  0  0  0  0  0  0  0  0  0
   12.1032    5.7070   25.7901 H   0  0  0  0  0  0  0  0  0  0  0  0
   13.3928    6.5118   24.9820 H   0  0  0  0  0  0  0  0  0  0  0  0
   12.0029   -0.6448   22.1791 H   0  0  0  0  0  0  0  0  0  0  0  0
  1  2  2  0  0  0  0
  1  4  1  0  0  0  0
  2  6  1  0  0  0  0
  3  5  1  0  0  0  0
  3  6  2  0  0  0  0
  4  5  2  0  0  0  0
  4 10  1  0  0  0  0
  5 11  1  0  0  0  0
  6 25  1  0  0  0  0
  7  8  2  0  0  0  0
  8  9  1  0  0  0  0
  9 19  1  0  0  0  0
  9 22  2  0  0  0  0
 10 16  1  0  0  0  0
 11 21  1  0  0  0  0
 12 14  1  0  0  0  0
 12 17  1  0  0  0  0
 13 15  1  0  0  0  0
 13 17  1  0  0  0  0
 14 19  1  0  0  0  0
 15 19  1  0  0  0  0
 16 21  1  0  0  0  0
 17 18  1  0  0  0  0
 18 21  1  0  0  0  0
 20 25  1  0  0  0  0
 23 25  2  0  0  0  0
 24 25  2  0  0  0  0
  1 26  1  0  0  0  0
  2 27  1  0  0  0  0
  3 28  1  0  0  0  0
  7 29  1  0  0  0  0
  7 30  1  0  0  0  0
  8 31  1  0  0  0  0
 10 32  1  0  0  0  0
 10 33  1  0  0  0  0
 11 34  1  0  0  0  0
 11 35  1  0  0  0  0
 12 36  1  0  0  0  0
 12 37  1  0  0  0  0
 13 38  1  0  0  0  0
 13 39  1  0  0  0  0
 14 40  1  0  0  0  0
 14 41  1  0  0  0  0
 15 42  1  0  0  0  0
 15 43  1  0  0  0  0
 16 44  1  0  0  0  0
 16 45  1  0  0  0  0
 17 46  1  0  0  0  0
 18 47  1  0  0  0  0
 18 48  1  0  0  0  0
 20 49  1  0  0  0  0
 20 50  1  0  0  0  0
 21 51  1  0  0  0  0
M  CHG  1  21   1
M  END
> <creator>
Stuart Ward, Charles River Laboratories

> <fragments>
x0195

> <real_space>
FALSE

> <SCR>
FALSE

> <BB>
FALSE

> <link>
https://covid.postera.ai/covid/submissions/83dacf15-6974-470a-8334-6f6bdedd7e83

> <covalent_frag>
TRUE

> <covalent_warhead>
TRUE

> <acrylamide>
TRUE

> <acrylamide_adduct>
FALSE

> <chloroacetamide>
FALSE

> <chloroacetamide_adduct>
FALSE

> <vinylsulfonamide>
FALSE

> <vinylsulfonamide_adduct>
FALSE

> <in_molport_or_mcule>
FALSE

> <in_emolecules>
FALSE

> <Hybrid2>
-6.687809

> <Mpro-x0195_dock>
-6.687809

> <Mpro-x0770_dock>
-1.294114

> <site>
active-noncovalent

> <covalent_distance_min>
4.704723

> <covalent_distance_mean>
6.8440824

> <covalent_distance_stderr>
0.11525015

$$$$
NIM-UNI-594-1
  -OEChem-04062011563D

 47 49  0     1  0  0  0  0  0999 V2000
    9.9763    6.5349   24.3258 C   0  0  0  0  0  0  0  0  0  0  0  0
   10.5431    5.5930   23.4744 C   0  0  0  0  0  0  0  0  0  0  0  0
   10.8268    7.2811   25.1256 C   0  0  0  0  0  0  0  0  0  0  0  0
   12.6868    6.2241   24.2883 C   0  0  0  0  0  0  0  0  0  0  0  0
   13.0271    1.0588   22.4146 C   0  0  0  0  0  0  0  0  0  0  0  0
   11.9235    5.4283   23.4493 C   0  0  0  0  0  0  0  0  0  0  0  0
   13.5848   -0.1085   22.8723 C   0  0  0  0  0  0  0  0  0  0  0  0
   13.8870    4.2004   22.4598 C   0  0  0  0  0  0  0  0  0  0  0  0
   11.0176   -1.3423   21.8617 C   0  0  0  0  0  0  0  0  0  0  0  0
    9.6884   -2.4839   24.4427 C   0  0  0  0  0  0  0  0  0  0  0  0
    8.7323   -2.2035   25.5960 C   0  0  0  0  0  0  0  0  0  0  0  0
    9.7209   -0.0430   24.3853 C   0  0  0  0  0  0  0  0  0  0  0  0
   10.6252   -1.2749   24.3661 C   0  0  2  0  0  0  0  0  0  0  0  0
   12.9073   -1.3159   23.4529 C   0  0  0  0  0  0  0  0  0  0  0  0
   14.1026    3.1076   21.4292 C   0  0  0  0  0  0  0  0  0  0  0  0
   11.9405   -2.0590   20.8964 C   0  0  0  0  0  0  0  0  0  0  0  0
   12.1722    7.1495   25.1289 N   0  0  0  0  0  0  0  0  0  0  0  0
   14.9436   -0.0555   22.7291 N   0  0  0  0  0  0  0  0  0  0  0  0
   15.2520    1.1200   22.1922 N   0  0  0  0  0  0  0  0  0  0  0  0
   14.1015    1.7866   22.0046 N   0  0  0  0  0  0  0  0  0  0  0  0
   12.5294    4.4778   22.5938 N   0  0  0  0  0  0  0  0  0  0  0  0
   11.4638   -1.3093   23.2002 N   0  0  0  0  0  0  0  0  0  0  0  0
   14.8175    4.7275   23.0606 O   0  0  0  0  0  0  0  0  0  0  0  0
    9.9602   -0.8336   21.4812 O   0  0  0  0  0  0  0  0  0  0  0  0
    8.6779    0.1381   26.8020 O   0  0  0  0  0  0  0  0  0  0  0  0
    7.1319   -0.2527   24.8284 O   0  0  0  0  0  0  0  0  0  0  0  0
    8.3939   -0.4515   25.5102 S   0  0  0  0  0  0  0  0  0  0  0  0
   12.1336   -3.7624   21.3563 Cl  0  0  0  0  0  0  0  0  0  0  0  0
    8.9027    6.6804   24.3619 H   0  0  0  0  0  0  0  0  0  0  0  0
    9.9005    4.9932   22.8354 H   0  0  0  0  0  0  0  0  0  0  0  0
   10.4340    8.0281   25.8075 H   0  0  0  0  0  0  0  0  0  0  0  0
   13.7694    6.1420   24.3135 H   0  0  0  0  0  0  0  0  0  0  0  0
   12.0098    1.4177   22.3467 H   0  0  0  0  0  0  0  0  0  0  0  0
   10.2766   -3.3794   24.6657 H   0  0  0  0  0  0  0  0  0  0  0  0
    9.1532   -2.6617   23.5084 H   0  0  0  0  0  0  0  0  0  0  0  0
    7.7859   -2.7363   25.4673 H   0  0  0  0  0  0  0  0  0  0  0  0
    9.1673   -2.4476   26.5674 H   0  0  0  0  0  0  0  0  0  0  0  0
   10.2519    0.8156   24.8047 H   0  0  0  0  0  0  0  0  0  0  0  0
    9.3143    0.2186   23.4074 H   0  0  0  0  0  0  0  0  0  0  0  0
   11.3074   -1.2553   25.2338 H   0  0  0  0  0  0  0  0  0  0  0  0
   13.3207   -2.2348   23.0231 H   0  0  0  0  0  0  0  0  0  0  0  0
   13.0572   -1.3676   24.5365 H   0  0  0  0  0  0  0  0  0  0  0  0
   13.3097    3.1485   20.6735 H   0  0  0  0  0  0  0  0  0  0  0  0
   15.0641    3.2566   20.9246 H   0  0  0  0  0  0  0  0  0  0  0  0
   11.5210   -2.0376   19.8875 H   0  0  0  0  0  0  0  0  0  0  0  0
   12.9320   -1.5997   20.9124 H   0  0  0  0  0  0  0  0  0  0  0  0
   11.8864    3.9408   22.0155 H   0  0  0  0  0  0  0  0  0  0  0  0
  1  2  2  0  0  0  0
  1  3  1  0  0  0  0
  2  6  1  0  0  0  0
  3 17  2  0  0  0  0
  4  6  2  0  0  0  0
  4 17  1  0  0  0  0
  5  7  2  0  0  0  0
  5 20  1  0  0  0  0
  6 21  1  0  0  0  0
  7 14  1  0  0  0  0
  7 18  1  0  0  0  0
  8 15  1  0  0  0  0
  8 21  1  0  0  0  0
  8 23  2  0  0  0  0
  9 16  1  0  0  0  0
  9 22  1  0  0  0  0
  9 24  2  0  0  0  0
 10 11  1  0  0  0  0
 10 13  1  0  0  0  0
 11 27  1  0  0  0  0
 12 13  1  0  0  0  0
 12 27  1  0  0  0  0
 13 22  1  0  0  0  0
 14 22  1  0  0  0  0
 15 20  1  0  0  0  0
 16 28  1  0  0  0  0
 18 19  2  0  0  0  0
 19 20  1  0  0  0  0
 25 27  2  0  0  0  0
 26 27  2  0  0  0  0
  1 29  1  0  0  0  0
  2 30  1  0  0  0  0
  3 31  1  0  0  0  0
  4 32  1  0  0  0  0
  5 33  1  0  0  0  0
 10 34  1  0  0  0  0
 10 35  1  0  0  0  0
 11 36  1  0  0  0  0
 11 37  1  0  0  0  0
 12 38  1  0  0  0  0
 12 39  1  0  0  0  0
 13 40  1  0  0  0  0
 14 41  1  0  0  0  0
 14 42  1  0  0  0  0
 15 43  1  0  0  0  0
 15 44  1  0  0  0  0
 16 45  1  0  0  0  0
 16 46  1  0  0  0  0
 21 47  1  0  0  0  0
M  END
> <creator>
Nimesh Mistry, University of Leeds

> <fragments>
x0195

> <real_space>
FALSE

> <SCR>
FALSE

> <BB>
FALSE

> <link>
https://covid.postera.ai/covid/submissions/594fbbb6-64d2-40cb-a440-3e4489b3a77e

> <covalent_frag>
TRUE

> <covalent_warhead>
TRUE

> <acrylamide>
FALSE

> <acrylamide_adduct>
FALSE

> <chloroacetamide>
TRUE

> <chloroacetamide_adduct>
FALSE

> <vinylsulfonamide>
FALSE

> <vinylsulfonamide_adduct>
FALSE

> <in_molport_or_mcule>
FALSE

> <in_emolecules>
FALSE

> <Hybrid2>
-6.647882

> <Mpro-x0195_dock>
-6.647882

> <Mpro-x0434_dock>
-2.743752

> <Mpro-x0770_dock>
-1.431213

> <Mpro-x1374_dock>
-0.120905

> <site>
active-noncovalent

> <covalent_distance_min>
3.307057

> <covalent_distance_mean>
3.8803866

> <covalent_distance_stderr>
0.031408932

$$$$
NIM-UNI-bb6-2
  -OEChem-04062011563D

 47 49  0     1  0  0  0  0  0999 V2000
    9.9763    6.5349   24.3258 C   0  0  0  0  0  0  0  0  0  0  0  0
   10.5431    5.5930   23.4744 C   0  0  0  0  0  0  0  0  0  0  0  0
   10.8268    7.2811   25.1256 C   0  0  0  0  0  0  0  0  0  0  0  0
   12.6868    6.2241   24.2883 C   0  0  0  0  0  0  0  0  0  0  0  0
   13.0271    1.0588   22.4146 C   0  0  0  0  0  0  0  0  0  0  0  0
   11.9235    5.4283   23.4493 C   0  0  0  0  0  0  0  0  0  0  0  0
   13.5848   -0.1085   22.8723 C   0  0  0  0  0  0  0  0  0  0  0  0
   13.8870    4.2004   22.4598 C   0  0  0  0  0  0  0  0  0  0  0  0
   11.0176   -1.3423   21.8617 C   0  0  0  0  0  0  0  0  0  0  0  0
    9.6884   -2.4839   24.4427 C   0  0  0  0  0  0  0  0  0  0  0  0
    8.7323   -2.2035   25.5960 C   0  0  0  0  0  0  0  0  0  0  0  0
    9.7209   -0.0430   24.3853 C   0  0  0  0  0  0  0  0  0  0  0  0
   10.6252   -1.2749   24.3661 C   0  0  2  0  0  0  0  0  0  0  0  0
   12.9073   -1.3159   23.4529 C   0  0  0  0  0  0  0  0  0  0  0  0
   14.1026    3.1076   21.4292 C   0  0  0  0  0  0  0  0  0  0  0  0
   11.9405   -2.0590   20.8964 C   0  0  0  0  0  0  0  0  0  0  0  0
   12.1722    7.1495   25.1289 N   0  0  0  0  0  0  0  0  0  0  0  0
   14.9436   -0.0555   22.7291 N   0  0  0  0  0  0  0  0  0  0  0  0
   15.2520    1.1200   22.1922 N   0  0  0  0  0  0  0  0  0  0  0  0
   14.1015    1.7866   22.0046 N   0  0  0  0  0  0  0  0  0  0  0  0
   12.5294    4.4778   22.5938 N   0  0  0  0  0  0  0  0  0  0  0  0
   11.4638   -1.3093   23.2002 N   0  0  0  0  0  0  0  0  0  0  0  0
   14.8175    4.7275   23.0606 O   0  0  0  0  0  0  0  0  0  0  0  0
    9.9602   -0.8336   21.4812 O   0  0  0  0  0  0  0  0  0  0  0  0
    8.6779    0.1381   26.8020 O   0  0  0  0  0  0  0  0  0  0  0  0
    7.1319   -0.2527   24.8284 O   0  0  0  0  0  0  0  0  0  0  0  0
    8.3939   -0.4515   25.5102 S   0  0  0  0  0  0  0  0  0  0  0  0
   12.1336   -3.7624   21.3563 Cl  0  0  0  0  0  0  0  0  0  0  0  0
    8.9027    6.6804   24.3619 H   0  0  0  0  0  0  0  0  0  0  0  0
    9.9005    4.9932   22.8354 H   0  0  0  0  0  0  0  0  0  0  0  0
   10.4340    8.0281   25.8075 H   0  0  0  0  0  0  0  0  0  0  0  0
   13.7694    6.1420   24.3135 H   0  0  0  0  0  0  0  0  0  0  0  0
   12.0098    1.4177   22.3467 H   0  0  0  0  0  0  0  0  0  0  0  0
   10.2766   -3.3794   24.6657 H   0  0  0  0  0  0  0  0  0  0  0  0
    9.1532   -2.6617   23.5084 H   0  0  0  0  0  0  0  0  0  0  0  0
    7.7859   -2.7363   25.4673 H   0  0  0  0  0  0  0  0  0  0  0  0
    9.1673   -2.4476   26.5674 H   0  0  0  0  0  0  0  0  0  0  0  0
   10.2519    0.8156   24.8047 H   0  0  0  0  0  0  0  0  0  0  0  0
    9.3143    0.2186   23.4074 H   0  0  0  0  0  0  0  0  0  0  0  0
   11.3074   -1.2553   25.2338 H   0  0  0  0  0  0  0  0  0  0  0  0
   13.3207   -2.2348   23.0231 H   0  0  0  0  0  0  0  0  0  0  0  0
   13.0572   -1.3676   24.5365 H   0  0  0  0  0  0  0  0  0  0  0  0
   13.3097    3.1485   20.6735 H   0  0  0  0  0  0  0  0  0  0  0  0
   15.0641    3.2566   20.9246 H   0  0  0  0  0  0  0  0  0  0  0  0
   11.5210   -2.0376   19.8875 H   0  0  0  0  0  0  0  0  0  0  0  0
   12.9320   -1.5997   20.9124 H   0  0  0  0  0  0  0  0  0  0  0  0
   11.8864    3.9408   22.0155 H   0  0  0  0  0  0  0  0  0  0  0  0
  1  2  2  0  0  0  0
  1  3  1  0  0  0  0
  2  6  1  0  0  0  0
  3 17  2  0  0  0  0
  4  6  2  0  0  0  0
  4 17  1  0  0  0  0
  5  7  2  0  0  0  0
  5 20  1  0  0  0  0
  6 21  1  0  0  0  0
  7 14  1  0  0  0  0
  7 18  1  0  0  0  0
  8 15  1  0  0  0  0
  8 21  1  0  0  0  0
  8 23  2  0  0  0  0
  9 16  1  0  0  0  0
  9 22  1  0  0  0  0
  9 24  2  0  0  0  0
 10 11  1  0  0  0  0
 10 13  1  0  0  0  0
 11 27  1  0  0  0  0
 12 13  1  0  0  0  0
 12 27  1  0  0  0  0
 13 22  1  0  0  0  0
 14 22  1  0  0  0  0
 15 20  1  0  0  0  0
 16 28  1  0  0  0  0
 18 19  2  0  0  0  0
 19 20  1  0  0  0  0
 25 27  2  0  0  0  0
 26 27  2  0  0  0  0
  1 29  1  0  0  0  0
  2 30  1  0  0  0  0
  3 31  1  0  0  0  0
  4 32  1  0  0  0  0
  5 33  1  0  0  0  0
 10 34  1  0  0  0  0
 10 35  1  0  0  0  0
 11 36  1  0  0  0  0
 11 37  1  0  0  0  0
 12 38  1  0  0  0  0
 12 39  1  0  0  0  0
 13 40  1  0  0  0  0
 14 41  1  0  0  0  0
 14 42  1  0  0  0  0
 15 43  1  0  0  0  0
 15 44  1  0  0  0  0
 16 45  1  0  0  0  0
 16 46  1  0  0  0  0
 21 47  1  0  0  0  0
M  END
> <creator>
Nimesh Mistry, University of Leeds

> <fragments>
x0195

> <real_space>
FALSE

> <SCR>
FALSE

> <BB>
FALSE

> <link>
https://covid.postera.ai/covid/submissions/bb610069-39f6-486e-8917-0241f972d38b

> <covalent_frag>
TRUE

> <covalent_warhead>
TRUE

> <acrylamide>
FALSE

> <acrylamide_adduct>
FALSE

> <chloroacetamide>
TRUE

> <chloroacetamide_adduct>
FALSE

> <vinylsulfonamide>
FALSE

> <vinylsulfonamide_adduct>
FALSE

> <in_molport_or_mcule>
FALSE

> <in_emolecules>
FALSE

> <Hybrid2>
-6.647882

> <Mpro-x0195_dock>
-6.647882

> <Mpro-x0434_dock>
-2.743752

> <Mpro-x0770_dock>
-1.431213

> <Mpro-x1374_dock>
-0.120905

> <site>
active-noncovalent

> <covalent_distance_min>
3.1387913

> <covalent_distance_mean>
3.7953107

> <covalent_distance_stderr>
0.024583822

$$$$
TAM-UNI-d1c-20
  -OEChem-04062011563D

 55 57  0     0  0  0  0  0  0999 V2000
   12.8624    0.1473   23.1418 C   0  0  0  0  0  0  0  0  0  0  0  0
   12.7850    1.4758   23.5755 C   0  0  0  0  0  0  0  0  0  0  0  0
   11.7670   -0.7060   23.2590 C   0  0  0  0  0  0  0  0  0  0  0  0
    9.8503    3.0578   25.0738 C   0  0  0  0  0  0  0  0  0  0  0  0
   11.5811    1.9469   24.1359 C   0  0  0  0  0  0  0  0  0  0  0  0
   10.5626   -0.2611   23.8115 C   0  0  0  0  0  0  0  0  0  0  0  0
   11.1567    3.1976   24.6656 C   0  0  0  0  0  0  0  0  0  0  0  0
   10.4998    1.0693   24.2407 C   0  0  0  0  0  0  0  0  0  0  0  0
    6.1733   -2.4620   20.1754 C   0  0  0  0  0  0  0  0  0  0  0  0
   10.0072    6.4540   23.5273 C   0  0  0  0  0  0  0  0  0  0  0  0
    8.0924   -1.1615   21.0366 C   0  0  0  0  0  0  0  0  0  0  0  0
    6.9977   -2.7648   22.5613 C   0  0  0  0  0  0  0  0  0  0  0  0
    9.4625   -1.6949   21.4286 C   0  0  0  0  0  0  0  0  0  0  0  0
    8.3541   -3.3187   22.9766 C   0  0  0  0  0  0  0  0  0  0  0  0
    8.7592    6.7566   22.7662 C   0  0  0  0  0  0  0  0  0  0  0  0
    8.1428    1.2581   25.1129 C   0  0  0  0  0  0  0  0  0  0  0  0
   11.9646    4.4300   24.7640 C   0  0  0  0  0  0  0  0  0  0  0  0
    9.4182   -1.2262   23.9114 C   0  0  0  0  0  0  0  0  0  0  0  0
    5.8508   -1.3283   19.2348 C   0  0  0  0  0  0  0  0  0  0  0  0
   12.1375    5.1754   23.4281 C   0  0  0  0  0  0  0  0  0  0  0  0
    9.4630    1.7707   24.8138 N   0  0  0  0  0  0  0  0  0  0  0  0
    7.0554   -2.1779   21.2179 N   0  0  0  0  0  0  0  0  0  0  0  0
   10.8781    5.5960   22.8750 N   0  0  0  0  0  0  0  0  0  0  0  0
    9.4293   -2.2680   22.8264 N   0  3  0  0  0  0  0  0  0  0  0  0
    5.6538   -3.5654   19.9892 O   0  0  0  0  0  0  0  0  0  0  0  0
   10.1799    6.9593   24.6302 O   0  0  0  0  0  0  0  0  0  0  0  0
    6.3954   -1.8285   17.6376 Cl  0  0  0  0  0  0  0  0  0  0  0  0
   13.7885   -0.2214   22.7089 H   0  0  0  0  0  0  0  0  0  0  0  0
   13.6478    2.1285   23.4774 H   0  0  0  0  0  0  0  0  0  0  0  0
   11.8602   -1.7329   22.9122 H   0  0  0  0  0  0  0  0  0  0  0  0
    9.1671    3.7646   25.5262 H   0  0  0  0  0  0  0  0  0  0  0  0
    7.8660   -0.2668   21.6265 H   0  0  0  0  0  0  0  0  0  0  0  0
    8.0795   -0.8633   19.9803 H   0  0  0  0  0  0  0  0  0  0  0  0
    6.2464   -3.5645   22.5345 H   0  0  0  0  0  0  0  0  0  0  0  0
    6.6638   -2.0407   23.3077 H   0  0  0  0  0  0  0  0  0  0  0  0
    9.7695   -2.5065   20.7505 H   0  0  0  0  0  0  0  0  0  0  0  0
   10.2319   -0.9053   21.4070 H   0  0  0  0  0  0  0  0  0  0  0  0
    8.3555   -3.6534   24.0273 H   0  0  0  0  0  0  0  0  0  0  0  0
    8.6363   -4.1680   22.3348 H   0  0  0  0  0  0  0  0  0  0  0  0
    7.9484    6.0442   22.9878 H   0  0  0  0  0  0  0  0  0  0  0  0
    8.3488    7.7498   23.0096 H   0  0  0  0  0  0  0  0  0  0  0  0
    8.8620    6.7466   21.6693 H   0  0  0  0  0  0  0  0  0  0  0  0
    7.5091    1.4276   24.2384 H   0  0  0  0  0  0  0  0  0  0  0  0
    8.2090    0.1895   25.3358 H   0  0  0  0  0  0  0  0  0  0  0  0
    7.7410    1.7816   25.9849 H   0  0  0  0  0  0  0  0  0  0  0  0
   12.9744    4.1925   25.1530 H   0  0  0  0  0  0  0  0  0  0  0  0
   11.5390    5.1327   25.5086 H   0  0  0  0  0  0  0  0  0  0  0  0
    9.4366   -1.7650   24.8648 H   0  0  0  0  0  0  0  0  0  0  0  0
    8.4560   -0.7076   23.8396 H   0  0  0  0  0  0  0  0  0  0  0  0
    6.3912   -0.4438   19.5522 H   0  0  0  0  0  0  0  0  0  0  0  0
    4.7785   -1.1700   19.2300 H   0  0  0  0  0  0  0  0  0  0  0  0
   12.7425    6.0784   23.5579 H   0  0  0  0  0  0  0  0  0  0  0  0
   12.6289    4.5393   22.6846 H   0  0  0  0  0  0  0  0  0  0  0  0
   10.6127    5.2449   21.9561 H   0  0  0  0  0  0  0  0  0  0  0  0
   10.3490   -2.7829   22.9457 H   0  0  0  0  0  0  0  0  0  0  0  0
  1  2  2  0  0  0  0
  1  3  1  0  0  0  0
  2  5  1  0  0  0  0
  3  6  2  0  0  0  0
  4  7  2  0  0  0  0
  4 21  1  0  0  0  0
  5  7  1  0  0  0  0
  5  8  2  0  0  0  0
  6  8  1  0  0  0  0
  6 18  1  0  0  0  0
  7 17  1  0  0  0  0
  8 21  1  0  0  0  0
  9 19  1  0  0  0  0
  9 22  1  0  0  0  0
  9 25  2  0  0  0  0
 10 15  1  0  0  0  0
 10 23  1  0  0  0  0
 10 26  2  0  0  0  0
 11 13  1  0  0  0  0
 11 22  1  0  0  0  0
 12 14  1  0  0  0  0
 12 22  1  0  0  0  0
 13 24  1  0  0  0  0
 14 24  1  0  0  0  0
 16 21  1  0  0  0  0
 17 20  1  0  0  0  0
 18 24  1  0  0  0  0
 19 27  1  0  0  0  0
 20 23  1  0  0  0  0
  1 28  1  0  0  0  0
  2 29  1  0  0  0  0
  3 30  1  0  0  0  0
  4 31  1  0  0  0  0
 11 32  1  0  0  0  0
 11 33  1  0  0  0  0
 12 34  1  0  0  0  0
 12 35  1  0  0  0  0
 13 36  1  0  0  0  0
 13 37  1  0  0  0  0
 14 38  1  0  0  0  0
 14 39  1  0  0  0  0
 15 40  1  0  0  0  0
 15 41  1  0  0  0  0
 15 42  1  0  0  0  0
 16 43  1  0  0  0  0
 16 44  1  0  0  0  0
 16 45  1  0  0  0  0
 17 46  1  0  0  0  0
 17 47  1  0  0  0  0
 18 48  1  0  0  0  0
 18 49  1  0  0  0  0
 19 50  1  0  0  0  0
 19 51  1  0  0  0  0
 20 52  1  0  0  0  0
 20 53  1  0  0  0  0
 23 54  1  0  0  0  0
 24 55  1  0  0  0  0
M  CHG  1  24   1
M  END
> <creator>
Tamas Szommer, University of Oxford, TDI

> <fragments>
x0692

> <real_space>
FALSE

> <SCR>
FALSE

> <BB>
FALSE

> <link>
https://covid.postera.ai/covid/submissions/d1c3dd9f-771c-474e-9133-8c7e4ace8b98

> <covalent_frag>
TRUE

> <covalent_warhead>
TRUE

> <acrylamide>
FALSE

> <acrylamide_adduct>
FALSE

> <chloroacetamide>
TRUE

> <chloroacetamide_adduct>
FALSE

> <vinylsulfonamide>
FALSE

> <vinylsulfonamide_adduct>
FALSE

> <in_molport_or_mcule>
FALSE

> <in_emolecules>
FALSE

> <Hybrid2>
-6.596281

> <Mpro-x0692_dock>
-6.596281

> <Mpro-x1392_dock>
-3.358359

> <Mpro-x1386_dock>
0.451128

> <Mpro-x1382_dock>
2.228227

> <site>
active-covalent

> <covalent_distance_min>
5.7051706

> <covalent_distance_mean>
6.4009404

> <covalent_distance_stderr>
0.04434812

$$$$
ANT-OPE-b90-1
  -OEChem-04062011563D

 48 51  0     0  0  0  0  0  0999 V2000
   10.3786   -2.0245   22.6608 C   0  0  0  0  0  0  0  0  0  0  0  0
   11.7178   -1.6322   22.7801 C   0  0  0  0  0  0  0  0  0  0  0  0
    7.4539   -5.8705   26.8918 C   0  0  0  0  0  0  0  0  0  0  0  0
    9.7805   -0.8504   24.7100 C   0  0  0  0  0  0  0  0  0  0  0  0
    8.3620   -4.3949   25.1903 C   0  0  0  0  0  0  0  0  0  0  0  0
    4.6990   -3.6781   27.8740 C   0  0  0  0  0  0  0  0  0  0  0  0
   13.1089    0.3381   25.3395 C   0  0  0  0  0  0  0  0  0  0  0  0
    6.4450   -4.9245   27.1616 C   0  0  0  0  0  0  0  0  0  0  0  0
    9.4287   -1.6394   23.6097 C   0  0  0  0  0  0  0  0  0  0  0  0
    5.3491   -4.8751   28.0679 C   0  0  0  0  0  0  0  0  0  0  0  0
   12.0888   -0.8393   23.8792 C   0  0  0  0  0  0  0  0  0  0  0  0
   11.1197   -0.4715   24.8084 C   0  0  0  0  0  0  0  0  0  0  0  0
    6.4268   -3.7344   26.4311 C   0  0  0  0  0  0  0  0  0  0  0  0
    7.3707   -3.4417   25.4404 C   0  0  0  0  0  0  0  0  0  0  0  0
    8.4049   -5.5913   25.9035 C   0  0  0  0  0  0  0  0  0  0  0  0
    3.7826   -7.4990   23.7703 C   0  0  0  0  0  0  0  0  0  0  0  0
    4.0067   -7.8544   25.0391 C   0  0  0  0  0  0  0  0  0  0  0  0
    3.6792   -6.9225   26.1510 C   0  0  0  0  0  0  0  0  0  0  0  0
    4.9688   -5.9153   29.0449 C   0  0  0  0  0  0  0  0  0  0  0  0
    8.0025   -2.0796   23.4476 C   0  0  0  0  0  0  0  0  0  0  0  0
    3.7506   -6.7570   28.6234 C   0  0  0  0  0  0  0  0  0  0  0  0
   13.3181   -0.3274   24.2258 N   0  0  0  0  0  0  0  0  0  0  0  0
    5.3562   -2.9971   26.8846 N   0  0  0  0  0  0  0  0  0  0  0  0
   11.8002    0.2809   25.7310 N   0  0  0  0  0  0  0  0  0  0  0  0
    7.3445   -2.2401   24.7096 N   0  0  0  0  0  0  0  0  0  0  0  0
    3.9803   -7.4648   27.3925 N   0  0  0  0  0  0  0  0  0  0  0  0
    3.1967   -5.8108   25.9602 O   0  0  0  0  0  0  0  0  0  0  0  0
    9.3674   -6.4860   25.6411 F   0  0  0  0  0  0  0  0  0  0  0  0
   10.0844   -2.6384   21.8124 H   0  0  0  0  0  0  0  0  0  0  0  0
   12.4484   -1.9367   22.0375 H   0  0  0  0  0  0  0  0  0  0  0  0
    7.5011   -6.8076   27.4389 H   0  0  0  0  0  0  0  0  0  0  0  0
    9.0506   -0.5460   25.4523 H   0  0  0  0  0  0  0  0  0  0  0  0
    9.1166   -4.2093   24.4288 H   0  0  0  0  0  0  0  0  0  0  0  0
    3.8282   -3.2486   28.3496 H   0  0  0  0  0  0  0  0  0  0  0  0
   13.8534    0.8778   25.9071 H   0  0  0  0  0  0  0  0  0  0  0  0
    4.0252   -8.1838   22.9645 H   0  0  0  0  0  0  0  0  0  0  0  0
    3.3599   -6.5380   23.4986 H   0  0  0  0  0  0  0  0  0  0  0  0
    4.4309   -8.8260   25.2680 H   0  0  0  0  0  0  0  0  0  0  0  0
    4.7380   -5.4510   30.0240 H   0  0  0  0  0  0  0  0  0  0  0  0
    5.8156   -6.5995   29.2554 H   0  0  0  0  0  0  0  0  0  0  0  0
    7.4363   -1.3465   22.8628 H   0  0  0  0  0  0  0  0  0  0  0  0
    7.9442   -3.0350   22.9157 H   0  0  0  0  0  0  0  0  0  0  0  0
    3.5129   -7.5103   29.3811 H   0  0  0  0  0  0  0  0  0  0  0  0
    2.8675   -6.1253   28.4813 H   0  0  0  0  0  0  0  0  0  0  0  0
    5.0942   -2.0850   26.5371 H   0  0  0  0  0  0  0  0  0  0  0  0
   11.4048    0.7157   26.5540 H   0  0  0  0  0  0  0  0  0  0  0  0
    6.8365   -1.4717   25.1095 H   0  0  0  0  0  0  0  0  0  0  0  0
    4.3509   -8.4122   27.4503 H   0  0  0  0  0  0  0  0  0  0  0  0
  1  2  2  0  0  0  0
  1  9  1  0  0  0  0
  2 11  1  0  0  0  0
  3  8  1  0  0  0  0
  3 15  2  0  0  0  0
  4  9  2  0  0  0  0
  4 12  1  0  0  0  0
  5 14  2  0  0  0  0
  5 15  1  0  0  0  0
  6 10  2  0  0  0  0
  6 23  1  0  0  0  0
  7 22  2  0  0  0  0
  7 24  1  0  0  0  0
  8 10  1  0  0  0  0
  8 13  2  0  0  0  0
  9 20  1  0  0  0  0
 10 19  1  0  0  0  0
 11 12  2  0  0  0  0
 11 22  1  0  0  0  0
 12 24  1  0  0  0  0
 13 14  1  0  0  0  0
 13 23  1  0  0  0  0
 14 25  1  0  0  0  0
 15 28  1  0  0  0  0
 16 17  2  0  0  0  0
 17 18  1  0  0  0  0
 18 26  1  0  0  0  0
 18 27  2  0  0  0  0
 19 21  1  0  0  0  0
 20 25  1  0  0  0  0
 21 26  1  0  0  0  0
  1 29  1  0  0  0  0
  2 30  1  0  0  0  0
  3 31  1  0  0  0  0
  4 32  1  0  0  0  0
  5 33  1  0  0  0  0
  6 34  1  0  0  0  0
  7 35  1  0  0  0  0
 16 36  1  0  0  0  0
 16 37  1  0  0  0  0
 17 38  1  0  0  0  0
 19 39  1  0  0  0  0
 19 40  1  0  0  0  0
 20 41  1  0  0  0  0
 20 42  1  0  0  0  0
 21 43  1  0  0  0  0
 21 44  1  0  0  0  0
 23 45  1  0  0  0  0
 24 46  1  0  0  0  0
 25 47  1  0  0  0  0
 26 48  1  0  0  0  0
M  END
> <creator>
Anthony Sama, OpenSourceMycetoma

> <fragments>
x0072

> <real_space>
FALSE

> <SCR>
FALSE

> <BB>
FALSE

> <link>
https://covid.postera.ai/covid/submissions/b90194ad-acbd-47bb-b9a0-8d834982096e

> <covalent_frag>
FALSE

> <covalent_warhead>
TRUE

> <acrylamide>
TRUE

> <acrylamide_adduct>
FALSE

> <chloroacetamide>
FALSE

> <chloroacetamide_adduct>
FALSE

> <vinylsulfonamide>
FALSE

> <vinylsulfonamide_adduct>
FALSE

> <in_molport_or_mcule>
FALSE

> <in_emolecules>
FALSE

> <Hybrid2>
-6.571191

> <Mpro-x0072_dock>
-6.571191

> <site>
active-noncovalent

> <covalent_distance_min>
9.937984

> <covalent_distance_mean>
10.851766

> <covalent_distance_stderr>
0.06912782

$$$$
MAK-UNK-af8-24
  -OEChem-04062011563D

 65 67  0     1  0  0  0  0  0999 V2000
    5.4504    1.2579   20.3981 C   0  0  0  0  0  0  0  0  0  0  0  0
    6.5557    3.2058   21.3956 C   0  0  0  0  0  0  0  0  0  0  0  0
    7.3752    3.7469   22.3799 C   0  0  0  0  0  0  0  0  0  0  0  0
    6.8603    1.0673   22.3909 C   0  0  0  0  0  0  0  0  0  0  0  0
    6.2883    1.8413   21.3941 C   0  0  0  0  0  0  0  0  0  0  0  0
    7.8983    2.8876   23.3327 C   0  0  0  0  0  0  0  0  0  0  0  0
    5.8735   -5.2221   25.3327 C   0  0  0  0  0  0  0  0  0  0  0  0
   12.4424   -1.9841   22.6374 C   0  0  0  0  0  0  0  0  0  0  0  0
   12.8921    0.2828   23.6614 C   0  0  0  0  0  0  0  0  0  0  0  0
   10.5469   -0.6610   23.6603 C   0  0  0  0  0  0  0  0  0  0  0  0
    7.7332   -3.6013   25.5213 C   0  0  0  0  0  0  0  0  0  0  0  0
    6.4359   -3.6354   23.4264 C   0  0  0  0  0  0  0  0  0  0  0  0
    9.0375   -3.6374   24.7384 C   0  0  0  0  0  0  0  0  0  0  0  0
    7.7216   -3.6702   22.6112 C   0  0  0  0  0  0  0  0  0  0  0  0
   13.4611   -1.1160   23.3882 C   0  0  2  0  0  0  0  0  0  0  0  0
   11.1054   -2.0640   23.3865 C   0  0  1  0  0  0  0  0  0  0  0  0
   11.5571    0.2138   24.4152 C   0  0  2  0  0  0  0  0  0  0  0  0
   14.7692   -1.0215   22.6045 C   0  0  0  0  0  0  0  0  0  0  0  0
    6.2254   -5.6209   26.7437 C   0  0  0  0  0  0  0  0  0  0  0  0
   10.0971   -2.9008   22.6006 C   0  0  0  0  0  0  0  0  0  0  0  0
   10.9929    1.6159   24.6402 C   0  0  0  0  0  0  0  0  0  0  0  0
    8.9886    2.7988   25.5707 C   0  0  0  0  0  0  0  0  0  0  0  0
    4.7688    0.7833   19.5876 N   0  0  0  0  0  0  0  0  0  0  0  0
    7.6612    1.5570   23.3636 N   0  0  0  0  0  0  0  0  0  0  0  0
    6.6449   -4.2128   24.7585 N   0  0  0  0  0  0  0  0  0  0  0  0
    8.7144    3.4421   24.3075 N   0  0  0  0  0  0  0  0  0  0  0  0
    8.8217   -2.9853   23.3909 N   0  3  0  0  0  0  0  0  0  0  0  0
    9.6924    1.4973   25.3297 N   0  3  0  0  0  0  0  0  0  0  0  0
    4.9394   -5.7899   24.7608 O   0  0  0  0  0  0  0  0  0  0  0  0
    5.0793   -6.8710   27.2145 Cl  0  0  0  0  0  0  0  0  0  0  0  0
    6.1326    3.8591   20.6368 H   0  0  0  0  0  0  0  0  0  0  0  0
    7.5883    4.8108   22.3894 H   0  0  0  0  0  0  0  0  0  0  0  0
    6.6897   -0.0042   22.4454 H   0  0  0  0  0  0  0  0  0  0  0  0
   12.2787   -1.5755   21.6314 H   0  0  0  0  0  0  0  0  0  0  0  0
   12.8490   -2.9944   22.5046 H   0  0  0  0  0  0  0  0  0  0  0  0
   13.6145    0.8643   24.2478 H   0  0  0  0  0  0  0  0  0  0  0  0
   12.7535    0.8174   22.7122 H   0  0  0  0  0  0  0  0  0  0  0  0
   10.2771   -0.1788   22.7112 H   0  0  0  0  0  0  0  0  0  0  0  0
    9.6225   -0.7422   24.2462 H   0  0  0  0  0  0  0  0  0  0  0  0
    7.8687   -4.1103   26.4807 H   0  0  0  0  0  0  0  0  0  0  0  0
    7.4408   -2.5672   25.7410 H   0  0  0  0  0  0  0  0  0  0  0  0
    6.0978   -2.6019   23.5693 H   0  0  0  0  0  0  0  0  0  0  0  0
    5.6498   -4.1551   22.8760 H   0  0  0  0  0  0  0  0  0  0  0  0
    9.8109   -3.0638   25.2535 H   0  0  0  0  0  0  0  0  0  0  0  0
    9.3813   -4.6600   24.5636 H   0  0  0  0  0  0  0  0  0  0  0  0
    8.0459   -4.6930   22.4039 H   0  0  0  0  0  0  0  0  0  0  0  0
    7.5982   -3.1186   21.6768 H   0  0  0  0  0  0  0  0  0  0  0  0
   13.6805   -1.5949   24.3520 H   0  0  0  0  0  0  0  0  0  0  0  0
   11.2775   -2.5622   24.3500 H   0  0  0  0  0  0  0  0  0  0  0  0
   11.7383   -0.2377   25.3998 H   0  0  0  0  0  0  0  0  0  0  0  0
   14.5879   -0.5500   21.6402 H   0  0  0  0  0  0  0  0  0  0  0  0
   15.1753   -2.0186   22.4436 H   0  0  0  0  0  0  0  0  0  0  0  0
   15.4910   -0.4275   23.1624 H   0  0  0  0  0  0  0  0  0  0  0  0
    6.1199   -4.7569   27.3898 H   0  0  0  0  0  0  0  0  0  0  0  0
    7.2343   -6.0171   26.7556 H   0  0  0  0  0  0  0  0  0  0  0  0
   10.4631   -3.9148   22.4532 H   0  0  0  0  0  0  0  0  0  0  0  0
    9.8645   -2.4346   21.6454 H   0  0  0  0  0  0  0  0  0  0  0  0
   10.8206    2.1232   23.6932 H   0  0  0  0  0  0  0  0  0  0  0  0
   11.6522    2.2036   25.2756 H   0  0  0  0  0  0  0  0  0  0  0  0
    9.6548    3.4054   26.1929 H   0  0  0  0  0  0  0  0  0  0  0  0
    8.0645    2.5612   26.1081 H   0  0  0  0  0  0  0  0  0  0  0  0
    9.1373    4.3435   24.1137 H   0  0  0  0  0  0  0  0  0  0  0  0
    8.5106   -2.0181   23.5677 H   0  0  0  0  0  0  0  0  0  0  0  0
    9.8205    1.0236   26.2379 H   0  0  0  0  0  0  0  0  0  0  0  0
    9.0643    0.8832   24.7875 H   0  0  0  0  0  0  0  0  0  0  0  0
  1  5  1  0  0  0  0
  1 23  3  0  0  0  0
  2  3  2  0  0  0  0
  2  5  1  0  0  0  0
  3  6  1  0  0  0  0
  4  5  2  0  0  0  0
  4 24  1  0  0  0  0
  6 24  2  0  0  0  0
  6 26  1  0  0  0  0
  7 19  1  0  0  0  0
  7 25  1  0  0  0  0
  7 29  2  0  0  0  0
  8 15  1  0  0  0  0
  8 16  1  0  0  0  0
  9 15  1  0  0  0  0
  9 17  1  0  0  0  0
 10 16  1  0  0  0  0
 10 17  1  0  0  0  0
 11 13  1  0  0  0  0
 11 25  1  0  0  0  0
 12 14  1  0  0  0  0
 12 25  1  0  0  0  0
 13 27  1  0  0  0  0
 14 27  1  0  0  0  0
 15 18  1  0  0  0  0
 16 20  1  0  0  0  0
 17 21  1  0  0  0  0
 19 30  1  0  0  0  0
 20 27  1  0  0  0  0
 21 28  1  0  0  0  0
 22 26  1  0  0  0  0
 22 28  1  0  0  0  0
  2 31  1  0  0  0  0
  3 32  1  0  0  0  0
  4 33  1  0  0  0  0
  8 34  1  0  0  0  0
  8 35  1  0  0  0  0
  9 36  1  0  0  0  0
  9 37  1  0  0  0  0
 10 38  1  0  0  0  0
 10 39  1  0  0  0  0
 11 40  1  0  0  0  0
 11 41  1  0  0  0  0
 12 42  1  0  0  0  0
 12 43  1  0  0  0  0
 13 44  1  0  0  0  0
 13 45  1  0  0  0  0
 14 46  1  0  0  0  0
 14 47  1  0  0  0  0
 15 48  1  0  0  0  0
 16 49  1  0  0  0  0
 17 50  1  0  0  0  0
 18 51  1  0  0  0  0
 18 52  1  0  0  0  0
 18 53  1  0  0  0  0
 19 54  1  0  0  0  0
 19 55  1  0  0  0  0
 20 56  1  0  0  0  0
 20 57  1  0  0  0  0
 21 58  1  0  0  0  0
 21 59  1  0  0  0  0
 22 60  1  0  0  0  0
 22 61  1  0  0  0  0
 26 62  1  0  0  0  0
 27 63  1  0  0  0  0
 28 64  1  0  0  0  0
 28 65  1  0  0  0  0
M  CHG  2  27   1  28   1
M  END
> <creator>
Maksym Voznyy

> <fragments>
x0072

> <real_space>
FALSE

> <SCR>
FALSE

> <BB>
FALSE

> <link>
https://covid.postera.ai/covid/submissions/af83ef51-35cf-489e-b3bd-9012d86d8275

> <covalent_frag>
TRUE

> <covalent_warhead>
TRUE

> <acrylamide>
FALSE

> <acrylamide_adduct>
FALSE

> <chloroacetamide>
TRUE

> <chloroacetamide_adduct>
FALSE

> <vinylsulfonamide>
FALSE

> <vinylsulfonamide_adduct>
FALSE

> <in_molport_or_mcule>
FALSE

> <in_emolecules>
FALSE

> <Hybrid2>
-6.564718

> <Mpro-x0072_dock>
-6.564718

> <Mpro-x0104_dock>
-5.946966

> <Mpro-x0195_dock>
-5.191346

> <Mpro-x0305_dock>
-4.953525

> <Mpro-x0161_dock>
-4.802798

> <Mpro-x0387_dock>
-3.37495

> <Mpro-x0692_dock>
1.414903

> <site>
active-noncovalent

> <covalent_distance_min>
9.987332

> <covalent_distance_mean>
10.93025

> <covalent_distance_stderr>
0.08715553

$$$$
BEN-VAN-d2b-12
  -OEChem-04062011563D

 56 58  0     1  0  0  0  0  0999 V2000
    6.6046    0.1569   23.8211 C   0  0  0  0  0  0  0  0  0  0  0  0
    7.7480   -2.6755   25.9639 C   0  0  0  0  0  0  0  0  0  0  0  0
    5.5210   -1.8801   24.6025 C   0  0  0  0  0  0  0  0  0  0  0  0
    8.3751    1.6172   25.6264 C   0  0  0  0  0  0  0  0  0  0  0  0
    6.6404   -1.0646   24.5629 C   0  0  0  0  0  0  0  0  0  0  0  0
   10.4235    1.2002   24.6104 C   0  0  0  0  0  0  0  0  0  0  0  0
    7.7710   -1.4770   25.2592 C   0  0  0  0  0  0  0  0  0  0  0  0
    9.2398    0.6441   25.1757 C   0  0  0  0  0  0  0  0  0  0  0  0
    6.5789   -3.4188   25.9409 C   0  0  0  0  0  0  0  0  0  0  0  0
   10.4184    2.5773   24.6504 C   0  0  0  0  0  0  0  0  0  0  0  0
    5.8086   -0.8382   20.1481 C   0  0  0  0  0  0  0  0  0  0  0  0
    6.8845   -1.0682   20.9069 C   0  0  0  0  0  0  0  0  0  0  0  0
    8.0601   -0.1585   20.8414 C   0  0  0  0  0  0  0  0  0  0  0  0
   10.2938    0.0954   21.8546 C   0  0  0  0  0  0  0  0  0  0  0  0
   13.5441    0.0477   22.7263 C   0  0  0  0  0  0  0  0  0  0  0  0
   12.7568    1.1356   23.4441 C   0  0  0  0  0  0  0  0  0  0  0  0
   12.5066   -0.9633   22.2346 C   0  0  0  0  0  0  0  0  0  0  0  0
   11.5572    0.3821   24.0313 C   0  0  2  0  0  0  0  0  0  0  0  0
   11.1731   -0.5669   22.8792 C   0  0  1  0  0  0  0  0  0  0  0  0
    5.6993   -6.6971   27.5540 C   0  0  0  0  0  0  0  0  0  0  0  0
   10.9933    4.3636   23.1895 C   0  0  0  0  0  0  0  0  0  0  0  0
    5.4291   -5.4919   26.7192 C   0  0  0  0  0  0  0  0  0  0  0  0
    6.5756    1.1484   23.2188 N   0  0  0  0  0  0  0  0  0  0  0  0
    5.4609   -3.0508   25.2759 N   0  0  0  0  0  0  0  0  0  0  0  0
    8.9799   -0.6818   25.2666 N   0  0  0  0  0  0  0  0  0  0  0  0
    6.5699   -4.6373   26.6645 N   0  0  0  0  0  0  0  0  0  0  0  0
    9.0756   -0.5650   21.7036 N   0  0  0  0  0  0  0  0  0  0  0  0
    8.0937    0.8220   20.1051 O   0  0  0  0  0  0  0  0  0  0  0  0
   10.6425    1.1123   21.2608 O   0  0  0  0  0  0  0  0  0  0  0  0
   11.3543    3.4153   24.2127 O   0  0  0  0  0  0  0  0  0  0  0  0
    8.9909    3.1939   25.3675 S   0  0  0  0  0  0  0  0  0  0  0  0
    8.6203   -3.0166   26.5139 H   0  0  0  0  0  0  0  0  0  0  0  0
    4.6055   -1.6160   24.0808 H   0  0  0  0  0  0  0  0  0  0  0  0
    7.4099    1.4847   26.0959 H   0  0  0  0  0  0  0  0  0  0  0  0
    4.9328   -1.4771   20.1671 H   0  0  0  0  0  0  0  0  0  0  0  0
    5.7893    0.0159   19.4792 H   0  0  0  0  0  0  0  0  0  0  0  0
    6.9086   -1.9211   21.5761 H   0  0  0  0  0  0  0  0  0  0  0  0
   14.1430    0.4539   21.9053 H   0  0  0  0  0  0  0  0  0  0  0  0
   14.2322   -0.4411   23.4263 H   0  0  0  0  0  0  0  0  0  0  0  0
   13.3549    1.6294   24.2171 H   0  0  0  0  0  0  0  0  0  0  0  0
   12.4362    1.9067   22.7324 H   0  0  0  0  0  0  0  0  0  0  0  0
   12.4589   -0.9717   21.1398 H   0  0  0  0  0  0  0  0  0  0  0  0
   12.8004   -1.9705   22.5525 H   0  0  0  0  0  0  0  0  0  0  0  0
   11.9353   -0.2650   24.8729 H   0  0  0  0  0  0  0  0  0  0  0  0
   10.6302   -1.4407   23.2491 H   0  0  0  0  0  0  0  0  0  0  0  0
    5.9581   -6.3850   28.5766 H   0  0  0  0  0  0  0  0  0  0  0  0
    4.8022   -7.3331   27.5809 H   0  0  0  0  0  0  0  0  0  0  0  0
    6.5371   -7.2630   27.1205 H   0  0  0  0  0  0  0  0  0  0  0  0
   11.8618    4.9770   22.9373 H   0  0  0  0  0  0  0  0  0  0  0  0
   10.1787    4.9971   23.5496 H   0  0  0  0  0  0  0  0  0  0  0  0
   10.6639    3.8198   22.3010 H   0  0  0  0  0  0  0  0  0  0  0  0
    5.1712   -5.8123   25.6990 H   0  0  0  0  0  0  0  0  0  0  0  0
    4.5848   -4.9363   27.1535 H   0  0  0  0  0  0  0  0  0  0  0  0
    9.8030   -1.3093   25.3642 H   0  0  0  0  0  0  0  0  0  0  0  0
    7.4120   -4.8781   27.1460 H   0  0  0  0  0  0  0  0  0  0  0  0
    8.9175   -1.4011   22.2614 H   0  0  0  0  0  0  0  0  0  0  0  0
  1  5  1  0  0  0  0
  1 23  3  0  0  0  0
  2  7  1  0  0  0  0
  2  9  2  0  0  0  0
  3  5  1  0  0  0  0
  3 24  2  0  0  0  0
  4  8  2  0  0  0  0
  4 31  1  0  0  0  0
  5  7  2  0  0  0  0
  6  8  1  0  0  0  0
  6 10  2  0  0  0  0
  6 18  1  0  0  0  0
  7 25  1  0  0  0  0
  8 25  1  0  0  0  0
  9 24  1  0  0  0  0
  9 26  1  0  0  0  0
 10 30  1  0  0  0  0
 10 31  1  0  0  0  0
 11 12  2  0  0  0  0
 12 13  1  0  0  0  0
 13 27  1  0  0  0  0
 13 28  2  0  0  0  0
 14 19  1  0  0  0  0
 14 27  1  0  0  0  0
 14 29  2  0  0  0  0
 15 16  1  0  0  0  0
 15 17  1  0  0  0  0
 16 18  1  0  0  0  0
 17 19  1  0  0  0  0
 18 19  1  0  0  0  0
 20 22  1  0  0  0  0
 21 30  1  0  0  0  0
 22 26  1  0  0  0  0
  2 32  1  0  0  0  0
  3 33  1  0  0  0  0
  4 34  1  0  0  0  0
 11 35  1  0  0  0  0
 11 36  1  0  0  0  0
 12 37  1  0  0  0  0
 15 38  1  0  0  0  0
 15 39  1  0  0  0  0
 16 40  1  0  0  0  0
 16 41  1  0  0  0  0
 17 42  1  0  0  0  0
 17 43  1  0  0  0  0
 18 44  1  0  0  0  0
 19 45  1  0  0  0  0
 20 46  1  0  0  0  0
 20 47  1  0  0  0  0
 20 48  1  0  0  0  0
 21 49  1  0  0  0  0
 21 50  1  0  0  0  0
 21 51  1  0  0  0  0
 22 52  1  0  0  0  0
 22 53  1  0  0  0  0
 25 54  1  0  0  0  0
 26 55  1  0  0  0  0
 27 56  1  0  0  0  0
M  END
> <creator>
Benjamin P. Brown, Vanderbilt University, Laboratory of Jens Meiler

> <fragments>
x0874

> <real_space>
FALSE

> <SCR>
FALSE

> <BB>
FALSE

> <link>
https://covid.postera.ai/covid/submissions/d2b455e2-4c45-4364-9fc0-1efc54e3e367

> <covalent_frag>
FALSE

> <covalent_warhead>
TRUE

> <acrylamide>
TRUE

> <acrylamide_adduct>
FALSE

> <chloroacetamide>
FALSE

> <chloroacetamide_adduct>
FALSE

> <vinylsulfonamide>
FALSE

> <vinylsulfonamide_adduct>
FALSE

> <in_molport_or_mcule>
FALSE

> <in_emolecules>
FALSE

> <Hybrid2>
-6.551128

> <Mpro-x0874_dock>
-6.551128

> <Mpro-x0305_dock>
-5.516489

> <site>
active-noncovalent

> <covalent_distance_min>
5.253756

> <covalent_distance_mean>
6.0603695

> <covalent_distance_stderr>
0.11098433

$$$$
DAR-DIA-fb2-5
  -OEChem-04062011563D

 46 47  0     0  0  0  0  0  0999 V2000
   11.0063    6.4064   25.5752 C   0  0  0  0  0  0  0  0  0  0  0  0
    8.7261    6.9420   25.9881 C   0  0  0  0  0  0  0  0  0  0  0  0
   10.7169    6.3568   24.2161 C   0  0  0  0  0  0  0  0  0  0  0  0
    9.9975    6.7039   26.4847 C   0  0  0  0  0  0  0  0  0  0  0  0
    9.4132    6.6102   23.8211 C   0  0  0  0  0  0  0  0  0  0  0  0
   12.8922    0.6283   22.7198 C   0  0  0  0  0  0  0  0  0  0  0  0
   11.0938    2.2842   23.1001 C   0  0  0  0  0  0  0  0  0  0  0  0
   12.8286    2.8219   21.4345 C   0  0  0  0  0  0  0  0  0  0  0  0
   11.2568    3.6540   23.7425 C   0  0  0  0  0  0  0  0  0  0  0  0
   13.0166    4.2015   22.0510 C   0  0  0  0  0  0  0  0  0  0  0  0
    7.4584    4.9433   21.7739 C   0  0  0  0  0  0  0  0  0  0  0  0
   11.5915    6.5009   28.2379 C   0  0  0  0  0  0  0  0  0  0  0  0
   11.8084    6.0365   23.2378 C   0  0  0  0  0  0  0  0  0  0  0  0
   12.6668    0.0925   24.1111 C   0  0  0  0  0  0  0  0  0  0  0  0
    7.7869    6.3878   21.9419 C   0  0  0  0  0  0  0  0  0  0  0  0
    8.4068    6.9026   24.6750 N   0  0  0  0  0  0  0  0  0  0  0  0
   12.3253    1.8683   22.4289 N   0  0  0  0  0  0  0  0  0  0  0  0
    9.1137    6.5596   22.4365 N   0  0  0  0  0  0  0  0  0  0  0  0
   11.7185    4.6392   22.6920 N   0  3  0  0  0  0  0  0  0  0  0  0
   13.5503   -0.0377   21.9164 O   0  0  0  0  0  0  0  0  0  0  0  0
   10.2509    6.7597   27.8154 O   0  0  0  0  0  0  0  0  0  0  0  0
   11.1644   -0.8231   24.0609 Cl  0  0  0  0  0  0  0  0  0  0  0  0
   12.0162    6.2140   25.9284 H   0  0  0  0  0  0  0  0  0  0  0  0
    7.9004    7.1794   26.6515 H   0  0  0  0  0  0  0  0  0  0  0  0
   10.8020    1.5553   23.8627 H   0  0  0  0  0  0  0  0  0  0  0  0
   10.2975    2.3014   22.3460 H   0  0  0  0  0  0  0  0  0  0  0  0
   12.0948    2.8603   20.6202 H   0  0  0  0  0  0  0  0  0  0  0  0
   13.7734    2.4942   20.9975 H   0  0  0  0  0  0  0  0  0  0  0  0
   10.2990    4.0155   24.1304 H   0  0  0  0  0  0  0  0  0  0  0  0
   12.0014    3.6451   24.5464 H   0  0  0  0  0  0  0  0  0  0  0  0
   13.7917    4.2027   22.8256 H   0  0  0  0  0  0  0  0  0  0  0  0
   13.2641    4.9383   21.2800 H   0  0  0  0  0  0  0  0  0  0  0  0
    7.5444    4.4319   22.7440 H   0  0  0  0  0  0  0  0  0  0  0  0
    6.4301    4.8428   21.3965 H   0  0  0  0  0  0  0  0  0  0  0  0
    8.1582    4.4892   21.0569 H   0  0  0  0  0  0  0  0  0  0  0  0
   11.6528    6.5786   29.3262 H   0  0  0  0  0  0  0  0  0  0  0  0
   12.2671    7.2226   27.7718 H   0  0  0  0  0  0  0  0  0  0  0  0
   11.8723    5.4908   27.9306 H   0  0  0  0  0  0  0  0  0  0  0  0
   11.7793    6.7129   22.3768 H   0  0  0  0  0  0  0  0  0  0  0  0
   12.7959    6.1299   23.7024 H   0  0  0  0  0  0  0  0  0  0  0  0
   12.5720    0.9260   24.7977 H   0  0  0  0  0  0  0  0  0  0  0  0
   13.4917   -0.5596   24.3744 H   0  0  0  0  0  0  0  0  0  0  0  0
    7.6987    6.8917   20.9681 H   0  0  0  0  0  0  0  0  0  0  0  0
    7.0778    6.8369   22.6528 H   0  0  0  0  0  0  0  0  0  0  0  0
    9.8856    6.6498   21.8083 H   0  0  0  0  0  0  0  0  0  0  0  0
   11.0026    4.6592   21.9526 H   0  0  0  0  0  0  0  0  0  0  0  0
  1  3  1  0  0  0  0
  1  4  2  0  0  0  0
  2  4  1  0  0  0  0
  2 16  2  0  0  0  0
  3  5  2  0  0  0  0
  3 13  1  0  0  0  0
  4 21  1  0  0  0  0
  5 16  1  0  0  0  0
  5 18  1  0  0  0  0
  6 14  1  0  0  0  0
  6 17  1  0  0  0  0
  6 20  2  0  0  0  0
  7  9  1  0  0  0  0
  7 17  1  0  0  0  0
  8 10  1  0  0  0  0
  8 17  1  0  0  0  0
  9 19  1  0  0  0  0
 10 19  1  0  0  0  0
 11 15  1  0  0  0  0
 12 21  1  0  0  0  0
 13 19  1  0  0  0  0
 14 22  1  0  0  0  0
 15 18  1  0  0  0  0
  1 23  1  0  0  0  0
  2 24  1  0  0  0  0
  7 25  1  0  0  0  0
  7 26  1  0  0  0  0
  8 27  1  0  0  0  0
  8 28  1  0  0  0  0
  9 29  1  0  0  0  0
  9 30  1  0  0  0  0
 10 31  1  0  0  0  0
 10 32  1  0  0  0  0
 11 33  1  0  0  0  0
 11 34  1  0  0  0  0
 11 35  1  0  0  0  0
 12 36  1  0  0  0  0
 12 37  1  0  0  0  0
 12 38  1  0  0  0  0
 13 39  1  0  0  0  0
 13 40  1  0  0  0  0
 14 41  1  0  0  0  0
 14 42  1  0  0  0  0
 15 43  1  0  0  0  0
 15 44  1  0  0  0  0
 18 45  1  0  0  0  0
 19 46  1  0  0  0  0
M  CHG  1  19   1
M  END
> <creator>
Daren Fearon, Diamond Light Source Ltd

> <fragments>
x0104

> <real_space>
FALSE

> <SCR>
FALSE

> <BB>
FALSE

> <link>
https://covid.postera.ai/covid/submissions/fb20be43-b2ad-4a19-a5ce-eb2fe8d462e2

> <covalent_frag>
TRUE

> <covalent_warhead>
TRUE

> <acrylamide>
FALSE

> <acrylamide_adduct>
FALSE

> <chloroacetamide>
TRUE

> <chloroacetamide_adduct>
FALSE

> <vinylsulfonamide>
FALSE

> <vinylsulfonamide_adduct>
FALSE

> <in_molport_or_mcule>
FALSE

> <in_emolecules>
FALSE

> <Hybrid2>
-6.538956

> <Mpro-x0104_dock>
-6.538956

> <Mpro-x0195_dock>
-6.056157

> <Mpro-x0830_dock>
-5.321759

> <Mpro-x0305_dock>
-4.668041

> <site>
active-noncovalent

> <covalent_distance_min>
5.397208

> <covalent_distance_mean>
6.3231993

> <covalent_distance_stderr>
0.046690106

$$$$
MAK-UNK-af8-26
  -OEChem-04062011563D

 61 63  0     1  0  0  0  0  0999 V2000
    8.4824    6.0344   26.7893 C   0  0  0  0  0  0  0  0  0  0  0  0
   10.0044    6.2382   24.8782 C   0  0  0  0  0  0  0  0  0  0  0  0
   10.7708    5.6380   23.8853 C   0  0  0  0  0  0  0  0  0  0  0  0
    9.3480    4.0720   25.6084 C   0  0  0  0  0  0  0  0  0  0  0  0
    9.2765    5.4474   25.7602 C   0  0  0  0  0  0  0  0  0  0  0  0
   10.7756    4.2541   23.8176 C   0  0  0  0  0  0  0  0  0  0  0  0
   12.3373    0.0818   23.6332 C   0  0  0  0  0  0  0  0  0  0  0  0
    5.4083   -6.5967   27.1204 C   0  0  0  0  0  0  0  0  0  0  0  0
    7.0669   -4.7654   27.2468 C   0  0  0  0  0  0  0  0  0  0  0  0
    5.6513   -4.9078   25.2346 C   0  0  0  0  0  0  0  0  0  0  0  0
   11.0815   -2.1133   23.8730 C   0  0  0  0  0  0  0  0  0  0  0  0
   10.0278   -0.0521   24.5474 C   0  0  0  0  0  0  0  0  0  0  0  0
    8.3131   -4.6227   26.3851 C   0  0  0  0  0  0  0  0  0  0  0  0
    6.8768   -4.7653   24.3420 C   0  0  0  0  0  0  0  0  0  0  0  0
    9.8181   -2.4333   24.6728 C   0  0  1  0  0  0  0  0  0  0  0  0
    8.9795   -1.1582   24.5133 C   0  0  2  0  0  0  0  0  0  0  0  0
    7.3082   -0.1339   23.2168 C   0  0  0  0  0  0  0  0  0  0  0  0
   12.2205    1.5681   23.8574 C   0  0  0  0  0  0  0  0  0  0  0  0
    3.9738   -6.8640   26.7400 C   0  0  0  0  0  0  0  0  0  0  0  0
    9.1365   -3.7108   24.2113 C   0  0  0  0  0  0  0  0  0  0  0  0
   11.6492    2.2436   22.6257 C   0  0  0  0  0  0  0  0  0  0  0  0
    7.8362    6.5122   27.6266 N   0  0  0  0  0  0  0  0  0  0  0  0
   10.0814    3.4528   24.6564 N   0  0  0  0  0  0  0  0  0  0  0  0
   11.2298   -0.6656   23.9926 N   0  0  0  0  0  0  0  0  0  0  0  0
    6.0137   -5.4870   26.5326 N   0  0  0  0  0  0  0  0  0  0  0  0
   11.5433    3.6710   22.8229 N   0  0  0  0  0  0  0  0  0  0  0  0
    7.9340   -3.9698   25.0747 N   0  3  0  0  0  0  0  0  0  0  0  0
   13.3660   -0.3974   23.1532 O   0  0  0  0  0  0  0  0  0  0  0  0
    5.9726   -7.3540   27.9142 O   0  0  0  0  0  0  0  0  0  0  0  0
    8.3093   -1.1413   23.2591 O   0  0  0  0  0  0  0  0  0  0  0  0
    4.0146   -7.8870   25.3084 Cl  0  0  0  0  0  0  0  0  0  0  0  0
    9.9841    7.3225   24.9525 H   0  0  0  0  0  0  0  0  0  0  0  0
   11.3429    6.2474   23.1934 H   0  0  0  0  0  0  0  0  0  0  0  0
    8.8038    3.3996   26.2655 H   0  0  0  0  0  0  0  0  0  0  0  0
    7.3242   -5.2769   28.1796 H   0  0  0  0  0  0  0  0  0  0  0  0
    6.6666   -3.7805   27.5165 H   0  0  0  0  0  0  0  0  0  0  0  0
    5.2009   -3.9272   25.4305 H   0  0  0  0  0  0  0  0  0  0  0  0
    4.9000   -5.5065   24.7169 H   0  0  0  0  0  0  0  0  0  0  0  0
   11.9640   -2.6279   24.2639 H   0  0  0  0  0  0  0  0  0  0  0  0
   10.9740   -2.3500   22.8085 H   0  0  0  0  0  0  0  0  0  0  0  0
    9.7580    0.8343   23.9649 H   0  0  0  0  0  0  0  0  0  0  0  0
   10.2650    0.2450   25.5748 H   0  0  0  0  0  0  0  0  0  0  0  0
    9.0479   -3.9738   26.8725 H   0  0  0  0  0  0  0  0  0  0  0  0
    8.7695   -5.5929   26.1585 H   0  0  0  0  0  0  0  0  0  0  0  0
    7.3086   -5.7376   24.0796 H   0  0  0  0  0  0  0  0  0  0  0  0
    6.6276   -4.2138   23.4297 H   0  0  0  0  0  0  0  0  0  0  0  0
   10.0904   -2.5391   25.7292 H   0  0  0  0  0  0  0  0  0  0  0  0
    8.2363   -1.0469   25.3088 H   0  0  0  0  0  0  0  0  0  0  0  0
    6.8152   -0.1496   22.2417 H   0  0  0  0  0  0  0  0  0  0  0  0
    7.7659    0.8434   23.3898 H   0  0  0  0  0  0  0  0  0  0  0  0
    6.5710   -0.3322   23.9984 H   0  0  0  0  0  0  0  0  0  0  0  0
   13.2281    1.9351   24.0566 H   0  0  0  0  0  0  0  0  0  0  0  0
   11.5965    1.7261   24.7376 H   0  0  0  0  0  0  0  0  0  0  0  0
    3.4897   -5.9216   26.5104 H   0  0  0  0  0  0  0  0  0  0  0  0
    3.4851   -7.3842   27.5557 H   0  0  0  0  0  0  0  0  0  0  0  0
    9.7948   -4.5785   24.3086 H   0  0  0  0  0  0  0  0  0  0  0  0
    8.7804   -3.6295   23.1806 H   0  0  0  0  0  0  0  0  0  0  0  0
   12.3151    2.0567   21.7769 H   0  0  0  0  0  0  0  0  0  0  0  0
   10.6622    1.8428   22.3715 H   0  0  0  0  0  0  0  0  0  0  0  0
   12.0614    4.2779   22.1982 H   0  0  0  0  0  0  0  0  0  0  0  0
    7.5282   -3.0498   25.2949 H   0  0  0  0  0  0  0  0  0  0  0  0
  1  5  1  0  0  0  0
  1 22  3  0  0  0  0
  2  3  2  0  0  0  0
  2  5  1  0  0  0  0
  3  6  1  0  0  0  0
  4  5  2  0  0  0  0
  4 23  1  0  0  0  0
  6 23  2  0  0  0  0
  6 26  1  0  0  0  0
  7 18  1  0  0  0  0
  7 24  1  0  0  0  0
  7 28  2  0  0  0  0
  8 19  1  0  0  0  0
  8 25  1  0  0  0  0
  8 29  2  0  0  0  0
  9 13  1  0  0  0  0
  9 25  1  0  0  0  0
 10 14  1  0  0  0  0
 10 25  1  0  0  0  0
 11 15  1  0  0  0  0
 11 24  1  0  0  0  0
 12 16  1  0  0  0  0
 12 24  1  0  0  0  0
 13 27  1  0  0  0  0
 14 27  1  0  0  0  0
 15 16  1  0  0  0  0
 15 20  1  0  0  0  0
 16 30  1  0  0  0  0
 17 30  1  0  0  0  0
 18 21  1  0  0  0  0
 19 31  1  0  0  0  0
 20 27  1  0  0  0  0
 21 26  1  0  0  0  0
  2 32  1  0  0  0  0
  3 33  1  0  0  0  0
  4 34  1  0  0  0  0
  9 35  1  0  0  0  0
  9 36  1  0  0  0  0
 10 37  1  0  0  0  0
 10 38  1  0  0  0  0
 11 39  1  0  0  0  0
 11 40  1  0  0  0  0
 12 41  1  0  0  0  0
 12 42  1  0  0  0  0
 13 43  1  0  0  0  0
 13 44  1  0  0  0  0
 14 45  1  0  0  0  0
 14 46  1  0  0  0  0
 15 47  1  0  0  0  0
 16 48  1  0  0  0  0
 17 49  1  0  0  0  0
 17 50  1  0  0  0  0
 17 51  1  0  0  0  0
 18 52  1  0  0  0  0
 18 53  1  0  0  0  0
 19 54  1  0  0  0  0
 19 55  1  0  0  0  0
 20 56  1  0  0  0  0
 20 57  1  0  0  0  0
 21 58  1  0  0  0  0
 21 59  1  0  0  0  0
 26 60  1  0  0  0  0
 27 61  1  0  0  0  0
M  CHG  1  27   1
M  END
> <creator>
Maksym Voznyy

> <fragments>
x0072

> <real_space>
FALSE

> <SCR>
FALSE

> <BB>
FALSE

> <link>
https://covid.postera.ai/covid/submissions/af83ef51-35cf-489e-b3bd-9012d86d8275

> <covalent_frag>
TRUE

> <covalent_warhead>
TRUE

> <acrylamide>
FALSE

> <acrylamide_adduct>
FALSE

> <chloroacetamide>
TRUE

> <chloroacetamide_adduct>
FALSE

> <vinylsulfonamide>
FALSE

> <vinylsulfonamide_adduct>
FALSE

> <in_molport_or_mcule>
FALSE

> <in_emolecules>
FALSE

> <Hybrid2>
-6.526270

> <Mpro-x0072_dock>
-6.52627

> <Mpro-x0161_dock>
-6.295285

> <Mpro-x0104_dock>
-6.166543

> <Mpro-x0195_dock>
-4.388057

> <Mpro-x0387_dock>
-2.908441

> <Mpro-x0305_dock>
-1.787675

> <Mpro-x0692_dock>
-1.281638

> <site>
active-noncovalent

> <covalent_distance_min>
12.194189

> <covalent_distance_mean>
13.1178255

> <covalent_distance_stderr>
0.12305413

$$$$
BEN-VAN-ed8-12
  -OEChem-04062011563D

 53 54  0     0  0  0  0  0  0999 V2000
    5.2957    1.1465   18.6657 C   0  0  0  0  0  0  0  0  0  0  0  0
    4.8456    2.0223   19.6473 C   0  0  0  0  0  0  0  0  0  0  0  0
    7.5802   -1.7139   23.1229 C   0  0  0  0  0  0  0  0  0  0  0  0
    9.0004   -1.1302   21.2576 C   0  0  0  0  0  0  0  0  0  0  0  0
    9.9102   -1.1943   23.4949 C   0  0  0  0  0  0  0  0  0  0  0  0
    7.7503   -1.4979   21.7554 C   0  0  0  0  0  0  0  0  0  0  0  0
    8.6601   -1.5620   23.9927 C   0  0  0  0  0  0  0  0  0  0  0  0
   10.0803   -0.9784   22.1273 C   0  0  0  0  0  0  0  0  0  0  0  0
    5.8710   -0.0648   19.0333 C   0  0  0  0  0  0  0  0  0  0  0  0
    5.9722   -0.3509   20.3852 C   0  0  0  0  0  0  0  0  0  0  0  0
    4.9925    1.6426   20.9718 C   0  0  0  0  0  0  0  0  0  0  0  0
    9.2065    4.5868   22.9785 C   0  0  0  0  0  0  0  0  0  0  0  0
    9.6795    3.3786   22.6579 C   0  0  0  0  0  0  0  0  0  0  0  0
   10.9764    2.9063   23.2136 C   0  0  0  0  0  0  0  0  0  0  0  0
   12.4516    0.9268   23.1167 C   0  0  0  0  0  0  0  0  0  0  0  0
    8.7385   -3.2441   25.8503 C   0  0  0  0  0  0  0  0  0  0  0  0
    4.0592    3.3933   24.1636 C   0  0  0  0  0  0  0  0  0  0  0  0
    6.5956   -1.6601   20.8256 C   0  0  0  0  0  0  0  0  0  0  0  0
    8.4781   -1.7929   25.4548 C   0  0  0  0  0  0  0  0  0  0  0  0
   12.4931   -0.4330   22.4542 C   0  0  0  0  0  0  0  0  0  0  0  0
    4.6253    2.2741   23.3576 C   0  0  0  0  0  0  0  0  0  0  0  0
    5.5463    0.4745   21.3674 N   0  0  0  0  0  0  0  0  0  0  0  0
   11.3238   -0.6126   21.6322 N   0  0  0  0  0  0  0  0  0  0  0  0
    4.5315    2.5471   21.9605 N   0  0  0  0  0  0  0  0  0  0  0  0
   11.2953    1.6274   22.7629 N   0  0  0  0  0  0  0  0  0  0  0  0
   11.6549    3.5894   23.9737 O   0  0  0  0  0  0  0  0  0  0  0  0
   13.3322    1.3421   23.8653 O   0  0  0  0  0  0  0  0  0  0  0  0
    6.3118   -0.9192   18.1018 F   0  0  0  0  0  0  0  0  0  0  0  0
    5.1987    1.4076   17.6162 H   0  0  0  0  0  0  0  0  0  0  0  0
    4.3937    2.9690   19.3692 H   0  0  0  0  0  0  0  0  0  0  0  0
    6.6056   -2.0006   23.5110 H   0  0  0  0  0  0  0  0  0  0  0  0
    9.1312   -0.9622   20.1910 H   0  0  0  0  0  0  0  0  0  0  0  0
   10.7512   -1.0765   24.1745 H   0  0  0  0  0  0  0  0  0  0  0  0
    8.2600    4.9245   22.5695 H   0  0  0  0  0  0  0  0  0  0  0  0
    9.7327    5.2631   23.6429 H   0  0  0  0  0  0  0  0  0  0  0  0
    9.1206    2.7330   21.9895 H   0  0  0  0  0  0  0  0  0  0  0  0
    8.0879   -3.9261   25.2924 H   0  0  0  0  0  0  0  0  0  0  0  0
    8.5509   -3.3944   26.9181 H   0  0  0  0  0  0  0  0  0  0  0  0
    9.7765   -3.5269   25.6451 H   0  0  0  0  0  0  0  0  0  0  0  0
    3.0008    3.5367   23.9004 H   0  0  0  0  0  0  0  0  0  0  0  0
    4.1414    3.1525   25.2337 H   0  0  0  0  0  0  0  0  0  0  0  0
    4.6179    4.3168   23.9516 H   0  0  0  0  0  0  0  0  0  0  0  0
    6.8976   -2.2308   19.9297 H   0  0  0  0  0  0  0  0  0  0  0  0
    5.8140   -2.2904   21.2853 H   0  0  0  0  0  0  0  0  0  0  0  0
    9.1477   -1.1366   26.0336 H   0  0  0  0  0  0  0  0  0  0  0  0
    7.4580   -1.5132   25.7637 H   0  0  0  0  0  0  0  0  0  0  0  0
   12.5270   -1.2097   23.2247 H   0  0  0  0  0  0  0  0  0  0  0  0
   13.3942   -0.5076   21.8372 H   0  0  0  0  0  0  0  0  0  0  0  0
    5.6831    2.1373   23.6264 H   0  0  0  0  0  0  0  0  0  0  0  0
    4.0678    1.3526   23.5815 H   0  0  0  0  0  0  0  0  0  0  0  0
   11.4118   -0.4622   20.6318 H   0  0  0  0  0  0  0  0  0  0  0  0
    4.1286    3.4011   21.6330 H   0  0  0  0  0  0  0  0  0  0  0  0
   10.6404    1.1713   22.1318 H   0  0  0  0  0  0  0  0  0  0  0  0
  1  2  2  0  0  0  0
  1  9  1  0  0  0  0
  2 11  1  0  0  0  0
  3  6  2  0  0  0  0
  3  7  1  0  0  0  0
  4  6  1  0  0  0  0
  4  8  2  0  0  0  0
  5  7  2  0  0  0  0
  5  8  1  0  0  0  0
  6 18  1  0  0  0  0
  7 19  1  0  0  0  0
  8 23  1  0  0  0  0
  9 10  2  0  0  0  0
  9 28  1  0  0  0  0
 10 18  1  0  0  0  0
 10 22  1  0  0  0  0
 11 22  2  0  0  0  0
 11 24  1  0  0  0  0
 12 13  2  0  0  0  0
 13 14  1  0  0  0  0
 14 25  1  0  0  0  0
 14 26  2  0  0  0  0
 15 20  1  0  0  0  0
 15 25  1  0  0  0  0
 15 27  2  0  0  0  0
 16 19  1  0  0  0  0
 17 21  1  0  0  0  0
 20 23  1  0  0  0  0
 21 24  1  0  0  0  0
  1 29  1  0  0  0  0
  2 30  1  0  0  0  0
  3 31  1  0  0  0  0
  4 32  1  0  0  0  0
  5 33  1  0  0  0  0
 12 34  1  0  0  0  0
 12 35  1  0  0  0  0
 13 36  1  0  0  0  0
 16 37  1  0  0  0  0
 16 38  1  0  0  0  0
 16 39  1  0  0  0  0
 17 40  1  0  0  0  0
 17 41  1  0  0  0  0
 17 42  1  0  0  0  0
 18 43  1  0  0  0  0
 18 44  1  0  0  0  0
 19 45  1  0  0  0  0
 19 46  1  0  0  0  0
 20 47  1  0  0  0  0
 20 48  1  0  0  0  0
 21 49  1  0  0  0  0
 21 50  1  0  0  0  0
 23 51  1  0  0  0  0
 24 52  1  0  0  0  0
 25 53  1  0  0  0  0
M  END
> <creator>
Benjamin P. Brown, Vanderbilt University, Laboratory of Jens Meiler

> <fragments>
x0434

> <real_space>
FALSE

> <SCR>
FALSE

> <BB>
FALSE

> <link>
https://covid.postera.ai/covid/submissions/ed886787-7a03-461a-8e89-d76e33337a9e

> <covalent_frag>
FALSE

> <covalent_warhead>
TRUE

> <acrylamide>
TRUE

> <acrylamide_adduct>
FALSE

> <chloroacetamide>
FALSE

> <chloroacetamide_adduct>
FALSE

> <vinylsulfonamide>
FALSE

> <vinylsulfonamide_adduct>
FALSE

> <in_molport_or_mcule>
FALSE

> <in_emolecules>
FALSE

> <Hybrid2>
-6.499113

> <Mpro-x0434_dock>
-6.499113

> <Mpro-x0305_dock>
-1.159156

> <site>
active-noncovalent

> <covalent_distance_min>
9.154079

> <covalent_distance_mean>
10.3146925

> <covalent_distance_stderr>
0.03925798

$$$$
DUN-NEW-f8c-25
  -OEChem-04062011563D

 49 50  0     1  0  0  0  0  0999 V2000
   10.3219    2.7668   24.6481 C   0  0  0  0  0  0  0  0  0  0  0  0
   11.4886    2.5869   23.9051 C   0  0  0  0  0  0  0  0  0  0  0  0
    9.7143    1.6748   25.2678 C   0  0  0  0  0  0  0  0  0  0  0  0
   12.0477    1.3149   23.7818 C   0  0  0  0  0  0  0  0  0  0  0  0
   10.2733    0.4029   25.1445 C   0  0  0  0  0  0  0  0  0  0  0  0
   11.4401    0.2229   24.4014 C   0  0  0  0  0  0  0  0  0  0  0  0
    5.7281   -5.0485   26.5516 C   0  0  0  0  0  0  0  0  0  0  0  0
    9.2676   -4.5092   25.8907 C   0  0  0  0  0  0  0  0  0  0  0  0
    7.9043   -2.4637   25.3351 C   0  0  0  0  0  0  0  0  0  0  0  0
    8.0512   -5.3782   25.5721 C   0  0  0  0  0  0  0  0  0  0  0  0
    6.7158   -3.3717   25.0254 C   0  0  0  0  0  0  0  0  0  0  0  0
    9.2554   -3.1692   25.1379 C   0  0  0  0  0  0  0  0  0  0  0  0
    9.3656   -2.7140   20.5406 C   0  0  0  0  0  0  0  0  0  0  0  0
   12.0442   -1.1535   24.2682 C   0  0  0  0  0  0  0  0  0  0  0  0
    5.5137   -6.5370   26.6629 C   0  0  0  0  0  0  0  0  0  0  0  0
    9.5923   -3.3473   23.6556 C   0  0  0  0  0  0  0  0  0  0  0  0
   11.5126   -1.9229   23.0614 C   0  0  0  0  0  0  0  0  0  0  0  0
    6.8054   -4.6282   25.7715 N   0  0  0  0  0  0  0  0  0  0  0  0
   10.0163   -2.1044   23.1042 N   0  0  1  0  0  0  0  0  0  0  0  0
    4.9613   -4.2839   27.1429 O   0  0  0  0  0  0  0  0  0  0  0  0
    7.7448   -1.3705   22.0864 O   0  0  0  0  0  0  0  0  0  0  0  0
    9.8268   -0.2401   21.2404 O   0  0  0  0  0  0  0  0  0  0  0  0
    9.1543   -1.4217   21.7467 S   0  0  0  0  0  0  0  0  0  0  0  0
    5.6751   -6.9431   28.3679 Cl  0  0  0  0  0  0  0  0  0  0  0  0
    9.8875    3.7575   24.7451 H   0  0  0  0  0  0  0  0  0  0  0  0
   11.9625    3.4372   23.4234 H   0  0  0  0  0  0  0  0  0  0  0  0
    8.8066    1.8148   25.8472 H   0  0  0  0  0  0  0  0  0  0  0  0
   12.9568    1.1841   23.2007 H   0  0  0  0  0  0  0  0  0  0  0  0
    9.7929   -0.4421   25.6306 H   0  0  0  0  0  0  0  0  0  0  0  0
    9.3032   -4.3231   26.9771 H   0  0  0  0  0  0  0  0  0  0  0  0
   10.1866   -5.0704   25.6472 H   0  0  0  0  0  0  0  0  0  0  0  0
    7.8507   -1.5662   24.6945 H   0  0  0  0  0  0  0  0  0  0  0  0
    7.8221   -2.1020   26.3737 H   0  0  0  0  0  0  0  0  0  0  0  0
    8.1395   -5.7635   24.5543 H   0  0  0  0  0  0  0  0  0  0  0  0
    8.0168   -6.2457   26.2427 H   0  0  0  0  0  0  0  0  0  0  0  0
    5.7758   -2.8857   25.3143 H   0  0  0  0  0  0  0  0  0  0  0  0
    6.6670   -3.5599   23.9478 H   0  0  0  0  0  0  0  0  0  0  0  0
   10.0415   -2.5243   25.5833 H   0  0  0  0  0  0  0  0  0  0  0  0
    8.8637   -2.4115   19.6202 H   0  0  0  0  0  0  0  0  0  0  0  0
   10.4339   -2.8511   20.3663 H   0  0  0  0  0  0  0  0  0  0  0  0
    8.9217   -3.6292   20.9353 H   0  0  0  0  0  0  0  0  0  0  0  0
   11.8268   -1.7190   25.1832 H   0  0  0  0  0  0  0  0  0  0  0  0
   13.1376   -1.0752   24.2145 H   0  0  0  0  0  0  0  0  0  0  0  0
    6.2767   -7.0462   26.0852 H   0  0  0  0  0  0  0  0  0  0  0  0
    4.5145   -6.7750   26.3164 H   0  0  0  0  0  0  0  0  0  0  0  0
   10.3891   -4.0867   23.5917 H   0  0  0  0  0  0  0  0  0  0  0  0
    8.6894   -3.6990   23.1588 H   0  0  0  0  0  0  0  0  0  0  0  0
   11.7380   -1.3749   22.1411 H   0  0  0  0  0  0  0  0  0  0  0  0
   11.9640   -2.9176   22.9857 H   0  0  0  0  0  0  0  0  0  0  0  0
  1  2  1  0  0  0  0
  1  3  2  0  0  0  0
  2  4  2  0  0  0  0
  3  5  1  0  0  0  0
  4  6  1  0  0  0  0
  5  6  2  0  0  0  0
  6 14  1  0  0  0  0
  7 15  1  0  0  0  0
  7 18  1  0  0  0  0
  7 20  2  0  0  0  0
  8 10  1  0  0  0  0
  8 12  1  0  0  0  0
  9 11  1  0  0  0  0
  9 12  1  0  0  0  0
 10 18  1  0  0  0  0
 11 18  1  0  0  0  0
 12 16  1  0  0  0  0
 13 23  1  0  0  0  0
 14 17  1  0  0  0  0
 15 24  1  0  0  0  0
 16 19  1  0  0  0  0
 17 19  1  0  0  0  0
 19 23  1  0  0  0  0
 21 23  2  0  0  0  0
 22 23  2  0  0  0  0
  1 25  1  0  0  0  0
  2 26  1  0  0  0  0
  3 27  1  0  0  0  0
  4 28  1  0  0  0  0
  5 29  1  0  0  0  0
  8 30  1  0  0  0  0
  8 31  1  0  0  0  0
  9 32  1  0  0  0  0
  9 33  1  0  0  0  0
 10 34  1  0  0  0  0
 10 35  1  0  0  0  0
 11 36  1  0  0  0  0
 11 37  1  0  0  0  0
 12 38  1  0  0  0  0
 13 39  1  0  0  0  0
 13 40  1  0  0  0  0
 13 41  1  0  0  0  0
 14 42  1  0  0  0  0
 14 43  1  0  0  0  0
 15 44  1  0  0  0  0
 15 45  1  0  0  0  0
 16 46  1  0  0  0  0
 16 47  1  0  0  0  0
 17 48  1  0  0  0  0
 17 49  1  0  0  0  0
M  END
> <creator>
Duncan Miller, Newcastle University

> <fragments>
x0072

> <real_space>
FALSE

> <SCR>
FALSE

> <BB>
FALSE

> <link>
https://covid.postera.ai/covid/submissions/f8ce3686-4774-4f4e-b96a-ab98611b1edd

> <covalent_frag>
TRUE

> <covalent_warhead>
TRUE

> <acrylamide>
FALSE

> <acrylamide_adduct>
FALSE

> <chloroacetamide>
TRUE

> <chloroacetamide_adduct>
FALSE

> <vinylsulfonamide>
FALSE

> <vinylsulfonamide_adduct>
FALSE

> <in_molport_or_mcule>
FALSE

> <in_emolecules>
FALSE

> <Hybrid2>
-6.477479

> <Mpro-x0072_dock>
-6.477479

> <Mpro-x1458_dock>
-2.637974

> <site>
active-noncovalent

> <covalent_distance_min>
8.67666

> <covalent_distance_mean>
9.607139

> <covalent_distance_stderr>
0.054123186

$$$$
STU-CHA-83d-1
  -OEChem-04062011563D

 50 52  0     1  0  0  0  0  0999 V2000
   14.6081    2.9121   21.7742 C   0  0  0  0  0  0  0  0  0  0  0  0
   14.0623    4.1500   22.1134 C   0  0  0  0  0  0  0  0  0  0  0  0
   12.2560    3.0373   23.2642 C   0  0  0  0  0  0  0  0  0  0  0  0
   13.9873    1.7241   22.1852 C   0  0  0  0  0  0  0  0  0  0  0  0
   12.7912    1.7882   22.9210 C   0  0  0  0  0  0  0  0  0  0  0  0
   12.8885    4.2125   22.8599 C   0  0  0  0  0  0  0  0  0  0  0  0
    6.6867   -3.3854   23.7335 C   0  0  0  0  0  0  0  0  0  0  0  0
   14.5744    0.3971   21.7764 C   0  0  0  0  0  0  0  0  0  0  0  0
   12.1066    0.5344   23.3924 C   0  0  0  0  0  0  0  0  0  0  0  0
   10.0640   -2.7384   24.7323 C   0  0  0  0  0  0  0  0  0  0  0  0
    9.6515   -1.7171   22.4657 C   0  0  0  0  0  0  0  0  0  0  0  0
    8.5885   -2.5298   25.0647 C   0  0  0  0  0  0  0  0  0  0  0  0
    8.1829   -1.5311   22.8439 C   0  0  0  0  0  0  0  0  0  0  0  0
   14.0925   -0.7659   22.6367 C   0  0  0  0  0  0  0  0  0  0  0  0
   10.5545   -1.7032   23.7085 C   0  0  0  0  0  0  0  0  0  0  0  0
    5.9016   -3.3168   22.4480 C   0  0  0  0  0  0  0  0  0  0  0  0
   12.0093   -1.9643   23.3261 C   0  0  0  0  0  0  0  0  0  0  0  0
    7.7747   -2.5207   23.8480 N   0  0  0  0  0  0  0  0  0  0  0  0
   11.1809    6.0475   21.9534 N   0  0  0  0  0  0  0  0  0  0  0  0
   12.5867   -0.7260   22.7020 N   0  3  1  0  0  0  0  0  0  0  0  0
    6.3434   -4.1858   24.6073 O   0  0  0  0  0  0  0  0  0  0  0  0
   11.3909    5.5908   24.4818 O   0  0  0  0  0  0  0  0  0  0  0  0
   13.2741    6.7543   23.2786 O   0  0  0  0  0  0  0  0  0  0  0  0
   12.2080    5.7622   23.2888 S   0  0  0  0  0  0  0  0  0  0  0  0
    6.6656   -4.4417   21.3304 Cl  0  0  0  0  0  0  0  0  0  0  0  0
   15.5222    2.8783   21.1865 H   0  0  0  0  0  0  0  0  0  0  0  0
   14.5614    5.0592   21.7892 H   0  0  0  0  0  0  0  0  0  0  0  0
   11.3406    3.0880   23.8496 H   0  0  0  0  0  0  0  0  0  0  0  0
   14.3121    0.2132   20.7270 H   0  0  0  0  0  0  0  0  0  0  0  0
   15.6683    0.4431   21.8390 H   0  0  0  0  0  0  0  0  0  0  0  0
   12.2862    0.4023   24.4660 H   0  0  0  0  0  0  0  0  0  0  0  0
   11.0289    0.5921   23.2024 H   0  0  0  0  0  0  0  0  0  0  0  0
   10.6568   -2.6609   25.6510 H   0  0  0  0  0  0  0  0  0  0  0  0
   10.2086   -3.7537   24.3425 H   0  0  0  0  0  0  0  0  0  0  0  0
    9.7691   -2.6646   21.9233 H   0  0  0  0  0  0  0  0  0  0  0  0
    9.9523   -0.9174   21.7776 H   0  0  0  0  0  0  0  0  0  0  0  0
    8.2655   -3.2991   25.7701 H   0  0  0  0  0  0  0  0  0  0  0  0
    8.4431   -1.5607   25.5594 H   0  0  0  0  0  0  0  0  0  0  0  0
    8.0204   -0.5390   23.2789 H   0  0  0  0  0  0  0  0  0  0  0  0
    7.5590   -1.6043   21.9491 H   0  0  0  0  0  0  0  0  0  0  0  0
   14.3860   -1.7225   22.1921 H   0  0  0  0  0  0  0  0  0  0  0  0
   14.4701   -0.7078   23.6641 H   0  0  0  0  0  0  0  0  0  0  0  0
   10.5029   -0.7075   24.1664 H   0  0  0  0  0  0  0  0  0  0  0  0
    5.9565   -2.3077   22.0559 H   0  0  0  0  0  0  0  0  0  0  0  0
    4.8800   -3.6222   22.6433 H   0  0  0  0  0  0  0  0  0  0  0  0
   12.0959   -2.7664   22.5880 H   0  0  0  0  0  0  0  0  0  0  0  0
   12.6217   -2.1983   24.2013 H   0  0  0  0  0  0  0  0  0  0  0  0
   11.6158    6.2747   21.0508 H   0  0  0  0  0  0  0  0  0  0  0  0
   10.3274    5.4816   21.8722 H   0  0  0  0  0  0  0  0  0  0  0  0
   12.2389   -0.6966   21.7336 H   0  0  0  0  0  0  0  0  0  0  0  0
  1  2  2  0  0  0  0
  1  4  1  0  0  0  0
  2  6  1  0  0  0  0
  3  5  1  0  0  0  0
  3  6  2  0  0  0  0
  4  5  2  0  0  0  0
  4  8  1  0  0  0  0
  5  9  1  0  0  0  0
  6 24  1  0  0  0  0
  7 16  1  0  0  0  0
  7 18  1  0  0  0  0
  7 21  2  0  0  0  0
  8 14  1  0  0  0  0
  9 20  1  0  0  0  0
 10 12  1  0  0  0  0
 10 15  1  0  0  0  0
 11 13  1  0  0  0  0
 11 15  1  0  0  0  0
 12 18  1  0  0  0  0
 13 18  1  0  0  0  0
 14 20  1  0  0  0  0
 15 17  1  0  0  0  0
 16 25  1  0  0  0  0
 17 20  1  0  0  0  0
 19 24  1  0  0  0  0
 22 24  2  0  0  0  0
 23 24  2  0  0  0  0
  1 26  1  0  0  0  0
  2 27  1  0  0  0  0
  3 28  1  0  0  0  0
  8 29  1  0  0  0  0
  8 30  1  0  0  0  0
  9 31  1  0  0  0  0
  9 32  1  0  0  0  0
 10 33  1  0  0  0  0
 10 34  1  0  0  0  0
 11 35  1  0  0  0  0
 11 36  1  0  0  0  0
 12 37  1  0  0  0  0
 12 38  1  0  0  0  0
 13 39  1  0  0  0  0
 13 40  1  0  0  0  0
 14 41  1  0  0  0  0
 14 42  1  0  0  0  0
 15 43  1  0  0  0  0
 16 44  1  0  0  0  0
 16 45  1  0  0  0  0
 17 46  1  0  0  0  0
 17 47  1  0  0  0  0
 19 48  1  0  0  0  0
 19 49  1  0  0  0  0
 20 50  1  0  0  0  0
M  CHG  1  20   1
M  END
> <creator>
Stuart Ward, Charles River Laboratories

> <fragments>
x0195

> <real_space>
FALSE

> <SCR>
FALSE

> <BB>
FALSE

> <link>
https://covid.postera.ai/covid/submissions/83dacf15-6974-470a-8334-6f6bdedd7e83

> <covalent_frag>
TRUE

> <covalent_warhead>
TRUE

> <acrylamide>
FALSE

> <acrylamide_adduct>
FALSE

> <chloroacetamide>
TRUE

> <chloroacetamide_adduct>
FALSE

> <vinylsulfonamide>
FALSE

> <vinylsulfonamide_adduct>
FALSE

> <in_molport_or_mcule>
FALSE

> <in_emolecules>
FALSE

> <Hybrid2>
-6.445353

> <Mpro-x0195_dock>
-6.445353

> <Mpro-x0770_dock>
-0.109378

> <site>
active-noncovalent

> <covalent_distance_min>
3.7106771

> <covalent_distance_mean>
4.6328454

> <covalent_distance_stderr>
0.022984484

$$$$
MAK-UNK-af8-18
  -OEChem-04062011563D

 68 71  0     0  0  0  0  0  0999 V2000
   13.6681   -0.5519   25.2924 C   0  0  0  0  0  0  0  0  0  0  0  0
   12.3468    5.0690   23.6587 C   0  0  0  0  0  0  0  0  0  0  0  0
   12.8756    0.5431   24.9480 C   0  0  0  0  0  0  0  0  0  0  0  0
   13.2403    5.1009   22.5881 C   0  0  0  0  0  0  0  0  0  0  0  0
   12.7633   -1.7932   23.4276 C   0  0  0  0  0  0  0  0  0  0  0  0
   12.8018    2.7654   22.1524 C   0  0  0  0  0  0  0  0  0  0  0  0
    8.7221    3.8534   23.8367 C   0  0  0  0  0  0  0  0  0  0  0  0
    7.4933    2.7319   25.9443 C   0  0  0  0  0  0  0  0  0  0  0  0
   13.6119   -1.7201   24.5321 C   0  0  0  0  0  0  0  0  0  0  0  0
   11.9708   -0.6982   23.0832 C   0  0  0  0  0  0  0  0  0  0  0  0
   11.6808    3.8851   23.9762 C   0  0  0  0  0  0  0  0  0  0  0  0
   13.4678    3.9492   21.8349 C   0  0  0  0  0  0  0  0  0  0  0  0
   12.0270    0.4699   23.8435 C   0  0  0  0  0  0  0  0  0  0  0  0
   11.9083    2.7334   23.2230 C   0  0  0  0  0  0  0  0  0  0  0  0
    9.3923    3.5565   25.0059 C   0  0  0  0  0  0  0  0  0  0  0  0
    7.3792    3.5362   23.8213 C   0  0  0  0  0  0  0  0  0  0  0  0
    6.2223   -3.3485   22.7445 C   0  0  0  0  0  0  0  0  0  0  0  0
    7.9742   -1.8832   23.8631 C   0  0  0  0  0  0  0  0  0  0  0  0
    7.3289   -1.5092   21.5141 C   0  0  0  0  0  0  0  0  0  0  0  0
    9.4480   -1.8368   23.4830 C   0  0  0  0  0  0  0  0  0  0  0  0
    8.7920   -1.4588   21.0989 C   0  0  0  0  0  0  0  0  0  0  0  0
   14.4605   -2.8899   24.9000 C   0  0  0  0  0  0  0  0  0  0  0  0
   11.2845    4.4691   26.3063 C   0  0  0  0  0  0  0  0  0  0  0  0
   11.0647   -0.7938   21.8913 C   0  0  0  0  0  0  0  0  0  0  0  0
    6.0588   -4.0850   24.0501 C   0  0  0  0  0  0  0  0  0  0  0  0
    8.8070    2.9935   26.0832 N   0  0  0  0  0  0  0  0  0  0  0  0
    6.7301    2.9724   24.8611 N   0  0  0  0  0  0  0  0  0  0  0  0
    7.1533   -2.3109   22.7252 N   0  0  0  0  0  0  0  0  0  0  0  0
    4.8526    3.2395   23.0257 N   0  0  0  0  0  0  0  0  0  0  0  0
   10.7792    3.8676   25.0627 N   0  0  0  0  0  0  0  0  0  0  0  0
    9.6179   -0.9591   22.2631 N   0  3  0  0  0  0  0  0  0  0  0  0
    5.5440   -3.6881   21.7716 O   0  0  0  0  0  0  0  0  0  0  0  0
    6.2413    5.2661   22.2447 O   0  0  0  0  0  0  0  0  0  0  0  0
    6.7889    2.9767   21.3469 O   0  0  0  0  0  0  0  0  0  0  0  0
   14.3392    3.9796   20.7896 O   0  0  0  0  0  0  0  0  0  0  0  0
   11.2586    1.5485   23.5224 O   0  0  0  0  0  0  0  0  0  0  0  0
    6.3536    3.8257   22.4514 S   0  0  0  0  0  0  0  0  0  0  0  0
    4.8105   -5.2984   23.7910 Cl  0  0  0  0  0  0  0  0  0  0  0  0
   14.3270   -0.4862   26.1542 H   0  0  0  0  0  0  0  0  0  0  0  0
   12.1779    5.9727   24.2388 H   0  0  0  0  0  0  0  0  0  0  0  0
   12.9260    1.4505   25.5438 H   0  0  0  0  0  0  0  0  0  0  0  0
   13.7569    6.0258   22.3462 H   0  0  0  0  0  0  0  0  0  0  0  0
   12.7205   -2.7043   22.8353 H   0  0  0  0  0  0  0  0  0  0  0  0
   12.9806    1.8679   21.5654 H   0  0  0  0  0  0  0  0  0  0  0  0
    9.2127    4.3050   22.9829 H   0  0  0  0  0  0  0  0  0  0  0  0
    6.9979    2.2796   26.7947 H   0  0  0  0  0  0  0  0  0  0  0  0
    7.8366   -2.5559   24.7139 H   0  0  0  0  0  0  0  0  0  0  0  0
    7.6202   -0.8923   24.1687 H   0  0  0  0  0  0  0  0  0  0  0  0
    6.9559   -0.5001   21.7336 H   0  0  0  0  0  0  0  0  0  0  0  0
    6.7346   -1.8919   20.6809 H   0  0  0  0  0  0  0  0  0  0  0  0
   10.0410   -1.3930   24.2897 H   0  0  0  0  0  0  0  0  0  0  0  0
    9.8410   -2.8309   23.2403 H   0  0  0  0  0  0  0  0  0  0  0  0
    9.1728   -2.4459   20.8152 H   0  0  0  0  0  0  0  0  0  0  0  0
    8.9349   -0.7557   20.2724 H   0  0  0  0  0  0  0  0  0  0  0  0
   13.9252   -3.5460   25.5973 H   0  0  0  0  0  0  0  0  0  0  0  0
   14.7372   -3.4760   24.0139 H   0  0  0  0  0  0  0  0  0  0  0  0
   15.3976   -2.5693   25.3737 H   0  0  0  0  0  0  0  0  0  0  0  0
   11.0379    5.5410   26.3224 H   0  0  0  0  0  0  0  0  0  0  0  0
   10.8175    3.9726   27.1697 H   0  0  0  0  0  0  0  0  0  0  0  0
   12.3761    4.3433   26.3572 H   0  0  0  0  0  0  0  0  0  0  0  0
   11.1292    0.1070   21.2716 H   0  0  0  0  0  0  0  0  0  0  0  0
   11.3277   -1.6511   21.2622 H   0  0  0  0  0  0  0  0  0  0  0  0
    5.7424   -3.3825   24.8126 H   0  0  0  0  0  0  0  0  0  0  0  0
    6.9974   -4.5645   24.3030 H   0  0  0  0  0  0  0  0  0  0  0  0
    4.1189    3.9237   23.2468 H   0  0  0  0  0  0  0  0  0  0  0  0
    4.4953    2.3595   22.6343 H   0  0  0  0  0  0  0  0  0  0  0  0
    9.2694   -0.0218   22.5069 H   0  0  0  0  0  0  0  0  0  0  0  0
   14.7200    4.8672   20.6950 H   0  0  0  0  0  0  0  0  0  0  0  0
  1  3  2  0  0  0  0
  1  9  1  0  0  0  0
  2  4  2  0  0  0  0
  2 11  1  0  0  0  0
  3 13  1  0  0  0  0
  4 12  1  0  0  0  0
  5  9  2  0  0  0  0
  5 10  1  0  0  0  0
  6 12  2  0  0  0  0
  6 14  1  0  0  0  0
  7 15  1  0  0  0  0
  7 16  2  0  0  0  0
  8 26  1  0  0  0  0
  8 27  2  0  0  0  0
  9 22  1  0  0  0  0
 10 13  2  0  0  0  0
 10 24  1  0  0  0  0
 11 14  2  0  0  0  0
 11 30  1  0  0  0  0
 12 35  1  0  0  0  0
 13 36  1  0  0  0  0
 14 36  1  0  0  0  0
 15 26  2  0  0  0  0
 15 30  1  0  0  0  0
 16 27  1  0  0  0  0
 16 37  1  0  0  0  0
 17 25  1  0  0  0  0
 17 28  1  0  0  0  0
 17 32  2  0  0  0  0
 18 20  1  0  0  0  0
 18 28  1  0  0  0  0
 19 21  1  0  0  0  0
 19 28  1  0  0  0  0
 20 31  1  0  0  0  0
 21 31  1  0  0  0  0
 23 30  1  0  0  0  0
 24 31  1  0  0  0  0
 25 38  1  0  0  0  0
 29 37  1  0  0  0  0
 33 37  2  0  0  0  0
 34 37  2  0  0  0  0
  1 39  1  0  0  0  0
  2 40  1  0  0  0  0
  3 41  1  0  0  0  0
  4 42  1  0  0  0  0
  5 43  1  0  0  0  0
  6 44  1  0  0  0  0
  7 45  1  0  0  0  0
  8 46  1  0  0  0  0
 18 47  1  0  0  0  0
 18 48  1  0  0  0  0
 19 49  1  0  0  0  0
 19 50  1  0  0  0  0
 20 51  1  0  0  0  0
 20 52  1  0  0  0  0
 21 53  1  0  0  0  0
 21 54  1  0  0  0  0
 22 55  1  0  0  0  0
 22 56  1  0  0  0  0
 22 57  1  0  0  0  0
 23 58  1  0  0  0  0
 23 59  1  0  0  0  0
 23 60  1  0  0  0  0
 24 61  1  0  0  0  0
 24 62  1  0  0  0  0
 25 63  1  0  0  0  0
 25 64  1  0  0  0  0
 29 65  1  0  0  0  0
 29 66  1  0  0  0  0
 31 67  1  0  0  0  0
 35 68  1  0  0  0  0
M  CHG  1  31   1
M  END
> <creator>
Maksym Voznyy

> <fragments>
x0161

> <real_space>
FALSE

> <SCR>
FALSE

> <BB>
FALSE

> <link>
https://covid.postera.ai/covid/submissions/af83ef51-35cf-489e-b3bd-9012d86d8275

> <covalent_frag>
TRUE

> <covalent_warhead>
TRUE

> <acrylamide>
FALSE

> <acrylamide_adduct>
FALSE

> <chloroacetamide>
TRUE

> <chloroacetamide_adduct>
FALSE

> <vinylsulfonamide>
FALSE

> <vinylsulfonamide_adduct>
FALSE

> <in_molport_or_mcule>
FALSE

> <in_emolecules>
FALSE

> <Hybrid2>
-6.436746

> <Mpro-x0161_dock>
-6.436746

> <Mpro-x0072_dock>
-6.359819

> <Mpro-x0305_dock>
-3.437421

> <Mpro-x0195_dock>
-3.348452

> <Mpro-x0387_dock>
-3.142067

> <Mpro-x0692_dock>
-2.968627

> <Mpro-x0104_dock>
-1.539489

> <site>
active-noncovalent

> <covalent_distance_min>
3.268205

> <covalent_distance_mean>
5.571593

> <covalent_distance_stderr>
0.2592794

$$$$
DAN-PUR-678-2
  -OEChem-04062011563D

 32 32  0     1  0  0  0  0  0999 V2000
    8.7375   -5.1351   25.3936 C   0  0  0  0  0  0  0  0  0  0  0  0
    7.5127   -3.8443   21.7909 C   0  0  0  0  0  0  0  0  0  0  0  0
    6.2367   -6.9407   22.1498 C   0  0  0  0  0  0  0  0  0  0  0  0
    4.9973   -7.5876   22.7569 C   0  0  0  0  0  0  0  0  0  0  0  0
    5.3770   -5.0279   23.4004 C   0  0  0  0  0  0  0  0  0  0  0  0
    6.6487   -5.8263   23.1160 C   0  0  2  0  0  0  0  0  0  0  0  0
    9.5810   -4.7968   24.1777 C   0  0  0  0  0  0  0  0  0  0  0  0
    8.5966   -2.7946   21.9337 C   0  0  0  0  0  0  0  0  0  0  0  0
    9.0631   -5.4228   22.8902 C   0  0  0  0  0  0  0  0  0  0  0  0
    9.1667   -6.2835   26.0245 N   0  0  0  0  0  0  0  0  0  0  0  0
    7.6946   -5.0004   22.5797 N   0  0  0  0  0  0  0  0  0  0  0  0
    7.7880   -4.4604   25.7807 O   0  0  0  0  0  0  0  0  0  0  0  0
    6.5527   -3.6773   21.0347 O   0  0  0  0  0  0  0  0  0  0  0  0
    3.7921   -6.5522   24.8583 O   0  0  0  0  0  0  0  0  0  0  0  0
    3.0246   -5.8501   22.5441 O   0  0  0  0  0  0  0  0  0  0  0  0
    4.0664   -6.2405   23.4710 S   0  0  0  0  0  0  0  0  0  0  0  0
    8.2146   -1.6694   23.2521 Cl  0  0  0  0  0  0  0  0  0  0  0  0
    7.0419   -7.6794   22.0905 H   0  0  0  0  0  0  0  0  0  0  0  0
    6.0470   -6.5736   21.1397 H   0  0  0  0  0  0  0  0  0  0  0  0
    4.3761   -8.0567   21.9886 H   0  0  0  0  0  0  0  0  0  0  0  0
    5.2440   -8.3165   23.5317 H   0  0  0  0  0  0  0  0  0  0  0  0
    5.4350   -4.5521   24.3829 H   0  0  0  0  0  0  0  0  0  0  0  0
    5.1508   -4.2772   22.6417 H   0  0  0  0  0  0  0  0  0  0  0  0
    7.0447   -6.2515   24.0547 H   0  0  0  0  0  0  0  0  0  0  0  0
   10.6135   -5.1138   24.3683 H   0  0  0  0  0  0  0  0  0  0  0  0
    9.5781   -3.7054   24.0713 H   0  0  0  0  0  0  0  0  0  0  0  0
    9.5514   -3.2689   22.1740 H   0  0  0  0  0  0  0  0  0  0  0  0
    8.6768   -2.2089   21.0144 H   0  0  0  0  0  0  0  0  0  0  0  0
    9.6929   -5.1595   22.0343 H   0  0  0  0  0  0  0  0  0  0  0  0
    9.0452   -6.5132   22.9822 H   0  0  0  0  0  0  0  0  0  0  0  0
    8.6720   -6.6017   26.8511 H   0  0  0  0  0  0  0  0  0  0  0  0
    9.9602   -6.8218   25.6913 H   0  0  0  0  0  0  0  0  0  0  0  0
  1  7  1  0  0  0  0
  1 10  1  0  0  0  0
  1 12  2  0  0  0  0
  2  8  1  0  0  0  0
  2 11  1  0  0  0  0
  2 13  2  0  0  0  0
  3  4  1  0  0  0  0
  3  6  1  0  0  0  0
  4 16  1  0  0  0  0
  5  6  1  0  0  0  0
  5 16  1  0  0  0  0
  6 11  1  0  0  0  0
  7  9  1  0  0  0  0
  8 17  1  0  0  0  0
  9 11  1  0  0  0  0
 14 16  2  0  0  0  0
 15 16  2  0  0  0  0
  3 18  1  0  0  0  0
  3 19  1  0  0  0  0
  4 20  1  0  0  0  0
  4 21  1  0  0  0  0
  5 22  1  0  0  0  0
  5 23  1  0  0  0  0
  6 24  1  0  0  0  0
  7 25  1  0  0  0  0
  7 26  1  0  0  0  0
  8 27  1  0  0  0  0
  8 28  1  0  0  0  0
  9 29  1  0  0  0  0
  9 30  1  0  0  0  0
 10 31  1  0  0  0  0
 10 32  1  0  0  0  0
M  END
> <creator>
Daniel Flaherty, Purdue University

> <fragments>
x1311

> <real_space>
FALSE

> <SCR>
FALSE

> <BB>
FALSE

> <link>
https://covid.postera.ai/covid/submissions/6788a628-93c6-44af-8b51-b89c911ee181

> <covalent_frag>
TRUE

> <covalent_warhead>
TRUE

> <acrylamide>
FALSE

> <acrylamide_adduct>
FALSE

> <chloroacetamide>
TRUE

> <chloroacetamide_adduct>
FALSE

> <vinylsulfonamide>
FALSE

> <vinylsulfonamide_adduct>
FALSE

> <in_molport_or_mcule>
FALSE

> <in_emolecules>
FALSE

> <Hybrid2>
-6.436077

> <Mpro-x1311_dock>
-6.436077

> <site>
active-covalent

> <covalent_distance_min>
3.4899557

> <covalent_distance_mean>
4.9199867

> <covalent_distance_stderr>
0.16637039

$$$$
AGN-NEW-cce-3
  -OEChem-04062011563D

 42 43  0     0  0  0  0  0  0999 V2000
    5.7383    0.7803   17.7607 C   0  0  0  0  0  0  0  0  0  0  0  0
   12.7944   -0.5602   22.2847 C   0  0  0  0  0  0  0  0  0  0  0  0
   13.1812    0.3216   23.2938 C   0  0  0  0  0  0  0  0  0  0  0  0
    6.5629    0.2944   18.7693 C   0  0  0  0  0  0  0  0  0  0  0  0
    4.6673    1.5793   18.1271 C   0  0  0  0  0  0  0  0  0  0  0  0
   11.4403   -0.7837   22.0349 C   0  0  0  0  0  0  0  0  0  0  0  0
   12.2140    0.9800   24.0532 C   0  0  0  0  0  0  0  0  0  0  0  0
   10.4731   -0.1253   22.7944 C   0  0  0  0  0  0  0  0  0  0  0  0
    6.2950    0.6177   20.0948 C   0  0  0  0  0  0  0  0  0  0  0  0
   10.8599    0.7565   23.8035 C   0  0  0  0  0  0  0  0  0  0  0  0
    5.1991    1.4242   20.3567 C   0  0  0  0  0  0  0  0  0  0  0  0
    8.2000    4.3653   25.8597 C   0  0  0  0  0  0  0  0  0  0  0  0
    8.5500    3.1001   25.6074 C   0  0  0  0  0  0  0  0  0  0  0  0
    9.6914    2.7957   24.6963 C   0  0  0  0  0  0  0  0  0  0  0  0
    8.5000    0.3457   21.2817 C   0  0  0  0  0  0  0  0  0  0  0  0
   11.0541   -1.7333   20.9485 C   0  0  0  0  0  0  0  0  0  0  0  0
   12.6599    1.9184   25.1277 C   0  0  0  0  0  0  0  0  0  0  0  0
    9.0220   -0.3710   22.5217 C   0  0  0  0  0  0  0  0  0  0  0  0
    4.3754    1.9150   19.4037 N   0  0  0  0  0  0  0  0  0  0  0  0
    9.8911    1.4170   24.5675 N   0  0  0  0  0  0  0  0  0  0  0  0
    7.1347    0.1235   21.1212 N   0  0  0  0  0  0  0  0  0  0  0  0
   10.3328    3.6917   24.1603 O   0  0  0  0  0  0  0  0  0  0  0  0
    9.2340    1.0128   20.5596 O   0  0  0  0  0  0  0  0  0  0  0  0
    4.7600    1.8967   21.9529 Cl  0  0  0  0  0  0  0  0  0  0  0  0
    5.9275    0.5407   16.7206 H   0  0  0  0  0  0  0  0  0  0  0  0
   13.5560   -1.0667   21.6978 H   0  0  0  0  0  0  0  0  0  0  0  0
   14.2384    0.4901   23.4808 H   0  0  0  0  0  0  0  0  0  0  0  0
    7.4103   -0.3350   18.5101 H   0  0  0  0  0  0  0  0  0  0  0  0
    3.9937    1.9827   17.3783 H   0  0  0  0  0  0  0  0  0  0  0  0
    7.3768    4.6247   26.5159 H   0  0  0  0  0  0  0  0  0  0  0  0
    8.7476    5.1814   25.3999 H   0  0  0  0  0  0  0  0  0  0  0  0
    8.0034    2.2837   26.0668 H   0  0  0  0  0  0  0  0  0  0  0  0
   10.9590   -2.7493   21.3485 H   0  0  0  0  0  0  0  0  0  0  0  0
   10.0987   -1.4461   20.4925 H   0  0  0  0  0  0  0  0  0  0  0  0
   11.8015   -1.7418   20.1457 H   0  0  0  0  0  0  0  0  0  0  0  0
   12.7699    2.9312   24.7243 H   0  0  0  0  0  0  0  0  0  0  0  0
   11.9381    1.9462   25.9528 H   0  0  0  0  0  0  0  0  0  0  0  0
   13.6206    1.6041   25.5532 H   0  0  0  0  0  0  0  0  0  0  0  0
    8.8379   -1.4493   22.3996 H   0  0  0  0  0  0  0  0  0  0  0  0
    8.4178   -0.0532   23.3850 H   0  0  0  0  0  0  0  0  0  0  0  0
    9.2497    0.8176   25.0973 H   0  0  0  0  0  0  0  0  0  0  0  0
    6.6887   -0.4626   21.8239 H   0  0  0  0  0  0  0  0  0  0  0  0
  1  4  2  0  0  0  0
  1  5  1  0  0  0  0
  2  3  1  0  0  0  0
  2  6  2  0  0  0  0
  3  7  2  0  0  0  0
  4  9  1  0  0  0  0
  5 19  2  0  0  0  0
  6  8  1  0  0  0  0
  6 16  1  0  0  0  0
  7 10  1  0  0  0  0
  7 17  1  0  0  0  0
  8 10  2  0  0  0  0
  8 18  1  0  0  0  0
  9 11  2  0  0  0  0
  9 21  1  0  0  0  0
 10 20  1  0  0  0  0
 11 19  1  0  0  0  0
 11 24  1  0  0  0  0
 12 13  2  0  0  0  0
 13 14  1  0  0  0  0
 14 20  1  0  0  0  0
 14 22  2  0  0  0  0
 15 18  1  0  0  0  0
 15 21  1  0  0  0  0
 15 23  2  0  0  0  0
  1 25  1  0  0  0  0
  2 26  1  0  0  0  0
  3 27  1  0  0  0  0
  4 28  1  0  0  0  0
  5 29  1  0  0  0  0
 12 30  1  0  0  0  0
 12 31  1  0  0  0  0
 13 32  1  0  0  0  0
 16 33  1  0  0  0  0
 16 34  1  0  0  0  0
 16 35  1  0  0  0  0
 17 36  1  0  0  0  0
 17 37  1  0  0  0  0
 17 38  1  0  0  0  0
 18 39  1  0  0  0  0
 18 40  1  0  0  0  0
 20 41  1  0  0  0  0
 21 42  1  0  0  0  0
M  END
> <creator>
Agnieszka K. Bronowska, Newcastle University

> <fragments>
x0434

> <real_space>
FALSE

> <SCR>
FALSE

> <BB>
FALSE

> <link>
https://covid.postera.ai/covid/submissions/cce853d0-9767-46b3-a896-595a9bb2325f

> <covalent_frag>
FALSE

> <covalent_warhead>
TRUE

> <acrylamide>
TRUE

> <acrylamide_adduct>
FALSE

> <chloroacetamide>
FALSE

> <chloroacetamide_adduct>
FALSE

> <vinylsulfonamide>
FALSE

> <vinylsulfonamide_adduct>
FALSE

> <in_molport_or_mcule>
FALSE

> <in_emolecules>
FALSE

> <Hybrid2>
-6.422377

> <Mpro-x0434_dock>
-6.422377

> <site>
active-noncovalent

> <covalent_distance_min>
9.460184

> <covalent_distance_mean>
10.816891

> <covalent_distance_stderr>
0.08014758

$$$$
TAM-UNI-d1c-14
  -OEChem-04062011563D

 46 48  0     0  0  0  0  0  0999 V2000
    9.1671   -3.7384   25.7456 C   0  0  0  0  0  0  0  0  0  0  0  0
    7.7910   -3.5470   25.8639 C   0  0  0  0  0  0  0  0  0  0  0  0
    9.7825   -3.6169   24.5026 C   0  0  0  0  0  0  0  0  0  0  0  0
    7.0203   -3.2282   24.7376 C   0  0  0  0  0  0  0  0  0  0  0  0
    7.6407   -3.0992   23.4842 C   0  0  0  0  0  0  0  0  0  0  0  0
    9.0238   -3.2988   23.3763 C   0  0  0  0  0  0  0  0  0  0  0  0
    5.8620   -3.7914   21.8122 C   0  0  0  0  0  0  0  0  0  0  0  0
   12.5161    1.3356   23.7338 C   0  0  0  0  0  0  0  0  0  0  0  0
    6.8248   -2.7272   22.2789 C   0  0  0  0  0  0  0  0  0  0  0  0
    5.5277   -3.0641   24.8475 C   0  0  0  0  0  0  0  0  0  0  0  0
    4.8088   -4.2021   24.1378 C   0  0  0  0  0  0  0  0  0  0  0  0
   12.7020   -0.7580   22.4287 C   0  0  0  0  0  0  0  0  0  0  0  0
   10.6172    0.5423   22.2395 C   0  0  0  0  0  0  0  0  0  0  0  0
   11.9085   -2.0350   22.6637 C   0  0  0  0  0  0  0  0  0  0  0  0
    9.7917   -0.7163   22.4700 C   0  0  0  0  0  0  0  0  0  0  0  0
    9.7680   -3.1834   22.0854 C   0  0  0  0  0  0  0  0  0  0  0  0
   11.6659    2.5180   24.1245 C   0  0  0  0  0  0  0  0  0  0  0  0
    4.9242   -4.2882   22.6836 N   0  0  0  0  0  0  0  0  0  0  0  0
   11.9433    0.4182   22.8541 N   0  0  0  0  0  0  0  0  0  0  0  0
   10.5677   -1.9160   21.9742 N   0  3  0  0  0  0  0  0  0  0  0  0
    5.8744   -4.1450   20.6280 O   0  0  0  0  0  0  0  0  0  0  0  0
   13.6537    1.2309   24.1995 O   0  0  0  0  0  0  0  0  0  0  0  0
   10.7431    2.0288   25.5412 Cl  0  0  0  0  0  0  0  0  0  0  0  0
    9.7602   -3.9821   26.6235 H   0  0  0  0  0  0  0  0  0  0  0  0
    7.3320   -3.6497   26.8374 H   0  0  0  0  0  0  0  0  0  0  0  0
   10.8566   -3.7711   24.4247 H   0  0  0  0  0  0  0  0  0  0  0  0
    6.2856   -1.7871   22.4743 H   0  0  0  0  0  0  0  0  0  0  0  0
    7.4505   -2.4981   21.4025 H   0  0  0  0  0  0  0  0  0  0  0  0
    5.2549   -3.0621   25.8768 H   0  0  0  0  0  0  0  0  0  0  0  0
    5.2472   -2.1552   24.3658 H   0  0  0  0  0  0  0  0  0  0  0  0
    5.1883   -5.1824   24.5302 H   0  0  0  0  0  0  0  0  0  0  0  0
    3.7171   -4.2170   24.4051 H   0  0  0  0  0  0  0  0  0  0  0  0
   13.6565   -0.8177   22.9610 H   0  0  0  0  0  0  0  0  0  0  0  0
   12.9317   -0.6342   21.3634 H   0  0  0  0  0  0  0  0  0  0  0  0
   10.7706    0.7118   21.1669 H   0  0  0  0  0  0  0  0  0  0  0  0
   10.0693    1.4043   22.6238 H   0  0  0  0  0  0  0  0  0  0  0  0
   12.4244   -2.8965   22.2276 H   0  0  0  0  0  0  0  0  0  0  0  0
   11.7247   -2.2146   23.7290 H   0  0  0  0  0  0  0  0  0  0  0  0
    9.5707   -0.8735   23.5316 H   0  0  0  0  0  0  0  0  0  0  0  0
    8.8574   -0.6744   21.9008 H   0  0  0  0  0  0  0  0  0  0  0  0
   10.4731   -4.0122   21.9604 H   0  0  0  0  0  0  0  0  0  0  0  0
    9.0812   -3.1980   21.2322 H   0  0  0  0  0  0  0  0  0  0  0  0
   10.9947    2.7539   23.3065 H   0  0  0  0  0  0  0  0  0  0  0  0
   12.3143    3.3507   24.3717 H   0  0  0  0  0  0  0  0  0  0  0  0
    4.1334   -4.8385   22.2164 H   0  0  0  0  0  0  0  0  0  0  0  0
   10.7489   -1.7712   20.9713 H   0  0  0  0  0  0  0  0  0  0  0  0
  1  2  1  0  0  0  0
  1  3  2  0  0  0  0
  2  4  2  0  0  0  0
  3  6  1  0  0  0  0
  4  5  1  0  0  0  0
  4 10  1  0  0  0  0
  5  6  2  0  0  0  0
  5  9  1  0  0  0  0
  6 16  1  0  0  0  0
  7  9  1  0  0  0  0
  7 18  1  0  0  0  0
  7 21  2  0  0  0  0
  8 17  1  0  0  0  0
  8 19  1  0  0  0  0
  8 22  2  0  0  0  0
 10 11  1  0  0  0  0
 11 18  1  0  0  0  0
 12 14  1  0  0  0  0
 12 19  1  0  0  0  0
 13 15  1  0  0  0  0
 13 19  1  0  0  0  0
 14 20  1  0  0  0  0
 15 20  1  0  0  0  0
 16 20  1  0  0  0  0
 17 23  1  0  0  0  0
  1 24  1  0  0  0  0
  2 25  1  0  0  0  0
  3 26  1  0  0  0  0
  9 27  1  0  0  0  0
  9 28  1  0  0  0  0
 10 29  1  0  0  0  0
 10 30  1  0  0  0  0
 11 31  1  0  0  0  0
 11 32  1  0  0  0  0
 12 33  1  0  0  0  0
 12 34  1  0  0  0  0
 13 35  1  0  0  0  0
 13 36  1  0  0  0  0
 14 37  1  0  0  0  0
 14 38  1  0  0  0  0
 15 39  1  0  0  0  0
 15 40  1  0  0  0  0
 16 41  1  0  0  0  0
 16 42  1  0  0  0  0
 17 43  1  0  0  0  0
 17 44  1  0  0  0  0
 18 45  1  0  0  0  0
 20 46  1  0  0  0  0
M  CHG  1  20   1
M  END
> <creator>
Tamas Szommer, University of Oxford, TDI

> <fragments>
x1392

> <real_space>
FALSE

> <SCR>
FALSE

> <BB>
FALSE

> <link>
https://covid.postera.ai/covid/submissions/d1c3dd9f-771c-474e-9133-8c7e4ace8b98

> <covalent_frag>
TRUE

> <covalent_warhead>
TRUE

> <acrylamide>
FALSE

> <acrylamide_adduct>
FALSE

> <chloroacetamide>
TRUE

> <chloroacetamide_adduct>
FALSE

> <vinylsulfonamide>
FALSE

> <vinylsulfonamide_adduct>
FALSE

> <in_molport_or_mcule>
FALSE

> <in_emolecules>
FALSE

> <Hybrid2>
-6.384351

> <Mpro-x1392_dock>
-6.384351

> <Mpro-x0692_dock>
-5.961136

> <Mpro-x1386_dock>
-4.084575

> <Mpro-x1382_dock>
-1.130702

> <site>
active-covalent

> <covalent_distance_min>
7.722211

> <covalent_distance_mean>
8.672867

> <covalent_distance_stderr>
0.048774578

$$$$
DAN-LON-a5f-8
  -OEChem-04062011563D

 36 38  0     1  0  0  0  0  0999 V2000
   11.4672    0.0182   25.1723 C   0  0  0  0  0  0  0  0  0  0  0  0
   10.8021   -1.1002   24.6699 C   0  0  0  0  0  0  0  0  0  0  0  0
   12.3994    0.6893   24.3809 C   0  0  0  0  0  0  0  0  0  0  0  0
   12.0016   -0.8766   22.5846 C   0  0  0  0  0  0  0  0  0  0  0  0
   11.0693   -1.5476   23.3760 C   0  0  0  0  0  0  0  0  0  0  0  0
   12.6666    0.2419   23.0871 C   0  0  0  0  0  0  0  0  0  0  0  0
    6.0783   -1.9588   19.5459 C   0  0  0  0  0  0  0  0  0  0  0  0
    7.2728   -1.7838   22.9530 C   0  0  0  0  0  0  0  0  0  0  0  0
    7.8058   -0.6791   20.9219 C   0  0  0  0  0  0  0  0  0  0  0  0
    8.2333   -3.5048   21.6511 C   0  0  0  0  0  0  0  0  0  0  0  0
    6.9312   -2.7105   21.7885 C   0  0  2  0  0  0  0  0  0  0  0  0
    8.4610   -1.1589   22.2243 C   0  0  2  0  0  0  0  0  0  0  0  0
   10.3545   -2.7514   22.8367 C   0  0  0  0  0  0  0  0  0  0  0  0
    6.2206   -0.9078   18.4750 C   0  0  0  0  0  0  0  0  0  0  0  0
    6.8647   -1.7709   20.6622 N   0  0  0  0  0  0  0  0  0  0  0  0
    9.2872   -2.4050   21.8481 N   0  3  1  0  0  0  0  0  0  0  0  0
    5.3057   -2.9060   19.3959 O   0  0  0  0  0  0  0  0  0  0  0  0
   13.8177    1.0695   22.1115 Cl  0  0  0  0  0  0  0  0  0  0  0  0
    5.0103    0.3247   18.8138 Cl  0  0  0  0  0  0  0  0  0  0  0  0
   11.2589    0.3662   26.1800 H   0  0  0  0  0  0  0  0  0  0  0  0
   10.0774   -1.6170   25.2936 H   0  0  0  0  0  0  0  0  0  0  0  0
   12.9104    1.5594   24.7858 H   0  0  0  0  0  0  0  0  0  0  0  0
   12.2060   -1.2291   21.5763 H   0  0  0  0  0  0  0  0  0  0  0  0
    6.4771   -1.0635   23.1722 H   0  0  0  0  0  0  0  0  0  0  0  0
    7.5470   -2.3131   23.8710 H   0  0  0  0  0  0  0  0  0  0  0  0
    7.2345    0.2439   21.0650 H   0  0  0  0  0  0  0  0  0  0  0  0
    8.5033   -0.5545   20.0886 H   0  0  0  0  0  0  0  0  0  0  0  0
    8.3550   -4.2459   22.4476 H   0  0  0  0  0  0  0  0  0  0  0  0
    8.3899   -3.9547   20.6666 H   0  0  0  0  0  0  0  0  0  0  0  0
    6.0334   -3.3221   21.8943 H   0  0  0  0  0  0  0  0  0  0  0  0
    9.0723   -0.4285   22.7574 H   0  0  0  0  0  0  0  0  0  0  0  0
   11.0482   -3.4282   22.3264 H   0  0  0  0  0  0  0  0  0  0  0  0
    9.8683   -3.3155   23.6399 H   0  0  0  0  0  0  0  0  0  0  0  0
    6.0292   -1.3612   17.5089 H   0  0  0  0  0  0  0  0  0  0  0  0
    7.2146   -0.4788   18.5326 H   0  0  0  0  0  0  0  0  0  0  0  0
    9.7515   -2.2301   20.9464 H   0  0  0  0  0  0  0  0  0  0  0  0
  1  2  2  0  0  0  0
  1  3  1  0  0  0  0
  2  5  1  0  0  0  0
  3  6  2  0  0  0  0
  4  5  2  0  0  0  0
  4  6  1  0  0  0  0
  5 13  1  0  0  0  0
  6 18  1  0  0  0  0
  7 14  1  0  0  0  0
  7 15  1  0  0  0  0
  7 17  2  0  0  0  0
  8 11  1  0  0  0  0
  8 12  1  0  0  0  0
  9 12  1  0  0  0  0
  9 15  1  0  0  0  0
 10 11  1  0  0  0  0
 10 16  1  0  0  0  0
 11 15  1  0  0  0  0
 12 16  1  0  0  0  0
 13 16  1  0  0  0  0
 14 19  1  0  0  0  0
  1 20  1  0  0  0  0
  2 21  1  0  0  0  0
  3 22  1  0  0  0  0
  4 23  1  0  0  0  0
  8 24  1  0  0  0  0
  8 25  1  0  0  0  0
  9 26  1  0  0  0  0
  9 27  1  0  0  0  0
 10 28  1  0  0  0  0
 10 29  1  0  0  0  0
 11 30  1  0  0  0  0
 12 31  1  0  0  0  0
 13 32  1  0  0  0  0
 13 33  1  0  0  0  0
 14 34  1  0  0  0  0
 14 35  1  0  0  0  0
 16 36  1  0  0  0  0
M  CHG  1  16   1
M  END
> <creator>
Daniel Zaidman, London Lab, Weizmann Institute of Science

> <fragments>
x0770

> <real_space>
FALSE

> <SCR>
FALSE

> <BB>
FALSE

> <link>
https://covid.postera.ai/covid/submissions/a5fc619e-a7a0-43cf-a105-697cf3dc31cf

> <covalent_frag>
TRUE

> <covalent_warhead>
TRUE

> <acrylamide>
FALSE

> <acrylamide_adduct>
FALSE

> <chloroacetamide>
TRUE

> <chloroacetamide_adduct>
FALSE

> <vinylsulfonamide>
FALSE

> <vinylsulfonamide_adduct>
FALSE

> <in_molport_or_mcule>
FALSE

> <in_emolecules>
FALSE

> <Hybrid2>
-6.342978

> <Mpro-x0770_dock>
-6.342978

> <site>
active-covalent

> <covalent_distance_min>
3.0025058

> <covalent_distance_mean>
3.433482

> <covalent_distance_stderr>
0.019161412

$$$$
DAV-CRI-eab-1
  -OEChem-04062011563D

 33 34  0     1  0  0  0  0  0999 V2000
    7.9883   -3.4145   23.5628 C   0  0  0  0  0  0  0  0  0  0  0  0
   10.3361   -2.8597   23.5945 C   0  0  0  0  0  0  0  0  0  0  0  0
    7.7670   -2.4862   22.5339 C   0  0  0  0  0  0  0  0  0  0  0  0
    8.8478   -1.7384   22.0340 C   0  0  0  0  0  0  0  0  0  0  0  0
   10.1289   -1.9340   22.5725 C   0  0  0  0  0  0  0  0  0  0  0  0
    9.2661   -3.5995   24.0897 C   0  0  0  0  0  0  0  0  0  0  0  0
    6.2350   -1.3032   20.8965 C   0  0  0  0  0  0  0  0  0  0  0  0
    7.2638   -0.5912   20.4209 C   0  0  0  0  0  0  0  0  0  0  0  0
   11.6293    0.2200   24.1067 C   0  0  0  0  0  0  0  0  0  0  0  0
    6.3691   -2.3158   21.9911 C   0  0  0  0  0  0  0  0  0  0  0  0
    8.6655   -0.7267   20.9291 C   0  0  0  0  0  0  0  0  0  0  0  0
   12.6264   -1.9405   22.1790 C   0  0  0  0  0  0  0  0  0  0  0  0
   11.7577    1.6471   24.5750 C   0  0  0  0  0  0  0  0  0  0  0  0
   11.3092   -1.1613   22.0740 C   0  0  2  0  0  0  0  0  0  0  0  0
   11.4393    0.1204   22.7426 N   0  0  0  0  0  0  0  0  0  0  0  0
   11.7077   -0.7280   24.8860 O   0  0  0  0  0  0  0  0  0  0  0  0
    9.5187   -4.7427   25.3510 Cl  0  0  0  0  0  0  0  0  0  0  0  0
   12.4711    2.5904   23.2574 Cl  0  0  0  0  0  0  0  0  0  0  0  0
    7.1508   -3.9922   23.9490 H   0  0  0  0  0  0  0  0  0  0  0  0
   11.3346   -3.0003   24.0029 H   0  0  0  0  0  0  0  0  0  0  0  0
    5.2451   -1.1480   20.4771 H   0  0  0  0  0  0  0  0  0  0  0  0
    7.0869    0.1259   19.6243 H   0  0  0  0  0  0  0  0  0  0  0  0
    6.0216   -3.2829   21.6077 H   0  0  0  0  0  0  0  0  0  0  0  0
    5.7068   -2.0208   22.8142 H   0  0  0  0  0  0  0  0  0  0  0  0
    8.9879    0.2574   21.2909 H   0  0  0  0  0  0  0  0  0  0  0  0
    9.3034   -1.0070   20.0819 H   0  0  0  0  0  0  0  0  0  0  0  0
   12.8268   -2.2266   23.2173 H   0  0  0  0  0  0  0  0  0  0  0  0
   12.5934   -2.8545   21.5755 H   0  0  0  0  0  0  0  0  0  0  0  0
   13.4769   -1.3493   21.8213 H   0  0  0  0  0  0  0  0  0  0  0  0
   10.7948    2.0899   24.8413 H   0  0  0  0  0  0  0  0  0  0  0  0
   12.4210    1.6861   25.4434 H   0  0  0  0  0  0  0  0  0  0  0  0
   11.1709   -0.9068   21.0100 H   0  0  0  0  0  0  0  0  0  0  0  0
   11.3891    0.9679   22.1916 H   0  0  0  0  0  0  0  0  0  0  0  0
  1  3  2  0  0  0  0
  1  6  1  0  0  0  0
  2  5  1  0  0  0  0
  2  6  2  0  0  0  0
  3  4  1  0  0  0  0
  3 10  1  0  0  0  0
  4  5  2  0  0  0  0
  4 11  1  0  0  0  0
  5 14  1  0  0  0  0
  6 17  1  0  0  0  0
  7  8  2  0  0  0  0
  7 10  1  0  0  0  0
  8 11  1  0  0  0  0
  9 13  1  0  0  0  0
  9 15  1  0  0  0  0
  9 16  2  0  0  0  0
 12 14  1  0  0  0  0
 13 18  1  0  0  0  0
 14 15  1  0  0  0  0
  1 19  1  0  0  0  0
  2 20  1  0  0  0  0
  7 21  1  0  0  0  0
  8 22  1  0  0  0  0
 10 23  1  0  0  0  0
 10 24  1  0  0  0  0
 11 25  1  0  0  0  0
 11 26  1  0  0  0  0
 12 27  1  0  0  0  0
 12 28  1  0  0  0  0
 12 29  1  0  0  0  0
 13 30  1  0  0  0  0
 13 31  1  0  0  0  0
 14 32  1  0  0  0  0
 15 33  1  0  0  0  0
M  END
> <creator>
David Briggs, Crick Institute

> <fragments>
x0831

> <real_space>
FALSE

> <SCR>
FALSE

> <BB>
FALSE

> <link>
https://covid.postera.ai/covid/submissions/eab5efcb-b199-4c70-afb4-8b9adb33206d

> <covalent_frag>
TRUE

> <covalent_warhead>
TRUE

> <acrylamide>
FALSE

> <acrylamide_adduct>
FALSE

> <chloroacetamide>
TRUE

> <chloroacetamide_adduct>
FALSE

> <vinylsulfonamide>
FALSE

> <vinylsulfonamide_adduct>
FALSE

> <in_molport_or_mcule>
FALSE

> <in_emolecules>
FALSE

> <Hybrid2>
-6.332597

> <Mpro-x0831_dock>
-6.332597

> <Mpro-x1382_dock>
-4.144687

> <site>
active-covalent

> <covalent_distance_min>
7.3260264

> <covalent_distance_mean>
8.175601

> <covalent_distance_stderr>
0.06106454

$$$$
MAK-UNK-af8-15
  -OEChem-04062011563D

 63 64  0     1  0  0  0  0  0999 V2000
   13.0130    5.8722   23.5860 C   0  0  0  0  0  0  0  0  0  0  0  0
   11.9008    6.4038   24.2385 C   0  0  0  0  0  0  0  0  0  0  0  0
   12.9103    4.6559   22.9109 C   0  0  0  0  0  0  0  0  0  0  0  0
   10.6858    5.7191   24.2161 C   0  0  0  0  0  0  0  0  0  0  0  0
   11.6953    3.9711   22.8885 C   0  0  0  0  0  0  0  0  0  0  0  0
   10.5830    4.5027   23.5411 C   0  0  0  0  0  0  0  0  0  0  0  0
   12.6655   -2.4530   23.9983 C   0  0  0  0  0  0  0  0  0  0  0  0
    7.4837    2.3420   20.8508 C   0  0  0  0  0  0  0  0  0  0  0  0
   12.8285    0.0073   24.6210 C   0  0  0  0  0  0  0  0  0  0  0  0
   10.8604   -0.8630   23.4197 C   0  0  0  0  0  0  0  0  0  0  0  0
   12.9481    1.1551   23.6276 C   0  0  0  0  0  0  0  0  0  0  0  0
   10.9515    0.2701   22.4080 C   0  0  0  0  0  0  0  0  0  0  0  0
    9.5097    6.3102   24.9226 C   0  0  0  0  0  0  0  0  0  0  0  0
    6.6389    5.7896   21.4006 C   0  0  0  0  0  0  0  0  0  0  0  0
    9.2802    3.7685   23.5172 C   0  0  0  0  0  0  0  0  0  0  0  0
   11.6115    2.6650   22.1550 C   0  0  0  0  0  0  0  0  0  0  0  0
   14.1658   -2.6043   24.0062 C   0  0  0  0  0  0  0  0  0  0  0  0
    6.4543    1.2390   20.8426 C   0  0  0  0  0  0  0  0  0  0  0  0
    8.3606    4.1391   22.3301 C   0  0  2  0  0  0  0  0  0  0  0  0
    7.5675    5.4420   22.5603 C   0  0  2  0  0  0  0  0  0  0  0  0
   12.1693   -1.1502   24.0068 N   0  0  0  0  0  0  0  0  0  0  0  0
    5.2122   -0.7921   19.6666 N   0  0  0  0  0  0  0  0  0  0  0  0
    7.4689    3.0313   22.0524 N   0  0  0  0  0  0  0  0  0  0  0  0
   11.5781    1.4754   23.0728 N   0  3  0  0  0  0  0  0  0  0  0  0
   11.9578   -3.4633   23.9825 O   0  0  0  0  0  0  0  0  0  0  0  0
    8.2313    2.5801   19.9065 O   0  0  0  0  0  0  0  0  0  0  0  0
    6.0087    1.2145   18.2681 O   0  0  0  0  0  0  0  0  0  0  0  0
    7.7139   -0.3842   19.2282 O   0  0  0  0  0  0  0  0  0  0  0  0
    6.7999    5.3363   23.7571 O   0  0  0  0  0  0  0  0  0  0  0  0
    6.4523    0.3310   19.3345 S   0  0  0  0  0  0  0  0  0  0  0  0
   14.6602   -2.6336   25.6952 Cl  0  0  0  0  0  0  0  0  0  0  0  0
   13.9595    6.4051   23.6041 H   0  0  0  0  0  0  0  0  0  0  0  0
   11.9913    7.3524   24.7612 H   0  0  0  0  0  0  0  0  0  0  0  0
   13.7826    4.2507   22.4052 H   0  0  0  0  0  0  0  0  0  0  0  0
   13.8218   -0.2634   24.9890 H   0  0  0  0  0  0  0  0  0  0  0  0
   12.2281    0.3046   25.4880 H   0  0  0  0  0  0  0  0  0  0  0  0
   10.1860   -0.5914   24.2424 H   0  0  0  0  0  0  0  0  0  0  0  0
   10.4289   -1.7412   22.9336 H   0  0  0  0  0  0  0  0  0  0  0  0
   13.3188    2.0583   24.1239 H   0  0  0  0  0  0  0  0  0  0  0  0
   13.6023    0.9025   22.7851 H   0  0  0  0  0  0  0  0  0  0  0  0
   11.5707    0.0018   21.5452 H   0  0  0  0  0  0  0  0  0  0  0  0
    9.9539    0.5667   22.0694 H   0  0  0  0  0  0  0  0  0  0  0  0
    8.9457    6.9593   24.2430 H   0  0  0  0  0  0  0  0  0  0  0  0
    8.8384    5.5279   25.2970 H   0  0  0  0  0  0  0  0  0  0  0  0
    9.8257    6.9023   25.7903 H   0  0  0  0  0  0  0  0  0  0  0  0
    5.9109    4.9928   21.2156 H   0  0  0  0  0  0  0  0  0  0  0  0
    6.0573    6.6871   21.6389 H   0  0  0  0  0  0  0  0  0  0  0  0
    7.2030    5.9780   20.4822 H   0  0  0  0  0  0  0  0  0  0  0  0
    9.4916    2.6863   23.4817 H   0  0  0  0  0  0  0  0  0  0  0  0
    8.7362    3.9074   24.4661 H   0  0  0  0  0  0  0  0  0  0  0  0
   10.7064    2.6135   21.5403 H   0  0  0  0  0  0  0  0  0  0  0  0
   12.4730    2.5273   21.4927 H   0  0  0  0  0  0  0  0  0  0  0  0
   14.6077   -1.7515   23.5038 H   0  0  0  0  0  0  0  0  0  0  0  0
   14.4271   -3.5400   23.5254 H   0  0  0  0  0  0  0  0  0  0  0  0
    6.6615    0.5307   21.6492 H   0  0  0  0  0  0  0  0  0  0  0  0
    5.4535    1.6609   20.9695 H   0  0  0  0  0  0  0  0  0  0  0  0
    8.9720    4.2569   21.4269 H   0  0  0  0  0  0  0  0  0  0  0  0
    8.2689    6.2729   22.6956 H   0  0  0  0  0  0  0  0  0  0  0  0
    4.3219   -0.6825   19.1656 H   0  0  0  0  0  0  0  0  0  0  0  0
    5.4833   -1.7712   19.8197 H   0  0  0  0  0  0  0  0  0  0  0  0
    6.8071    2.7491   22.7667 H   0  0  0  0  0  0  0  0  0  0  0  0
   10.9771    1.7351   23.8670 H   0  0  0  0  0  0  0  0  0  0  0  0
    6.1505    4.6321   23.6068 H   0  0  0  0  0  0  0  0  0  0  0  0
  1  2  2  0  0  0  0
  1  3  1  0  0  0  0
  2  4  1  0  0  0  0
  3  5  2  0  0  0  0
  4  6  2  0  0  0  0
  4 13  1  0  0  0  0
  5  6  1  0  0  0  0
  5 16  1  0  0  0  0
  6 15  1  0  0  0  0
  7 17  1  0  0  0  0
  7 21  1  0  0  0  0
  7 25  2  0  0  0  0
  8 18  1  0  0  0  0
  8 23  1  0  0  0  0
  8 26  2  0  0  0  0
  9 11  1  0  0  0  0
  9 21  1  0  0  0  0
 10 12  1  0  0  0  0
 10 21  1  0  0  0  0
 11 24  1  0  0  0  0
 12 24  1  0  0  0  0
 14 20  1  0  0  0  0
 15 19  1  0  0  0  0
 16 24  1  0  0  0  0
 17 31  1  0  0  0  0
 18 30  1  0  0  0  0
 19 20  1  0  0  0  0
 19 23  1  0  0  0  0
 20 29  1  0  0  0  0
 22 30  1  0  0  0  0
 27 30  2  0  0  0  0
 28 30  2  0  0  0  0
  1 32  1  0  0  0  0
  2 33  1  0  0  0  0
  3 34  1  0  0  0  0
  9 35  1  0  0  0  0
  9 36  1  0  0  0  0
 10 37  1  0  0  0  0
 10 38  1  0  0  0  0
 11 39  1  0  0  0  0
 11 40  1  0  0  0  0
 12 41  1  0  0  0  0
 12 42  1  0  0  0  0
 13 43  1  0  0  0  0
 13 44  1  0  0  0  0
 13 45  1  0  0  0  0
 14 46  1  0  0  0  0
 14 47  1  0  0  0  0
 14 48  1  0  0  0  0
 15 49  1  0  0  0  0
 15 50  1  0  0  0  0
 16 51  1  0  0  0  0
 16 52  1  0  0  0  0
 17 53  1  0  0  0  0
 17 54  1  0  0  0  0
 18 55  1  0  0  0  0
 18 56  1  0  0  0  0
 19 57  1  0  0  0  0
 20 58  1  0  0  0  0
 22 59  1  0  0  0  0
 22 60  1  0  0  0  0
 23 61  1  0  0  0  0
 24 62  1  0  0  0  0
 29 63  1  0  0  0  0
M  CHG  1  24   1
M  END
> <creator>
Maksym Voznyy

> <fragments>
x0161

> <real_space>
FALSE

> <SCR>
FALSE

> <BB>
FALSE

> <link>
https://covid.postera.ai/covid/submissions/af83ef51-35cf-489e-b3bd-9012d86d8275

> <covalent_frag>
TRUE

> <covalent_warhead>
TRUE

> <acrylamide>
FALSE

> <acrylamide_adduct>
FALSE

> <chloroacetamide>
TRUE

> <chloroacetamide_adduct>
TRUE

> <vinylsulfonamide>
FALSE

> <vinylsulfonamide_adduct>
FALSE

> <in_molport_or_mcule>
FALSE

> <in_emolecules>
FALSE

> <Hybrid2>
-6.328569

> <Mpro-x0161_dock>
-6.328569

> <Mpro-x0195_dock>
-5.814362

> <Mpro-x0387_dock>
-5.5242

> <Mpro-x0305_dock>
-5.011001

> <Mpro-x0104_dock>
-4.895387

> <Mpro-x0072_dock>
-4.003819

> <Mpro-x0692_dock>
-1.667855

> <site>
active-noncovalent

> <covalent_distance_min>
5.4008646

> <covalent_distance_mean>
6.400398

> <covalent_distance_stderr>
0.054788865

$$$$
MAK-UNK-af8-23
  -OEChem-04062011563D

 65 67  0     1  0  0  0  0  0999 V2000
    5.8241    6.2073   23.9839 C   0  0  0  0  0  0  0  0  0  0  0  0
    7.7683    6.5010   22.5195 C   0  0  0  0  0  0  0  0  0  0  0  0
    9.1453    6.4614   22.3309 C   0  0  0  0  0  0  0  0  0  0  0  0
    8.1094    5.8177   24.7719 C   0  0  0  0  0  0  0  0  0  0  0  0
    7.2325    6.1745   23.7602 C   0  0  0  0  0  0  0  0  0  0  0  0
    9.9367    6.0919   23.4066 C   0  0  0  0  0  0  0  0  0  0  0  0
    6.3891   -5.0766   25.3511 C   0  0  0  0  0  0  0  0  0  0  0  0
   10.7080   -0.7032   23.2103 C   0  0  0  0  0  0  0  0  0  0  0  0
   12.4770    1.0455   22.7495 C   0  0  0  0  0  0  0  0  0  0  0  0
   10.4125    1.6519   24.0856 C   0  0  0  0  0  0  0  0  0  0  0  0
    6.7279   -3.2914   23.6720 C   0  0  0  0  0  0  0  0  0  0  0  0
    8.6092   -3.8504   25.1624 C   0  0  0  0  0  0  0  0  0  0  0  0
    6.9108   -1.8090   23.9632 C   0  0  0  0  0  0  0  0  0  0  0  0
    8.8218   -2.3753   25.4748 C   0  0  0  0  0  0  0  0  0  0  0  0
   12.2075   -0.4457   22.9981 C   0  0  2  0  0  0  0  0  0  0  0  0
   10.1332    0.1636   24.3410 C   0  0  1  0  0  0  0  0  0  0  0  0
   11.9055    1.8976   23.8805 C   0  0  2  0  0  0  0  0  0  0  0  0
   12.7408   -1.2895   21.8416 C   0  0  0  0  0  0  0  0  0  0  0  0
    6.6037   -5.3729   26.8139 C   0  0  0  0  0  0  0  0  0  0  0  0
    8.6341   -0.0837   24.5008 C   0  0  0  0  0  0  0  0  0  0  0  0
   12.2395    5.6786   24.2738 C   0  0  0  0  0  0  0  0  0  0  0  0
   11.9905    4.2494   24.7175 C   0  0  0  0  0  0  0  0  0  0  0  0
    4.6783    6.2339   24.1658 N   0  0  0  0  0  0  0  0  0  0  0  0
    9.4526    5.7678   24.6265 N   0  0  0  0  0  0  0  0  0  0  0  0
    7.2164   -4.1094   24.7821 N   0  0  0  0  0  0  0  0  0  0  0  0
   11.2874    6.0570   23.2058 N   0  0  0  0  0  0  0  0  0  0  0  0
    8.3630   -1.5475   24.2952 N   0  3  0  0  0  0  0  0  0  0  0  0
   12.1154    3.3334   23.5531 N   0  3  0  0  0  0  0  0  0  0  0  0
    5.5105   -5.6855   24.7352 O   0  0  0  0  0  0  0  0  0  0  0  0
    6.3623   -3.8573   27.6756 Cl  0  0  0  0  0  0  0  0  0  0  0  0
    7.1256    6.7881   21.6910 H   0  0  0  0  0  0  0  0  0  0  0  0
    9.5722    6.7157   21.3663 H   0  0  0  0  0  0  0  0  0  0  0  0
    7.7540    5.5525   25.7635 H   0  0  0  0  0  0  0  0  0  0  0  0
   10.1638   -0.5010   22.2780 H   0  0  0  0  0  0  0  0  0  0  0  0
   10.5483   -1.7632   23.4446 H   0  0  0  0  0  0  0  0  0  0  0  0
   13.5578    1.2146   22.6651 H   0  0  0  0  0  0  0  0  0  0  0  0
   12.0297    1.3429   21.7915 H   0  0  0  0  0  0  0  0  0  0  0  0
    9.8519    1.9821   23.2008 H   0  0  0  0  0  0  0  0  0  0  0  0
   10.0501    2.2448   24.9346 H   0  0  0  0  0  0  0  0  0  0  0  0
    5.6713   -3.4971   23.4736 H   0  0  0  0  0  0  0  0  0  0  0  0
    7.2892   -3.5831   22.7760 H   0  0  0  0  0  0  0  0  0  0  0  0
    9.2393   -4.1609   24.3200 H   0  0  0  0  0  0  0  0  0  0  0  0
    8.9134   -4.4458   26.0249 H   0  0  0  0  0  0  0  0  0  0  0  0
    6.6694   -1.2116   23.0815 H   0  0  0  0  0  0  0  0  0  0  0  0
    6.3091   -1.4824   24.8152 H   0  0  0  0  0  0  0  0  0  0  0  0
    8.2493   -2.0568   26.3495 H   0  0  0  0  0  0  0  0  0  0  0  0
    9.8829   -2.1638   25.6229 H   0  0  0  0  0  0  0  0  0  0  0  0
   12.7421   -0.7469   23.9089 H   0  0  0  0  0  0  0  0  0  0  0  0
   10.6239   -0.1244   25.2805 H   0  0  0  0  0  0  0  0  0  0  0  0
   12.4543    1.7150   24.8115 H   0  0  0  0  0  0  0  0  0  0  0  0
   12.2307   -1.0160   20.9196 H   0  0  0  0  0  0  0  0  0  0  0  0
   12.5685   -2.3450   22.0452 H   0  0  0  0  0  0  0  0  0  0  0  0
   13.8094   -1.1186   21.7226 H   0  0  0  0  0  0  0  0  0  0  0  0
    7.6194   -5.7241   26.9561 H   0  0  0  0  0  0  0  0  0  0  0  0
    5.8715   -6.1047   27.1353 H   0  0  0  0  0  0  0  0  0  0  0  0
    8.0664    0.4663   23.7530 H   0  0  0  0  0  0  0  0  0  0  0  0
    8.3008    0.1770   25.5033 H   0  0  0  0  0  0  0  0  0  0  0  0
   12.1314    6.3792   25.1085 H   0  0  0  0  0  0  0  0  0  0  0  0
   13.2548    5.7766   23.8765 H   0  0  0  0  0  0  0  0  0  0  0  0
   10.9760    4.1245   25.1064 H   0  0  0  0  0  0  0  0  0  0  0  0
   12.7153    3.9125   25.4648 H   0  0  0  0  0  0  0  0  0  0  0  0
   11.6859    6.2893   22.3215 H   0  0  0  0  0  0  0  0  0  0  0  0
    8.9197   -1.8468   23.4803 H   0  0  0  0  0  0  0  0  0  0  0  0
   13.0466    3.4497   23.1308 H   0  0  0  0  0  0  0  0  0  0  0  0
   11.4417    3.6153   22.8281 H   0  0  0  0  0  0  0  0  0  0  0  0
  1  5  1  0  0  0  0
  1 23  3  0  0  0  0
  2  3  2  0  0  0  0
  2  5  1  0  0  0  0
  3  6  1  0  0  0  0
  4  5  2  0  0  0  0
  4 24  1  0  0  0  0
  6 24  2  0  0  0  0
  6 26  1  0  0  0  0
  7 19  1  0  0  0  0
  7 25  1  0  0  0  0
  7 29  2  0  0  0  0
  8 15  1  0  0  0  0
  8 16  1  0  0  0  0
  9 15  1  0  0  0  0
  9 17  1  0  0  0  0
 10 16  1  0  0  0  0
 10 17  1  0  0  0  0
 11 13  1  0  0  0  0
 11 25  1  0  0  0  0
 12 14  1  0  0  0  0
 12 25  1  0  0  0  0
 13 27  1  0  0  0  0
 14 27  1  0  0  0  0
 15 18  1  0  0  0  0
 16 20  1  0  0  0  0
 17 28  1  0  0  0  0
 19 30  1  0  0  0  0
 20 27  1  0  0  0  0
 21 22  1  0  0  0  0
 21 26  1  0  0  0  0
 22 28  1  0  0  0  0
  2 31  1  0  0  0  0
  3 32  1  0  0  0  0
  4 33  1  0  0  0  0
  8 34  1  0  0  0  0
  8 35  1  0  0  0  0
  9 36  1  0  0  0  0
  9 37  1  0  0  0  0
 10 38  1  0  0  0  0
 10 39  1  0  0  0  0
 11 40  1  0  0  0  0
 11 41  1  0  0  0  0
 12 42  1  0  0  0  0
 12 43  1  0  0  0  0
 13 44  1  0  0  0  0
 13 45  1  0  0  0  0
 14 46  1  0  0  0  0
 14 47  1  0  0  0  0
 15 48  1  0  0  0  0
 16 49  1  0  0  0  0
 17 50  1  0  0  0  0
 18 51  1  0  0  0  0
 18 52  1  0  0  0  0
 18 53  1  0  0  0  0
 19 54  1  0  0  0  0
 19 55  1  0  0  0  0
 20 56  1  0  0  0  0
 20 57  1  0  0  0  0
 21 58  1  0  0  0  0
 21 59  1  0  0  0  0
 22 60  1  0  0  0  0
 22 61  1  0  0  0  0
 26 62  1  0  0  0  0
 27 63  1  0  0  0  0
 28 64  1  0  0  0  0
 28 65  1  0  0  0  0
M  CHG  2  27   1  28   1
M  END
> <creator>
Maksym Voznyy

> <fragments>
x0104

> <real_space>
FALSE

> <SCR>
FALSE

> <BB>
FALSE

> <link>
https://covid.postera.ai/covid/submissions/af83ef51-35cf-489e-b3bd-9012d86d8275

> <covalent_frag>
TRUE

> <covalent_warhead>
TRUE

> <acrylamide>
FALSE

> <acrylamide_adduct>
FALSE

> <chloroacetamide>
TRUE

> <chloroacetamide_adduct>
FALSE

> <vinylsulfonamide>
FALSE

> <vinylsulfonamide_adduct>
FALSE

> <in_molport_or_mcule>
FALSE

> <in_emolecules>
FALSE

> <Hybrid2>
-6.308840

> <Mpro-x0104_dock>
-6.30884

> <Mpro-x0161_dock>
-5.463325

> <Mpro-x0072_dock>
-5.076825

> <Mpro-x0195_dock>
-3.997847

> <Mpro-x0387_dock>
-3.078731

> <Mpro-x0305_dock>
-1.539273

> <Mpro-x0692_dock>
2.129604

> <site>
active-noncovalent

> <covalent_distance_min>
10.497848

> <covalent_distance_mean>
11.693166

> <covalent_distance_stderr>
0.16395868

$$$$
STU-CHA-91d-1
  -OEChem-04062011563D

 41 42  0     1  0  0  0  0  0999 V2000
   13.8131    3.7530   21.7078 C   0  0  0  0  0  0  0  0  0  0  0  0
   13.7875    2.5064   22.3330 C   0  0  0  0  0  0  0  0  0  0  0  0
   14.1347   -0.6303   22.8533 C   0  0  0  0  0  0  0  0  0  0  0  0
   12.9346    4.7565   22.1165 C   0  0  0  0  0  0  0  0  0  0  0  0
   14.1951   -1.7626   22.0411 C   0  0  0  0  0  0  0  0  0  0  0  0
   11.7831   -1.7948   21.9066 C   0  0  0  0  0  0  0  0  0  0  0  0
   12.0048    3.2667   23.7756 C   0  0  0  0  0  0  0  0  0  0  0  0
   11.7227   -0.6625   22.7189 C   0  0  0  0  0  0  0  0  0  0  0  0
   12.8833    2.2632   23.3669 C   0  0  0  0  0  0  0  0  0  0  0  0
   12.8985   -0.0802   23.1923 C   0  0  0  0  0  0  0  0  0  0  0  0
   12.0305    4.5133   23.1504 C   0  0  0  0  0  0  0  0  0  0  0  0
   13.0193   -2.3449   21.5677 C   0  0  0  0  0  0  0  0  0  0  0  0
    9.3158    0.7012   20.9847 C   0  0  0  0  0  0  0  0  0  0  0  0
    9.8072   -0.6695   24.3691 C   0  0  0  0  0  0  0  0  0  0  0  0
    8.2692    0.3319   19.9647 C   0  0  0  0  0  0  0  0  0  0  0  0
   10.3908   -0.0882   23.0735 C   0  0  2  0  0  0  0  0  0  0  0  0
   11.3749    7.0393   22.6080 N   0  0  0  0  0  0  0  0  0  0  0  0
    9.4300   -0.2334   21.9939 N   0  0  0  0  0  0  0  0  0  0  0  0
    9.9868    1.7268   20.8835 O   0  0  0  0  0  0  0  0  0  0  0  0
    9.5742    5.3502   23.3497 O   0  0  0  0  0  0  0  0  0  0  0  0
   11.2744    6.1553   25.0257 O   0  0  0  0  0  0  0  0  0  0  0  0
   12.8570    1.0259   23.9867 O   0  0  0  0  0  0  0  0  0  0  0  0
   10.9325    5.7706   23.6635 S   0  0  0  0  0  0  0  0  0  0  0  0
   13.0932   -3.7419   20.5657 Cl  0  0  0  0  0  0  0  0  0  0  0  0
    6.7272    1.0246   20.4914 Cl  0  0  0  0  0  0  0  0  0  0  0  0
   14.5168    3.9421   20.9026 H   0  0  0  0  0  0  0  0  0  0  0  0
   14.4741    1.7288   22.0100 H   0  0  0  0  0  0  0  0  0  0  0  0
   15.0541   -0.1809   23.2188 H   0  0  0  0  0  0  0  0  0  0  0  0
   12.9638    5.7243   21.6235 H   0  0  0  0  0  0  0  0  0  0  0  0
   15.1652   -2.1813   21.7860 H   0  0  0  0  0  0  0  0  0  0  0  0
   10.8633   -2.2452   21.5401 H   0  0  0  0  0  0  0  0  0  0  0  0
   11.3016    3.0720   24.5819 H   0  0  0  0  0  0  0  0  0  0  0  0
    9.6959   -1.7565   24.2903 H   0  0  0  0  0  0  0  0  0  0  0  0
   10.4552   -0.4560   25.2266 H   0  0  0  0  0  0  0  0  0  0  0  0
    8.8230   -0.2446   24.5960 H   0  0  0  0  0  0  0  0  0  0  0  0
    8.5019    0.7131   18.9674 H   0  0  0  0  0  0  0  0  0  0  0  0
    8.1754   -0.7565   19.9181 H   0  0  0  0  0  0  0  0  0  0  0  0
   10.4749    1.0021   23.2231 H   0  0  0  0  0  0  0  0  0  0  0  0
   10.7203    7.2922   21.8577 H   0  0  0  0  0  0  0  0  0  0  0  0
   11.8829    7.8400   23.0032 H   0  0  0  0  0  0  0  0  0  0  0  0
    8.8258   -1.0447   21.9813 H   0  0  0  0  0  0  0  0  0  0  0  0
  1  2  2  0  0  0  0
  1  4  1  0  0  0  0
  2  9  1  0  0  0  0
  3  5  2  0  0  0  0
  3 10  1  0  0  0  0
  4 11  2  0  0  0  0
  5 12  1  0  0  0  0
  6  8  1  0  0  0  0
  6 12  2  0  0  0  0
  7  9  2  0  0  0  0
  7 11  1  0  0  0  0
  8 10  2  0  0  0  0
  8 16  1  0  0  0  0
  9 22  1  0  0  0  0
 10 22  1  0  0  0  0
 11 23  1  0  0  0  0
 12 24  1  0  0  0  0
 13 15  1  0  0  0  0
 13 18  1  0  0  0  0
 13 19  2  0  0  0  0
 14 16  1  0  0  0  0
 15 25  1  0  0  0  0
 16 18  1  0  0  0  0
 17 23  1  0  0  0  0
 20 23  2  0  0  0  0
 21 23  2  0  0  0  0
  1 26  1  0  0  0  0
  2 27  1  0  0  0  0
  3 28  1  0  0  0  0
  4 29  1  0  0  0  0
  5 30  1  0  0  0  0
  6 31  1  0  0  0  0
  7 32  1  0  0  0  0
 14 33  1  0  0  0  0
 14 34  1  0  0  0  0
 14 35  1  0  0  0  0
 15 36  1  0  0  0  0
 15 37  1  0  0  0  0
 16 38  1  0  0  0  0
 17 39  1  0  0  0  0
 17 40  1  0  0  0  0
 18 41  1  0  0  0  0
M  END
> <creator>
Stuart Ward, Charles River Laboratories

> <fragments>
x0195

> <real_space>
FALSE

> <SCR>
FALSE

> <BB>
FALSE

> <link>
https://covid.postera.ai/covid/submissions/91df9a40-05e7-4316-9c2c-e5d6a6bc2997

> <covalent_frag>
TRUE

> <covalent_warhead>
TRUE

> <acrylamide>
FALSE

> <acrylamide_adduct>
FALSE

> <chloroacetamide>
TRUE

> <chloroacetamide_adduct>
FALSE

> <vinylsulfonamide>
FALSE

> <vinylsulfonamide_adduct>
FALSE

> <in_molport_or_mcule>
FALSE

> <in_emolecules>
FALSE

> <Hybrid2>
-6.304440

> <Mpro-x0195_dock>
-6.30444

> <Mpro-x1382_dock>
-3.240387

> <site>
active-noncovalent

> <covalent_distance_min>
3.1428957

> <covalent_distance_mean>
3.673258

> <covalent_distance_stderr>
0.046057966

$$$$
TAM-UNI-d1c-17
  -OEChem-04062011563D

 43 44  0     0  0  0  0  0  0999 V2000
   13.1758   -0.8766   22.0084 C   0  0  0  0  0  0  0  0  0  0  0  0
   12.0729    0.2640   23.8696 C   0  0  0  0  0  0  0  0  0  0  0  0
   11.0037    0.3816   24.7576 C   0  0  0  0  0  0  0  0  0  0  0  0
   11.0193   -1.6591   22.8556 C   0  0  0  0  0  0  0  0  0  0  0  0
   12.0807   -0.7563   22.9185 C   0  0  0  0  0  0  0  0  0  0  0  0
    9.9423   -0.5212   24.6946 C   0  0  0  0  0  0  0  0  0  0  0  0
    9.9500   -1.5416   23.7436 C   0  0  0  0  0  0  0  0  0  0  0  0
    8.8407   -0.3774   25.6370 C   0  0  0  0  0  0  0  0  0  0  0  0
    5.9861   -1.9973   19.4488 C   0  0  0  0  0  0  0  0  0  0  0  0
    6.6458   -3.2552   21.4733 C   0  0  0  0  0  0  0  0  0  0  0  0
    7.7872   -1.1156   21.0117 C   0  0  0  0  0  0  0  0  0  0  0  0
    6.4246   -2.8465   22.9222 C   0  0  0  0  0  0  0  0  0  0  0  0
    7.5839   -0.6785   22.4562 C   0  0  0  0  0  0  0  0  0  0  0  0
    7.5107    1.2186   27.0365 C   0  0  0  0  0  0  0  0  0  0  0  0
    8.8217   -2.5264   23.6552 C   0  0  0  0  0  0  0  0  0  0  0  0
    6.1623   -0.7587   18.6070 C   0  0  0  0  0  0  0  0  0  0  0  0
   14.0652   -0.9743   21.2693 N   0  0  0  0  0  0  0  0  0  0  0  0
    6.7635   -2.0842   20.6036 N   0  0  0  0  0  0  0  0  0  0  0  0
    8.5558    0.9166   26.0849 N   0  0  0  0  0  0  0  0  0  0  0  0
    7.4945   -1.8782   23.3702 N   0  3  0  0  0  0  0  0  0  0  0  0
    8.2117   -1.3758   26.0262 O   0  0  0  0  0  0  0  0  0  0  0  0
    5.1795   -2.8593   19.0906 O   0  0  0  0  0  0  0  0  0  0  0  0
    4.9791    0.4119   19.1795 Cl  0  0  0  0  0  0  0  0  0  0  0  0
   12.8934    0.9752   23.9303 H   0  0  0  0  0  0  0  0  0  0  0  0
   11.0090    1.1805   25.4948 H   0  0  0  0  0  0  0  0  0  0  0  0
   11.0198   -2.4567   22.1154 H   0  0  0  0  0  0  0  0  0  0  0  0
    7.5412   -3.8822   21.4030 H   0  0  0  0  0  0  0  0  0  0  0  0
    5.8027   -3.8543   21.1058 H   0  0  0  0  0  0  0  0  0  0  0  0
    7.7093   -0.2558   20.3340 H   0  0  0  0  0  0  0  0  0  0  0  0
    8.7963   -1.5181   20.8990 H   0  0  0  0  0  0  0  0  0  0  0  0
    5.4550   -2.3369   23.0360 H   0  0  0  0  0  0  0  0  0  0  0  0
    6.4504   -3.7144   23.6020 H   0  0  0  0  0  0  0  0  0  0  0  0
    8.4129   -0.0450   22.8130 H   0  0  0  0  0  0  0  0  0  0  0  0
    6.6413   -0.1185   22.5603 H   0  0  0  0  0  0  0  0  0  0  0  0
    6.5902    1.4877   26.4979 H   0  0  0  0  0  0  0  0  0  0  0  0
    7.3224    0.3366   27.6663 H   0  0  0  0  0  0  0  0  0  0  0  0
    7.8243    2.0614   27.6701 H   0  0  0  0  0  0  0  0  0  0  0  0
    8.9938   -3.2551   22.8558 H   0  0  0  0  0  0  0  0  0  0  0  0
    8.7061   -3.0808   24.5928 H   0  0  0  0  0  0  0  0  0  0  0  0
    5.9676   -1.0078   17.5701 H   0  0  0  0  0  0  0  0  0  0  0  0
    7.1657   -0.3752   18.7518 H   0  0  0  0  0  0  0  0  0  0  0  0
    9.1420    1.6879   25.7829 H   0  0  0  0  0  0  0  0  0  0  0  0
    7.1643   -1.5000   24.3046 H   0  0  0  0  0  0  0  0  0  0  0  0
  1  5  1  0  0  0  0
  1 17  3  0  0  0  0
  2  3  2  0  0  0  0
  2  5  1  0  0  0  0
  3  6  1  0  0  0  0
  4  5  2  0  0  0  0
  4  7  1  0  0  0  0
  6  7  2  0  0  0  0
  6  8  1  0  0  0  0
  7 15  1  0  0  0  0
  8 19  1  0  0  0  0
  8 21  2  0  0  0  0
  9 16  1  0  0  0  0
  9 18  1  0  0  0  0
  9 22  2  0  0  0  0
 10 12  1  0  0  0  0
 10 18  1  0  0  0  0
 11 13  1  0  0  0  0
 11 18  1  0  0  0  0
 12 20  1  0  0  0  0
 13 20  1  0  0  0  0
 14 19  1  0  0  0  0
 15 20  1  0  0  0  0
 16 23  1  0  0  0  0
  2 24  1  0  0  0  0
  3 25  1  0  0  0  0
  4 26  1  0  0  0  0
 10 27  1  0  0  0  0
 10 28  1  0  0  0  0
 11 29  1  0  0  0  0
 11 30  1  0  0  0  0
 12 31  1  0  0  0  0
 12 32  1  0  0  0  0
 13 33  1  0  0  0  0
 13 34  1  0  0  0  0
 14 35  1  0  0  0  0
 14 36  1  0  0  0  0
 14 37  1  0  0  0  0
 15 38  1  0  0  0  0
 15 39  1  0  0  0  0
 16 40  1  0  0  0  0
 16 41  1  0  0  0  0
 19 42  1  0  0  0  0
 20 43  1  0  0  0  0
M  CHG  1  20   1
M  END
> <creator>
Tamas Szommer, University of Oxford, TDI

> <fragments>
x1386

> <real_space>
FALSE

> <SCR>
FALSE

> <BB>
FALSE

> <link>
https://covid.postera.ai/covid/submissions/d1c3dd9f-771c-474e-9133-8c7e4ace8b98

> <covalent_frag>
TRUE

> <covalent_warhead>
TRUE

> <acrylamide>
FALSE

> <acrylamide_adduct>
FALSE

> <chloroacetamide>
TRUE

> <chloroacetamide_adduct>
FALSE

> <vinylsulfonamide>
FALSE

> <vinylsulfonamide_adduct>
FALSE

> <in_molport_or_mcule>
FALSE

> <in_emolecules>
FALSE

> <Hybrid2>
-6.300272

> <Mpro-x1386_dock>
-6.300272

> <Mpro-x1392_dock>
-5.669863

> <Mpro-x0692_dock>
-4.277786

> <Mpro-x1382_dock>
-3.14646

> <site>
active-covalent

> <covalent_distance_min>
3.0563693

> <covalent_distance_mean>
3.3362105

> <covalent_distance_stderr>
0.022830397

$$$$
MAK-UNK-af8-1
  -OEChem-04062011563D

 43 45  0     0  0  0  0  0  0999 V2000
    5.7086   -6.0141   29.0651 C   0  0  0  0  0  0  0  0  0  0  0  0
    7.0801   -6.0082   28.8114 C   0  0  0  0  0  0  0  0  0  0  0  0
    4.8203   -5.5222   28.1087 C   0  0  0  0  0  0  0  0  0  0  0  0
    7.5635   -5.5103   27.6014 C   0  0  0  0  0  0  0  0  0  0  0  0
    5.3036   -5.0243   26.8987 C   0  0  0  0  0  0  0  0  0  0  0  0
    8.7552   -4.5455   23.7633 C   0  0  0  0  0  0  0  0  0  0  0  0
    6.9459   -3.0728   23.6456 C   0  0  0  0  0  0  0  0  0  0  0  0
    6.6752   -5.0184   26.6450 C   0  0  0  0  0  0  0  0  0  0  0  0
    8.1055   -3.5469   23.0669 C   0  0  0  0  0  0  0  0  0  0  0  0
    7.1744   -4.5048   25.3962 C   0  0  0  0  0  0  0  0  0  0  0  0
   12.2347    0.3329   24.3115 C   0  0  0  0  0  0  0  0  0  0  0  0
   12.0192   -1.7455   22.9867 C   0  0  0  0  0  0  0  0  0  0  0  0
   10.6388    0.1897   22.3365 C   0  0  0  0  0  0  0  0  0  0  0  0
   10.8012   -2.6565   22.9388 C   0  0  0  0  0  0  0  0  0  0  0  0
    9.3995   -0.6932   22.2769 C   0  0  0  0  0  0  0  0  0  0  0  0
    8.6258   -3.0116   21.7655 C   0  0  0  0  0  0  0  0  0  0  0  0
   11.3985    1.3864   24.9932 C   0  0  0  0  0  0  0  0  0  0  0  0
    8.3162   -5.0499   24.9351 N   0  0  0  0  0  0  0  0  0  0  0  0
    6.4495   -3.5307   24.8136 N   0  0  0  0  0  0  0  0  0  0  0  0
   11.6308   -0.3628   23.2650 N   0  0  0  0  0  0  0  0  0  0  0  0
    9.8138   -2.1067   21.9339 N   0  3  0  0  0  0  0  0  0  0  0  0
   13.3884    0.1340   24.7004 O   0  0  0  0  0  0  0  0  0  0  0  0
   11.7104    2.9000   24.1510 Cl  0  0  0  0  0  0  0  0  0  0  0  0
    5.3324   -6.4033   30.0066 H   0  0  0  0  0  0  0  0  0  0  0  0
    7.7718   -6.3927   29.5552 H   0  0  0  0  0  0  0  0  0  0  0  0
    3.7521   -5.5277   28.3050 H   0  0  0  0  0  0  0  0  0  0  0  0
    8.6355   -5.5128   27.4184 H   0  0  0  0  0  0  0  0  0  0  0  0
    4.5991   -4.6447   26.1624 H   0  0  0  0  0  0  0  0  0  0  0  0
    9.6756   -4.9856   23.3926 H   0  0  0  0  0  0  0  0  0  0  0  0
    6.3610   -2.2876   23.1771 H   0  0  0  0  0  0  0  0  0  0  0  0
   12.7200   -2.1118   23.7435 H   0  0  0  0  0  0  0  0  0  0  0  0
   12.5470   -1.7521   22.0253 H   0  0  0  0  0  0  0  0  0  0  0  0
   11.1155    0.2521   21.3507 H   0  0  0  0  0  0  0  0  0  0  0  0
   10.3426    1.2031   22.6125 H   0  0  0  0  0  0  0  0  0  0  0  0
   11.0823   -3.6604   22.6046 H   0  0  0  0  0  0  0  0  0  0  0  0
   10.2955   -2.7180   23.9090 H   0  0  0  0  0  0  0  0  0  0  0  0
    8.8690   -0.7209   23.2353 H   0  0  0  0  0  0  0  0  0  0  0  0
    8.7204   -0.3521   21.4889 H   0  0  0  0  0  0  0  0  0  0  0  0
    8.9405   -3.8234   21.1010 H   0  0  0  0  0  0  0  0  0  0  0  0
    7.8591   -2.4302   21.2422 H   0  0  0  0  0  0  0  0  0  0  0  0
   11.7091    1.4658   26.0288 H   0  0  0  0  0  0  0  0  0  0  0  0
   10.3523    1.1181   24.9017 H   0  0  0  0  0  0  0  0  0  0  0  0
   10.2888   -2.0744   21.0212 H   0  0  0  0  0  0  0  0  0  0  0  0
  1  2  1  0  0  0  0
  1  3  2  0  0  0  0
  2  4  2  0  0  0  0
  3  5  1  0  0  0  0
  4  8  1  0  0  0  0
  5  8  2  0  0  0  0
  6  9  1  0  0  0  0
  6 18  2  0  0  0  0
  7  9  2  0  0  0  0
  7 19  1  0  0  0  0
  8 10  1  0  0  0  0
  9 16  1  0  0  0  0
 10 18  1  0  0  0  0
 10 19  2  0  0  0  0
 11 17  1  0  0  0  0
 11 20  1  0  0  0  0
 11 22  2  0  0  0  0
 12 14  1  0  0  0  0
 12 20  1  0  0  0  0
 13 15  1  0  0  0  0
 13 20  1  0  0  0  0
 14 21  1  0  0  0  0
 15 21  1  0  0  0  0
 16 21  1  0  0  0  0
 17 23  1  0  0  0  0
  1 24  1  0  0  0  0
  2 25  1  0  0  0  0
  3 26  1  0  0  0  0
  4 27  1  0  0  0  0
  5 28  1  0  0  0  0
  6 29  1  0  0  0  0
  7 30  1  0  0  0  0
 12 31  1  0  0  0  0
 12 32  1  0  0  0  0
 13 33  1  0  0  0  0
 13 34  1  0  0  0  0
 14 35  1  0  0  0  0
 14 36  1  0  0  0  0
 15 37  1  0  0  0  0
 15 38  1  0  0  0  0
 16 39  1  0  0  0  0
 16 40  1  0  0  0  0
 17 41  1  0  0  0  0
 17 42  1  0  0  0  0
 21 43  1  0  0  0  0
M  CHG  1  21   1
M  END
> <creator>
Maksym Voznyy

> <fragments>
x0072

> <real_space>
FALSE

> <SCR>
FALSE

> <BB>
FALSE

> <link>
https://covid.postera.ai/covid/submissions/af83ef51-35cf-489e-b3bd-9012d86d8275

> <covalent_frag>
TRUE

> <covalent_warhead>
TRUE

> <acrylamide>
FALSE

> <acrylamide_adduct>
FALSE

> <chloroacetamide>
TRUE

> <chloroacetamide_adduct>
FALSE

> <vinylsulfonamide>
FALSE

> <vinylsulfonamide_adduct>
FALSE

> <in_molport_or_mcule>
FALSE

> <in_emolecules>
FALSE

> <Hybrid2>
-6.235673

> <Mpro-x0072_dock>
-6.235673

> <Mpro-x0104_dock>
-6.217084

> <Mpro-x0161_dock>
-5.21414

> <Mpro-x0387_dock>
-4.625891

> <Mpro-x0195_dock>
-4.068634

> <Mpro-x0305_dock>
-2.531705

> <Mpro-x0692_dock>
-2.35745

> <site>
active-noncovalent

> <covalent_distance_min>
9.058723

> <covalent_distance_mean>
10.566967

> <covalent_distance_stderr>
0.078506276

$$$$
DAR-DIA-cab-13
  -OEChem-04062011563D

 55 58  0     1  0  0  0  0  0999 V2000
   14.2182   -0.3405   23.1189 C   0  0  0  0  0  0  0  0  0  0  0  0
   13.7328    0.9591   23.0086 C   0  0  0  0  0  0  0  0  0  0  0  0
   13.3581   -1.4234   22.9396 C   0  0  0  0  0  0  0  0  0  0  0  0
   12.3875    1.1771   22.7155 C   0  0  0  0  0  0  0  0  0  0  0  0
    9.1037    0.0561   24.5319 C   0  0  0  0  0  0  0  0  0  0  0  0
    7.7940    1.7762   25.5232 C   0  0  0  0  0  0  0  0  0  0  0  0
   12.0004   -1.2189   22.6506 C   0  0  0  0  0  0  0  0  0  0  0  0
   11.5119    0.0948   22.5296 C   0  0  0  0  0  0  0  0  0  0  0  0
    9.2456    0.8562   23.4037 C   0  0  0  0  0  0  0  0  0  0  0  0
    8.3656    0.5175   25.6162 C   0  0  0  0  0  0  0  0  0  0  0  0
    8.6345    2.0997   23.4096 C   0  0  0  0  0  0  0  0  0  0  0  0
    8.6374   -2.9430   22.6762 C   0  0  0  0  0  0  0  0  0  0  0  0
   10.5696    4.4059   23.1715 C   0  0  0  0  0  0  0  0  0  0  0  0
   11.1080   -2.4218   22.4651 C   0  0  0  0  0  0  0  0  0  0  0  0
   12.4589    5.7911   23.9699 C   0  0  0  0  0  0  0  0  0  0  0  0
   12.5962    4.8906   21.6787 C   0  0  0  0  0  0  0  0  0  0  0  0
    9.3922   -0.8719   21.5613 C   0  0  0  0  0  0  0  0  0  0  0  0
   13.9344    5.4619   24.1335 C   0  0  0  0  0  0  0  0  0  0  0  0
   14.0748    4.6251   21.9411 C   0  0  0  0  0  0  0  0  0  0  0  0
   10.0507    0.3554   22.2122 C   0  0  2  0  0  0  0  0  0  0  0  0
    8.7542    3.0025   22.2255 C   0  0  0  0  0  0  0  0  0  0  0  0
    7.2408   -2.4363   22.4144 C   0  0  0  0  0  0  0  0  0  0  0  0
    7.9099    2.5821   24.4440 N   0  0  0  0  0  0  0  0  0  0  0  0
    9.6852   -2.0996   22.2996 N   0  0  0  0  0  0  0  0  0  0  0  0
   11.8441    4.9502   22.9402 N   0  0  0  0  0  0  0  0  0  0  0  0
   10.0558    3.6262   22.1418 N   0  0  0  0  0  0  0  0  0  0  0  0
    8.7911   -4.0536   23.1902 O   0  0  0  0  0  0  0  0  0  0  0  0
    9.9363    4.6051   24.2135 O   0  0  0  0  0  0  0  0  0  0  0  0
   14.6011    5.5691   22.8744 O   0  0  0  0  0  0  0  0  0  0  0  0
    8.2143   -0.2302   26.7149 F   0  0  0  0  0  0  0  0  0  0  0  0
    6.1391   -3.7010   22.9469 Cl  0  0  0  0  0  0  0  0  0  0  0  0
   15.2666   -0.5119   23.3449 H   0  0  0  0  0  0  0  0  0  0  0  0
   14.4017    1.8031   23.1488 H   0  0  0  0  0  0  0  0  0  0  0  0
   13.7518   -2.4331   23.0291 H   0  0  0  0  0  0  0  0  0  0  0  0
   12.0235    2.1980   22.6292 H   0  0  0  0  0  0  0  0  0  0  0  0
    9.5643   -0.9271   24.5759 H   0  0  0  0  0  0  0  0  0  0  0  0
    7.2093    2.1820   26.3421 H   0  0  0  0  0  0  0  0  0  0  0  0
   11.4140   -2.9606   21.5604 H   0  0  0  0  0  0  0  0  0  0  0  0
   11.2387   -3.0881   23.3224 H   0  0  0  0  0  0  0  0  0  0  0  0
   11.9386    5.6923   24.9272 H   0  0  0  0  0  0  0  0  0  0  0  0
   12.3410    6.8267   23.6291 H   0  0  0  0  0  0  0  0  0  0  0  0
   12.4650    5.8654   21.1953 H   0  0  0  0  0  0  0  0  0  0  0  0
   12.2175    4.1180   21.0081 H   0  0  0  0  0  0  0  0  0  0  0  0
    8.3112   -0.7242   21.4578 H   0  0  0  0  0  0  0  0  0  0  0  0
    9.7914   -1.0181   20.5489 H   0  0  0  0  0  0  0  0  0  0  0  0
   14.4017    6.1768   24.8181 H   0  0  0  0  0  0  0  0  0  0  0  0
   14.0818    4.4580   24.5489 H   0  0  0  0  0  0  0  0  0  0  0  0
   14.2379    3.6072   22.3151 H   0  0  0  0  0  0  0  0  0  0  0  0
   14.6406    4.7288   21.0097 H   0  0  0  0  0  0  0  0  0  0  0  0
   10.0118    1.1773   21.4455 H   0  0  0  0  0  0  0  0  0  0  0  0
    8.5906    2.4497   21.2909 H   0  0  0  0  0  0  0  0  0  0  0  0
    8.0059    3.8052   22.2565 H   0  0  0  0  0  0  0  0  0  0  0  0
    7.1241   -2.2639   21.3509 H   0  0  0  0  0  0  0  0  0  0  0  0
    7.0810   -1.5344   22.9934 H   0  0  0  0  0  0  0  0  0  0  0  0
   10.6081    3.4884   21.3045 H   0  0  0  0  0  0  0  0  0  0  0  0
  1  2  1  0  0  0  0
  1  3  2  0  0  0  0
  2  4  2  0  0  0  0
  3  7  1  0  0  0  0
  4  8  1  0  0  0  0
  5  9  1  0  0  0  0
  5 10  2  0  0  0  0
  6 10  1  0  0  0  0
  6 23  2  0  0  0  0
  7  8  2  0  0  0  0
  7 14  1  0  0  0  0
  8 20  1  0  0  0  0
  9 11  2  0  0  0  0
  9 20  1  0  0  0  0
 10 30  1  0  0  0  0
 11 21  1  0  0  0  0
 11 23  1  0  0  0  0
 12 22  1  0  0  0  0
 12 24  1  0  0  0  0
 12 27  2  0  0  0  0
 13 25  1  0  0  0  0
 13 26  1  0  0  0  0
 13 28  2  0  0  0  0
 14 24  1  0  0  0  0
 15 18  1  0  0  0  0
 15 25  1  0  0  0  0
 16 19  1  0  0  0  0
 16 25  1  0  0  0  0
 17 20  1  0  0  0  0
 17 24  1  0  0  0  0
 18 29  1  0  0  0  0
 19 29  1  0  0  0  0
 21 26  1  0  0  0  0
 22 31  1  0  0  0  0
  1 32  1  0  0  0  0
  2 33  1  0  0  0  0
  3 34  1  0  0  0  0
  4 35  1  0  0  0  0
  5 36  1  0  0  0  0
  6 37  1  0  0  0  0
 14 38  1  0  0  0  0
 14 39  1  0  0  0  0
 15 40  1  0  0  0  0
 15 41  1  0  0  0  0
 16 42  1  0  0  0  0
 16 43  1  0  0  0  0
 17 44  1  0  0  0  0
 17 45  1  0  0  0  0
 18 46  1  0  0  0  0
 18 47  1  0  0  0  0
 19 48  1  0  0  0  0
 19 49  1  0  0  0  0
 20 50  1  0  0  0  0
 21 51  1  0  0  0  0
 21 52  1  0  0  0  0
 22 53  1  0  0  0  0
 22 54  1  0  0  0  0
 26 55  1  0  0  0  0
M  END
> <creator>
Daren Fearon, Diamond Light Source Ltd

> <fragments>
x0195

> <real_space>
FALSE

> <SCR>
FALSE

> <BB>
FALSE

> <link>
https://covid.postera.ai/covid/submissions/caba39e3-6989-456c-b896-1cac12e2588e

> <covalent_frag>
TRUE

> <covalent_warhead>
TRUE

> <acrylamide>
FALSE

> <acrylamide_adduct>
FALSE

> <chloroacetamide>
TRUE

> <chloroacetamide_adduct>
FALSE

> <vinylsulfonamide>
FALSE

> <vinylsulfonamide_adduct>
FALSE

> <in_molport_or_mcule>
FALSE

> <in_emolecules>
FALSE

> <Hybrid2>
-6.233018

> <Mpro-x0195_dock>
-6.233018

> <Mpro-x0830_dock>
-2.616561

> <Mpro-x1249_dock>
-1.796346

> <Mpro-x0305_dock>
-1.159227

> <Mpro-x1392_dock>
-0.731065

> <site>
active-noncovalent

> <covalent_distance_min>
3.2223072

> <covalent_distance_mean>
3.8023734

> <covalent_distance_stderr>
0.037540834

$$$$
TAM-UNI-d1c-24
  -OEChem-04062011563D

 45 46  0     1  0  0  0  0  0999 V2000
    7.0197   -2.0538   20.9643 C   0  0  0  0  0  0  0  0  0  0  0  0
    8.2972   -1.5265   21.1855 C   0  0  0  0  0  0  0  0  0  0  0  0
    6.5527   -3.1304   21.7158 C   0  0  0  0  0  0  0  0  0  0  0  0
   10.6958   -2.7300   23.6672 C   0  0  0  0  0  0  0  0  0  0  0  0
    9.1135   -2.0976   22.1820 C   0  0  0  0  0  0  0  0  0  0  0  0
    7.3444   -3.7132   22.7094 C   0  0  0  0  0  0  0  0  0  0  0  0
   10.4246   -1.8277   22.6646 C   0  0  0  0  0  0  0  0  0  0  0  0
    8.6192   -3.1756   22.9195 C   0  0  0  0  0  0  0  0  0  0  0  0
    9.9762    0.4315   24.9769 C   0  0  0  0  0  0  0  0  0  0  0  0
    6.9160   -5.6439   25.8314 C   0  0  0  0  0  0  0  0  0  0  0  0
    8.8471    1.3002   25.4226 C   0  0  0  0  0  0  0  0  0  0  0  0
    5.3740   -5.2624   23.0410 C   0  0  0  0  0  0  0  0  0  0  0  0
    9.5249   -4.6123   24.7815 C   0  0  0  0  0  0  0  0  0  0  0  0
   11.3382   -0.7717   22.1833 C   0  0  0  0  0  0  0  0  0  0  0  0
    6.9344   -5.1508   27.2557 C   0  0  0  0  0  0  0  0  0  0  0  0
   11.7749    0.2247   23.2726 C   0  0  0  0  0  0  0  0  0  0  0  0
    6.7895   -4.8648   23.4821 C   0  0  2  0  0  0  0  0  0  0  0  0
    9.6010   -3.5390   23.8135 N   0  0  0  0  0  0  0  0  0  0  0  0
   10.6548    0.9051   23.8655 N   0  0  0  0  0  0  0  0  0  0  0  0
    6.8072   -4.6189   24.9134 N   0  0  0  0  0  0  0  0  0  0  0  0
   10.2250   -0.5988   25.5919 O   0  0  0  0  0  0  0  0  0  0  0  0
    7.0072   -6.8393   25.5575 O   0  0  0  0  0  0  0  0  0  0  0  0
    5.5553   -5.8724   28.0996 Cl  0  0  0  0  0  0  0  0  0  0  0  0
    6.3858   -1.6173   20.1970 H   0  0  0  0  0  0  0  0  0  0  0  0
    8.6468   -0.6870   20.5913 H   0  0  0  0  0  0  0  0  0  0  0  0
    5.5549   -3.5164   21.5187 H   0  0  0  0  0  0  0  0  0  0  0  0
   11.5735   -2.8630   24.2860 H   0  0  0  0  0  0  0  0  0  0  0  0
    7.8935    1.0305   24.9410 H   0  0  0  0  0  0  0  0  0  0  0  0
    8.6586    1.2222   26.5054 H   0  0  0  0  0  0  0  0  0  0  0  0
    8.9757    2.3770   25.2279 H   0  0  0  0  0  0  0  0  0  0  0  0
    4.6830   -4.4193   23.1495 H   0  0  0  0  0  0  0  0  0  0  0  0
    5.3604   -5.5794   21.9921 H   0  0  0  0  0  0  0  0  0  0  0  0
    4.9845   -6.0972   23.6345 H   0  0  0  0  0  0  0  0  0  0  0  0
    9.1132   -4.2026   25.7077 H   0  0  0  0  0  0  0  0  0  0  0  0
    8.8800   -5.4063   24.3949 H   0  0  0  0  0  0  0  0  0  0  0  0
   10.5266   -5.0161   24.9529 H   0  0  0  0  0  0  0  0  0  0  0  0
   10.8568   -0.1948   21.3691 H   0  0  0  0  0  0  0  0  0  0  0  0
   12.2456   -1.2056   21.7166 H   0  0  0  0  0  0  0  0  0  0  0  0
    7.8509   -5.4259   27.7835 H   0  0  0  0  0  0  0  0  0  0  0  0
    6.8301   -4.0624   27.2647 H   0  0  0  0  0  0  0  0  0  0  0  0
   12.2994   -0.2873   24.0855 H   0  0  0  0  0  0  0  0  0  0  0  0
   12.4444    0.9872   22.8612 H   0  0  0  0  0  0  0  0  0  0  0  0
    7.4276   -5.7550   23.3470 H   0  0  0  0  0  0  0  0  0  0  0  0
   10.3443    1.7803   23.4466 H   0  0  0  0  0  0  0  0  0  0  0  0
    6.7376   -3.6666   25.2480 H   0  0  0  0  0  0  0  0  0  0  0  0
  1  2  2  0  0  0  0
  1  3  1  0  0  0  0
  2  5  1  0  0  0  0
  3  6  2  0  0  0  0
  4  7  2  0  0  0  0
  4 18  1  0  0  0  0
  5  7  1  0  0  0  0
  5  8  2  0  0  0  0
  6  8  1  0  0  0  0
  6 17  1  0  0  0  0
  7 14  1  0  0  0  0
  8 18  1  0  0  0  0
  9 11  1  0  0  0  0
  9 19  1  0  0  0  0
  9 21  2  0  0  0  0
 10 15  1  0  0  0  0
 10 20  1  0  0  0  0
 10 22  2  0  0  0  0
 12 17  1  0  0  0  0
 13 18  1  0  0  0  0
 14 16  1  0  0  0  0
 15 23  1  0  0  0  0
 16 19  1  0  0  0  0
 17 20  1  0  0  0  0
  1 24  1  0  0  0  0
  2 25  1  0  0  0  0
  3 26  1  0  0  0  0
  4 27  1  0  0  0  0
 11 28  1  0  0  0  0
 11 29  1  0  0  0  0
 11 30  1  0  0  0  0
 12 31  1  0  0  0  0
 12 32  1  0  0  0  0
 12 33  1  0  0  0  0
 13 34  1  0  0  0  0
 13 35  1  0  0  0  0
 13 36  1  0  0  0  0
 14 37  1  0  0  0  0
 14 38  1  0  0  0  0
 15 39  1  0  0  0  0
 15 40  1  0  0  0  0
 16 41  1  0  0  0  0
 16 42  1  0  0  0  0
 17 43  1  0  0  0  0
 19 44  1  0  0  0  0
 20 45  1  0  0  0  0
M  END
> <creator>
Tamas Szommer, University of Oxford, TDI

> <fragments>
x1392

> <real_space>
FALSE

> <SCR>
FALSE

> <BB>
FALSE

> <link>
https://covid.postera.ai/covid/submissions/d1c3dd9f-771c-474e-9133-8c7e4ace8b98

> <covalent_frag>
TRUE

> <covalent_warhead>
TRUE

> <acrylamide>
FALSE

> <acrylamide_adduct>
FALSE

> <chloroacetamide>
TRUE

> <chloroacetamide_adduct>
FALSE

> <vinylsulfonamide>
FALSE

> <vinylsulfonamide_adduct>
FALSE

> <in_molport_or_mcule>
FALSE

> <in_emolecules>
FALSE

> <Hybrid2>
-6.228618

> <Mpro-x1392_dock>
-6.228618

> <Mpro-x0692_dock>
-4.636274

> <Mpro-x1386_dock>
-1.858199

> <Mpro-x1382_dock>
-0.507455

> <site>
active-covalent

> <covalent_distance_min>
6.513136

> <covalent_distance_mean>
6.9435444

> <covalent_distance_stderr>
0.034331456

$$$$
DAR-DIA-cab-10
  -OEChem-04062011563D

 51 54  0     1  0  0  0  0  0999 V2000
    7.8078   -4.7031   25.4780 C   0  0  0  0  0  0  0  0  0  0  0  0
    9.1752   -4.4596   25.4055 C   0  0  0  0  0  0  0  0  0  0  0  0
    8.9907   -0.0479   24.3466 C   0  0  0  0  0  0  0  0  0  0  0  0
    6.9519   -4.1421   24.5326 C   0  0  0  0  0  0  0  0  0  0  0  0
    9.6867   -3.6416   24.3974 C   0  0  0  0  0  0  0  0  0  0  0  0
    8.7701    0.9476   25.2989 C   0  0  0  0  0  0  0  0  0  0  0  0
   12.5677    0.5126   23.5278 C   0  0  0  0  0  0  0  0  0  0  0  0
   11.0658    1.6628   25.0847 C   0  0  0  0  0  0  0  0  0  0  0  0
   11.7527   -1.3366   22.2072 C   0  0  0  0  0  0  0  0  0  0  0  0
   10.2527   -0.2017   23.7499 C   0  0  0  0  0  0  0  0  0  0  0  0
   11.3057    0.6664   24.1245 C   0  0  0  0  0  0  0  0  0  0  0  0
    7.4551   -3.3279   23.5058 C   0  0  0  0  0  0  0  0  0  0  0  0
    8.8352   -3.0402   23.4536 C   0  0  0  0  0  0  0  0  0  0  0  0
   10.4926   -1.1982   22.7898 C   0  0  0  0  0  0  0  0  0  0  0  0
   12.7883   -0.4829   22.5755 C   0  0  0  0  0  0  0  0  0  0  0  0
    9.8056    1.8013   25.6672 C   0  0  0  0  0  0  0  0  0  0  0  0
    6.7085   -2.5849   20.0338 C   0  0  0  0  0  0  0  0  0  0  0  0
    6.4912   -2.7589   22.4940 C   0  0  0  0  0  0  0  0  0  0  0  0
    8.3104   -1.3781   21.5925 C   0  0  0  0  0  0  0  0  0  0  0  0
    9.4050   -2.1648   22.3402 C   0  0  2  0  0  0  0  0  0  0  0  0
   14.1735   -1.6589   21.0413 C   0  0  0  0  0  0  0  0  0  0  0  0
    7.4731   -2.0140   18.8661 C   0  0  0  0  0  0  0  0  0  0  0  0
    7.1701   -2.2481   21.3050 N   0  0  0  0  0  0  0  0  0  0  0  0
    9.0280    4.3427   25.8707 N   0  0  0  0  0  0  0  0  0  0  0  0
    5.7329   -3.3093   19.8210 O   0  0  0  0  0  0  0  0  0  0  0  0
    8.4089    2.6342   27.6991 O   0  0  0  0  0  0  0  0  0  0  0  0
   10.8024    3.3883   27.4761 O   0  0  0  0  0  0  0  0  0  0  0  0
   14.0176   -0.6207   22.0074 O   0  0  0  0  0  0  0  0  0  0  0  0
    9.5277    3.0440   26.8621 S   0  0  0  0  0  0  0  0  0  0  0  0
    6.7018   -0.4855   18.4590 Cl  0  0  0  0  0  0  0  0  0  0  0  0
    7.4078   -5.3288   26.2698 H   0  0  0  0  0  0  0  0  0  0  0  0
    9.8470   -4.9075   26.1327 H   0  0  0  0  0  0  0  0  0  0  0  0
    8.1565   -0.6948   24.0846 H   0  0  0  0  0  0  0  0  0  0  0  0
    5.8848   -4.3396   24.5994 H   0  0  0  0  0  0  0  0  0  0  0  0
   10.7618   -3.4753   24.3477 H   0  0  0  0  0  0  0  0  0  0  0  0
    7.7850    1.0468   25.7469 H   0  0  0  0  0  0  0  0  0  0  0  0
   13.3882    1.1719   23.8055 H   0  0  0  0  0  0  0  0  0  0  0  0
   11.8686    2.3359   25.3809 H   0  0  0  0  0  0  0  0  0  0  0  0
   11.9302   -2.1109   21.4643 H   0  0  0  0  0  0  0  0  0  0  0  0
    5.8157   -3.5458   22.1604 H   0  0  0  0  0  0  0  0  0  0  0  0
    5.9173   -1.9674   22.9666 H   0  0  0  0  0  0  0  0  0  0  0  0
    8.0055   -0.5016   22.1610 H   0  0  0  0  0  0  0  0  0  0  0  0
    8.6905   -1.0359   20.6284 H   0  0  0  0  0  0  0  0  0  0  0  0
    9.8835   -2.8329   21.5793 H   0  0  0  0  0  0  0  0  0  0  0  0
   15.2004   -1.6587   20.6677 H   0  0  0  0  0  0  0  0  0  0  0  0
   13.4745   -1.4984   20.2166 H   0  0  0  0  0  0  0  0  0  0  0  0
   13.9607   -2.6202   21.5149 H   0  0  0  0  0  0  0  0  0  0  0  0
    7.4023   -2.7012   18.0311 H   0  0  0  0  0  0  0  0  0  0  0  0
    8.4998   -1.8447   19.1686 H   0  0  0  0  0  0  0  0  0  0  0  0
    9.7355    4.7999   25.2826 H   0  0  0  0  0  0  0  0  0  0  0  0
    8.0992    4.2870   25.4353 H   0  0  0  0  0  0  0  0  0  0  0  0
  1  2  1  0  0  0  0
  1  4  2  0  0  0  0
  2  5  2  0  0  0  0
  3  6  2  0  0  0  0
  3 10  1  0  0  0  0
  4 12  1  0  0  0  0
  5 13  1  0  0  0  0
  6 16  1  0  0  0  0
  7 11  1  0  0  0  0
  7 15  2  0  0  0  0
  8 11  1  0  0  0  0
  8 16  2  0  0  0  0
  9 14  2  0  0  0  0
  9 15  1  0  0  0  0
 10 11  2  0  0  0  0
 10 14  1  0  0  0  0
 12 13  2  0  0  0  0
 12 18  1  0  0  0  0
 13 20  1  0  0  0  0
 14 20  1  0  0  0  0
 15 28  1  0  0  0  0
 16 29  1  0  0  0  0
 17 22  1  0  0  0  0
 17 23  1  0  0  0  0
 17 25  2  0  0  0  0
 18 23  1  0  0  0  0
 19 20  1  0  0  0  0
 19 23  1  0  0  0  0
 21 28  1  0  0  0  0
 22 30  1  0  0  0  0
 24 29  1  0  0  0  0
 26 29  2  0  0  0  0
 27 29  2  0  0  0  0
  1 31  1  0  0  0  0
  2 32  1  0  0  0  0
  3 33  1  0  0  0  0
  4 34  1  0  0  0  0
  5 35  1  0  0  0  0
  6 36  1  0  0  0  0
  7 37  1  0  0  0  0
  8 38  1  0  0  0  0
  9 39  1  0  0  0  0
 18 40  1  0  0  0  0
 18 41  1  0  0  0  0
 19 42  1  0  0  0  0
 19 43  1  0  0  0  0
 20 44  1  0  0  0  0
 21 45  1  0  0  0  0
 21 46  1  0  0  0  0
 21 47  1  0  0  0  0
 22 48  1  0  0  0  0
 22 49  1  0  0  0  0
 24 50  1  0  0  0  0
 24 51  1  0  0  0  0
M  END
> <creator>
Daren Fearon, Diamond Light Source Ltd

> <fragments>
x0830

> <real_space>
FALSE

> <SCR>
FALSE

> <BB>
FALSE

> <link>
https://covid.postera.ai/covid/submissions/caba39e3-6989-456c-b896-1cac12e2588e

> <covalent_frag>
TRUE

> <covalent_warhead>
TRUE

> <acrylamide>
FALSE

> <acrylamide_adduct>
FALSE

> <chloroacetamide>
TRUE

> <chloroacetamide_adduct>
FALSE

> <vinylsulfonamide>
FALSE

> <vinylsulfonamide_adduct>
FALSE

> <in_molport_or_mcule>
FALSE

> <in_emolecules>
FALSE

> <Hybrid2>
-6.223668

> <Mpro-x0830_dock>
-6.223668

> <Mpro-x0195_dock>
-6.149074

> <Mpro-x1392_dock>
-3.719295

> <Mpro-x0305_dock>
-3.307601

> <Mpro-x1249_dock>
-2.569923

> <site>
active-covalent

> <covalent_distance_min>
2.949378

> <covalent_distance_mean>
3.4218628

> <covalent_distance_stderr>
0.023325726

$$$$
MAK-UNK-e4a-21
  -OEChem-04062011563D

 41 43  0     0  0  0  0  0  0999 V2000
   11.0603    2.4557   22.7265 C   0  0  0  0  0  0  0  0  0  0  0  0
   11.1100   -2.1781   22.9010 C   0  0  0  0  0  0  0  0  0  0  0  0
   10.6243    3.7600   22.8064 C   0  0  0  0  0  0  0  0  0  0  0  0
   12.5984    3.3577   24.2174 C   0  0  0  0  0  0  0  0  0  0  0  0
   12.2038    2.2225   23.5439 C   0  0  0  0  0  0  0  0  0  0  0  0
   10.2448   -1.8972   23.9376 C   0  0  0  0  0  0  0  0  0  0  0  0
   12.0015   -0.2901   23.5720 C   0  0  0  0  0  0  0  0  0  0  0  0
    6.1615   -1.7421   19.8040 C   0  0  0  0  0  0  0  0  0  0  0  0
    6.6396   -3.4087   21.5689 C   0  0  0  0  0  0  0  0  0  0  0  0
    6.3717   -1.0536   22.2432 C   0  0  0  0  0  0  0  0  0  0  0  0
    7.9243   -3.5155   22.3775 C   0  0  0  0  0  0  0  0  0  0  0  0
    7.6522   -1.1255   23.0640 C   0  0  0  0  0  0  0  0  0  0  0  0
   12.9051    0.8783   23.6572 C   0  0  0  0  0  0  0  0  0  0  0  0
    9.0578   -2.6684   24.4349 C   0  0  0  0  0  0  0  0  0  0  0  0
    6.6017   -0.3849   19.3162 C   0  0  0  0  0  0  0  0  0  0  0  0
   12.1177   -1.2575   22.6896 N   0  0  0  0  0  0  0  0  0  0  0  0
    6.3966   -2.0289   21.1479 N   0  0  0  0  0  0  0  0  0  0  0  0
    7.8586   -2.5470   23.5373 N   0  3  0  0  0  0  0  0  0  0  0  0
    5.6275   -2.5233   19.0124 O   0  0  0  0  0  0  0  0  0  0  0  0
   11.5920    4.6972   23.8636 S   0  0  0  0  0  0  0  0  0  0  0  0
   10.7032   -0.4238   24.6862 S   0  0  0  0  0  0  0  0  0  0  0  0
    5.2259    0.6939   19.5192 Cl  0  0  0  0  0  0  0  0  0  0  0  0
   10.5789    1.7077   22.1092 H   0  0  0  0  0  0  0  0  0  0  0  0
   11.0520   -3.0481   22.2602 H   0  0  0  0  0  0  0  0  0  0  0  0
    9.7844    4.2075   22.2942 H   0  0  0  0  0  0  0  0  0  0  0  0
   13.4294    3.4691   24.9001 H   0  0  0  0  0  0  0  0  0  0  0  0
    6.6969   -4.0747   20.7023 H   0  0  0  0  0  0  0  0  0  0  0  0
    5.7770   -3.7273   22.1667 H   0  0  0  0  0  0  0  0  0  0  0  0
    5.5003   -1.2872   22.8669 H   0  0  0  0  0  0  0  0  0  0  0  0
    6.2384   -0.0339   21.8777 H   0  0  0  0  0  0  0  0  0  0  0  0
    8.0344   -4.5206   22.7974 H   0  0  0  0  0  0  0  0  0  0  0  0
    8.8082   -3.2659   21.7798 H   0  0  0  0  0  0  0  0  0  0  0  0
    8.5317   -0.8344   22.4788 H   0  0  0  0  0  0  0  0  0  0  0  0
    7.5757   -0.4933   23.9546 H   0  0  0  0  0  0  0  0  0  0  0  0
   13.6931    0.8307   22.8791 H   0  0  0  0  0  0  0  0  0  0  0  0
   13.4839    0.8665   24.6026 H   0  0  0  0  0  0  0  0  0  0  0  0
    9.2847   -3.7370   24.5138 H   0  0  0  0  0  0  0  0  0  0  0  0
    8.7460   -2.3194   25.4252 H   0  0  0  0  0  0  0  0  0  0  0  0
    6.8664   -0.4572   18.2674 H   0  0  0  0  0  0  0  0  0  0  0  0
    7.4334   -0.0461   19.9232 H   0  0  0  0  0  0  0  0  0  0  0  0
    7.0399   -2.8030   24.1063 H   0  0  0  0  0  0  0  0  0  0  0  0
  1  3  2  0  0  0  0
  1  5  1  0  0  0  0
  2  6  2  0  0  0  0
  2 16  1  0  0  0  0
  3 20  1  0  0  0  0
  4  5  2  0  0  0  0
  4 20  1  0  0  0  0
  5 13  1  0  0  0  0
  6 14  1  0  0  0  0
  6 21  1  0  0  0  0
  7 13  1  0  0  0  0
  7 16  2  0  0  0  0
  7 21  1  0  0  0  0
  8 15  1  0  0  0  0
  8 17  1  0  0  0  0
  8 19  2  0  0  0  0
  9 11  1  0  0  0  0
  9 17  1  0  0  0  0
 10 12  1  0  0  0  0
 10 17  1  0  0  0  0
 11 18  1  0  0  0  0
 12 18  1  0  0  0  0
 14 18  1  0  0  0  0
 15 22  1  0  0  0  0
  1 23  1  0  0  0  0
  2 24  1  0  0  0  0
  3 25  1  0  0  0  0
  4 26  1  0  0  0  0
  9 27  1  0  0  0  0
  9 28  1  0  0  0  0
 10 29  1  0  0  0  0
 10 30  1  0  0  0  0
 11 31  1  0  0  0  0
 11 32  1  0  0  0  0
 12 33  1  0  0  0  0
 12 34  1  0  0  0  0
 13 35  1  0  0  0  0
 13 36  1  0  0  0  0
 14 37  1  0  0  0  0
 14 38  1  0  0  0  0
 15 39  1  0  0  0  0
 15 40  1  0  0  0  0
 18 41  1  0  0  0  0
M  CHG  1  18   1
M  END
> <creator>
Maksym Voznyy

> <fragments>
x0692

> <real_space>
FALSE

> <SCR>
FALSE

> <BB>
FALSE

> <link>
https://covid.postera.ai/covid/submissions/e4a48a85-91ce-4c28-86d4-edf9997dafca

> <covalent_frag>
TRUE

> <covalent_warhead>
TRUE

> <acrylamide>
FALSE

> <acrylamide_adduct>
FALSE

> <chloroacetamide>
TRUE

> <chloroacetamide_adduct>
FALSE

> <vinylsulfonamide>
FALSE

> <vinylsulfonamide_adduct>
FALSE

> <in_molport_or_mcule>
FALSE

> <in_emolecules>
FALSE

> <Hybrid2>
-6.183504

> <Mpro-x0692_dock>
-6.183504

> <Mpro-x0387_dock>
-4.081141

> <site>
active-covalent

> <covalent_distance_min>
2.9455016

> <covalent_distance_mean>
3.3333862

> <covalent_distance_stderr>
0.009080154

$$$$
MAK-UNK-e4a-12
  -OEChem-04062011563D

 50 51  0     1  0  0  0  0  0999 V2000
   11.2402   -0.9272   22.9636 C   0  0  0  0  0  0  0  0  0  0  0  0
    5.4881   -6.1610   23.4618 C   0  0  0  0  0  0  0  0  0  0  0  0
    3.8424   -5.7665   25.3368 C   0  0  0  0  0  0  0  0  0  0  0  0
   10.1117   -3.1002   23.3177 C   0  0  0  0  0  0  0  0  0  0  0  0
    9.3605   -1.1740   24.6588 C   0  0  0  0  0  0  0  0  0  0  0  0
    6.3325   -7.0227   24.3943 C   0  0  0  0  0  0  0  0  0  0  0  0
    4.6956   -6.6320   26.2574 C   0  0  0  0  0  0  0  0  0  0  0  0
   10.1989   -3.9630   24.5681 C   0  0  0  0  0  0  0  0  0  0  0  0
    9.4346   -2.0089   25.9300 C   0  0  0  0  0  0  0  0  0  0  0  0
    4.0151   -6.1431   23.8658 C   0  0  0  0  0  0  0  0  0  0  0  0
   11.3590    0.5225   23.3612 C   0  0  0  0  0  0  0  0  0  0  0  0
    6.8573   -5.3304   26.1918 C   0  0  0  0  0  0  0  0  0  0  0  0
    8.3390   -5.5841   26.4814 C   0  0  1  0  0  0  0  0  0  0  0  0
    9.1619   -4.3299   26.8099 C   0  0  1  0  0  0  0  0  0  0  0  0
   10.2868   -1.6846   23.6425 N   0  0  0  0  0  0  0  0  0  0  0  0
    6.1437   -6.6057   25.8324 N   0  3  0  0  0  0  0  0  0  0  0  0
    9.1965   -3.4617   25.5837 N   0  3  0  0  0  0  0  0  0  0  0  0
   11.9753   -1.3717   22.0781 O   0  0  0  0  0  0  0  0  0  0  0  0
    3.4629   -7.4375   23.6324 O   0  0  0  0  0  0  0  0  0  0  0  0
    8.4507   -6.5375   27.5386 O   0  0  0  0  0  0  0  0  0  0  0  0
    8.6241   -3.6912   27.9604 O   0  0  0  0  0  0  0  0  0  0  0  0
   12.5251    0.5899   24.6778 Cl  0  0  0  0  0  0  0  0  0  0  0  0
    5.8782   -5.1342   23.4518 H   0  0  0  0  0  0  0  0  0  0  0  0
    5.5877   -6.5184   22.4266 H   0  0  0  0  0  0  0  0  0  0  0  0
    2.7831   -5.8474   25.6199 H   0  0  0  0  0  0  0  0  0  0  0  0
    4.1005   -4.7087   25.4791 H   0  0  0  0  0  0  0  0  0  0  0  0
   10.8643   -3.4285   22.5940 H   0  0  0  0  0  0  0  0  0  0  0  0
    9.1312   -3.2092   22.8384 H   0  0  0  0  0  0  0  0  0  0  0  0
    8.3521   -1.2144   24.2292 H   0  0  0  0  0  0  0  0  0  0  0  0
    9.5611   -0.1299   24.9049 H   0  0  0  0  0  0  0  0  0  0  0  0
    6.0317   -8.0766   24.3176 H   0  0  0  0  0  0  0  0  0  0  0  0
    7.4043   -6.9383   24.1624 H   0  0  0  0  0  0  0  0  0  0  0  0
    4.6492   -6.2824   27.2988 H   0  0  0  0  0  0  0  0  0  0  0  0
    4.3615   -7.6778   26.2155 H   0  0  0  0  0  0  0  0  0  0  0  0
    9.9402   -5.0020   24.3397 H   0  0  0  0  0  0  0  0  0  0  0  0
   11.1930   -3.9220   25.0274 H   0  0  0  0  0  0  0  0  0  0  0  0
   10.4151   -1.9343   26.4134 H   0  0  0  0  0  0  0  0  0  0  0  0
    8.6520   -1.7093   26.6346 H   0  0  0  0  0  0  0  0  0  0  0  0
    3.4707   -5.4316   23.2308 H   0  0  0  0  0  0  0  0  0  0  0  0
   10.3918    0.8738   23.7023 H   0  0  0  0  0  0  0  0  0  0  0  0
   11.7221    1.0909   22.5126 H   0  0  0  0  0  0  0  0  0  0  0  0
    6.7306   -4.6622   25.3344 H   0  0  0  0  0  0  0  0  0  0  0  0
    6.3362   -4.9152   27.0592 H   0  0  0  0  0  0  0  0  0  0  0  0
    8.7557   -6.0609   25.5852 H   0  0  0  0  0  0  0  0  0  0  0  0
   10.2088   -4.5854   27.0053 H   0  0  0  0  0  0  0  0  0  0  0  0
    6.6167   -7.3653   26.4068 H   0  0  0  0  0  0  0  0  0  0  0  0
    8.2636   -3.5258   25.1533 H   0  0  0  0  0  0  0  0  0  0  0  0
    2.5305   -7.3944   23.8975 H   0  0  0  0  0  0  0  0  0  0  0  0
    9.3989   -6.6686   27.6894 H   0  0  0  0  0  0  0  0  0  0  0  0
    8.6699   -4.3287   28.6933 H   0  0  0  0  0  0  0  0  0  0  0  0
  1 11  1  0  0  0  0
  1 15  1  0  0  0  0
  1 18  2  0  0  0  0
  2  6  1  0  0  0  0
  2 10  1  0  0  0  0
  3  7  1  0  0  0  0
  3 10  1  0  0  0  0
  4  8  1  0  0  0  0
  4 15  1  0  0  0  0
  5  9  1  0  0  0  0
  5 15  1  0  0  0  0
  6 16  1  0  0  0  0
  7 16  1  0  0  0  0
  8 17  1  0  0  0  0
  9 17  1  0  0  0  0
 10 19  1  0  0  0  0
 11 22  1  0  0  0  0
 12 13  1  0  0  0  0
 12 16  1  0  0  0  0
 13 14  1  0  0  0  0
 13 20  1  0  0  0  0
 14 17  1  0  0  0  0
 14 21  1  0  0  0  0
  2 23  1  0  0  0  0
  2 24  1  0  0  0  0
  3 25  1  0  0  0  0
  3 26  1  0  0  0  0
  4 27  1  0  0  0  0
  4 28  1  0  0  0  0
  5 29  1  0  0  0  0
  5 30  1  0  0  0  0
  6 31  1  0  0  0  0
  6 32  1  0  0  0  0
  7 33  1  0  0  0  0
  7 34  1  0  0  0  0
  8 35  1  0  0  0  0
  8 36  1  0  0  0  0
  9 37  1  0  0  0  0
  9 38  1  0  0  0  0
 10 39  1  0  0  0  0
 11 40  1  0  0  0  0
 11 41  1  0  0  0  0
 12 42  1  0  0  0  0
 12 43  1  0  0  0  0
 13 44  1  0  0  0  0
 14 45  1  0  0  0  0
 16 46  1  0  0  0  0
 17 47  1  0  0  0  0
 19 48  1  0  0  0  0
 20 49  1  0  0  0  0
 21 50  1  0  0  0  0
M  CHG  2  16   1  17   1
M  END
> <creator>
Maksym Voznyy

> <fragments>
x0387

> <real_space>
FALSE

> <SCR>
FALSE

> <BB>
FALSE

> <link>
https://covid.postera.ai/covid/submissions/e4a48a85-91ce-4c28-86d4-edf9997dafca

> <covalent_frag>
TRUE

> <covalent_warhead>
TRUE

> <acrylamide>
FALSE

> <acrylamide_adduct>
FALSE

> <chloroacetamide>
TRUE

> <chloroacetamide_adduct>
FALSE

> <vinylsulfonamide>
FALSE

> <vinylsulfonamide_adduct>
FALSE

> <in_molport_or_mcule>
FALSE

> <in_emolecules>
FALSE

> <Hybrid2>
-6.169175

> <Mpro-x0387_dock>
-6.169175

> <Mpro-x0692_dock>
-5.402276

> <site>
active-noncovalent

> <covalent_distance_min>
6.6071234

> <covalent_distance_mean>
7.7748103

> <covalent_distance_stderr>
0.061516058

$$$$
NIR-THE-99f-2
  -OEChem-04062011563D

 43 45  0     1  0  0  0  0  0999 V2000
    7.9253   -4.2440   24.9316 C   0  0  0  0  0  0  0  0  0  0  0  0
    7.1725   -5.3974   24.9084 C   0  0  0  0  0  0  0  0  0  0  0  0
    7.3929   -4.3931   22.6740 C   0  0  0  0  0  0  0  0  0  0  0  0
    8.0529   -3.6621   23.6373 C   0  0  0  0  0  0  0  0  0  0  0  0
    7.4719   -0.2709   23.2842 C   0  0  0  0  0  0  0  0  0  0  0  0
   10.9132    2.0689   22.0497 C   0  0  0  0  0  0  0  0  0  0  0  0
   12.6067    0.4566   24.8385 C   0  0  0  0  0  0  0  0  0  0  0  0
   12.0681   -0.9688   24.7217 C   0  0  0  0  0  0  0  0  0  0  0  0
   10.3169   -2.4942   23.7064 C   0  0  0  0  0  0  0  0  0  0  0  0
    9.5721   -0.4110   24.6224 C   0  0  0  0  0  0  0  0  0  0  0  0
   12.7861    1.1011   23.4677 C   0  0  0  0  0  0  0  0  0  0  0  0
   11.0296   -0.3598   22.5165 C   0  0  0  0  0  0  0  0  0  0  0  0
    8.8245   -2.3903   23.3558 C   0  0  2  0  0  0  0  0  0  0  0  0
    8.3207   -1.1625   24.1411 C   0  0  2  0  0  0  0  0  0  0  0  0
   10.7759   -1.0369   23.8835 C   0  0  1  0  0  0  0  0  0  0  0  0
   11.0459    3.4173   22.7113 C   0  0  0  0  0  0  0  0  0  0  0  0
   11.5572    0.9996   22.6737 N   0  0  0  0  0  0  0  0  0  0  0  0
    6.5636    0.4789   23.9935 N   0  0  0  0  0  0  0  0  0  0  0  0
    7.6050   -0.2188   22.0640 O   0  0  0  0  0  0  0  0  0  0  0  0
   10.2531    1.9700   21.0122 O   0  0  0  0  0  0  0  0  0  0  0  0
    6.6233   -5.7745   23.3309 S   0  0  0  0  0  0  0  0  0  0  0  0
   10.3276    3.2664   24.3110 Cl  0  0  0  0  0  0  0  0  0  0  0  0
    8.3623   -3.8407   25.8364 H   0  0  0  0  0  0  0  0  0  0  0  0
    6.9193   -6.0370   25.7421 H   0  0  0  0  0  0  0  0  0  0  0  0
    7.3242   -4.1862   21.6150 H   0  0  0  0  0  0  0  0  0  0  0  0
   11.9159    1.0599   25.4389 H   0  0  0  0  0  0  0  0  0  0  0  0
   13.5657    0.4513   25.3709 H   0  0  0  0  0  0  0  0  0  0  0  0
   12.8446   -1.6125   24.2912 H   0  0  0  0  0  0  0  0  0  0  0  0
   11.8683   -1.3554   25.7300 H   0  0  0  0  0  0  0  0  0  0  0  0
   10.4508   -3.0536   24.6425 H   0  0  0  0  0  0  0  0  0  0  0  0
   10.8720   -3.0331   22.9304 H   0  0  0  0  0  0  0  0  0  0  0  0
    9.5112    0.6715   24.4684 H   0  0  0  0  0  0  0  0  0  0  0  0
    9.6741   -0.5750   25.7027 H   0  0  0  0  0  0  0  0  0  0  0  0
   13.0137    2.1669   23.5742 H   0  0  0  0  0  0  0  0  0  0  0  0
   13.6276    0.6361   22.9481 H   0  0  0  0  0  0  0  0  0  0  0  0
   11.6841   -0.9689   21.8914 H   0  0  0  0  0  0  0  0  0  0  0  0
   10.0848   -0.2637   21.9639 H   0  0  0  0  0  0  0  0  0  0  0  0
    8.7289   -2.2122   22.2635 H   0  0  0  0  0  0  0  0  0  0  0  0
    7.7080   -1.4429   25.0072 H   0  0  0  0  0  0  0  0  0  0  0  0
   10.5021    4.1505   22.1267 H   0  0  0  0  0  0  0  0  0  0  0  0
   12.0978    3.6644   22.7972 H   0  0  0  0  0  0  0  0  0  0  0  0
    5.9506    1.1088   23.4865 H   0  0  0  0  0  0  0  0  0  0  0  0
    6.4817    0.4277   25.0037 H   0  0  0  0  0  0  0  0  0  0  0  0
  1  2  2  0  0  0  0
  1  4  1  0  0  0  0
  2 21  1  0  0  0  0
  3  4  2  0  0  0  0
  3 21  1  0  0  0  0
  4 13  1  0  0  0  0
  5 14  1  0  0  0  0
  5 18  1  0  0  0  0
  5 19  2  0  0  0  0
  6 16  1  0  0  0  0
  6 17  1  0  0  0  0
  6 20  2  0  0  0  0
  7  8  1  0  0  0  0
  7 11  1  0  0  0  0
  8 15  1  0  0  0  0
  9 13  1  0  0  0  0
  9 15  1  0  0  0  0
 10 14  1  0  0  0  0
 10 15  1  0  0  0  0
 11 17  1  0  0  0  0
 12 15  1  0  0  0  0
 12 17  1  0  0  0  0
 13 14  1  0  0  0  0
 16 22  1  0  0  0  0
  1 23  1  0  0  0  0
  2 24  1  0  0  0  0
  3 25  1  0  0  0  0
  7 26  1  0  0  0  0
  7 27  1  0  0  0  0
  8 28  1  0  0  0  0
  8 29  1  0  0  0  0
  9 30  1  0  0  0  0
  9 31  1  0  0  0  0
 10 32  1  0  0  0  0
 10 33  1  0  0  0  0
 11 34  1  0  0  0  0
 11 35  1  0  0  0  0
 12 36  1  0  0  0  0
 12 37  1  0  0  0  0
 13 38  1  0  0  0  0
 14 39  1  0  0  0  0
 16 40  1  0  0  0  0
 16 41  1  0  0  0  0
 18 42  1  0  0  0  0
 18 43  1  0  0  0  0
M  END
> <creator>
Nir London, The Weizmann Institute of Science

> <fragments>
x0874

> <real_space>
FALSE

> <SCR>
FALSE

> <BB>
FALSE

> <link>
https://covid.postera.ai/covid/submissions/99f25457-1a81-4d52-9016-814e9f4f52d4

> <covalent_frag>
TRUE

> <covalent_warhead>
TRUE

> <acrylamide>
FALSE

> <acrylamide_adduct>
FALSE

> <chloroacetamide>
TRUE

> <chloroacetamide_adduct>
FALSE

> <vinylsulfonamide>
FALSE

> <vinylsulfonamide_adduct>
FALSE

> <in_molport_or_mcule>
FALSE

> <in_emolecules>
FALSE

> <Hybrid2>
-6.155336

> <Mpro-x0874_dock>
-6.155336

> <Mpro-x0759_dock>
-4.166501

> <Mpro-x0820_dock>
-2.198826

> <Mpro-x1478_dock>
-1.795998

> <site>
active-noncovalent

> <covalent_distance_min>
7.9790993

> <covalent_distance_mean>
9.192791

> <covalent_distance_stderr>
0.10760939

$$$$
WAR-XCH-79d-8
  -OEChem-04062011563D

 47 49  0     0  0  0  0  0  0999 V2000
    7.4230   -6.2014   21.1285 C   0  0  0  0  0  0  0  0  0  0  0  0
    7.8591   -5.4020   22.1792 C   0  0  0  0  0  0  0  0  0  0  0  0
    6.2881   -5.8049   20.4396 C   0  0  0  0  0  0  0  0  0  0  0  0
    6.0340   -3.9377   21.7538 C   0  0  0  0  0  0  0  0  0  0  0  0
    7.1569   -4.2468   22.5044 C   0  0  0  0  0  0  0  0  0  0  0  0
    4.8928   -6.6783   27.1462 C   0  0  0  0  0  0  0  0  0  0  0  0
    9.6244   -1.3265   22.6889 C   0  0  0  0  0  0  0  0  0  0  0  0
    8.1322   -1.1323   22.4407 C   0  0  0  0  0  0  0  0  0  0  0  0
    9.9852   -2.7978   22.8643 C   0  0  0  0  0  0  0  0  0  0  0  0
    7.2809   -1.8310   23.5068 C   0  0  0  0  0  0  0  0  0  0  0  0
    9.1347   -3.4499   23.9561 C   0  0  0  0  0  0  0  0  0  0  0  0
    6.9107   -5.2711   26.8834 C   0  0  0  0  0  0  0  0  0  0  0  0
    4.7787   -4.4151   25.9918 C   0  0  0  0  0  0  0  0  0  0  0  0
    7.6129   -4.9457   25.5732 C   0  0  0  0  0  0  0  0  0  0  0  0
    5.4497   -4.0748   24.6680 C   0  0  0  0  0  0  0  0  0  0  0  0
    7.6132   -3.3414   23.6597 C   0  0  0  0  0  0  0  0  0  0  0  0
    3.4180   -6.8468   26.8813 C   0  0  0  0  0  0  0  0  0  0  0  0
    5.5798   -4.6897   20.7262 N   0  0  0  0  0  0  0  0  0  0  0  0
    5.4830   -5.5086   26.6698 N   0  0  0  0  0  0  0  0  0  0  0  0
    6.9120   -3.7783   24.9150 N   0  3  0  0  0  0  0  0  0  0  0  0
    5.5007   -7.5619   27.7561 O   0  0  0  0  0  0  0  0  0  0  0  0
    2.6051   -5.5115   27.6899 Cl  0  0  0  0  0  0  0  0  0  0  0  0
    7.9548   -7.1062   20.8572 H   0  0  0  0  0  0  0  0  0  0  0  0
    8.7463   -5.6865   22.7384 H   0  0  0  0  0  0  0  0  0  0  0  0
    5.9071   -6.3945   19.6122 H   0  0  0  0  0  0  0  0  0  0  0  0
    5.4458   -3.0490   21.9609 H   0  0  0  0  0  0  0  0  0  0  0  0
   10.1910   -0.9110   21.8454 H   0  0  0  0  0  0  0  0  0  0  0  0
    9.9263   -0.7636   23.5803 H   0  0  0  0  0  0  0  0  0  0  0  0
    7.8970   -0.0610   22.4160 H   0  0  0  0  0  0  0  0  0  0  0  0
    7.8727   -1.5297   21.4515 H   0  0  0  0  0  0  0  0  0  0  0  0
    9.8308   -3.3248   21.9200 H   0  0  0  0  0  0  0  0  0  0  0  0
   11.0454   -2.8894   23.1114 H   0  0  0  0  0  0  0  0  0  0  0  0
    7.4022   -1.3180   24.4620 H   0  0  0  0  0  0  0  0  0  0  0  0
    6.2302   -1.7221   23.2276 H   0  0  0  0  0  0  0  0  0  0  0  0
    9.4115   -4.5020   24.0203 H   0  0  0  0  0  0  0  0  0  0  0  0
    9.3674   -3.0016   24.9195 H   0  0  0  0  0  0  0  0  0  0  0  0
    7.3845   -6.1430   27.3452 H   0  0  0  0  0  0  0  0  0  0  0  0
    7.0037   -4.4382   27.5910 H   0  0  0  0  0  0  0  0  0  0  0  0
    4.7954   -3.5502   26.6661 H   0  0  0  0  0  0  0  0  0  0  0  0
    3.7304   -4.6572   25.8092 H   0  0  0  0  0  0  0  0  0  0  0  0
    8.6495   -4.6438   25.7548 H   0  0  0  0  0  0  0  0  0  0  0  0
    7.5908   -5.7894   24.8743 H   0  0  0  0  0  0  0  0  0  0  0  0
    5.3902   -4.9030   23.9529 H   0  0  0  0  0  0  0  0  0  0  0  0
    5.0043   -3.1759   24.2295 H   0  0  0  0  0  0  0  0  0  0  0  0
    3.0910   -7.7910   27.3017 H   0  0  0  0  0  0  0  0  0  0  0  0
    3.2450   -6.7958   25.8124 H   0  0  0  0  0  0  0  0  0  0  0  0
    6.9555   -2.9856   25.5719 H   0  0  0  0  0  0  0  0  0  0  0  0
  1  2  2  0  0  0  0
  1  3  1  0  0  0  0
  2  5  1  0  0  0  0
  3 18  2  0  0  0  0
  4  5  2  0  0  0  0
  4 18  1  0  0  0  0
  5 16  1  0  0  0  0
  6 17  1  0  0  0  0
  6 19  1  0  0  0  0
  6 21  2  0  0  0  0
  7  8  1  0  0  0  0
  7  9  1  0  0  0  0
  8 10  1  0  0  0  0
  9 11  1  0  0  0  0
 10 16  1  0  0  0  0
 11 16  1  0  0  0  0
 12 14  1  0  0  0  0
 12 19  1  0  0  0  0
 13 15  1  0  0  0  0
 13 19  1  0  0  0  0
 14 20  1  0  0  0  0
 15 20  1  0  0  0  0
 16 20  1  0  0  0  0
 17 22  1  0  0  0  0
  1 23  1  0  0  0  0
  2 24  1  0  0  0  0
  3 25  1  0  0  0  0
  4 26  1  0  0  0  0
  7 27  1  0  0  0  0
  7 28  1  0  0  0  0
  8 29  1  0  0  0  0
  8 30  1  0  0  0  0
  9 31  1  0  0  0  0
  9 32  1  0  0  0  0
 10 33  1  0  0  0  0
 10 34  1  0  0  0  0
 11 35  1  0  0  0  0
 11 36  1  0  0  0  0
 12 37  1  0  0  0  0
 12 38  1  0  0  0  0
 13 39  1  0  0  0  0
 13 40  1  0  0  0  0
 14 41  1  0  0  0  0
 14 42  1  0  0  0  0
 15 43  1  0  0  0  0
 15 44  1  0  0  0  0
 17 45  1  0  0  0  0
 17 46  1  0  0  0  0
 20 47  1  0  0  0  0
M  CHG  1  20   1
M  END
> <creator>
Warren Thompson, XChem - Diamond Light Source

> <fragments>
x1493

> <real_space>
FALSE

> <SCR>
FALSE

> <BB>
FALSE

> <link>
https://covid.postera.ai/covid/submissions/79d12f6e-a32e-4f5a-9965-cd14d93bc08a

> <covalent_frag>
TRUE

> <covalent_warhead>
TRUE

> <acrylamide>
FALSE

> <acrylamide_adduct>
FALSE

> <chloroacetamide>
TRUE

> <chloroacetamide_adduct>
FALSE

> <vinylsulfonamide>
FALSE

> <vinylsulfonamide_adduct>
FALSE

> <in_molport_or_mcule>
FALSE

> <in_emolecules>
FALSE

> <Hybrid2>
-6.150517

> <Mpro-x1493_dock>
-6.150517

> <Mpro-x1478_dock>
-2.751106

> <site>
active-covalent

> <covalent_distance_min>
10.212356

> <covalent_distance_mean>
11.228564

> <covalent_distance_stderr>
0.06963372

$$$$
MAK-UNK-af8-32
  -OEChem-04062011563D

 56 58  0     0  0  0  0  0  0999 V2000
    5.6593    0.3315   18.8035 C   0  0  0  0  0  0  0  0  0  0  0  0
    9.9072    6.0864   25.6336 C   0  0  0  0  0  0  0  0  0  0  0  0
    5.6237    2.2411   20.3407 C   0  0  0  0  0  0  0  0  0  0  0  0
   12.0120    5.8290   24.4212 C   0  0  0  0  0  0  0  0  0  0  0  0
    5.8697    2.7702   21.6028 C   0  0  0  0  0  0  0  0  0  0  0  0
   12.8233    5.1064   23.5536 C   0  0  0  0  0  0  0  0  0  0  0  0
    6.4218    0.1415   21.1225 C   0  0  0  0  0  0  0  0  0  0  0  0
    5.9023    0.9025   20.0878 C   0  0  0  0  0  0  0  0  0  0  0  0
   10.7476    5.3490   24.7439 C   0  0  0  0  0  0  0  0  0  0  0  0
    6.3906    1.9254   22.5697 C   0  0  0  0  0  0  0  0  0  0  0  0
   12.3276    3.9189   23.0397 C   0  0  0  0  0  0  0  0  0  0  0  0
   10.3447    4.1508   24.1765 C   0  0  0  0  0  0  0  0  0  0  0  0
   13.3849   -2.7733   24.3801 C   0  0  0  0  0  0  0  0  0  0  0  0
   13.4545   -0.3073   24.5672 C   0  0  0  0  0  0  0  0  0  0  0  0
   11.6625   -1.3146   23.2082 C   0  0  0  0  0  0  0  0  0  0  0  0
   13.7840    0.6683   23.4469 C   0  0  0  0  0  0  0  0  0  0  0  0
   11.9639   -0.3522   22.0673 C   0  0  0  0  0  0  0  0  0  0  0  0
   12.7071   -3.9841   23.7899 C   0  0  0  0  0  0  0  0  0  0  0  0
    7.5530    1.8336   24.7756 C   0  0  0  0  0  0  0  0  0  0  0  0
    8.9817    2.2197   24.4393 C   0  0  0  0  0  0  0  0  0  0  0  0
   12.7654    1.9594   21.5678 C   0  0  0  0  0  0  0  0  0  0  0  0
    5.4616   -0.1330   17.7586 N   0  0  0  0  0  0  0  0  0  0  0  0
    9.2247    6.6853   26.3563 N   0  0  0  0  0  0  0  0  0  0  0  0
    6.6740    0.6201   22.3614 N   0  0  0  0  0  0  0  0  0  0  0  0
   11.1048    3.4208   23.3299 N   0  0  0  0  0  0  0  0  0  0  0  0
   12.8522   -1.5311   24.0384 N   0  0  0  0  0  0  0  0  0  0  0  0
    6.6274    2.4596   23.8039 N   0  0  0  0  0  0  0  0  0  0  0  0
   13.1495    3.2090   22.1770 N   0  0  0  0  0  0  0  0  0  0  0  0
   12.5340    0.9279   22.6360 N   0  3  0  0  0  0  0  0  0  0  0  0
   14.3597   -2.9288   25.1201 O   0  0  0  0  0  0  0  0  0  0  0  0
    9.1071    3.6361   24.4665 O   0  0  0  0  0  0  0  0  0  0  0  0
   11.4758   -4.4846   24.9437 Cl  0  0  0  0  0  0  0  0  0  0  0  0
    5.2150    2.8833   19.5647 H   0  0  0  0  0  0  0  0  0  0  0  0
   12.3781    6.7642   24.8375 H   0  0  0  0  0  0  0  0  0  0  0  0
    5.6543    3.8134   21.8093 H   0  0  0  0  0  0  0  0  0  0  0  0
   13.8114    5.4738   23.2958 H   0  0  0  0  0  0  0  0  0  0  0  0
    6.6598   -0.9100   20.9892 H   0  0  0  0  0  0  0  0  0  0  0  0
   14.3636   -0.5349   25.1327 H   0  0  0  0  0  0  0  0  0  0  0  0
   12.7378    0.1356   25.2695 H   0  0  0  0  0  0  0  0  0  0  0  0
   10.8807   -0.9067   23.8604 H   0  0  0  0  0  0  0  0  0  0  0  0
   11.2783   -2.2490   22.7954 H   0  0  0  0  0  0  0  0  0  0  0  0
   14.1134    1.6292   23.8554 H   0  0  0  0  0  0  0  0  0  0  0  0
   14.5490    0.2730   22.7692 H   0  0  0  0  0  0  0  0  0  0  0  0
   12.6972   -0.7648   21.3653 H   0  0  0  0  0  0  0  0  0  0  0  0
   11.0462   -0.0904   21.5308 H   0  0  0  0  0  0  0  0  0  0  0  0
   13.4414   -4.7716   23.6643 H   0  0  0  0  0  0  0  0  0  0  0  0
   12.2452   -3.7049   22.8499 H   0  0  0  0  0  0  0  0  0  0  0  0
    7.4142    0.7487   24.7315 H   0  0  0  0  0  0  0  0  0  0  0  0
    7.2881    2.1883   25.7763 H   0  0  0  0  0  0  0  0  0  0  0  0
    9.2349    1.8775   23.4310 H   0  0  0  0  0  0  0  0  0  0  0  0
    9.6933    1.7895   25.1515 H   0  0  0  0  0  0  0  0  0  0  0  0
   13.5535    1.5613   20.9213 H   0  0  0  0  0  0  0  0  0  0  0  0
   11.8250    2.0471   21.0152 H   0  0  0  0  0  0  0  0  0  0  0  0
    6.1799    3.2998   24.1004 H   0  0  0  0  0  0  0  0  0  0  0  0
   14.0653    3.5938   21.9720 H   0  0  0  0  0  0  0  0  0  0  0  0
   11.8287    1.3210   23.2745 H   0  0  0  0  0  0  0  0  0  0  0  0
  1  8  1  0  0  0  0
  1 22  3  0  0  0  0
  2  9  1  0  0  0  0
  2 23  3  0  0  0  0
  3  5  2  0  0  0  0
  3  8  1  0  0  0  0
  4  6  2  0  0  0  0
  4  9  1  0  0  0  0
  5 10  1  0  0  0  0
  6 11  1  0  0  0  0
  7  8  2  0  0  0  0
  7 24  1  0  0  0  0
  9 12  2  0  0  0  0
 10 24  2  0  0  0  0
 10 27  1  0  0  0  0
 11 25  2  0  0  0  0
 11 28  1  0  0  0  0
 12 25  1  0  0  0  0
 12 31  1  0  0  0  0
 13 18  1  0  0  0  0
 13 26  1  0  0  0  0
 13 30  2  0  0  0  0
 14 16  1  0  0  0  0
 14 26  1  0  0  0  0
 15 17  1  0  0  0  0
 15 26  1  0  0  0  0
 16 29  1  0  0  0  0
 17 29  1  0  0  0  0
 18 32  1  0  0  0  0
 19 20  1  0  0  0  0
 19 27  1  0  0  0  0
 20 31  1  0  0  0  0
 21 28  1  0  0  0  0
 21 29  1  0  0  0  0
  3 33  1  0  0  0  0
  4 34  1  0  0  0  0
  5 35  1  0  0  0  0
  6 36  1  0  0  0  0
  7 37  1  0  0  0  0
 14 38  1  0  0  0  0
 14 39  1  0  0  0  0
 15 40  1  0  0  0  0
 15 41  1  0  0  0  0
 16 42  1  0  0  0  0
 16 43  1  0  0  0  0
 17 44  1  0  0  0  0
 17 45  1  0  0  0  0
 18 46  1  0  0  0  0
 18 47  1  0  0  0  0
 19 48  1  0  0  0  0
 19 49  1  0  0  0  0
 20 50  1  0  0  0  0
 20 51  1  0  0  0  0
 21 52  1  0  0  0  0
 21 53  1  0  0  0  0
 27 54  1  0  0  0  0
 28 55  1  0  0  0  0
 29 56  1  0  0  0  0
M  CHG  1  29   1
M  END
> <creator>
Maksym Voznyy

> <fragments>
x0161

> <real_space>
FALSE

> <SCR>
FALSE

> <BB>
FALSE

> <link>
https://covid.postera.ai/covid/submissions/af83ef51-35cf-489e-b3bd-9012d86d8275

> <covalent_frag>
TRUE

> <covalent_warhead>
TRUE

> <acrylamide>
FALSE

> <acrylamide_adduct>
FALSE

> <chloroacetamide>
TRUE

> <chloroacetamide_adduct>
FALSE

> <vinylsulfonamide>
FALSE

> <vinylsulfonamide_adduct>
FALSE

> <in_molport_or_mcule>
FALSE

> <in_emolecules>
FALSE

> <Hybrid2>
-6.126231

> <Mpro-x0161_dock>
-6.126231

> <Mpro-x0104_dock>
-5.211093

> <Mpro-x0072_dock>
-4.446514

> <Mpro-x0195_dock>
-3.935587

> <Mpro-x0387_dock>
-2.429214

> <Mpro-x0305_dock>
0.115787

> <Mpro-x0692_dock>
1.20138

> <site>
active-noncovalent

> <covalent_distance_min>
4.4115357

> <covalent_distance_mean>
5.0269265

> <covalent_distance_stderr>
0.03531096

$$$$
NIY-UNK-626-5
  -OEChem-04062011563D

 51 54  0     0  0  0  0  0  0999 V2000
    7.1801   -6.5768   21.8078 C   0  0  0  0  0  0  0  0  0  0  0  0
    6.7678   -5.6784   22.4894 C   0  0  0  0  0  0  0  0  0  0  0  0
   10.9959   -4.2438   24.4568 C   0  0  0  0  0  0  0  0  0  0  0  0
   11.5930   -3.3376   23.5807 C   0  0  0  0  0  0  0  0  0  0  0  0
    6.6422   -3.2936   23.0467 C   0  0  0  0  0  0  0  0  0  0  0  0
   10.8652   -1.5090   24.9774 C   0  0  0  0  0  0  0  0  0  0  0  0
    8.7591   -0.9585   22.6353 C   0  0  0  0  0  0  0  0  0  0  0  0
    5.4259   -4.8560   24.3643 C   0  0  0  0  0  0  0  0  0  0  0  0
    5.3050   -2.6242   24.8960 C   0  0  0  0  0  0  0  0  0  0  0  0
    7.7177    1.0913   22.9763 C   0  0  0  0  0  0  0  0  0  0  0  0
    6.2775   -4.6114   23.2991 C   0  0  0  0  0  0  0  0  0  0  0  0
   10.3261   -3.7917   25.6030 C   0  0  0  0  0  0  0  0  0  0  0  0
   10.2748   -2.4127   25.8711 C   0  0  0  0  0  0  0  0  0  0  0  0
    6.1511   -2.2750   23.8558 C   0  0  0  0  0  0  0  0  0  0  0  0
    7.6005   -0.2752   23.1053 C   0  0  0  0  0  0  0  0  0  0  0  0
   11.5252   -1.9712   23.8394 C   0  0  0  0  0  0  0  0  0  0  0  0
    9.7177   -0.0881   22.1647 C   0  0  0  0  0  0  0  0  0  0  0  0
    7.9340   -4.8613   28.3522 C   0  0  0  0  0  0  0  0  0  0  0  0
    9.5431   -1.9024   27.0837 C   0  0  0  0  0  0  0  0  0  0  0  0
    9.6849   -4.8008   26.5246 C   0  0  0  0  0  0  0  0  0  0  0  0
    9.4985   -2.9563   28.1830 C   0  0  0  0  0  0  0  0  0  0  0  0
    7.0905   -5.8184   27.5463 C   0  0  0  0  0  0  0  0  0  0  0  0
    4.9284   -3.8929   25.1722 N   0  0  0  0  0  0  0  0  0  0  0  0
    8.9662   -4.2165   27.6663 N   0  0  0  0  0  0  0  0  0  0  0  0
    6.5118   -0.8929   23.6183 N   0  0  0  0  0  0  0  0  0  0  0  0
   10.9889   -0.4952   21.6293 N   0  0  0  0  0  0  0  0  0  0  0  0
    7.6802   -4.6894   29.5469 O   0  0  0  0  0  0  0  0  0  0  0  0
   13.3158   -1.5403   22.0135 O   0  0  0  0  0  0  0  0  0  0  0  0
   12.6066    0.3740   23.4736 O   0  0  0  0  0  0  0  0  0  0  0  0
    9.2197    1.5454   22.2907 S   0  0  0  0  0  0  0  0  0  0  0  0
   12.2636   -0.8364   22.7371 S   0  0  0  0  0  0  0  0  0  0  0  0
    7.8792   -7.3884   27.6445 Cl  0  0  0  0  0  0  0  0  0  0  0  0
    7.5456   -7.3739   21.2036 H   0  0  0  0  0  0  0  0  0  0  0  0
   11.0515   -5.3077   24.2394 H   0  0  0  0  0  0  0  0  0  0  0  0
   12.1048   -3.7093   22.6970 H   0  0  0  0  0  0  0  0  0  0  0  0
    7.3102   -3.0560   22.2214 H   0  0  0  0  0  0  0  0  0  0  0  0
   10.8094   -0.4408   25.1749 H   0  0  0  0  0  0  0  0  0  0  0  0
    8.8834   -2.0347   22.6429 H   0  0  0  0  0  0  0  0  0  0  0  0
    5.1031   -5.8627   24.6140 H   0  0  0  0  0  0  0  0  0  0  0  0
    4.8893   -1.8737   25.5618 H   0  0  0  0  0  0  0  0  0  0  0  0
    6.9972    1.8501   23.2494 H   0  0  0  0  0  0  0  0  0  0  0  0
   10.0423   -1.0076   27.4740 H   0  0  0  0  0  0  0  0  0  0  0  0
    8.5253   -1.6180   26.7906 H   0  0  0  0  0  0  0  0  0  0  0  0
    8.9989   -5.4204   25.9395 H   0  0  0  0  0  0  0  0  0  0  0  0
   10.4630   -5.4486   26.9452 H   0  0  0  0  0  0  0  0  0  0  0  0
   10.5048   -3.1643   28.5683 H   0  0  0  0  0  0  0  0  0  0  0  0
    8.8975   -2.5910   29.0219 H   0  0  0  0  0  0  0  0  0  0  0  0
    7.0620   -5.4792   26.5175 H   0  0  0  0  0  0  0  0  0  0  0  0
    6.1017   -5.8695   27.9863 H   0  0  0  0  0  0  0  0  0  0  0  0
    5.7311   -0.2784   23.9263 H   0  0  0  0  0  0  0  0  0  0  0  0
   10.9327   -1.1064   20.8039 H   0  0  0  0  0  0  0  0  0  0  0  0
  1  2  3  0  0  0  0
  2 11  1  0  0  0  0
  3  4  2  0  0  0  0
  3 12  1  0  0  0  0
  4 16  1  0  0  0  0
  5 11  2  0  0  0  0
  5 14  1  0  0  0  0
  6 13  1  0  0  0  0
  6 16  2  0  0  0  0
  7 15  1  0  0  0  0
  7 17  2  0  0  0  0
  8 11  1  0  0  0  0
  8 23  2  0  0  0  0
  9 14  2  0  0  0  0
  9 23  1  0  0  0  0
 10 15  2  0  0  0  0
 10 30  1  0  0  0  0
 12 13  2  0  0  0  0
 12 20  1  0  0  0  0
 13 19  1  0  0  0  0
 14 25  1  0  0  0  0
 15 25  1  0  0  0  0
 16 31  1  0  0  0  0
 17 26  1  0  0  0  0
 17 30  1  0  0  0  0
 18 22  1  0  0  0  0
 18 24  1  0  0  0  0
 18 27  2  0  0  0  0
 19 21  1  0  0  0  0
 20 24  1  0  0  0  0
 21 24  1  0  0  0  0
 22 32  1  0  0  0  0
 26 31  1  0  0  0  0
 28 31  2  0  0  0  0
 29 31  2  0  0  0  0
  1 33  1  0  0  0  0
  3 34  1  0  0  0  0
  4 35  1  0  0  0  0
  5 36  1  0  0  0  0
  6 37  1  0  0  0  0
  7 38  1  0  0  0  0
  8 39  1  0  0  0  0
  9 40  1  0  0  0  0
 10 41  1  0  0  0  0
 19 42  1  0  0  0  0
 19 43  1  0  0  0  0
 20 44  1  0  0  0  0
 20 45  1  0  0  0  0
 21 46  1  0  0  0  0
 21 47  1  0  0  0  0
 22 48  1  0  0  0  0
 22 49  1  0  0  0  0
 25 50  1  0  0  0  0
 26 51  1  0  0  0  0
M  END
> <creator>
Niyaz Zaman

> <fragments>
x0387

> <real_space>
FALSE

> <SCR>
FALSE

> <BB>
FALSE

> <link>
https://covid.postera.ai/covid/submissions/62612a68-06cc-4f11-8abb-79197bdbf3d2

> <covalent_frag>
TRUE

> <covalent_warhead>
TRUE

> <acrylamide>
FALSE

> <acrylamide_adduct>
FALSE

> <chloroacetamide>
TRUE

> <chloroacetamide_adduct>
FALSE

> <vinylsulfonamide>
FALSE

> <vinylsulfonamide_adduct>
FALSE

> <in_molport_or_mcule>
FALSE

> <in_emolecules>
FALSE

> <Hybrid2>
-6.106668

> <Mpro-x0387_dock>
-6.106668

> <Mpro-x0195_dock>
-5.354877

> <Mpro-x0305_dock>
-3.931489

> <Mpro-x0736_dock>
0.711291

> <Mpro-x0689_dock>
1.474789

> <Mpro-x1374_dock>
3.28179

> <site>
active-noncovalent

> <covalent_distance_min>
7.4935584

> <covalent_distance_mean>
8.596702

> <covalent_distance_stderr>
0.12277419

$$$$
SIM-SYN-f15-1
  -OEChem-04062011563D

 45 47  0     0  0  0  0  0  0999 V2000
    9.1488   -4.1384   26.2761 C   0  0  0  0  0  0  0  0  0  0  0  0
   12.6143    1.6642   23.9117 C   0  0  0  0  0  0  0  0  0  0  0  0
    9.4061   -2.8047   26.5930 C   0  0  0  0  0  0  0  0  0  0  0  0
    9.0038   -4.5231   24.9431 C   0  0  0  0  0  0  0  0  0  0  0  0
   12.9349    0.4080   23.3972 C   0  0  0  0  0  0  0  0  0  0  0  0
   11.2841    1.9911   24.1754 C   0  0  0  0  0  0  0  0  0  0  0  0
    9.5182   -1.8555   25.5771 C   0  0  0  0  0  0  0  0  0  0  0  0
    9.1159   -3.5739   23.9272 C   0  0  0  0  0  0  0  0  0  0  0  0
   11.9255   -0.5213   23.1463 C   0  0  0  0  0  0  0  0  0  0  0  0
   10.2746    1.0617   23.9245 C   0  0  0  0  0  0  0  0  0  0  0  0
    9.3732   -2.2401   24.2441 C   0  0  0  0  0  0  0  0  0  0  0  0
   10.5953   -0.1945   23.4100 C   0  0  0  0  0  0  0  0  0  0  0  0
    6.0937   -1.9502   19.4095 C   0  0  0  0  0  0  0  0  0  0  0  0
    6.9649   -2.4259   21.6746 C   0  0  0  0  0  0  0  0  0  0  0  0
    8.1705   -0.7765   20.2889 C   0  0  0  0  0  0  0  0  0  0  0  0
    6.9975   -1.4784   22.8647 C   0  0  0  0  0  0  0  0  0  0  0  0
    8.2219    0.1933   21.4619 C   0  0  0  0  0  0  0  0  0  0  0  0
    5.7432   -0.8004   18.4990 C   0  0  0  0  0  0  0  0  0  0  0  0
    9.4950   -1.2063   23.1366 C   0  0  0  0  0  0  0  0  0  0  0  0
    7.0306   -1.6923   20.4101 N   0  0  0  0  0  0  0  0  0  0  0  0
    8.1891   -0.5535   22.7749 N   0  3  0  0  0  0  0  0  0  0  0  0
    5.5482   -3.0432   19.2368 O   0  0  0  0  0  0  0  0  0  0  0  0
    5.0519    0.4568   19.5185 Cl  0  0  0  0  0  0  0  0  0  0  0  0
    9.0629   -4.8776   27.0672 H   0  0  0  0  0  0  0  0  0  0  0  0
   13.4005    2.3872   24.1083 H   0  0  0  0  0  0  0  0  0  0  0  0
    9.5201   -2.5052   27.6308 H   0  0  0  0  0  0  0  0  0  0  0  0
    8.8046   -5.5616   24.6959 H   0  0  0  0  0  0  0  0  0  0  0  0
   13.9707    0.1529   23.1928 H   0  0  0  0  0  0  0  0  0  0  0  0
   11.0342    2.9686   24.5770 H   0  0  0  0  0  0  0  0  0  0  0  0
    9.7186   -0.8185   25.8335 H   0  0  0  0  0  0  0  0  0  0  0  0
    9.0013   -3.8827   22.8915 H   0  0  0  0  0  0  0  0  0  0  0  0
   12.1847   -1.4976   22.7452 H   0  0  0  0  0  0  0  0  0  0  0  0
    9.2410    1.3252   24.1329 H   0  0  0  0  0  0  0  0  0  0  0  0
    7.7925   -3.1393   21.7527 H   0  0  0  0  0  0  0  0  0  0  0  0
    6.0354   -3.0096   21.6683 H   0  0  0  0  0  0  0  0  0  0  0  0
    8.0506   -0.2321   19.3435 H   0  0  0  0  0  0  0  0  0  0  0  0
    9.1194   -1.3137   20.2278 H   0  0  0  0  0  0  0  0  0  0  0  0
    6.0951   -0.8472   22.8807 H   0  0  0  0  0  0  0  0  0  0  0  0
    7.0657   -2.0228   23.8211 H   0  0  0  0  0  0  0  0  0  0  0  0
    9.1384    0.8063   21.4466 H   0  0  0  0  0  0  0  0  0  0  0  0
    7.3482    0.8637   21.4462 H   0  0  0  0  0  0  0  0  0  0  0  0
    5.0105   -1.1367   17.7744 H   0  0  0  0  0  0  0  0  0  0  0  0
    6.6485   -0.4393   18.0246 H   0  0  0  0  0  0  0  0  0  0  0  0
    9.7403   -1.7486   22.2135 H   0  0  0  0  0  0  0  0  0  0  0  0
    8.0332    0.1861   23.5191 H   0  0  0  0  0  0  0  0  0  0  0  0
  1  3  1  0  0  0  0
  1  4  2  0  0  0  0
  2  5  1  0  0  0  0
  2  6  2  0  0  0  0
  3  7  2  0  0  0  0
  4  8  1  0  0  0  0
  5  9  2  0  0  0  0
  6 10  1  0  0  0  0
  7 11  1  0  0  0  0
  8 11  2  0  0  0  0
  9 12  1  0  0  0  0
 10 12  2  0  0  0  0
 11 19  1  0  0  0  0
 12 19  1  0  0  0  0
 13 18  1  0  0  0  0
 13 20  1  0  0  0  0
 13 22  2  0  0  0  0
 14 16  1  0  0  0  0
 14 20  1  0  0  0  0
 15 17  1  0  0  0  0
 15 20  1  0  0  0  0
 16 21  1  0  0  0  0
 17 21  1  0  0  0  0
 18 23  1  0  0  0  0
 19 21  1  0  0  0  0
  1 24  1  0  0  0  0
  2 25  1  0  0  0  0
  3 26  1  0  0  0  0
  4 27  1  0  0  0  0
  5 28  1  0  0  0  0
  6 29  1  0  0  0  0
  7 30  1  0  0  0  0
  8 31  1  0  0  0  0
  9 32  1  0  0  0  0
 10 33  1  0  0  0  0
 14 34  1  0  0  0  0
 14 35  1  0  0  0  0
 15 36  1  0  0  0  0
 15 37  1  0  0  0  0
 16 38  1  0  0  0  0
 16 39  1  0  0  0  0
 17 40  1  0  0  0  0
 17 41  1  0  0  0  0
 18 42  1  0  0  0  0
 18 43  1  0  0  0  0
 19 44  1  0  0  0  0
 21 45  1  0  0  0  0
M  CHG  1  21   1
M  END
> <creator>
Simon Williams, Syngenta

> <fragments>
x0692

> <real_space>
Z57821431

> <SCR>
Z199040704

> <BB>
EN300-18364

> <link>
https://covid.postera.ai/covid/submissions/f15aaa3a-53a3-4dd7-ba06-87a3faf5de20

> <covalent_frag>
TRUE

> <covalent_warhead>
TRUE

> <acrylamide>
FALSE

> <acrylamide_adduct>
FALSE

> <chloroacetamide>
TRUE

> <chloroacetamide_adduct>
FALSE

> <vinylsulfonamide>
FALSE

> <vinylsulfonamide_adduct>
FALSE

> <in_molport_or_mcule>
TRUE

> <in_emolecules>
TRUE

> <Hybrid2>
-6.083106

> <Mpro-x0692_dock>
-6.083106

> <Mpro-x1334_dock>
-4.224158

> <site>
active-covalent

> <covalent_distance_min>
3.572626

> <covalent_distance_mean>
4.1659713

> <covalent_distance_stderr>
0.030983556

$$$$
NIY-UNK-626-1
  -OEChem-04062011563D

 55 58  0     0  0  0  0  0  0999 V2000
    3.5298    2.9077   19.7247 C   0  0  0  0  0  0  0  0  0  0  0  0
    4.4893    2.1974   19.8539 C   0  0  0  0  0  0  0  0  0  0  0  0
    8.6088   -3.7257   29.1519 C   0  0  0  0  0  0  0  0  0  0  0  0
    5.9968    0.4578   19.0102 C   0  0  0  0  0  0  0  0  0  0  0  0
    7.6136   -4.5931   28.7028 C   0  0  0  0  0  0  0  0  0  0  0  0
    9.4823   -3.1373   28.2411 C   0  0  0  0  0  0  0  0  0  0  0  0
    7.1135   -0.3515   19.1874 C   0  0  0  0  0  0  0  0  0  0  0  0
    9.8967   -0.5117   22.7464 C   0  0  0  0  0  0  0  0  0  0  0  0
    6.4049    1.4015   21.1548 C   0  0  0  0  0  0  0  0  0  0  0  0
   10.9416   -2.1391   21.4571 C   0  0  0  0  0  0  0  0  0  0  0  0
    5.6290    1.3537   20.0079 C   0  0  0  0  0  0  0  0  0  0  0  0
    7.4906   -4.8856   27.3378 C   0  0  0  0  0  0  0  0  0  0  0  0
    8.3596   -4.2789   26.4143 C   0  0  0  0  0  0  0  0  0  0  0  0
    9.3584   -3.4110   26.8791 C   0  0  0  0  0  0  0  0  0  0  0  0
    9.8979   -1.2425   21.5232 C   0  0  0  0  0  0  0  0  0  0  0  0
   10.9396   -0.8779   23.5688 C   0  0  0  0  0  0  0  0  0  0  0  0
    7.8231   -0.2271   20.3710 C   0  0  0  0  0  0  0  0  0  0  0  0
    6.5499   -5.4391   23.2833 C   0  0  0  0  0  0  0  0  0  0  0  0
    6.3973   -5.8038   26.8606 C   0  0  0  0  0  0  0  0  0  0  0  0
    8.2503   -4.5458   24.9325 C   0  0  0  0  0  0  0  0  0  0  0  0
    6.7621   -6.4477   25.5289 C   0  0  0  0  0  0  0  0  0  0  0  0
   10.3183   -2.7533   25.9392 C   0  0  0  0  0  0  0  0  0  0  0  0
   11.2845   -0.3510   24.9275 C   0  0  0  0  0  0  0  0  0  0  0  0
    7.1130   -4.4673   22.2755 C   0  0  0  0  0  0  0  0  0  0  0  0
    7.4964    0.6315   21.3628 N   0  0  0  0  0  0  0  0  0  0  0  0
    7.1382   -5.4282   24.5503 N   0  0  0  0  0  0  0  0  0  0  0  0
    8.9828   -1.0773   20.5404 N   0  0  0  0  0  0  0  0  0  0  0  0
    5.6169   -6.1768   22.9568 O   0  0  0  0  0  0  0  0  0  0  0  0
   10.5168   -0.6038   27.4134 O   0  0  0  0  0  0  0  0  0  0  0  0
    8.7757   -0.6727   25.5870 O   0  0  0  0  0  0  0  0  0  0  0  0
   11.9143   -2.0978   22.8659 S   0  0  0  0  0  0  0  0  0  0  0  0
   10.1011   -1.0101   26.0806 S   0  0  0  0  0  0  0  0  0  0  0  0
    6.1681   -2.9899   22.4197 Cl  0  0  0  0  0  0  0  0  0  0  0  0
    2.6787    3.5375   19.6105 H   0  0  0  0  0  0  0  0  0  0  0  0
    8.7011   -3.5081   30.2119 H   0  0  0  0  0  0  0  0  0  0  0  0
    5.4232    0.3794   18.0901 H   0  0  0  0  0  0  0  0  0  0  0  0
    6.9349   -5.0417   29.4238 H   0  0  0  0  0  0  0  0  0  0  0  0
   10.2557   -2.4640   28.6017 H   0  0  0  0  0  0  0  0  0  0  0  0
    7.4084   -1.0527   18.4136 H   0  0  0  0  0  0  0  0  0  0  0  0
    9.1687    0.2452   23.0122 H   0  0  0  0  0  0  0  0  0  0  0  0
    6.1710    2.0802   21.9701 H   0  0  0  0  0  0  0  0  0  0  0  0
   11.1850   -2.8191   20.6521 H   0  0  0  0  0  0  0  0  0  0  0  0
    6.2255   -6.5962   27.5986 H   0  0  0  0  0  0  0  0  0  0  0  0
    5.4686   -5.2290   26.7616 H   0  0  0  0  0  0  0  0  0  0  0  0
    8.1440   -3.5915   24.4085 H   0  0  0  0  0  0  0  0  0  0  0  0
    9.1659   -5.0379   24.5829 H   0  0  0  0  0  0  0  0  0  0  0  0
    7.6217   -7.1205   25.6410 H   0  0  0  0  0  0  0  0  0  0  0  0
    5.9222   -7.0493   25.1666 H   0  0  0  0  0  0  0  0  0  0  0  0
   10.1336   -3.0353   24.8982 H   0  0  0  0  0  0  0  0  0  0  0  0
   11.3591   -2.9868   26.1838 H   0  0  0  0  0  0  0  0  0  0  0  0
   11.2302    0.7404   24.9698 H   0  0  0  0  0  0  0  0  0  0  0  0
   12.2825   -0.6641   25.2473 H   0  0  0  0  0  0  0  0  0  0  0  0
    6.9996   -4.8871   21.2829 H   0  0  0  0  0  0  0  0  0  0  0  0
    8.1505   -4.2720   22.5194 H   0  0  0  0  0  0  0  0  0  0  0  0
    9.0959   -1.6739   19.6960 H   0  0  0  0  0  0  0  0  0  0  0  0
  1  2  3  0  0  0  0
  2 11  1  0  0  0  0
  3  5  1  0  0  0  0
  3  6  2  0  0  0  0
  4  7  2  0  0  0  0
  4 11  1  0  0  0  0
  5 12  2  0  0  0  0
  6 14  1  0  0  0  0
  7 17  1  0  0  0  0
  8 15  1  0  0  0  0
  8 16  2  0  0  0  0
  9 11  2  0  0  0  0
  9 25  1  0  0  0  0
 10 15  2  0  0  0  0
 10 31  1  0  0  0  0
 12 13  1  0  0  0  0
 12 19  1  0  0  0  0
 13 14  2  0  0  0  0
 13 20  1  0  0  0  0
 14 22  1  0  0  0  0
 15 27  1  0  0  0  0
 16 23  1  0  0  0  0
 16 31  1  0  0  0  0
 17 25  2  0  0  0  0
 17 27  1  0  0  0  0
 18 24  1  0  0  0  0
 18 26  1  0  0  0  0
 18 28  2  0  0  0  0
 19 21  1  0  0  0  0
 20 26  1  0  0  0  0
 21 26  1  0  0  0  0
 22 32  1  0  0  0  0
 23 32  1  0  0  0  0
 24 33  1  0  0  0  0
 29 32  2  0  0  0  0
 30 32  2  0  0  0  0
  1 34  1  0  0  0  0
  3 35  1  0  0  0  0
  4 36  1  0  0  0  0
  5 37  1  0  0  0  0
  6 38  1  0  0  0  0
  7 39  1  0  0  0  0
  8 40  1  0  0  0  0
  9 41  1  0  0  0  0
 10 42  1  0  0  0  0
 19 43  1  0  0  0  0
 19 44  1  0  0  0  0
 20 45  1  0  0  0  0
 20 46  1  0  0  0  0
 21 47  1  0  0  0  0
 21 48  1  0  0  0  0
 22 49  1  0  0  0  0
 22 50  1  0  0  0  0
 23 51  1  0  0  0  0
 23 52  1  0  0  0  0
 24 53  1  0  0  0  0
 24 54  1  0  0  0  0
 27 55  1  0  0  0  0
M  END
> <creator>
Niyaz Zaman

> <fragments>
x0387

> <real_space>
FALSE

> <SCR>
FALSE

> <BB>
FALSE

> <link>
https://covid.postera.ai/covid/submissions/62612a68-06cc-4f11-8abb-79197bdbf3d2

> <covalent_frag>
TRUE

> <covalent_warhead>
TRUE

> <acrylamide>
FALSE

> <acrylamide_adduct>
FALSE

> <chloroacetamide>
TRUE

> <chloroacetamide_adduct>
FALSE

> <vinylsulfonamide>
FALSE

> <vinylsulfonamide_adduct>
FALSE

> <in_molport_or_mcule>
FALSE

> <in_emolecules>
FALSE

> <Hybrid2>
-6.075204

> <Mpro-x0387_dock>
-6.075204

> <Mpro-x0305_dock>
-4.924801

> <Mpro-x1374_dock>
-0.953829

> <Mpro-x0195_dock>
-0.910185

> <Mpro-x0736_dock>
-0.581719

> <Mpro-x0689_dock>
1.5636

> <site>
active-noncovalent

> <covalent_distance_min>
3.286966

> <covalent_distance_mean>
4.140998

> <covalent_distance_stderr>
0.031217583

$$$$
DAV-CRI-d1e-4
  -OEChem-04062011563D

 41 42  0     0  0  0  0  0  0999 V2000
   13.0970   -1.3896   21.5194 C   0  0  0  0  0  0  0  0  0  0  0  0
   12.9492    0.4934   23.0950 C   0  0  0  0  0  0  0  0  0  0  0  0
   12.4392   -0.6716   22.5657 C   0  0  0  0  0  0  0  0  0  0  0  0
   11.2114   -1.0475   23.1832 C   0  0  0  0  0  0  0  0  0  0  0  0
   10.8299   -0.1555   24.1613 C   0  0  0  0  0  0  0  0  0  0  0  0
    6.0711   -2.1280   19.3903 C   0  0  0  0  0  0  0  0  0  0  0  0
    6.8289   -2.8205   21.6413 C   0  0  0  0  0  0  0  0  0  0  0  0
    7.6251   -0.6586   20.7665 C   0  0  0  0  0  0  0  0  0  0  0  0
    8.2479   -3.2092   22.0299 C   0  0  0  0  0  0  0  0  0  0  0  0
    9.0568   -1.0142   21.1439 C   0  0  0  0  0  0  0  0  0  0  0  0
    7.7107    0.6525   26.0026 C   0  0  0  0  0  0  0  0  0  0  0  0
   10.4256   -2.2706   22.8122 C   0  0  0  0  0  0  0  0  0  0  0  0
    6.1305   -1.0979   18.2907 C   0  0  0  0  0  0  0  0  0  0  0  0
    9.1349    0.9138   25.6478 C   0  0  0  0  0  0  0  0  0  0  0  0
   13.6310   -1.9725   20.6698 N   0  0  0  0  0  0  0  0  0  0  0  0
    6.8301   -1.8685   20.5305 N   0  0  0  0  0  0  0  0  0  0  0  0
    9.7168   -0.2198   24.9362 N   0  0  0  0  0  0  0  0  0  0  0  0
    9.0384   -1.9548   22.3280 N   0  3  0  0  0  0  0  0  0  0  0  0
    5.3727   -3.1334   19.2374 O   0  0  0  0  0  0  0  0  0  0  0  0
   11.9495    1.1289   24.3316 S   0  0  0  0  0  0  0  0  0  0  0  0
    5.5121    0.4025   18.9722 Cl  0  0  0  0  0  0  0  0  0  0  0  0
   13.8602    1.0085   22.8212 H   0  0  0  0  0  0  0  0  0  0  0  0
    6.2619   -3.7199   21.3813 H   0  0  0  0  0  0  0  0  0  0  0  0
    6.3127   -2.3435   22.4833 H   0  0  0  0  0  0  0  0  0  0  0  0
    7.1390   -0.1033   21.5779 H   0  0  0  0  0  0  0  0  0  0  0  0
    7.6379   -0.0031   19.8941 H   0  0  0  0  0  0  0  0  0  0  0  0
    8.2466   -3.8180   22.9398 H   0  0  0  0  0  0  0  0  0  0  0  0
    8.7615   -3.7478   21.2256 H   0  0  0  0  0  0  0  0  0  0  0  0
    9.5849   -1.5146   20.3246 H   0  0  0  0  0  0  0  0  0  0  0  0
    9.6095   -0.1191   21.4471 H   0  0  0  0  0  0  0  0  0  0  0  0
    7.6497   -0.2386   26.6447 H   0  0  0  0  0  0  0  0  0  0  0  0
    7.3018    1.5205   26.5405 H   0  0  0  0  0  0  0  0  0  0  0  0
    7.1293    0.4831   25.0843 H   0  0  0  0  0  0  0  0  0  0  0  0
   10.9190   -2.8298   22.0100 H   0  0  0  0  0  0  0  0  0  0  0  0
   10.3141   -2.9440   23.6688 H   0  0  0  0  0  0  0  0  0  0  0  0
    5.4997   -1.4221   17.4709 H   0  0  0  0  0  0  0  0  0  0  0  0
    7.1623   -0.9703   17.9842 H   0  0  0  0  0  0  0  0  0  0  0  0
    9.1873    1.8057   25.0061 H   0  0  0  0  0  0  0  0  0  0  0  0
    9.7079    1.0912   26.5698 H   0  0  0  0  0  0  0  0  0  0  0  0
    9.2288   -1.1170   25.0492 H   0  0  0  0  0  0  0  0  0  0  0  0
    8.5629   -1.4672   23.1000 H   0  0  0  0  0  0  0  0  0  0  0  0
  1  3  1  0  0  0  0
  1 15  3  0  0  0  0
  2  3  2  0  0  0  0
  2 20  1  0  0  0  0
  3  4  1  0  0  0  0
  4  5  2  0  0  0  0
  4 12  1  0  0  0  0
  5 17  1  0  0  0  0
  5 20  1  0  0  0  0
  6 13  1  0  0  0  0
  6 16  1  0  0  0  0
  6 19  2  0  0  0  0
  7  9  1  0  0  0  0
  7 16  1  0  0  0  0
  8 10  1  0  0  0  0
  8 16  1  0  0  0  0
  9 18  1  0  0  0  0
 10 18  1  0  0  0  0
 11 14  1  0  0  0  0
 12 18  1  0  0  0  0
 13 21  1  0  0  0  0
 14 17  1  0  0  0  0
  2 22  1  0  0  0  0
  7 23  1  0  0  0  0
  7 24  1  0  0  0  0
  8 25  1  0  0  0  0
  8 26  1  0  0  0  0
  9 27  1  0  0  0  0
  9 28  1  0  0  0  0
 10 29  1  0  0  0  0
 10 30  1  0  0  0  0
 11 31  1  0  0  0  0
 11 32  1  0  0  0  0
 11 33  1  0  0  0  0
 12 34  1  0  0  0  0
 12 35  1  0  0  0  0
 13 36  1  0  0  0  0
 13 37  1  0  0  0  0
 14 38  1  0  0  0  0
 14 39  1  0  0  0  0
 17 40  1  0  0  0  0
 18 41  1  0  0  0  0
M  CHG  1  18   1
M  END
> <creator>
David Briggs, Crick Institute

> <fragments>
x1386

> <real_space>
FALSE

> <SCR>
FALSE

> <BB>
FALSE

> <link>
https://covid.postera.ai/covid/submissions/d1e0885a-4deb-43bc-868d-ea4ea14cd272

> <covalent_frag>
TRUE

> <covalent_warhead>
TRUE

> <acrylamide>
FALSE

> <acrylamide_adduct>
FALSE

> <chloroacetamide>
TRUE

> <chloroacetamide_adduct>
FALSE

> <vinylsulfonamide>
FALSE

> <vinylsulfonamide_adduct>
FALSE

> <in_molport_or_mcule>
FALSE

> <in_emolecules>
FALSE

> <Hybrid2>
-6.074709

> <Mpro-x1386_dock>
-6.074709

> <Mpro-x0305_dock>
-5.21981

> <Mpro-x1418_dock>
-5.170163

> <site>
active-covalent

> <covalent_distance_min>
3.1660879

> <covalent_distance_mean>
4.1065054

> <covalent_distance_stderr>
0.09170461

$$$$
MAK-UNK-af8-29
  -OEChem-04062011563D

 57 60  0     0  0  0  0  0  0999 V2000
   13.3094    3.2010   24.1645 C   0  0  0  0  0  0  0  0  0  0  0  0
   13.6341    4.4963   24.5521 C   0  0  0  0  0  0  0  0  0  0  0  0
   11.0466    3.8943   23.9288 C   0  0  0  0  0  0  0  0  0  0  0  0
   10.5875   -0.0204   22.4749 C   0  0  0  0  0  0  0  0  0  0  0  0
   11.9933    2.8860   23.8452 C   0  0  0  0  0  0  0  0  0  0  0  0
   11.6284    1.5621   23.4427 C   0  0  0  0  0  0  0  0  0  0  0  0
   12.6139    5.4325   24.6039 C   0  0  0  0  0  0  0  0  0  0  0  0
   12.2578    0.4082   23.8548 C   0  0  0  0  0  0  0  0  0  0  0  0
   13.6171   -1.0891   24.8258 C   0  0  0  0  0  0  0  0  0  0  0  0
   12.9501   -2.2737   24.1905 C   0  0  0  0  0  0  0  0  0  0  0  0
   11.9123   -1.9718   23.3804 C   0  0  0  0  0  0  0  0  0  0  0  0
    6.2677   -4.8335   24.6169 C   0  0  0  0  0  0  0  0  0  0  0  0
    7.9682   -3.0497   24.8355 C   0  0  0  0  0  0  0  0  0  0  0  0
    7.3678   -3.8046   22.5678 C   0  0  0  0  0  0  0  0  0  0  0  0
    9.4488   -3.1769   24.5082 C   0  0  0  0  0  0  0  0  0  0  0  0
    8.8405   -3.9415   22.2054 C   0  0  0  0  0  0  0  0  0  0  0  0
   13.5263   -3.6070   24.5382 C   0  0  0  0  0  0  0  0  0  0  0  0
   11.0110    7.9889   25.6714 C   0  0  0  0  0  0  0  0  0  0  0  0
   11.1005   -2.9753   22.6463 C   0  0  0  0  0  0  0  0  0  0  0  0
    6.0159   -6.1391   23.9058 C   0  0  0  0  0  0  0  0  0  0  0  0
   12.1445    7.8808   24.7091 C   0  0  0  0  0  0  0  0  0  0  0  0
   11.3240    5.1639   24.3013 N   0  0  0  0  0  0  0  0  0  0  0  0
   10.5951    1.2888   22.5884 N   0  0  0  0  0  0  0  0  0  0  0  0
   13.3073    0.1624   24.6798 N   0  0  0  0  0  0  0  0  0  0  0  0
   11.5763   -0.6183   23.2217 N   0  0  0  0  0  0  0  0  0  0  0  0
    7.1680   -3.9570   24.0129 N   0  0  0  0  0  0  0  0  0  0  0  0
   12.9609    6.7478   25.0006 N   0  0  0  0  0  0  0  0  0  0  0  0
    9.6462   -2.9582   23.0248 N   0  3  0  0  0  0  0  0  0  0  0  0
    5.6829   -4.6026   25.6784 O   0  0  0  0  0  0  0  0  0  0  0  0
    4.6420   -5.8743   22.8380 Cl  0  0  0  0  0  0  0  0  0  0  0  0
   14.0920    2.4482   24.1146 H   0  0  0  0  0  0  0  0  0  0  0  0
   14.6586    4.7508   24.8027 H   0  0  0  0  0  0  0  0  0  0  0  0
   10.0015    3.7134   23.6942 H   0  0  0  0  0  0  0  0  0  0  0  0
    9.8925   -0.5856   21.8686 H   0  0  0  0  0  0  0  0  0  0  0  0
   14.4647   -1.3327   25.4890 H   0  0  0  0  0  0  0  0  0  0  0  0
    7.8107   -3.2499   25.9000 H   0  0  0  0  0  0  0  0  0  0  0  0
    7.6138   -2.0301   24.6412 H   0  0  0  0  0  0  0  0  0  0  0  0
    6.9933   -2.8117   22.2907 H   0  0  0  0  0  0  0  0  0  0  0  0
    6.7903   -4.5342   21.9976 H   0  0  0  0  0  0  0  0  0  0  0  0
   10.0277   -2.4089   25.0312 H   0  0  0  0  0  0  0  0  0  0  0  0
    9.8412   -4.1693   24.7576 H   0  0  0  0  0  0  0  0  0  0  0  0
    9.2228   -4.9469   22.4145 H   0  0  0  0  0  0  0  0  0  0  0  0
    9.0027   -3.6969   21.1507 H   0  0  0  0  0  0  0  0  0  0  0  0
   13.0292   -4.0049   25.4226 H   0  0  0  0  0  0  0  0  0  0  0  0
   14.5931   -3.5079   24.7392 H   0  0  0  0  0  0  0  0  0  0  0  0
   13.3877   -4.2977   23.7063 H   0  0  0  0  0  0  0  0  0  0  0  0
   11.4053    8.0893   26.6934 H   0  0  0  0  0  0  0  0  0  0  0  0
   10.4035    8.8721   25.4245 H   0  0  0  0  0  0  0  0  0  0  0  0
   10.3874    7.0851   25.6063 H   0  0  0  0  0  0  0  0  0  0  0  0
   11.4607   -3.9868   22.8541 H   0  0  0  0  0  0  0  0  0  0  0  0
   11.1450   -2.7913   21.5695 H   0  0  0  0  0  0  0  0  0  0  0  0
    5.7752   -6.8988   24.6406 H   0  0  0  0  0  0  0  0  0  0  0  0
    6.8940   -6.3981   23.3254 H   0  0  0  0  0  0  0  0  0  0  0  0
   11.7421    7.7807   23.6902 H   0  0  0  0  0  0  0  0  0  0  0  0
   12.7580    8.7915   24.7732 H   0  0  0  0  0  0  0  0  0  0  0  0
   13.8191    6.8525   25.5022 H   0  0  0  0  0  0  0  0  0  0  0  0
    9.2971   -2.0155   22.8033 H   0  0  0  0  0  0  0  0  0  0  0  0
  1  2  2  0  0  0  0
  1  5  1  0  0  0  0
  2  7  1  0  0  0  0
  3  5  2  0  0  0  0
  3 22  1  0  0  0  0
  4 23  2  0  0  0  0
  4 25  1  0  0  0  0
  5  6  1  0  0  0  0
  6  8  2  0  0  0  0
  6 23  1  0  0  0  0
  7 22  2  0  0  0  0
  7 27  1  0  0  0  0
  8 24  1  0  0  0  0
  8 25  1  0  0  0  0
  9 10  1  0  0  0  0
  9 24  2  0  0  0  0
 10 11  2  0  0  0  0
 10 17  1  0  0  0  0
 11 19  1  0  0  0  0
 11 25  1  0  0  0  0
 12 20  1  0  0  0  0
 12 26  1  0  0  0  0
 12 29  2  0  0  0  0
 13 15  1  0  0  0  0
 13 26  1  0  0  0  0
 14 16  1  0  0  0  0
 14 26  1  0  0  0  0
 15 28  1  0  0  0  0
 16 28  1  0  0  0  0
 18 21  1  0  0  0  0
 19 28  1  0  0  0  0
 20 30  1  0  0  0  0
 21 27  1  0  0  0  0
  1 31  1  0  0  0  0
  2 32  1  0  0  0  0
  3 33  1  0  0  0  0
  4 34  1  0  0  0  0
  9 35  1  0  0  0  0
 13 36  1  0  0  0  0
 13 37  1  0  0  0  0
 14 38  1  0  0  0  0
 14 39  1  0  0  0  0
 15 40  1  0  0  0  0
 15 41  1  0  0  0  0
 16 42  1  0  0  0  0
 16 43  1  0  0  0  0
 17 44  1  0  0  0  0
 17 45  1  0  0  0  0
 17 46  1  0  0  0  0
 18 47  1  0  0  0  0
 18 48  1  0  0  0  0
 18 49  1  0  0  0  0
 19 50  1  0  0  0  0
 19 51  1  0  0  0  0
 20 52  1  0  0  0  0
 20 53  1  0  0  0  0
 21 54  1  0  0  0  0
 21 55  1  0  0  0  0
 27 56  1  0  0  0  0
 28 57  1  0  0  0  0
M  CHG  1  28   1
M  END
> <creator>
Maksym Voznyy

> <fragments>
x0161

> <real_space>
FALSE

> <SCR>
FALSE

> <BB>
FALSE

> <link>
https://covid.postera.ai/covid/submissions/af83ef51-35cf-489e-b3bd-9012d86d8275

> <covalent_frag>
TRUE

> <covalent_warhead>
TRUE

> <acrylamide>
FALSE

> <acrylamide_adduct>
FALSE

> <chloroacetamide>
TRUE

> <chloroacetamide_adduct>
FALSE

> <vinylsulfonamide>
FALSE

> <vinylsulfonamide_adduct>
FALSE

> <in_molport_or_mcule>
FALSE

> <in_emolecules>
FALSE

> <Hybrid2>
-6.067757

> <Mpro-x0161_dock>
-6.067757

> <Mpro-x0104_dock>
-4.35841

> <Mpro-x0387_dock>
-4.226778

> <Mpro-x0072_dock>
-3.615118

> <Mpro-x0305_dock>
-0.628503

> <Mpro-x0692_dock>
0.444821

> <site>
active-noncovalent

> <covalent_distance_min>
9.426068

> <covalent_distance_mean>
10.268547

> <covalent_distance_stderr>
0.09049303

$$$$
JAN-GHE-bf4-13
  -OEChem-04062011563D

 45 46  0     1  0  0  0  0  0999 V2000
    6.0225   -3.1492   20.2303 C   0  0  0  0  0  0  0  0  0  0  0  0
    5.6687   -2.6196   22.6169 C   0  0  0  0  0  0  0  0  0  0  0  0
    6.1330   -2.4195   23.8583 C   0  0  0  0  0  0  0  0  0  0  0  0
    7.8785   -2.5299   21.6216 C   0  0  0  0  0  0  0  0  0  0  0  0
    9.2038   -3.8612   24.2519 C   0  0  0  0  0  0  0  0  0  0  0  0
    6.5635   -2.7726   21.4908 C   0  0  0  0  0  0  0  0  0  0  0  0
    9.9292    3.7563   25.2286 C   0  0  0  0  0  0  0  0  0  0  0  0
    9.6591    2.9890   24.1675 C   0  0  0  0  0  0  0  0  0  0  0  0
   10.2931    1.6463   24.0356 C   0  0  0  0  0  0  0  0  0  0  0  0
    8.5031   -2.0912   22.9283 C   0  0  1  0  0  0  0  0  0  0  0  0
    7.6012   -2.3272   24.1622 C   0  0  2  0  0  0  0  0  0  0  0  0
    9.7640   -2.8839   23.2681 C   0  0  1  0  0  0  0  0  0  0  0  0
   12.4310    2.7293   23.4585 C   0  0  0  0  0  0  0  0  0  0  0  0
   11.5263   -1.7215   21.5720 C   0  0  0  0  0  0  0  0  0  0  0  0
   10.8404   -2.0468   23.9435 C   0  0  0  0  0  0  0  0  0  0  0  0
   12.5041    0.4889   24.4931 C   0  0  0  0  0  0  0  0  0  0  0  0
   12.7366   -0.5296   23.3931 C   0  0  0  0  0  0  0  0  0  0  0  0
    5.5816   -3.4566   19.2023 N   0  0  0  0  0  0  0  0  0  0  0  0
    8.0438   -3.6078   24.7624 N   0  0  0  0  0  0  0  0  0  0  0  0
   11.6791    1.6091   23.9883 N   0  0  0  0  0  0  0  0  0  0  0  0
   11.4151   -1.1136   22.9508 N   0  3  1  0  0  0  0  0  0  0  0  0
    9.5845    0.6421   23.9493 O   0  0  0  0  0  0  0  0  0  0  0  0
    4.5983   -2.6845   22.4461 H   0  0  0  0  0  0  0  0  0  0  0  0
    5.4325   -2.3260   24.6831 H   0  0  0  0  0  0  0  0  0  0  0  0
    8.5383   -2.6083   20.7600 H   0  0  0  0  0  0  0  0  0  0  0  0
    9.7872   -4.7500   24.5342 H   0  0  0  0  0  0  0  0  0  0  0  0
    9.4916    4.7389   25.3661 H   0  0  0  0  0  0  0  0  0  0  0  0
   10.6059    3.3991   25.9979 H   0  0  0  0  0  0  0  0  0  0  0  0
    8.9489    3.3314   23.4250 H   0  0  0  0  0  0  0  0  0  0  0  0
    8.7274   -1.0217   22.8215 H   0  0  0  0  0  0  0  0  0  0  0  0
    7.7632   -1.5251   24.8936 H   0  0  0  0  0  0  0  0  0  0  0  0
   10.1857   -3.4228   22.4136 H   0  0  0  0  0  0  0  0  0  0  0  0
   12.6651    3.4319   24.2718 H   0  0  0  0  0  0  0  0  0  0  0  0
   13.3663    2.3634   23.0096 H   0  0  0  0  0  0  0  0  0  0  0  0
   11.8325    3.2426   22.6915 H   0  0  0  0  0  0  0  0  0  0  0  0
   12.2028   -2.5757   21.6372 H   0  0  0  0  0  0  0  0  0  0  0  0
   10.5271   -2.0346   21.2632 H   0  0  0  0  0  0  0  0  0  0  0  0
   11.9230   -0.9572   20.9009 H   0  0  0  0  0  0  0  0  0  0  0  0
   11.6534   -2.6717   24.3141 H   0  0  0  0  0  0  0  0  0  0  0  0
   10.4249   -1.4472   24.7539 H   0  0  0  0  0  0  0  0  0  0  0  0
   11.9992    0.0375   25.3535 H   0  0  0  0  0  0  0  0  0  0  0  0
   13.4608    0.8966   24.8351 H   0  0  0  0  0  0  0  0  0  0  0  0
   13.3453   -1.3662   23.7476 H   0  0  0  0  0  0  0  0  0  0  0  0
   13.2001   -0.0871   22.5062 H   0  0  0  0  0  0  0  0  0  0  0  0
   10.7691   -0.3095   22.8539 H   0  0  0  0  0  0  0  0  0  0  0  0
  1  6  1  0  0  0  0
  1 18  3  0  0  0  0
  2  3  2  0  0  0  0
  2  6  1  0  0  0  0
  3 11  1  0  0  0  0
  4  6  2  0  0  0  0
  4 10  1  0  0  0  0
  5 12  1  0  0  0  0
  5 19  2  0  0  0  0
  7  8  2  0  0  0  0
  8  9  1  0  0  0  0
  9 20  1  0  0  0  0
  9 22  2  0  0  0  0
 10 11  1  0  0  0  0
 10 12  1  0  0  0  0
 11 19  1  0  0  0  0
 12 15  1  0  0  0  0
 13 20  1  0  0  0  0
 14 21  1  0  0  0  0
 15 21  1  0  0  0  0
 16 17  1  0  0  0  0
 16 20  1  0  0  0  0
 17 21  1  0  0  0  0
  2 23  1  0  0  0  0
  3 24  1  0  0  0  0
  4 25  1  0  0  0  0
  5 26  1  0  0  0  0
  7 27  1  0  0  0  0
  7 28  1  0  0  0  0
  8 29  1  0  0  0  0
 10 30  1  0  0  0  0
 11 31  1  0  0  0  0
 12 32  1  0  0  0  0
 13 33  1  0  0  0  0
 13 34  1  0  0  0  0
 13 35  1  0  0  0  0
 14 36  1  0  0  0  0
 14 37  1  0  0  0  0
 14 38  1  0  0  0  0
 15 39  1  0  0  0  0
 15 40  1  0  0  0  0
 16 41  1  0  0  0  0
 16 42  1  0  0  0  0
 17 43  1  0  0  0  0
 17 44  1  0  0  0  0
 21 45  1  0  0  0  0
M  CHG  1  21   1
M  END
> <creator>
Jan, Ghent university

> <fragments>
x0692

> <real_space>
FALSE

> <SCR>
FALSE

> <BB>
FALSE

> <link>
https://covid.postera.ai/covid/submissions/bf40f168-4eec-438e-a3f5-b4da0b83bc9c

> <covalent_frag>
TRUE

> <covalent_warhead>
TRUE

> <acrylamide>
TRUE

> <acrylamide_adduct>
FALSE

> <chloroacetamide>
FALSE

> <chloroacetamide_adduct>
FALSE

> <vinylsulfonamide>
FALSE

> <vinylsulfonamide_adduct>
FALSE

> <in_molport_or_mcule>
FALSE

> <in_emolecules>
FALSE

> <Hybrid2>
-6.055426

> <Mpro-x0692_dock>
-6.055426

> <Mpro-x0305_dock>
-4.670223

> <Mpro-x0755_dock>
-1.86383

> <site>
active-covalent

> <covalent_distance_min>
5.546829

> <covalent_distance_mean>
6.4834538

> <covalent_distance_stderr>
0.06717511

$$$$
NAU-LAT-f72-1
  -OEChem-04062011563D

 52 54  0     0  0  0  0  0  0999 V2000
   13.2638   -0.2439   23.7117 C   0  0  0  0  0  0  0  0  0  0  0  0
   11.6598   -1.9410   23.0452 C   0  0  0  0  0  0  0  0  0  0  0  0
   10.7911    2.2214   24.7927 C   0  0  0  0  0  0  0  0  0  0  0  0
   12.2007    0.6012   24.0875 C   0  0  0  0  0  0  0  0  0  0  0  0
   10.5891   -1.1203   23.4112 C   0  0  0  0  0  0  0  0  0  0  0  0
   12.1224    1.9129   24.6336 C   0  0  0  0  0  0  0  0  0  0  0  0
   10.8906    0.1444   23.9288 C   0  0  0  0  0  0  0  0  0  0  0  0
   12.9773   -1.5116   23.1924 C   0  0  0  0  0  0  0  0  0  0  0  0
    6.7790   -4.8885   27.0065 C   0  0  0  0  0  0  0  0  0  0  0  0
   12.8287    4.9767   22.8504 C   0  0  0  0  0  0  0  0  0  0  0  0
    8.6778   -3.3541   26.6048 C   0  0  0  0  0  0  0  0  0  0  0  0
    6.4735   -2.7301   25.6966 C   0  0  0  0  0  0  0  0  0  0  0  0
    9.3342   -3.0718   25.2613 C   0  0  0  0  0  0  0  0  0  0  0  0
    7.0974   -2.4364   24.3390 C   0  0  0  0  0  0  0  0  0  0  0  0
   11.9770    5.6265   21.8109 C   0  0  0  0  0  0  0  0  0  0  0  0
   13.2589    2.7931   24.9727 C   0  0  0  0  0  0  0  0  0  0  0  0
    9.1832   -1.6149   23.2389 C   0  0  0  0  0  0  0  0  0  0  0  0
    5.3181   -5.1878   26.7832 C   0  0  0  0  0  0  0  0  0  0  0  0
   12.8627    4.2583   25.2306 C   0  0  0  0  0  0  0  0  0  0  0  0
   10.0559    1.1485   24.3651 N   0  0  0  0  0  0  0  0  0  0  0  0
    7.2700   -3.7147   26.4367 N   0  0  0  0  0  0  0  0  0  0  0  0
   12.2214    4.8553   24.0900 N   0  0  0  0  0  0  0  0  0  0  0  0
    8.5357   -2.0120   24.5356 N   0  3  0  0  0  0  0  0  0  0  0  0
    7.4620   -5.6766   27.6656 O   0  0  0  0  0  0  0  0  0  0  0  0
   13.9597    4.6055   22.5594 O   0  0  0  0  0  0  0  0  0  0  0  0
   13.9829   -2.3212   22.8329 F   0  0  0  0  0  0  0  0  0  0  0  0
    4.9924   -6.7261   27.5740 Cl  0  0  0  0  0  0  0  0  0  0  0  0
   14.2962    0.0759   23.8202 H   0  0  0  0  0  0  0  0  0  0  0  0
   11.4708   -2.9319   22.6384 H   0  0  0  0  0  0  0  0  0  0  0  0
   10.2995    3.1065   25.1720 H   0  0  0  0  0  0  0  0  0  0  0  0
    9.2242   -4.1515   27.1181 H   0  0  0  0  0  0  0  0  0  0  0  0
    8.7159   -2.4675   27.2494 H   0  0  0  0  0  0  0  0  0  0  0  0
    6.4325   -1.8199   26.3071 H   0  0  0  0  0  0  0  0  0  0  0  0
    5.4446   -3.0641   25.5522 H   0  0  0  0  0  0  0  0  0  0  0  0
   10.3467   -2.6793   25.4006 H   0  0  0  0  0  0  0  0  0  0  0  0
    9.3677   -3.9631   24.6247 H   0  0  0  0  0  0  0  0  0  0  0  0
    7.0923   -3.3163   23.6859 H   0  0  0  0  0  0  0  0  0  0  0  0
    6.5776   -1.6082   23.8465 H   0  0  0  0  0  0  0  0  0  0  0  0
   12.1040    6.7208   21.7871 H   0  0  0  0  0  0  0  0  0  0  0  0
   12.2206    5.2829   20.7927 H   0  0  0  0  0  0  0  0  0  0  0  0
   10.8930    5.4630   21.9201 H   0  0  0  0  0  0  0  0  0  0  0  0
   14.0053    2.7826   24.1540 H   0  0  0  0  0  0  0  0  0  0  0  0
   13.8116    2.4153   25.8565 H   0  0  0  0  0  0  0  0  0  0  0  0
    8.5449   -0.8456   22.7912 H   0  0  0  0  0  0  0  0  0  0  0  0
    9.1507   -2.4956   22.5884 H   0  0  0  0  0  0  0  0  0  0  0  0
    5.1352   -5.2709   25.7179 H   0  0  0  0  0  0  0  0  0  0  0  0
    4.7250   -4.4025   27.2377 H   0  0  0  0  0  0  0  0  0  0  0  0
   12.1575    4.3332   26.0644 H   0  0  0  0  0  0  0  0  0  0  0  0
   13.7414    4.8658   25.4711 H   0  0  0  0  0  0  0  0  0  0  0  0
    9.0464    1.1007   24.3702 H   0  0  0  0  0  0  0  0  0  0  0  0
   11.2715    5.2071   24.1990 H   0  0  0  0  0  0  0  0  0  0  0  0
    8.5291   -1.1710   25.1292 H   0  0  0  0  0  0  0  0  0  0  0  0
  1  4  1  0  0  0  0
  1  8  2  0  0  0  0
  2  5  2  0  0  0  0
  2  8  1  0  0  0  0
  3  6  2  0  0  0  0
  3 20  1  0  0  0  0
  4  6  1  0  0  0  0
  4  7  2  0  0  0  0
  5  7  1  0  0  0  0
  5 17  1  0  0  0  0
  6 16  1  0  0  0  0
  7 20  1  0  0  0  0
  8 26  1  0  0  0  0
  9 18  1  0  0  0  0
  9 21  1  0  0  0  0
  9 24  2  0  0  0  0
 10 15  1  0  0  0  0
 10 22  1  0  0  0  0
 10 25  2  0  0  0  0
 11 13  1  0  0  0  0
 11 21  1  0  0  0  0
 12 14  1  0  0  0  0
 12 21  1  0  0  0  0
 13 23  1  0  0  0  0
 14 23  1  0  0  0  0
 16 19  1  0  0  0  0
 17 23  1  0  0  0  0
 18 27  1  0  0  0  0
 19 22  1  0  0  0  0
  1 28  1  0  0  0  0
  2 29  1  0  0  0  0
  3 30  1  0  0  0  0
 11 31  1  0  0  0  0
 11 32  1  0  0  0  0
 12 33  1  0  0  0  0
 12 34  1  0  0  0  0
 13 35  1  0  0  0  0
 13 36  1  0  0  0  0
 14 37  1  0  0  0  0
 14 38  1  0  0  0  0
 15 39  1  0  0  0  0
 15 40  1  0  0  0  0
 15 41  1  0  0  0  0
 16 42  1  0  0  0  0
 16 43  1  0  0  0  0
 17 44  1  0  0  0  0
 17 45  1  0  0  0  0
 18 46  1  0  0  0  0
 18 47  1  0  0  0  0
 19 48  1  0  0  0  0
 19 49  1  0  0  0  0
 20 50  1  0  0  0  0
 22 51  1  0  0  0  0
 23 52  1  0  0  0  0
M  CHG  1  23   1
M  END
> <creator>
Nauris Narvaiss, Latvian Institute of Organic Synthesis

> <fragments>
x0072

> <real_space>
FALSE

> <SCR>
FALSE

> <BB>
FALSE

> <link>
https://covid.postera.ai/covid/submissions/f723e322-ea7d-4382-bbcf-496494e8aab2

> <covalent_frag>
TRUE

> <covalent_warhead>
TRUE

> <acrylamide>
FALSE

> <acrylamide_adduct>
FALSE

> <chloroacetamide>
TRUE

> <chloroacetamide_adduct>
FALSE

> <vinylsulfonamide>
FALSE

> <vinylsulfonamide_adduct>
FALSE

> <in_molport_or_mcule>
FALSE

> <in_emolecules>
FALSE

> <Hybrid2>
-6.048683

> <Mpro-x0072_dock>
-6.048683

> <Mpro-x0104_dock>
-5.819488

> <Mpro-x0692_dock>
-5.765004

> <Mpro-x0397_dock>
-3.387765

> <Mpro-x1308_dock>
0.075785

> <site>
active-noncovalent

> <covalent_distance_min>
10.486722

> <covalent_distance_mean>
10.837458

> <covalent_distance_stderr>
0.058643807

$$$$
NIR-THE-99f-4
  -OEChem-04062011563D

 42 44  0     1  0  0  0  0  0999 V2000
    8.5977   -2.0960   24.9370 C   0  0  0  0  0  0  0  0  0  0  0  0
    5.0715   -3.8723   24.4153 C   0  0  0  0  0  0  0  0  0  0  0  0
    8.8793   -1.0476   25.7979 C   0  0  0  0  0  0  0  0  0  0  0  0
    4.0728   -4.4066   25.1993 C   0  0  0  0  0  0  0  0  0  0  0  0
    5.3804   -6.1476   24.0554 C   0  0  0  0  0  0  0  0  0  0  0  0
    9.5242   -2.3882   23.9423 C   0  0  0  0  0  0  0  0  0  0  0  0
    5.8290   -4.8808   23.7525 C   0  0  0  0  0  0  0  0  0  0  0  0
   10.6877   -1.6336   23.8404 C   0  0  0  0  0  0  0  0  0  0  0  0
   10.8756   -0.6058   24.7504 C   0  0  0  0  0  0  0  0  0  0  0  0
    6.1933   -3.2795   20.8235 C   0  0  0  0  0  0  0  0  0  0  0  0
   12.0508   -1.0389   21.8527 C   0  0  0  0  0  0  0  0  0  0  0  0
    8.3574   -4.6636   23.5511 C   0  0  0  0  0  0  0  0  0  0  0  0
    8.4953   -3.0548   21.7355 C   0  0  0  0  0  0  0  0  0  0  0  0
    9.2381   -3.5334   22.9858 C   0  0  1  0  0  0  0  0  0  0  0  0
    6.9931   -4.5912   22.8234 C   0  0  2  0  0  0  0  0  0  0  0  0
    7.0188   -3.2471   22.0737 C   0  0  2  0  0  0  0  0  0  0  0  0
   13.0818   -1.6746   20.9493 C   0  0  0  0  0  0  0  0  0  0  0  0
    9.9984   -0.2922   25.7300 N   0  0  0  0  0  0  0  0  0  0  0  0
    6.2952   -2.1393   20.0620 N   0  0  0  0  0  0  0  0  0  0  0  0
   11.6304   -1.9125   22.8472 N   0  0  0  0  0  0  0  0  0  0  0  0
    5.5089   -4.2530   20.5182 O   0  0  0  0  0  0  0  0  0  0  0  0
   11.6729    0.1110   21.6450 O   0  0  0  0  0  0  0  0  0  0  0  0
    4.0511   -6.1176   25.1345 S   0  0  0  0  0  0  0  0  0  0  0  0
   12.2711    0.4030   24.7340 Cl  0  0  0  0  0  0  0  0  0  0  0  0
   12.2211   -2.4566   19.6139 Cl  0  0  0  0  0  0  0  0  0  0  0  0
    7.6805   -2.6653   25.0435 H   0  0  0  0  0  0  0  0  0  0  0  0
    5.2472   -2.8077   24.3248 H   0  0  0  0  0  0  0  0  0  0  0  0
    8.1889   -0.7793   26.5909 H   0  0  0  0  0  0  0  0  0  0  0  0
    3.3554   -3.8742   25.8076 H   0  0  0  0  0  0  0  0  0  0  0  0
    5.7674   -7.0918   23.6978 H   0  0  0  0  0  0  0  0  0  0  0  0
    8.8340   -5.6573   23.4192 H   0  0  0  0  0  0  0  0  0  0  0  0
    8.2265   -4.5440   24.6491 H   0  0  0  0  0  0  0  0  0  0  0  0
    8.6910   -1.9892   21.5588 H   0  0  0  0  0  0  0  0  0  0  0  0
    8.8172   -3.5994   20.8414 H   0  0  0  0  0  0  0  0  0  0  0  0
   10.2293   -3.9512   22.6795 H   0  0  0  0  0  0  0  0  0  0  0  0
    6.9972   -5.4422   22.0745 H   0  0  0  0  0  0  0  0  0  0  0  0
    6.6645   -2.4086   22.6837 H   0  0  0  0  0  0  0  0  0  0  0  0
   13.6908   -2.4229   21.4628 H   0  0  0  0  0  0  0  0  0  0  0  0
   13.7397   -0.8997   20.5457 H   0  0  0  0  0  0  0  0  0  0  0  0
    5.7663   -2.0819   19.1980 H   0  0  0  0  0  0  0  0  0  0  0  0
    6.8782   -1.3529   20.3294 H   0  0  0  0  0  0  0  0  0  0  0  0
   12.0470   -2.8406   22.8532 H   0  0  0  0  0  0  0  0  0  0  0  0
  1  3  2  0  0  0  0
  1  6  1  0  0  0  0
  2  4  2  0  0  0  0
  2  7  1  0  0  0  0
  3 18  1  0  0  0  0
  4 23  1  0  0  0  0
  5  7  2  0  0  0  0
  5 23  1  0  0  0  0
  6  8  2  0  0  0  0
  6 14  1  0  0  0  0
  7 15  1  0  0  0  0
  8  9  1  0  0  0  0
  8 20  1  0  0  0  0
  9 18  2  0  0  0  0
  9 24  1  0  0  0  0
 10 16  1  0  0  0  0
 10 19  1  0  0  0  0
 10 21  2  0  0  0  0
 11 17  1  0  0  0  0
 11 20  1  0  0  0  0
 11 22  2  0  0  0  0
 12 14  1  0  0  0  0
 12 15  1  0  0  0  0
 13 14  1  0  0  0  0
 13 16  1  0  0  0  0
 15 16  1  0  0  0  0
 17 25  1  0  0  0  0
  1 26  1  0  0  0  0
  2 27  1  0  0  0  0
  3 28  1  0  0  0  0
  4 29  1  0  0  0  0
  5 30  1  0  0  0  0
 12 31  1  0  0  0  0
 12 32  1  0  0  0  0
 13 33  1  0  0  0  0
 13 34  1  0  0  0  0
 14 35  1  0  0  0  0
 15 36  1  0  0  0  0
 16 37  1  0  0  0  0
 17 38  1  0  0  0  0
 17 39  1  0  0  0  0
 19 40  1  0  0  0  0
 19 41  1  0  0  0  0
 20 42  1  0  0  0  0
M  END
> <creator>
Nir London, The Weizmann Institute of Science

> <fragments>
x0759

> <real_space>
FALSE

> <SCR>
FALSE

> <BB>
FALSE

> <link>
https://covid.postera.ai/covid/submissions/99f25457-1a81-4d52-9016-814e9f4f52d4

> <covalent_frag>
TRUE

> <covalent_warhead>
TRUE

> <acrylamide>
FALSE

> <acrylamide_adduct>
FALSE

> <chloroacetamide>
TRUE

> <chloroacetamide_adduct>
FALSE

> <vinylsulfonamide>
FALSE

> <vinylsulfonamide_adduct>
FALSE

> <in_molport_or_mcule>
FALSE

> <in_emolecules>
FALSE

> <Hybrid2>
-6.042750

> <Mpro-x0759_dock>
-6.04275

> <Mpro-x0874_dock>
-5.650756

> <Mpro-x0820_dock>
-5.138757

> <Mpro-x1478_dock>
-0.486338

> <site>
active-covalent

> <covalent_distance_min>
3.5457735

> <covalent_distance_mean>
4.440944

> <covalent_distance_stderr>
0.055688545

$$$$
DAN-LON-a5f-5
  -OEChem-04062011563D

 45 47  0     1  0  0  0  0  0999 V2000
    3.9696   -5.0751   23.6738 C   0  0  0  0  0  0  0  0  0  0  0  0
    4.8445   -5.8738   22.9374 C   0  0  0  0  0  0  0  0  0  0  0  0
    4.1864   -3.6999   23.7609 C   0  0  0  0  0  0  0  0  0  0  0  0
   11.9938    0.7735   24.0591 C   0  0  0  0  0  0  0  0  0  0  0  0
    5.9361   -5.2973   22.2881 C   0  0  0  0  0  0  0  0  0  0  0  0
    5.2780   -3.1234   23.1116 C   0  0  0  0  0  0  0  0  0  0  0  0
   10.9572   -0.0189   24.5522 C   0  0  0  0  0  0  0  0  0  0  0  0
   12.8009    0.3013   23.0240 C   0  0  0  0  0  0  0  0  0  0  0  0
   11.5350   -1.7559   22.9755 C   0  0  0  0  0  0  0  0  0  0  0  0
    6.1529   -3.9221   22.3752 C   0  0  0  0  0  0  0  0  0  0  0  0
   10.7278   -1.2836   24.0105 C   0  0  0  0  0  0  0  0  0  0  0  0
   12.5715   -0.9634   22.4823 C   0  0  0  0  0  0  0  0  0  0  0  0
    6.2215   -1.9053   19.9532 C   0  0  0  0  0  0  0  0  0  0  0  0
    7.8341   -0.8318   21.5785 C   0  0  0  0  0  0  0  0  0  0  0  0
    8.0457   -0.8337   23.0860 C   0  0  0  0  0  0  0  0  0  0  0  0
    8.5860   -3.2573   22.5673 C   0  0  0  0  0  0  0  0  0  0  0  0
    7.3467   -3.2910   21.6655 C   0  0  2  0  0  0  0  0  0  0  0  0
    9.6135   -2.1359   24.5423 C   0  0  0  0  0  0  0  0  0  0  0  0
    6.1399   -0.5759   19.2456 C   0  0  0  0  0  0  0  0  0  0  0  0
    7.0545   -1.9691   21.0790 N   0  0  0  0  0  0  0  0  0  0  0  0
    8.4247   -2.1934   23.6222 N   0  3  1  0  0  0  0  0  0  0  0  0
    5.5630   -2.8582   19.5277 O   0  0  0  0  0  0  0  0  0  0  0  0
   13.5684   -1.5460   21.2061 Cl  0  0  0  0  0  0  0  0  0  0  0  0
    4.7939    0.2977   19.9686 Cl  0  0  0  0  0  0  0  0  0  0  0  0
    3.1189   -5.5240   24.1782 H   0  0  0  0  0  0  0  0  0  0  0  0
    4.6753   -6.9444   22.8686 H   0  0  0  0  0  0  0  0  0  0  0  0
    3.5048   -3.0776   24.3333 H   0  0  0  0  0  0  0  0  0  0  0  0
   12.1721    1.7583   24.4813 H   0  0  0  0  0  0  0  0  0  0  0  0
    6.6127   -5.9274   21.7167 H   0  0  0  0  0  0  0  0  0  0  0  0
    5.4390   -2.0511   23.1851 H   0  0  0  0  0  0  0  0  0  0  0  0
   10.3334    0.3571   25.3590 H   0  0  0  0  0  0  0  0  0  0  0  0
   13.6053    0.9298   22.6498 H   0  0  0  0  0  0  0  0  0  0  0  0
   11.3517   -2.7425   22.5561 H   0  0  0  0  0  0  0  0  0  0  0  0
    7.3147    0.0980   21.2608 H   0  0  0  0  0  0  0  0  0  0  0  0
    8.8252   -0.7756   21.0880 H   0  0  0  0  0  0  0  0  0  0  0  0
    8.8449   -0.1223   23.3856 H   0  0  0  0  0  0  0  0  0  0  0  0
    7.1149   -0.5270   23.6063 H   0  0  0  0  0  0  0  0  0  0  0  0
    8.7281   -4.2097   23.0860 H   0  0  0  0  0  0  0  0  0  0  0  0
    9.4859   -3.0145   21.9939 H   0  0  0  0  0  0  0  0  0  0  0  0
    7.5726   -4.0129   20.8373 H   0  0  0  0  0  0  0  0  0  0  0  0
    9.9435   -3.1692   24.6947 H   0  0  0  0  0  0  0  0  0  0  0  0
    9.2495   -1.7566   25.5032 H   0  0  0  0  0  0  0  0  0  0  0  0
    5.9484   -0.7494   18.1928 H   0  0  0  0  0  0  0  0  0  0  0  0
    7.0650   -0.0346   19.4071 H   0  0  0  0  0  0  0  0  0  0  0  0
    7.6274   -2.5003   24.2339 H   0  0  0  0  0  0  0  0  0  0  0  0
  1  2  1  0  0  0  0
  1  3  2  0  0  0  0
  2  5  2  0  0  0  0
  3  6  1  0  0  0  0
  4  7  2  0  0  0  0
  4  8  1  0  0  0  0
  5 10  1  0  0  0  0
  6 10  2  0  0  0  0
  7 11  1  0  0  0  0
  8 12  2  0  0  0  0
  9 11  2  0  0  0  0
  9 12  1  0  0  0  0
 10 17  1  0  0  0  0
 11 18  1  0  0  0  0
 12 23  1  0  0  0  0
 13 19  1  0  0  0  0
 13 20  1  0  0  0  0
 13 22  2  0  0  0  0
 14 15  1  0  0  0  0
 14 20  1  0  0  0  0
 15 21  1  0  0  0  0
 16 17  1  0  0  0  0
 16 21  1  0  0  0  0
 17 20  1  0  0  0  0
 18 21  1  0  0  0  0
 19 24  1  0  0  0  0
  1 25  1  0  0  0  0
  2 26  1  0  0  0  0
  3 27  1  0  0  0  0
  4 28  1  0  0  0  0
  5 29  1  0  0  0  0
  6 30  1  0  0  0  0
  7 31  1  0  0  0  0
  8 32  1  0  0  0  0
  9 33  1  0  0  0  0
 14 34  1  0  0  0  0
 14 35  1  0  0  0  0
 15 36  1  0  0  0  0
 15 37  1  0  0  0  0
 16 38  1  0  0  0  0
 16 39  1  0  0  0  0
 17 40  1  0  0  0  0
 18 41  1  0  0  0  0
 18 42  1  0  0  0  0
 19 43  1  0  0  0  0
 19 44  1  0  0  0  0
 21 45  1  0  0  0  0
M  CHG  1  21   1
M  END
> <creator>
Daniel Zaidman, London Lab, Weizmann Institute of Science

> <fragments>
x0770

> <real_space>
FALSE

> <SCR>
FALSE

> <BB>
FALSE

> <link>
https://covid.postera.ai/covid/submissions/a5fc619e-a7a0-43cf-a105-697cf3dc31cf

> <covalent_frag>
TRUE

> <covalent_warhead>
TRUE

> <acrylamide>
FALSE

> <acrylamide_adduct>
FALSE

> <chloroacetamide>
TRUE

> <chloroacetamide_adduct>
FALSE

> <vinylsulfonamide>
FALSE

> <vinylsulfonamide_adduct>
FALSE

> <in_molport_or_mcule>
FALSE

> <in_emolecules>
FALSE

> <Hybrid2>
-5.993355

> <Mpro-x0770_dock>
-5.993355

> <site>
active-covalent

> <covalent_distance_min>
2.8502264

> <covalent_distance_mean>
3.3027442

> <covalent_distance_stderr>
0.008860646

$$$$
NIR-THE-99f-1
  -OEChem-04062011563D

 55 58  0     1  0  0  0  0  0999 V2000
   12.2583    4.3896   22.9559 C   0  0  0  0  0  0  0  0  0  0  0  0
   11.7345    3.2049   22.4470 C   0  0  0  0  0  0  0  0  0  0  0  0
    8.5759    4.6568   26.1245 C   0  0  0  0  0  0  0  0  0  0  0  0
   11.6072    5.0506   23.9978 C   0  0  0  0  0  0  0  0  0  0  0  0
   10.5576    2.6766   22.9781 C   0  0  0  0  0  0  0  0  0  0  0  0
    9.7528    5.1851   25.5934 C   0  0  0  0  0  0  0  0  0  0  0  0
    8.0520    3.4721   25.6156 C   0  0  0  0  0  0  0  0  0  0  0  0
   11.4568   -0.7613   22.2637 C   0  0  0  0  0  0  0  0  0  0  0  0
   12.7254   -0.2873   22.0112 C   0  0  0  0  0  0  0  0  0  0  0  0
   12.1113   -0.0654   24.3826 C   0  0  0  0  0  0  0  0  0  0  0  0
   10.4215    4.5332   24.5445 C   0  0  0  0  0  0  0  0  0  0  0  0
    9.8888    3.3285   24.0270 C   0  0  0  0  0  0  0  0  0  0  0  0
   11.1010   -0.6326   23.6373 C   0  0  0  0  0  0  0  0  0  0  0  0
    8.7031    2.8111   24.5737 C   0  0  0  0  0  0  0  0  0  0  0  0
    9.2295   -3.4556   23.6400 C   0  0  0  0  0  0  0  0  0  0  0  0
    6.6507    2.1722   22.1474 C   0  0  0  0  0  0  0  0  0  0  0  0
    8.9021   -2.5503   25.9358 C   0  0  0  0  0  0  0  0  0  0  0  0
    9.2195   -1.2205   26.5980 C   0  0  0  0  0  0  0  0  0  0  0  0
    9.7619   -1.0718   24.2118 C   0  0  1  0  0  0  0  0  0  0  0  0
    9.7792   -2.5401   24.6895 C   0  0  2  0  0  0  0  0  0  0  0  0
    9.3232   -0.2251   25.4373 C   0  0  1  0  0  0  0  0  0  0  0  0
    5.2134    2.3718   21.7395 C   0  0  0  0  0  0  0  0  0  0  0  0
    7.9844    0.4698   25.1790 C   0  0  0  0  0  0  0  0  0  0  0  0
    8.0784    1.5267   24.0676 C   0  0  1  0  0  0  0  0  0  0  0  0
    9.1473   -4.7691   24.0378 N   0  0  0  0  0  0  0  0  0  0  0  0
    6.7883    1.7905   23.4703 N   0  0  0  0  0  0  0  0  0  0  0  0
    8.8748   -3.0462   22.5373 O   0  0  0  0  0  0  0  0  0  0  0  0
    7.5776    2.3258   21.3539 O   0  0  0  0  0  0  0  0  0  0  0  0
   13.4818    0.3096   23.4268 S   0  0  0  0  0  0  0  0  0  0  0  0
    4.7897    4.0630   22.0480 Cl  0  0  0  0  0  0  0  0  0  0  0  0
   13.1746    4.8004   22.5419 H   0  0  0  0  0  0  0  0  0  0  0  0
   12.2422    2.6910   21.6359 H   0  0  0  0  0  0  0  0  0  0  0  0
    8.0684    5.1710   26.9355 H   0  0  0  0  0  0  0  0  0  0  0  0
   12.0347    5.9752   24.3800 H   0  0  0  0  0  0  0  0  0  0  0  0
   10.1801    1.7492   22.5536 H   0  0  0  0  0  0  0  0  0  0  0  0
   10.1441    6.1124   26.0068 H   0  0  0  0  0  0  0  0  0  0  0  0
    7.1344    3.0706   26.0378 H   0  0  0  0  0  0  0  0  0  0  0  0
   10.8180   -1.1800   21.4963 H   0  0  0  0  0  0  0  0  0  0  0  0
   13.2445   -0.2637   21.0634 H   0  0  0  0  0  0  0  0  0  0  0  0
   12.1148    0.1474   25.4426 H   0  0  0  0  0  0  0  0  0  0  0  0
    9.1276   -3.3999   26.5916 H   0  0  0  0  0  0  0  0  0  0  0  0
    7.8356   -2.6079   25.6762 H   0  0  0  0  0  0  0  0  0  0  0  0
    8.4729   -0.9433   27.3467 H   0  0  0  0  0  0  0  0  0  0  0  0
   10.1892   -1.2896   27.1044 H   0  0  0  0  0  0  0  0  0  0  0  0
    9.0306   -0.9528   23.3877 H   0  0  0  0  0  0  0  0  0  0  0  0
   10.8018   -2.8753   24.9333 H   0  0  0  0  0  0  0  0  0  0  0  0
   10.0563    0.5404   25.6870 H   0  0  0  0  0  0  0  0  0  0  0  0
    5.0431    2.1554   20.6820 H   0  0  0  0  0  0  0  0  0  0  0  0
    4.5711    1.7257   22.3442 H   0  0  0  0  0  0  0  0  0  0  0  0
    7.2404   -0.2952   24.9300 H   0  0  0  0  0  0  0  0  0  0  0  0
    7.6594    0.9404   26.1140 H   0  0  0  0  0  0  0  0  0  0  0  0
    8.6967    1.1246   23.2553 H   0  0  0  0  0  0  0  0  0  0  0  0
    8.7844   -5.4543   23.3833 H   0  0  0  0  0  0  0  0  0  0  0  0
    9.4348   -5.0808   24.9598 H   0  0  0  0  0  0  0  0  0  0  0  0
    5.9551    1.6925   24.0410 H   0  0  0  0  0  0  0  0  0  0  0  0
  1  2  1  0  0  0  0
  1  4  2  0  0  0  0
  2  5  2  0  0  0  0
  3  6  1  0  0  0  0
  3  7  2  0  0  0  0
  4 11  1  0  0  0  0
  5 12  1  0  0  0  0
  6 11  2  0  0  0  0
  7 14  1  0  0  0  0
  8  9  2  0  0  0  0
  8 13  1  0  0  0  0
  9 29  1  0  0  0  0
 10 13  2  0  0  0  0
 10 29  1  0  0  0  0
 11 12  1  0  0  0  0
 12 14  2  0  0  0  0
 13 19  1  0  0  0  0
 14 24  1  0  0  0  0
 15 20  1  0  0  0  0
 15 25  1  0  0  0  0
 15 27  2  0  0  0  0
 16 22  1  0  0  0  0
 16 26  1  0  0  0  0
 16 28  2  0  0  0  0
 17 18  1  0  0  0  0
 17 20  1  0  0  0  0
 18 21  1  0  0  0  0
 19 20  1  0  0  0  0
 19 21  1  0  0  0  0
 21 23  1  0  0  0  0
 22 30  1  0  0  0  0
 23 24  1  0  0  0  0
 24 26  1  0  0  0  0
  1 31  1  0  0  0  0
  2 32  1  0  0  0  0
  3 33  1  0  0  0  0
  4 34  1  0  0  0  0
  5 35  1  0  0  0  0
  6 36  1  0  0  0  0
  7 37  1  0  0  0  0
  8 38  1  0  0  0  0
  9 39  1  0  0  0  0
 10 40  1  0  0  0  0
 17 41  1  0  0  0  0
 17 42  1  0  0  0  0
 18 43  1  0  0  0  0
 18 44  1  0  0  0  0
 19 45  1  0  0  0  0
 20 46  1  0  0  0  0
 21 47  1  0  0  0  0
 22 48  1  0  0  0  0
 22 49  1  0  0  0  0
 23 50  1  0  0  0  0
 23 51  1  0  0  0  0
 24 52  1  0  0  0  0
 25 53  1  0  0  0  0
 25 54  1  0  0  0  0
 26 55  1  0  0  0  0
M  END
> <creator>
Nir London, The Weizmann Institute of Science

> <fragments>
x0874

> <real_space>
FALSE

> <SCR>
FALSE

> <BB>
FALSE

> <link>
https://covid.postera.ai/covid/submissions/99f25457-1a81-4d52-9016-814e9f4f52d4

> <covalent_frag>
TRUE

> <covalent_warhead>
TRUE

> <acrylamide>
FALSE

> <acrylamide_adduct>
FALSE

> <chloroacetamide>
TRUE

> <chloroacetamide_adduct>
FALSE

> <vinylsulfonamide>
FALSE

> <vinylsulfonamide_adduct>
FALSE

> <in_molport_or_mcule>
FALSE

> <in_emolecules>
FALSE

> <Hybrid2>
-5.973041

> <Mpro-x0874_dock>
-5.973041

> <Mpro-x0820_dock>
-1.478117

> <Mpro-x0759_dock>
-0.808802

> <Mpro-x1478_dock>
0.026032

> <site>
active-noncovalent

> <covalent_distance_min>
4.3956037

> <covalent_distance_mean>
5.984782

> <covalent_distance_stderr>
0.08059781

$$$$
NIM-UNI-594-2
  -OEChem-04062011563D

 44 46  0     1  0  0  0  0  0999 V2000
   11.3662   -1.0953   23.3450 C   0  0  0  0  0  0  0  0  0  0  0  0
   13.1766    0.4658   23.6951 C   0  0  0  0  0  0  0  0  0  0  0  0
   12.0485   -1.6430   22.2587 C   0  0  0  0  0  0  0  0  0  0  0  0
   13.8590   -0.0820   22.6088 C   0  0  0  0  0  0  0  0  0  0  0  0
    8.8134    3.0225   24.2749 C   0  0  0  0  0  0  0  0  0  0  0  0
   11.9302   -0.0408   24.0632 C   0  0  0  0  0  0  0  0  0  0  0  0
   13.2949   -1.1364   21.8906 C   0  0  0  0  0  0  0  0  0  0  0  0
   10.0667    2.7543   24.7651 C   0  0  0  0  0  0  0  0  0  0  0  0
   10.5384    6.0124   24.9675 C   0  0  0  0  0  0  0  0  0  0  0  0
   11.4203    3.8326   22.2213 C   0  0  0  0  0  0  0  0  0  0  0  0
   12.4174    3.7800   21.0698 C   0  0  0  0  0  0  0  0  0  0  0  0
   13.4316    4.5222   23.4216 C   0  0  0  0  0  0  0  0  0  0  0  0
   11.9613    4.8766   23.2023 C   0  0  2  0  0  0  0  0  0  0  0  0
   11.1952    0.5493   25.2362 C   0  0  0  0  0  0  0  0  0  0  0  0
   11.2009    3.6426   25.1877 C   0  0  0  0  0  0  0  0  0  0  0  0
    9.9963    6.9839   23.9382 C   0  0  0  0  0  0  0  0  0  0  0  0
    8.1519    1.8496   24.0381 N   0  0  0  0  0  0  0  0  0  0  0  0
    8.9618    0.8500   24.3698 N   0  0  0  0  0  0  0  0  0  0  0  0
   10.1093    1.3946   24.8056 N   0  0  0  0  0  0  0  0  0  0  0  0
   11.2232    4.8994   24.4345 N   0  0  0  0  0  0  0  0  0  0  0  0
   10.3797    6.2024   26.1759 O   0  0  0  0  0  0  0  0  0  0  0  0
   14.7194    5.0561   21.1816 O   0  0  0  0  0  0  0  0  0  0  0  0
   14.6171    2.6536   21.9911 O   0  0  0  0  0  0  0  0  0  0  0  0
   14.0232    3.9646   21.8303 S   0  0  0  0  0  0  0  0  0  0  0  0
   14.1365   -1.8124   20.5507 Cl  0  0  0  0  0  0  0  0  0  0  0  0
    8.8174    6.1861   22.8780 Cl  0  0  0  0  0  0  0  0  0  0  0  0
   10.3953   -1.4954   23.6254 H   0  0  0  0  0  0  0  0  0  0  0  0
   13.6231    1.2870   24.2496 H   0  0  0  0  0  0  0  0  0  0  0  0
   11.5967   -2.4645   21.7087 H   0  0  0  0  0  0  0  0  0  0  0  0
   14.8293    0.3230   22.3335 H   0  0  0  0  0  0  0  0  0  0  0  0
    8.3591    3.9826   24.0807 H   0  0  0  0  0  0  0  0  0  0  0  0
   10.4469    4.1637   21.8463 H   0  0  0  0  0  0  0  0  0  0  0  0
   11.2833    2.8529   22.6821 H   0  0  0  0  0  0  0  0  0  0  0  0
   12.3927    2.8097   20.5656 H   0  0  0  0  0  0  0  0  0  0  0  0
   12.2593    4.5803   20.3439 H   0  0  0  0  0  0  0  0  0  0  0  0
   14.0049    5.4138   23.6891 H   0  0  0  0  0  0  0  0  0  0  0  0
   13.5891    3.7457   24.1716 H   0  0  0  0  0  0  0  0  0  0  0  0
   11.8777    5.8916   22.7760 H   0  0  0  0  0  0  0  0  0  0  0  0
   10.7834   -0.2363   25.8814 H   0  0  0  0  0  0  0  0  0  0  0  0
   11.8666    1.1473   25.8642 H   0  0  0  0  0  0  0  0  0  0  0  0
   11.1225    3.8887   26.2523 H   0  0  0  0  0  0  0  0  0  0  0  0
   12.1655    3.1460   25.0389 H   0  0  0  0  0  0  0  0  0  0  0  0
    9.4833    7.8115   24.4344 H   0  0  0  0  0  0  0  0  0  0  0  0
   10.8076    7.3551   23.3070 H   0  0  0  0  0  0  0  0  0  0  0  0
  1  3  2  0  0  0  0
  1  6  1  0  0  0  0
  2  4  1  0  0  0  0
  2  6  2  0  0  0  0
  3  7  1  0  0  0  0
  4  7  2  0  0  0  0
  5  8  2  0  0  0  0
  5 17  1  0  0  0  0
  6 14  1  0  0  0  0
  7 25  1  0  0  0  0
  8 15  1  0  0  0  0
  8 19  1  0  0  0  0
  9 16  1  0  0  0  0
  9 20  1  0  0  0  0
  9 21  2  0  0  0  0
 10 11  1  0  0  0  0
 10 13  1  0  0  0  0
 11 24  1  0  0  0  0
 12 13  1  0  0  0  0
 12 24  1  0  0  0  0
 13 20  1  0  0  0  0
 14 19  1  0  0  0  0
 15 20  1  0  0  0  0
 16 26  1  0  0  0  0
 17 18  2  0  0  0  0
 18 19  1  0  0  0  0
 22 24  2  0  0  0  0
 23 24  2  0  0  0  0
  1 27  1  0  0  0  0
  2 28  1  0  0  0  0
  3 29  1  0  0  0  0
  4 30  1  0  0  0  0
  5 31  1  0  0  0  0
 10 32  1  0  0  0  0
 10 33  1  0  0  0  0
 11 34  1  0  0  0  0
 11 35  1  0  0  0  0
 12 36  1  0  0  0  0
 12 37  1  0  0  0  0
 13 38  1  0  0  0  0
 14 39  1  0  0  0  0
 14 40  1  0  0  0  0
 15 41  1  0  0  0  0
 15 42  1  0  0  0  0
 16 43  1  0  0  0  0
 16 44  1  0  0  0  0
M  END
> <creator>
Nimesh Mistry, University of Leeds

> <fragments>
x0195

> <real_space>
FALSE

> <SCR>
FALSE

> <BB>
FALSE

> <link>
https://covid.postera.ai/covid/submissions/594fbbb6-64d2-40cb-a440-3e4489b3a77e

> <covalent_frag>
TRUE

> <covalent_warhead>
TRUE

> <acrylamide>
FALSE

> <acrylamide_adduct>
FALSE

> <chloroacetamide>
TRUE

> <chloroacetamide_adduct>
FALSE

> <vinylsulfonamide>
FALSE

> <vinylsulfonamide_adduct>
FALSE

> <in_molport_or_mcule>
FALSE

> <in_emolecules>
FALSE

> <Hybrid2>
-5.972826

> <Mpro-x0195_dock>
-5.972826

> <Mpro-x0770_dock>
-5.515807

> <Mpro-x0434_dock>
-3.67825

> <Mpro-x1374_dock>
-2.80626

> <site>
active-noncovalent

> <covalent_distance_min>
10.770447

> <covalent_distance_mean>
12.451334

> <covalent_distance_stderr>
0.085206226

$$$$
NIM-UNI-bb6-1
  -OEChem-04062011563D

 44 46  0     1  0  0  0  0  0999 V2000
   11.3662   -1.0953   23.3450 C   0  0  0  0  0  0  0  0  0  0  0  0
   13.1766    0.4658   23.6951 C   0  0  0  0  0  0  0  0  0  0  0  0
   12.0485   -1.6430   22.2587 C   0  0  0  0  0  0  0  0  0  0  0  0
   13.8590   -0.0820   22.6088 C   0  0  0  0  0  0  0  0  0  0  0  0
    8.8134    3.0225   24.2749 C   0  0  0  0  0  0  0  0  0  0  0  0
   11.9302   -0.0408   24.0632 C   0  0  0  0  0  0  0  0  0  0  0  0
   13.2949   -1.1364   21.8906 C   0  0  0  0  0  0  0  0  0  0  0  0
   10.0667    2.7543   24.7651 C   0  0  0  0  0  0  0  0  0  0  0  0
   10.5384    6.0124   24.9675 C   0  0  0  0  0  0  0  0  0  0  0  0
   11.4203    3.8326   22.2213 C   0  0  0  0  0  0  0  0  0  0  0  0
   12.4174    3.7800   21.0698 C   0  0  0  0  0  0  0  0  0  0  0  0
   13.4316    4.5222   23.4216 C   0  0  0  0  0  0  0  0  0  0  0  0
   11.9613    4.8766   23.2023 C   0  0  2  0  0  0  0  0  0  0  0  0
   11.1952    0.5493   25.2362 C   0  0  0  0  0  0  0  0  0  0  0  0
   11.2009    3.6426   25.1877 C   0  0  0  0  0  0  0  0  0  0  0  0
    9.9963    6.9839   23.9382 C   0  0  0  0  0  0  0  0  0  0  0  0
    8.1519    1.8496   24.0381 N   0  0  0  0  0  0  0  0  0  0  0  0
    8.9618    0.8500   24.3698 N   0  0  0  0  0  0  0  0  0  0  0  0
   10.1093    1.3946   24.8056 N   0  0  0  0  0  0  0  0  0  0  0  0
   11.2232    4.8994   24.4345 N   0  0  0  0  0  0  0  0  0  0  0  0
   10.3797    6.2024   26.1759 O   0  0  0  0  0  0  0  0  0  0  0  0
   14.7194    5.0561   21.1816 O   0  0  0  0  0  0  0  0  0  0  0  0
   14.6171    2.6536   21.9911 O   0  0  0  0  0  0  0  0  0  0  0  0
   14.0232    3.9646   21.8303 S   0  0  0  0  0  0  0  0  0  0  0  0
   14.1365   -1.8124   20.5507 Cl  0  0  0  0  0  0  0  0  0  0  0  0
    8.8174    6.1861   22.8780 Cl  0  0  0  0  0  0  0  0  0  0  0  0
   10.3953   -1.4954   23.6254 H   0  0  0  0  0  0  0  0  0  0  0  0
   13.6231    1.2870   24.2496 H   0  0  0  0  0  0  0  0  0  0  0  0
   11.5967   -2.4645   21.7087 H   0  0  0  0  0  0  0  0  0  0  0  0
   14.8293    0.3230   22.3335 H   0  0  0  0  0  0  0  0  0  0  0  0
    8.3591    3.9826   24.0807 H   0  0  0  0  0  0  0  0  0  0  0  0
   10.4469    4.1637   21.8463 H   0  0  0  0  0  0  0  0  0  0  0  0
   11.2833    2.8529   22.6821 H   0  0  0  0  0  0  0  0  0  0  0  0
   12.3927    2.8097   20.5656 H   0  0  0  0  0  0  0  0  0  0  0  0
   12.2593    4.5803   20.3439 H   0  0  0  0  0  0  0  0  0  0  0  0
   14.0049    5.4138   23.6891 H   0  0  0  0  0  0  0  0  0  0  0  0
   13.5891    3.7457   24.1716 H   0  0  0  0  0  0  0  0  0  0  0  0
   11.8777    5.8916   22.7760 H   0  0  0  0  0  0  0  0  0  0  0  0
   10.7834   -0.2363   25.8814 H   0  0  0  0  0  0  0  0  0  0  0  0
   11.8666    1.1473   25.8642 H   0  0  0  0  0  0  0  0  0  0  0  0
   11.1225    3.8887   26.2523 H   0  0  0  0  0  0  0  0  0  0  0  0
   12.1655    3.1460   25.0389 H   0  0  0  0  0  0  0  0  0  0  0  0
    9.4833    7.8115   24.4344 H   0  0  0  0  0  0  0  0  0  0  0  0
   10.8076    7.3551   23.3070 H   0  0  0  0  0  0  0  0  0  0  0  0
  1  3  2  0  0  0  0
  1  6  1  0  0  0  0
  2  4  1  0  0  0  0
  2  6  2  0  0  0  0
  3  7  1  0  0  0  0
  4  7  2  0  0  0  0
  5  8  2  0  0  0  0
  5 17  1  0  0  0  0
  6 14  1  0  0  0  0
  7 25  1  0  0  0  0
  8 15  1  0  0  0  0
  8 19  1  0  0  0  0
  9 16  1  0  0  0  0
  9 20  1  0  0  0  0
  9 21  2  0  0  0  0
 10 11  1  0  0  0  0
 10 13  1  0  0  0  0
 11 24  1  0  0  0  0
 12 13  1  0  0  0  0
 12 24  1  0  0  0  0
 13 20  1  0  0  0  0
 14 19  1  0  0  0  0
 15 20  1  0  0  0  0
 16 26  1  0  0  0  0
 17 18  2  0  0  0  0
 18 19  1  0  0  0  0
 22 24  2  0  0  0  0
 23 24  2  0  0  0  0
  1 27  1  0  0  0  0
  2 28  1  0  0  0  0
  3 29  1  0  0  0  0
  4 30  1  0  0  0  0
  5 31  1  0  0  0  0
 10 32  1  0  0  0  0
 10 33  1  0  0  0  0
 11 34  1  0  0  0  0
 11 35  1  0  0  0  0
 12 36  1  0  0  0  0
 12 37  1  0  0  0  0
 13 38  1  0  0  0  0
 14 39  1  0  0  0  0
 14 40  1  0  0  0  0
 15 41  1  0  0  0  0
 15 42  1  0  0  0  0
 16 43  1  0  0  0  0
 16 44  1  0  0  0  0
M  END
> <creator>
Nimesh Mistry, University of Leeds

> <fragments>
x0195

> <real_space>
FALSE

> <SCR>
FALSE

> <BB>
FALSE

> <link>
https://covid.postera.ai/covid/submissions/bb610069-39f6-486e-8917-0241f972d38b

> <covalent_frag>
TRUE

> <covalent_warhead>
TRUE

> <acrylamide>
FALSE

> <acrylamide_adduct>
FALSE

> <chloroacetamide>
TRUE

> <chloroacetamide_adduct>
FALSE

> <vinylsulfonamide>
FALSE

> <vinylsulfonamide_adduct>
FALSE

> <in_molport_or_mcule>
FALSE

> <in_emolecules>
FALSE

> <Hybrid2>
-5.972826

> <Mpro-x0195_dock>
-5.972826

> <Mpro-x0770_dock>
-5.515807

> <Mpro-x0434_dock>
-3.67825

> <Mpro-x1374_dock>
-2.80626

> <site>
active-noncovalent

> <covalent_distance_min>
10.260692

> <covalent_distance_mean>
10.613887

> <covalent_distance_stderr>
0.045578133

$$$$
PAU-UNI-b2b-1
  -OEChem-04062011563D

 38 40  0     0  0  0  0  0  0999 V2000
   12.3863    0.8950   24.4521 C   0  0  0  0  0  0  0  0  0  0  0  0
   11.3709    0.3268   25.2911 C   0  0  0  0  0  0  0  0  0  0  0  0
   12.8221    0.3210   23.2377 C   0  0  0  0  0  0  0  0  0  0  0  0
   10.6864   -0.8741   25.0025 C   0  0  0  0  0  0  0  0  0  0  0  0
   12.3788   -1.6179   21.8381 C   0  0  0  0  0  0  0  0  0  0  0  0
   12.1413   -0.8638   22.9606 C   0  0  0  0  0  0  0  0  0  0  0  0
   11.1226   -1.4339   23.8023 C   0  0  0  0  0  0  0  0  0  0  0  0
   10.6156   -2.6046   23.2952 C   0  0  0  0  0  0  0  0  0  0  0  0
    6.0444   -2.3517   19.7142 C   0  0  0  0  0  0  0  0  0  0  0  0
    6.8532   -4.1493   21.2093 C   0  0  0  0  0  0  0  0  0  0  0  0
    6.5118   -1.9076   22.1743 C   0  0  0  0  0  0  0  0  0  0  0  0
    8.2335   -4.2349   21.8441 C   0  0  0  0  0  0  0  0  0  0  0  0
    7.8872   -1.9602   22.8256 C   0  0  0  0  0  0  0  0  0  0  0  0
    9.5560   -3.5181   23.8372 C   0  0  0  0  0  0  0  0  0  0  0  0
    6.3259   -0.9195   19.3359 C   0  0  0  0  0  0  0  0  0  0  0  0
    6.4655   -2.7575   20.9797 N   0  0  0  0  0  0  0  0  0  0  0  0
    8.2481   -3.4018   23.1062 N   0  3  0  0  0  0  0  0  0  0  0  0
    5.4697   -3.0867   18.9069 O   0  0  0  0  0  0  0  0  0  0  0  0
   11.3706   -3.0135   21.8024 S   0  0  0  0  0  0  0  0  0  0  0  0
    8.0700   -0.7053   19.4372 Cl  0  0  0  0  0  0  0  0  0  0  0  0
   12.8477    1.8281   24.7750 H   0  0  0  0  0  0  0  0  0  0  0  0
   11.1148    0.8576   26.2079 H   0  0  0  0  0  0  0  0  0  0  0  0
   13.5897    0.7673   22.6205 H   0  0  0  0  0  0  0  0  0  0  0  0
    9.9244   -1.2798   25.6544 H   0  0  0  0  0  0  0  0  0  0  0  0
   13.0806   -1.4383   21.0348 H   0  0  0  0  0  0  0  0  0  0  0  0
    6.8465   -4.7140   20.2718 H   0  0  0  0  0  0  0  0  0  0  0  0
    6.0964   -4.5983   21.8640 H   0  0  0  0  0  0  0  0  0  0  0  0
    5.7437   -2.2757   22.8652 H   0  0  0  0  0  0  0  0  0  0  0  0
    6.2643   -0.8696   21.9455 H   0  0  0  0  0  0  0  0  0  0  0  0
    8.4639   -5.2660   22.1309 H   0  0  0  0  0  0  0  0  0  0  0  0
    9.0162   -3.8526   21.1791 H   0  0  0  0  0  0  0  0  0  0  0  0
    8.6642   -1.5385   22.1782 H   0  0  0  0  0  0  0  0  0  0  0  0
    7.8801   -1.4331   23.7851 H   0  0  0  0  0  0  0  0  0  0  0  0
    9.8636   -4.5669   23.7667 H   0  0  0  0  0  0  0  0  0  0  0  0
    9.3480   -3.3014   24.8906 H   0  0  0  0  0  0  0  0  0  0  0  0
    5.8289   -0.2650   20.0428 H   0  0  0  0  0  0  0  0  0  0  0  0
    5.9886   -0.7517   18.3195 H   0  0  0  0  0  0  0  0  0  0  0  0
    7.5268   -3.7821   23.7346 H   0  0  0  0  0  0  0  0  0  0  0  0
  1  2  1  0  0  0  0
  1  3  2  0  0  0  0
  2  4  2  0  0  0  0
  3  6  1  0  0  0  0
  4  7  1  0  0  0  0
  5  6  2  0  0  0  0
  5 19  1  0  0  0  0
  6  7  1  0  0  0  0
  7  8  2  0  0  0  0
  8 14  1  0  0  0  0
  8 19  1  0  0  0  0
  9 15  1  0  0  0  0
  9 16  1  0  0  0  0
  9 18  2  0  0  0  0
 10 12  1  0  0  0  0
 10 16  1  0  0  0  0
 11 13  1  0  0  0  0
 11 16  1  0  0  0  0
 12 17  1  0  0  0  0
 13 17  1  0  0  0  0
 14 17  1  0  0  0  0
 15 20  1  0  0  0  0
  1 21  1  0  0  0  0
  2 22  1  0  0  0  0
  3 23  1  0  0  0  0
  4 24  1  0  0  0  0
  5 25  1  0  0  0  0
 10 26  1  0  0  0  0
 10 27  1  0  0  0  0
 11 28  1  0  0  0  0
 11 29  1  0  0  0  0
 12 30  1  0  0  0  0
 12 31  1  0  0  0  0
 13 32  1  0  0  0  0
 13 33  1  0  0  0  0
 14 34  1  0  0  0  0
 14 35  1  0  0  0  0
 15 36  1  0  0  0  0
 15 37  1  0  0  0  0
 17 38  1  0  0  0  0
M  CHG  1  17   1
M  END
> <creator>
paul brear, University of Cambridge

> <fragments>
x1418

> <real_space>
FALSE

> <SCR>
FALSE

> <BB>
FALSE

> <link>
https://covid.postera.ai/covid/submissions/b2b6b158-eadd-4d5a-b6d2-05c5bde0604d

> <covalent_frag>
TRUE

> <covalent_warhead>
TRUE

> <acrylamide>
FALSE

> <acrylamide_adduct>
FALSE

> <chloroacetamide>
TRUE

> <chloroacetamide_adduct>
FALSE

> <vinylsulfonamide>
FALSE

> <vinylsulfonamide_adduct>
FALSE

> <in_molport_or_mcule>
FALSE

> <in_emolecules>
FALSE

> <Hybrid2>
-5.969722

> <Mpro-x1418_dock>
-5.969722

> <site>
active-covalent

> <covalent_distance_min>
3.3484604

> <covalent_distance_mean>
4.126166

> <covalent_distance_stderr>
0.055357527

$$$$
JAN-GHE-bf4-9
  -OEChem-04062011563D

 43 45  0     1  0  0  0  0  0999 V2000
   10.2048    4.8342   24.0472 C   0  0  0  0  0  0  0  0  0  0  0  0
   12.3057    3.6702   23.4702 C   0  0  0  0  0  0  0  0  0  0  0  0
   13.0298    2.5507   23.3313 C   0  0  0  0  0  0  0  0  0  0  0  0
   10.2132    2.4619   23.6784 C   0  0  0  0  0  0  0  0  0  0  0  0
   11.6897    0.0034   25.1694 C   0  0  0  0  0  0  0  0  0  0  0  0
   10.8861    3.6230   23.7436 C   0  0  0  0  0  0  0  0  0  0  0  0
    6.3870   -0.2736   18.8648 C   0  0  0  0  0  0  0  0  0  0  0  0
    5.5295   -1.1660   19.3643 C   0  0  0  0  0  0  0  0  0  0  0  0
    6.0529   -2.2762   20.1852 C   0  0  0  0  0  0  0  0  0  0  0  0
    7.0189   -0.5989   21.8516 C   0  0  0  0  0  0  0  0  0  0  0  0
    7.2173   -3.0304   22.2215 C   0  0  0  0  0  0  0  0  0  0  0  0
    8.4940   -0.4199   22.1905 C   0  0  0  0  0  0  0  0  0  0  0  0
    8.6950   -2.8799   22.5468 C   0  0  0  0  0  0  0  0  0  0  0  0
   10.8787    1.1497   23.3244 C   0  0  1  0  0  0  0  0  0  0  0  0
   12.4209    1.1815   23.4353 C   0  0  2  0  0  0  0  0  0  0  0  0
   10.4891    0.0214   24.2777 C   0  0  1  0  0  0  0  0  0  0  0  0
   10.3492   -1.3290   23.5905 C   0  0  0  0  0  0  0  0  0  0  0  0
    9.6489    5.8218   24.2948 N   0  0  0  0  0  0  0  0  0  0  0  0
   12.7544    0.6124   24.7623 N   0  0  0  0  0  0  0  0  0  0  0  0
    6.7456   -1.9527   21.3494 N   0  0  0  0  0  0  0  0  0  0  0  0
    8.9268   -1.5104   23.1407 N   0  3  0  0  0  0  0  0  0  0  0  0
    5.8406   -3.4244   19.7915 O   0  0  0  0  0  0  0  0  0  0  0  0
   12.7906    4.6386   23.3919 H   0  0  0  0  0  0  0  0  0  0  0  0
   14.0971    2.6236   23.1434 H   0  0  0  0  0  0  0  0  0  0  0  0
    9.1382    2.4416   23.8460 H   0  0  0  0  0  0  0  0  0  0  0  0
   11.6525   -0.5356   26.1275 H   0  0  0  0  0  0  0  0  0  0  0  0
    6.0630    0.5631   18.2550 H   0  0  0  0  0  0  0  0  0  0  0  0
    7.4493   -0.3693   19.0634 H   0  0  0  0  0  0  0  0  0  0  0  0
    4.4634   -1.1039   19.1887 H   0  0  0  0  0  0  0  0  0  0  0  0
    6.3951   -0.4485   22.7407 H   0  0  0  0  0  0  0  0  0  0  0  0
    6.7452    0.1666   21.1246 H   0  0  0  0  0  0  0  0  0  0  0  0
    7.0424   -4.0082   21.7617 H   0  0  0  0  0  0  0  0  0  0  0  0
    6.6152   -2.9949   23.1377 H   0  0  0  0  0  0  0  0  0  0  0  0
    9.1281   -0.4794   21.2987 H   0  0  0  0  0  0  0  0  0  0  0  0
    8.6592    0.5377   22.6951 H   0  0  0  0  0  0  0  0  0  0  0  0
    9.0024   -3.6172   23.2955 H   0  0  0  0  0  0  0  0  0  0  0  0
    9.3257   -2.9741   21.6557 H   0  0  0  0  0  0  0  0  0  0  0  0
   10.5773    0.9167   22.2946 H   0  0  0  0  0  0  0  0  0  0  0  0
   12.8575    0.5384   22.6605 H   0  0  0  0  0  0  0  0  0  0  0  0
    9.5935    0.2349   24.8683 H   0  0  0  0  0  0  0  0  0  0  0  0
   10.5791   -2.1544   24.2698 H   0  0  0  0  0  0  0  0  0  0  0  0
   10.9791   -1.3963   22.6991 H   0  0  0  0  0  0  0  0  0  0  0  0
    8.3409   -1.4358   23.9837 H   0  0  0  0  0  0  0  0  0  0  0  0
  1  6  1  0  0  0  0
  1 18  3  0  0  0  0
  2  3  2  0  0  0  0
  2  6  1  0  0  0  0
  3 15  1  0  0  0  0
  4  6  2  0  0  0  0
  4 14  1  0  0  0  0
  5 16  1  0  0  0  0
  5 19  2  0  0  0  0
  7  8  2  0  0  0  0
  8  9  1  0  0  0  0
  9 20  1  0  0  0  0
  9 22  2  0  0  0  0
 10 12  1  0  0  0  0
 10 20  1  0  0  0  0
 11 13  1  0  0  0  0
 11 20  1  0  0  0  0
 12 21  1  0  0  0  0
 13 21  1  0  0  0  0
 14 15  1  0  0  0  0
 14 16  1  0  0  0  0
 15 19  1  0  0  0  0
 16 17  1  0  0  0  0
 17 21  1  0  0  0  0
  2 23  1  0  0  0  0
  3 24  1  0  0  0  0
  4 25  1  0  0  0  0
  5 26  1  0  0  0  0
  7 27  1  0  0  0  0
  7 28  1  0  0  0  0
  8 29  1  0  0  0  0
 10 30  1  0  0  0  0
 10 31  1  0  0  0  0
 11 32  1  0  0  0  0
 11 33  1  0  0  0  0
 12 34  1  0  0  0  0
 12 35  1  0  0  0  0
 13 36  1  0  0  0  0
 13 37  1  0  0  0  0
 14 38  1  0  0  0  0
 15 39  1  0  0  0  0
 16 40  1  0  0  0  0
 17 41  1  0  0  0  0
 17 42  1  0  0  0  0
 21 43  1  0  0  0  0
M  CHG  1  21   1
M  END
> <creator>
Jan, Ghent university

> <fragments>
x0692

> <real_space>
FALSE

> <SCR>
FALSE

> <BB>
FALSE

> <link>
https://covid.postera.ai/covid/submissions/bf40f168-4eec-438e-a3f5-b4da0b83bc9c

> <covalent_frag>
TRUE

> <covalent_warhead>
TRUE

> <acrylamide>
TRUE

> <acrylamide_adduct>
FALSE

> <chloroacetamide>
FALSE

> <chloroacetamide_adduct>
FALSE

> <vinylsulfonamide>
FALSE

> <vinylsulfonamide_adduct>
FALSE

> <in_molport_or_mcule>
FALSE

> <in_emolecules>
FALSE

> <Hybrid2>
-5.943081

> <Mpro-x0692_dock>
-5.943081

> <Mpro-x0305_dock>
-3.437772

> <Mpro-x0755_dock>
0.330208

> <site>
active-covalent

> <covalent_distance_min>
5.345606

> <covalent_distance_mean>
6.9172044

> <covalent_distance_stderr>
0.05188291

$$$$
TAM-UNI-d1c-9
  -OEChem-04062011563D

 47 50  0     0  0  0  0  0  0999 V2000
    6.9985   -6.3857   25.6173 C   0  0  0  0  0  0  0  0  0  0  0  0
    7.5441   -5.3729   26.4008 C   0  0  0  0  0  0  0  0  0  0  0  0
   10.6562   -2.3630   22.7879 C   0  0  0  0  0  0  0  0  0  0  0  0
   12.3264   -0.5866   22.5479 C   0  0  0  0  0  0  0  0  0  0  0  0
    6.4843   -6.0904   24.3551 C   0  0  0  0  0  0  0  0  0  0  0  0
    7.5732   -4.0631   25.9244 C   0  0  0  0  0  0  0  0  0  0  0  0
    9.3837   -2.7792   23.1803 C   0  0  0  0  0  0  0  0  0  0  0  0
   12.7004    0.7484   22.7036 C   0  0  0  0  0  0  0  0  0  0  0  0
    8.8627   -0.5290   23.8821 C   0  0  0  0  0  0  0  0  0  0  0  0
   10.5329    1.2475   23.6420 C   0  0  0  0  0  0  0  0  0  0  0  0
   11.0496   -1.0231   22.9373 C   0  0  0  0  0  0  0  0  0  0  0  0
   10.1394   -0.0924   23.4926 C   0  0  0  0  0  0  0  0  0  0  0  0
    8.4887   -1.8640   23.7263 C   0  0  0  0  0  0  0  0  0  0  0  0
    6.5124   -4.7777   23.8602 C   0  0  0  0  0  0  0  0  0  0  0  0
    7.0555   -3.7525   24.6565 C   0  0  0  0  0  0  0  0  0  0  0  0
   11.8053    1.6637   23.2496 C   0  0  0  0  0  0  0  0  0  0  0  0
    6.2318   -2.7599   20.6730 C   0  0  0  0  0  0  0  0  0  0  0  0
    5.9471   -4.5063   22.4869 C   0  0  0  0  0  0  0  0  0  0  0  0
    6.0617   -2.0902   23.0452 C   0  0  0  0  0  0  0  0  0  0  0  0
    7.1002   -2.3211   24.1547 C   0  0  2  0  0  0  0  0  0  0  0  0
    7.0635   -1.5380   20.3714 C   0  0  0  0  0  0  0  0  0  0  0  0
    6.1325   -3.1273   22.0169 N   0  0  0  0  0  0  0  0  0  0  0  0
   11.7771    3.9883   21.9457 N   0  0  0  0  0  0  0  0  0  0  0  0
    5.6832   -3.3618   19.7467 O   0  0  0  0  0  0  0  0  0  0  0  0
   11.4658    3.9187   24.5038 O   0  0  0  0  0  0  0  0  0  0  0  0
   13.7276    3.4000   23.5225 O   0  0  0  0  0  0  0  0  0  0  0  0
   12.2750    3.3341   23.4436 S   0  0  0  0  0  0  0  0  0  0  0  0
    6.0008   -0.3945   19.5589 Cl  0  0  0  0  0  0  0  0  0  0  0  0
    6.9735   -7.4061   25.9885 H   0  0  0  0  0  0  0  0  0  0  0  0
    7.9458   -5.6022   27.3834 H   0  0  0  0  0  0  0  0  0  0  0  0
   11.3395   -3.0953   22.3628 H   0  0  0  0  0  0  0  0  0  0  0  0
   13.0419   -1.2845   22.1183 H   0  0  0  0  0  0  0  0  0  0  0  0
    6.0618   -6.8918   23.7537 H   0  0  0  0  0  0  0  0  0  0  0  0
    8.0006   -3.2821   26.5486 H   0  0  0  0  0  0  0  0  0  0  0  0
    9.1011   -3.8214   23.0560 H   0  0  0  0  0  0  0  0  0  0  0  0
   13.6940    1.0629   22.3953 H   0  0  0  0  0  0  0  0  0  0  0  0
    8.1525    0.1770   24.3093 H   0  0  0  0  0  0  0  0  0  0  0  0
    9.8410    1.9720   24.0683 H   0  0  0  0  0  0  0  0  0  0  0  0
    6.4046   -5.2021   21.7779 H   0  0  0  0  0  0  0  0  0  0  0  0
    4.8660   -4.6893   22.5008 H   0  0  0  0  0  0  0  0  0  0  0  0
    5.0475   -2.1366   23.4635 H   0  0  0  0  0  0  0  0  0  0  0  0
    6.1788   -1.0934   22.6052 H   0  0  0  0  0  0  0  0  0  0  0  0
    6.8042   -1.6522   25.0076 H   0  0  0  0  0  0  0  0  0  0  0  0
    7.8777   -1.8215   19.7147 H   0  0  0  0  0  0  0  0  0  0  0  0
    7.4199   -1.1177   21.3044 H   0  0  0  0  0  0  0  0  0  0  0  0
   12.3147    3.7364   21.1073 H   0  0  0  0  0  0  0  0  0  0  0  0
   10.7693    4.0931   21.7766 H   0  0  0  0  0  0  0  0  0  0  0  0
  1  2  1  0  0  0  0
  1  5  2  0  0  0  0
  2  6  2  0  0  0  0
  3  7  2  0  0  0  0
  3 11  1  0  0  0  0
  4  8  2  0  0  0  0
  4 11  1  0  0  0  0
  5 14  1  0  0  0  0
  6 15  1  0  0  0  0
  7 13  1  0  0  0  0
  8 16  1  0  0  0  0
  9 12  1  0  0  0  0
  9 13  2  0  0  0  0
 10 12  1  0  0  0  0
 10 16  2  0  0  0  0
 11 12  2  0  0  0  0
 13 20  1  0  0  0  0
 14 15  2  0  0  0  0
 14 18  1  0  0  0  0
 15 20  1  0  0  0  0
 16 27  1  0  0  0  0
 17 21  1  0  0  0  0
 17 22  1  0  0  0  0
 17 24  2  0  0  0  0
 18 22  1  0  0  0  0
 19 20  1  0  0  0  0
 19 22  1  0  0  0  0
 21 28  1  0  0  0  0
 23 27  1  0  0  0  0
 25 27  2  0  0  0  0
 26 27  2  0  0  0  0
  1 29  1  0  0  0  0
  2 30  1  0  0  0  0
  3 31  1  0  0  0  0
  4 32  1  0  0  0  0
  5 33  1  0  0  0  0
  6 34  1  0  0  0  0
  7 35  1  0  0  0  0
  8 36  1  0  0  0  0
  9 37  1  0  0  0  0
 10 38  1  0  0  0  0
 18 39  1  0  0  0  0
 18 40  1  0  0  0  0
 19 41  1  0  0  0  0
 19 42  1  0  0  0  0
 20 43  1  0  0  0  0
 21 44  1  0  0  0  0
 21 45  1  0  0  0  0
 23 46  1  0  0  0  0
 23 47  1  0  0  0  0
M  END
> <creator>
Tamas Szommer, University of Oxford, TDI

> <fragments>
x1392

> <real_space>
FALSE

> <SCR>
FALSE

> <BB>
FALSE

> <link>
https://covid.postera.ai/covid/submissions/d1c3dd9f-771c-474e-9133-8c7e4ace8b98

> <covalent_frag>
TRUE

> <covalent_warhead>
TRUE

> <acrylamide>
FALSE

> <acrylamide_adduct>
FALSE

> <chloroacetamide>
TRUE

> <chloroacetamide_adduct>
FALSE

> <vinylsulfonamide>
FALSE

> <vinylsulfonamide_adduct>
FALSE

> <in_molport_or_mcule>
FALSE

> <in_emolecules>
FALSE

> <Hybrid2>
-5.937392

> <Mpro-x1392_dock>
-5.937392

> <Mpro-x0692_dock>
-4.667983

> <Mpro-x1386_dock>
-1.270312

> <Mpro-x1382_dock>
-0.340769

> <site>
active-covalent

$$$$
NIY-UNK-626-4
  -OEChem-04062011563D

 52 54  0     0  0  0  0  0  0999 V2000
    8.6964    0.8353   20.7994 C   0  0  0  0  0  0  0  0  0  0  0  0
    8.2688    1.8852   21.1952 C   0  0  0  0  0  0  0  0  0  0  0  0
    8.4694    3.8927   22.5892 C   0  0  0  0  0  0  0  0  0  0  0  0
   11.0211    6.0056   23.3285 C   0  0  0  0  0  0  0  0  0  0  0  0
    6.5449    3.6230   21.2179 C   0  0  0  0  0  0  0  0  0  0  0  0
    6.7225    5.5052   22.5232 C   0  0  0  0  0  0  0  0  0  0  0  0
   10.4365    6.4316   25.5374 C   0  0  0  0  0  0  0  0  0  0  0  0
    7.7612    3.1325   21.6651 C   0  0  0  0  0  0  0  0  0  0  0  0
    7.9470    5.1029   23.0317 C   0  0  0  0  0  0  0  0  0  0  0  0
    9.9680    6.1103   24.2825 C   0  0  0  0  0  0  0  0  0  0  0  0
   12.2547    6.2512   23.8907 C   0  0  0  0  0  0  0  0  0  0  0  0
   10.2154   -1.9659   23.9591 C   0  0  0  0  0  0  0  0  0  0  0  0
   11.3822    0.1806   24.6571 C   0  0  0  0  0  0  0  0  0  0  0  0
   12.3788   -1.3029   22.9629 C   0  0  0  0  0  0  0  0  0  0  0  0
   11.7590    1.3820   23.7883 C   0  0  0  0  0  0  0  0  0  0  0  0
   12.7307   -0.0746   22.1243 C   0  0  0  0  0  0  0  0  0  0  0  0
    9.1595   -1.6824   24.9975 C   0  0  0  0  0  0  0  0  0  0  0  0
   13.3256    2.2605   22.1808 C   0  0  0  0  0  0  0  0  0  0  0  0
   13.2287    3.5533   22.9679 C   0  0  0  0  0  0  0  0  0  0  0  0
    6.0054    4.7939   21.6246 N   0  0  0  0  0  0  0  0  0  0  0  0
   11.2467   -1.0344   23.8482 N   0  0  0  0  0  0  0  0  0  0  0  0
   12.9565    1.0961   22.9846 N   0  0  0  0  0  0  0  0  0  0  0  0
    8.6607    5.9176   23.9929 N   0  0  0  0  0  0  0  0  0  0  0  0
   13.4972    6.2158   23.1662 N   0  0  0  0  0  0  0  0  0  0  0  0
   10.1232   -2.9822   23.2659 O   0  0  0  0  0  0  0  0  0  0  0  0
   12.7269    5.1363   20.9655 O   0  0  0  0  0  0  0  0  0  0  0  0
   15.1227    4.8107   21.6721 O   0  0  0  0  0  0  0  0  0  0  0  0
   12.1398    6.6059   25.5620 S   0  0  0  0  0  0  0  0  0  0  0  0
   13.7179    4.9573   22.0156 S   0  0  0  0  0  0  0  0  0  0  0  0
    7.9286   -0.7017   24.2095 Cl  0  0  0  0  0  0  0  0  0  0  0  0
    9.0759   -0.0957   20.4481 H   0  0  0  0  0  0  0  0  0  0  0  0
    9.4281    3.5450   22.9685 H   0  0  0  0  0  0  0  0  0  0  0  0
   10.8809    5.7616   22.2823 H   0  0  0  0  0  0  0  0  0  0  0  0
    5.9432    3.0777   20.4963 H   0  0  0  0  0  0  0  0  0  0  0  0
    6.2635    6.4403   22.8302 H   0  0  0  0  0  0  0  0  0  0  0  0
    9.8658    6.5741   26.4449 H   0  0  0  0  0  0  0  0  0  0  0  0
   12.1652   -0.0157   25.4000 H   0  0  0  0  0  0  0  0  0  0  0  0
   10.4658    0.4073   25.2055 H   0  0  0  0  0  0  0  0  0  0  0  0
   12.1632   -2.1506   22.3043 H   0  0  0  0  0  0  0  0  0  0  0  0
   13.2253   -1.5908   23.5986 H   0  0  0  0  0  0  0  0  0  0  0  0
   10.9097    1.6524   23.1467 H   0  0  0  0  0  0  0  0  0  0  0  0
   11.9532    2.2351   24.4496 H   0  0  0  0  0  0  0  0  0  0  0  0
   13.6422   -0.2974   21.5566 H   0  0  0  0  0  0  0  0  0  0  0  0
   11.9309    0.1182   21.3969 H   0  0  0  0  0  0  0  0  0  0  0  0
    9.6093   -1.1295   25.8143 H   0  0  0  0  0  0  0  0  0  0  0  0
    8.7316   -2.6215   25.3290 H   0  0  0  0  0  0  0  0  0  0  0  0
   12.6735    2.2753   21.3020 H   0  0  0  0  0  0  0  0  0  0  0  0
   14.3545    2.1012   21.8441 H   0  0  0  0  0  0  0  0  0  0  0  0
   13.8971    3.5230   23.8336 H   0  0  0  0  0  0  0  0  0  0  0  0
   12.2086    3.7418   23.3158 H   0  0  0  0  0  0  0  0  0  0  0  0
    7.9748    6.4531   24.5628 H   0  0  0  0  0  0  0  0  0  0  0  0
   14.3204    6.4248   23.7472 H   0  0  0  0  0  0  0  0  0  0  0  0
  1  2  3  0  0  0  0
  2  8  1  0  0  0  0
  3  8  2  0  0  0  0
  3  9  1  0  0  0  0
  4 10  1  0  0  0  0
  4 11  2  0  0  0  0
  5  8  1  0  0  0  0
  5 20  2  0  0  0  0
  6  9  2  0  0  0  0
  6 20  1  0  0  0  0
  7 10  2  0  0  0  0
  7 28  1  0  0  0  0
  9 23  1  0  0  0  0
 10 23  1  0  0  0  0
 11 24  1  0  0  0  0
 11 28  1  0  0  0  0
 12 17  1  0  0  0  0
 12 21  1  0  0  0  0
 12 25  2  0  0  0  0
 13 15  1  0  0  0  0
 13 21  1  0  0  0  0
 14 16  1  0  0  0  0
 14 21  1  0  0  0  0
 15 22  1  0  0  0  0
 16 22  1  0  0  0  0
 17 30  1  0  0  0  0
 18 19  1  0  0  0  0
 18 22  1  0  0  0  0
 19 29  1  0  0  0  0
 24 29  1  0  0  0  0
 26 29  2  0  0  0  0
 27 29  2  0  0  0  0
  1 31  1  0  0  0  0
  3 32  1  0  0  0  0
  4 33  1  0  0  0  0
  5 34  1  0  0  0  0
  6 35  1  0  0  0  0
  7 36  1  0  0  0  0
 13 37  1  0  0  0  0
 13 38  1  0  0  0  0
 14 39  1  0  0  0  0
 14 40  1  0  0  0  0
 15 41  1  0  0  0  0
 15 42  1  0  0  0  0
 16 43  1  0  0  0  0
 16 44  1  0  0  0  0
 17 45  1  0  0  0  0
 17 46  1  0  0  0  0
 18 47  1  0  0  0  0
 18 48  1  0  0  0  0
 19 49  1  0  0  0  0
 19 50  1  0  0  0  0
 23 51  1  0  0  0  0
 24 52  1  0  0  0  0
M  END
> <creator>
Niyaz Zaman

> <fragments>
x0195

> <real_space>
FALSE

> <SCR>
FALSE

> <BB>
FALSE

> <link>
https://covid.postera.ai/covid/submissions/62612a68-06cc-4f11-8abb-79197bdbf3d2

> <covalent_frag>
TRUE

> <covalent_warhead>
TRUE

> <acrylamide>
FALSE

> <acrylamide_adduct>
FALSE

> <chloroacetamide>
TRUE

> <chloroacetamide_adduct>
FALSE

> <vinylsulfonamide>
FALSE

> <vinylsulfonamide_adduct>
FALSE

> <in_molport_or_mcule>
FALSE

> <in_emolecules>
FALSE

> <Hybrid2>
-5.885530

> <Mpro-x0195_dock>
-5.88553

> <Mpro-x0387_dock>
-3.027037

> <Mpro-x0736_dock>
-1.387394

> <Mpro-x0305_dock>
-1.052587

> <Mpro-x0689_dock>
1.631637

> <Mpro-x1374_dock>
3.664118

> <site>
active-noncovalent

> <covalent_distance_min>
3.7628336

> <covalent_distance_mean>
4.914348

> <covalent_distance_stderr>
0.06394592

$$$$
DAV-CRI-f9b-2
  -OEChem-04062011563D

 74 77  0     1  0  0  0  0  0999 V2000
   11.6343    5.7860   24.1687 C   0  0  0  0  0  0  0  0  0  0  0  0
   12.2236    4.5272   24.2101 C   0  0  0  0  0  0  0  0  0  0  0  0
   13.1947    1.7873   23.1096 C   0  0  0  0  0  0  0  0  0  0  0  0
   11.5548    1.0896   24.7409 C   0  0  0  0  0  0  0  0  0  0  0  0
   10.2992    5.9401   23.7871 C   0  0  0  0  0  0  0  0  0  0  0  0
   13.7710    0.5177   23.1458 C   0  0  0  0  0  0  0  0  0  0  0  0
   12.1311   -0.1801   24.7771 C   0  0  0  0  0  0  0  0  0  0  0  0
   12.0866    2.0734   23.9072 C   0  0  0  0  0  0  0  0  0  0  0  0
   11.4893    3.3875   23.8697 C   0  0  0  0  0  0  0  0  0  0  0  0
   10.1383    3.5151   23.4805 C   0  0  0  0  0  0  0  0  0  0  0  0
    9.5675    4.7910   23.4465 C   0  0  0  0  0  0  0  0  0  0  0  0
   13.2392   -0.4661   23.9796 C   0  0  0  0  0  0  0  0  0  0  0  0
    8.1079    2.9640   22.8166 C   0  0  0  0  0  0  0  0  0  0  0  0
    5.5745    0.4791   19.3317 C   0  0  0  0  0  0  0  0  0  0  0  0
    5.9887   -5.4213   20.6543 C   0  0  0  0  0  0  0  0  0  0  0  0
    5.9989   -2.7835   22.1819 C   0  0  0  0  0  0  0  0  0  0  0  0
    6.4908    1.1327   23.4634 C   0  0  0  0  0  0  0  0  0  0  0  0
    5.3037    0.2996   22.9873 C   0  0  0  0  0  0  0  0  0  0  0  0
    7.2068    1.3951   21.0481 C   0  0  0  0  0  0  0  0  0  0  0  0
    6.9250    2.1225   22.3728 C   0  0  2  0  0  0  0  0  0  0  0  0
    5.5660   -0.3926   21.6458 C   0  0  1  0  0  0  0  0  0  0  0  0
    9.5212   -4.5488   25.1062 C   0  0  0  0  0  0  0  0  0  0  0  0
    6.2567    1.3380   18.2966 C   0  0  0  0  0  0  0  0  0  0  0  0
    6.6050   -5.2171   22.0272 C   0  0  0  0  0  0  0  0  0  0  0  0
    7.1274   -3.7986   22.2565 C   0  0  2  0  0  0  0  0  0  0  0  0
    9.1936   -4.2661   23.6422 C   0  0  2  0  0  0  0  0  0  0  0  0
    9.2899    2.4792   23.1174 N   0  0  0  0  0  0  0  0  0  0  0  0
    6.0729    0.5505   20.6367 N   0  0  0  0  0  0  0  0  0  0  0  0
    5.4542   -6.6832   20.5034 N   0  0  0  0  0  0  0  0  0  0  0  0
   10.1945   -3.3585   23.0904 N   0  0  0  0  0  0  0  0  0  0  0  0
   15.1138   -1.8560   25.2675 N   0  0  0  0  0  0  0  0  0  0  0  0
    6.4470   -1.5289   21.7977 N   0  0  0  0  0  0  0  0  0  0  0  0
    7.7867   -3.7342   23.5937 N   0  3  0  0  0  0  0  0  0  0  0  0
    4.6238   -0.2303   18.9917 O   0  0  0  0  0  0  0  0  0  0  0  0
    5.9624   -4.5622   19.7780 O   0  0  0  0  0  0  0  0  0  0  0  0
    4.8305   -3.0710   22.4323 O   0  0  0  0  0  0  0  0  0  0  0  0
   12.9497   -3.0060   24.4677 O   0  0  0  0  0  0  0  0  0  0  0  0
   14.6613   -2.2805   22.7671 O   0  0  0  0  0  0  0  0  0  0  0  0
    7.9237    4.6599   22.9429 S   0  0  0  0  0  0  0  0  0  0  0  0
   13.9599   -2.0559   24.0234 S   0  0  0  0  0  0  0  0  0  0  0  0
    7.5767    0.3786   17.6374 Cl  0  0  0  0  0  0  0  0  0  0  0  0
   12.2178    6.6629   24.4365 H   0  0  0  0  0  0  0  0  0  0  0  0
   13.2654    4.4416   24.5114 H   0  0  0  0  0  0  0  0  0  0  0  0
   13.6209    2.5436   22.4548 H   0  0  0  0  0  0  0  0  0  0  0  0
   10.6914    1.2968   25.3689 H   0  0  0  0  0  0  0  0  0  0  0  0
    9.8449    6.9258   23.7576 H   0  0  0  0  0  0  0  0  0  0  0  0
   14.6341    0.3051   22.5208 H   0  0  0  0  0  0  0  0  0  0  0  0
   11.7096   -0.9392   25.4302 H   0  0  0  0  0  0  0  0  0  0  0  0
    6.2150    1.6732   24.3781 H   0  0  0  0  0  0  0  0  0  0  0  0
    7.3240    0.4698   23.7340 H   0  0  0  0  0  0  0  0  0  0  0  0
    5.0396   -0.4400   23.7542 H   0  0  0  0  0  0  0  0  0  0  0  0
    4.4280    0.9546   22.8815 H   0  0  0  0  0  0  0  0  0  0  0  0
    7.4436    2.1229   20.2658 H   0  0  0  0  0  0  0  0  0  0  0  0
    8.0788    0.7367   21.1398 H   0  0  0  0  0  0  0  0  0  0  0  0
    6.0853    2.8352   22.1988 H   0  0  0  0  0  0  0  0  0  0  0  0
    4.6127   -0.8242   21.3126 H   0  0  0  0  0  0  0  0  0  0  0  0
    9.5334   -3.6288   25.7021 H   0  0  0  0  0  0  0  0  0  0  0  0
   10.5023   -5.0272   25.2032 H   0  0  0  0  0  0  0  0  0  0  0  0
    8.7825   -5.2262   25.5494 H   0  0  0  0  0  0  0  0  0  0  0  0
    6.6470    2.2263   18.7798 H   0  0  0  0  0  0  0  0  0  0  0  0
    5.5447    1.5786   17.5159 H   0  0  0  0  0  0  0  0  0  0  0  0
    7.4076   -5.9525   22.1674 H   0  0  0  0  0  0  0  0  0  0  0  0
    5.8264   -5.4555   22.7632 H   0  0  0  0  0  0  0  0  0  0  0  0
    7.9036   -3.5278   21.5319 H   0  0  0  0  0  0  0  0  0  0  0  0
    9.1916   -5.2091   23.0840 H   0  0  0  0  0  0  0  0  0  0  0  0
    5.4951   -7.3607   21.2575 H   0  0  0  0  0  0  0  0  0  0  0  0
    5.0037   -6.9829   19.6445 H   0  0  0  0  0  0  0  0  0  0  0  0
   11.1133   -3.7984   23.1250 H   0  0  0  0  0  0  0  0  0  0  0  0
    9.9994   -3.1913   22.1044 H   0  0  0  0  0  0  0  0  0  0  0  0
   14.9383   -2.3206   26.1668 H   0  0  0  0  0  0  0  0  0  0  0  0
   16.1061   -1.8233   25.0038 H   0  0  0  0  0  0  0  0  0  0  0  0
    7.4377   -1.4025   21.6150 H   0  0  0  0  0  0  0  0  0  0  0  0
    7.2023   -4.2579   24.2587 H   0  0  0  0  0  0  0  0  0  0  0  0
    7.7832   -2.7597   23.9213 H   0  0  0  0  0  0  0  0  0  0  0  0
  1  2  1  0  0  0  0
  1  5  2  0  0  0  0
  2  9  2  0  0  0  0
  3  6  2  0  0  0  0
  3  8  1  0  0  0  0
  4  7  1  0  0  0  0
  4  8  2  0  0  0  0
  5 11  1  0  0  0  0
  6 12  1  0  0  0  0
  7 12  2  0  0  0  0
  8  9  1  0  0  0  0
  9 10  1  0  0  0  0
 10 11  2  0  0  0  0
 10 27  1  0  0  0  0
 11 39  1  0  0  0  0
 12 40  1  0  0  0  0
 13 20  1  0  0  0  0
 13 27  2  0  0  0  0
 13 39  1  0  0  0  0
 14 23  1  0  0  0  0
 14 28  1  0  0  0  0
 14 34  2  0  0  0  0
 15 24  1  0  0  0  0
 15 29  1  0  0  0  0
 15 35  2  0  0  0  0
 16 25  1  0  0  0  0
 16 32  1  0  0  0  0
 16 36  2  0  0  0  0
 17 18  1  0  0  0  0
 17 20  1  0  0  0  0
 18 21  1  0  0  0  0
 19 20  1  0  0  0  0
 19 28  1  0  0  0  0
 21 28  1  0  0  0  0
 21 32  1  0  0  0  0
 22 26  1  0  0  0  0
 23 41  1  0  0  0  0
 24 25  1  0  0  0  0
 25 33  1  0  0  0  0
 26 30  1  0  0  0  0
 26 33  1  0  0  0  0
 31 40  1  0  0  0  0
 37 40  2  0  0  0  0
 38 40  2  0  0  0  0
  1 42  1  0  0  0  0
  2 43  1  0  0  0  0
  3 44  1  0  0  0  0
  4 45  1  0  0  0  0
  5 46  1  0  0  0  0
  6 47  1  0  0  0  0
  7 48  1  0  0  0  0
 17 49  1  0  0  0  0
 17 50  1  0  0  0  0
 18 51  1  0  0  0  0
 18 52  1  0  0  0  0
 19 53  1  0  0  0  0
 19 54  1  0  0  0  0
 20 55  1  0  0  0  0
 21 56  1  0  0  0  0
 22 57  1  0  0  0  0
 22 58  1  0  0  0  0
 22 59  1  0  0  0  0
 23 60  1  0  0  0  0
 23 61  1  0  0  0  0
 24 62  1  0  0  0  0
 24 63  1  0  0  0  0
 25 64  1  0  0  0  0
 26 65  1  0  0  0  0
 29 66  1  0  0  0  0
 29 67  1  0  0  0  0
 30 68  1  0  0  0  0
 30 69  1  0  0  0  0
 31 70  1  0  0  0  0
 31 71  1  0  0  0  0
 32 72  1  0  0  0  0
 33 73  1  0  0  0  0
 33 74  1  0  0  0  0
M  CHG  1  33   1
M  END
> <creator>
David Briggs, Crick Institute

> <fragments>
x0161

> <real_space>
FALSE

> <SCR>
FALSE

> <BB>
FALSE

> <link>
https://covid.postera.ai/covid/submissions/f9b12666-ae78-4cf8-8d60-dc19988e42d3

> <covalent_frag>
TRUE

> <covalent_warhead>
TRUE

> <acrylamide>
FALSE

> <acrylamide_adduct>
FALSE

> <chloroacetamide>
TRUE

> <chloroacetamide_adduct>
FALSE

> <vinylsulfonamide>
FALSE

> <vinylsulfonamide_adduct>
FALSE

> <in_molport_or_mcule>
FALSE

> <in_emolecules>
FALSE

> <Hybrid2>
-5.874022

> <Mpro-x0161_dock>
-5.874022

> <Mpro-x0749_dock>
-5.381404

> <Mpro-x0981_dock>
9.513391

> <site>
active-noncovalent

> <covalent_distance_min>
4.73205

> <covalent_distance_mean>
5.72614

> <covalent_distance_stderr>
0.051533695

$$$$
TAM-UNI-d1c-23
  -OEChem-04062011563D

 45 46  0     1  0  0  0  0  0999 V2000
    7.8679   -1.2205   22.9021 C   0  0  0  0  0  0  0  0  0  0  0  0
    8.9369   -0.4940   22.3652 C   0  0  0  0  0  0  0  0  0  0  0  0
   10.5374   -2.0980   23.2426 C   0  0  0  0  0  0  0  0  0  0  0  0
    8.1508   -4.3215   24.8164 C   0  0  0  0  0  0  0  0  0  0  0  0
    8.1328   -2.4035   23.6203 C   0  0  0  0  0  0  0  0  0  0  0  0
   10.2503   -0.9278   22.5339 C   0  0  0  0  0  0  0  0  0  0  0  0
    7.3188   -3.3640   24.2835 C   0  0  0  0  0  0  0  0  0  0  0  0
    9.4587   -2.8141   23.7737 C   0  0  0  0  0  0  0  0  0  0  0  0
    6.0484   -3.4064   20.8207 C   0  0  0  0  0  0  0  0  0  0  0  0
   11.4744    1.5780   23.7426 C   0  0  0  0  0  0  0  0  0  0  0  0
    6.3018   -2.3555   19.7914 C   0  0  0  0  0  0  0  0  0  0  0  0
   12.7514   -0.7475   22.2118 C   0  0  0  0  0  0  0  0  0  0  0  0
   10.6031   -4.7482   24.8936 C   0  0  0  0  0  0  0  0  0  0  0  0
    5.8456   -3.3471   24.3861 C   0  0  0  0  0  0  0  0  0  0  0  0
   11.4515    3.0667   23.9786 C   0  0  0  0  0  0  0  0  0  0  0  0
    5.1217   -3.7788   23.0978 C   0  0  0  0  0  0  0  0  0  0  0  0
   11.3700   -0.1307   21.9506 C   0  0  2  0  0  0  0  0  0  0  0  0
    9.4396   -3.9810   24.5039 N   0  0  0  0  0  0  0  0  0  0  0  0
    5.4542   -2.9359   21.9807 N   0  0  0  0  0  0  0  0  0  0  0  0
   11.3534    1.2478   22.4079 N   0  0  0  0  0  0  0  0  0  0  0  0
    6.3645   -4.5675   20.5892 O   0  0  0  0  0  0  0  0  0  0  0  0
   11.6055    0.7767   24.6662 O   0  0  0  0  0  0  0  0  0  0  0  0
    9.7675    3.5522   24.2300 Cl  0  0  0  0  0  0  0  0  0  0  0  0
    6.8497   -0.8681   22.7628 H   0  0  0  0  0  0  0  0  0  0  0  0
    8.7288    0.4187   21.8117 H   0  0  0  0  0  0  0  0  0  0  0  0
   11.5598   -2.4368   23.3771 H   0  0  0  0  0  0  0  0  0  0  0  0
    7.9338   -5.2138   25.3888 H   0  0  0  0  0  0  0  0  0  0  0  0
    7.2932   -1.8878   19.9031 H   0  0  0  0  0  0  0  0  0  0  0  0
    6.2838   -2.7583   18.7659 H   0  0  0  0  0  0  0  0  0  0  0  0
    5.5855   -1.5184   19.7862 H   0  0  0  0  0  0  0  0  0  0  0  0
   12.9337   -0.8483   23.2874 H   0  0  0  0  0  0  0  0  0  0  0  0
   12.8336   -1.7420   21.7590 H   0  0  0  0  0  0  0  0  0  0  0  0
   13.5551   -0.1341   21.7890 H   0  0  0  0  0  0  0  0  0  0  0  0
   10.8062   -5.4771   24.1047 H   0  0  0  0  0  0  0  0  0  0  0  0
   11.4561   -4.0761   25.0220 H   0  0  0  0  0  0  0  0  0  0  0  0
   10.4008   -5.2552   25.8412 H   0  0  0  0  0  0  0  0  0  0  0  0
    5.4945   -2.3293   24.6477 H   0  0  0  0  0  0  0  0  0  0  0  0
    5.4923   -3.9852   25.2212 H   0  0  0  0  0  0  0  0  0  0  0  0
   12.0355    3.3621   24.8537 H   0  0  0  0  0  0  0  0  0  0  0  0
   11.8445    3.5803   23.0969 H   0  0  0  0  0  0  0  0  0  0  0  0
    5.3976   -4.7998   22.8159 H   0  0  0  0  0  0  0  0  0  0  0  0
    4.0351   -3.7422   23.2273 H   0  0  0  0  0  0  0  0  0  0  0  0
   11.2550   -0.0593   20.8552 H   0  0  0  0  0  0  0  0  0  0  0  0
    5.2418   -1.9416   22.0457 H   0  0  0  0  0  0  0  0  0  0  0  0
   11.2499    1.9888   21.7271 H   0  0  0  0  0  0  0  0  0  0  0  0
  1  2  2  0  0  0  0
  1  5  1  0  0  0  0
  2  6  1  0  0  0  0
  3  6  2  0  0  0  0
  3  8  1  0  0  0  0
  4  7  2  0  0  0  0
  4 18  1  0  0  0  0
  5  7  1  0  0  0  0
  5  8  2  0  0  0  0
  6 17  1  0  0  0  0
  7 14  1  0  0  0  0
  8 18  1  0  0  0  0
  9 11  1  0  0  0  0
  9 19  1  0  0  0  0
  9 21  2  0  0  0  0
 10 15  1  0  0  0  0
 10 20  1  0  0  0  0
 10 22  2  0  0  0  0
 12 17  1  0  0  0  0
 13 18  1  0  0  0  0
 14 16  1  0  0  0  0
 15 23  1  0  0  0  0
 16 19  1  0  0  0  0
 17 20  1  0  0  0  0
  1 24  1  0  0  0  0
  2 25  1  0  0  0  0
  3 26  1  0  0  0  0
  4 27  1  0  0  0  0
 11 28  1  0  0  0  0
 11 29  1  0  0  0  0
 11 30  1  0  0  0  0
 12 31  1  0  0  0  0
 12 32  1  0  0  0  0
 12 33  1  0  0  0  0
 13 34  1  0  0  0  0
 13 35  1  0  0  0  0
 13 36  1  0  0  0  0
 14 37  1  0  0  0  0
 14 38  1  0  0  0  0
 15 39  1  0  0  0  0
 15 40  1  0  0  0  0
 16 41  1  0  0  0  0
 16 42  1  0  0  0  0
 17 43  1  0  0  0  0
 19 44  1  0  0  0  0
 20 45  1  0  0  0  0
M  END
> <creator>
Tamas Szommer, University of Oxford, TDI

> <fragments>
x1392

> <real_space>
FALSE

> <SCR>
FALSE

> <BB>
FALSE

> <link>
https://covid.postera.ai/covid/submissions/d1c3dd9f-771c-474e-9133-8c7e4ace8b98

> <covalent_frag>
TRUE

> <covalent_warhead>
TRUE

> <acrylamide>
FALSE

> <acrylamide_adduct>
FALSE

> <chloroacetamide>
TRUE

> <chloroacetamide_adduct>
FALSE

> <vinylsulfonamide>
FALSE

> <vinylsulfonamide_adduct>
FALSE

> <in_molport_or_mcule>
FALSE

> <in_emolecules>
FALSE

> <Hybrid2>
-5.870521

> <Mpro-x1392_dock>
-5.870521

> <Mpro-x0692_dock>
-4.191658

> <Mpro-x1386_dock>
-1.874282

> <Mpro-x1382_dock>
-0.499281

> <site>
active-covalent

> <covalent_distance_min>
7.923109

> <covalent_distance_mean>
8.736432

> <covalent_distance_stderr>
0.059430417

$$$$
TAM-UNI-d1c-15
  -OEChem-04062011563D

 46 48  0     0  0  0  0  0  0999 V2000
   13.1898   -0.8169   22.6496 C   0  0  0  0  0  0  0  0  0  0  0  0
   13.0457    0.4104   23.2988 C   0  0  0  0  0  0  0  0  0  0  0  0
   12.1819   -1.7754   22.7323 C   0  0  0  0  0  0  0  0  0  0  0  0
   10.8681   -0.2722   24.0962 C   0  0  0  0  0  0  0  0  0  0  0  0
   11.8879    0.6967   24.0352 C   0  0  0  0  0  0  0  0  0  0  0  0
   11.0220   -1.5084   23.4576 C   0  0  0  0  0  0  0  0  0  0  0  0
    9.6143   -0.0366   24.8537 C   0  0  0  0  0  0  0  0  0  0  0  0
    5.8483   -2.3426   19.8936 C   0  0  0  0  0  0  0  0  0  0  0  0
   11.7677    2.0089   24.7653 C   0  0  0  0  0  0  0  0  0  0  0  0
   10.6948    2.9319   24.1847 C   0  0  0  0  0  0  0  0  0  0  0  0
    9.4009    2.2320   23.7792 C   0  0  0  0  0  0  0  0  0  0  0  0
    6.4372   -2.9586   22.2163 C   0  0  0  0  0  0  0  0  0  0  0  0
    7.4366   -0.9131   21.2728 C   0  0  0  0  0  0  0  0  0  0  0  0
    7.8015   -3.4259   22.7020 C   0  0  0  0  0  0  0  0  0  0  0  0
    8.8166   -1.3490   21.7462 C   0  0  0  0  0  0  0  0  0  0  0  0
   10.0011   -2.6038   23.5511 C   0  0  0  0  0  0  0  0  0  0  0  0
    6.0404   -1.3838   18.7458 C   0  0  0  0  0  0  0  0  0  0  0  0
    9.0003    1.1980   24.7167 N   0  0  0  0  0  0  0  0  0  0  0  0
    6.5660   -2.0740   21.0583 N   0  0  0  0  0  0  0  0  0  0  0  0
    8.6678   -2.2168   22.9758 N   0  3  0  0  0  0  0  0  0  0  0  0
    9.1685   -0.9354   25.5632 O   0  0  0  0  0  0  0  0  0  0  0  0
    5.0851   -3.3021   19.7564 O   0  0  0  0  0  0  0  0  0  0  0  0
    7.4062   -1.9836   17.8116 Cl  0  0  0  0  0  0  0  0  0  0  0  0
   14.0878   -1.0227   22.0741 H   0  0  0  0  0  0  0  0  0  0  0  0
   13.8440    1.1442   23.2190 H   0  0  0  0  0  0  0  0  0  0  0  0
   12.3140   -2.7309   22.2311 H   0  0  0  0  0  0  0  0  0  0  0  0
   11.5539    1.8414   25.8285 H   0  0  0  0  0  0  0  0  0  0  0  0
   12.7442    2.5099   24.7447 H   0  0  0  0  0  0  0  0  0  0  0  0
   10.4451    3.7055   24.9220 H   0  0  0  0  0  0  0  0  0  0  0  0
   11.1181    3.4571   23.3197 H   0  0  0  0  0  0  0  0  0  0  0  0
    8.5817    2.9559   23.6999 H   0  0  0  0  0  0  0  0  0  0  0  0
    9.5174    1.7645   22.7958 H   0  0  0  0  0  0  0  0  0  0  0  0
    5.8181   -3.8281   21.9738 H   0  0  0  0  0  0  0  0  0  0  0  0
    5.9163   -2.3984   23.0023 H   0  0  0  0  0  0  0  0  0  0  0  0
    6.9531   -0.2789   22.0257 H   0  0  0  0  0  0  0  0  0  0  0  0
    7.5427   -0.3110   20.3688 H   0  0  0  0  0  0  0  0  0  0  0  0
    7.7084   -3.9802   23.6414 H   0  0  0  0  0  0  0  0  0  0  0  0
    8.3133   -4.0451   21.9566 H   0  0  0  0  0  0  0  0  0  0  0  0
    9.3465   -1.9321   20.9847 H   0  0  0  0  0  0  0  0  0  0  0  0
    9.4190   -0.4803   22.0312 H   0  0  0  0  0  0  0  0  0  0  0  0
   10.3293   -3.4981   23.0106 H   0  0  0  0  0  0  0  0  0  0  0  0
    9.8229   -2.8904   24.5932 H   0  0  0  0  0  0  0  0  0  0  0  0
    6.2645   -0.4003   19.1431 H   0  0  0  0  0  0  0  0  0  0  0  0
    5.1443   -1.3817   18.1360 H   0  0  0  0  0  0  0  0  0  0  0  0
    8.2073    1.3952   25.3195 H   0  0  0  0  0  0  0  0  0  0  0  0
    8.1918   -1.6531   23.6936 H   0  0  0  0  0  0  0  0  0  0  0  0
  1  2  2  0  0  0  0
  1  3  1  0  0  0  0
  2  5  1  0  0  0  0
  3  6  2  0  0  0  0
  4  5  2  0  0  0  0
  4  6  1  0  0  0  0
  4  7  1  0  0  0  0
  5  9  1  0  0  0  0
  6 16  1  0  0  0  0
  7 18  1  0  0  0  0
  7 21  2  0  0  0  0
  8 17  1  0  0  0  0
  8 19  1  0  0  0  0
  8 22  2  0  0  0  0
  9 10  1  0  0  0  0
 10 11  1  0  0  0  0
 11 18  1  0  0  0  0
 12 14  1  0  0  0  0
 12 19  1  0  0  0  0
 13 15  1  0  0  0  0
 13 19  1  0  0  0  0
 14 20  1  0  0  0  0
 15 20  1  0  0  0  0
 16 20  1  0  0  0  0
 17 23  1  0  0  0  0
  1 24  1  0  0  0  0
  2 25  1  0  0  0  0
  3 26  1  0  0  0  0
  9 27  1  0  0  0  0
  9 28  1  0  0  0  0
 10 29  1  0  0  0  0
 10 30  1  0  0  0  0
 11 31  1  0  0  0  0
 11 32  1  0  0  0  0
 12 33  1  0  0  0  0
 12 34  1  0  0  0  0
 13 35  1  0  0  0  0
 13 36  1  0  0  0  0
 14 37  1  0  0  0  0
 14 38  1  0  0  0  0
 15 39  1  0  0  0  0
 15 40  1  0  0  0  0
 16 41  1  0  0  0  0
 16 42  1  0  0  0  0
 17 43  1  0  0  0  0
 17 44  1  0  0  0  0
 18 45  1  0  0  0  0
 20 46  1  0  0  0  0
M  CHG  1  20   1
M  END
> <creator>
Tamas Szommer, University of Oxford, TDI

> <fragments>
x0692

> <real_space>
FALSE

> <SCR>
FALSE

> <BB>
FALSE

> <link>
https://covid.postera.ai/covid/submissions/d1c3dd9f-771c-474e-9133-8c7e4ace8b98

> <covalent_frag>
TRUE

> <covalent_warhead>
TRUE

> <acrylamide>
FALSE

> <acrylamide_adduct>
FALSE

> <chloroacetamide>
TRUE

> <chloroacetamide_adduct>
FALSE

> <vinylsulfonamide>
FALSE

> <vinylsulfonamide_adduct>
FALSE

> <in_molport_or_mcule>
FALSE

> <in_emolecules>
FALSE

> <Hybrid2>
-5.863121

> <Mpro-x0692_dock>
-5.863121

> <Mpro-x1386_dock>
-5.572559

> <Mpro-x1392_dock>
-4.526132

> <Mpro-x1382_dock>
-1.63396

> <site>
active-covalent

> <covalent_distance_min>
5.5056195

> <covalent_distance_mean>
6.4044347

> <covalent_distance_stderr>
0.037587613

$$$$
JAN-GHE-641-8
  -OEChem-04062011563D

 68 70  0     0  0  0  0  0  0999 V2000
   11.2514    5.9684   25.9461 C   0  0  0  0  0  0  0  0  0  0  0  0
   10.0832    6.5870   25.4860 C   0  0  0  0  0  0  0  0  0  0  0  0
   12.1141    5.3253   25.0607 C   0  0  0  0  0  0  0  0  0  0  0  0
    8.9714    6.7139   22.0063 C   0  0  0  0  0  0  0  0  0  0  0  0
    9.7845    6.5538   24.1094 C   0  0  0  0  0  0  0  0  0  0  0  0
   11.8386    5.2795   23.6911 C   0  0  0  0  0  0  0  0  0  0  0  0
    8.7192    7.0608   23.3136 C   0  0  0  0  0  0  0  0  0  0  0  0
   10.6672    5.9022   23.2454 C   0  0  0  0  0  0  0  0  0  0  0  0
   10.2746   -2.3791   22.2175 C   0  0  0  0  0  0  0  0  0  0  0  0
   11.0219   -1.5812   22.9832 C   0  0  0  0  0  0  0  0  0  0  0  0
   12.2164   -0.9425   22.3951 C   0  0  0  0  0  0  0  0  0  0  0  0
    6.2004    4.5621   24.3556 C   0  0  0  0  0  0  0  0  0  0  0  0
   11.9379    1.0477   23.9716 C   0  0  0  0  0  0  0  0  0  0  0  0
   13.8253    0.9237   22.3870 C   0  0  0  0  0  0  0  0  0  0  0  0
   11.6750    2.4904   23.5563 C   0  0  0  0  0  0  0  0  0  0  0  0
   13.5724    2.3559   21.9436 C   0  0  0  0  0  0  0  0  0  0  0  0
    7.8631    0.6184   22.8005 C   0  0  0  0  0  0  0  0  0  0  0  0
    7.3405    0.3281   25.2177 C   0  0  0  0  0  0  0  0  0  0  0  0
    7.5487    7.8226   23.7943 C   0  0  0  0  0  0  0  0  0  0  0  0
   12.7893    4.5788   22.7658 C   0  0  0  0  0  0  0  0  0  0  0  0
    6.3736    3.5903   25.5095 C   0  0  0  0  0  0  0  0  0  0  0  0
    7.8202    3.1309   25.6744 C   0  0  0  0  0  0  0  0  0  0  0  0
    6.2499    6.9990   23.8646 C   0  0  0  0  0  0  0  0  0  0  0  0
    8.3299    2.4641   24.4059 C   0  0  0  0  0  0  0  0  0  0  0  0
   10.1484    6.0151   21.9753 N   0  0  0  0  0  0  0  0  0  0  0  0
   12.6059    0.2957   22.9001 N   0  0  0  0  0  0  0  0  0  0  0  0
    6.3645    5.8815   24.7629 N   0  0  0  0  0  0  0  0  0  0  0  0
   12.9657    3.1231   23.0948 N   0  3  0  0  0  0  0  0  0  0  0  0
    7.4567    1.3114   24.0784 N   0  3  0  0  0  0  0  0  0  0  0  0
   12.7999   -1.5476   21.4941 O   0  0  0  0  0  0  0  0  0  0  0  0
    5.9446    4.2061   23.2084 O   0  0  0  0  0  0  0  0  0  0  0  0
   11.4866    5.9902   27.0070 H   0  0  0  0  0  0  0  0  0  0  0  0
    9.4215    7.0840   26.1896 H   0  0  0  0  0  0  0  0  0  0  0  0
   13.0135    4.8531   25.4496 H   0  0  0  0  0  0  0  0  0  0  0  0
    8.4203    6.9004   21.0950 H   0  0  0  0  0  0  0  0  0  0  0  0
    9.3862   -2.8761   22.5925 H   0  0  0  0  0  0  0  0  0  0  0  0
   10.5470   -2.5502   21.1814 H   0  0  0  0  0  0  0  0  0  0  0  0
   10.7826   -1.3859   24.0204 H   0  0  0  0  0  0  0  0  0  0  0  0
   12.5897    1.0096   24.8523 H   0  0  0  0  0  0  0  0  0  0  0  0
   10.9837    0.5980   24.2489 H   0  0  0  0  0  0  0  0  0  0  0  0
   14.2366    0.3496   21.5507 H   0  0  0  0  0  0  0  0  0  0  0  0
   14.5697    0.8949   23.1921 H   0  0  0  0  0  0  0  0  0  0  0  0
   10.9556    2.5535   22.7320 H   0  0  0  0  0  0  0  0  0  0  0  0
   11.3104    3.0751   24.4072 H   0  0  0  0  0  0  0  0  0  0  0  0
   14.5132    2.8504   21.6808 H   0  0  0  0  0  0  0  0  0  0  0  0
   12.8784    2.4097   21.0973 H   0  0  0  0  0  0  0  0  0  0  0  0
    8.8711    0.2238   22.9406 H   0  0  0  0  0  0  0  0  0  0  0  0
    7.1488   -0.1860   22.6148 H   0  0  0  0  0  0  0  0  0  0  0  0
    7.8392    1.3576   21.9974 H   0  0  0  0  0  0  0  0  0  0  0  0
    8.3361   -0.0735   25.4152 H   0  0  0  0  0  0  0  0  0  0  0  0
    6.9549    0.8663   26.0857 H   0  0  0  0  0  0  0  0  0  0  0  0
    6.6531   -0.4617   24.9086 H   0  0  0  0  0  0  0  0  0  0  0  0
    7.3637    8.6921   23.1332 H   0  0  0  0  0  0  0  0  0  0  0  0
    7.7395    8.2681   24.7915 H   0  0  0  0  0  0  0  0  0  0  0  0
   12.4402    4.6269   21.7288 H   0  0  0  0  0  0  0  0  0  0  0  0
   13.7853    5.0330   22.8040 H   0  0  0  0  0  0  0  0  0  0  0  0
    5.7248    2.7248   25.3284 H   0  0  0  0  0  0  0  0  0  0  0  0
    6.0305    4.0834   26.4269 H   0  0  0  0  0  0  0  0  0  0  0  0
    7.8917    2.4327   26.5182 H   0  0  0  0  0  0  0  0  0  0  0  0
    8.4539    3.9912   25.9254 H   0  0  0  0  0  0  0  0  0  0  0  0
    5.4168    7.6102   24.2259 H   0  0  0  0  0  0  0  0  0  0  0  0
    5.9816    6.6045   22.8791 H   0  0  0  0  0  0  0  0  0  0  0  0
    8.2985    3.1401   23.5464 H   0  0  0  0  0  0  0  0  0  0  0  0
    9.3430    2.0701   24.5282 H   0  0  0  0  0  0  0  0  0  0  0  0
   10.5740    5.6375   21.1401 H   0  0  0  0  0  0  0  0  0  0  0  0
    6.5391    6.0735   25.7479 H   0  0  0  0  0  0  0  0  0  0  0  0
   13.6296    3.0783   23.8801 H   0  0  0  0  0  0  0  0  0  0  0  0
    6.5012    1.6733   23.9153 H   0  0  0  0  0  0  0  0  0  0  0  0
  1  2  1  0  0  0  0
  1  3  2  0  0  0  0
  2  5  2  0  0  0  0
  3  6  1  0  0  0  0
  4  7  2  0  0  0  0
  4 25  1  0  0  0  0
  5  7  1  0  0  0  0
  5  8  1  0  0  0  0
  6  8  2  0  0  0  0
  6 20  1  0  0  0  0
  7 19  1  0  0  0  0
  8 25  1  0  0  0  0
  9 10  2  0  0  0  0
 10 11  1  0  0  0  0
 11 26  1  0  0  0  0
 11 30  2  0  0  0  0
 12 21  1  0  0  0  0
 12 27  1  0  0  0  0
 12 31  2  0  0  0  0
 13 15  1  0  0  0  0
 13 26  1  0  0  0  0
 14 16  1  0  0  0  0
 14 26  1  0  0  0  0
 15 28  1  0  0  0  0
 16 28  1  0  0  0  0
 17 29  1  0  0  0  0
 18 29  1  0  0  0  0
 19 23  1  0  0  0  0
 20 28  1  0  0  0  0
 21 22  1  0  0  0  0
 22 24  1  0  0  0  0
 23 27  1  0  0  0  0
 24 29  1  0  0  0  0
  1 32  1  0  0  0  0
  2 33  1  0  0  0  0
  3 34  1  0  0  0  0
  4 35  1  0  0  0  0
  9 36  1  0  0  0  0
  9 37  1  0  0  0  0
 10 38  1  0  0  0  0
 13 39  1  0  0  0  0
 13 40  1  0  0  0  0
 14 41  1  0  0  0  0
 14 42  1  0  0  0  0
 15 43  1  0  0  0  0
 15 44  1  0  0  0  0
 16 45  1  0  0  0  0
 16 46  1  0  0  0  0
 17 47  1  0  0  0  0
 17 48  1  0  0  0  0
 17 49  1  0  0  0  0
 18 50  1  0  0  0  0
 18 51  1  0  0  0  0
 18 52  1  0  0  0  0
 19 53  1  0  0  0  0
 19 54  1  0  0  0  0
 20 55  1  0  0  0  0
 20 56  1  0  0  0  0
 21 57  1  0  0  0  0
 21 58  1  0  0  0  0
 22 59  1  0  0  0  0
 22 60  1  0  0  0  0
 23 61  1  0  0  0  0
 23 62  1  0  0  0  0
 24 63  1  0  0  0  0
 24 64  1  0  0  0  0
 25 65  1  0  0  0  0
 27 66  1  0  0  0  0
 28 67  1  0  0  0  0
 29 68  1  0  0  0  0
M  CHG  2  28   1  29   1
M  END
> <creator>
Jan, Ghent University

> <fragments>
x0104

> <real_space>
FALSE

> <SCR>
FALSE

> <BB>
FALSE

> <link>
https://covid.postera.ai/covid/submissions/6413aaf8-c5d7-46f1-8e3f-314432f79018

> <covalent_frag>
TRUE

> <covalent_warhead>
TRUE

> <acrylamide>
TRUE

> <acrylamide_adduct>
FALSE

> <chloroacetamide>
FALSE

> <chloroacetamide_adduct>
FALSE

> <vinylsulfonamide>
FALSE

> <vinylsulfonamide_adduct>
FALSE

> <in_molport_or_mcule>
FALSE

> <in_emolecules>
FALSE

> <Hybrid2>
-5.849407

> <Mpro-x0104_dock>
-5.849407

> <Mpro-x0692_dock>
-3.055305

> <site>
active-noncovalent

> <covalent_distance_min>
3.441523

> <covalent_distance_mean>
4.108439

> <covalent_distance_stderr>
0.04644486

$$$$
STU-CHA-bc0-1
  -OEChem-04062011563D

 52 54  0     0  0  0  0  0  0999 V2000
   10.8541    7.2515   25.7885 C   0  0  0  0  0  0  0  0  0  0  0  0
   12.4923    5.4915   25.4483 C   0  0  0  0  0  0  0  0  0  0  0  0
    9.1037    6.7685   22.6162 C   0  0  0  0  0  0  0  0  0  0  0  0
   10.2822    6.9495   24.5366 C   0  0  0  0  0  0  0  0  0  0  0  0
   11.9418    5.1740   24.2033 C   0  0  0  0  0  0  0  0  0  0  0  0
    9.1886    7.4756   23.7934 C   0  0  0  0  0  0  0  0  0  0  0  0
   10.8381    5.9198   23.7744 C   0  0  0  0  0  0  0  0  0  0  0  0
   11.9584    6.5139   26.2303 C   0  0  0  0  0  0  0  0  0  0  0  0
   11.2421   -1.2404   24.2994 C   0  0  0  0  0  0  0  0  0  0  0  0
    7.1085    5.8867   25.7620 C   0  0  0  0  0  0  0  0  0  0  0  0
   10.5588    1.0953   24.7453 C   0  0  0  0  0  0  0  0  0  0  0  0
   11.3733    0.5389   22.4870 C   0  0  0  0  0  0  0  0  0  0  0  0
   11.4810    2.3043   24.8024 C   0  0  0  0  0  0  0  0  0  0  0  0
   12.3071    1.7415   22.5093 C   0  0  0  0  0  0  0  0  0  0  0  0
    7.1878    5.1982   27.0841 C   0  0  0  0  0  0  0  0  0  0  0  0
    8.2985    8.5809   24.2024 C   0  0  0  0  0  0  0  0  0  0  0  0
   12.5423    4.0671   23.3877 C   0  0  0  0  0  0  0  0  0  0  0  0
   11.1108   -2.3302   23.2656 C   0  0  0  0  0  0  0  0  0  0  0  0
    6.9126    8.1224   24.6915 C   0  0  0  0  0  0  0  0  0  0  0  0
   10.1025    5.8322   22.6140 N   0  0  0  0  0  0  0  0  0  0  0  0
   11.0912    0.0699   23.8479 N   0  0  0  0  0  0  0  0  0  0  0  0
    7.0004    7.2657   25.8436 N   0  0  0  0  0  0  0  0  0  0  0  0
   11.7146    2.8128   23.3974 N   0  3  0  0  0  0  0  0  0  0  0  0
   11.4744   -1.5463   25.4718 O   0  0  0  0  0  0  0  0  0  0  0  0
    7.1436    5.2233   24.7322 O   0  0  0  0  0  0  0  0  0  0  0  0
   12.5078    6.7950   27.4199 F   0  0  0  0  0  0  0  0  0  0  0  0
    9.7943   -3.3713   23.7955 Cl  0  0  0  0  0  0  0  0  0  0  0  0
   10.4496    8.0452   26.4100 H   0  0  0  0  0  0  0  0  0  0  0  0
   13.3510    4.9371   25.8202 H   0  0  0  0  0  0  0  0  0  0  0  0
    8.4228    6.8455   21.7798 H   0  0  0  0  0  0  0  0  0  0  0  0
   10.4195    0.6940   25.7541 H   0  0  0  0  0  0  0  0  0  0  0  0
    9.5685    1.3798   24.3695 H   0  0  0  0  0  0  0  0  0  0  0  0
   10.4128    0.8049   22.0291 H   0  0  0  0  0  0  0  0  0  0  0  0
   11.8151   -0.2450   21.8694 H   0  0  0  0  0  0  0  0  0  0  0  0
   11.0179    3.1173   25.3709 H   0  0  0  0  0  0  0  0  0  0  0  0
   12.4559    2.0576   25.2378 H   0  0  0  0  0  0  0  0  0  0  0  0
   13.2965    1.4855   22.9047 H   0  0  0  0  0  0  0  0  0  0  0  0
   12.4096    2.1690   21.5067 H   0  0  0  0  0  0  0  0  0  0  0  0
    6.1951    4.9235   27.4754 H   0  0  0  0  0  0  0  0  0  0  0  0
    7.7522    4.2532   27.0329 H   0  0  0  0  0  0  0  0  0  0  0  0
    7.6665    5.7780   27.8894 H   0  0  0  0  0  0  0  0  0  0  0  0
    8.1456    9.2790   23.3558 H   0  0  0  0  0  0  0  0  0  0  0  0
    8.7649    9.2024   24.9934 H   0  0  0  0  0  0  0  0  0  0  0  0
   12.6526    4.3630   22.3389 H   0  0  0  0  0  0  0  0  0  0  0  0
   13.5340    3.7925   23.7630 H   0  0  0  0  0  0  0  0  0  0  0  0
   12.0372   -2.8919   23.2274 H   0  0  0  0  0  0  0  0  0  0  0  0
   10.8682   -1.8804   22.3097 H   0  0  0  0  0  0  0  0  0  0  0  0
    6.2956    8.9788   24.9812 H   0  0  0  0  0  0  0  0  0  0  0  0
    6.3833    7.5696   23.9084 H   0  0  0  0  0  0  0  0  0  0  0  0
   10.2740    5.1717   21.8685 H   0  0  0  0  0  0  0  0  0  0  0  0
    6.9820    7.6950   26.7673 H   0  0  0  0  0  0  0  0  0  0  0  0
   10.7971    3.0645   23.0044 H   0  0  0  0  0  0  0  0  0  0  0  0
  1  4  1  0  0  0  0
  1  8  2  0  0  0  0
  2  5  2  0  0  0  0
  2  8  1  0  0  0  0
  3  6  2  0  0  0  0
  3 20  1  0  0  0  0
  4  6  1  0  0  0  0
  4  7  2  0  0  0  0
  5  7  1  0  0  0  0
  5 17  1  0  0  0  0
  6 16  1  0  0  0  0
  7 20  1  0  0  0  0
  8 26  1  0  0  0  0
  9 18  1  0  0  0  0
  9 21  1  0  0  0  0
  9 24  2  0  0  0  0
 10 15  1  0  0  0  0
 10 22  1  0  0  0  0
 10 25  2  0  0  0  0
 11 13  1  0  0  0  0
 11 21  1  0  0  0  0
 12 14  1  0  0  0  0
 12 21  1  0  0  0  0
 13 23  1  0  0  0  0
 14 23  1  0  0  0  0
 16 19  1  0  0  0  0
 17 23  1  0  0  0  0
 18 27  1  0  0  0  0
 19 22  1  0  0  0  0
  1 28  1  0  0  0  0
  2 29  1  0  0  0  0
  3 30  1  0  0  0  0
 11 31  1  0  0  0  0
 11 32  1  0  0  0  0
 12 33  1  0  0  0  0
 12 34  1  0  0  0  0
 13 35  1  0  0  0  0
 13 36  1  0  0  0  0
 14 37  1  0  0  0  0
 14 38  1  0  0  0  0
 15 39  1  0  0  0  0
 15 40  1  0  0  0  0
 15 41  1  0  0  0  0
 16 42  1  0  0  0  0
 16 43  1  0  0  0  0
 17 44  1  0  0  0  0
 17 45  1  0  0  0  0
 18 46  1  0  0  0  0
 18 47  1  0  0  0  0
 19 48  1  0  0  0  0
 19 49  1  0  0  0  0
 20 50  1  0  0  0  0
 22 51  1  0  0  0  0
 23 52  1  0  0  0  0
M  CHG  1  23   1
M  END
> <creator>
Stuart Ward, Charles River Laboratories

> <fragments>
x0104

> <real_space>
FALSE

> <SCR>
FALSE

> <BB>
FALSE

> <link>
https://covid.postera.ai/covid/submissions/bc0a9883-2a63-425e-bf56-b890e1d08c1a

> <covalent_frag>
TRUE

> <covalent_warhead>
TRUE

> <acrylamide>
FALSE

> <acrylamide_adduct>
FALSE

> <chloroacetamide>
TRUE

> <chloroacetamide_adduct>
FALSE

> <vinylsulfonamide>
FALSE

> <vinylsulfonamide_adduct>
FALSE

> <in_molport_or_mcule>
FALSE

> <in_emolecules>
FALSE

> <Hybrid2>
-5.819488

> <Mpro-x0104_dock>
-5.819488

> <Mpro-x0692_dock>
-5.765004

> <site>
active-noncovalent

> <covalent_distance_min>
5.3473186

> <covalent_distance_mean>
5.7262487

> <covalent_distance_stderr>
0.044943243

$$$$
TAM-UNI-d1c-3
  -OEChem-04062011563D

 51 53  0     1  0  0  0  0  0999 V2000
   12.9309    0.8811   23.5556 C   0  0  0  0  0  0  0  0  0  0  0  0
   12.4822    0.9235   24.8756 C   0  0  0  0  0  0  0  0  0  0  0  0
   12.3374    0.0069   22.6450 C   0  0  0  0  0  0  0  0  0  0  0  0
   11.4401    0.0917   25.2851 C   0  0  0  0  0  0  0  0  0  0  0  0
   11.2952   -0.8249   23.0545 C   0  0  0  0  0  0  0  0  0  0  0  0
   10.8465   -0.7825   24.3745 C   0  0  0  0  0  0  0  0  0  0  0  0
    7.8113   -0.2467   24.5182 C   0  0  0  0  0  0  0  0  0  0  0  0
    5.8538   -1.2878   19.3660 C   0  0  0  0  0  0  0  0  0  0  0  0
    8.8438   -3.5051   25.7615 C   0  0  0  0  0  0  0  0  0  0  0  0
    7.7765   -2.4295   25.6657 C   0  0  0  0  0  0  0  0  0  0  0  0
    9.8832   -3.0577   24.7399 C   0  0  0  0  0  0  0  0  0  0  0  0
    7.0084   -2.4436   21.2240 C   0  0  0  0  0  0  0  0  0  0  0  0
    7.4573   -0.0426   20.8976 C   0  0  0  0  0  0  0  0  0  0  0  0
    8.5000   -2.7316   21.3124 C   0  0  0  0  0  0  0  0  0  0  0  0
    8.9567   -0.2943   20.9830 C   0  0  0  0  0  0  0  0  0  0  0  0
    8.5780   -1.1433   25.4367 C   0  0  1  0  0  0  0  0  0  0  0  0
   10.6754   -1.7553   22.0539 C   0  0  0  0  0  0  0  0  0  0  0  0
    6.1206   -0.3488   18.2167 C   0  0  0  0  0  0  0  0  0  0  0  0
    9.8162   -1.5986   24.7972 N   0  0  3  0  0  0  0  0  0  0  0  0
    6.7512   -1.2409   20.4318 N   0  0  0  0  0  0  0  0  0  0  0  0
    8.0527    1.0916   24.7204 N   0  0  0  0  0  0  0  0  0  0  0  0
    9.2071   -1.5077   21.8503 N   0  3  0  0  0  0  0  0  0  0  0  0
    7.0535   -0.6877   23.6576 O   0  0  0  0  0  0  0  0  0  0  0  0
    4.8782   -2.0413   19.3149 O   0  0  0  0  0  0  0  0  0  0  0  0
    7.7261   -0.7388   17.6100 Cl  0  0  0  0  0  0  0  0  0  0  0  0
   13.7424    1.5288   23.2369 H   0  0  0  0  0  0  0  0  0  0  0  0
   12.9444    1.6043   25.5845 H   0  0  0  0  0  0  0  0  0  0  0  0
   12.6944   -0.0185   21.6188 H   0  0  0  0  0  0  0  0  0  0  0  0
   11.0989    0.1336   26.3164 H   0  0  0  0  0  0  0  0  0  0  0  0
    9.2604   -3.5876   26.7694 H   0  0  0  0  0  0  0  0  0  0  0  0
    8.4310   -4.4807   25.4796 H   0  0  0  0  0  0  0  0  0  0  0  0
    7.0609   -2.6414   24.8645 H   0  0  0  0  0  0  0  0  0  0  0  0
    7.2280   -2.3633   26.6136 H   0  0  0  0  0  0  0  0  0  0  0  0
   10.8796   -3.4128   25.0339 H   0  0  0  0  0  0  0  0  0  0  0  0
    9.6592   -3.4311   23.7344 H   0  0  0  0  0  0  0  0  0  0  0  0
    6.4940   -3.3089   20.7943 H   0  0  0  0  0  0  0  0  0  0  0  0
    6.5853   -2.2772   22.2221 H   0  0  0  0  0  0  0  0  0  0  0  0
    7.0520    0.2106   21.8847 H   0  0  0  0  0  0  0  0  0  0  0  0
    7.2756    0.8155   20.2482 H   0  0  0  0  0  0  0  0  0  0  0  0
    8.6944   -3.5534   22.0091 H   0  0  0  0  0  0  0  0  0  0  0  0
    8.9320   -2.9671   20.3332 H   0  0  0  0  0  0  0  0  0  0  0  0
    9.3972   -0.4874   19.9984 H   0  0  0  0  0  0  0  0  0  0  0  0
    9.4640    0.5537   21.4543 H   0  0  0  0  0  0  0  0  0  0  0  0
    8.7293   -0.6183   26.3895 H   0  0  0  0  0  0  0  0  0  0  0  0
   11.1504   -1.6546   21.0722 H   0  0  0  0  0  0  0  0  0  0  0  0
   10.7776   -2.7995   22.3685 H   0  0  0  0  0  0  0  0  0  0  0  0
    6.0990    0.6709   18.5838 H   0  0  0  0  0  0  0  0  0  0  0  0
    5.3792   -0.5190   17.4445 H   0  0  0  0  0  0  0  0  0  0  0  0
    7.5705    1.7671   24.1367 H   0  0  0  0  0  0  0  0  0  0  0  0
    8.6940    1.4310   25.4301 H   0  0  0  0  0  0  0  0  0  0  0  0
    8.8124   -1.3074   22.7797 H   0  0  0  0  0  0  0  0  0  0  0  0
  1  2  1  0  0  0  0
  1  3  2  0  0  0  0
  2  4  2  0  0  0  0
  3  5  1  0  0  0  0
  4  6  1  0  0  0  0
  5  6  2  0  0  0  0
  5 17  1  0  0  0  0
  6 19  1  0  0  0  0
  7 16  1  0  0  0  0
  7 21  1  0  0  0  0
  7 23  2  0  0  0  0
  8 18  1  0  0  0  0
  8 20  1  0  0  0  0
  8 24  2  0  0  0  0
  9 10  1  0  0  0  0
  9 11  1  0  0  0  0
 10 16  1  0  0  0  0
 11 19  1  0  0  0  0
 12 14  1  0  0  0  0
 12 20  1  0  0  0  0
 13 15  1  0  0  0  0
 13 20  1  0  0  0  0
 14 22  1  0  0  0  0
 15 22  1  0  0  0  0
 16 19  1  0  0  0  0
 17 22  1  0  0  0  0
 18 25  1  0  0  0  0
  1 26  1  0  0  0  0
  2 27  1  0  0  0  0
  3 28  1  0  0  0  0
  4 29  1  0  0  0  0
  9 30  1  0  0  0  0
  9 31  1  0  0  0  0
 10 32  1  0  0  0  0
 10 33  1  0  0  0  0
 11 34  1  0  0  0  0
 11 35  1  0  0  0  0
 12 36  1  0  0  0  0
 12 37  1  0  0  0  0
 13 38  1  0  0  0  0
 13 39  1  0  0  0  0
 14 40  1  0  0  0  0
 14 41  1  0  0  0  0
 15 42  1  0  0  0  0
 15 43  1  0  0  0  0
 16 44  1  0  0  0  0
 17 45  1  0  0  0  0
 17 46  1  0  0  0  0
 18 47  1  0  0  0  0
 18 48  1  0  0  0  0
 21 49  1  0  0  0  0
 21 50  1  0  0  0  0
 22 51  1  0  0  0  0
M  CHG  1  22   1
M  END
> <creator>
Tamas Szommer, University of Oxford, TDI

> <fragments>
x1386

> <real_space>
FALSE

> <SCR>
FALSE

> <BB>
FALSE

> <link>
https://covid.postera.ai/covid/submissions/d1c3dd9f-771c-474e-9133-8c7e4ace8b98

> <covalent_frag>
TRUE

> <covalent_warhead>
TRUE

> <acrylamide>
FALSE

> <acrylamide_adduct>
FALSE

> <chloroacetamide>
TRUE

> <chloroacetamide_adduct>
FALSE

> <vinylsulfonamide>
FALSE

> <vinylsulfonamide_adduct>
FALSE

> <in_molport_or_mcule>
FALSE

> <in_emolecules>
FALSE

> <Hybrid2>
-5.806887

> <Mpro-x1386_dock>
-5.806887

> <Mpro-x1392_dock>
-5.544474

> <Mpro-x0692_dock>
-5.135768

> <Mpro-x1382_dock>
-3.682102

> <site>
active-covalent

> <covalent_distance_min>
3.4171786

> <covalent_distance_mean>
4.7399354

> <covalent_distance_stderr>
0.058696717

$$$$
NIM-UNI-594-3
  -OEChem-04062011563D

 46 48  0     0  0  0  0  0  0999 V2000
   13.8633    5.3826   21.6241 C   0  0  0  0  0  0  0  0  0  0  0  0
   14.0656    4.0028   21.6545 C   0  0  0  0  0  0  0  0  0  0  0  0
   12.9333    5.9702   22.4819 C   0  0  0  0  0  0  0  0  0  0  0  0
   12.4079    3.7981   23.4001 C   0  0  0  0  0  0  0  0  0  0  0  0
   12.9117    0.9352   23.3754 C   0  0  0  0  0  0  0  0  0  0  0  0
   13.3379    3.2106   22.5424 C   0  0  0  0  0  0  0  0  0  0  0  0
   12.2056    5.1779   23.3698 C   0  0  0  0  0  0  0  0  0  0  0  0
   13.4657   -0.2654   23.0085 C   0  0  0  0  0  0  0  0  0  0  0  0
    7.7187   -1.1150   22.7781 C   0  0  0  0  0  0  0  0  0  0  0  0
    9.8070   -2.2199   21.8370 C   0  0  0  0  0  0  0  0  0  0  0  0
    9.4535   -2.0558   24.2705 C   0  0  0  0  0  0  0  0  0  0  0  0
   11.2244   -1.6849   21.9901 C   0  0  0  0  0  0  0  0  0  0  0  0
   10.8640   -1.5172   24.4597 C   0  0  0  0  0  0  0  0  0  0  0  0
   13.1820   -1.6397   23.5394 C   0  0  0  0  0  0  0  0  0  0  0  0
    7.2437   -0.8941   21.3642 C   0  0  0  0  0  0  0  0  0  0  0  0
   14.3875   -0.0628   22.0191 N   0  0  0  0  0  0  0  0  0  0  0  0
   14.4254    1.2391   21.7570 N   0  0  0  0  0  0  0  0  0  0  0  0
   13.5400    1.8357   22.5714 N   0  0  0  0  0  0  0  0  0  0  0  0
    8.9496   -1.7515   22.9311 N   0  0  0  0  0  0  0  0  0  0  0  0
   12.0207    6.2508   25.8029 N   0  0  0  0  0  0  0  0  0  0  0  0
   11.7495   -2.0566   23.3587 N   0  3  0  0  0  0  0  0  0  0  0  0
    7.0167   -0.7307   23.7170 O   0  0  0  0  0  0  0  0  0  0  0  0
   10.6047    7.1716   23.8554 O   0  0  0  0  0  0  0  0  0  0  0  0
   10.0561    4.9080   24.8159 O   0  0  0  0  0  0  0  0  0  0  0  0
   11.0419    5.9132   24.4436 S   0  0  0  0  0  0  0  0  0  0  0  0
    7.8318    0.6918   20.8773 Cl  0  0  0  0  0  0  0  0  0  0  0  0
   14.4303    5.9993   20.9329 H   0  0  0  0  0  0  0  0  0  0  0  0
   14.7937    3.5583   20.9802 H   0  0  0  0  0  0  0  0  0  0  0  0
   12.7840    7.0461   22.4494 H   0  0  0  0  0  0  0  0  0  0  0  0
   11.8397    3.1828   24.0945 H   0  0  0  0  0  0  0  0  0  0  0  0
   12.1618    1.2091   24.1053 H   0  0  0  0  0  0  0  0  0  0  0  0
    9.4021   -1.9120   20.8692 H   0  0  0  0  0  0  0  0  0  0  0  0
    9.8003   -3.3153   21.8611 H   0  0  0  0  0  0  0  0  0  0  0  0
    9.4397   -3.1477   24.3843 H   0  0  0  0  0  0  0  0  0  0  0  0
    8.8082   -1.6481   25.0523 H   0  0  0  0  0  0  0  0  0  0  0  0
   11.8910   -2.1400   21.2498 H   0  0  0  0  0  0  0  0  0  0  0  0
   11.2633   -0.5931   21.8993 H   0  0  0  0  0  0  0  0  0  0  0  0
   10.8960   -0.4233   24.4117 H   0  0  0  0  0  0  0  0  0  0  0  0
   11.2832   -1.8581   25.4115 H   0  0  0  0  0  0  0  0  0  0  0  0
   13.7952   -2.3937   23.0343 H   0  0  0  0  0  0  0  0  0  0  0  0
   13.3946   -1.7009   24.6122 H   0  0  0  0  0  0  0  0  0  0  0  0
    6.1599   -0.9092   21.3512 H   0  0  0  0  0  0  0  0  0  0  0  0
    7.6690   -1.6608   20.7268 H   0  0  0  0  0  0  0  0  0  0  0  0
   12.2576    7.2319   25.9944 H   0  0  0  0  0  0  0  0  0  0  0  0
   11.8832    5.6842   26.6486 H   0  0  0  0  0  0  0  0  0  0  0  0
   11.7328   -3.0836   23.4267 H   0  0  0  0  0  0  0  0  0  0  0  0
  1  2  1  0  0  0  0
  1  3  2  0  0  0  0
  2  6  2  0  0  0  0
  3  7  1  0  0  0  0
  4  6  1  0  0  0  0
  4  7  2  0  0  0  0
  5  8  2  0  0  0  0
  5 18  1  0  0  0  0
  6 18  1  0  0  0  0
  7 25  1  0  0  0  0
  8 14  1  0  0  0  0
  8 16  1  0  0  0  0
  9 15  1  0  0  0  0
  9 19  1  0  0  0  0
  9 22  2  0  0  0  0
 10 12  1  0  0  0  0
 10 19  1  0  0  0  0
 11 13  1  0  0  0  0
 11 19  1  0  0  0  0
 12 21  1  0  0  0  0
 13 21  1  0  0  0  0
 14 21  1  0  0  0  0
 15 26  1  0  0  0  0
 16 17  2  0  0  0  0
 17 18  1  0  0  0  0
 20 25  1  0  0  0  0
 23 25  2  0  0  0  0
 24 25  2  0  0  0  0
  1 27  1  0  0  0  0
  2 28  1  0  0  0  0
  3 29  1  0  0  0  0
  4 30  1  0  0  0  0
  5 31  1  0  0  0  0
 10 32  1  0  0  0  0
 10 33  1  0  0  0  0
 11 34  1  0  0  0  0
 11 35  1  0  0  0  0
 12 36  1  0  0  0  0
 12 37  1  0  0  0  0
 13 38  1  0  0  0  0
 13 39  1  0  0  0  0
 14 40  1  0  0  0  0
 14 41  1  0  0  0  0
 15 42  1  0  0  0  0
 15 43  1  0  0  0  0
 20 44  1  0  0  0  0
 20 45  1  0  0  0  0
 21 46  1  0  0  0  0
M  CHG  1  21   1
M  END
> <creator>
Nimesh Mistry, University of Leeds

> <fragments>
x0195

> <real_space>
FALSE

> <SCR>
FALSE

> <BB>
FALSE

> <link>
https://covid.postera.ai/covid/submissions/594fbbb6-64d2-40cb-a440-3e4489b3a77e

> <covalent_frag>
TRUE

> <covalent_warhead>
TRUE

> <acrylamide>
FALSE

> <acrylamide_adduct>
FALSE

> <chloroacetamide>
TRUE

> <chloroacetamide_adduct>
FALSE

> <vinylsulfonamide>
FALSE

> <vinylsulfonamide_adduct>
FALSE

> <in_molport_or_mcule>
FALSE

> <in_emolecules>
FALSE

> <Hybrid2>
-5.789229

> <Mpro-x0195_dock>
-5.789229

> <Mpro-x0434_dock>
-4.038057

> <Mpro-x0770_dock>
-2.955289

> <Mpro-x1374_dock>
-1.014654

> <site>
active-noncovalent

> <covalent_distance_min>
3.2360985

> <covalent_distance_mean>
3.9515634

> <covalent_distance_stderr>
0.028655674

$$$$
NIM-UNI-bb6-3
  -OEChem-04062011563D

 46 48  0     0  0  0  0  0  0999 V2000
   13.8633    5.3826   21.6241 C   0  0  0  0  0  0  0  0  0  0  0  0
   14.0656    4.0028   21.6545 C   0  0  0  0  0  0  0  0  0  0  0  0
   12.9333    5.9702   22.4819 C   0  0  0  0  0  0  0  0  0  0  0  0
   12.4079    3.7981   23.4001 C   0  0  0  0  0  0  0  0  0  0  0  0
   12.9117    0.9352   23.3754 C   0  0  0  0  0  0  0  0  0  0  0  0
   13.3379    3.2106   22.5424 C   0  0  0  0  0  0  0  0  0  0  0  0
   12.2056    5.1779   23.3698 C   0  0  0  0  0  0  0  0  0  0  0  0
   13.4657   -0.2654   23.0085 C   0  0  0  0  0  0  0  0  0  0  0  0
    7.7187   -1.1150   22.7781 C   0  0  0  0  0  0  0  0  0  0  0  0
    9.8070   -2.2199   21.8370 C   0  0  0  0  0  0  0  0  0  0  0  0
    9.4535   -2.0558   24.2705 C   0  0  0  0  0  0  0  0  0  0  0  0
   11.2244   -1.6849   21.9901 C   0  0  0  0  0  0  0  0  0  0  0  0
   10.8640   -1.5172   24.4597 C   0  0  0  0  0  0  0  0  0  0  0  0
   13.1820   -1.6397   23.5394 C   0  0  0  0  0  0  0  0  0  0  0  0
    7.2437   -0.8941   21.3642 C   0  0  0  0  0  0  0  0  0  0  0  0
   14.3875   -0.0628   22.0191 N   0  0  0  0  0  0  0  0  0  0  0  0
   14.4254    1.2391   21.7570 N   0  0  0  0  0  0  0  0  0  0  0  0
   13.5400    1.8357   22.5714 N   0  0  0  0  0  0  0  0  0  0  0  0
    8.9496   -1.7515   22.9311 N   0  0  0  0  0  0  0  0  0  0  0  0
   12.0207    6.2508   25.8029 N   0  0  0  0  0  0  0  0  0  0  0  0
   11.7495   -2.0566   23.3587 N   0  3  0  0  0  0  0  0  0  0  0  0
    7.0167   -0.7307   23.7170 O   0  0  0  0  0  0  0  0  0  0  0  0
   10.6047    7.1716   23.8554 O   0  0  0  0  0  0  0  0  0  0  0  0
   10.0561    4.9080   24.8159 O   0  0  0  0  0  0  0  0  0  0  0  0
   11.0419    5.9132   24.4436 S   0  0  0  0  0  0  0  0  0  0  0  0
    7.8318    0.6918   20.8773 Cl  0  0  0  0  0  0  0  0  0  0  0  0
   14.4303    5.9993   20.9329 H   0  0  0  0  0  0  0  0  0  0  0  0
   14.7937    3.5583   20.9802 H   0  0  0  0  0  0  0  0  0  0  0  0
   12.7840    7.0461   22.4494 H   0  0  0  0  0  0  0  0  0  0  0  0
   11.8397    3.1828   24.0945 H   0  0  0  0  0  0  0  0  0  0  0  0
   12.1618    1.2091   24.1053 H   0  0  0  0  0  0  0  0  0  0  0  0
    9.4021   -1.9120   20.8692 H   0  0  0  0  0  0  0  0  0  0  0  0
    9.8003   -3.3153   21.8611 H   0  0  0  0  0  0  0  0  0  0  0  0
    9.4397   -3.1477   24.3843 H   0  0  0  0  0  0  0  0  0  0  0  0
    8.8082   -1.6481   25.0523 H   0  0  0  0  0  0  0  0  0  0  0  0
   11.8910   -2.1400   21.2498 H   0  0  0  0  0  0  0  0  0  0  0  0
   11.2633   -0.5931   21.8993 H   0  0  0  0  0  0  0  0  0  0  0  0
   10.8960   -0.4233   24.4117 H   0  0  0  0  0  0  0  0  0  0  0  0
   11.2832   -1.8581   25.4115 H   0  0  0  0  0  0  0  0  0  0  0  0
   13.7952   -2.3937   23.0343 H   0  0  0  0  0  0  0  0  0  0  0  0
   13.3946   -1.7009   24.6122 H   0  0  0  0  0  0  0  0  0  0  0  0
    6.1599   -0.9092   21.3512 H   0  0  0  0  0  0  0  0  0  0  0  0
    7.6690   -1.6608   20.7268 H   0  0  0  0  0  0  0  0  0  0  0  0
   12.2576    7.2319   25.9944 H   0  0  0  0  0  0  0  0  0  0  0  0
   11.8832    5.6842   26.6486 H   0  0  0  0  0  0  0  0  0  0  0  0
   11.7328   -3.0836   23.4267 H   0  0  0  0  0  0  0  0  0  0  0  0
  1  2  1  0  0  0  0
  1  3  2  0  0  0  0
  2  6  2  0  0  0  0
  3  7  1  0  0  0  0
  4  6  1  0  0  0  0
  4  7  2  0  0  0  0
  5  8  2  0  0  0  0
  5 18  1  0  0  0  0
  6 18  1  0  0  0  0
  7 25  1  0  0  0  0
  8 14  1  0  0  0  0
  8 16  1  0  0  0  0
  9 15  1  0  0  0  0
  9 19  1  0  0  0  0
  9 22  2  0  0  0  0
 10 12  1  0  0  0  0
 10 19  1  0  0  0  0
 11 13  1  0  0  0  0
 11 19  1  0  0  0  0
 12 21  1  0  0  0  0
 13 21  1  0  0  0  0
 14 21  1  0  0  0  0
 15 26  1  0  0  0  0
 16 17  2  0  0  0  0
 17 18  1  0  0  0  0
 20 25  1  0  0  0  0
 23 25  2  0  0  0  0
 24 25  2  0  0  0  0
  1 27  1  0  0  0  0
  2 28  1  0  0  0  0
  3 29  1  0  0  0  0
  4 30  1  0  0  0  0
  5 31  1  0  0  0  0
 10 32  1  0  0  0  0
 10 33  1  0  0  0  0
 11 34  1  0  0  0  0
 11 35  1  0  0  0  0
 12 36  1  0  0  0  0
 12 37  1  0  0  0  0
 13 38  1  0  0  0  0
 13 39  1  0  0  0  0
 14 40  1  0  0  0  0
 14 41  1  0  0  0  0
 15 42  1  0  0  0  0
 15 43  1  0  0  0  0
 20 44  1  0  0  0  0
 20 45  1  0  0  0  0
 21 46  1  0  0  0  0
M  CHG  1  21   1
M  END
> <creator>
Nimesh Mistry, University of Leeds

> <fragments>
x0195

> <real_space>
FALSE

> <SCR>
FALSE

> <BB>
FALSE

> <link>
https://covid.postera.ai/covid/submissions/bb610069-39f6-486e-8917-0241f972d38b

> <covalent_frag>
TRUE

> <covalent_warhead>
TRUE

> <acrylamide>
FALSE

> <acrylamide_adduct>
FALSE

> <chloroacetamide>
TRUE

> <chloroacetamide_adduct>
FALSE

> <vinylsulfonamide>
FALSE

> <vinylsulfonamide_adduct>
FALSE

> <in_molport_or_mcule>
FALSE

> <in_emolecules>
FALSE

> <Hybrid2>
-5.789229

> <Mpro-x0195_dock>
-5.789229

> <Mpro-x0434_dock>
-3.052315

> <Mpro-x0770_dock>
-2.955289

> <Mpro-x1374_dock>
-1.014654

> <site>
active-noncovalent

> <covalent_distance_min>
3.339573

> <covalent_distance_mean>
4.6108885

> <covalent_distance_stderr>
0.05622595

$$$$
BRU-LEF-ae0-1
  -OEChem-04062011563D

 43 44  0     0  0  0  0  0  0999 V2000
    8.0768   -4.5897   25.9139 C   0  0  0  0  0  0  0  0  0  0  0  0
    9.4837   -2.6000   25.6337 C   0  0  0  0  0  0  0  0  0  0  0  0
    7.2203   -2.3321   26.3133 C   0  0  0  0  0  0  0  0  0  0  0  0
    8.2590   -3.1756   25.9534 C   0  0  0  0  0  0  0  0  0  0  0  0
    9.6302   -1.2182   25.6830 C   0  0  0  0  0  0  0  0  0  0  0  0
    8.5300   -0.4624   26.0548 C   0  0  0  0  0  0  0  0  0  0  0  0
   13.6306   -1.3788   21.0676 C   0  0  0  0  0  0  0  0  0  0  0  0
   11.6725   -1.8282   22.5096 C   0  0  0  0  0  0  0  0  0  0  0  0
   13.3518   -0.2027   23.3043 C   0  0  0  0  0  0  0  0  0  0  0  0
   10.5473   -0.8651   22.8584 C   0  0  0  0  0  0  0  0  0  0  0  0
   12.2484    0.7824   23.6667 C   0  0  0  0  0  0  0  0  0  0  0  0
    6.9075    1.9472   27.3983 C   0  0  0  0  0  0  0  0  0  0  0  0
   10.9533   -0.6005   25.3384 C   0  0  0  0  0  0  0  0  0  0  0  0
   14.4310   -0.2396   20.4883 C   0  0  0  0  0  0  0  0  0  0  0  0
    7.5611    1.8369   26.0629 C   0  0  0  0  0  0  0  0  0  0  0  0
    7.9285   -5.7403   25.8820 N   0  0  0  0  0  0  0  0  0  0  0  0
    7.3246   -0.9856   26.3724 N   0  0  0  0  0  0  0  0  0  0  0  0
   12.9189   -1.1118   22.2371 N   0  0  0  0  0  0  0  0  0  0  0  0
    8.6747    0.9466   26.1069 N   0  0  0  0  0  0  0  0  0  0  0  0
   10.9637    0.0532   23.9838 N   0  3  0  0  0  0  0  0  0  0  0  0
   13.6367   -2.4716   20.4950 O   0  0  0  0  0  0  0  0  0  0  0  0
   13.2820    1.0341   20.0941 Cl  0  0  0  0  0  0  0  0  0  0  0  0
   10.3270   -3.2239   25.3453 H   0  0  0  0  0  0  0  0  0  0  0  0
    6.2392   -2.7187   26.5740 H   0  0  0  0  0  0  0  0  0  0  0  0
   11.8074   -2.5441   23.3277 H   0  0  0  0  0  0  0  0  0  0  0  0
   11.4231   -2.4078   21.6115 H   0  0  0  0  0  0  0  0  0  0  0  0
   14.2388    0.3296   22.9377 H   0  0  0  0  0  0  0  0  0  0  0  0
   13.6556   -0.7449   24.2024 H   0  0  0  0  0  0  0  0  0  0  0  0
   10.3007   -0.2298   21.9932 H   0  0  0  0  0  0  0  0  0  0  0  0
    9.6359   -1.3971   23.1782 H   0  0  0  0  0  0  0  0  0  0  0  0
   12.5155    1.3910   24.5465 H   0  0  0  0  0  0  0  0  0  0  0  0
   12.0405    1.4563   22.8208 H   0  0  0  0  0  0  0  0  0  0  0  0
    7.6344    2.3243   28.1328 H   0  0  0  0  0  0  0  0  0  0  0  0
    6.0573    2.6421   27.3340 H   0  0  0  0  0  0  0  0  0  0  0  0
    6.5483    0.9565   27.7135 H   0  0  0  0  0  0  0  0  0  0  0  0
   11.2299    0.1729   26.0630 H   0  0  0  0  0  0  0  0  0  0  0  0
   11.7506   -1.3516   25.3314 H   0  0  0  0  0  0  0  0  0  0  0  0
   14.9299   -0.5823   19.5889 H   0  0  0  0  0  0  0  0  0  0  0  0
   15.1341    0.1111   21.2350 H   0  0  0  0  0  0  0  0  0  0  0  0
    6.8283    1.4594   25.3346 H   0  0  0  0  0  0  0  0  0  0  0  0
    7.9094    2.8324   25.7503 H   0  0  0  0  0  0  0  0  0  0  0  0
    9.6076    1.2983   26.1759 H   0  0  0  0  0  0  0  0  0  0  0  0
   10.2153    0.8033   24.0321 H   0  0  0  0  0  0  0  0  0  0  0  0
  1  4  1  0  0  0  0
  1 16  3  0  0  0  0
  2  4  2  0  0  0  0
  2  5  1  0  0  0  0
  3  4  1  0  0  0  0
  3 17  2  0  0  0  0
  5  6  2  0  0  0  0
  5 13  1  0  0  0  0
  6 17  1  0  0  0  0
  6 19  1  0  0  0  0
  7 14  1  0  0  0  0
  7 18  1  0  0  0  0
  7 21  2  0  0  0  0
  8 10  1  0  0  0  0
  8 18  1  0  0  0  0
  9 11  1  0  0  0  0
  9 18  1  0  0  0  0
 10 20  1  0  0  0  0
 11 20  1  0  0  0  0
 12 15  1  0  0  0  0
 13 20  1  0  0  0  0
 14 22  1  0  0  0  0
 15 19  1  0  0  0  0
  2 23  1  0  0  0  0
  3 24  1  0  0  0  0
  8 25  1  0  0  0  0
  8 26  1  0  0  0  0
  9 27  1  0  0  0  0
  9 28  1  0  0  0  0
 10 29  1  0  0  0  0
 10 30  1  0  0  0  0
 11 31  1  0  0  0  0
 11 32  1  0  0  0  0
 12 33  1  0  0  0  0
 12 34  1  0  0  0  0
 12 35  1  0  0  0  0
 13 36  1  0  0  0  0
 13 37  1  0  0  0  0
 14 38  1  0  0  0  0
 14 39  1  0  0  0  0
 15 40  1  0  0  0  0
 15 41  1  0  0  0  0
 19 42  1  0  0  0  0
 20 43  1  0  0  0  0
M  CHG  1  20   1
M  END
> <creator>
Bruce a Lefker, Lefker Biopharmaconsulting LLC

> <fragments>
x0305

> <real_space>
FALSE

> <SCR>
FALSE

> <BB>
FALSE

> <link>
https://covid.postera.ai/covid/submissions/ae0885ba-3fc7-4818-bdff-90cd27a1c7e0

> <covalent_frag>
TRUE

> <covalent_warhead>
TRUE

> <acrylamide>
FALSE

> <acrylamide_adduct>
FALSE

> <chloroacetamide>
TRUE

> <chloroacetamide_adduct>
FALSE

> <vinylsulfonamide>
FALSE

> <vinylsulfonamide_adduct>
FALSE

> <in_molport_or_mcule>
FALSE

> <in_emolecules>
FALSE

> <Hybrid2>
-5.769223

> <Mpro-x0305_dock>
-5.769223

> <Mpro-x0770_dock>
-5.351524

> <site>
active-noncovalent

> <covalent_distance_min>
4.16547

> <covalent_distance_mean>
5.602193

> <covalent_distance_stderr>
0.10810656

$$$$
DUN-NEW-f8c-24
  -OEChem-04062011563D

 52 54  0     0  0  0  0  0  0999 V2000
   12.2094   -1.9578   22.6962 C   0  0  0  0  0  0  0  0  0  0  0  0
   12.5436   -0.8231   23.4443 C   0  0  0  0  0  0  0  0  0  0  0  0
   10.8898   -2.3990   22.6208 C   0  0  0  0  0  0  0  0  0  0  0  0
   10.1986    1.2423   25.3405 C   0  0  0  0  0  0  0  0  0  0  0  0
   11.5268   -0.1252   24.1259 C   0  0  0  0  0  0  0  0  0  0  0  0
    9.8645   -1.7230   23.2883 C   0  0  0  0  0  0  0  0  0  0  0  0
   11.5022    1.0314   24.9545 C   0  0  0  0  0  0  0  0  0  0  0  0
   10.2134   -0.5903   24.0323 C   0  0  0  0  0  0  0  0  0  0  0  0
    6.5996   -6.3378   26.4009 C   0  0  0  0  0  0  0  0  0  0  0  0
   12.2924    5.1133   23.9053 C   0  0  0  0  0  0  0  0  0  0  0  0
    8.4108   -4.6762   26.1182 C   0  0  0  0  0  0  0  0  0  0  0  0
    6.0998   -3.9600   25.6497 C   0  0  0  0  0  0  0  0  0  0  0  0
    8.8843   -4.0809   24.8003 C   0  0  0  0  0  0  0  0  0  0  0  0
    6.5391   -3.3519   24.3246 C   0  0  0  0  0  0  0  0  0  0  0  0
   11.1142    5.8923   23.4224 C   0  0  0  0  0  0  0  0  0  0  0  0
   12.6613    1.8626   25.3381 C   0  0  0  0  0  0  0  0  0  0  0  0
    8.4545   -2.2254   23.1854 C   0  0  0  0  0  0  0  0  0  0  0  0
    5.1261   -6.6409   26.2986 C   0  0  0  0  0  0  0  0  0  0  0  0
   13.1552    2.8032   24.2240 C   0  0  0  0  0  0  0  0  0  0  0  0
    9.4287    0.2589   24.7795 N   0  0  0  0  0  0  0  0  0  0  0  0
    6.9978   -5.0489   26.0492 N   0  0  0  0  0  0  0  0  0  0  0  0
   12.1418    3.7388   23.8156 N   0  0  0  0  0  0  0  0  0  0  0  0
    7.9852   -2.9221   24.4316 N   0  3  0  0  0  0  0  0  0  0  0  0
    7.3722   -7.2220   26.7796 O   0  0  0  0  0  0  0  0  0  0  0  0
   13.2763    5.7073   24.3306 O   0  0  0  0  0  0  0  0  0  0  0  0
    4.4261   -6.2748   27.8715 Cl  0  0  0  0  0  0  0  0  0  0  0  0
   12.9897   -2.5004   22.1690 H   0  0  0  0  0  0  0  0  0  0  0  0
   13.5772   -0.4925   23.4926 H   0  0  0  0  0  0  0  0  0  0  0  0
   10.6625   -3.2849   22.0320 H   0  0  0  0  0  0  0  0  0  0  0  0
    9.7484    2.0026   25.9637 H   0  0  0  0  0  0  0  0  0  0  0  0
    9.0292   -5.5433   26.3707 H   0  0  0  0  0  0  0  0  0  0  0  0
    8.5206   -3.9508   26.9335 H   0  0  0  0  0  0  0  0  0  0  0  0
    6.1265   -3.2074   26.4471 H   0  0  0  0  0  0  0  0  0  0  0  0
    5.0652   -4.2965   25.5628 H   0  0  0  0  0  0  0  0  0  0  0  0
    9.9012   -3.6871   24.8971 H   0  0  0  0  0  0  0  0  0  0  0  0
    8.8466   -4.8098   23.9828 H   0  0  0  0  0  0  0  0  0  0  0  0
    6.4609   -4.0676   23.4986 H   0  0  0  0  0  0  0  0  0  0  0  0
    5.9495   -2.4583   24.0958 H   0  0  0  0  0  0  0  0  0  0  0  0
   10.3860    6.0940   24.2243 H   0  0  0  0  0  0  0  0  0  0  0  0
   11.3969    6.8825   23.0301 H   0  0  0  0  0  0  0  0  0  0  0  0
   10.5330    5.4167   22.6162 H   0  0  0  0  0  0  0  0  0  0  0  0
   13.5100    1.2162   25.6373 H   0  0  0  0  0  0  0  0  0  0  0  0
   12.4422    2.4679   26.2408 H   0  0  0  0  0  0  0  0  0  0  0  0
    7.7539   -1.4039   23.0016 H   0  0  0  0  0  0  0  0  0  0  0  0
    8.3494   -2.9436   22.3650 H   0  0  0  0  0  0  0  0  0  0  0  0
    4.9986   -7.6929   26.0703 H   0  0  0  0  0  0  0  0  0  0  0  0
    4.6882   -6.0038   25.5388 H   0  0  0  0  0  0  0  0  0  0  0  0
   14.0129    3.3940   24.5607 H   0  0  0  0  0  0  0  0  0  0  0  0
   13.4579    2.2364   23.3374 H   0  0  0  0  0  0  0  0  0  0  0  0
    8.4288    0.1704   24.8974 H   0  0  0  0  0  0  0  0  0  0  0  0
   11.2683    3.3719   23.4410 H   0  0  0  0  0  0  0  0  0  0  0  0
    8.0447   -2.2317   25.1929 H   0  0  0  0  0  0  0  0  0  0  0  0
  1  2  2  0  0  0  0
  1  3  1  0  0  0  0
  2  5  1  0  0  0  0
  3  6  2  0  0  0  0
  4  7  2  0  0  0  0
  4 20  1  0  0  0  0
  5  7  1  0  0  0  0
  5  8  2  0  0  0  0
  6  8  1  0  0  0  0
  6 17  1  0  0  0  0
  7 16  1  0  0  0  0
  8 20  1  0  0  0  0
  9 18  1  0  0  0  0
  9 21  1  0  0  0  0
  9 24  2  0  0  0  0
 10 15  1  0  0  0  0
 10 22  1  0  0  0  0
 10 25  2  0  0  0  0
 11 13  1  0  0  0  0
 11 21  1  0  0  0  0
 12 14  1  0  0  0  0
 12 21  1  0  0  0  0
 13 23  1  0  0  0  0
 14 23  1  0  0  0  0
 16 19  1  0  0  0  0
 17 23  1  0  0  0  0
 18 26  1  0  0  0  0
 19 22  1  0  0  0  0
  1 27  1  0  0  0  0
  2 28  1  0  0  0  0
  3 29  1  0  0  0  0
  4 30  1  0  0  0  0
 11 31  1  0  0  0  0
 11 32  1  0  0  0  0
 12 33  1  0  0  0  0
 12 34  1  0  0  0  0
 13 35  1  0  0  0  0
 13 36  1  0  0  0  0
 14 37  1  0  0  0  0
 14 38  1  0  0  0  0
 15 39  1  0  0  0  0
 15 40  1  0  0  0  0
 15 41  1  0  0  0  0
 16 42  1  0  0  0  0
 16 43  1  0  0  0  0
 17 44  1  0  0  0  0
 17 45  1  0  0  0  0
 18 46  1  0  0  0  0
 18 47  1  0  0  0  0
 19 48  1  0  0  0  0
 19 49  1  0  0  0  0
 20 50  1  0  0  0  0
 22 51  1  0  0  0  0
 23 52  1  0  0  0  0
M  CHG  1  23   1
M  END
> <creator>
Duncan Miller, Newcastle University

> <fragments>
x0072

> <real_space>
FALSE

> <SCR>
FALSE

> <BB>
FALSE

> <link>
https://covid.postera.ai/covid/submissions/f8ce3686-4774-4f4e-b96a-ab98611b1edd

> <covalent_frag>
TRUE

> <covalent_warhead>
TRUE

> <acrylamide>
FALSE

> <acrylamide_adduct>
FALSE

> <chloroacetamide>
TRUE

> <chloroacetamide_adduct>
FALSE

> <vinylsulfonamide>
FALSE

> <vinylsulfonamide_adduct>
FALSE

> <in_molport_or_mcule>
FALSE

> <in_emolecules>
FALSE

> <Hybrid2>
-5.758780

> <Mpro-x0072_dock>
-5.75878

> <Mpro-x1458_dock>
-0.344363

> <site>
active-noncovalent

> <covalent_distance_min>
8.918485

> <covalent_distance_mean>
9.703921

> <covalent_distance_stderr>
0.04073521

$$$$
MAK-UNK-e4a-13
  -OEChem-04062011563D

 50 51  0     1  0  0  0  0  0999 V2000
    5.8209   -1.9775   19.2364 C   0  0  0  0  0  0  0  0  0  0  0  0
   12.7539    0.9786   23.6029 C   0  0  0  0  0  0  0  0  0  0  0  0
   10.9020    2.6347   23.9988 C   0  0  0  0  0  0  0  0  0  0  0  0
    6.4266   -2.3464   21.6066 C   0  0  0  0  0  0  0  0  0  0  0  0
    7.6080   -0.5698   20.3733 C   0  0  0  0  0  0  0  0  0  0  0  0
   11.9901   -0.0633   24.4052 C   0  0  0  0  0  0  0  0  0  0  0  0
   10.1424    1.5890   24.8001 C   0  0  0  0  0  0  0  0  0  0  0  0
    7.7489   -2.8983   22.1191 C   0  0  0  0  0  0  0  0  0  0  0  0
    8.9489   -1.0942   20.8691 C   0  0  0  0  0  0  0  0  0  0  0  0
   12.4093    2.3975   24.0457 C   0  0  0  0  0  0  0  0  0  0  0  0
    5.5309   -0.8728   18.2519 C   0  0  0  0  0  0  0  0  0  0  0  0
    9.9916   -2.2180   24.3246 C   0  0  0  0  0  0  0  0  0  0  0  0
   10.0563   -2.2280   22.7987 C   0  0  0  0  0  0  0  0  0  0  0  0
    9.6967   -0.8584   24.9783 C   0  0  2  0  0  0  0  0  0  0  0  0
    6.6076   -1.6419   20.3373 N   0  0  0  0  0  0  0  0  0  0  0  0
    8.2633   -0.5857   24.9144 N   0  0  0  0  0  0  0  0  0  0  0  0
    8.7526   -1.7705   22.2075 N   0  3  0  0  0  0  0  0  0  0  0  0
   10.5080    0.2110   24.2998 N   0  3  0  0  0  0  0  0  0  0  0  0
    5.3634   -3.1045   19.0300 O   0  0  0  0  0  0  0  0  0  0  0  0
   13.0681    3.3180   23.1834 O   0  0  0  0  0  0  0  0  0  0  0  0
    4.6515    0.3704   19.1344 Cl  0  0  0  0  0  0  0  0  0  0  0  0
   13.8329    0.8128   23.7094 H   0  0  0  0  0  0  0  0  0  0  0  0
   12.5435    0.8594   22.5318 H   0  0  0  0  0  0  0  0  0  0  0  0
   10.5574    2.6355   22.9563 H   0  0  0  0  0  0  0  0  0  0  0  0
   10.6743    3.6358   24.3837 H   0  0  0  0  0  0  0  0  0  0  0  0
    5.7070   -3.1639   21.4978 H   0  0  0  0  0  0  0  0  0  0  0  0
    6.0008   -1.6321   22.3218 H   0  0  0  0  0  0  0  0  0  0  0  0
    7.2263    0.2087   21.0449 H   0  0  0  0  0  0  0  0  0  0  0  0
    7.7451   -0.1076   19.3942 H   0  0  0  0  0  0  0  0  0  0  0  0
   12.1662   -1.0642   24.0028 H   0  0  0  0  0  0  0  0  0  0  0  0
   12.2575   -0.0369   25.4657 H   0  0  0  0  0  0  0  0  0  0  0  0
   10.3907    1.6319   25.8644 H   0  0  0  0  0  0  0  0  0  0  0  0
    9.0643    1.7102   24.6653 H   0  0  0  0  0  0  0  0  0  0  0  0
    7.6313   -3.3103   23.1266 H   0  0  0  0  0  0  0  0  0  0  0  0
    8.1607   -3.6643   21.4524 H   0  0  0  0  0  0  0  0  0  0  0  0
    9.3821   -1.8288   20.1810 H   0  0  0  0  0  0  0  0  0  0  0  0
    9.6534   -0.2700   21.0204 H   0  0  0  0  0  0  0  0  0  0  0  0
   12.7833    2.5644   25.0628 H   0  0  0  0  0  0  0  0  0  0  0  0
    4.9148   -1.2676   17.4520 H   0  0  0  0  0  0  0  0  0  0  0  0
    6.4695   -0.4748   17.8838 H   0  0  0  0  0  0  0  0  0  0  0  0
    9.2273   -2.9444   24.6324 H   0  0  0  0  0  0  0  0  0  0  0  0
   10.9466   -2.5991   24.7119 H   0  0  0  0  0  0  0  0  0  0  0  0
   10.2685   -3.2187   22.3882 H   0  0  0  0  0  0  0  0  0  0  0  0
   10.8203   -1.5298   22.4433 H   0  0  0  0  0  0  0  0  0  0  0  0
   10.0090   -0.8524   26.0272 H   0  0  0  0  0  0  0  0  0  0  0  0
    7.7567   -1.2835   25.4579 H   0  0  0  0  0  0  0  0  0  0  0  0
    8.0675    0.3131   25.3535 H   0  0  0  0  0  0  0  0  0  0  0  0
    8.3691   -1.0668   22.8536 H   0  0  0  0  0  0  0  0  0  0  0  0
   10.2645    0.1773   23.2991 H   0  0  0  0  0  0  0  0  0  0  0  0
   14.0195    3.1457   23.2669 H   0  0  0  0  0  0  0  0  0  0  0  0
  1 11  1  0  0  0  0
  1 15  1  0  0  0  0
  1 19  2  0  0  0  0
  2  6  1  0  0  0  0
  2 10  1  0  0  0  0
  3  7  1  0  0  0  0
  3 10  1  0  0  0  0
  4  8  1  0  0  0  0
  4 15  1  0  0  0  0
  5  9  1  0  0  0  0
  5 15  1  0  0  0  0
  6 18  1  0  0  0  0
  7 18  1  0  0  0  0
  8 17  1  0  0  0  0
  9 17  1  0  0  0  0
 10 20  1  0  0  0  0
 11 21  1  0  0  0  0
 12 13  1  0  0  0  0
 12 14  1  0  0  0  0
 13 17  1  0  0  0  0
 14 16  1  0  0  0  0
 14 18  1  0  0  0  0
  2 22  1  0  0  0  0
  2 23  1  0  0  0  0
  3 24  1  0  0  0  0
  3 25  1  0  0  0  0
  4 26  1  0  0  0  0
  4 27  1  0  0  0  0
  5 28  1  0  0  0  0
  5 29  1  0  0  0  0
  6 30  1  0  0  0  0
  6 31  1  0  0  0  0
  7 32  1  0  0  0  0
  7 33  1  0  0  0  0
  8 34  1  0  0  0  0
  8 35  1  0  0  0  0
  9 36  1  0  0  0  0
  9 37  1  0  0  0  0
 10 38  1  0  0  0  0
 11 39  1  0  0  0  0
 11 40  1  0  0  0  0
 12 41  1  0  0  0  0
 12 42  1  0  0  0  0
 13 43  1  0  0  0  0
 13 44  1  0  0  0  0
 14 45  1  0  0  0  0
 16 46  1  0  0  0  0
 16 47  1  0  0  0  0
 17 48  1  0  0  0  0
 18 49  1  0  0  0  0
 20 50  1  0  0  0  0
M  CHG  2  17   1  18   1
M  END
> <creator>
Maksym Voznyy

> <fragments>
x0692

> <real_space>
FALSE

> <SCR>
FALSE

> <BB>
FALSE

> <link>
https://covid.postera.ai/covid/submissions/e4a48a85-91ce-4c28-86d4-edf9997dafca

> <covalent_frag>
TRUE

> <covalent_warhead>
TRUE

> <acrylamide>
FALSE

> <acrylamide_adduct>
FALSE

> <chloroacetamide>
TRUE

> <chloroacetamide_adduct>
FALSE

> <vinylsulfonamide>
FALSE

> <vinylsulfonamide_adduct>
FALSE

> <in_molport_or_mcule>
FALSE

> <in_emolecules>
FALSE

> <Hybrid2>
-5.742552

> <Mpro-x0692_dock>
-5.742552

> <Mpro-x0387_dock>
-2.613436

> <site>
active-covalent

> <covalent_distance_min>
3.1181273

> <covalent_distance_mean>
3.5695999

> <covalent_distance_stderr>
0.036236133

$$$$
JAN-GHE-641-7
  -OEChem-04062011563D

 54 56  0     0  0  0  0  0  0999 V2000
   13.3720    1.8978   22.2457 C   0  0  0  0  0  0  0  0  0  0  0  0
   12.8184    3.1326   22.6031 C   0  0  0  0  0  0  0  0  0  0  0  0
   12.8987    0.7143   22.8088 C   0  0  0  0  0  0  0  0  0  0  0  0
   10.1012    3.6339   24.9961 C   0  0  0  0  0  0  0  0  0  0  0  0
   11.7704    3.1694   23.5443 C   0  0  0  0  0  0  0  0  0  0  0  0
   11.8602    0.7260   23.7443 C   0  0  0  0  0  0  0  0  0  0  0  0
   10.9947    4.2120   24.1241 C   0  0  0  0  0  0  0  0  0  0  0  0
   11.3164    1.9677   24.0920 C   0  0  0  0  0  0  0  0  0  0  0  0
    6.3145   -5.9733   22.1520 C   0  0  0  0  0  0  0  0  0  0  0  0
    7.2518   -5.2016   22.7064 C   0  0  0  0  0  0  0  0  0  0  0  0
    7.1933   -3.7420   22.4906 C   0  0  0  0  0  0  0  0  0  0  0  0
    9.7370   -3.6048   22.6762 C   0  0  0  0  0  0  0  0  0  0  0  0
    8.3777   -1.6005   22.2029 C   0  0  0  0  0  0  0  0  0  0  0  0
   10.5184   -2.8337   23.7334 C   0  0  0  0  0  0  0  0  0  0  0  0
    9.1313   -0.8150   23.2645 C   0  0  0  0  0  0  0  0  0  0  0  0
    7.0331    4.9295   23.1315 C   0  0  0  0  0  0  0  0  0  0  0  0
   11.1187    5.6576   23.8474 C   0  0  0  0  0  0  0  0  0  0  0  0
   11.3747   -0.5669   24.3305 C   0  0  0  0  0  0  0  0  0  0  0  0
    9.8290    6.3072   23.3139 C   0  0  0  0  0  0  0  0  0  0  0  0
   10.3031    2.2800   24.9701 N   0  0  0  0  0  0  0  0  0  0  0  0
    8.3949   -3.0378   22.4832 N   0  0  0  0  0  0  0  0  0  0  0  0
    9.3846    5.7022   22.0869 N   0  0  0  0  0  0  0  0  0  0  0  0
   10.5331   -1.3668   23.3765 N   0  3  0  0  0  0  0  0  0  0  0  0
    6.0823   -3.2352   22.3252 O   0  0  0  0  0  0  0  0  0  0  0  0
    7.4966    4.7997   20.5588 O   0  0  0  0  0  0  0  0  0  0  0  0
    7.2158    7.0608   21.6383 O   0  0  0  0  0  0  0  0  0  0  0  0
    7.7092    5.6975   21.6771 S   0  0  0  0  0  0  0  0  0  0  0  0
   14.1810    1.8635   21.5208 H   0  0  0  0  0  0  0  0  0  0  0  0
   13.1990    4.0458   22.1547 H   0  0  0  0  0  0  0  0  0  0  0  0
   13.3505   -0.2293   22.5111 H   0  0  0  0  0  0  0  0  0  0  0  0
    9.3401    4.0626   25.6332 H   0  0  0  0  0  0  0  0  0  0  0  0
    6.3043   -7.0511   22.2745 H   0  0  0  0  0  0  0  0  0  0  0  0
    5.5261   -5.5277   21.5545 H   0  0  0  0  0  0  0  0  0  0  0  0
    8.0533   -5.6087   23.3088 H   0  0  0  0  0  0  0  0  0  0  0  0
   10.2502   -3.5654   21.7082 H   0  0  0  0  0  0  0  0  0  0  0  0
    9.6954   -4.6502   22.9841 H   0  0  0  0  0  0  0  0  0  0  0  0
    7.3502   -1.2294   22.1347 H   0  0  0  0  0  0  0  0  0  0  0  0
    8.8368   -1.4556   21.2173 H   0  0  0  0  0  0  0  0  0  0  0  0
   10.0685   -2.9337   24.7277 H   0  0  0  0  0  0  0  0  0  0  0  0
   11.5591   -3.1726   23.7657 H   0  0  0  0  0  0  0  0  0  0  0  0
    9.2166    0.2381   22.9775 H   0  0  0  0  0  0  0  0  0  0  0  0
    8.6572   -0.8917   24.2494 H   0  0  0  0  0  0  0  0  0  0  0  0
    5.9509    4.8579   23.0116 H   0  0  0  0  0  0  0  0  0  0  0  0
    7.4731    3.9362   23.2325 H   0  0  0  0  0  0  0  0  0  0  0  0
    7.2822    5.5481   23.9949 H   0  0  0  0  0  0  0  0  0  0  0  0
   11.9206    5.8347   23.1037 H   0  0  0  0  0  0  0  0  0  0  0  0
   11.4483    6.2135   24.7483 H   0  0  0  0  0  0  0  0  0  0  0  0
   12.2129   -1.2080   24.6240 H   0  0  0  0  0  0  0  0  0  0  0  0
   10.7610   -0.3918   25.2207 H   0  0  0  0  0  0  0  0  0  0  0  0
    9.0101    6.2017   24.0325 H   0  0  0  0  0  0  0  0  0  0  0  0
    9.9783    7.3746   23.1206 H   0  0  0  0  0  0  0  0  0  0  0  0
    9.7826    1.6078   25.5167 H   0  0  0  0  0  0  0  0  0  0  0  0
    9.9073    4.8506   21.7867 H   0  0  0  0  0  0  0  0  0  0  0  0
   10.9749   -1.2787   22.4510 H   0  0  0  0  0  0  0  0  0  0  0  0
  1  2  1  0  0  0  0
  1  3  2  0  0  0  0
  2  5  2  0  0  0  0
  3  6  1  0  0  0  0
  4  7  2  0  0  0  0
  4 20  1  0  0  0  0
  5  7  1  0  0  0  0
  5  8  1  0  0  0  0
  6  8  2  0  0  0  0
  6 18  1  0  0  0  0
  7 17  1  0  0  0  0
  8 20  1  0  0  0  0
  9 10  2  0  0  0  0
 10 11  1  0  0  0  0
 11 21  1  0  0  0  0
 11 24  2  0  0  0  0
 12 14  1  0  0  0  0
 12 21  1  0  0  0  0
 13 15  1  0  0  0  0
 13 21  1  0  0  0  0
 14 23  1  0  0  0  0
 15 23  1  0  0  0  0
 16 27  1  0  0  0  0
 17 19  1  0  0  0  0
 18 23  1  0  0  0  0
 19 22  1  0  0  0  0
 22 27  1  0  0  0  0
 25 27  2  0  0  0  0
 26 27  2  0  0  0  0
  1 28  1  0  0  0  0
  2 29  1  0  0  0  0
  3 30  1  0  0  0  0
  4 31  1  0  0  0  0
  9 32  1  0  0  0  0
  9 33  1  0  0  0  0
 10 34  1  0  0  0  0
 12 35  1  0  0  0  0
 12 36  1  0  0  0  0
 13 37  1  0  0  0  0
 13 38  1  0  0  0  0
 14 39  1  0  0  0  0
 14 40  1  0  0  0  0
 15 41  1  0  0  0  0
 15 42  1  0  0  0  0
 16 43  1  0  0  0  0
 16 44  1  0  0  0  0
 16 45  1  0  0  0  0
 17 46  1  0  0  0  0
 17 47  1  0  0  0  0
 18 48  1  0  0  0  0
 18 49  1  0  0  0  0
 19 50  1  0  0  0  0
 19 51  1  0  0  0  0
 20 52  1  0  0  0  0
 22 53  1  0  0  0  0
 23 54  1  0  0  0  0
M  CHG  1  23   1
M  END
> <creator>
Jan, Ghent University

> <fragments>
x0104

> <real_space>
FALSE

> <SCR>
FALSE

> <BB>
FALSE

> <link>
https://covid.postera.ai/covid/submissions/6413aaf8-c5d7-46f1-8e3f-314432f79018

> <covalent_frag>
TRUE

> <covalent_warhead>
TRUE

> <acrylamide>
TRUE

> <acrylamide_adduct>
FALSE

> <chloroacetamide>
FALSE

> <chloroacetamide_adduct>
FALSE

> <vinylsulfonamide>
FALSE

> <vinylsulfonamide_adduct>
FALSE

> <in_molport_or_mcule>
FALSE

> <in_emolecules>
FALSE

> <Hybrid2>
-5.723781

> <Mpro-x0104_dock>
-5.723781

> <Mpro-x0692_dock>
-4.801573

> <site>
active-noncovalent

> <covalent_distance_min>
7.030093

> <covalent_distance_mean>
7.773879

> <covalent_distance_stderr>
0.07630501

$$$$
BEN-VAN-d2b-19
  -OEChem-04062011563D

 45 47  0     1  0  0  0  0  0999 V2000
   12.0522    3.8021   23.6471 C   0  0  0  0  0  0  0  0  0  0  0  0
    6.6099    1.6571   23.6407 C   0  0  0  0  0  0  0  0  0  0  0  0
   11.1880    2.6696   23.6759 C   0  0  0  0  0  0  0  0  0  0  0  0
    6.5857    0.5951   24.5215 C   0  0  0  0  0  0  0  0  0  0  0  0
    9.9109    3.0032   24.0699 C   0  0  0  0  0  0  0  0  0  0  0  0
    7.7448    0.3902   25.2416 C   0  0  0  0  0  0  0  0  0  0  0  0
   11.4024    4.9583   24.0199 C   0  0  0  0  0  0  0  0  0  0  0  0
    8.7471    2.1610   24.2283 C   0  0  0  0  0  0  0  0  0  0  0  0
    9.4555   -2.7433   24.6781 C   0  0  0  0  0  0  0  0  0  0  0  0
    9.2380   -2.9781   23.3805 C   0  0  0  0  0  0  0  0  0  0  0  0
    9.0022   -1.8492   22.4404 C   0  0  0  0  0  0  0  0  0  0  0  0
   10.1436    0.1756   21.6173 C   0  0  0  0  0  0  0  0  0  0  0  0
   13.3093   -0.3274   22.6960 C   0  0  0  0  0  0  0  0  0  0  0  0
   13.1120    0.9069   23.5601 C   0  0  0  0  0  0  0  0  0  0  0  0
   12.6100    0.0524   21.3980 C   0  0  0  0  0  0  0  0  0  0  0  0
   11.6404    1.2696   23.3121 C   0  0  2  0  0  0  0  0  0  0  0  0
   11.4232    0.9313   21.8178 C   0  0  2  0  0  0  0  0  0  0  0  0
    5.5285   -1.6061   25.0343 C   0  0  0  0  0  0  0  0  0  0  0  0
    7.6776    2.4637   23.4682 N   0  0  0  0  0  0  0  0  0  0  0  0
    8.8485    1.1566   25.1197 N   0  0  0  0  0  0  0  0  0  0  0  0
    5.4577   -0.2178   24.6707 N   0  0  0  0  0  0  0  0  0  0  0  0
   10.0834   -0.9719   22.4063 N   0  0  0  0  0  0  0  0  0  0  0  0
    7.9671   -1.7379   21.7916 O   0  0  0  0  0  0  0  0  0  0  0  0
    9.2690    0.5726   20.8520 O   0  0  0  0  0  0  0  0  0  0  0  0
    7.7989   -0.6248   26.1192 F   0  0  0  0  0  0  0  0  0  0  0  0
   11.9876    6.1591   24.0761 F   0  0  0  0  0  0  0  0  0  0  0  0
    9.7575    4.6759   24.4028 S   0  0  0  0  0  0  0  0  0  0  0  0
   13.0979    3.7757   23.3677 H   0  0  0  0  0  0  0  0  0  0  0  0
    5.7492    1.9035   23.0265 H   0  0  0  0  0  0  0  0  0  0  0  0
    9.6312   -3.5381   25.3944 H   0  0  0  0  0  0  0  0  0  0  0  0
    9.4606   -1.7245   25.0513 H   0  0  0  0  0  0  0  0  0  0  0  0
    9.2309   -3.9948   23.0032 H   0  0  0  0  0  0  0  0  0  0  0  0
   14.3649   -0.5649   22.5440 H   0  0  0  0  0  0  0  0  0  0  0  0
   12.8209   -1.1949   23.1525 H   0  0  0  0  0  0  0  0  0  0  0  0
   13.3146    0.7080   24.6146 H   0  0  0  0  0  0  0  0  0  0  0  0
   13.7830    1.7067   23.2299 H   0  0  0  0  0  0  0  0  0  0  0  0
   13.2959    0.6429   20.7766 H   0  0  0  0  0  0  0  0  0  0  0  0
   12.3194   -0.8330   20.8216 H   0  0  0  0  0  0  0  0  0  0  0  0
   11.0042    0.5703   23.9250 H   0  0  0  0  0  0  0  0  0  0  0  0
   11.3721    1.8219   21.1766 H   0  0  0  0  0  0  0  0  0  0  0  0
    6.5807   -1.8973   25.1685 H   0  0  0  0  0  0  0  0  0  0  0  0
    4.9807   -1.7671   25.9745 H   0  0  0  0  0  0  0  0  0  0  0  0
    5.0778   -2.2168   24.2381 H   0  0  0  0  0  0  0  0  0  0  0  0
    4.5554    0.2025   24.5114 H   0  0  0  0  0  0  0  0  0  0  0  0
   10.8839   -1.1830   22.9977 H   0  0  0  0  0  0  0  0  0  0  0  0
  1  3  1  0  0  0  0
  1  7  2  0  0  0  0
  2  4  1  0  0  0  0
  2 19  2  0  0  0  0
  3  5  2  0  0  0  0
  3 16  1  0  0  0  0
  4  6  2  0  0  0  0
  4 21  1  0  0  0  0
  5  8  1  0  0  0  0
  5 27  1  0  0  0  0
  6 20  1  0  0  0  0
  6 25  1  0  0  0  0
  7 26  1  0  0  0  0
  7 27  1  0  0  0  0
  8 19  1  0  0  0  0
  8 20  2  0  0  0  0
  9 10  2  0  0  0  0
 10 11  1  0  0  0  0
 11 22  1  0  0  0  0
 11 23  2  0  0  0  0
 12 17  1  0  0  0  0
 12 22  1  0  0  0  0
 12 24  2  0  0  0  0
 13 14  1  0  0  0  0
 13 15  1  0  0  0  0
 14 16  1  0  0  0  0
 15 17  1  0  0  0  0
 16 17  1  0  0  0  0
 18 21  1  0  0  0  0
  1 28  1  0  0  0  0
  2 29  1  0  0  0  0
  9 30  1  0  0  0  0
  9 31  1  0  0  0  0
 10 32  1  0  0  0  0
 13 33  1  0  0  0  0
 13 34  1  0  0  0  0
 14 35  1  0  0  0  0
 14 36  1  0  0  0  0
 15 37  1  0  0  0  0
 15 38  1  0  0  0  0
 16 39  1  0  0  0  0
 17 40  1  0  0  0  0
 18 41  1  0  0  0  0
 18 42  1  0  0  0  0
 18 43  1  0  0  0  0
 21 44  1  0  0  0  0
 22 45  1  0  0  0  0
M  END
> <creator>
Benjamin P. Brown, Vanderbilt University, Laboratory of Jens Meiler

> <fragments>
x0874

> <real_space>
FALSE

> <SCR>
FALSE

> <BB>
FALSE

> <link>
https://covid.postera.ai/covid/submissions/d2b455e2-4c45-4364-9fc0-1efc54e3e367

> <covalent_frag>
FALSE

> <covalent_warhead>
TRUE

> <acrylamide>
TRUE

> <acrylamide_adduct>
FALSE

> <chloroacetamide>
FALSE

> <chloroacetamide_adduct>
FALSE

> <vinylsulfonamide>
FALSE

> <vinylsulfonamide_adduct>
FALSE

> <in_molport_or_mcule>
FALSE

> <in_emolecules>
FALSE

> <Hybrid2>
-5.632443

> <Mpro-x0874_dock>
-5.632443

> <Mpro-x0305_dock>
-3.61526

> <site>
active-noncovalent

> <covalent_distance_min>
5.368839

> <covalent_distance_mean>
6.8688354

> <covalent_distance_stderr>
0.06685912

$$$$
MAK-UNK-5e8-4
  -OEChem-04062011563D

 44 45  0     0  0  0  0  0  0999 V2000
   13.4606   -1.6678   22.9102 C   0  0  0  0  0  0  0  0  0  0  0  0
   14.2534    0.5032   22.0689 C   0  0  0  0  0  0  0  0  0  0  0  0
   12.8318   -0.6113   23.5314 C   0  0  0  0  0  0  0  0  0  0  0  0
   13.2908    0.6464   23.0440 C   0  0  0  0  0  0  0  0  0  0  0  0
   13.2494    3.1646   23.0424 C   0  0  0  0  0  0  0  0  0  0  0  0
    8.3656    0.8702   25.0164 C   0  0  0  0  0  0  0  0  0  0  0  0
    8.4416   -0.3240   22.8035 C   0  0  0  0  0  0  0  0  0  0  0  0
    9.6362    0.1525   25.4444 C   0  0  0  0  0  0  0  0  0  0  0  0
    9.7121   -1.0388   23.2365 C   0  0  0  0  0  0  0  0  0  0  0  0
    7.5717    0.0562   23.9990 C   0  0  0  0  0  0  0  0  0  0  0  0
   11.7875   -0.7808   24.5952 C   0  0  0  0  0  0  0  0  0  0  0  0
   12.5040    4.2680   23.7840 C   0  0  0  0  0  0  0  0  0  0  0  0
   10.9959    4.2168   23.6026 C   0  0  0  0  0  0  0  0  0  0  0  0
   10.8863    6.8643   23.7758 N   0  0  0  0  0  0  0  0  0  0  0  0
   12.8470    1.8807   23.4755 N   0  0  0  0  0  0  0  0  0  0  0  0
   10.4626   -0.1743   24.2225 N   0  3  0  0  0  0  0  0  0  0  0  0
   14.0744    3.4084   22.1681 O   0  0  0  0  0  0  0  0  0  0  0  0
    8.7636    5.4601   24.1489 O   0  0  0  0  0  0  0  0  0  0  0  0
   10.5979    5.4224   25.8865 O   0  0  0  0  0  0  0  0  0  0  0  0
    6.4622    0.8311   23.5594 O   0  0  0  0  0  0  0  0  0  0  0  0
   14.5996   -1.1421   21.7445 S   0  0  0  0  0  0  0  0  0  0  0  0
   10.1724    5.4960   24.4999 S   0  0  0  0  0  0  0  0  0  0  0  0
   13.3102   -2.7247   23.0820 H   0  0  0  0  0  0  0  0  0  0  0  0
   14.7752    1.2814   21.5286 H   0  0  0  0  0  0  0  0  0  0  0  0
    7.7391    1.0727   25.8937 H   0  0  0  0  0  0  0  0  0  0  0  0
    8.6109    1.8554   24.5979 H   0  0  0  0  0  0  0  0  0  0  0  0
    8.6924    0.5746   22.2247 H   0  0  0  0  0  0  0  0  0  0  0  0
    7.8698   -0.9630   22.1201 H   0  0  0  0  0  0  0  0  0  0  0  0
   10.2435    0.7945   26.0905 H   0  0  0  0  0  0  0  0  0  0  0  0
    9.4191   -0.7890   25.9611 H   0  0  0  0  0  0  0  0  0  0  0  0
    9.4963   -1.9939   23.7280 H   0  0  0  0  0  0  0  0  0  0  0  0
   10.3707   -1.2081   22.3784 H   0  0  0  0  0  0  0  0  0  0  0  0
    7.1797   -0.8480   24.4796 H   0  0  0  0  0  0  0  0  0  0  0  0
   11.6014   -1.8402   24.8021 H   0  0  0  0  0  0  0  0  0  0  0  0
   12.0976   -0.3071   25.5329 H   0  0  0  0  0  0  0  0  0  0  0  0
   12.7380    4.1503   24.8490 H   0  0  0  0  0  0  0  0  0  0  0  0
   12.8930    5.2409   23.4608 H   0  0  0  0  0  0  0  0  0  0  0  0
   10.6989    4.3132   22.5544 H   0  0  0  0  0  0  0  0  0  0  0  0
   10.6007    3.2730   23.9911 H   0  0  0  0  0  0  0  0  0  0  0  0
   10.3017    7.4363   23.1539 H   0  0  0  0  0  0  0  0  0  0  0  0
   11.5511    7.4105   24.3373 H   0  0  0  0  0  0  0  0  0  0  0  0
   12.1221    1.8873   24.2114 H   0  0  0  0  0  0  0  0  0  0  0  0
   10.6734    0.7156   23.7499 H   0  0  0  0  0  0  0  0  0  0  0  0
    5.9801    0.2874   22.9163 H   0  0  0  0  0  0  0  0  0  0  0  0
  1  3  2  0  0  0  0
  1 21  1  0  0  0  0
  2  4  2  0  0  0  0
  2 21  1  0  0  0  0
  3  4  1  0  0  0  0
  3 11  1  0  0  0  0
  4 15  1  0  0  0  0
  5 12  1  0  0  0  0
  5 15  1  0  0  0  0
  5 17  2  0  0  0  0
  6  8  1  0  0  0  0
  6 10  1  0  0  0  0
  7  9  1  0  0  0  0
  7 10  1  0  0  0  0
  8 16  1  0  0  0  0
  9 16  1  0  0  0  0
 10 20  1  0  0  0  0
 11 16  1  0  0  0  0
 12 13  1  0  0  0  0
 13 22  1  0  0  0  0
 14 22  1  0  0  0  0
 18 22  2  0  0  0  0
 19 22  2  0  0  0  0
  1 23  1  0  0  0  0
  2 24  1  0  0  0  0
  6 25  1  0  0  0  0
  6 26  1  0  0  0  0
  7 27  1  0  0  0  0
  7 28  1  0  0  0  0
  8 29  1  0  0  0  0
  8 30  1  0  0  0  0
  9 31  1  0  0  0  0
  9 32  1  0  0  0  0
 10 33  1  0  0  0  0
 11 34  1  0  0  0  0
 11 35  1  0  0  0  0
 12 36  1  0  0  0  0
 12 37  1  0  0  0  0
 13 38  1  0  0  0  0
 13 39  1  0  0  0  0
 14 40  1  0  0  0  0
 14 41  1  0  0  0  0
 15 42  1  0  0  0  0
 16 43  1  0  0  0  0
 20 44  1  0  0  0  0
M  CHG  1  16   1
M  END
> <creator>
Maksym Voznyy

> <fragments>
x0195

> <real_space>
FALSE

> <SCR>
FALSE

> <BB>
FALSE

> <link>
https://covid.postera.ai/covid/submissions/5e88aa6a-4e4d-409f-895e-3c1002d39e8f

> <covalent_frag>
FALSE

> <covalent_warhead>
TRUE

> <acrylamide>
FALSE

> <acrylamide_adduct>
TRUE

> <chloroacetamide>
FALSE

> <chloroacetamide_adduct>
FALSE

> <vinylsulfonamide>
FALSE

> <vinylsulfonamide_adduct>
FALSE

> <in_molport_or_mcule>
FALSE

> <in_emolecules>
FALSE

> <Hybrid2>
-5.617511

> <Mpro-x0195_dock>
-5.617511

> <Mpro-x0387_dock>
-3.963498

> <site>
active-noncovalent

> <covalent_distance_min>
9.767479

> <covalent_distance_mean>
11.180098

> <covalent_distance_stderr>
0.09601877

$$$$
STE-LAU-835-1
  -OEChem-04062011563D

 53 54  0     0  0  0  0  0  0999 V2000
    5.4612   -4.1454   27.0202 C   0  0  0  0  0  0  0  0  0  0  0  0
   10.1998   -0.3122   25.1788 C   0  0  0  0  0  0  0  0  0  0  0  0
   10.4817   -2.2083   23.1519 C   0  0  0  0  0  0  0  0  0  0  0  0
    5.0545   -2.8408   26.8278 C   0  0  0  0  0  0  0  0  0  0  0  0
    9.1917   -1.2502   24.9561 C   0  0  0  0  0  0  0  0  0  0  0  0
    9.3327   -2.1983   23.9427 C   0  0  0  0  0  0  0  0  0  0  0  0
   11.3488   -0.3222   24.3880 C   0  0  0  0  0  0  0  0  0  0  0  0
   11.4898   -1.2702   23.3746 C   0  0  0  0  0  0  0  0  0  0  0  0
    6.7929   -4.3997   26.7629 C   0  0  0  0  0  0  0  0  0  0  0  0
    7.1509   -2.2270   26.1988 C   0  0  0  0  0  0  0  0  0  0  0  0
    7.1089   -6.3979   22.6222 C   0  0  0  0  0  0  0  0  0  0  0  0
    7.1740   -5.1454   23.0845 C   0  0  0  0  0  0  0  0  0  0  0  0
    7.3314   -5.7380   26.9314 C   0  0  0  0  0  0  0  0  0  0  0  0
    8.4864   -4.4451   23.1968 C   0  0  0  0  0  0  0  0  0  0  0  0
   11.4241    3.0954   23.2330 C   0  0  0  0  0  0  0  0  0  0  0  0
   12.6942   -0.5293   21.3348 C   0  0  0  0  0  0  0  0  0  0  0  0
   13.7976   -2.0812   22.9542 C   0  0  0  0  0  0  0  0  0  0  0  0
   11.0644    2.7264   24.6652 C   0  0  0  0  0  0  0  0  0  0  0  0
   12.1214    1.8544   25.3320 C   0  0  0  0  0  0  0  0  0  0  0  0
    5.8757   -1.8526   26.4162 N   0  0  0  0  0  0  0  0  0  0  0  0
    7.6690   -3.4609   26.3491 N   0  0  0  0  0  0  0  0  0  0  0  0
    8.6827   -5.9337   26.6565 N   0  0  0  0  0  0  0  0  0  0  0  0
    8.0361   -1.2220   25.7687 N   0  0  0  0  0  0  0  0  0  0  0  0
    8.3356   -3.1476   23.7008 N   0  0  0  0  0  0  0  0  0  0  0  0
   12.3398    0.6225   24.6256 N   0  0  0  0  0  0  0  0  0  0  0  0
   12.6452   -1.2969   22.5617 N   0  0  0  0  0  0  0  0  0  0  0  0
    6.6125   -6.6875   27.2927 O   0  0  0  0  0  0  0  0  0  0  0  0
    9.5307   -4.9964   22.8698 O   0  0  0  0  0  0  0  0  0  0  0  0
    4.7717   -4.9113   27.3518 H   0  0  0  0  0  0  0  0  0  0  0  0
   10.0892    0.4275   25.9690 H   0  0  0  0  0  0  0  0  0  0  0  0
   10.5911   -2.9462   22.3594 H   0  0  0  0  0  0  0  0  0  0  0  0
    4.0259   -2.5451   27.0047 H   0  0  0  0  0  0  0  0  0  0  0  0
    6.1738   -6.9383   22.5266 H   0  0  0  0  0  0  0  0  0  0  0  0
    8.0158   -6.9141   22.3250 H   0  0  0  0  0  0  0  0  0  0  0  0
    6.2679   -4.6286   23.3815 H   0  0  0  0  0  0  0  0  0  0  0  0
   12.3730    3.6399   23.1949 H   0  0  0  0  0  0  0  0  0  0  0  0
   11.5288    2.1904   22.6259 H   0  0  0  0  0  0  0  0  0  0  0  0
   10.6500    3.7188   22.7750 H   0  0  0  0  0  0  0  0  0  0  0  0
   13.6685   -0.6790   20.8466 H   0  0  0  0  0  0  0  0  0  0  0  0
   11.8914   -0.8635   20.6611 H   0  0  0  0  0  0  0  0  0  0  0  0
   12.5594    0.5380   21.5645 H   0  0  0  0  0  0  0  0  0  0  0  0
   14.5894   -1.9742   22.1982 H   0  0  0  0  0  0  0  0  0  0  0  0
   14.1689   -1.7257   23.9267 H   0  0  0  0  0  0  0  0  0  0  0  0
   13.5098   -3.1397   23.0364 H   0  0  0  0  0  0  0  0  0  0  0  0
   10.1114    2.1847   24.6585 H   0  0  0  0  0  0  0  0  0  0  0  0
   10.9120    3.6438   25.2460 H   0  0  0  0  0  0  0  0  0  0  0  0
   13.0799    2.3822   25.3585 H   0  0  0  0  0  0  0  0  0  0  0  0
   11.8407    1.6059   26.3604 H   0  0  0  0  0  0  0  0  0  0  0  0
    9.2450   -5.1470   26.3505 H   0  0  0  0  0  0  0  0  0  0  0  0
    9.1177   -6.8453   26.7552 H   0  0  0  0  0  0  0  0  0  0  0  0
    7.8015   -0.2939   26.1053 H   0  0  0  0  0  0  0  0  0  0  0  0
    7.3758   -2.8582   23.9194 H   0  0  0  0  0  0  0  0  0  0  0  0
   13.2738    0.4244   24.2745 H   0  0  0  0  0  0  0  0  0  0  0  0
  1  4  1  0  0  0  0
  1  9  2  0  0  0  0
  2  5  1  0  0  0  0
  2  7  2  0  0  0  0
  3  6  1  0  0  0  0
  3  8  2  0  0  0  0
  4 20  2  0  0  0  0
  5  6  2  0  0  0  0
  5 23  1  0  0  0  0
  6 24  1  0  0  0  0
  7  8  1  0  0  0  0
  7 25  1  0  0  0  0
  8 26  1  0  0  0  0
  9 13  1  0  0  0  0
  9 21  1  0  0  0  0
 10 20  1  0  0  0  0
 10 21  2  0  0  0  0
 10 23  1  0  0  0  0
 11 12  2  0  0  0  0
 12 14  1  0  0  0  0
 13 22  1  0  0  0  0
 13 27  2  0  0  0  0
 14 24  1  0  0  0  0
 14 28  2  0  0  0  0
 15 18  1  0  0  0  0
 16 26  1  0  0  0  0
 17 26  1  0  0  0  0
 18 19  1  0  0  0  0
 19 25  1  0  0  0  0
  1 29  1  0  0  0  0
  2 30  1  0  0  0  0
  3 31  1  0  0  0  0
  4 32  1  0  0  0  0
 11 33  1  0  0  0  0
 11 34  1  0  0  0  0
 12 35  1  0  0  0  0
 15 36  1  0  0  0  0
 15 37  1  0  0  0  0
 15 38  1  0  0  0  0
 16 39  1  0  0  0  0
 16 40  1  0  0  0  0
 16 41  1  0  0  0  0
 17 42  1  0  0  0  0
 17 43  1  0  0  0  0
 17 44  1  0  0  0  0
 18 45  1  0  0  0  0
 18 46  1  0  0  0  0
 19 47  1  0  0  0  0
 19 48  1  0  0  0  0
 22 49  1  0  0  0  0
 22 50  1  0  0  0  0
 23 51  1  0  0  0  0
 24 52  1  0  0  0  0
 25 53  1  0  0  0  0
M  END
> <creator>
Stefan Siemann, Laurentian University

> <fragments>
x0072

> <real_space>
FALSE

> <SCR>
FALSE

> <BB>
FALSE

> <link>
https://covid.postera.ai/covid/submissions/83562274-0d81-4f51-a8a1-2e7b315860d2

> <covalent_frag>
FALSE

> <covalent_warhead>
TRUE

> <acrylamide>
TRUE

> <acrylamide_adduct>
FALSE

> <chloroacetamide>
FALSE

> <chloroacetamide_adduct>
FALSE

> <vinylsulfonamide>
FALSE

> <vinylsulfonamide_adduct>
FALSE

> <in_molport_or_mcule>
FALSE

> <in_emolecules>
FALSE

> <Hybrid2>
-5.593823

> <Mpro-x0072_dock>
-5.593823

> <site>
active-noncovalent

> <covalent_distance_min>
3.1382391

> <covalent_distance_mean>
3.7145562

> <covalent_distance_stderr>
0.042722285

$$$$
AGN-NEW-cce-1
  -OEChem-04062011563D

 39 40  0     0  0  0  0  0  0999 V2000
   12.9686    0.0465   22.5353 C   0  0  0  0  0  0  0  0  0  0  0  0
    5.8762    0.6897   17.9377 C   0  0  0  0  0  0  0  0  0  0  0  0
   13.0876    1.0315   23.5157 C   0  0  0  0  0  0  0  0  0  0  0  0
   11.7149   -0.4796   22.2237 C   0  0  0  0  0  0  0  0  0  0  0  0
    6.7476    0.2615   18.9331 C   0  0  0  0  0  0  0  0  0  0  0  0
    4.6776    1.2647   18.3284 C   0  0  0  0  0  0  0  0  0  0  0  0
   11.9529    1.4904   24.1846 C   0  0  0  0  0  0  0  0  0  0  0  0
   10.5801   -0.0207   22.8926 C   0  0  0  0  0  0  0  0  0  0  0  0
    6.3987    0.4191   20.2697 C   0  0  0  0  0  0  0  0  0  0  0  0
   10.6991    0.9643   23.8730 C   0  0  0  0  0  0  0  0  0  0  0  0
    5.1768    1.0064   20.5560 C   0  0  0  0  0  0  0  0  0  0  0  0
    7.7509    3.2126   26.0460 C   0  0  0  0  0  0  0  0  0  0  0  0
    7.4298    2.3824   25.0487 C   0  0  0  0  0  0  0  0  0  0  0  0
    8.4292    2.0383   23.9961 C   0  0  0  0  0  0  0  0  0  0  0  0
    8.6763   -0.0730   21.2265 C   0  0  0  0  0  0  0  0  0  0  0  0
   12.1124    2.5464   25.2301 C   0  0  0  0  0  0  0  0  0  0  0  0
    9.2511   -0.6037   22.5359 C   0  0  0  0  0  0  0  0  0  0  0  0
    4.3041    1.4347   19.6165 N   0  0  0  0  0  0  0  0  0  0  0  0
    9.5608    1.4243   24.5442 N   0  0  0  0  0  0  0  0  0  0  0  0
    7.2860   -0.0163   21.2827 N   0  0  0  0  0  0  0  0  0  0  0  0
    8.2210    2.2911   22.8153 O   0  0  0  0  0  0  0  0  0  0  0  0
    9.3952    0.2437   20.2842 O   0  0  0  0  0  0  0  0  0  0  0  0
    4.6278    1.2586   22.1681 Cl  0  0  0  0  0  0  0  0  0  0  0  0
   13.8521   -0.3108   22.0141 H   0  0  0  0  0  0  0  0  0  0  0  0
    6.1269    0.5763   16.8893 H   0  0  0  0  0  0  0  0  0  0  0  0
   14.0690    1.4346   23.7515 H   0  0  0  0  0  0  0  0  0  0  0  0
   11.6331   -1.2463   21.4577 H   0  0  0  0  0  0  0  0  0  0  0  0
    7.6947   -0.1934   18.6549 H   0  0  0  0  0  0  0  0  0  0  0  0
    3.9630    1.6143   17.5906 H   0  0  0  0  0  0  0  0  0  0  0  0
    7.0514    3.4855   26.8281 H   0  0  0  0  0  0  0  0  0  0  0  0
    8.7458    3.6428   26.0943 H   0  0  0  0  0  0  0  0  0  0  0  0
    6.4356    1.9517   24.9998 H   0  0  0  0  0  0  0  0  0  0  0  0
   12.0254    3.5416   24.7797 H   0  0  0  0  0  0  0  0  0  0  0  0
   11.3496    2.4474   26.0116 H   0  0  0  0  0  0  0  0  0  0  0  0
   13.0886    2.4693   25.7240 H   0  0  0  0  0  0  0  0  0  0  0  0
    9.3254   -1.6999   22.4583 H   0  0  0  0  0  0  0  0  0  0  0  0
    8.5226   -0.4043   23.3376 H   0  0  0  0  0  0  0  0  0  0  0  0
    9.5552    1.2958   25.5616 H   0  0  0  0  0  0  0  0  0  0  0  0
    6.8581   -0.3238   22.1536 H   0  0  0  0  0  0  0  0  0  0  0  0
  1  3  1  0  0  0  0
  1  4  2  0  0  0  0
  2  5  2  0  0  0  0
  2  6  1  0  0  0  0
  3  7  2  0  0  0  0
  4  8  1  0  0  0  0
  5  9  1  0  0  0  0
  6 18  2  0  0  0  0
  7 10  1  0  0  0  0
  7 16  1  0  0  0  0
  8 10  2  0  0  0  0
  8 17  1  0  0  0  0
  9 11  2  0  0  0  0
  9 20  1  0  0  0  0
 10 19  1  0  0  0  0
 11 18  1  0  0  0  0
 11 23  1  0  0  0  0
 12 13  2  0  0  0  0
 13 14  1  0  0  0  0
 14 19  1  0  0  0  0
 14 21  2  0  0  0  0
 15 17  1  0  0  0  0
 15 20  1  0  0  0  0
 15 22  2  0  0  0  0
  1 24  1  0  0  0  0
  2 25  1  0  0  0  0
  3 26  1  0  0  0  0
  4 27  1  0  0  0  0
  5 28  1  0  0  0  0
  6 29  1  0  0  0  0
 12 30  1  0  0  0  0
 12 31  1  0  0  0  0
 13 32  1  0  0  0  0
 16 33  1  0  0  0  0
 16 34  1  0  0  0  0
 16 35  1  0  0  0  0
 17 36  1  0  0  0  0
 17 37  1  0  0  0  0
 19 38  1  0  0  0  0
 20 39  1  0  0  0  0
M  END
> <creator>
Agnieszka K. Bronowska, Newcastle University

> <fragments>
x0434

> <real_space>
FALSE

> <SCR>
FALSE

> <BB>
FALSE

> <link>
https://covid.postera.ai/covid/submissions/cce853d0-9767-46b3-a896-595a9bb2325f

> <covalent_frag>
FALSE

> <covalent_warhead>
TRUE

> <acrylamide>
TRUE

> <acrylamide_adduct>
FALSE

> <chloroacetamide>
FALSE

> <chloroacetamide_adduct>
FALSE

> <vinylsulfonamide>
FALSE

> <vinylsulfonamide_adduct>
FALSE

> <in_molport_or_mcule>
FALSE

> <in_emolecules>
FALSE

> <Hybrid2>
-5.588207

> <Mpro-x0434_dock>
-5.588207

> <site>
active-noncovalent

> <covalent_distance_min>
6.993169

> <covalent_distance_mean>
8.450292

> <covalent_distance_stderr>
0.107960746

$$$$
SEA-TRI-6cb-1
  -OEChem-04062011563D

 55 57  0     1  0  0  0  0  0999 V2000
   14.2027   -1.4559   25.5769 C   0  0  0  0  0  0  0  0  0  0  0  0
   13.1009   -0.6986   25.0844 C   0  0  0  0  0  0  0  0  0  0  0  0
   11.1898    2.1056   23.9154 C   0  0  0  0  0  0  0  0  0  0  0  0
   12.0358    4.2906   23.3265 C   0  0  0  0  0  0  0  0  0  0  0  0
   12.9046    2.3224   22.2273 C   0  0  0  0  0  0  0  0  0  0  0  0
   14.9637   -1.9849   24.5577 C   0  0  0  0  0  0  0  0  0  0  0  0
   11.1822    3.4900   24.0855 C   0  0  0  0  0  0  0  0  0  0  0  0
   12.0510    1.5218   22.9863 C   0  0  0  0  0  0  0  0  0  0  0  0
   12.8970    3.7068   22.3974 C   0  0  0  0  0  0  0  0  0  0  0  0
   13.0618   -0.6774   23.7075 C   0  0  0  0  0  0  0  0  0  0  0  0
    6.2854   -3.3522   24.4175 C   0  0  0  0  0  0  0  0  0  0  0  0
    6.1117   -2.5527   23.3634 C   0  0  0  0  0  0  0  0  0  0  0  0
    8.3533   -0.6635   22.1480 C   0  0  0  0  0  0  0  0  0  0  0  0
    9.4023   -2.7268   23.0079 C   0  0  0  0  0  0  0  0  0  0  0  0
    9.7242   -0.0477   21.9151 C   0  0  0  0  0  0  0  0  0  0  0  0
   10.7845   -2.1337   22.7836 C   0  0  0  0  0  0  0  0  0  0  0  0
   10.2600    4.1138   25.0780 C   0  0  0  0  0  0  0  0  0  0  0  0
    8.8931    4.4851   24.4968 C   0  0  0  0  0  0  0  0  0  0  0  0
   12.0570    0.0133   22.8006 C   0  0  1  0  0  0  0  0  0  0  0  0
    8.4416   -2.1473   22.0252 N   0  0  0  0  0  0  0  0  0  0  0  0
    7.4251    6.2279   23.1334 N   0  0  0  0  0  0  0  0  0  0  0  0
   10.7034   -0.6305   22.9067 N   0  3  0  0  0  0  0  0  0  0  0  0
    7.2112   -4.3899   21.9186 O   0  0  0  0  0  0  0  0  0  0  0  0
    6.2098   -2.3794   20.7883 O   0  0  0  0  0  0  0  0  0  0  0  0
    9.9337    6.6642   23.4989 O   0  0  0  0  0  0  0  0  0  0  0  0
    9.2103    4.8241   21.9253 O   0  0  0  0  0  0  0  0  0  0  0  0
   14.3496   -1.5682   23.0145 S   0  0  0  0  0  0  0  0  0  0  0  0
    6.9401   -2.9634   21.8992 S   0  0  0  0  0  0  0  0  0  0  0  0
    9.0112    5.6027   23.1353 S   0  0  0  0  0  0  0  0  0  0  0  0
   13.9511    4.6946   21.4618 Cl  0  0  0  0  0  0  0  0  0  0  0  0
   14.4270   -1.6049   26.6250 H   0  0  0  0  0  0  0  0  0  0  0  0
   12.3770   -0.1953   25.7128 H   0  0  0  0  0  0  0  0  0  0  0  0
   10.5242    1.4815   24.5072 H   0  0  0  0  0  0  0  0  0  0  0  0
   12.0262    5.3699   23.4628 H   0  0  0  0  0  0  0  0  0  0  0  0
   13.5743    1.8623   21.5041 H   0  0  0  0  0  0  0  0  0  0  0  0
   15.8507   -2.5964   24.6455 H   0  0  0  0  0  0  0  0  0  0  0  0
    5.7858   -3.1326   25.3550 H   0  0  0  0  0  0  0  0  0  0  0  0
    6.9181   -4.2325   24.3789 H   0  0  0  0  0  0  0  0  0  0  0  0
    5.4798   -1.6745   23.4044 H   0  0  0  0  0  0  0  0  0  0  0  0
    7.9656   -0.3933   23.1371 H   0  0  0  0  0  0  0  0  0  0  0  0
    7.6611   -0.2791   21.3910 H   0  0  0  0  0  0  0  0  0  0  0  0
    9.4568   -3.8114   22.8642 H   0  0  0  0  0  0  0  0  0  0  0  0
    9.0530   -2.5333   24.0289 H   0  0  0  0  0  0  0  0  0  0  0  0
   10.1050   -0.2631   20.9103 H   0  0  0  0  0  0  0  0  0  0  0  0
    9.6963    1.0348   22.0759 H   0  0  0  0  0  0  0  0  0  0  0  0
   11.4882   -2.4895   23.5429 H   0  0  0  0  0  0  0  0  0  0  0  0
   11.1712   -2.3623   21.7839 H   0  0  0  0  0  0  0  0  0  0  0  0
   10.7204    5.0334   25.4788 H   0  0  0  0  0  0  0  0  0  0  0  0
   10.1139    3.4572   25.9532 H   0  0  0  0  0  0  0  0  0  0  0  0
    8.3866    3.5948   24.1103 H   0  0  0  0  0  0  0  0  0  0  0  0
    8.2439    4.9540   25.2425 H   0  0  0  0  0  0  0  0  0  0  0  0
   12.3345   -0.1830   21.7561 H   0  0  0  0  0  0  0  0  0  0  0  0
    6.6664    5.6066   22.8271 H   0  0  0  0  0  0  0  0  0  0  0  0
    7.1593    6.8599   23.8986 H   0  0  0  0  0  0  0  0  0  0  0  0
   10.3507   -0.4170   23.8501 H   0  0  0  0  0  0  0  0  0  0  0  0
  1  2  1  0  0  0  0
  1  6  2  0  0  0  0
  2 10  2  0  0  0  0
  3  7  1  0  0  0  0
  3  8  2  0  0  0  0
  4  7  2  0  0  0  0
  4  9  1  0  0  0  0
  5  8  1  0  0  0  0
  5  9  2  0  0  0  0
  6 27  1  0  0  0  0
  7 17  1  0  0  0  0
  8 19  1  0  0  0  0
  9 30  1  0  0  0  0
 10 19  1  0  0  0  0
 10 27  1  0  0  0  0
 11 12  2  0  0  0  0
 12 28  1  0  0  0  0
 13 15  1  0  0  0  0
 13 20  1  0  0  0  0
 14 16  1  0  0  0  0
 14 20  1  0  0  0  0
 15 22  1  0  0  0  0
 16 22  1  0  0  0  0
 17 18  1  0  0  0  0
 18 29  1  0  0  0  0
 19 22  1  0  0  0  0
 20 28  1  0  0  0  0
 21 29  1  0  0  0  0
 23 28  2  0  0  0  0
 24 28  2  0  0  0  0
 25 29  2  0  0  0  0
 26 29  2  0  0  0  0
  1 31  1  0  0  0  0
  2 32  1  0  0  0  0
  3 33  1  0  0  0  0
  4 34  1  0  0  0  0
  5 35  1  0  0  0  0
  6 36  1  0  0  0  0
 11 37  1  0  0  0  0
 11 38  1  0  0  0  0
 12 39  1  0  0  0  0
 13 40  1  0  0  0  0
 13 41  1  0  0  0  0
 14 42  1  0  0  0  0
 14 43  1  0  0  0  0
 15 44  1  0  0  0  0
 15 45  1  0  0  0  0
 16 46  1  0  0  0  0
 16 47  1  0  0  0  0
 17 48  1  0  0  0  0
 17 49  1  0  0  0  0
 18 50  1  0  0  0  0
 18 51  1  0  0  0  0
 19 52  1  0  0  0  0
 21 53  1  0  0  0  0
 21 54  1  0  0  0  0
 22 55  1  0  0  0  0
M  CHG  1  22   1
M  END
> <creator>
Sean McKenna, Trinity College Dublin

> <fragments>
x0161

> <real_space>
FALSE

> <SCR>
FALSE

> <BB>
FALSE

> <link>
https://covid.postera.ai/covid/submissions/6cb4f71a-5166-4bc4-9920-7301f1dc32b7

> <covalent_frag>
TRUE

> <covalent_warhead>
TRUE

> <acrylamide>
FALSE

> <acrylamide_adduct>
FALSE

> <chloroacetamide>
FALSE

> <chloroacetamide_adduct>
FALSE

> <vinylsulfonamide>
TRUE

> <vinylsulfonamide_adduct>
FALSE

> <in_molport_or_mcule>
FALSE

> <in_emolecules>
FALSE

> <Hybrid2>
-5.575256

> <Mpro-x0161_dock>
-5.575256

> <Mpro-x0770_dock>
-1.52241

> <site>
active-noncovalent

> <covalent_distance_min>
6.110362

> <covalent_distance_mean>
6.567635

> <covalent_distance_stderr>
0.014137514

$$$$
NIM-UNI-ed9-1
  -OEChem-04062011563D

 53 54  0     1  0  0  0  0  0999 V2000
    5.9668    0.1783   21.2864 C   0  0  0  0  0  0  0  0  0  0  0  0
    7.2248    0.3799   19.2337 C   0  0  0  0  0  0  0  0  0  0  0  0
    4.9133    0.8882   20.7106 C   0  0  0  0  0  0  0  0  0  0  0  0
    6.1713    1.0898   18.6578 C   0  0  0  0  0  0  0  0  0  0  0  0
    7.1226   -0.0759   20.5480 C   0  0  0  0  0  0  0  0  0  0  0  0
    5.0155    1.3440   19.3962 C   0  0  0  0  0  0  0  0  0  0  0  0
    5.8445    7.8822   22.6645 C   0  0  0  0  0  0  0  0  0  0  0  0
   11.6999   -0.2717   22.5021 C   0  0  0  0  0  0  0  0  0  0  0  0
    8.7224    0.8350   23.0447 C   0  0  0  0  0  0  0  0  0  0  0  0
    8.0149    6.9347   23.3808 C   0  0  0  0  0  0  0  0  0  0  0  0
    6.7516    5.7417   21.6332 C   0  0  0  0  0  0  0  0  0  0  0  0
    8.2172    5.6370   24.1492 C   0  0  0  0  0  0  0  0  0  0  0  0
    6.9367    4.4248   22.3749 C   0  0  0  0  0  0  0  0  0  0  0  0
   12.6820   -1.2519   23.0525 C   0  0  0  0  0  0  0  0  0  0  0  0
    8.2639   -0.8456   21.1716 C   0  0  0  0  0  0  0  0  0  0  0  0
    4.6260    7.7453   21.7869 C   0  0  0  0  0  0  0  0  0  0  0  0
    8.5114    3.1747   23.8557 C   0  0  0  0  0  0  0  0  0  0  0  0
    9.3064    0.0192   21.8948 C   0  0  2  0  0  0  0  0  0  0  0  0
    6.8048    6.8768   22.5607 N   0  0  0  0  0  0  0  0  0  0  0  0
    8.9367    2.1969   22.8836 N   0  0  0  0  0  0  0  0  0  0  0  0
   10.4085   -0.7597   22.3985 N   0  0  0  0  0  0  0  0  0  0  0  0
    8.2198    4.4816   23.1733 N   0  3  0  0  0  0  0  0  0  0  0  0
    5.9371    8.8527   23.4206 O   0  0  0  0  0  0  0  0  0  0  0  0
   12.0773    0.8521   22.1915 O   0  0  0  0  0  0  0  0  0  0  0  0
    8.1599    0.3230   24.0106 O   0  0  0  0  0  0  0  0  0  0  0  0
    3.9868    2.0356   18.8340 O   0  0  0  0  0  0  0  0  0  0  0  0
    3.4536    6.7992   22.6969 Cl  0  0  0  0  0  0  0  0  0  0  0  0
    5.8786   -0.1730   22.3110 H   0  0  0  0  0  0  0  0  0  0  0  0
    8.1217    0.1866   18.6508 H   0  0  0  0  0  0  0  0  0  0  0  0
    4.0153    1.0828   21.2909 H   0  0  0  0  0  0  0  0  0  0  0  0
    6.2569    1.4418   17.6336 H   0  0  0  0  0  0  0  0  0  0  0  0
    7.9678    7.7722   24.0838 H   0  0  0  0  0  0  0  0  0  0  0  0
    8.8601    7.1231   22.7076 H   0  0  0  0  0  0  0  0  0  0  0  0
    7.5519    5.8855   20.8971 H   0  0  0  0  0  0  0  0  0  0  0  0
    5.8111    5.7113   21.0803 H   0  0  0  0  0  0  0  0  0  0  0  0
    9.1864    5.6363   24.6584 H   0  0  0  0  0  0  0  0  0  0  0  0
    7.4172    5.4612   24.8772 H   0  0  0  0  0  0  0  0  0  0  0  0
    6.1147    4.2275   23.0721 H   0  0  0  0  0  0  0  0  0  0  0  0
    7.0289    3.5937   21.6683 H   0  0  0  0  0  0  0  0  0  0  0  0
   13.1586   -1.8571   22.2647 H   0  0  0  0  0  0  0  0  0  0  0  0
   13.5125   -0.7612   23.5851 H   0  0  0  0  0  0  0  0  0  0  0  0
   12.2696   -1.9809   23.7683 H   0  0  0  0  0  0  0  0  0  0  0  0
    7.8480   -1.5842   21.8692 H   0  0  0  0  0  0  0  0  0  0  0  0
    8.7577   -1.4327   20.3855 H   0  0  0  0  0  0  0  0  0  0  0  0
    4.9034    7.2211   20.8795 H   0  0  0  0  0  0  0  0  0  0  0  0
    4.2286    8.7326   21.5811 H   0  0  0  0  0  0  0  0  0  0  0  0
    9.2912    3.3583   24.5995 H   0  0  0  0  0  0  0  0  0  0  0  0
    7.5872    2.8355   24.3296 H   0  0  0  0  0  0  0  0  0  0  0  0
    9.7454    0.7200   21.1739 H   0  0  0  0  0  0  0  0  0  0  0  0
    9.4272    2.5307   22.0592 H   0  0  0  0  0  0  0  0  0  0  0  0
   10.2287   -1.7172   22.6931 H   0  0  0  0  0  0  0  0  0  0  0  0
    8.9886    4.6422   22.5079 H   0  0  0  0  0  0  0  0  0  0  0  0
    4.2067    2.2830   17.9217 H   0  0  0  0  0  0  0  0  0  0  0  0
  1  3  2  0  0  0  0
  1  5  1  0  0  0  0
  2  4  1  0  0  0  0
  2  5  2  0  0  0  0
  3  6  1  0  0  0  0
  4  6  2  0  0  0  0
  5 15  1  0  0  0  0
  6 26  1  0  0  0  0
  7 16  1  0  0  0  0
  7 19  1  0  0  0  0
  7 23  2  0  0  0  0
  8 14  1  0  0  0  0
  8 21  1  0  0  0  0
  8 24  2  0  0  0  0
  9 18  1  0  0  0  0
  9 20  1  0  0  0  0
  9 25  2  0  0  0  0
 10 12  1  0  0  0  0
 10 19  1  0  0  0  0
 11 13  1  0  0  0  0
 11 19  1  0  0  0  0
 12 22  1  0  0  0  0
 13 22  1  0  0  0  0
 15 18  1  0  0  0  0
 16 27  1  0  0  0  0
 17 20  1  0  0  0  0
 17 22  1  0  0  0  0
 18 21  1  0  0  0  0
  1 28  1  0  0  0  0
  2 29  1  0  0  0  0
  3 30  1  0  0  0  0
  4 31  1  0  0  0  0
 10 32  1  0  0  0  0
 10 33  1  0  0  0  0
 11 34  1  0  0  0  0
 11 35  1  0  0  0  0
 12 36  1  0  0  0  0
 12 37  1  0  0  0  0
 13 38  1  0  0  0  0
 13 39  1  0  0  0  0
 14 40  1  0  0  0  0
 14 41  1  0  0  0  0
 14 42  1  0  0  0  0
 15 43  1  0  0  0  0
 15 44  1  0  0  0  0
 16 45  1  0  0  0  0
 16 46  1  0  0  0  0
 17 47  1  0  0  0  0
 17 48  1  0  0  0  0
 18 49  1  0  0  0  0
 20 50  1  0  0  0  0
 21 51  1  0  0  0  0
 22 52  1  0  0  0  0
 26 53  1  0  0  0  0
M  CHG  1  22   1
M  END
> <creator>
Nimesh Mistry, University of Leeds

> <fragments>
x0967

> <real_space>
FALSE

> <SCR>
FALSE

> <BB>
FALSE

> <link>
https://covid.postera.ai/covid/submissions/ed9fc491-dc03-4238-8d3b-b72343b7eaa7

> <covalent_frag>
TRUE

> <covalent_warhead>
TRUE

> <acrylamide>
FALSE

> <acrylamide_adduct>
FALSE

> <chloroacetamide>
TRUE

> <chloroacetamide_adduct>
FALSE

> <vinylsulfonamide>
FALSE

> <vinylsulfonamide_adduct>
FALSE

> <in_molport_or_mcule>
FALSE

> <in_emolecules>
FALSE

> <Hybrid2>
-5.544855

> <Mpro-x0967_dock>
-5.544855

> <Mpro-x0770_dock>
2.004081

> <site>
active-noncovalent

> <covalent_distance_min>
11.97055

> <covalent_distance_mean>
12.788292

> <covalent_distance_stderr>
0.072073445

$$$$
MAK-UNK-af8-25
  -OEChem-04062011563D

 62 64  0     1  0  0  0  0  0999 V2000
    8.0665   -1.0112   24.1177 C   0  0  0  0  0  0  0  0  0  0  0  0
    8.7201    0.9606   25.4198 C   0  0  0  0  0  0  0  0  0  0  0  0
    8.7367    2.3418   25.5790 C   0  0  0  0  0  0  0  0  0  0  0  0
    7.5130    1.2610   23.3927 C   0  0  0  0  0  0  0  0  0  0  0  0
    8.0986    0.4019   24.3086 C   0  0  0  0  0  0  0  0  0  0  0  0
    8.1227    3.1141   24.6062 C   0  0  0  0  0  0  0  0  0  0  0  0
   13.2957   -1.2979   22.5322 C   0  0  0  0  0  0  0  0  0  0  0  0
   14.6013    0.8030   22.5827 C   0  0  0  0  0  0  0  0  0  0  0  0
   12.5009    0.7147   23.8686 C   0  0  0  0  0  0  0  0  0  0  0  0
   14.1897    2.1301   21.9622 C   0  0  0  0  0  0  0  0  0  0  0  0
   12.0582    2.0423   23.2685 C   0  0  0  0  0  0  0  0  0  0  0  0
   11.5478    6.3131   23.0464 C   0  0  2  0  0  0  0  0  0  0  0  0
   11.1994    6.8874   24.4039 C   0  0  2  0  0  0  0  0  0  0  0  0
   11.9800    4.8973   23.4068 C   0  0  1  0  0  0  0  0  0  0  0  0
   12.1790    6.1917   25.3492 C   0  0  2  0  0  0  0  0  0  0  0  0
   13.4005    7.0394   25.6747 C   0  0  0  0  0  0  0  0  0  0  0  0
   12.0571   -2.0351   22.9753 C   0  0  0  0  0  0  0  0  0  0  0  0
   12.9121    4.2275   22.4136 C   0  0  0  0  0  0  0  0  0  0  0  0
    7.5156    6.8539   24.4860 C   0  0  0  0  0  0  0  0  0  0  0  0
    7.2412    5.3990   24.1291 C   0  0  0  0  0  0  0  0  0  0  0  0
    8.9109    7.3097   24.0763 C   0  0  0  0  0  0  0  0  0  0  0  0
    8.0405   -2.1610   23.9625 N   0  0  0  0  0  0  0  0  0  0  0  0
    7.5090    2.6075   23.5133 N   0  0  0  0  0  0  0  0  0  0  0  0
   13.4294    0.0184   22.9715 N   0  0  0  0  0  0  0  0  0  0  0  0
    8.1472    4.4922   24.7797 N   0  0  0  0  0  0  0  0  0  0  0  0
   13.2809    2.8629   22.9237 N   0  3  0  0  0  0  0  0  0  0  0  0
   14.1170   -1.8754   21.8153 O   0  0  0  0  0  0  0  0  0  0  0  0
   12.6376    4.9997   24.6806 O   0  0  0  0  0  0  0  0  0  0  0  0
   12.6258    7.0415   22.4748 O   0  0  0  0  0  0  0  0  0  0  0  0
    9.8690    6.4914   24.7301 O   0  0  0  0  0  0  0  0  0  0  0  0
   10.8187   -1.7106   21.7675 Cl  0  0  0  0  0  0  0  0  0  0  0  0
    9.1952    0.3326   26.1693 H   0  0  0  0  0  0  0  0  0  0  0  0
    9.2204    2.7864   26.4426 H   0  0  0  0  0  0  0  0  0  0  0  0
    7.0127    0.8874   22.5038 H   0  0  0  0  0  0  0  0  0  0  0  0
   15.2240    0.2464   21.8753 H   0  0  0  0  0  0  0  0  0  0  0  0
   15.2025    0.9664   23.4854 H   0  0  0  0  0  0  0  0  0  0  0  0
   13.0259    0.8766   24.8179 H   0  0  0  0  0  0  0  0  0  0  0  0
   11.6192    0.1111   24.0904 H   0  0  0  0  0  0  0  0  0  0  0  0
   15.0650    2.7653   21.7920 H   0  0  0  0  0  0  0  0  0  0  0  0
   13.6444    1.9926   21.0217 H   0  0  0  0  0  0  0  0  0  0  0  0
   11.4758    1.9039   22.3507 H   0  0  0  0  0  0  0  0  0  0  0  0
   11.4733    2.6175   23.9935 H   0  0  0  0  0  0  0  0  0  0  0  0
   10.7109    6.3119   22.3407 H   0  0  0  0  0  0  0  0  0  0  0  0
   11.2551    7.9793   24.4509 H   0  0  0  0  0  0  0  0  0  0  0  0
   11.0974    4.2663   23.5549 H   0  0  0  0  0  0  0  0  0  0  0  0
   11.6935    5.8833   26.2817 H   0  0  0  0  0  0  0  0  0  0  0  0
   13.8941    7.3536   24.7545 H   0  0  0  0  0  0  0  0  0  0  0  0
   14.1064    6.4639   26.2746 H   0  0  0  0  0  0  0  0  0  0  0  0
   13.1021    7.9261   26.2353 H   0  0  0  0  0  0  0  0  0  0  0  0
   11.7458   -1.6511   23.9400 H   0  0  0  0  0  0  0  0  0  0  0  0
   12.2738   -3.0966   23.0106 H   0  0  0  0  0  0  0  0  0  0  0  0
   13.8434    4.7875   22.2918 H   0  0  0  0  0  0  0  0  0  0  0  0
   12.4334    4.0882   21.4404 H   0  0  0  0  0  0  0  0  0  0  0  0
    6.7736    7.4940   23.9924 H   0  0  0  0  0  0  0  0  0  0  0  0
    7.3821    7.0160   25.5630 H   0  0  0  0  0  0  0  0  0  0  0  0
    6.2305    5.1192   24.4420 H   0  0  0  0  0  0  0  0  0  0  0  0
    7.3227    5.2364   23.0496 H   0  0  0  0  0  0  0  0  0  0  0  0
    9.0578    7.2160   22.9959 H   0  0  0  0  0  0  0  0  0  0  0  0
    9.0835    8.3497   24.3711 H   0  0  0  0  0  0  0  0  0  0  0  0
    8.8511    4.8770   25.4046 H   0  0  0  0  0  0  0  0  0  0  0  0
   13.8084    3.0089   23.7955 H   0  0  0  0  0  0  0  0  0  0  0  0
   12.3287    7.9620   22.3901 H   0  0  0  0  0  0  0  0  0  0  0  0
  1  5  1  0  0  0  0
  1 22  3  0  0  0  0
  2  3  2  0  0  0  0
  2  5  1  0  0  0  0
  3  6  1  0  0  0  0
  4  5  2  0  0  0  0
  4 23  1  0  0  0  0
  6 23  2  0  0  0  0
  6 25  1  0  0  0  0
  7 17  1  0  0  0  0
  7 24  1  0  0  0  0
  7 27  2  0  0  0  0
  8 10  1  0  0  0  0
  8 24  1  0  0  0  0
  9 11  1  0  0  0  0
  9 24  1  0  0  0  0
 10 26  1  0  0  0  0
 11 26  1  0  0  0  0
 12 13  1  0  0  0  0
 12 14  1  0  0  0  0
 12 29  1  0  0  0  0
 13 15  1  0  0  0  0
 13 30  1  0  0  0  0
 14 18  1  0  0  0  0
 14 28  1  0  0  0  0
 15 16  1  0  0  0  0
 15 28  1  0  0  0  0
 17 31  1  0  0  0  0
 18 26  1  0  0  0  0
 19 20  1  0  0  0  0
 19 21  1  0  0  0  0
 20 25  1  0  0  0  0
 21 30  1  0  0  0  0
  2 32  1  0  0  0  0
  3 33  1  0  0  0  0
  4 34  1  0  0  0  0
  8 35  1  0  0  0  0
  8 36  1  0  0  0  0
  9 37  1  0  0  0  0
  9 38  1  0  0  0  0
 10 39  1  0  0  0  0
 10 40  1  0  0  0  0
 11 41  1  0  0  0  0
 11 42  1  0  0  0  0
 12 43  1  0  0  0  0
 13 44  1  0  0  0  0
 14 45  1  0  0  0  0
 15 46  1  0  0  0  0
 16 47  1  0  0  0  0
 16 48  1  0  0  0  0
 16 49  1  0  0  0  0
 17 50  1  0  0  0  0
 17 51  1  0  0  0  0
 18 52  1  0  0  0  0
 18 53  1  0  0  0  0
 19 54  1  0  0  0  0
 19 55  1  0  0  0  0
 20 56  1  0  0  0  0
 20 57  1  0  0  0  0
 21 58  1  0  0  0  0
 21 59  1  0  0  0  0
 25 60  1  0  0  0  0
 26 61  1  0  0  0  0
 29 62  1  0  0  0  0
M  CHG  1  26   1
M  END
> <creator>
Maksym Voznyy

> <fragments>
x0195

> <real_space>
FALSE

> <SCR>
FALSE

> <BB>
FALSE

> <link>
https://covid.postera.ai/covid/submissions/af83ef51-35cf-489e-b3bd-9012d86d8275

> <covalent_frag>
TRUE

> <covalent_warhead>
TRUE

> <acrylamide>
FALSE

> <acrylamide_adduct>
FALSE

> <chloroacetamide>
TRUE

> <chloroacetamide_adduct>
FALSE

> <vinylsulfonamide>
FALSE

> <vinylsulfonamide_adduct>
FALSE

> <in_molport_or_mcule>
FALSE

> <in_emolecules>
FALSE

> <Hybrid2>
-5.543700

> <Mpro-x0195_dock>
-5.5437

> <Mpro-x0161_dock>
-5.418577

> <Mpro-x0072_dock>
-4.242084

> <Mpro-x0104_dock>
-3.998981

> <Mpro-x0305_dock>
-2.880145

> <Mpro-x0387_dock>
-2.87216

> <Mpro-x0692_dock>
3.283137

> <site>
active-noncovalent

$$$$
DAV-CRI-b70-1
  -OEChem-04062011563D

 60 64  0     1  0  0  0  0  0999 V2000
   12.9923    0.5604   23.2221 C   0  0  0  0  0  0  0  0  0  0  0  0
   12.3515    0.6102   24.4600 C   0  0  0  0  0  0  0  0  0  0  0  0
   12.5294   -0.3058   22.2314 C   0  0  0  0  0  0  0  0  0  0  0  0
   11.2446   -4.7560   26.0486 C   0  0  0  0  0  0  0  0  0  0  0  0
   10.2682   -5.7445   25.9816 C   0  0  0  0  0  0  0  0  0  0  0  0
   11.2479   -0.2062   24.7074 C   0  0  0  0  0  0  0  0  0  0  0  0
   11.4258   -1.1221   22.4788 C   0  0  0  0  0  0  0  0  0  0  0  0
   11.0438   -3.5279   25.4157 C   0  0  0  0  0  0  0  0  0  0  0  0
    9.0823   -5.5012   25.2930 C   0  0  0  0  0  0  0  0  0  0  0  0
   10.7850   -1.0724   23.7168 C   0  0  0  0  0  0  0  0  0  0  0  0
    9.8698   -3.2795   24.6882 C   0  0  0  0  0  0  0  0  0  0  0  0
    8.8711   -4.2714   24.6498 C   0  0  0  0  0  0  0  0  0  0  0  0
    4.1353   -5.4867   23.2566 C   0  0  0  0  0  0  0  0  0  0  0  0
    6.6394   -3.1753   21.8270 C   0  0  0  0  0  0  0  0  0  0  0  0
    3.9011   -6.9470   23.5652 C   0  0  0  0  0  0  0  0  0  0  0  0
    3.8611   -6.9828   25.0882 C   0  0  0  0  0  0  0  0  0  0  0  0
    4.7694   -5.8427   25.5031 C   0  0  0  0  0  0  0  0  0  0  0  0
    8.8162   -2.2291   22.6732 C   0  0  0  0  0  0  0  0  0  0  0  0
    6.7858   -1.9432   25.2558 C   0  0  0  0  0  0  0  0  0  0  0  0
    4.2644   -2.7633   25.5674 C   0  0  0  0  0  0  0  0  0  0  0  0
    9.5796   -1.9647   23.9864 C   0  0  2  0  0  0  0  0  0  0  0  0
    7.5402   -3.9913   23.9819 C   0  0  1  0  0  0  0  0  0  0  0  0
    6.5503   -3.4363   24.9975 C   0  0  2  0  0  0  0  0  0  0  0  0
    5.0836   -3.5414   24.5388 C   0  0  1  0  0  0  0  0  0  0  0  0
    6.4042   -1.9310   21.0055 C   0  0  0  0  0  0  0  0  0  0  0  0
    4.6261   -4.8988   24.4201 N   0  0  0  0  0  0  0  0  0  0  0  0
    7.6364   -3.0961   22.8111 N   0  0  0  0  0  0  0  0  0  0  0  0
    3.9590   -4.9698   22.1636 O   0  0  0  0  0  0  0  0  0  0  0  0
    5.9603   -4.1820   21.6090 O   0  0  0  0  0  0  0  0  0  0  0  0
    4.8040   -0.2071   25.2003 O   0  0  0  0  0  0  0  0  0  0  0  0
    5.4206   -1.2810   27.4144 O   0  0  0  0  0  0  0  0  0  0  0  0
    5.2652   -1.3398   25.9759 S   0  0  0  0  0  0  0  0  0  0  0  0
    5.9011   -0.6731   22.1292 Cl  0  0  0  0  0  0  0  0  0  0  0  0
   13.8508    1.1971   23.0291 H   0  0  0  0  0  0  0  0  0  0  0  0
   12.7111    1.2853   25.2311 H   0  0  0  0  0  0  0  0  0  0  0  0
   13.0274   -0.3440   21.2671 H   0  0  0  0  0  0  0  0  0  0  0  0
   12.1688   -4.9405   26.5911 H   0  0  0  0  0  0  0  0  0  0  0  0
   10.4310   -6.7032   26.4635 H   0  0  0  0  0  0  0  0  0  0  0  0
   10.7550   -0.1609   25.6750 H   0  0  0  0  0  0  0  0  0  0  0  0
   11.0722   -1.7939   21.7011 H   0  0  0  0  0  0  0  0  0  0  0  0
   11.8151   -2.7653   25.4921 H   0  0  0  0  0  0  0  0  0  0  0  0
    8.3251   -6.2775   25.2590 H   0  0  0  0  0  0  0  0  0  0  0  0
    2.9637   -7.2959   23.1254 H   0  0  0  0  0  0  0  0  0  0  0  0
    4.7410   -7.5285   23.1725 H   0  0  0  0  0  0  0  0  0  0  0  0
    2.8385   -6.7943   25.4375 H   0  0  0  0  0  0  0  0  0  0  0  0
    4.1850   -7.9475   25.4890 H   0  0  0  0  0  0  0  0  0  0  0  0
    4.4611   -5.3934   26.4505 H   0  0  0  0  0  0  0  0  0  0  0  0
    5.8172   -6.1532   25.5564 H   0  0  0  0  0  0  0  0  0  0  0  0
    8.4454   -1.2670   22.2620 H   0  0  0  0  0  0  0  0  0  0  0  0
    9.5135   -2.6084   21.9010 H   0  0  0  0  0  0  0  0  0  0  0  0
    7.6139   -1.7668   25.9481 H   0  0  0  0  0  0  0  0  0  0  0  0
    6.9564   -1.3887   24.3264 H   0  0  0  0  0  0  0  0  0  0  0  0
    3.3001   -2.4320   25.1753 H   0  0  0  0  0  0  0  0  0  0  0  0
    4.1190   -3.3355   26.4895 H   0  0  0  0  0  0  0  0  0  0  0  0
    8.8811   -1.3743   24.6293 H   0  0  0  0  0  0  0  0  0  0  0  0
    7.1486   -4.9539   23.6296 H   0  0  0  0  0  0  0  0  0  0  0  0
    6.6759   -3.9803   25.9427 H   0  0  0  0  0  0  0  0  0  0  0  0
    4.9694   -3.0764   23.5495 H   0  0  0  0  0  0  0  0  0  0  0  0
    5.6150   -2.1270   20.2886 H   0  0  0  0  0  0  0  0  0  0  0  0
    7.3322   -1.6486   20.5217 H   0  0  0  0  0  0  0  0  0  0  0  0
  1  2  1  0  0  0  0
  1  3  2  0  0  0  0
  2  6  2  0  0  0  0
  3  7  1  0  0  0  0
  4  5  1  0  0  0  0
  4  8  2  0  0  0  0
  5  9  2  0  0  0  0
  6 10  1  0  0  0  0
  7 10  2  0  0  0  0
  8 11  1  0  0  0  0
  9 12  1  0  0  0  0
 10 21  1  0  0  0  0
 11 12  2  0  0  0  0
 11 21  1  0  0  0  0
 12 22  1  0  0  0  0
 13 15  1  0  0  0  0
 13 26  1  0  0  0  0
 13 28  2  0  0  0  0
 14 25  1  0  0  0  0
 14 27  1  0  0  0  0
 14 29  2  0  0  0  0
 15 16  1  0  0  0  0
 16 17  1  0  0  0  0
 17 26  1  0  0  0  0
 18 21  1  0  0  0  0
 18 27  1  0  0  0  0
 19 23  1  0  0  0  0
 19 32  1  0  0  0  0
 20 24  1  0  0  0  0
 20 32  1  0  0  0  0
 22 23  1  0  0  0  0
 22 27  1  0  0  0  0
 23 24  1  0  0  0  0
 24 26  1  0  0  0  0
 25 33  1  0  0  0  0
 30 32  2  0  0  0  0
 31 32  2  0  0  0  0
  1 34  1  0  0  0  0
  2 35  1  0  0  0  0
  3 36  1  0  0  0  0
  4 37  1  0  0  0  0
  5 38  1  0  0  0  0
  6 39  1  0  0  0  0
  7 40  1  0  0  0  0
  8 41  1  0  0  0  0
  9 42  1  0  0  0  0
 15 43  1  0  0  0  0
 15 44  1  0  0  0  0
 16 45  1  0  0  0  0
 16 46  1  0  0  0  0
 17 47  1  0  0  0  0
 17 48  1  0  0  0  0
 18 49  1  0  0  0  0
 18 50  1  0  0  0  0
 19 51  1  0  0  0  0
 19 52  1  0  0  0  0
 20 53  1  0  0  0  0
 20 54  1  0  0  0  0
 21 55  1  0  0  0  0
 22 56  1  0  0  0  0
 23 57  1  0  0  0  0
 24 58  1  0  0  0  0
 25 59  1  0  0  0  0
 25 60  1  0  0  0  0
M  END
> <creator>
David Briggs, Crick Institute

> <fragments>
x1392

> <real_space>
FALSE

> <SCR>
FALSE

> <BB>
FALSE

> <link>
https://covid.postera.ai/covid/submissions/b7083e67-383e-4bde-92be-96886cf0c155

> <covalent_frag>
TRUE

> <covalent_warhead>
TRUE

> <acrylamide>
FALSE

> <acrylamide_adduct>
FALSE

> <chloroacetamide>
TRUE

> <chloroacetamide_adduct>
FALSE

> <vinylsulfonamide>
FALSE

> <vinylsulfonamide_adduct>
FALSE

> <in_molport_or_mcule>
FALSE

> <in_emolecules>
FALSE

> <Hybrid2>
-5.525158

> <Mpro-x1392_dock>
-5.525158

> <Mpro-x1375_dock>
-0.957215

> <Mpro-x1384_dock>
-0.525706

> <site>
active-covalent

> <covalent_distance_min>
3.0135446

> <covalent_distance_mean>
3.3849754

> <covalent_distance_stderr>
0.013296237

$$$$
TOB-UNK-c2a-1
  -OEChem-04062011563D

 27 27  0     0  0  0  0  0  0999 V2000
   12.5135   -0.0617   22.7933 C   0  0  0  0  0  0  0  0  0  0  0  0
   11.6740   -0.8904   23.0165 C   0  0  0  0  0  0  0  0  0  0  0  0
    6.4465   -1.7245   19.6943 C   0  0  0  0  0  0  0  0  0  0  0  0
    7.0427   -2.1125   22.0639 C   0  0  0  0  0  0  0  0  0  0  0  0
    8.1793   -0.2809   20.8695 C   0  0  0  0  0  0  0  0  0  0  0  0
    8.3768   -2.6316   22.5798 C   0  0  0  0  0  0  0  0  0  0  0  0
    9.5314   -0.7717   21.3693 C   0  0  0  0  0  0  0  0  0  0  0  0
   10.6564   -1.9017   23.2910 C   0  0  0  0  0  0  0  0  0  0  0  0
    6.6860   -0.9252   18.4383 C   0  0  0  0  0  0  0  0  0  0  0  0
    7.2129   -1.3826   20.8076 N   0  0  0  0  0  0  0  0  0  0  0  0
    9.3444   -1.4750   22.6951 N   0  3  0  0  0  0  0  0  0  0  0  0
    5.6051   -2.6268   19.6836 O   0  0  0  0  0  0  0  0  0  0  0  0
    5.5572    0.4247   18.4774 Cl  0  0  0  0  0  0  0  0  0  0  0  0
   13.2576    0.6738   22.5951 H   0  0  0  0  0  0  0  0  0  0  0  0
    6.3496   -2.9498   21.9357 H   0  0  0  0  0  0  0  0  0  0  0  0
    6.5888   -1.4232   22.7863 H   0  0  0  0  0  0  0  0  0  0  0  0
    7.7679    0.4746   21.5498 H   0  0  0  0  0  0  0  0  0  0  0  0
    8.3106    0.2008   19.8992 H   0  0  0  0  0  0  0  0  0  0  0  0
    8.2633   -3.0631   23.5796 H   0  0  0  0  0  0  0  0  0  0  0  0
    8.8179   -3.3738   21.9049 H   0  0  0  0  0  0  0  0  0  0  0  0
    9.9930   -1.4816   20.6738 H   0  0  0  0  0  0  0  0  0  0  0  0
   10.2088    0.0712   21.5401 H   0  0  0  0  0  0  0  0  0  0  0  0
   10.4878   -2.0317   24.3634 H   0  0  0  0  0  0  0  0  0  0  0  0
   10.9071   -2.8667   22.8426 H   0  0  0  0  0  0  0  0  0  0  0  0
    6.4850   -1.5536   17.5782 H   0  0  0  0  0  0  0  0  0  0  0  0
    7.7059   -0.5582   18.4446 H   0  0  0  0  0  0  0  0  0  0  0  0
    8.9338   -0.7939   23.3487 H   0  0  0  0  0  0  0  0  0  0  0  0
  1  2  3  0  0  0  0
  2  8  1  0  0  0  0
  3  9  1  0  0  0  0
  3 10  1  0  0  0  0
  3 12  2  0  0  0  0
  4  6  1  0  0  0  0
  4 10  1  0  0  0  0
  5  7  1  0  0  0  0
  5 10  1  0  0  0  0
  6 11  1  0  0  0  0
  7 11  1  0  0  0  0
  8 11  1  0  0  0  0
  9 13  1  0  0  0  0
  1 14  1  0  0  0  0
  4 15  1  0  0  0  0
  4 16  1  0  0  0  0
  5 17  1  0  0  0  0
  5 18  1  0  0  0  0
  6 19  1  0  0  0  0
  6 20  1  0  0  0  0
  7 21  1  0  0  0  0
  7 22  1  0  0  0  0
  8 23  1  0  0  0  0
  8 24  1  0  0  0  0
  9 25  1  0  0  0  0
  9 26  1  0  0  0  0
 11 27  1  0  0  0  0
M  CHG  1  11   1
M  END
> <creator>
Tobias Grabe

> <fragments>
x1386

> <real_space>
Z1562141114

> <SCR>
Z2417560794

> <BB>
FALSE

> <link>
https://covid.postera.ai/covid/submissions/c2aba166-fc0c-4b8c-b831-fecfdf920427

> <covalent_frag>
TRUE

> <covalent_warhead>
TRUE

> <acrylamide>
FALSE

> <acrylamide_adduct>
FALSE

> <chloroacetamide>
TRUE

> <chloroacetamide_adduct>
FALSE

> <vinylsulfonamide>
FALSE

> <vinylsulfonamide_adduct>
FALSE

> <in_molport_or_mcule>
TRUE

> <in_emolecules>
TRUE

> <Hybrid2>
-5.523991

> <Mpro-x1386_dock>
-5.523991

> <site>
active-covalent

> <covalent_distance_min>
2.9962378

> <covalent_distance_mean>
3.5727181

> <covalent_distance_stderr>
0.042937804

$$$$
DAN-LON-a5f-9
  -OEChem-04062011563D

 42 44  0     1  0  0  0  0  0999 V2000
   11.8830    0.2423   24.7163 C   0  0  0  0  0  0  0  0  0  0  0  0
    3.7966   -3.5246   24.8264 C   0  0  0  0  0  0  0  0  0  0  0  0
   10.9566   -0.7941   24.8318 C   0  0  0  0  0  0  0  0  0  0  0  0
   12.7593    0.2769   23.6316 C   0  0  0  0  0  0  0  0  0  0  0  0
    4.8792   -3.9364   23.9966 C   0  0  0  0  0  0  0  0  0  0  0  0
   11.7830   -1.7616   22.7780 C   0  0  0  0  0  0  0  0  0  0  0  0
    4.2070   -2.6716   25.8271 C   0  0  0  0  0  0  0  0  0  0  0  0
   10.9067   -1.7960   23.8627 C   0  0  0  0  0  0  0  0  0  0  0  0
   12.7094   -0.7251   22.6625 C   0  0  0  0  0  0  0  0  0  0  0  0
    6.0760   -3.3820   24.3947 C   0  0  0  0  0  0  0  0  0  0  0  0
    6.0052   -2.5778   20.7044 C   0  0  0  0  0  0  0  0  0  0  0  0
    8.1593   -1.6168   21.6496 C   0  0  0  0  0  0  0  0  0  0  0  0
    7.4190   -3.8748   22.2654 C   0  0  0  0  0  0  0  0  0  0  0  0
    8.2733   -1.2158   23.1113 C   0  0  0  0  0  0  0  0  0  0  0  0
    7.4612   -3.5661   23.7768 C   0  0  1  0  0  0  0  0  0  0  0  0
    9.9109   -2.9112   23.9882 C   0  0  0  0  0  0  0  0  0  0  0  0
    5.7846   -1.2766   19.9757 C   0  0  0  0  0  0  0  0  0  0  0  0
    7.1567   -2.6687   21.4847 N   0  0  0  0  0  0  0  0  0  0  0  0
    8.4789   -2.4276   24.0029 N   0  3  1  0  0  0  0  0  0  0  0  0
    5.1765   -3.4839   20.5848 O   0  0  0  0  0  0  0  0  0  0  0  0
    5.8914   -2.3701   25.7637 S   0  0  0  0  0  0  0  0  0  0  0  0
   13.7916   -0.6826   21.3251 Cl  0  0  0  0  0  0  0  0  0  0  0  0
    4.2952   -1.4606   19.0561 Cl  0  0  0  0  0  0  0  0  0  0  0  0
   11.9216    1.0223   25.4713 H   0  0  0  0  0  0  0  0  0  0  0  0
    2.7688   -3.8371   24.6961 H   0  0  0  0  0  0  0  0  0  0  0  0
   10.2777   -0.8130   25.6804 H   0  0  0  0  0  0  0  0  0  0  0  0
   13.4763    1.0906   23.5547 H   0  0  0  0  0  0  0  0  0  0  0  0
    4.7798   -4.6045   23.1505 H   0  0  0  0  0  0  0  0  0  0  0  0
   11.7398   -2.5448   22.0248 H   0  0  0  0  0  0  0  0  0  0  0  0
    3.5983   -2.2112   26.5925 H   0  0  0  0  0  0  0  0  0  0  0  0
    7.8495   -0.7650   21.0360 H   0  0  0  0  0  0  0  0  0  0  0  0
    9.1340   -1.9473   21.2835 H   0  0  0  0  0  0  0  0  0  0  0  0
    8.3540   -4.3536   21.9669 H   0  0  0  0  0  0  0  0  0  0  0  0
    6.6174   -4.5887   22.0373 H   0  0  0  0  0  0  0  0  0  0  0  0
    9.1211   -0.5326   23.2805 H   0  0  0  0  0  0  0  0  0  0  0  0
    7.3489   -0.7206   23.4456 H   0  0  0  0  0  0  0  0  0  0  0  0
    7.9361   -4.4619   24.3003 H   0  0  0  0  0  0  0  0  0  0  0  0
    9.9967   -3.6146   23.1530 H   0  0  0  0  0  0  0  0  0  0  0  0
   10.0623   -3.4742   24.9155 H   0  0  0  0  0  0  0  0  0  0  0  0
    6.6178   -1.1043   19.3041 H   0  0  0  0  0  0  0  0  0  0  0  0
    5.6771   -0.4803   20.7033 H   0  0  0  0  0  0  0  0  0  0  0  0
    8.3132   -2.0931   24.9916 H   0  0  0  0  0  0  0  0  0  0  0  0
  1  3  2  0  0  0  0
  1  4  1  0  0  0  0
  2  5  1  0  0  0  0
  2  7  2  0  0  0  0
  3  8  1  0  0  0  0
  4  9  2  0  0  0  0
  5 10  2  0  0  0  0
  6  8  2  0  0  0  0
  6  9  1  0  0  0  0
  7 21  1  0  0  0  0
  8 16  1  0  0  0  0
  9 22  1  0  0  0  0
 10 15  1  0  0  0  0
 10 21  1  0  0  0  0
 11 17  1  0  0  0  0
 11 18  1  0  0  0  0
 11 20  2  0  0  0  0
 12 14  1  0  0  0  0
 12 18  1  0  0  0  0
 13 15  1  0  0  0  0
 13 18  1  0  0  0  0
 14 19  1  0  0  0  0
 15 19  1  0  0  0  0
 16 19  1  0  0  0  0
 17 23  1  0  0  0  0
  1 24  1  0  0  0  0
  2 25  1  0  0  0  0
  3 26  1  0  0  0  0
  4 27  1  0  0  0  0
  5 28  1  0  0  0  0
  6 29  1  0  0  0  0
  7 30  1  0  0  0  0
 12 31  1  0  0  0  0
 12 32  1  0  0  0  0
 13 33  1  0  0  0  0
 13 34  1  0  0  0  0
 14 35  1  0  0  0  0
 14 36  1  0  0  0  0
 15 37  1  0  0  0  0
 16 38  1  0  0  0  0
 16 39  1  0  0  0  0
 17 40  1  0  0  0  0
 17 41  1  0  0  0  0
 19 42  1  0  0  0  0
M  CHG  1  19   1
M  END
> <creator>
Daniel Zaidman, London Lab, Weizmann Institute of Science

> <fragments>
x0770

> <real_space>
FALSE

> <SCR>
FALSE

> <BB>
FALSE

> <link>
https://covid.postera.ai/covid/submissions/a5fc619e-a7a0-43cf-a105-697cf3dc31cf

> <covalent_frag>
TRUE

> <covalent_warhead>
TRUE

> <acrylamide>
FALSE

> <acrylamide_adduct>
FALSE

> <chloroacetamide>
TRUE

> <chloroacetamide_adduct>
FALSE

> <vinylsulfonamide>
FALSE

> <vinylsulfonamide_adduct>
FALSE

> <in_molport_or_mcule>
FALSE

> <in_emolecules>
FALSE

> <Hybrid2>
-5.483294

> <Mpro-x0770_dock>
-5.483294

> <site>
active-covalent

> <covalent_distance_min>
3.0428262

> <covalent_distance_mean>
3.3383381

> <covalent_distance_stderr>
0.017722735

$$$$
BEN-VAN-d2b-4
  -OEChem-04062011563D

 45 47  0     1  0  0  0  0  0999 V2000
    7.5190   -1.3883   21.6718 C   0  0  0  0  0  0  0  0  0  0  0  0
    7.6996    0.5210   20.3383 C   0  0  0  0  0  0  0  0  0  0  0  0
   13.3145   -0.2973   21.9738 C   0  0  0  0  0  0  0  0  0  0  0  0
   11.4126    0.5836   22.9782 C   0  0  0  0  0  0  0  0  0  0  0  0
    6.9051   -0.5053   20.8072 C   0  0  0  0  0  0  0  0  0  0  0  0
   12.8327    0.4717   23.0101 C   0  0  0  0  0  0  0  0  0  0  0  0
   10.8632   -0.1040   21.9183 C   0  0  0  0  0  0  0  0  0  0  0  0
    9.4779   -0.2438   21.5298 C   0  0  0  0  0  0  0  0  0  0  0  0
   14.3326    5.8744   21.5505 C   0  0  0  0  0  0  0  0  0  0  0  0
   13.7317    4.8505   22.1642 C   0  0  0  0  0  0  0  0  0  0  0  0
   12.4677    5.0628   22.9200 C   0  0  0  0  0  0  0  0  0  0  0  0
   10.4202    3.8334   23.5334 C   0  0  0  0  0  0  0  0  0  0  0  0
    8.2026    0.9764   24.2835 C   0  0  0  0  0  0  0  0  0  0  0  0
    9.5704    0.5174   24.7690 C   0  0  0  0  0  0  0  0  0  0  0  0
    8.4088    2.4508   23.9869 C   0  0  0  0  0  0  0  0  0  0  0  0
   10.5963    1.3655   23.9897 C   0  0  2  0  0  0  0  0  0  0  0  0
    9.7820    2.4959   23.3214 C   0  0  2  0  0  0  0  0  0  0  0  0
    4.9013    0.2651   19.5356 C   0  0  0  0  0  0  0  0  0  0  0  0
    8.8084   -1.2872   22.0559 N   0  0  0  0  0  0  0  0  0  0  0  0
    8.9946    0.6826   20.6803 N   0  0  0  0  0  0  0  0  0  0  0  0
    5.5650   -0.6406   20.4322 N   0  0  0  0  0  0  0  0  0  0  0  0
   11.6627    3.9263   22.9086 N   0  0  0  0  0  0  0  0  0  0  0  0
   12.2015    6.1251   23.4725 O   0  0  0  0  0  0  0  0  0  0  0  0
    9.8650    4.7229   24.1728 O   0  0  0  0  0  0  0  0  0  0  0  0
   12.0573   -0.8804   20.9679 S   0  0  0  0  0  0  0  0  0  0  0  0
   13.8192    1.2077   24.2002 Cl  0  0  0  0  0  0  0  0  0  0  0  0
    6.9822   -2.2306   22.0978 H   0  0  0  0  0  0  0  0  0  0  0  0
    7.3124    1.2706   19.6551 H   0  0  0  0  0  0  0  0  0  0  0  0
   14.3427   -0.5499   21.7542 H   0  0  0  0  0  0  0  0  0  0  0  0
   15.2539    5.7607   20.9903 H   0  0  0  0  0  0  0  0  0  0  0  0
   13.8988    6.8677   21.6020 H   0  0  0  0  0  0  0  0  0  0  0  0
   14.1621    3.8564   22.1163 H   0  0  0  0  0  0  0  0  0  0  0  0
    7.8665    0.4169   23.4036 H   0  0  0  0  0  0  0  0  0  0  0  0
    7.4548    0.8450   25.0765 H   0  0  0  0  0  0  0  0  0  0  0  0
    9.6825    0.6411   25.8589 H   0  0  0  0  0  0  0  0  0  0  0  0
    9.7008   -0.5593   24.5577 H   0  0  0  0  0  0  0  0  0  0  0  0
    7.6485    2.7870   23.2775 H   0  0  0  0  0  0  0  0  0  0  0  0
    8.3323    3.0599   24.8875 H   0  0  0  0  0  0  0  0  0  0  0  0
   11.3210    1.7966   24.7069 H   0  0  0  0  0  0  0  0  0  0  0  0
    9.6752    2.3585   22.2335 H   0  0  0  0  0  0  0  0  0  0  0  0
    5.6065    1.0452   19.2129 H   0  0  0  0  0  0  0  0  0  0  0  0
    4.5398   -0.2885   18.6565 H   0  0  0  0  0  0  0  0  0  0  0  0
    4.0489    0.7320   20.0508 H   0  0  0  0  0  0  0  0  0  0  0  0
    5.0485   -1.4158   20.8177 H   0  0  0  0  0  0  0  0  0  0  0  0
   12.0049    3.1081   22.4101 H   0  0  0  0  0  0  0  0  0  0  0  0
  1  5  1  0  0  0  0
  1 19  2  0  0  0  0
  2  5  2  0  0  0  0
  2 20  1  0  0  0  0
  3  6  2  0  0  0  0
  3 25  1  0  0  0  0
  4  6  1  0  0  0  0
  4  7  2  0  0  0  0
  4 16  1  0  0  0  0
  5 21  1  0  0  0  0
  6 26  1  0  0  0  0
  7  8  1  0  0  0  0
  7 25  1  0  0  0  0
  8 19  1  0  0  0  0
  8 20  2  0  0  0  0
  9 10  2  0  0  0  0
 10 11  1  0  0  0  0
 11 22  1  0  0  0  0
 11 23  2  0  0  0  0
 12 17  1  0  0  0  0
 12 22  1  0  0  0  0
 12 24  2  0  0  0  0
 13 14  1  0  0  0  0
 13 15  1  0  0  0  0
 14 16  1  0  0  0  0
 15 17  1  0  0  0  0
 16 17  1  0  0  0  0
 18 21  1  0  0  0  0
  1 27  1  0  0  0  0
  2 28  1  0  0  0  0
  3 29  1  0  0  0  0
  9 30  1  0  0  0  0
  9 31  1  0  0  0  0
 10 32  1  0  0  0  0
 13 33  1  0  0  0  0
 13 34  1  0  0  0  0
 14 35  1  0  0  0  0
 14 36  1  0  0  0  0
 15 37  1  0  0  0  0
 15 38  1  0  0  0  0
 16 39  1  0  0  0  0
 17 40  1  0  0  0  0
 18 41  1  0  0  0  0
 18 42  1  0  0  0  0
 18 43  1  0  0  0  0
 21 44  1  0  0  0  0
 22 45  1  0  0  0  0
M  END
> <creator>
Benjamin P. Brown, Vanderbilt University, Laboratory of Jens Meiler

> <fragments>
x0874

> <real_space>
FALSE

> <SCR>
FALSE

> <BB>
FALSE

> <link>
https://covid.postera.ai/covid/submissions/d2b455e2-4c45-4364-9fc0-1efc54e3e367

> <covalent_frag>
FALSE

> <covalent_warhead>
TRUE

> <acrylamide>
TRUE

> <acrylamide_adduct>
FALSE

> <chloroacetamide>
FALSE

> <chloroacetamide_adduct>
FALSE

> <vinylsulfonamide>
FALSE

> <vinylsulfonamide_adduct>
FALSE

> <in_molport_or_mcule>
FALSE

> <in_emolecules>
FALSE

> <Hybrid2>
-5.476882

> <Mpro-x0874_dock>
-5.476882

> <Mpro-x0305_dock>
-1.549122

> <site>
active-noncovalent

> <covalent_distance_min>
10.834459

> <covalent_distance_mean>
11.83479

> <covalent_distance_stderr>
0.05052753

$$$$
TAM-UNI-d1c-22
  -OEChem-04062011563D

 39 40  0     1  0  0  0  0  0999 V2000
    7.6597   -1.3683   21.3071 C   0  0  0  0  0  0  0  0  0  0  0  0
    6.3907   -3.1402   22.4264 C   0  0  0  0  0  0  0  0  0  0  0  0
    8.8497   -0.6616   21.1315 C   0  0  0  0  0  0  0  0  0  0  0  0
    6.3297   -4.1803   23.3542 C   0  0  0  0  0  0  0  0  0  0  0  0
    9.9133   -2.0336   22.8089 C   0  0  0  0  0  0  0  0  0  0  0  0
    8.6444   -3.8056   23.9282 C   0  0  0  0  0  0  0  0  0  0  0  0
    7.5802   -2.4181   22.2366 C   0  0  0  0  0  0  0  0  0  0  0  0
    8.7239   -2.7557   22.9987 C   0  0  0  0  0  0  0  0  0  0  0  0
    9.9743   -0.9936   21.8810 C   0  0  0  0  0  0  0  0  0  0  0  0
    7.4544   -4.5123   24.1037 C   0  0  0  0  0  0  0  0  0  0  0  0
   11.2232    0.9214   23.8833 C   0  0  0  0  0  0  0  0  0  0  0  0
   12.5000   -1.0843   21.9518 C   0  0  0  0  0  0  0  0  0  0  0  0
    7.5523   -3.7702   27.0295 C   0  0  0  0  0  0  0  0  0  0  0  0
   11.3097    2.2873   24.5151 C   0  0  0  0  0  0  0  0  0  0  0  0
   11.2458   -0.2367   21.6924 C   0  0  2  0  0  0  0  0  0  0  0  0
    7.3917   -5.5790   25.0508 N   0  0  0  0  0  0  0  0  0  0  0  0
   11.2912    0.9665   22.5058 N   0  0  0  0  0  0  0  0  0  0  0  0
   11.1202   -0.1007   24.5593 O   0  0  0  0  0  0  0  0  0  0  0  0
    7.6306   -6.3262   27.5075 O   0  0  0  0  0  0  0  0  0  0  0  0
    9.6153   -5.2485   26.3918 O   0  0  0  0  0  0  0  0  0  0  0  0
    8.1814   -5.3685   26.5667 S   0  0  0  0  0  0  0  0  0  0  0  0
   12.0677    2.1048   26.1048 Cl  0  0  0  0  0  0  0  0  0  0  0  0
    6.7930   -1.0918   20.7102 H   0  0  0  0  0  0  0  0  0  0  0  0
    5.4992   -2.8975   21.8517 H   0  0  0  0  0  0  0  0  0  0  0  0
    8.8889    0.1464   20.4056 H   0  0  0  0  0  0  0  0  0  0  0  0
    5.3982   -4.7257   23.4832 H   0  0  0  0  0  0  0  0  0  0  0  0
   10.8003   -2.2809   23.3899 H   0  0  0  0  0  0  0  0  0  0  0  0
    9.5177   -4.0756   24.5201 H   0  0  0  0  0  0  0  0  0  0  0  0
   12.4925   -1.4844   22.9716 H   0  0  0  0  0  0  0  0  0  0  0  0
   12.5595   -1.9291   21.2563 H   0  0  0  0  0  0  0  0  0  0  0  0
   13.4173   -0.4984   21.8253 H   0  0  0  0  0  0  0  0  0  0  0  0
    7.9785   -3.4992   27.9967 H   0  0  0  0  0  0  0  0  0  0  0  0
    7.8480   -3.0494   26.2657 H   0  0  0  0  0  0  0  0  0  0  0  0
    6.4651   -3.8340   27.0950 H   0  0  0  0  0  0  0  0  0  0  0  0
   11.9036    2.9873   23.9223 H   0  0  0  0  0  0  0  0  0  0  0  0
   10.3024    2.6928   24.6431 H   0  0  0  0  0  0  0  0  0  0  0  0
   11.3203    0.1309   20.6537 H   0  0  0  0  0  0  0  0  0  0  0  0
    6.4699   -6.0427   25.1070 H   0  0  0  0  0  0  0  0  0  0  0  0
   11.3752    1.8645   22.0483 H   0  0  0  0  0  0  0  0  0  0  0  0
  1  3  2  0  0  0  0
  1  7  1  0  0  0  0
  2  4  2  0  0  0  0
  2  7  1  0  0  0  0
  3  9  1  0  0  0  0
  4 10  1  0  0  0  0
  5  8  1  0  0  0  0
  5  9  2  0  0  0  0
  6  8  1  0  0  0  0
  6 10  2  0  0  0  0
  7  8  2  0  0  0  0
  9 15  1  0  0  0  0
 10 16  1  0  0  0  0
 11 14  1  0  0  0  0
 11 17  1  0  0  0  0
 11 18  2  0  0  0  0
 12 15  1  0  0  0  0
 13 21  1  0  0  0  0
 14 22  1  0  0  0  0
 15 17  1  0  0  0  0
 16 21  1  0  0  0  0
 19 21  2  0  0  0  0
 20 21  2  0  0  0  0
  1 23  1  0  0  0  0
  2 24  1  0  0  0  0
  3 25  1  0  0  0  0
  4 26  1  0  0  0  0
  5 27  1  0  0  0  0
  6 28  1  0  0  0  0
 12 29  1  0  0  0  0
 12 30  1  0  0  0  0
 12 31  1  0  0  0  0
 13 32  1  0  0  0  0
 13 33  1  0  0  0  0
 13 34  1  0  0  0  0
 14 35  1  0  0  0  0
 14 36  1  0  0  0  0
 15 37  1  0  0  0  0
 16 38  1  0  0  0  0
 17 39  1  0  0  0  0
M  END
> <creator>
Tamas Szommer, University of Oxford, TDI

> <fragments>
x1392

> <real_space>
FALSE

> <SCR>
FALSE

> <BB>
FALSE

> <link>
https://covid.postera.ai/covid/submissions/d1c3dd9f-771c-474e-9133-8c7e4ace8b98

> <covalent_frag>
TRUE

> <covalent_warhead>
TRUE

> <acrylamide>
FALSE

> <acrylamide_adduct>
FALSE

> <chloroacetamide>
TRUE

> <chloroacetamide_adduct>
FALSE

> <vinylsulfonamide>
FALSE

> <vinylsulfonamide_adduct>
FALSE

> <in_molport_or_mcule>
FALSE

> <in_emolecules>
FALSE

> <Hybrid2>
-5.463551

> <Mpro-x1392_dock>
-5.463551

> <Mpro-x0692_dock>
-5.186624

> <Mpro-x1386_dock>
-0.781351

> <Mpro-x1382_dock>
-0.760711

> <site>
active-covalent

> <covalent_distance_min>
7.8718734

> <covalent_distance_mean>
8.85082

> <covalent_distance_stderr>
0.0507493

$$$$
BEN-VAN-d2b-2
  -OEChem-04062011563D

 52 54  0     1  0  0  0  0  0999 V2000
   11.5613    4.7410   23.5198 C   0  0  0  0  0  0  0  0  0  0  0  0
    9.5208    5.4643   22.4037 C   0  0  0  0  0  0  0  0  0  0  0  0
    9.8449   -0.9094   25.8260 C   0  0  0  0  0  0  0  0  0  0  0  0
    8.7226    1.2704   25.6295 C   0  0  0  0  0  0  0  0  0  0  0  0
   10.2241    4.4840   23.0850 C   0  0  0  0  0  0  0  0  0  0  0  0
   10.4882   -0.0744   24.9392 C   0  0  0  0  0  0  0  0  0  0  0  0
    9.8383    1.1884   24.8254 C   0  0  0  0  0  0  0  0  0  0  0  0
    9.5869    3.2708   23.3207 C   0  0  0  0  0  0  0  0  0  0  0  0
    8.2844    3.0777   22.8742 C   0  0  0  0  0  0  0  0  0  0  0  0
    7.6679    4.1210   22.2025 C   0  0  0  0  0  0  0  0  0  0  0  0
    6.2773   -3.1362   22.4047 C   0  0  0  0  0  0  0  0  0  0  0  0
    7.5509   -2.8147   22.6514 C   0  0  0  0  0  0  0  0  0  0  0  0
    8.1400   -1.5763   22.0742 C   0  0  0  0  0  0  0  0  0  0  0  0
   10.2790   -0.3498   22.0543 C   0  0  0  0  0  0  0  0  0  0  0  0
   13.6673    0.6931   23.2225 C   0  0  0  0  0  0  0  0  0  0  0  0
   12.9563    0.4166   24.5405 C   0  0  0  0  0  0  0  0  0  0  0  0
   12.5404    0.7245   22.2057 C   0  0  0  0  0  0  0  0  0  0  0  0
   11.7402   -0.4687   24.1814 C   0  0  2  0  0  0  0  0  0  0  0  0
   11.6564   -0.4417   22.6349 C   0  0  1  0  0  0  0  0  0  0  0  0
    4.2672    2.7471   21.3836 C   0  0  0  0  0  0  0  0  0  0  0  0
    5.6382    2.6891   21.9664 C   0  0  0  0  0  0  0  0  0  0  0  0
   12.6470    4.9495   23.8727 N   0  0  0  0  0  0  0  0  0  0  0  0
    8.2546    5.3135   21.9547 N   0  0  0  0  0  0  0  0  0  0  0  0
   10.2556    2.1984   24.0258 N   0  0  0  0  0  0  0  0  0  0  0  0
    6.3406    3.9124   21.7527 N   0  0  0  0  0  0  0  0  0  0  0  0
    9.4730   -1.4176   22.4453 N   0  0  0  0  0  0  0  0  0  0  0  0
    7.4974   -0.8112   21.3626 O   0  0  0  0  0  0  0  0  0  0  0  0
    9.9378    0.5887   21.3395 O   0  0  0  0  0  0  0  0  0  0  0  0
    7.6477    1.9177   23.0878 F   0  0  0  0  0  0  0  0  0  0  0  0
    8.4630   -0.1709   26.5169 S   0  0  0  0  0  0  0  0  0  0  0  0
    9.9604    6.4338   22.1873 H   0  0  0  0  0  0  0  0  0  0  0  0
   10.1163   -1.9182   26.1046 H   0  0  0  0  0  0  0  0  0  0  0  0
    8.0437    2.1044   25.7432 H   0  0  0  0  0  0  0  0  0  0  0  0
    5.8116   -4.0291   22.8064 H   0  0  0  0  0  0  0  0  0  0  0  0
    5.6668   -2.4924   21.7799 H   0  0  0  0  0  0  0  0  0  0  0  0
    8.1650   -3.4556   23.2743 H   0  0  0  0  0  0  0  0  0  0  0  0
   14.2279    1.6234   23.2526 H   0  0  0  0  0  0  0  0  0  0  0  0
   14.3554   -0.1198   22.9931 H   0  0  0  0  0  0  0  0  0  0  0  0
   13.6203   -0.0782   25.2686 H   0  0  0  0  0  0  0  0  0  0  0  0
   12.6311    1.3634   25.0069 H   0  0  0  0  0  0  0  0  0  0  0  0
   12.0219    1.6758   22.2200 H   0  0  0  0  0  0  0  0  0  0  0  0
   12.9383    0.5575   21.2103 H   0  0  0  0  0  0  0  0  0  0  0  0
   11.9743   -1.5128   24.5051 H   0  0  0  0  0  0  0  0  0  0  0  0
   12.0894   -1.4083   22.2295 H   0  0  0  0  0  0  0  0  0  0  0  0
    4.3357    2.9325   20.3015 H   0  0  0  0  0  0  0  0  0  0  0  0
    3.7533    1.7907   21.5598 H   0  0  0  0  0  0  0  0  0  0  0  0
    3.7007    3.5610   21.8598 H   0  0  0  0  0  0  0  0  0  0  0  0
    5.5611    2.5035   23.0479 H   0  0  0  0  0  0  0  0  0  0  0  0
    6.1954    1.8676   21.4922 H   0  0  0  0  0  0  0  0  0  0  0  0
   11.2784    2.2567   23.8492 H   0  0  0  0  0  0  0  0  0  0  0  0
    5.9072    4.6719   21.2684 H   0  0  0  0  0  0  0  0  0  0  0  0
    9.8867   -2.1299   23.0426 H   0  0  0  0  0  0  0  0  0  0  0  0
  1  5  1  0  0  0  0
  1 22  3  0  0  0  0
  2  5  2  0  0  0  0
  2 23  1  0  0  0  0
  3  6  2  0  0  0  0
  3 30  1  0  0  0  0
  4  7  2  0  0  0  0
  4 30  1  0  0  0  0
  5  8  1  0  0  0  0
  6  7  1  0  0  0  0
  6 18  1  0  0  0  0
  7 24  1  0  0  0  0
  8  9  2  0  0  0  0
  8 24  1  0  0  0  0
  9 10  1  0  0  0  0
  9 29  1  0  0  0  0
 10 23  2  0  0  0  0
 10 25  1  0  0  0  0
 11 12  2  0  0  0  0
 12 13  1  0  0  0  0
 13 26  1  0  0  0  0
 13 27  2  0  0  0  0
 14 19  1  0  0  0  0
 14 26  1  0  0  0  0
 14 28  2  0  0  0  0
 15 16  1  0  0  0  0
 15 17  1  0  0  0  0
 16 18  1  0  0  0  0
 17 19  1  0  0  0  0
 18 19  1  0  0  0  0
 20 21  1  0  0  0  0
 21 25  1  0  0  0  0
  2 31  1  0  0  0  0
  3 32  1  0  0  0  0
  4 33  1  0  0  0  0
 11 34  1  0  0  0  0
 11 35  1  0  0  0  0
 12 36  1  0  0  0  0
 15 37  1  0  0  0  0
 15 38  1  0  0  0  0
 16 39  1  0  0  0  0
 16 40  1  0  0  0  0
 17 41  1  0  0  0  0
 17 42  1  0  0  0  0
 18 43  1  0  0  0  0
 19 44  1  0  0  0  0
 20 45  1  0  0  0  0
 20 46  1  0  0  0  0
 20 47  1  0  0  0  0
 21 48  1  0  0  0  0
 21 49  1  0  0  0  0
 24 50  1  0  0  0  0
 25 51  1  0  0  0  0
 26 52  1  0  0  0  0
M  END
> <creator>
Benjamin P. Brown, Vanderbilt University, Laboratory of Jens Meiler

> <fragments>
x0874

> <real_space>
FALSE

> <SCR>
FALSE

> <BB>
FALSE

> <link>
https://covid.postera.ai/covid/submissions/d2b455e2-4c45-4364-9fc0-1efc54e3e367

> <covalent_frag>
FALSE

> <covalent_warhead>
TRUE

> <acrylamide>
TRUE

> <acrylamide_adduct>
FALSE

> <chloroacetamide>
FALSE

> <chloroacetamide_adduct>
FALSE

> <vinylsulfonamide>
FALSE

> <vinylsulfonamide_adduct>
FALSE

> <in_molport_or_mcule>
FALSE

> <in_emolecules>
FALSE

> <Hybrid2>
-5.447653

> <Mpro-x0874_dock>
-5.447653

> <Mpro-x0305_dock>
-2.145885

> <site>
active-noncovalent

> <covalent_distance_min>
3.2091615

> <covalent_distance_mean>
3.836453

> <covalent_distance_stderr>
0.07663055

$$$$
TAM-UNI-d1c-18
  -OEChem-04062011563D

 43 44  0     0  0  0  0  0  0999 V2000
    5.5495   -5.7406   25.6571 C   0  0  0  0  0  0  0  0  0  0  0  0
    5.2116   -5.1332   23.3127 C   0  0  0  0  0  0  0  0  0  0  0  0
    5.4612   -4.2898   22.2301 C   0  0  0  0  0  0  0  0  0  0  0  0
    6.6511   -3.7774   24.7008 C   0  0  0  0  0  0  0  0  0  0  0  0
    5.8065   -4.8770   24.5481 C   0  0  0  0  0  0  0  0  0  0  0  0
    6.9008   -2.9341   23.6182 C   0  0  0  0  0  0  0  0  0  0  0  0
    6.3058   -3.1902   22.3828 C   0  0  0  0  0  0  0  0  0  0  0  0
   12.4767   -0.0544   22.6476 C   0  0  0  0  0  0  0  0  0  0  0  0
    6.0270   -2.4685   19.9900 C   0  0  0  0  0  0  0  0  0  0  0  0
   10.4317    0.0064   24.0370 C   0  0  0  0  0  0  0  0  0  0  0  0
   10.5364   -1.6337   22.1950 C   0  0  0  0  0  0  0  0  0  0  0  0
    9.9373   -1.0696   24.9925 C   0  0  0  0  0  0  0  0  0  0  0  0
   10.0403   -2.7325   23.1255 C   0  0  0  0  0  0  0  0  0  0  0  0
    6.5259   -1.3624   19.0943 C   0  0  0  0  0  0  0  0  0  0  0  0
    7.8122   -1.7580   23.8112 C   0  0  0  0  0  0  0  0  0  0  0  0
   13.4866   -1.0188   22.0785 C   0  0  0  0  0  0  0  0  0  0  0  0
    5.3408   -6.4419   26.5579 N   0  0  0  0  0  0  0  0  0  0  0  0
   11.2165   -0.5725   22.9460 N   0  0  0  0  0  0  0  0  0  0  0  0
    6.5416   -2.3560   21.2872 N   0  0  0  0  0  0  0  0  0  0  0  0
    9.1997   -2.1515   24.2384 N   0  3  0  0  0  0  0  0  0  0  0  0
   12.8006    1.1230   22.8233 O   0  0  0  0  0  0  0  0  0  0  0  0
    5.2610   -3.3259   19.5622 O   0  0  0  0  0  0  0  0  0  0  0  0
   13.7346   -2.2653   23.2961 Cl  0  0  0  0  0  0  0  0  0  0  0  0
    4.5495   -5.9854   23.1787 H   0  0  0  0  0  0  0  0  0  0  0  0
    4.9900   -4.4985   21.2729 H   0  0  0  0  0  0  0  0  0  0  0  0
    7.1187   -3.5739   25.6622 H   0  0  0  0  0  0  0  0  0  0  0  0
    9.5768    0.5676   23.6445 H   0  0  0  0  0  0  0  0  0  0  0  0
   11.0761    0.7244   24.5606 H   0  0  0  0  0  0  0  0  0  0  0  0
   11.2596   -2.0363   21.4742 H   0  0  0  0  0  0  0  0  0  0  0  0
    9.6938   -1.2476   21.6173 H   0  0  0  0  0  0  0  0  0  0  0  0
   10.7853   -1.5497   25.5056 H   0  0  0  0  0  0  0  0  0  0  0  0
    9.2500   -0.6603   25.7514 H   0  0  0  0  0  0  0  0  0  0  0  0
    9.4242   -3.4746   22.5911 H   0  0  0  0  0  0  0  0  0  0  0  0
   10.8900   -3.2518   23.5960 H   0  0  0  0  0  0  0  0  0  0  0  0
    7.4537   -1.6723   18.6053 H   0  0  0  0  0  0  0  0  0  0  0  0
    6.7208   -0.4648   19.6881 H   0  0  0  0  0  0  0  0  0  0  0  0
    5.7729   -1.1277   18.3362 H   0  0  0  0  0  0  0  0  0  0  0  0
    7.9193   -1.1839   22.8846 H   0  0  0  0  0  0  0  0  0  0  0  0
    7.4263   -1.0807   24.5806 H   0  0  0  0  0  0  0  0  0  0  0  0
   14.4141   -0.4885   21.8945 H   0  0  0  0  0  0  0  0  0  0  0  0
   13.0824   -1.4574   21.1734 H   0  0  0  0  0  0  0  0  0  0  0  0
    7.1687   -1.5607   21.4491 H   0  0  0  0  0  0  0  0  0  0  0  0
    9.0625   -2.9411   24.9333 H   0  0  0  0  0  0  0  0  0  0  0  0
  1  5  1  0  0  0  0
  1 17  3  0  0  0  0
  2  3  2  0  0  0  0
  2  5  1  0  0  0  0
  3  7  1  0  0  0  0
  4  5  2  0  0  0  0
  4  6  1  0  0  0  0
  6  7  2  0  0  0  0
  6 15  1  0  0  0  0
  7 19  1  0  0  0  0
  8 16  1  0  0  0  0
  8 18  1  0  0  0  0
  8 21  2  0  0  0  0
  9 14  1  0  0  0  0
  9 19  1  0  0  0  0
  9 22  2  0  0  0  0
 10 12  1  0  0  0  0
 10 18  1  0  0  0  0
 11 13  1  0  0  0  0
 11 18  1  0  0  0  0
 12 20  1  0  0  0  0
 13 20  1  0  0  0  0
 15 20  1  0  0  0  0
 16 23  1  0  0  0  0
  2 24  1  0  0  0  0
  3 25  1  0  0  0  0
  4 26  1  0  0  0  0
 10 27  1  0  0  0  0
 10 28  1  0  0  0  0
 11 29  1  0  0  0  0
 11 30  1  0  0  0  0
 12 31  1  0  0  0  0
 12 32  1  0  0  0  0
 13 33  1  0  0  0  0
 13 34  1  0  0  0  0
 14 35  1  0  0  0  0
 14 36  1  0  0  0  0
 14 37  1  0  0  0  0
 15 38  1  0  0  0  0
 15 39  1  0  0  0  0
 16 40  1  0  0  0  0
 16 41  1  0  0  0  0
 19 42  1  0  0  0  0
 20 43  1  0  0  0  0
M  CHG  1  20   1
M  END
> <creator>
Tamas Szommer, University of Oxford, TDI

> <fragments>
x1392

> <real_space>
FALSE

> <SCR>
FALSE

> <BB>
FALSE

> <link>
https://covid.postera.ai/covid/submissions/d1c3dd9f-771c-474e-9133-8c7e4ace8b98

> <covalent_frag>
TRUE

> <covalent_warhead>
TRUE

> <acrylamide>
FALSE

> <acrylamide_adduct>
FALSE

> <chloroacetamide>
TRUE

> <chloroacetamide_adduct>
FALSE

> <vinylsulfonamide>
FALSE

> <vinylsulfonamide_adduct>
FALSE

> <in_molport_or_mcule>
FALSE

> <in_emolecules>
FALSE

> <Hybrid2>
-5.442736

> <Mpro-x1392_dock>
-5.442736

> <Mpro-x1386_dock>
-5.232897

> <Mpro-x0692_dock>
-3.531731

> <Mpro-x1382_dock>
-2.134584

> <site>
active-covalent

> <covalent_distance_min>
7.0385523

> <covalent_distance_mean>
8.938612

> <covalent_distance_stderr>
0.13445294

$$$$
PAU-UNI-8cd-1
  -OEChem-04062011563D

 35 36  0     0  0  0  0  0  0999 V2000
   10.8172   -2.1090   22.9558 C   0  0  0  0  0  0  0  0  0  0  0  0
    9.6640   -1.1945   24.8717 C   0  0  0  0  0  0  0  0  0  0  0  0
   11.7943   -0.2787   24.1936 C   0  0  0  0  0  0  0  0  0  0  0  0
    9.7227   -2.1095   23.8205 C   0  0  0  0  0  0  0  0  0  0  0  0
   11.8531   -1.1936   23.1424 C   0  0  0  0  0  0  0  0  0  0  0  0
   10.6998   -0.2791   25.0583 C   0  0  0  0  0  0  0  0  0  0  0  0
    5.8308   -2.1873   19.4373 C   0  0  0  0  0  0  0  0  0  0  0  0
    6.4751   -3.6294   21.3402 C   0  0  0  0  0  0  0  0  0  0  0  0
    7.5968   -1.4427   21.1079 C   0  0  0  0  0  0  0  0  0  0  0  0
    6.2267   -3.3664   22.8182 C   0  0  0  0  0  0  0  0  0  0  0  0
    7.3660   -1.1508   22.5846 C   0  0  0  0  0  0  0  0  0  0  0  0
    8.6081   -3.0932   23.6181 C   0  0  0  0  0  0  0  0  0  0  0  0
    5.4361   -0.7681   19.1147 C   0  0  0  0  0  0  0  0  0  0  0  0
    6.5915   -2.3780   20.5907 N   0  0  0  0  0  0  0  0  0  0  0  0
    7.2776   -2.4348   23.3759 N   0  3  0  0  0  0  0  0  0  0  0  0
    5.4707   -3.0979   18.6869 O   0  0  0  0  0  0  0  0  0  0  0  0
   13.2040   -1.1942   22.0762 Cl  0  0  0  0  0  0  0  0  0  0  0  0
   10.6263    0.8504   26.3550 Cl  0  0  0  0  0  0  0  0  0  0  0  0
    6.1546   -0.3878   17.5536 Cl  0  0  0  0  0  0  0  0  0  0  0  0
   10.8584   -2.8243   22.1373 H   0  0  0  0  0  0  0  0  0  0  0  0
    8.8081   -1.1996   25.5429 H   0  0  0  0  0  0  0  0  0  0  0  0
   12.6028    0.4347   24.3389 H   0  0  0  0  0  0  0  0  0  0  0  0
    7.3792   -4.2368   21.2239 H   0  0  0  0  0  0  0  0  0  0  0  0
    5.6452   -4.1990   20.9023 H   0  0  0  0  0  0  0  0  0  0  0  0
    7.5185   -0.5217   20.5160 H   0  0  0  0  0  0  0  0  0  0  0  0
    8.6123   -1.8213   20.9731 H   0  0  0  0  0  0  0  0  0  0  0  0
    5.2492   -2.8809   22.9652 H   0  0  0  0  0  0  0  0  0  0  0  0
    6.2530   -4.2961   23.4106 H   0  0  0  0  0  0  0  0  0  0  0  0
    8.1815   -0.5461   23.0149 H   0  0  0  0  0  0  0  0  0  0  0  0
    6.4149   -0.6139   22.7272 H   0  0  0  0  0  0  0  0  0  0  0  0
    8.8016   -3.7386   22.7545 H   0  0  0  0  0  0  0  0  0  0  0  0
    8.4852   -3.7376   24.4953 H   0  0  0  0  0  0  0  0  0  0  0  0
    5.8352   -0.1101   19.8783 H   0  0  0  0  0  0  0  0  0  0  0  0
    4.3556   -0.7096   19.0516 H   0  0  0  0  0  0  0  0  0  0  0  0
    6.9284   -2.1532   24.3371 H   0  0  0  0  0  0  0  0  0  0  0  0
  1  4  1  0  0  0  0
  1  5  2  0  0  0  0
  2  4  2  0  0  0  0
  2  6  1  0  0  0  0
  3  5  1  0  0  0  0
  3  6  2  0  0  0  0
  4 12  1  0  0  0  0
  5 17  1  0  0  0  0
  6 18  1  0  0  0  0
  7 13  1  0  0  0  0
  7 14  1  0  0  0  0
  7 16  2  0  0  0  0
  8 10  1  0  0  0  0
  8 14  1  0  0  0  0
  9 11  1  0  0  0  0
  9 14  1  0  0  0  0
 10 15  1  0  0  0  0
 11 15  1  0  0  0  0
 12 15  1  0  0  0  0
 13 19  1  0  0  0  0
  1 20  1  0  0  0  0
  2 21  1  0  0  0  0
  3 22  1  0  0  0  0
  8 23  1  0  0  0  0
  8 24  1  0  0  0  0
  9 25  1  0  0  0  0
  9 26  1  0  0  0  0
 10 27  1  0  0  0  0
 10 28  1  0  0  0  0
 11 29  1  0  0  0  0
 11 30  1  0  0  0  0
 12 31  1  0  0  0  0
 12 32  1  0  0  0  0
 13 33  1  0  0  0  0
 13 34  1  0  0  0  0
 15 35  1  0  0  0  0
M  CHG  1  15   1
M  END
> <creator>
paul brear, University of cambridge

> <fragments>
x0770

> <real_space>
FALSE

> <SCR>
FALSE

> <BB>
FALSE

> <link>
https://covid.postera.ai/covid/submissions/8cdd41c7-5065-4ae1-95b3-994f3f8b4e02

> <covalent_frag>
TRUE

> <covalent_warhead>
TRUE

> <acrylamide>
FALSE

> <acrylamide_adduct>
FALSE

> <chloroacetamide>
TRUE

> <chloroacetamide_adduct>
FALSE

> <vinylsulfonamide>
FALSE

> <vinylsulfonamide_adduct>
FALSE

> <in_molport_or_mcule>
FALSE

> <in_emolecules>
FALSE

> <Hybrid2>
-5.428621

> <Mpro-x0770_dock>
-5.428621

> <site>
active-covalent

> <covalent_distance_min>
5.879878

> <covalent_distance_mean>
6.7613945

> <covalent_distance_stderr>
0.021284224

$$$$
TAM-UNI-d1c-8
  -OEChem-04062011563D

 51 54  0     1  0  0  0  0  0999 V2000
    6.6276   -5.7477   26.0543 C   0  0  0  0  0  0  0  0  0  0  0  0
    7.1647   -4.6341   26.6938 C   0  0  0  0  0  0  0  0  0  0  0  0
    6.1727   -5.6450   24.7400 C   0  0  0  0  0  0  0  0  0  0  0  0
    7.2445   -3.4158   26.0209 C   0  0  0  0  0  0  0  0  0  0  0  0
    8.9792   -2.4134   22.6412 C   0  0  0  0  0  0  0  0  0  0  0  0
   10.2764   -2.0860   22.2476 C   0  0  0  0  0  0  0  0  0  0  0  0
    8.9176   -0.4629   24.0620 C   0  0  0  0  0  0  0  0  0  0  0  0
    8.3014   -1.6043   23.5497 C   0  0  0  0  0  0  0  0  0  0  0  0
   10.9099   -0.9483   22.7662 C   0  0  0  0  0  0  0  0  0  0  0  0
    6.2524   -4.4267   24.0484 C   0  0  0  0  0  0  0  0  0  0  0  0
    6.7867   -3.2988   24.6985 C   0  0  0  0  0  0  0  0  0  0  0  0
   10.2182   -0.1196   23.6671 C   0  0  0  0  0  0  0  0  0  0  0  0
    6.1507   -2.9286   20.5765 C   0  0  0  0  0  0  0  0  0  0  0  0
   12.2996   -0.5895   22.3065 C   0  0  0  0  0  0  0  0  0  0  0  0
    5.7504   -4.3641   22.6260 C   0  0  0  0  0  0  0  0  0  0  0  0
   10.8712    1.1102   24.2496 C   0  0  0  0  0  0  0  0  0  0  0  0
   13.0132    0.3350   23.2888 C   0  0  0  0  0  0  0  0  0  0  0  0
    5.8996   -1.8927   22.8056 C   0  0  0  0  0  0  0  0  0  0  0  0
    6.8860   -1.9647   23.9823 C   0  0  2  0  0  0  0  0  0  0  0  0
   13.2075    2.3154   25.8541 C   0  0  0  0  0  0  0  0  0  0  0  0
    7.0230   -1.7835   20.1253 C   0  0  0  0  0  0  0  0  0  0  0  0
    5.9878   -3.0792   21.9555 N   0  0  0  0  0  0  0  0  0  0  0  0
   12.1378    1.5075   23.5619 N   0  0  2  0  0  0  0  0  0  0  0  0
    5.6263   -3.6588   19.7320 O   0  0  0  0  0  0  0  0  0  0  0  0
   11.9645    3.9758   24.2650 O   0  0  0  0  0  0  0  0  0  0  0  0
   14.2015    3.0431   23.5497 O   0  0  0  0  0  0  0  0  0  0  0  0
   12.9188    2.8906   24.2007 S   0  0  0  0  0  0  0  0  0  0  0  0
    5.9579   -0.4024   19.8907 Cl  0  0  0  0  0  0  0  0  0  0  0  0
    6.5631   -6.6967   26.5785 H   0  0  0  0  0  0  0  0  0  0  0  0
    7.5202   -4.7135   27.7169 H   0  0  0  0  0  0  0  0  0  0  0  0
    5.7562   -6.5234   24.2527 H   0  0  0  0  0  0  0  0  0  0  0  0
    7.6645   -2.5541   26.5341 H   0  0  0  0  0  0  0  0  0  0  0  0
    8.5050   -3.3020   22.2328 H   0  0  0  0  0  0  0  0  0  0  0  0
   10.7920   -2.7237   21.5339 H   0  0  0  0  0  0  0  0  0  0  0  0
    8.3852    0.1663   24.7720 H   0  0  0  0  0  0  0  0  0  0  0  0
   12.8994   -1.4980   22.1770 H   0  0  0  0  0  0  0  0  0  0  0  0
   12.2178   -0.0983   21.3289 H   0  0  0  0  0  0  0  0  0  0  0  0
    6.2198   -5.1702   22.0550 H   0  0  0  0  0  0  0  0  0  0  0  0
    4.6656   -4.5241   22.6204 H   0  0  0  0  0  0  0  0  0  0  0  0
   10.1714    1.9507   24.1707 H   0  0  0  0  0  0  0  0  0  0  0  0
   11.0859    0.9224   25.3087 H   0  0  0  0  0  0  0  0  0  0  0  0
   13.2364   -0.1840   24.2289 H   0  0  0  0  0  0  0  0  0  0  0  0
   13.9584    0.6673   22.8459 H   0  0  0  0  0  0  0  0  0  0  0  0
    4.8683   -1.8557   23.1808 H   0  0  0  0  0  0  0  0  0  0  0  0
    6.0584   -0.9793   22.2213 H   0  0  0  0  0  0  0  0  0  0  0  0
    6.5713   -1.1655   24.7067 H   0  0  0  0  0  0  0  0  0  0  0  0
   13.7147    3.1056   26.4099 H   0  0  0  0  0  0  0  0  0  0  0  0
   12.2443    2.0840   26.3113 H   0  0  0  0  0  0  0  0  0  0  0  0
   13.8317    1.4220   25.8037 H   0  0  0  0  0  0  0  0  0  0  0  0
    7.4970   -2.0520   19.1884 H   0  0  0  0  0  0  0  0  0  0  0  0
    7.7476   -1.5680   20.9016 H   0  0  0  0  0  0  0  0  0  0  0  0
  1  2  1  0  0  0  0
  1  3  2  0  0  0  0
  2  4  2  0  0  0  0
  3 10  1  0  0  0  0
  4 11  1  0  0  0  0
  5  6  2  0  0  0  0
  5  8  1  0  0  0  0
  6  9  1  0  0  0  0
  7  8  2  0  0  0  0
  7 12  1  0  0  0  0
  8 19  1  0  0  0  0
  9 12  2  0  0  0  0
  9 14  1  0  0  0  0
 10 11  2  0  0  0  0
 10 15  1  0  0  0  0
 11 19  1  0  0  0  0
 12 16  1  0  0  0  0
 13 21  1  0  0  0  0
 13 22  1  0  0  0  0
 13 24  2  0  0  0  0
 14 17  1  0  0  0  0
 15 22  1  0  0  0  0
 16 23  1  0  0  0  0
 17 23  1  0  0  0  0
 18 19  1  0  0  0  0
 18 22  1  0  0  0  0
 20 27  1  0  0  0  0
 21 28  1  0  0  0  0
 23 27  1  0  0  0  0
 25 27  2  0  0  0  0
 26 27  2  0  0  0  0
  1 29  1  0  0  0  0
  2 30  1  0  0  0  0
  3 31  1  0  0  0  0
  4 32  1  0  0  0  0
  5 33  1  0  0  0  0
  6 34  1  0  0  0  0
  7 35  1  0  0  0  0
 14 36  1  0  0  0  0
 14 37  1  0  0  0  0
 15 38  1  0  0  0  0
 15 39  1  0  0  0  0
 16 40  1  0  0  0  0
 16 41  1  0  0  0  0
 17 42  1  0  0  0  0
 17 43  1  0  0  0  0
 18 44  1  0  0  0  0
 18 45  1  0  0  0  0
 19 46  1  0  0  0  0
 20 47  1  0  0  0  0
 20 48  1  0  0  0  0
 20 49  1  0  0  0  0
 21 50  1  0  0  0  0
 21 51  1  0  0  0  0
M  END
> <creator>
Tamas Szommer, University of Oxford, TDI

> <fragments>
x1392

> <real_space>
FALSE

> <SCR>
FALSE

> <BB>
FALSE

> <link>
https://covid.postera.ai/covid/submissions/d1c3dd9f-771c-474e-9133-8c7e4ace8b98

> <covalent_frag>
TRUE

> <covalent_warhead>
TRUE

> <acrylamide>
FALSE

> <acrylamide_adduct>
FALSE

> <chloroacetamide>
TRUE

> <chloroacetamide_adduct>
FALSE

> <vinylsulfonamide>
FALSE

> <vinylsulfonamide_adduct>
FALSE

> <in_molport_or_mcule>
FALSE

> <in_emolecules>
FALSE

> <Hybrid2>
-5.427806

> <Mpro-x1392_dock>
-5.427806

> <Mpro-x0692_dock>
-2.547343

> <Mpro-x1382_dock>
-0.439273

> <Mpro-x1386_dock>
0.238244

> <site>
active-covalent

> <covalent_distance_min>
3.0961287

> <covalent_distance_mean>
3.645581

> <covalent_distance_stderr>
0.019819975

$$$$
TAM-UNI-d1c-7
  -OEChem-04062011563D

 56 59  0     1  0  0  0  0  0999 V2000
    7.9965   -5.7894   26.4751 C   0  0  0  0  0  0  0  0  0  0  0  0
    8.8676   -4.7825   26.8806 C   0  0  0  0  0  0  0  0  0  0  0  0
   10.7422   -2.6289   21.6062 C   0  0  0  0  0  0  0  0  0  0  0  0
    7.1675   -5.5914   25.3712 C   0  0  0  0  0  0  0  0  0  0  0  0
    8.9085   -3.5751   26.1849 C   0  0  0  0  0  0  0  0  0  0  0  0
    9.6054   -2.7697   22.4020 C   0  0  0  0  0  0  0  0  0  0  0  0
   11.6536   -1.6056   21.8668 C   0  0  0  0  0  0  0  0  0  0  0  0
   10.2912   -0.8637   23.7189 C   0  0  0  0  0  0  0  0  0  0  0  0
    9.3798   -1.8871   23.4584 C   0  0  0  0  0  0  0  0  0  0  0  0
    7.2023   -4.3836   24.6578 C   0  0  0  0  0  0  0  0  0  0  0  0
    8.0764   -3.3623   25.0739 C   0  0  0  0  0  0  0  0  0  0  0  0
   11.4281   -0.7230   22.9231 C   0  0  0  0  0  0  0  0  0  0  0  0
    6.2239   -2.8112   21.3596 C   0  0  0  0  0  0  0  0  0  0  0  0
   11.2683    2.5684   22.9823 C   0  0  0  0  0  0  0  0  0  0  0  0
    6.2888   -4.2158   23.4676 C   0  0  0  0  0  0  0  0  0  0  0  0
   10.1404    4.7708   22.9293 C   0  0  0  0  0  0  0  0  0  0  0  0
   10.6965    3.8296   25.1393 C   0  0  0  0  0  0  0  0  0  0  0  0
    6.8514   -1.7987   23.5243 C   0  0  0  0  0  0  0  0  0  0  0  0
    8.8103    5.2217   23.5122 C   0  0  0  0  0  0  0  0  0  0  0  0
    9.3475    4.3470   25.6272 C   0  0  0  0  0  0  0  0  0  0  0  0
    8.1388   -2.0424   24.3279 C   0  0  2  0  0  0  0  0  0  0  0  0
   12.4024    0.3716   23.2012 C   0  0  0  0  0  0  0  0  0  0  0  0
    6.4836   -1.4439   20.7772 C   0  0  0  0  0  0  0  0  0  0  0  0
    6.4878   -2.9661   22.7223 N   0  0  0  0  0  0  0  0  0  0  0  0
   10.6873    3.6395   23.6819 N   0  0  0  0  0  0  0  0  0  0  0  0
   11.7689    1.5394   23.7714 N   0  0  0  0  0  0  0  0  0  0  0  0
    5.7939   -3.7077   20.6297 O   0  0  0  0  0  0  0  0  0  0  0  0
   11.3404    2.5354   21.7494 O   0  0  0  0  0  0  0  0  0  0  0  0
    8.9609    5.5151   24.9024 O   0  0  0  0  0  0  0  0  0  0  0  0
    6.1046   -1.5478   19.0619 Cl  0  0  0  0  0  0  0  0  0  0  0  0
    7.9625   -6.7296   27.0177 H   0  0  0  0  0  0  0  0  0  0  0  0
    9.5144   -4.9363   27.7394 H   0  0  0  0  0  0  0  0  0  0  0  0
   10.9178   -3.3163   20.7838 H   0  0  0  0  0  0  0  0  0  0  0  0
    6.4924   -6.3871   25.0653 H   0  0  0  0  0  0  0  0  0  0  0  0
    9.5926   -2.7970   26.5147 H   0  0  0  0  0  0  0  0  0  0  0  0
    8.9010   -3.5704   22.1918 H   0  0  0  0  0  0  0  0  0  0  0  0
   12.5363   -1.5030   21.2411 H   0  0  0  0  0  0  0  0  0  0  0  0
   10.1164   -0.1760   24.5429 H   0  0  0  0  0  0  0  0  0  0  0  0
    6.4275   -5.0700   22.7988 H   0  0  0  0  0  0  0  0  0  0  0  0
    5.2476   -4.2125   23.8114 H   0  0  0  0  0  0  0  0  0  0  0  0
   10.0278    4.5262   21.8690 H   0  0  0  0  0  0  0  0  0  0  0  0
   10.8787    5.5775   23.0111 H   0  0  0  0  0  0  0  0  0  0  0  0
   11.4834    4.5630   25.3495 H   0  0  0  0  0  0  0  0  0  0  0  0
   10.9302    2.9083   25.6747 H   0  0  0  0  0  0  0  0  0  0  0  0
    6.0105   -1.6169   24.2067 H   0  0  0  0  0  0  0  0  0  0  0  0
    6.9493   -0.9064   22.8956 H   0  0  0  0  0  0  0  0  0  0  0  0
    8.4768    6.1375   23.0142 H   0  0  0  0  0  0  0  0  0  0  0  0
    8.0298    4.4642   23.3737 H   0  0  0  0  0  0  0  0  0  0  0  0
    8.5683    3.5811   25.5342 H   0  0  0  0  0  0  0  0  0  0  0  0
    9.4165    4.6207   26.6849 H   0  0  0  0  0  0  0  0  0  0  0  0
    8.1929   -1.2214   25.0931 H   0  0  0  0  0  0  0  0  0  0  0  0
   13.1793    0.0409   23.9047 H   0  0  0  0  0  0  0  0  0  0  0  0
   12.9190    0.6930   22.2864 H   0  0  0  0  0  0  0  0  0  0  0  0
    7.5302   -1.1980   20.9135 H   0  0  0  0  0  0  0  0  0  0  0  0
    5.8302   -0.7273   21.2607 H   0  0  0  0  0  0  0  0  0  0  0  0
   11.6889    1.6068   24.7783 H   0  0  0  0  0  0  0  0  0  0  0  0
  1  2  1  0  0  0  0
  1  4  2  0  0  0  0
  2  5  2  0  0  0  0
  3  6  2  0  0  0  0
  3  7  1  0  0  0  0
  4 10  1  0  0  0  0
  5 11  1  0  0  0  0
  6  9  1  0  0  0  0
  7 12  2  0  0  0  0
  8  9  2  0  0  0  0
  8 12  1  0  0  0  0
  9 21  1  0  0  0  0
 10 11  2  0  0  0  0
 10 15  1  0  0  0  0
 11 21  1  0  0  0  0
 12 22  1  0  0  0  0
 13 23  1  0  0  0  0
 13 24  1  0  0  0  0
 13 27  2  0  0  0  0
 14 25  1  0  0  0  0
 14 26  1  0  0  0  0
 14 28  2  0  0  0  0
 15 24  1  0  0  0  0
 16 19  1  0  0  0  0
 16 25  1  0  0  0  0
 17 20  1  0  0  0  0
 17 25  1  0  0  0  0
 18 21  1  0  0  0  0
 18 24  1  0  0  0  0
 19 29  1  0  0  0  0
 20 29  1  0  0  0  0
 22 26  1  0  0  0  0
 23 30  1  0  0  0  0
  1 31  1  0  0  0  0
  2 32  1  0  0  0  0
  3 33  1  0  0  0  0
  4 34  1  0  0  0  0
  5 35  1  0  0  0  0
  6 36  1  0  0  0  0
  7 37  1  0  0  0  0
  8 38  1  0  0  0  0
 15 39  1  0  0  0  0
 15 40  1  0  0  0  0
 16 41  1  0  0  0  0
 16 42  1  0  0  0  0
 17 43  1  0  0  0  0
 17 44  1  0  0  0  0
 18 45  1  0  0  0  0
 18 46  1  0  0  0  0
 19 47  1  0  0  0  0
 19 48  1  0  0  0  0
 20 49  1  0  0  0  0
 20 50  1  0  0  0  0
 21 51  1  0  0  0  0
 22 52  1  0  0  0  0
 22 53  1  0  0  0  0
 23 54  1  0  0  0  0
 23 55  1  0  0  0  0
 26 56  1  0  0  0  0
M  END
> <creator>
Tamas Szommer, University of Oxford, TDI

> <fragments>
x1392

> <real_space>
FALSE

> <SCR>
FALSE

> <BB>
FALSE

> <link>
https://covid.postera.ai/covid/submissions/d1c3dd9f-771c-474e-9133-8c7e4ace8b98

> <covalent_frag>
TRUE

> <covalent_warhead>
TRUE

> <acrylamide>
FALSE

> <acrylamide_adduct>
FALSE

> <chloroacetamide>
TRUE

> <chloroacetamide_adduct>
FALSE

> <vinylsulfonamide>
FALSE

> <vinylsulfonamide_adduct>
FALSE

> <in_molport_or_mcule>
FALSE

> <in_emolecules>
FALSE

> <Hybrid2>
-5.423794

> <Mpro-x1392_dock>
-5.423794

> <Mpro-x0692_dock>
-4.189497

> <Mpro-x1386_dock>
-0.178044

> <Mpro-x1382_dock>
2.544099

> <site>
active-covalent

> <covalent_distance_min>
2.9793582

> <covalent_distance_mean>
3.2956696

> <covalent_distance_stderr>
0.012724479

$$$$
PAU-WEI-b9b-8
  -OEChem-04062011563D

 71 74  0     1  0  0  0  0  0999 V2000
   13.0769    0.6235   22.6748 C   0  0  0  0  0  0  0  0  0  0  0  0
   12.8933    1.9378   23.1196 C   0  0  0  0  0  0  0  0  0  0  0  0
   12.0059   -0.2660   22.6168 C   0  0  0  0  0  0  0  0  0  0  0  0
    5.6239   -1.5924   19.7691 C   0  0  0  0  0  0  0  0  0  0  0  0
    6.3065    0.6778   20.2355 C   0  0  0  0  0  0  0  0  0  0  0  0
    6.9399   -2.0228   19.9379 C   0  0  0  0  0  0  0  0  0  0  0  0
    7.6226    0.2474   20.4043 C   0  0  0  0  0  0  0  0  0  0  0  0
    9.7228    3.3904   24.2143 C   0  0  0  0  0  0  0  0  0  0  0  0
   11.6064    2.3573   23.5113 C   0  0  0  0  0  0  0  0  0  0  0  0
    5.3072   -0.2421   19.9179 C   0  0  0  0  0  0  0  0  0  0  0  0
    7.9392   -1.1029   20.2555 C   0  0  0  0  0  0  0  0  0  0  0  0
   10.7206    0.1275   23.0002 C   0  0  0  0  0  0  0  0  0  0  0  0
   11.0684    3.5807   24.0000 C   0  0  0  0  0  0  0  0  0  0  0  0
   10.5519    1.4443   23.4427 C   0  0  0  0  0  0  0  0  0  0  0  0
    8.5623   -4.9374   26.5382 C   0  0  0  0  0  0  0  0  0  0  0  0
    9.9825    6.8283   22.7774 C   0  0  0  0  0  0  0  0  0  0  0  0
   10.1709   -3.1618   25.9211 C   0  0  0  0  0  0  0  0  0  0  0  0
    7.7656   -2.6438   25.7814 C   0  0  0  0  0  0  0  0  0  0  0  0
   10.3941   -2.5994   24.5249 C   0  0  0  0  0  0  0  0  0  0  0  0
    7.9531   -2.0715   24.3829 C   0  0  0  0  0  0  0  0  0  0  0  0
    3.9005    0.2189   19.7376 C   0  0  0  0  0  0  0  0  0  0  0  0
    8.8458    7.1119   21.8523 C   0  0  0  0  0  0  0  0  0  0  0  0
    9.3611   -1.5692   20.4394 C   0  0  0  0  0  0  0  0  0  0  0  0
   11.8118    4.8345   24.2387 C   0  0  0  0  0  0  0  0  0  0  0  0
    7.2913   -5.1572   27.3192 C   0  0  0  0  0  0  0  0  0  0  0  0
    9.7451   -1.9803   21.8715 C   0  0  0  0  0  0  0  0  0  0  0  0
   12.1474    5.6187   22.9571 C   0  0  0  0  0  0  0  0  0  0  0  0
    9.5809   -0.8638   22.9244 C   0  0  1  0  0  0  0  0  0  0  0  0
    9.4207    2.0987   23.8756 N   0  0  0  0  0  0  0  0  0  0  0  0
    8.7982   -3.6415   26.0814 N   0  0  0  0  0  0  0  0  0  0  0  0
   10.9659    6.0144   22.2385 N   0  0  0  0  0  0  0  0  0  0  0  0
    9.3594   -1.5305   24.2529 N   0  3  0  0  0  0  0  0  0  0  0  0
    9.3199   -5.8904   26.3390 O   0  0  0  0  0  0  0  0  0  0  0  0
    9.9793    7.3104   23.9041 O   0  0  0  0  0  0  0  0  0  0  0  0
    6.0404   -5.5509   26.1453 Cl  0  0  0  0  0  0  0  0  0  0  0  0
   14.0675    0.2943   22.3720 H   0  0  0  0  0  0  0  0  0  0  0  0
   13.7389    2.6185   23.1586 H   0  0  0  0  0  0  0  0  0  0  0  0
   12.1813   -1.2811   22.2676 H   0  0  0  0  0  0  0  0  0  0  0  0
    4.8518   -2.3160   19.5211 H   0  0  0  0  0  0  0  0  0  0  0  0
    6.0683    1.7315   20.3544 H   0  0  0  0  0  0  0  0  0  0  0  0
    7.1772   -3.0769   19.8216 H   0  0  0  0  0  0  0  0  0  0  0  0
    8.3951    0.9707   20.6514 H   0  0  0  0  0  0  0  0  0  0  0  0
    8.9524    4.0565   24.5773 H   0  0  0  0  0  0  0  0  0  0  0  0
   10.8881   -3.9669   26.1098 H   0  0  0  0  0  0  0  0  0  0  0  0
   10.3411   -2.3905   26.6821 H   0  0  0  0  0  0  0  0  0  0  0  0
    7.8491   -1.8525   26.5363 H   0  0  0  0  0  0  0  0  0  0  0  0
    6.7604   -3.0602   25.8653 H   0  0  0  0  0  0  0  0  0  0  0  0
   11.3789   -2.1267   24.4514 H   0  0  0  0  0  0  0  0  0  0  0  0
   10.2949   -3.3689   23.7510 H   0  0  0  0  0  0  0  0  0  0  0  0
    7.8116   -2.8313   23.6061 H   0  0  0  0  0  0  0  0  0  0  0  0
    7.2656   -1.2367   24.2122 H   0  0  0  0  0  0  0  0  0  0  0  0
    3.3620    0.1849   20.6926 H   0  0  0  0  0  0  0  0  0  0  0  0
    3.8639    1.2468   19.3541 H   0  0  0  0  0  0  0  0  0  0  0  0
    3.3649   -0.4092   19.0137 H   0  0  0  0  0  0  0  0  0  0  0  0
    8.0363    6.3695   21.9408 H   0  0  0  0  0  0  0  0  0  0  0  0
    8.3714    8.0855   22.0552 H   0  0  0  0  0  0  0  0  0  0  0  0
    9.1037    7.1330   20.7814 H   0  0  0  0  0  0  0  0  0  0  0  0
   10.0159   -0.7456   20.1252 H   0  0  0  0  0  0  0  0  0  0  0  0
    9.5815   -2.3982   19.7550 H   0  0  0  0  0  0  0  0  0  0  0  0
   12.7635    4.6181   24.7630 H   0  0  0  0  0  0  0  0  0  0  0  0
   11.2609    5.5045   24.9293 H   0  0  0  0  0  0  0  0  0  0  0  0
    7.0369   -4.2418   27.8413 H   0  0  0  0  0  0  0  0  0  0  0  0
    7.4368   -5.9873   28.0009 H   0  0  0  0  0  0  0  0  0  0  0  0
    9.0754   -2.8075   22.1456 H   0  0  0  0  0  0  0  0  0  0  0  0
   10.7591   -2.3971   21.8949 H   0  0  0  0  0  0  0  0  0  0  0  0
   12.6967    6.5361   23.1909 H   0  0  0  0  0  0  0  0  0  0  0  0
   12.7609    5.0171   22.2783 H   0  0  0  0  0  0  0  0  0  0  0  0
    8.6402   -0.3348   22.7296 H   0  0  0  0  0  0  0  0  0  0  0  0
    8.4999    1.6864   23.9348 H   0  0  0  0  0  0  0  0  0  0  0  0
   10.8459    5.6789   21.2841 H   0  0  0  0  0  0  0  0  0  0  0  0
    9.4749   -0.8005   24.9695 H   0  0  0  0  0  0  0  0  0  0  0  0
  1  2  2  0  0  0  0
  1  3  1  0  0  0  0
  2  9  1  0  0  0  0
  3 12  2  0  0  0  0
  4  6  2  0  0  0  0
  4 10  1  0  0  0  0
  5  7  1  0  0  0  0
  5 10  2  0  0  0  0
  6 11  1  0  0  0  0
  7 11  2  0  0  0  0
  8 13  2  0  0  0  0
  8 29  1  0  0  0  0
  9 13  1  0  0  0  0
  9 14  2  0  0  0  0
 10 21  1  0  0  0  0
 11 23  1  0  0  0  0
 12 14  1  0  0  0  0
 12 28  1  0  0  0  0
 13 24  1  0  0  0  0
 14 29  1  0  0  0  0
 15 25  1  0  0  0  0
 15 30  1  0  0  0  0
 15 33  2  0  0  0  0
 16 22  1  0  0  0  0
 16 31  1  0  0  0  0
 16 34  2  0  0  0  0
 17 19  1  0  0  0  0
 17 30  1  0  0  0  0
 18 20  1  0  0  0  0
 18 30  1  0  0  0  0
 19 32  1  0  0  0  0
 20 32  1  0  0  0  0
 23 26  1  0  0  0  0
 24 27  1  0  0  0  0
 25 35  1  0  0  0  0
 26 28  1  0  0  0  0
 27 31  1  0  0  0  0
 28 32  1  0  0  0  0
  1 36  1  0  0  0  0
  2 37  1  0  0  0  0
  3 38  1  0  0  0  0
  4 39  1  0  0  0  0
  5 40  1  0  0  0  0
  6 41  1  0  0  0  0
  7 42  1  0  0  0  0
  8 43  1  0  0  0  0
 17 44  1  0  0  0  0
 17 45  1  0  0  0  0
 18 46  1  0  0  0  0
 18 47  1  0  0  0  0
 19 48  1  0  0  0  0
 19 49  1  0  0  0  0
 20 50  1  0  0  0  0
 20 51  1  0  0  0  0
 21 52  1  0  0  0  0
 21 53  1  0  0  0  0
 21 54  1  0  0  0  0
 22 55  1  0  0  0  0
 22 56  1  0  0  0  0
 22 57  1  0  0  0  0
 23 58  1  0  0  0  0
 23 59  1  0  0  0  0
 24 60  1  0  0  0  0
 24 61  1  0  0  0  0
 25 62  1  0  0  0  0
 25 63  1  0  0  0  0
 26 64  1  0  0  0  0
 26 65  1  0  0  0  0
 27 66  1  0  0  0  0
 27 67  1  0  0  0  0
 28 68  1  0  0  0  0
 29 69  1  0  0  0  0
 31 70  1  0  0  0  0
 32 71  1  0  0  0  0
M  CHG  1  32   1
M  END
> <creator>
Paul Gehrtz, Weizmann Institute of Science

> <fragments>
x0104

> <real_space>
FALSE

> <SCR>
FALSE

> <BB>
FALSE

> <link>
https://covid.postera.ai/covid/submissions/b9b69149-728b-48ac-b50d-9dc89a43712c

> <covalent_frag>
TRUE

> <covalent_warhead>
TRUE

> <acrylamide>
FALSE

> <acrylamide_adduct>
FALSE

> <chloroacetamide>
TRUE

> <chloroacetamide_adduct>
FALSE

> <vinylsulfonamide>
FALSE

> <vinylsulfonamide_adduct>
FALSE

> <in_molport_or_mcule>
FALSE

> <in_emolecules>
FALSE

> <Hybrid2>
-5.389394

> <Mpro-x0104_dock>
-5.389394

> <Mpro-x0305_dock>
-2.206281

> <Mpro-x1385_dock>
1.65654

> <Mpro-x0770_dock>
1.911584

> <Mpro-x1380_dock>
2.410246

> <site>
active-noncovalent

> <covalent_distance_min>
8.774641

> <covalent_distance_mean>
9.3507185

> <covalent_distance_stderr>
0.067112476

$$$$
PED-UNI-89d-1
  -OEChem-04062011563D

 46 47  0     1  0  0  0  0  0999 V2000
   12.4620    2.4103   23.5400 C   0  0  0  0  0  0  0  0  0  0  0  0
   13.0051    1.2626   22.9626 C   0  0  0  0  0  0  0  0  0  0  0  0
   10.3793    1.2414   23.9046 C   0  0  0  0  0  0  0  0  0  0  0  0
   10.9224    0.0936   23.3272 C   0  0  0  0  0  0  0  0  0  0  0  0
   11.1491    2.3997   24.0111 C   0  0  0  0  0  0  0  0  0  0  0  0
   12.2353    0.1043   22.8562 C   0  0  0  0  0  0  0  0  0  0  0  0
    6.0308   -3.5344   21.2506 C   0  0  0  0  0  0  0  0  0  0  0  0
    7.6257   -1.3232   19.3020 C   0  0  0  0  0  0  0  0  0  0  0  0
    6.2346   -1.4835   19.9047 C   0  0  0  0  0  0  0  0  0  0  0  0
    6.5621   -1.3485   22.3917 C   0  0  0  0  0  0  0  0  0  0  0  0
    8.4431   -0.1834   19.8915 C   0  0  0  0  0  0  0  0  0  0  0  0
    7.3784   -0.0762   22.1915 C   0  0  0  0  0  0  0  0  0  0  0  0
   10.0567   -1.1295   23.2341 C   0  0  0  0  0  0  0  0  0  0  0  0
    6.1025   -4.1857   22.6104 C   0  0  0  0  0  0  0  0  0  0  0  0
    9.5200   -1.3997   21.8321 C   0  0  0  0  0  0  0  0  0  0  0  0
    6.2855   -2.1573   21.2012 N   0  0  0  0  0  0  0  0  0  0  0  0
   11.7895    4.9156   24.6151 N   0  0  0  0  0  0  0  0  0  0  0  0
    8.6361   -0.2696   21.3830 N   0  3  1  0  0  0  0  0  0  0  0  0
    5.7635   -4.2256   20.2641 O   0  0  0  0  0  0  0  0  0  0  0  0
    9.3928    4.3158   23.8789 O   0  0  0  0  0  0  0  0  0  0  0  0
   10.2110    3.5683   26.1415 O   0  0  0  0  0  0  0  0  0  0  0  0
   10.4699    3.8366   24.7338 S   0  0  0  0  0  0  0  0  0  0  0  0
    7.7582   -4.7468   22.8128 Cl  0  0  0  0  0  0  0  0  0  0  0  0
   13.0177   -1.4309   22.0640 Br  0  0  0  0  0  0  0  0  0  0  0  0
   13.0704    3.3074   23.6179 H   0  0  0  0  0  0  0  0  0  0  0  0
   14.0300    1.2900   22.6013 H   0  0  0  0  0  0  0  0  0  0  0  0
    9.3557    1.2332   24.2719 H   0  0  0  0  0  0  0  0  0  0  0  0
    8.1733   -2.2594   19.4607 H   0  0  0  0  0  0  0  0  0  0  0  0
    7.5444   -1.2008   18.2153 H   0  0  0  0  0  0  0  0  0  0  0  0
    5.7849   -0.4973   20.0214 H   0  0  0  0  0  0  0  0  0  0  0  0
    5.5907   -2.0575   19.2383 H   0  0  0  0  0  0  0  0  0  0  0  0
    7.0725   -2.0003   23.1290 H   0  0  0  0  0  0  0  0  0  0  0  0
    5.6070   -1.0834   22.8837 H   0  0  0  0  0  0  0  0  0  0  0  0
    9.4482   -0.0879   19.4178 H   0  0  0  0  0  0  0  0  0  0  0  0
    7.9154    0.7737   19.6789 H   0  0  0  0  0  0  0  0  0  0  0  0
    6.7820    0.6733   21.6528 H   0  0  0  0  0  0  0  0  0  0  0  0
    7.6685    0.3521   23.1619 H   0  0  0  0  0  0  0  0  0  0  0  0
   10.6465   -1.9995   23.5522 H   0  0  0  0  0  0  0  0  0  0  0  0
    9.2234   -1.0618   23.9455 H   0  0  0  0  0  0  0  0  0  0  0  0
    5.4189   -5.0264   22.6332 H   0  0  0  0  0  0  0  0  0  0  0  0
    5.8644   -3.4465   23.3663 H   0  0  0  0  0  0  0  0  0  0  0  0
    8.8976   -2.2995   21.8216 H   0  0  0  0  0  0  0  0  0  0  0  0
   10.3136   -1.4993   21.0855 H   0  0  0  0  0  0  0  0  0  0  0  0
   12.5975    4.7582   25.2297 H   0  0  0  0  0  0  0  0  0  0  0  0
   12.0389    5.2714   23.6843 H   0  0  0  0  0  0  0  0  0  0  0  0
    9.2256    0.6146   21.6204 H   0  0  0  0  0  0  0  0  0  0  0  0
  1  2  2  0  0  0  0
  1  5  1  0  0  0  0
  2  6  1  0  0  0  0
  3  4  1  0  0  0  0
  3  5  2  0  0  0  0
  4  6  2  0  0  0  0
  4 13  1  0  0  0  0
  5 22  1  0  0  0  0
  6 24  1  0  0  0  0
  7 14  1  0  0  0  0
  7 16  1  0  0  0  0
  7 19  2  0  0  0  0
  8  9  1  0  0  0  0
  8 11  1  0  0  0  0
  9 16  1  0  0  0  0
 10 12  1  0  0  0  0
 10 16  1  0  0  0  0
 11 18  1  0  0  0  0
 12 18  1  0  0  0  0
 13 15  1  0  0  0  0
 14 23  1  0  0  0  0
 15 18  1  0  0  0  0
 17 22  1  0  0  0  0
 20 22  2  0  0  0  0
 21 22  2  0  0  0  0
  1 25  1  0  0  0  0
  2 26  1  0  0  0  0
  3 27  1  0  0  0  0
  8 28  1  0  0  0  0
  8 29  1  0  0  0  0
  9 30  1  0  0  0  0
  9 31  1  0  0  0  0
 10 32  1  0  0  0  0
 10 33  1  0  0  0  0
 11 34  1  0  0  0  0
 11 35  1  0  0  0  0
 12 36  1  0  0  0  0
 12 37  1  0  0  0  0
 13 38  1  0  0  0  0
 13 39  1  0  0  0  0
 14 40  1  0  0  0  0
 14 41  1  0  0  0  0
 15 42  1  0  0  0  0
 15 43  1  0  0  0  0
 17 44  1  0  0  0  0
 17 45  1  0  0  0  0
 18 46  1  0  0  0  0
M  CHG  1  18   1
M  END
> <creator>
Pedro Silva, Univ. Fernando Pessoa

> <fragments>
x0831

> <real_space>
FALSE

> <SCR>
FALSE

> <BB>
FALSE

> <link>
https://covid.postera.ai/covid/submissions/89deb5c9-aaf3-47f3-b105-8192943b0ec8

> <covalent_frag>
TRUE

> <covalent_warhead>
TRUE

> <acrylamide>
FALSE

> <acrylamide_adduct>
FALSE

> <chloroacetamide>
TRUE

> <chloroacetamide_adduct>
FALSE

> <vinylsulfonamide>
FALSE

> <vinylsulfonamide_adduct>
FALSE

> <in_molport_or_mcule>
FALSE

> <in_emolecules>
FALSE

> <Hybrid2>
-5.371132

> <Mpro-x0831_dock>
-5.371132

> <Mpro-x0946_dock>
-5.250103

> <site>
active-covalent

> <covalent_distance_min>
4.4360256

> <covalent_distance_mean>
5.429702

> <covalent_distance_stderr>
0.07513335

$$$$
DAV-CRI-d1e-5
  -OEChem-04062011563D

 39 40  0     0  0  0  0  0  0999 V2000
    9.7100   -0.5300   25.4712 C   0  0  0  0  0  0  0  0  0  0  0  0
   11.6601    0.8610   24.9123 C   0  0  0  0  0  0  0  0  0  0  0  0
   10.8488   -0.2242   24.6635 C   0  0  0  0  0  0  0  0  0  0  0  0
   11.2860   -0.9709   23.5315 C   0  0  0  0  0  0  0  0  0  0  0  0
   12.4147   -0.4277   22.9579 C   0  0  0  0  0  0  0  0  0  0  0  0
    6.1300   -2.0294   19.7536 C   0  0  0  0  0  0  0  0  0  0  0  0
    7.0254   -2.9298   21.8769 C   0  0  0  0  0  0  0  0  0  0  0  0
    7.5959   -0.6100   21.2717 C   0  0  0  0  0  0  0  0  0  0  0  0
    8.4861   -3.2322   22.1779 C   0  0  0  0  0  0  0  0  0  0  0  0
    9.0659   -0.8772   21.5655 C   0  0  0  0  0  0  0  0  0  0  0  0
   10.5987   -2.2040   23.0235 C   0  0  0  0  0  0  0  0  0  0  0  0
    6.0591   -0.8667   18.7961 C   0  0  0  0  0  0  0  0  0  0  0  0
   14.4659   -0.5625   21.5403 C   0  0  0  0  0  0  0  0  0  0  0  0
    8.7854   -0.7784   26.1271 N   0  0  0  0  0  0  0  0  0  0  0  0
    6.9031   -1.8482   20.8995 N   0  0  0  0  0  0  0  0  0  0  0  0
   13.0830   -0.8925   21.8712 N   0  0  0  0  0  0  0  0  0  0  0  0
    9.1727   -1.9584   22.6176 N   0  3  0  0  0  0  0  0  0  0  0  0
    5.5182   -3.0673   19.4881 O   0  0  0  0  0  0  0  0  0  0  0  0
   14.6216    0.8379   21.3441 O   0  0  0  0  0  0  0  0  0  0  0  0
   12.9427    0.9764   23.7836 S   0  0  0  0  0  0  0  0  0  0  0  0
    7.4080   -1.0501   17.6803 Cl  0  0  0  0  0  0  0  0  0  0  0  0
   11.5682    1.5966   25.7000 H   0  0  0  0  0  0  0  0  0  0  0  0
    6.5312   -3.8372   21.5159 H   0  0  0  0  0  0  0  0  0  0  0  0
    6.4992   -2.6133   22.7858 H   0  0  0  0  0  0  0  0  0  0  0  0
    7.0917   -0.2097   22.1596 H   0  0  0  0  0  0  0  0  0  0  0  0
    7.5198    0.1495   20.4917 H   0  0  0  0  0  0  0  0  0  0  0  0
    8.5708   -3.9494   23.0008 H   0  0  0  0  0  0  0  0  0  0  0  0
    9.0164   -3.6145   21.2985 H   0  0  0  0  0  0  0  0  0  0  0  0
    9.6068   -1.2185   20.6758 H   0  0  0  0  0  0  0  0  0  0  0  0
    9.5478    0.0192   21.9692 H   0  0  0  0  0  0  0  0  0  0  0  0
   11.1108   -2.6088   22.1439 H   0  0  0  0  0  0  0  0  0  0  0  0
   10.5776   -2.9883   23.7878 H   0  0  0  0  0  0  0  0  0  0  0  0
    6.1617    0.0561   19.3555 H   0  0  0  0  0  0  0  0  0  0  0  0
    5.1204   -0.9129   18.2561 H   0  0  0  0  0  0  0  0  0  0  0  0
   14.7654   -1.0658   20.6154 H   0  0  0  0  0  0  0  0  0  0  0  0
   15.1332   -0.8630   22.3548 H   0  0  0  0  0  0  0  0  0  0  0  0
   12.6084   -1.5222   21.2134 H   0  0  0  0  0  0  0  0  0  0  0  0
    8.6836   -1.6189   23.4574 H   0  0  0  0  0  0  0  0  0  0  0  0
   14.0353    1.0898   20.6104 H   0  0  0  0  0  0  0  0  0  0  0  0
  1  3  1  0  0  0  0
  1 14  3  0  0  0  0
  2  3  2  0  0  0  0
  2 20  1  0  0  0  0
  3  4  1  0  0  0  0
  4  5  2  0  0  0  0
  4 11  1  0  0  0  0
  5 16  1  0  0  0  0
  5 20  1  0  0  0  0
  6 12  1  0  0  0  0
  6 15  1  0  0  0  0
  6 18  2  0  0  0  0
  7  9  1  0  0  0  0
  7 15  1  0  0  0  0
  8 10  1  0  0  0  0
  8 15  1  0  0  0  0
  9 17  1  0  0  0  0
 10 17  1  0  0  0  0
 11 17  1  0  0  0  0
 12 21  1  0  0  0  0
 13 16  1  0  0  0  0
 13 19  1  0  0  0  0
  2 22  1  0  0  0  0
  7 23  1  0  0  0  0
  7 24  1  0  0  0  0
  8 25  1  0  0  0  0
  8 26  1  0  0  0  0
  9 27  1  0  0  0  0
  9 28  1  0  0  0  0
 10 29  1  0  0  0  0
 10 30  1  0  0  0  0
 11 31  1  0  0  0  0
 11 32  1  0  0  0  0
 12 33  1  0  0  0  0
 12 34  1  0  0  0  0
 13 35  1  0  0  0  0
 13 36  1  0  0  0  0
 16 37  1  0  0  0  0
 17 38  1  0  0  0  0
 19 39  1  0  0  0  0
M  CHG  1  17   1
M  END
> <creator>
David Briggs, Crick Institute

> <fragments>
x1386

> <real_space>
FALSE

> <SCR>
FALSE

> <BB>
FALSE

> <link>
https://covid.postera.ai/covid/submissions/d1e0885a-4deb-43bc-868d-ea4ea14cd272

> <covalent_frag>
TRUE

> <covalent_warhead>
TRUE

> <acrylamide>
FALSE

> <acrylamide_adduct>
FALSE

> <chloroacetamide>
TRUE

> <chloroacetamide_adduct>
FALSE

> <vinylsulfonamide>
FALSE

> <vinylsulfonamide_adduct>
FALSE

> <in_molport_or_mcule>
FALSE

> <in_emolecules>
FALSE

> <Hybrid2>
-5.367616

> <Mpro-x1386_dock>
-5.367616

> <Mpro-x1418_dock>
-4.366979

> <Mpro-x0305_dock>
-4.024014

> <site>
active-covalent

> <covalent_distance_min>
3.843738

> <covalent_distance_mean>
5.011362

> <covalent_distance_stderr>
0.0455664

$$$$
STU-CHA-814-1
  -OEChem-04062011563D

 53 55  0     1  0  0  0  0  0999 V2000
   14.1802    2.2279   22.0323 C   0  0  0  0  0  0  0  0  0  0  0  0
   11.8480    2.5263   23.5288 C   0  0  0  0  0  0  0  0  0  0  0  0
   13.4487    1.0912   22.4046 C   0  0  0  0  0  0  0  0  0  0  0  0
   12.2628    1.2441   23.1437 C   0  0  0  0  0  0  0  0  0  0  0  0
   13.7538    3.5000   22.4131 C   0  0  0  0  0  0  0  0  0  0  0  0
   12.5899    3.6489   23.1628 C   0  0  0  0  0  0  0  0  0  0  0  0
    6.0540   -3.6645   21.6251 C   0  0  0  0  0  0  0  0  0  0  0  0
   13.9080   -0.2713   21.9512 C   0  0  0  0  0  0  0  0  0  0  0  0
   11.4614    0.0460   23.5742 C   0  0  0  0  0  0  0  0  0  0  0  0
    8.8688   -3.4421   23.9063 C   0  0  0  0  0  0  0  0  0  0  0  0
    9.1701   -1.9259   21.9164 C   0  0  0  0  0  0  0  0  0  0  0  0
    7.3560   -3.2738   23.7746 C   0  0  0  0  0  0  0  0  0  0  0  0
    7.6523   -1.7869   21.8266 C   0  0  0  0  0  0  0  0  0  0  0  0
   13.3162   -1.4111   22.7731 C   0  0  0  0  0  0  0  0  0  0  0  0
    9.6169   -2.2180   23.3568 C   0  0  0  0  0  0  0  0  0  0  0  0
    6.2825   -3.6887   20.1348 C   0  0  0  0  0  0  0  0  0  0  0  0
   11.1275   -2.4286   23.4253 C   0  0  0  0  0  0  0  0  0  0  0  0
   14.5683    4.6817   21.9991 C   0  0  0  0  0  0  0  0  0  0  0  0
    6.9858   -2.9627   22.3888 N   0  0  0  0  0  0  0  0  0  0  0  0
   10.6125    4.8114   24.5205 N   0  0  0  0  0  0  0  0  0  0  0  0
   11.8209   -1.2306   22.8417 N   0  3  1  0  0  0  0  0  0  0  0  0
    5.0748   -4.2504   22.0941 O   0  0  0  0  0  0  0  0  0  0  0  0
   12.9992    5.7828   24.5954 O   0  0  0  0  0  0  0  0  0  0  0  0
   11.6538    5.9801   22.4744 O   0  0  0  0  0  0  0  0  0  0  0  0
   14.9891    5.3805   23.0851 F   0  0  0  0  0  0  0  0  0  0  0  0
   13.8261    5.5388   21.2514 F   0  0  0  0  0  0  0  0  0  0  0  0
   12.0290    5.2296   23.6630 S   0  0  0  0  0  0  0  0  0  0  0  0
    5.4071   -2.3147   19.4685 Cl  0  0  0  0  0  0  0  0  0  0  0  0
   15.0873    2.1156   21.4419 H   0  0  0  0  0  0  0  0  0  0  0  0
   10.9402    2.6427   24.1166 H   0  0  0  0  0  0  0  0  0  0  0  0
   13.6312   -0.3946   20.8967 H   0  0  0  0  0  0  0  0  0  0  0  0
   15.0011   -0.3309   22.0136 H   0  0  0  0  0  0  0  0  0  0  0  0
   11.6259   -0.1381   24.6425 H   0  0  0  0  0  0  0  0  0  0  0  0
   10.3945    0.2118   23.3875 H   0  0  0  0  0  0  0  0  0  0  0  0
    9.1256   -3.5909   24.9619 H   0  0  0  0  0  0  0  0  0  0  0  0
    9.1809   -4.3481   23.3710 H   0  0  0  0  0  0  0  0  0  0  0  0
    9.5014   -2.7306   21.2474 H   0  0  0  0  0  0  0  0  0  0  0  0
    9.6407   -1.0015   21.5607 H   0  0  0  0  0  0  0  0  0  0  0  0
    6.8591   -4.1743   24.1395 H   0  0  0  0  0  0  0  0  0  0  0  0
    7.0098   -2.4396   24.3964 H   0  0  0  0  0  0  0  0  0  0  0  0
    7.3121   -0.9140   22.3962 H   0  0  0  0  0  0  0  0  0  0  0  0
    7.3573   -1.6318   20.7841 H   0  0  0  0  0  0  0  0  0  0  0  0
   13.5187   -2.3761   22.2966 H   0  0  0  0  0  0  0  0  0  0  0  0
   13.6958   -1.4230   23.8013 H   0  0  0  0  0  0  0  0  0  0  0  0
    9.3720   -1.3498   23.9813 H   0  0  0  0  0  0  0  0  0  0  0  0
    5.8847   -4.6136   19.7331 H   0  0  0  0  0  0  0  0  0  0  0  0
    7.3437   -3.5839   19.9402 H   0  0  0  0  0  0  0  0  0  0  0  0
   11.4417   -3.2979   22.8410 H   0  0  0  0  0  0  0  0  0  0  0  0
   11.4753   -2.5301   24.4570 H   0  0  0  0  0  0  0  0  0  0  0  0
   15.4468    4.3996   21.4175 H   0  0  0  0  0  0  0  0  0  0  0  0
   10.6240    4.9050   25.5436 H   0  0  0  0  0  0  0  0  0  0  0  0
    9.7064    5.0384   24.0931 H   0  0  0  0  0  0  0  0  0  0  0  0
   11.4791   -1.1361   21.8752 H   0  0  0  0  0  0  0  0  0  0  0  0
  1  3  2  0  0  0  0
  1  5  1  0  0  0  0
  2  4  2  0  0  0  0
  2  6  1  0  0  0  0
  3  4  1  0  0  0  0
  3  8  1  0  0  0  0
  4  9  1  0  0  0  0
  5  6  2  0  0  0  0
  5 18  1  0  0  0  0
  6 27  1  0  0  0  0
  7 16  1  0  0  0  0
  7 19  1  0  0  0  0
  7 22  2  0  0  0  0
  8 14  1  0  0  0  0
  9 21  1  0  0  0  0
 10 12  1  0  0  0  0
 10 15  1  0  0  0  0
 11 13  1  0  0  0  0
 11 15  1  0  0  0  0
 12 19  1  0  0  0  0
 13 19  1  0  0  0  0
 14 21  1  0  0  0  0
 15 17  1  0  0  0  0
 16 28  1  0  0  0  0
 17 21  1  0  0  0  0
 18 25  1  0  0  0  0
 18 26  1  0  0  0  0
 20 27  1  0  0  0  0
 23 27  2  0  0  0  0
 24 27  2  0  0  0  0
  1 29  1  0  0  0  0
  2 30  1  0  0  0  0
  8 31  1  0  0  0  0
  8 32  1  0  0  0  0
  9 33  1  0  0  0  0
  9 34  1  0  0  0  0
 10 35  1  0  0  0  0
 10 36  1  0  0  0  0
 11 37  1  0  0  0  0
 11 38  1  0  0  0  0
 12 39  1  0  0  0  0
 12 40  1  0  0  0  0
 13 41  1  0  0  0  0
 13 42  1  0  0  0  0
 14 43  1  0  0  0  0
 14 44  1  0  0  0  0
 15 45  1  0  0  0  0
 16 46  1  0  0  0  0
 16 47  1  0  0  0  0
 17 48  1  0  0  0  0
 17 49  1  0  0  0  0
 18 50  1  0  0  0  0
 20 51  1  0  0  0  0
 20 52  1  0  0  0  0
 21 53  1  0  0  0  0
M  CHG  1  21   1
M  END
> <creator>
Stuart Ward, Charles River Laboratories

> <fragments>
x0195

> <real_space>
FALSE

> <SCR>
FALSE

> <BB>
FALSE

> <link>
https://covid.postera.ai/covid/submissions/814c6126-72b7-40c4-90c0-71c68416ef98

> <covalent_frag>
TRUE

> <covalent_warhead>
TRUE

> <acrylamide>
FALSE

> <acrylamide_adduct>
FALSE

> <chloroacetamide>
TRUE

> <chloroacetamide_adduct>
FALSE

> <vinylsulfonamide>
FALSE

> <vinylsulfonamide_adduct>
FALSE

> <in_molport_or_mcule>
FALSE

> <in_emolecules>
FALSE

> <Hybrid2>
-5.339505

> <Mpro-x0195_dock>
-5.339505

> <Mpro-x0770_dock>
2.342617

> <site>
active-noncovalent

> <covalent_distance_min>
5.166397

> <covalent_distance_mean>
5.5947475

> <covalent_distance_stderr>
0.04049401

$$$$
BEN-VAN-d2b-10
  -OEChem-04062011563D

 56 58  0     1  0  0  0  0  0999 V2000
    6.2885   -0.8780   20.9234 C   0  0  0  0  0  0  0  0  0  0  0  0
    8.6228    1.1754   22.9863 C   0  0  0  0  0  0  0  0  0  0  0  0
    7.9560    0.8081   20.3659 C   0  0  0  0  0  0  0  0  0  0  0  0
    7.5243   -1.4075   27.1717 C   0  0  0  0  0  0  0  0  0  0  0  0
    6.8982    0.5800   25.8650 C   0  0  0  0  0  0  0  0  0  0  0  0
    7.2925    0.0578   21.3233 C   0  0  0  0  0  0  0  0  0  0  0  0
    7.4762   -1.6708   25.8204 C   0  0  0  0  0  0  0  0  0  0  0  0
    7.6381    0.2509   22.6561 C   0  0  0  0  0  0  0  0  0  0  0  0
    7.1136   -0.5195   25.0634 C   0  0  0  0  0  0  0  0  0  0  0  0
    9.2269    1.8756   21.9544 C   0  0  0  0  0  0  0  0  0  0  0  0
   13.6746    0.1075   22.2909 C   0  0  0  0  0  0  0  0  0  0  0  0
   12.5655   -0.6338   22.3719 C   0  0  0  0  0  0  0  0  0  0  0  0
   12.0177   -1.0263   23.6984 C   0  0  0  0  0  0  0  0  0  0  0  0
   10.1322   -2.3020   24.6459 C   0  0  0  0  0  0  0  0  0  0  0  0
    8.6546   -5.2637   25.2556 C   0  0  0  0  0  0  0  0  0  0  0  0
    8.1692   -4.1598   26.1853 C   0  0  0  0  0  0  0  0  0  0  0  0
    9.2717   -4.5527   24.0497 C   0  0  0  0  0  0  0  0  0  0  0  0
    7.7763   -3.0297   25.2261 C   0  0  2  0  0  0  0  0  0  0  0  0
    8.9194   -3.0674   24.1930 C   0  0  1  0  0  0  0  0  0  0  0  0
   10.3504    6.0402   24.0168 C   0  0  0  0  0  0  0  0  0  0  0  0
   10.6230    3.0500   23.6566 C   0  0  0  0  0  0  0  0  0  0  0  0
   11.6855    4.1331   23.6952 C   0  0  0  0  0  0  0  0  0  0  0  0
    5.4733   -1.6375   20.5987 N   0  0  0  0  0  0  0  0  0  0  0  0
    8.9177    1.7153   20.6482 N   0  0  0  0  0  0  0  0  0  0  0  0
    6.9910   -0.4934   23.7151 N   0  0  0  0  0  0  0  0  0  0  0  0
   10.2295    2.8135   22.3060 N   0  0  0  0  0  0  0  0  0  0  0  0
   10.8625   -1.7941   23.5728 N   0  0  0  0  0  0  0  0  0  0  0  0
   12.5471   -0.6940   24.7539 O   0  0  0  0  0  0  0  0  0  0  0  0
   10.3959   -2.1494   25.8356 O   0  0  0  0  0  0  0  0  0  0  0  0
   11.1707    5.3207   23.1065 O   0  0  0  0  0  0  0  0  0  0  0  0
    7.1333    0.2222   27.5230 S   0  0  0  0  0  0  0  0  0  0  0  0
    8.9076    1.3423   24.0211 H   0  0  0  0  0  0  0  0  0  0  0  0
    7.7339    0.7053   19.3076 H   0  0  0  0  0  0  0  0  0  0  0  0
    7.7699   -2.0905   27.9730 H   0  0  0  0  0  0  0  0  0  0  0  0
    6.6141    1.5788   25.5631 H   0  0  0  0  0  0  0  0  0  0  0  0
   14.1049    0.4139   21.3440 H   0  0  0  0  0  0  0  0  0  0  0  0
   14.1810    0.4264   23.1961 H   0  0  0  0  0  0  0  0  0  0  0  0
   12.0567   -0.9556   21.4700 H   0  0  0  0  0  0  0  0  0  0  0  0
    9.3697   -5.9275   25.7512 H   0  0  0  0  0  0  0  0  0  0  0  0
    7.8071   -5.8774   24.9277 H   0  0  0  0  0  0  0  0  0  0  0  0
    7.3284   -4.4888   26.8050 H   0  0  0  0  0  0  0  0  0  0  0  0
    8.9755   -3.8491   26.8617 H   0  0  0  0  0  0  0  0  0  0  0  0
   10.3527   -4.7267   24.0059 H   0  0  0  0  0  0  0  0  0  0  0  0
    8.8417   -4.9603   23.1274 H   0  0  0  0  0  0  0  0  0  0  0  0
    6.8395   -3.3466   24.6858 H   0  0  0  0  0  0  0  0  0  0  0  0
    8.6065   -2.6348   23.2391 H   0  0  0  0  0  0  0  0  0  0  0  0
    9.9732    6.9442   23.5323 H   0  0  0  0  0  0  0  0  0  0  0  0
   10.9330    6.3049   24.9028 H   0  0  0  0  0  0  0  0  0  0  0  0
    9.5086    5.4093   24.3117 H   0  0  0  0  0  0  0  0  0  0  0  0
   10.9988    2.1104   24.0739 H   0  0  0  0  0  0  0  0  0  0  0  0
    9.7387    3.3637   24.2197 H   0  0  0  0  0  0  0  0  0  0  0  0
   12.5601    3.8208   23.1162 H   0  0  0  0  0  0  0  0  0  0  0  0
   11.9971    4.3551   24.7210 H   0  0  0  0  0  0  0  0  0  0  0  0
    6.2862   -1.1361   23.3015 H   0  0  0  0  0  0  0  0  0  0  0  0
   10.6577    3.3139   21.5542 H   0  0  0  0  0  0  0  0  0  0  0  0
   10.5289   -1.9983   22.6335 H   0  0  0  0  0  0  0  0  0  0  0  0
  1  6  1  0  0  0  0
  1 23  3  0  0  0  0
  2  8  1  0  0  0  0
  2 10  2  0  0  0  0
  3  6  1  0  0  0  0
  3 24  2  0  0  0  0
  4  7  2  0  0  0  0
  4 31  1  0  0  0  0
  5  9  2  0  0  0  0
  5 31  1  0  0  0  0
  6  8  2  0  0  0  0
  7  9  1  0  0  0  0
  7 18  1  0  0  0  0
  8 25  1  0  0  0  0
  9 25  1  0  0  0  0
 10 24  1  0  0  0  0
 10 26  1  0  0  0  0
 11 12  2  0  0  0  0
 12 13  1  0  0  0  0
 13 27  1  0  0  0  0
 13 28  2  0  0  0  0
 14 19  1  0  0  0  0
 14 27  1  0  0  0  0
 14 29  2  0  0  0  0
 15 16  1  0  0  0  0
 15 17  1  0  0  0  0
 16 18  1  0  0  0  0
 17 19  1  0  0  0  0
 18 19  1  0  0  0  0
 20 30  1  0  0  0  0
 21 22  1  0  0  0  0
 21 26  1  0  0  0  0
 22 30  1  0  0  0  0
  2 32  1  0  0  0  0
  3 33  1  0  0  0  0
  4 34  1  0  0  0  0
  5 35  1  0  0  0  0
 11 36  1  0  0  0  0
 11 37  1  0  0  0  0
 12 38  1  0  0  0  0
 15 39  1  0  0  0  0
 15 40  1  0  0  0  0
 16 41  1  0  0  0  0
 16 42  1  0  0  0  0
 17 43  1  0  0  0  0
 17 44  1  0  0  0  0
 18 45  1  0  0  0  0
 19 46  1  0  0  0  0
 20 47  1  0  0  0  0
 20 48  1  0  0  0  0
 20 49  1  0  0  0  0
 21 50  1  0  0  0  0
 21 51  1  0  0  0  0
 22 52  1  0  0  0  0
 22 53  1  0  0  0  0
 25 54  1  0  0  0  0
 26 55  1  0  0  0  0
 27 56  1  0  0  0  0
M  END
> <creator>
Benjamin P. Brown, Vanderbilt University, Laboratory of Jens Meiler

> <fragments>
x0874

> <real_space>
FALSE

> <SCR>
FALSE

> <BB>
FALSE

> <link>
https://covid.postera.ai/covid/submissions/d2b455e2-4c45-4364-9fc0-1efc54e3e367

> <covalent_frag>
FALSE

> <covalent_warhead>
TRUE

> <acrylamide>
TRUE

> <acrylamide_adduct>
FALSE

> <chloroacetamide>
FALSE

> <chloroacetamide_adduct>
FALSE

> <vinylsulfonamide>
FALSE

> <vinylsulfonamide_adduct>
FALSE

> <in_molport_or_mcule>
FALSE

> <in_emolecules>
FALSE

> <Hybrid2>
-5.329708

> <Mpro-x0874_dock>
-5.329708

> <Mpro-x0305_dock>
-1.442253

> <site>
active-noncovalent

> <covalent_distance_min>
5.042529

> <covalent_distance_mean>
6.2422595

> <covalent_distance_stderr>
0.10472246

$$$$
BEN-VAN-ed8-20
  -OEChem-04062011563D

 46 47  0     0  0  0  0  0  0999 V2000
    9.4699   -0.7528   23.5257 C   0  0  0  0  0  0  0  0  0  0  0  0
    5.6450    1.0349   17.5184 C   0  0  0  0  0  0  0  0  0  0  0  0
    8.2799   -1.4604   23.3562 C   0  0  0  0  0  0  0  0  0  0  0  0
    5.2012    1.9130   18.5009 C   0  0  0  0  0  0  0  0  0  0  0  0
    9.5793   -0.3661   21.1434 C   0  0  0  0  0  0  0  0  0  0  0  0
    8.3893   -1.0737   20.9739 C   0  0  0  0  0  0  0  0  0  0  0  0
   10.1197   -0.2056   22.4193 C   0  0  0  0  0  0  0  0  0  0  0  0
    6.5104    0.0008   17.8575 C   0  0  0  0  0  0  0  0  0  0  0  0
    7.7396   -1.6208   22.0803 C   0  0  0  0  0  0  0  0  0  0  0  0
    6.8992   -0.1113   19.1827 C   0  0  0  0  0  0  0  0  0  0  0  0
    5.6484    1.7152   19.7973 C   0  0  0  0  0  0  0  0  0  0  0  0
   10.6798    5.8601   25.5540 C   0  0  0  0  0  0  0  0  0  0  0  0
   11.1853    5.8871   24.3170 C   0  0  0  0  0  0  0  0  0  0  0  0
   12.1674    4.8572   23.8825 C   0  0  0  0  0  0  0  0  0  0  0  0
   12.3244    2.4086   23.6146 C   0  0  0  0  0  0  0  0  0  0  0  0
    6.9278    3.1139   22.3763 C   0  0  0  0  0  0  0  0  0  0  0  0
    7.8427   -1.2230   19.5908 C   0  0  0  0  0  0  0  0  0  0  0  0
   11.4658    1.1767   23.8095 C   0  0  0  0  0  0  0  0  0  0  0  0
    5.5762    2.5243   22.1565 C   0  0  0  0  0  0  0  0  0  0  0  0
    6.4891    0.7223   20.1649 N   0  0  0  0  0  0  0  0  0  0  0  0
    5.1895    2.6200   20.7868 N   0  0  0  0  0  0  0  0  0  0  0  0
   11.6348    3.5725   23.9578 N   0  0  0  0  0  0  0  0  0  0  0  0
   13.3005    5.1435   23.5098 O   0  0  0  0  0  0  0  0  0  0  0  0
   13.4805    2.3550   23.2042 O   0  0  0  0  0  0  0  0  0  0  0  0
   11.2924    0.4921   22.5870 O   0  0  0  0  0  0  0  0  0  0  0  0
    6.9495   -0.8527   16.9244 F   0  0  0  0  0  0  0  0  0  0  0  0
    6.2629   -2.4981   21.9101 Cl  0  0  0  0  0  0  0  0  0  0  0  0
    9.8856   -0.6304   24.5222 H   0  0  0  0  0  0  0  0  0  0  0  0
    5.3174    1.1566   16.4904 H   0  0  0  0  0  0  0  0  0  0  0  0
    7.7860   -1.8798   24.2291 H   0  0  0  0  0  0  0  0  0  0  0  0
    4.5242    2.7219   18.2453 H   0  0  0  0  0  0  0  0  0  0  0  0
   10.0901    0.0604   20.2832 H   0  0  0  0  0  0  0  0  0  0  0  0
    9.9639    6.6143   25.8638 H   0  0  0  0  0  0  0  0  0  0  0  0
   10.9549    5.1044   26.2813 H   0  0  0  0  0  0  0  0  0  0  0  0
   10.8829    6.6612   23.6203 H   0  0  0  0  0  0  0  0  0  0  0  0
    6.9178    4.1742   22.0838 H   0  0  0  0  0  0  0  0  0  0  0  0
    7.1959    3.0295   23.4398 H   0  0  0  0  0  0  0  0  0  0  0  0
    7.6671    2.5727   21.7677 H   0  0  0  0  0  0  0  0  0  0  0  0
    8.6650   -1.2835   18.8579 H   0  0  0  0  0  0  0  0  0  0  0  0
    7.3240   -2.1909   19.4855 H   0  0  0  0  0  0  0  0  0  0  0  0
   10.4819    1.4780   24.1813 H   0  0  0  0  0  0  0  0  0  0  0  0
   11.9326    0.5043   24.5359 H   0  0  0  0  0  0  0  0  0  0  0  0
    5.5945    1.4647   22.4512 H   0  0  0  0  0  0  0  0  0  0  0  0
    4.8441    3.0643   22.7749 H   0  0  0  0  0  0  0  0  0  0  0  0
    4.5701    3.3421   20.4802 H   0  0  0  0  0  0  0  0  0  0  0  0
   10.6773    3.4660   24.2850 H   0  0  0  0  0  0  0  0  0  0  0  0
  1  3  2  0  0  0  0
  1  7  1  0  0  0  0
  2  4  2  0  0  0  0
  2  8  1  0  0  0  0
  3  9  1  0  0  0  0
  4 11  1  0  0  0  0
  5  6  1  0  0  0  0
  5  7  2  0  0  0  0
  6  9  2  0  0  0  0
  6 17  1  0  0  0  0
  7 25  1  0  0  0  0
  8 10  2  0  0  0  0
  8 26  1  0  0  0  0
  9 27  1  0  0  0  0
 10 17  1  0  0  0  0
 10 20  1  0  0  0  0
 11 20  2  0  0  0  0
 11 21  1  0  0  0  0
 12 13  2  0  0  0  0
 13 14  1  0  0  0  0
 14 22  1  0  0  0  0
 14 23  2  0  0  0  0
 15 18  1  0  0  0  0
 15 22  1  0  0  0  0
 15 24  2  0  0  0  0
 16 19  1  0  0  0  0
 18 25  1  0  0  0  0
 19 21  1  0  0  0  0
  1 28  1  0  0  0  0
  2 29  1  0  0  0  0
  3 30  1  0  0  0  0
  4 31  1  0  0  0  0
  5 32  1  0  0  0  0
 12 33  1  0  0  0  0
 12 34  1  0  0  0  0
 13 35  1  0  0  0  0
 16 36  1  0  0  0  0
 16 37  1  0  0  0  0
 16 38  1  0  0  0  0
 17 39  1  0  0  0  0
 17 40  1  0  0  0  0
 18 41  1  0  0  0  0
 18 42  1  0  0  0  0
 19 43  1  0  0  0  0
 19 44  1  0  0  0  0
 21 45  1  0  0  0  0
 22 46  1  0  0  0  0
M  END
> <creator>
Benjamin P. Brown, Vanderbilt University, Laboratory of Jens Meiler

> <fragments>
x0434

> <real_space>
FALSE

> <SCR>
FALSE

> <BB>
FALSE

> <link>
https://covid.postera.ai/covid/submissions/ed886787-7a03-461a-8e89-d76e33337a9e

> <covalent_frag>
FALSE

> <covalent_warhead>
TRUE

> <acrylamide>
TRUE

> <acrylamide_adduct>
FALSE

> <chloroacetamide>
FALSE

> <chloroacetamide_adduct>
FALSE

> <vinylsulfonamide>
FALSE

> <vinylsulfonamide_adduct>
FALSE

> <in_molport_or_mcule>
FALSE

> <in_emolecules>
FALSE

> <Hybrid2>
-5.322351

> <Mpro-x0434_dock>
-5.322351

> <Mpro-x0305_dock>
-3.251202

> <site>
active-noncovalent

> <covalent_distance_min>
11.953894

> <covalent_distance_mean>
13.054797

> <covalent_distance_stderr>
0.058278758

$$$$
MAK-UNK-c44-6
  -OEChem-04062011563D

 56 57  0     1  0  0  0  0  0999 V2000
    6.5989    5.9712   22.4135 C   0  0  0  0  0  0  0  0  0  0  0  0
    7.1238    6.9256   22.9185 C   0  0  0  0  0  0  0  0  0  0  0  0
   14.1483   -0.6871   23.2557 C   0  0  0  0  0  0  0  0  0  0  0  0
   13.4403   -0.7337   22.0548 C   0  0  0  0  0  0  0  0  0  0  0  0
   13.5003   -0.9672   24.4587 C   0  0  0  0  0  0  0  0  0  0  0  0
   12.0842   -1.0602   22.0570 C   0  0  0  0  0  0  0  0  0  0  0  0
   12.1442   -1.2937   24.4609 C   0  0  0  0  0  0  0  0  0  0  0  0
    5.3130    1.0107   20.5631 C   0  0  0  0  0  0  0  0  0  0  0  0
    7.5204    0.2456   19.9473 C   0  0  0  0  0  0  0  0  0  0  0  0
    5.0014    1.1960   19.2163 C   0  0  0  0  0  0  0  0  0  0  0  0
    7.2088    0.4309   18.6004 C   0  0  0  0  0  0  0  0  0  0  0  0
   11.4361   -1.3402   23.2600 C   0  0  0  0  0  0  0  0  0  0  0  0
    6.5725    0.5355   20.9287 C   0  0  0  0  0  0  0  0  0  0  0  0
    5.9493    0.9061   18.2349 C   0  0  0  0  0  0  0  0  0  0  0  0
    9.5833    3.0770   22.8627 C   0  0  0  0  0  0  0  0  0  0  0  0
    6.5844    2.7856   23.0837 C   0  0  0  0  0  0  0  0  0  0  0  0
   10.7817    3.2451   21.9666 C   0  0  0  0  0  0  0  0  0  0  0  0
    5.9557    4.8115   21.7972 C   0  0  0  0  0  0  0  0  0  0  0  0
    9.9690   -1.6932   23.2631 C   0  0  0  0  0  0  0  0  0  0  0  0
    6.9107    0.3336   22.3911 C   0  0  0  0  0  0  0  0  0  0  0  0
    9.2573   -1.2700   24.5458 C   0  0  0  0  0  0  0  0  0  0  0  0
    7.5386    1.5614   23.1143 C   0  0  1  0  0  0  0  0  0  0  0  0
    6.7448    3.6173   21.9873 N   0  0  0  0  0  0  0  0  0  0  0  0
    8.7776    2.0261   22.4547 N   0  0  0  0  0  0  0  0  0  0  0  0
    9.3024    0.1836   24.7627 N   0  0  0  0  0  0  0  0  0  0  0  0
    9.4081    3.8006   23.8381 O   0  0  0  0  0  0  0  0  0  0  0  0
    5.7608    3.0005   23.9751 O   0  0  0  0  0  0  0  0  0  0  0  0
    8.1313    2.2865   25.6687 O   0  0  0  0  0  0  0  0  0  0  0  0
    6.8178    0.1878   25.3141 O   0  0  0  0  0  0  0  0  0  0  0  0
    5.6447    1.0858   16.9205 O   0  0  0  0  0  0  0  0  0  0  0  0
    7.8682    1.0941   24.8860 S   0  0  0  0  0  0  0  0  0  0  0  0
    7.9545    8.4360   23.7180 Br  0  0  0  0  0  0  0  0  0  0  0  0
   15.2046   -0.4342   23.2537 H   0  0  0  0  0  0  0  0  0  0  0  0
   13.9450   -0.5167   21.1179 H   0  0  0  0  0  0  0  0  0  0  0  0
   14.0515   -0.9322   25.3937 H   0  0  0  0  0  0  0  0  0  0  0  0
   11.5405   -1.0938   21.1165 H   0  0  0  0  0  0  0  0  0  0  0  0
   11.6476   -1.5103   25.4030 H   0  0  0  0  0  0  0  0  0  0  0  0
    4.5685    1.2392   21.3210 H   0  0  0  0  0  0  0  0  0  0  0  0
    8.5043   -0.1250   20.2229 H   0  0  0  0  0  0  0  0  0  0  0  0
    4.0184    1.5663   18.9377 H   0  0  0  0  0  0  0  0  0  0  0  0
    7.9513    0.2030   17.8408 H   0  0  0  0  0  0  0  0  0  0  0  0
   10.5508    3.9287   21.1444 H   0  0  0  0  0  0  0  0  0  0  0  0
   11.0723    2.2720   21.5617 H   0  0  0  0  0  0  0  0  0  0  0  0
   11.6146    3.6606   22.5403 H   0  0  0  0  0  0  0  0  0  0  0  0
    5.8303    4.9546   20.7201 H   0  0  0  0  0  0  0  0  0  0  0  0
    4.9712    4.6304   22.2389 H   0  0  0  0  0  0  0  0  0  0  0  0
    9.8721   -2.7789   23.1360 H   0  0  0  0  0  0  0  0  0  0  0  0
    9.4770   -1.2423   22.3918 H   0  0  0  0  0  0  0  0  0  0  0  0
    7.5761   -0.5359   22.4650 H   0  0  0  0  0  0  0  0  0  0  0  0
    5.9994    0.0146   22.9146 H   0  0  0  0  0  0  0  0  0  0  0  0
    8.2001   -1.5489   24.4951 H   0  0  0  0  0  0  0  0  0  0  0  0
    9.6950   -1.7493   25.4276 H   0  0  0  0  0  0  0  0  0  0  0  0
    7.4435    3.3780   21.2913 H   0  0  0  0  0  0  0  0  0  0  0  0
    9.0529    1.5360   21.6080 H   0  0  0  0  0  0  0  0  0  0  0  0
   10.1315    0.6486   24.3717 H   0  0  0  0  0  0  0  0  0  0  0  0
    6.4012    0.8424   16.3636 H   0  0  0  0  0  0  0  0  0  0  0  0
  1  2  3  0  0  0  0
  1 18  1  0  0  0  0
  2 32  1  0  0  0  0
  3  4  1  0  0  0  0
  3  5  2  0  0  0  0
  4  6  2  0  0  0  0
  5  7  1  0  0  0  0
  6 12  1  0  0  0  0
  7 12  2  0  0  0  0
  8 10  2  0  0  0  0
  8 13  1  0  0  0  0
  9 11  1  0  0  0  0
  9 13  2  0  0  0  0
 10 14  1  0  0  0  0
 11 14  2  0  0  0  0
 12 19  1  0  0  0  0
 13 20  1  0  0  0  0
 14 30  1  0  0  0  0
 15 17  1  0  0  0  0
 15 24  1  0  0  0  0
 15 26  2  0  0  0  0
 16 22  1  0  0  0  0
 16 23  1  0  0  0  0
 16 27  2  0  0  0  0
 18 23  1  0  0  0  0
 19 21  1  0  0  0  0
 20 22  1  0  0  0  0
 21 25  1  0  0  0  0
 22 24  1  0  0  0  0
 22 31  1  0  0  0  0
 25 31  1  0  0  0  0
 28 31  2  0  0  0  0
 29 31  2  0  0  0  0
  3 33  1  0  0  0  0
  4 34  1  0  0  0  0
  5 35  1  0  0  0  0
  6 36  1  0  0  0  0
  7 37  1  0  0  0  0
  8 38  1  0  0  0  0
  9 39  1  0  0  0  0
 10 40  1  0  0  0  0
 11 41  1  0  0  0  0
 17 42  1  0  0  0  0
 17 43  1  0  0  0  0
 17 44  1  0  0  0  0
 18 45  1  0  0  0  0
 18 46  1  0  0  0  0
 19 47  1  0  0  0  0
 19 48  1  0  0  0  0
 20 49  1  0  0  0  0
 20 50  1  0  0  0  0
 21 51  1  0  0  0  0
 21 52  1  0  0  0  0
 23 53  1  0  0  0  0
 24 54  1  0  0  0  0
 25 55  1  0  0  0  0
 30 56  1  0  0  0  0
M  END
> <creator>
Maksym Voznyy

> <fragments>
x0967

> <real_space>
FALSE

> <SCR>
FALSE

> <BB>
FALSE

> <link>
https://covid.postera.ai/covid/submissions/c44f4be0-55d2-49d8-8adb-cb0f0569aa6b

> <covalent_frag>
FALSE

> <covalent_warhead>
TRUE

> <acrylamide>
FALSE

> <acrylamide_adduct>
FALSE

> <chloroacetamide>
FALSE

> <chloroacetamide_adduct>
TRUE

> <vinylsulfonamide>
FALSE

> <vinylsulfonamide_adduct>
FALSE

> <in_molport_or_mcule>
FALSE

> <in_emolecules>
FALSE

> <Hybrid2>
-5.320551

> <Mpro-x0967_dock>
-5.320551

> <Mpro-x0072_dock>
-4.600622

> <site>
active-noncovalent

> <covalent_distance_min>
6.353566

> <covalent_distance_mean>
7.166416

> <covalent_distance_stderr>
0.039103452

$$$$
KAT-FAI-9b6-2
  -OEChem-04062011563D

 58 61  0     1  0  0  0  0  0999 V2000
   14.0616   -2.1615   21.7388 C   0  0  0  0  0  0  0  0  0  0  0  0
   13.2076   -3.2244   21.4451 C   0  0  0  0  0  0  0  0  0  0  0  0
    6.3554   -0.9038   25.1338 C   0  0  0  0  0  0  0  0  0  0  0  0
    7.1297   -1.6849   24.2759 C   0  0  0  0  0  0  0  0  0  0  0  0
    6.9471   -0.2750   26.2294 C   0  0  0  0  0  0  0  0  0  0  0  0
   13.5502   -0.9892   22.2955 C   0  0  0  0  0  0  0  0  0  0  0  0
   11.8421   -3.1151   21.7079 C   0  0  0  0  0  0  0  0  0  0  0  0
    9.0874   -1.2085   25.6092 C   0  0  0  0  0  0  0  0  0  0  0  0
    8.4957   -1.8373   24.5136 C   0  0  0  0  0  0  0  0  0  0  0  0
    8.3131   -0.4274   26.4671 C   0  0  0  0  0  0  0  0  0  0  0  0
   12.1847   -0.8798   22.5583 C   0  0  0  0  0  0  0  0  0  0  0  0
   11.3306   -1.9428   22.2645 C   0  0  0  0  0  0  0  0  0  0  0  0
    6.5755   -4.1637   21.5380 C   0  0  0  0  0  0  0  0  0  0  0  0
    9.0293   -1.3411   21.5102 C   0  0  0  0  0  0  0  0  0  0  0  0
    8.3415   -2.5030   20.8007 C   0  0  0  0  0  0  0  0  0  0  0  0
   12.1447    0.8061   24.4096 C   0  0  0  0  0  0  0  0  0  0  0  0
   11.0634    1.3167   22.2689 C   0  0  0  0  0  0  0  0  0  0  0  0
    8.6354   -3.8722   22.8679 C   0  0  0  0  0  0  0  0  0  0  0  0
   13.0968    1.9731   24.1707 C   0  0  0  0  0  0  0  0  0  0  0  0
   12.0461    2.4774   22.1075 C   0  0  0  0  0  0  0  0  0  0  0  0
    9.3431   -2.6915   23.5729 C   0  0  1  0  0  0  0  0  0  0  0  0
    8.9456    0.2444   27.6390 C   0  0  0  0  0  0  0  0  0  0  0  0
    6.1476   -5.1208   22.6222 C   0  0  0  0  0  0  0  0  0  0  0  0
   11.6962    0.2968   23.1118 N   0  0  0  0  0  0  0  0  0  0  0  0
    9.9601   -1.8544   22.5197 N   0  0  1  0  0  0  0  0  0  0  0  0
    7.7693   -3.4674   21.7516 N   0  0  0  0  0  0  0  0  0  0  0  0
    5.8749   -4.0436   20.5295 O   0  0  0  0  0  0  0  0  0  0  0  0
   12.4470    2.9810   23.3868 O   0  0  0  0  0  0  0  0  0  0  0  0
    4.6031   -5.9125   22.1435 S   0  0  0  0  0  0  0  0  0  0  0  0
   15.1249   -2.2469   21.5347 H   0  0  0  0  0  0  0  0  0  0  0  0
   13.6060   -4.1375   21.0125 H   0  0  0  0  0  0  0  0  0  0  0  0
    5.2918   -0.7851   24.9485 H   0  0  0  0  0  0  0  0  0  0  0  0
    6.6601   -2.1706   23.4245 H   0  0  0  0  0  0  0  0  0  0  0  0
    6.3360    0.3311   26.8929 H   0  0  0  0  0  0  0  0  0  0  0  0
   14.2256   -0.1675   22.5199 H   0  0  0  0  0  0  0  0  0  0  0  0
   11.1864   -3.9504   21.4753 H   0  0  0  0  0  0  0  0  0  0  0  0
   10.1525   -1.3262   25.7945 H   0  0  0  0  0  0  0  0  0  0  0  0
    9.5364   -0.6964   20.7837 H   0  0  0  0  0  0  0  0  0  0  0  0
    8.2802   -0.7173   22.0108 H   0  0  0  0  0  0  0  0  0  0  0  0
    7.5412   -2.1306   20.1662 H   0  0  0  0  0  0  0  0  0  0  0  0
    9.0569   -3.0378   20.1794 H   0  0  0  0  0  0  0  0  0  0  0  0
   12.6548    0.0277   24.9865 H   0  0  0  0  0  0  0  0  0  0  0  0
   11.2761    1.1505   24.9829 H   0  0  0  0  0  0  0  0  0  0  0  0
   10.1506    1.6726   22.7550 H   0  0  0  0  0  0  0  0  0  0  0  0
   10.8054    0.9154   21.2865 H   0  0  0  0  0  0  0  0  0  0  0  0
    9.3894   -4.6004   22.5177 H   0  0  0  0  0  0  0  0  0  0  0  0
    7.9969   -4.4353   23.5751 H   0  0  0  0  0  0  0  0  0  0  0  0
   13.3763    2.4252   25.1247 H   0  0  0  0  0  0  0  0  0  0  0  0
   14.0144    1.6501   23.6710 H   0  0  0  0  0  0  0  0  0  0  0  0
   12.9307    2.1777   21.5335 H   0  0  0  0  0  0  0  0  0  0  0  0
   11.5633    3.2962   21.5655 H   0  0  0  0  0  0  0  0  0  0  0  0
   10.1823   -3.1290   24.1811 H   0  0  0  0  0  0  0  0  0  0  0  0
    8.9144   -0.4113   28.5177 H   0  0  0  0  0  0  0  0  0  0  0  0
    9.9927    0.5014   27.4335 H   0  0  0  0  0  0  0  0  0  0  0  0
    8.4309    1.1821   27.8860 H   0  0  0  0  0  0  0  0  0  0  0  0
    6.0132   -4.5654   23.5453 H   0  0  0  0  0  0  0  0  0  0  0  0
    6.9255   -5.8650   22.7619 H   0  0  0  0  0  0  0  0  0  0  0  0
    5.0611   -6.4827   21.0189 H   0  0  0  0  0  0  0  0  0  0  0  0
  1  2  1  0  0  0  0
  1  6  2  0  0  0  0
  2  7  2  0  0  0  0
  3  4  1  0  0  0  0
  3  5  2  0  0  0  0
  4  9  2  0  0  0  0
  5 10  1  0  0  0  0
  6 11  1  0  0  0  0
  7 12  1  0  0  0  0
  8  9  1  0  0  0  0
  8 10  2  0  0  0  0
  9 21  1  0  0  0  0
 10 22  1  0  0  0  0
 11 12  2  0  0  0  0
 11 24  1  0  0  0  0
 12 25  1  0  0  0  0
 13 23  1  0  0  0  0
 13 26  1  0  0  0  0
 13 27  2  0  0  0  0
 14 15  1  0  0  0  0
 14 25  1  0  0  0  0
 15 26  1  0  0  0  0
 16 19  1  0  0  0  0
 16 24  1  0  0  0  0
 17 20  1  0  0  0  0
 17 24  1  0  0  0  0
 18 21  1  0  0  0  0
 18 26  1  0  0  0  0
 19 28  1  0  0  0  0
 20 28  1  0  0  0  0
 21 25  1  0  0  0  0
 23 29  1  0  0  0  0
  1 30  1  0  0  0  0
  2 31  1  0  0  0  0
  3 32  1  0  0  0  0
  4 33  1  0  0  0  0
  5 34  1  0  0  0  0
  6 35  1  0  0  0  0
  7 36  1  0  0  0  0
  8 37  1  0  0  0  0
 14 38  1  0  0  0  0
 14 39  1  0  0  0  0
 15 40  1  0  0  0  0
 15 41  1  0  0  0  0
 16 42  1  0  0  0  0
 16 43  1  0  0  0  0
 17 44  1  0  0  0  0
 17 45  1  0  0  0  0
 18 46  1  0  0  0  0
 18 47  1  0  0  0  0
 19 48  1  0  0  0  0
 19 49  1  0  0  0  0
 20 50  1  0  0  0  0
 20 51  1  0  0  0  0
 21 52  1  0  0  0  0
 22 53  1  0  0  0  0
 22 54  1  0  0  0  0
 22 55  1  0  0  0  0
 23 56  1  0  0  0  0
 23 57  1  0  0  0  0
 29 58  1  0  0  0  0
M  END
> <creator>
Kathleen Frey, Fairleigh Dickinson University

> <fragments>
x0708

> <real_space>
FALSE

> <SCR>
FALSE

> <BB>
FALSE

> <link>
https://covid.postera.ai/covid/submissions/9b65c29e-39dc-40b1-b388-d5c5a2718f9c

> <covalent_frag>
TRUE

> <covalent_warhead>
TRUE

> <acrylamide>
FALSE

> <acrylamide_adduct>
FALSE

> <chloroacetamide>
FALSE

> <chloroacetamide_adduct>
TRUE

> <vinylsulfonamide>
FALSE

> <vinylsulfonamide_adduct>
FALSE

> <in_molport_or_mcule>
FALSE

> <in_emolecules>
FALSE

> <Hybrid2>
-5.312636

> <Mpro-x0708_dock>
-5.312636

> <Mpro-x0689_dock>
0.510862

> <site>
active-covalent

> <covalent_distance_min>
3.684317

> <covalent_distance_mean>
4.2742114

> <covalent_distance_stderr>
0.023810139

$$$$
JAN-GHE-bf4-10
  -OEChem-04062011563D

 40 42  0     1  0  0  0  0  0999 V2000
    5.7752   -2.8937   20.2605 C   0  0  0  0  0  0  0  0  0  0  0  0
    5.1533   -2.9923   22.6491 C   0  0  0  0  0  0  0  0  0  0  0  0
    5.4529   -3.2340   23.9331 C   0  0  0  0  0  0  0  0  0  0  0  0
    7.4751   -3.0381   21.9496 C   0  0  0  0  0  0  0  0  0  0  0  0
    8.1851   -5.2681   24.1792 C   0  0  0  0  0  0  0  0  0  0  0  0
    6.1728   -2.9884   21.6229 C   0  0  0  0  0  0  0  0  0  0  0  0
    9.1267    2.1324   24.0911 C   0  0  0  0  0  0  0  0  0  0  0  0
   10.4112    2.1850   24.4497 C   0  0  0  0  0  0  0  0  0  0  0  0
   11.4054    1.4509   23.6460 C   0  0  0  0  0  0  0  0  0  0  0  0
   10.2259   -0.8171   24.1114 C   0  0  0  0  0  0  0  0  0  0  0  0
   12.0140   -0.9279   22.9357 C   0  0  0  0  0  0  0  0  0  0  0  0
    7.9569   -3.1025   23.3828 C   0  0  1  0  0  0  0  0  0  0  0  0
    6.8571   -3.5018   24.3942 C   0  0  2  0  0  0  0  0  0  0  0  0
    9.0228   -4.1765   23.5929 C   0  0  1  0  0  0  0  0  0  0  0  0
   10.8296   -1.8736   23.1752 C   0  0  0  0  0  0  0  0  0  0  0  0
   10.0985   -3.7731   24.5907 C   0  0  0  0  0  0  0  0  0  0  0  0
    5.4511   -2.8166   19.1493 N   0  0  0  0  0  0  0  0  0  0  0  0
    7.0124   -4.9574   24.6247 N   0  0  0  0  0  0  0  0  0  0  0  0
   11.2113    0.1020   23.5719 N   0  0  0  0  0  0  0  0  0  0  0  0
   11.2050   -3.1154   23.8627 N   0  3  0  0  0  0  0  0  0  0  0  0
   12.3250    2.0588   23.1039 O   0  0  0  0  0  0  0  0  0  0  0  0
    4.1224   -2.8089   22.3617 H   0  0  0  0  0  0  0  0  0  0  0  0
    4.6593   -3.2460   24.6746 H   0  0  0  0  0  0  0  0  0  0  0  0
    8.2366   -2.9941   21.1737 H   0  0  0  0  0  0  0  0  0  0  0  0
    8.5829   -6.2919   24.2390 H   0  0  0  0  0  0  0  0  0  0  0  0
    8.3495    2.6511   24.6424 H   0  0  0  0  0  0  0  0  0  0  0  0
    8.8276    1.5569   23.2215 H   0  0  0  0  0  0  0  0  0  0  0  0
   10.7483    2.7482   25.3100 H   0  0  0  0  0  0  0  0  0  0  0  0
    9.1910   -0.5480   23.8847 H   0  0  0  0  0  0  0  0  0  0  0  0
   10.3501   -0.9829   25.1857 H   0  0  0  0  0  0  0  0  0  0  0  0
   12.9347   -1.1396   23.4877 H   0  0  0  0  0  0  0  0  0  0  0  0
   12.2395   -0.7246   21.8857 H   0  0  0  0  0  0  0  0  0  0  0  0
    8.3496   -2.1058   23.6234 H   0  0  0  0  0  0  0  0  0  0  0  0
    7.0254   -2.9785   25.3442 H   0  0  0  0  0  0  0  0  0  0  0  0
    9.4824   -4.5248   22.6625 H   0  0  0  0  0  0  0  0  0  0  0  0
   10.2269   -2.0586   22.2755 H   0  0  0  0  0  0  0  0  0  0  0  0
   10.5134   -4.6438   25.0991 H   0  0  0  0  0  0  0  0  0  0  0  0
    9.7149   -3.0576   25.3184 H   0  0  0  0  0  0  0  0  0  0  0  0
   11.6003   -3.7707   23.1704 H   0  0  0  0  0  0  0  0  0  0  0  0
   11.9760   -2.9112   24.5176 H   0  0  0  0  0  0  0  0  0  0  0  0
  1  6  1  0  0  0  0
  1 17  3  0  0  0  0
  2  3  2  0  0  0  0
  2  6  1  0  0  0  0
  3 13  1  0  0  0  0
  4  6  2  0  0  0  0
  4 12  1  0  0  0  0
  5 14  1  0  0  0  0
  5 18  2  0  0  0  0
  7  8  2  0  0  0  0
  8  9  1  0  0  0  0
  9 19  1  0  0  0  0
  9 21  2  0  0  0  0
 10 15  1  0  0  0  0
 10 19  1  0  0  0  0
 11 15  1  0  0  0  0
 11 19  1  0  0  0  0
 12 13  1  0  0  0  0
 12 14  1  0  0  0  0
 13 18  1  0  0  0  0
 14 16  1  0  0  0  0
 15 20  1  0  0  0  0
 16 20  1  0  0  0  0
  2 22  1  0  0  0  0
  3 23  1  0  0  0  0
  4 24  1  0  0  0  0
  5 25  1  0  0  0  0
  7 26  1  0  0  0  0
  7 27  1  0  0  0  0
  8 28  1  0  0  0  0
 10 29  1  0  0  0  0
 10 30  1  0  0  0  0
 11 31  1  0  0  0  0
 11 32  1  0  0  0  0
 12 33  1  0  0  0  0
 13 34  1  0  0  0  0
 14 35  1  0  0  0  0
 15 36  1  0  0  0  0
 16 37  1  0  0  0  0
 16 38  1  0  0  0  0
 20 39  1  0  0  0  0
 20 40  1  0  0  0  0
M  CHG  1  20   1
M  END
> <creator>
Jan, Ghent university

> <fragments>
x0692

> <real_space>
FALSE

> <SCR>
FALSE

> <BB>
FALSE

> <link>
https://covid.postera.ai/covid/submissions/bf40f168-4eec-438e-a3f5-b4da0b83bc9c

> <covalent_frag>
TRUE

> <covalent_warhead>
TRUE

> <acrylamide>
TRUE

> <acrylamide_adduct>
FALSE

> <chloroacetamide>
FALSE

> <chloroacetamide_adduct>
FALSE

> <vinylsulfonamide>
FALSE

> <vinylsulfonamide_adduct>
FALSE

> <in_molport_or_mcule>
FALSE

> <in_emolecules>
FALSE

> <Hybrid2>
-5.285728

> <Mpro-x0692_dock>
-5.285728

> <Mpro-x0305_dock>
-4.298417

> <Mpro-x0755_dock>
0.022472

> <site>
active-covalent

> <covalent_distance_min>
6.7687054

> <covalent_distance_mean>
8.112052

> <covalent_distance_stderr>
0.07550372

$$$$
DAN-LON-a5f-4
  -OEChem-04062011563D

 44 45  0     1  0  0  0  0  0999 V2000
   12.5180   -1.9825   22.2967 C   0  0  0  0  0  0  0  0  0  0  0  0
   11.4433   -2.4568   23.0489 C   0  0  0  0  0  0  0  0  0  0  0  0
   12.8928   -0.6417   22.3843 C   0  0  0  0  0  0  0  0  0  0  0  0
   11.1180   -0.2496   23.9760 C   0  0  0  0  0  0  0  0  0  0  0  0
   10.7433   -1.5903   23.8885 C   0  0  0  0  0  0  0  0  0  0  0  0
   12.1928    0.2247   23.2239 C   0  0  0  0  0  0  0  0  0  0  0  0
    6.0049   -2.4379   20.3299 C   0  0  0  0  0  0  0  0  0  0  0  0
    6.5278   -1.3182   22.5421 C   0  0  0  0  0  0  0  0  0  0  0  0
    7.8358   -1.0508   23.2691 C   0  0  0  0  0  0  0  0  0  0  0  0
    8.5644   -3.3838   22.8203 C   0  0  0  0  0  0  0  0  0  0  0  0
    7.2607   -3.6664   22.0713 C   0  0  1  0  0  0  0  0  0  0  0  0
    4.9777   -4.7095   22.1306 C   0  0  0  0  0  0  0  0  0  0  0  0
    6.8947   -5.8158   23.3159 C   0  0  0  0  0  0  0  0  0  0  0  0
    9.5867   -2.1010   24.6962 C   0  0  0  0  0  0  0  0  0  0  0  0
    5.8056   -1.1015   19.6597 C   0  0  0  0  0  0  0  0  0  0  0  0
    6.2714   -4.4852   22.9069 C   0  0  0  0  0  0  0  0  0  0  0  0
    6.6279   -2.4272   21.5835 N   0  0  0  0  0  0  0  0  0  0  0  0
    8.3488   -2.3297   23.8736 N   0  3  1  0  0  0  0  0  0  0  0  0
    5.6222   -3.4613   19.7565 O   0  0  0  0  0  0  0  0  0  0  0  0
   12.6549    1.8790   23.3307 Cl  0  0  0  0  0  0  0  0  0  0  0  0
    7.4032   -0.3856   19.4790 Cl  0  0  0  0  0  0  0  0  0  0  0  0
   13.0627   -2.6575   21.6429 H   0  0  0  0  0  0  0  0  0  0  0  0
   11.1582   -3.5030   22.9743 H   0  0  0  0  0  0  0  0  0  0  0  0
   13.7322   -0.2859   21.7921 H   0  0  0  0  0  0  0  0  0  0  0  0
   10.5694    0.4218   24.6325 H   0  0  0  0  0  0  0  0  0  0  0  0
    5.7393   -1.5811   23.2570 H   0  0  0  0  0  0  0  0  0  0  0  0
    6.2109   -0.3959   22.0510 H   0  0  0  0  0  0  0  0  0  0  0  0
    8.6058   -0.6660   22.5908 H   0  0  0  0  0  0  0  0  0  0  0  0
    7.6818   -0.3389   24.0868 H   0  0  0  0  0  0  0  0  0  0  0  0
    8.9349   -4.2830   23.3247 H   0  0  0  0  0  0  0  0  0  0  0  0
    9.3392   -3.0126   22.1391 H   0  0  0  0  0  0  0  0  0  0  0  0
    7.5202   -4.2835   21.2020 H   0  0  0  0  0  0  0  0  0  0  0  0
    5.1563   -5.2772   21.2108 H   0  0  0  0  0  0  0  0  0  0  0  0
    4.5173   -3.7549   21.8551 H   0  0  0  0  0  0  0  0  0  0  0  0
    4.2560   -5.2665   22.7374 H   0  0  0  0  0  0  0  0  0  0  0  0
    7.1462   -6.4256   22.4413 H   0  0  0  0  0  0  0  0  0  0  0  0
    6.2025   -6.3897   23.9411 H   0  0  0  0  0  0  0  0  0  0  0  0
    7.8121   -5.6562   23.8923 H   0  0  0  0  0  0  0  0  0  0  0  0
    9.8283   -3.0568   25.1734 H   0  0  0  0  0  0  0  0  0  0  0  0
    9.3130   -1.3934   25.4863 H   0  0  0  0  0  0  0  0  0  0  0  0
    5.1880   -0.4782   20.2962 H   0  0  0  0  0  0  0  0  0  0  0  0
    5.3563   -1.2605   18.6863 H   0  0  0  0  0  0  0  0  0  0  0  0
    6.0394   -3.9160   23.8133 H   0  0  0  0  0  0  0  0  0  0  0  0
    7.6308   -2.6748   24.5243 H   0  0  0  0  0  0  0  0  0  0  0  0
  1  2  2  0  0  0  0
  1  3  1  0  0  0  0
  2  5  1  0  0  0  0
  3  6  2  0  0  0  0
  4  5  2  0  0  0  0
  4  6  1  0  0  0  0
  5 14  1  0  0  0  0
  6 20  1  0  0  0  0
  7 15  1  0  0  0  0
  7 17  1  0  0  0  0
  7 19  2  0  0  0  0
  8  9  1  0  0  0  0
  8 17  1  0  0  0  0
  9 18  1  0  0  0  0
 10 11  1  0  0  0  0
 10 18  1  0  0  0  0
 11 16  1  0  0  0  0
 11 17  1  0  0  0  0
 12 16  1  0  0  0  0
 13 16  1  0  0  0  0
 14 18  1  0  0  0  0
 15 21  1  0  0  0  0
  1 22  1  0  0  0  0
  2 23  1  0  0  0  0
  3 24  1  0  0  0  0
  4 25  1  0  0  0  0
  8 26  1  0  0  0  0
  8 27  1  0  0  0  0
  9 28  1  0  0  0  0
  9 29  1  0  0  0  0
 10 30  1  0  0  0  0
 10 31  1  0  0  0  0
 11 32  1  0  0  0  0
 12 33  1  0  0  0  0
 12 34  1  0  0  0  0
 12 35  1  0  0  0  0
 13 36  1  0  0  0  0
 13 37  1  0  0  0  0
 13 38  1  0  0  0  0
 14 39  1  0  0  0  0
 14 40  1  0  0  0  0
 15 41  1  0  0  0  0
 15 42  1  0  0  0  0
 16 43  1  0  0  0  0
 18 44  1  0  0  0  0
M  CHG  1  18   1
M  END
> <creator>
Daniel Zaidman, London Lab, Weizmann Institute of Science

> <fragments>
x0770

> <real_space>
FALSE

> <SCR>
FALSE

> <BB>
FALSE

> <link>
https://covid.postera.ai/covid/submissions/a5fc619e-a7a0-43cf-a105-697cf3dc31cf

> <covalent_frag>
TRUE

> <covalent_warhead>
TRUE

> <acrylamide>
FALSE

> <acrylamide_adduct>
FALSE

> <chloroacetamide>
TRUE

> <chloroacetamide_adduct>
FALSE

> <vinylsulfonamide>
FALSE

> <vinylsulfonamide_adduct>
FALSE

> <in_molport_or_mcule>
FALSE

> <in_emolecules>
FALSE

> <Hybrid2>
-5.240683

> <Mpro-x0770_dock>
-5.240683

> <site>
active-covalent

> <covalent_distance_min>
3.0168092

> <covalent_distance_mean>
3.5821073

> <covalent_distance_stderr>
0.034280173

$$$$
DAN-LON-a5f-2
  -OEChem-04062011563D

 41 42  0     1  0  0  0  0  0999 V2000
   11.7073    0.0642   24.4455 C   0  0  0  0  0  0  0  0  0  0  0  0
   10.7429   -0.9376   24.5551 C   0  0  0  0  0  0  0  0  0  0  0  0
   12.6453    0.0194   23.4141 C   0  0  0  0  0  0  0  0  0  0  0  0
   11.6547   -2.0290   22.6020 C   0  0  0  0  0  0  0  0  0  0  0  0
   10.7166   -1.9842   23.6334 C   0  0  0  0  0  0  0  0  0  0  0  0
   12.6190   -1.0272   22.4924 C   0  0  0  0  0  0  0  0  0  0  0  0
    5.9580   -2.7547   19.7350 C   0  0  0  0  0  0  0  0  0  0  0  0
    7.1937   -1.3678   21.4443 C   0  0  0  0  0  0  0  0  0  0  0  0
    6.2280   -3.5628   22.0597 C   0  0  0  0  0  0  0  0  0  0  0  0
    7.9526   -1.5649   22.7503 C   0  0  0  0  0  0  0  0  0  0  0  0
    7.5341   -4.0793   22.7124 C   0  0  0  0  0  0  0  0  0  0  0  0
    8.1217   -5.2258   21.8734 C   0  0  0  0  0  0  0  0  0  0  0  0
    7.2228   -4.5650   24.1352 C   0  0  0  0  0  0  0  0  0  0  0  0
    9.6798   -3.0620   23.7526 C   0  0  0  0  0  0  0  0  0  0  0  0
    6.1822   -1.6244   18.7601 C   0  0  0  0  0  0  0  0  0  0  0  0
    6.4765   -2.5711   21.0172 N   0  0  0  0  0  0  0  0  0  0  0  0
    8.5810   -2.9403   22.7286 N   0  3  2  0  0  0  0  0  0  0  0  0
    5.3531   -3.7643   19.3672 O   0  0  0  0  0  0  0  0  0  0  0  0
   13.7773   -1.0824   21.2208 Cl  0  0  0  0  0  0  0  0  0  0  0  0
    5.3791   -0.2109   19.4345 Cl  0  0  0  0  0  0  0  0  0  0  0  0
   11.7275    0.8789   25.1636 H   0  0  0  0  0  0  0  0  0  0  0  0
   10.0160   -0.8947   25.3620 H   0  0  0  0  0  0  0  0  0  0  0  0
   13.3914    0.8069   23.3411 H   0  0  0  0  0  0  0  0  0  0  0  0
   11.6297   -2.8468   21.8855 H   0  0  0  0  0  0  0  0  0  0  0  0
    6.4997   -0.5201   21.5515 H   0  0  0  0  0  0  0  0  0  0  0  0
    7.8886   -1.0964   20.6325 H   0  0  0  0  0  0  0  0  0  0  0  0
    5.6850   -4.3923   21.5827 H   0  0  0  0  0  0  0  0  0  0  0  0
    5.5596   -3.1731   22.8348 H   0  0  0  0  0  0  0  0  0  0  0  0
    8.7574   -0.8374   22.8259 H   0  0  0  0  0  0  0  0  0  0  0  0
    7.3013   -1.4953   23.6168 H   0  0  0  0  0  0  0  0  0  0  0  0
    9.0355   -5.5792   22.3400 H   0  0  0  0  0  0  0  0  0  0  0  0
    8.3386   -4.8634   20.8739 H   0  0  0  0  0  0  0  0  0  0  0  0
    7.4018   -6.0360   21.8201 H   0  0  0  0  0  0  0  0  0  0  0  0
    8.1344   -4.9290   24.5998 H   0  0  0  0  0  0  0  0  0  0  0  0
    6.4925   -5.3675   24.0908 H   0  0  0  0  0  0  0  0  0  0  0  0
    6.8221   -3.7410   24.7181 H   0  0  0  0  0  0  0  0  0  0  0  0
   10.1237   -4.0547   23.6211 H   0  0  0  0  0  0  0  0  0  0  0  0
    9.1974   -3.0398   24.7358 H   0  0  0  0  0  0  0  0  0  0  0  0
    5.7355   -1.8876   17.8082 H   0  0  0  0  0  0  0  0  0  0  0  0
    7.2471   -1.4416   18.6732 H   0  0  0  0  0  0  0  0  0  0  0  0
    9.0559   -3.0072   21.8097 H   0  0  0  0  0  0  0  0  0  0  0  0
  1  2  2  0  0  0  0
  1  3  1  0  0  0  0
  2  5  1  0  0  0  0
  3  6  2  0  0  0  0
  4  5  2  0  0  0  0
  4  6  1  0  0  0  0
  5 14  1  0  0  0  0
  6 19  1  0  0  0  0
  7 15  1  0  0  0  0
  7 16  1  0  0  0  0
  7 18  2  0  0  0  0
  8 10  1  0  0  0  0
  8 16  1  0  0  0  0
  9 11  1  0  0  0  0
  9 16  1  0  0  0  0
 10 17  1  0  0  0  0
 11 12  1  0  0  0  0
 11 13  1  0  0  0  0
 11 17  1  0  0  0  0
 14 17  1  0  0  0  0
 15 20  1  0  0  0  0
  1 21  1  0  0  0  0
  2 22  1  0  0  0  0
  3 23  1  0  0  0  0
  4 24  1  0  0  0  0
  8 25  1  0  0  0  0
  8 26  1  0  0  0  0
  9 27  1  0  0  0  0
  9 28  1  0  0  0  0
 10 29  1  0  0  0  0
 10 30  1  0  0  0  0
 12 31  1  0  0  0  0
 12 32  1  0  0  0  0
 12 33  1  0  0  0  0
 13 34  1  0  0  0  0
 13 35  1  0  0  0  0
 13 36  1  0  0  0  0
 14 37  1  0  0  0  0
 14 38  1  0  0  0  0
 15 39  1  0  0  0  0
 15 40  1  0  0  0  0
 17 41  1  0  0  0  0
M  CHG  1  17   1
M  END
> <creator>
Daniel Zaidman, London Lab, Weizmann Institute of Science

> <fragments>
x0770

> <real_space>
FALSE

> <SCR>
FALSE

> <BB>
FALSE

> <link>
https://covid.postera.ai/covid/submissions/a5fc619e-a7a0-43cf-a105-697cf3dc31cf

> <covalent_frag>
TRUE

> <covalent_warhead>
TRUE

> <acrylamide>
FALSE

> <acrylamide_adduct>
FALSE

> <chloroacetamide>
TRUE

> <chloroacetamide_adduct>
FALSE

> <vinylsulfonamide>
FALSE

> <vinylsulfonamide_adduct>
FALSE

> <in_molport_or_mcule>
FALSE

> <in_emolecules>
FALSE

> <Hybrid2>
-5.224834

> <Mpro-x0770_dock>
-5.224834

> <site>
active-covalent

> <covalent_distance_min>
3.015276

> <covalent_distance_mean>
3.4557314

> <covalent_distance_stderr>
0.007760479

$$$$
TOB-UNK-c2a-2
  -OEChem-04062011563D

 28 28  0     0  0  0  0  0  0999 V2000
   12.5774   -0.7236   22.6004 C   0  0  0  0  0  0  0  0  0  0  0  0
   11.7288   -1.5004   22.9437 C   0  0  0  0  0  0  0  0  0  0  0  0
    6.2440   -0.7775   18.3084 C   0  0  0  0  0  0  0  0  0  0  0  0
    5.5895   -0.9932   19.4514 C   0  0  0  0  0  0  0  0  0  0  0  0
    6.0451   -2.0811   20.3399 C   0  0  0  0  0  0  0  0  0  0  0  0
    8.0382   -0.7409   21.2087 C   0  0  0  0  0  0  0  0  0  0  0  0
    6.9610   -2.4765   22.5929 C   0  0  0  0  0  0  0  0  0  0  0  0
    9.4108   -1.3020   21.5610 C   0  0  0  0  0  0  0  0  0  0  0  0
    8.3180   -3.0651   22.9452 C   0  0  0  0  0  0  0  0  0  0  0  0
   10.7003   -2.4486   23.3640 C   0  0  0  0  0  0  0  0  0  0  0  0
    6.9965   -1.7726   21.3092 N   0  0  0  0  0  0  0  0  0  0  0  0
    9.3502   -1.9626   22.9172 N   0  3  0  0  0  0  0  0  0  0  0  0
    5.5512   -3.1975   20.1720 O   0  0  0  0  0  0  0  0  0  0  0  0
   13.3296   -0.0342   22.2958 H   0  0  0  0  0  0  0  0  0  0  0  0
    5.9569    0.0061   17.6152 H   0  0  0  0  0  0  0  0  0  0  0  0
    7.0955   -1.3955   18.0440 H   0  0  0  0  0  0  0  0  0  0  0  0
    4.7363   -0.3980   19.7498 H   0  0  0  0  0  0  0  0  0  0  0  0
    7.7623    0.0693   21.8939 H   0  0  0  0  0  0  0  0  0  0  0  0
    8.0949   -0.3178   20.2051 H   0  0  0  0  0  0  0  0  0  0  0  0
    6.2099   -3.2726   22.5798 H   0  0  0  0  0  0  0  0  0  0  0  0
    6.6461   -1.7513   23.3531 H   0  0  0  0  0  0  0  0  0  0  0  0
    9.7435   -2.0529   20.8354 H   0  0  0  0  0  0  0  0  0  0  0  0
   10.1510   -0.4975   21.6221 H   0  0  0  0  0  0  0  0  0  0  0  0
    8.3081   -3.4780   23.9592 H   0  0  0  0  0  0  0  0  0  0  0  0
    8.6294   -3.8391   22.2348 H   0  0  0  0  0  0  0  0  0  0  0  0
   10.6551   -2.5476   24.4519 H   0  0  0  0  0  0  0  0  0  0  0  0
   10.8446   -3.4347   22.9146 H   0  0  0  0  0  0  0  0  0  0  0  0
    9.0567   -1.2469   23.5963 H   0  0  0  0  0  0  0  0  0  0  0  0
  1  2  3  0  0  0  0
  2 10  1  0  0  0  0
  3  4  2  0  0  0  0
  4  5  1  0  0  0  0
  5 11  1  0  0  0  0
  5 13  2  0  0  0  0
  6  8  1  0  0  0  0
  6 11  1  0  0  0  0
  7  9  1  0  0  0  0
  7 11  1  0  0  0  0
  8 12  1  0  0  0  0
  9 12  1  0  0  0  0
 10 12  1  0  0  0  0
  1 14  1  0  0  0  0
  3 15  1  0  0  0  0
  3 16  1  0  0  0  0
  4 17  1  0  0  0  0
  6 18  1  0  0  0  0
  6 19  1  0  0  0  0
  7 20  1  0  0  0  0
  7 21  1  0  0  0  0
  8 22  1  0  0  0  0
  8 23  1  0  0  0  0
  9 24  1  0  0  0  0
  9 25  1  0  0  0  0
 10 26  1  0  0  0  0
 10 27  1  0  0  0  0
 12 28  1  0  0  0  0
M  CHG  1  12   1
M  END
> <creator>
Tobias Grabe

> <fragments>
x1386

> <real_space>
FALSE

> <SCR>
FALSE

> <BB>
FALSE

> <link>
https://covid.postera.ai/covid/submissions/c2aba166-fc0c-4b8c-b831-fecfdf920427

> <covalent_frag>
TRUE

> <covalent_warhead>
TRUE

> <acrylamide>
TRUE

> <acrylamide_adduct>
FALSE

> <chloroacetamide>
FALSE

> <chloroacetamide_adduct>
FALSE

> <vinylsulfonamide>
FALSE

> <vinylsulfonamide_adduct>
FALSE

> <in_molport_or_mcule>
TRUE

> <in_emolecules>
FALSE

> <Hybrid2>
-5.215091

> <Mpro-x1386_dock>
-5.215091

> <site>
active-covalent

> <covalent_distance_min>
6.4462748

> <covalent_distance_mean>
7.131108

> <covalent_distance_stderr>
0.046036445

$$$$
PAU-UNI-f43-1
  -OEChem-04062011563D

 58 60  0     1  0  0  0  0  0999 V2000
   13.3297    1.0791   24.8648 C   0  0  0  0  0  0  0  0  0  0  0  0
   14.1615    0.3563   25.7125 C   0  0  0  0  0  0  0  0  0  0  0  0
   12.9797   -1.6639   25.1149 C   0  0  0  0  0  0  0  0  0  0  0  0
   12.3099    0.4350   24.1426 C   0  0  0  0  0  0  0  0  0  0  0  0
   12.1239   -0.9658   24.2401 C   0  0  0  0  0  0  0  0  0  0  0  0
   13.9841   -1.0146   25.8399 C   0  0  0  0  0  0  0  0  0  0  0  0
    5.9800   -3.4029   20.4729 C   0  0  0  0  0  0  0  0  0  0  0  0
   11.4485    1.2696   23.2259 C   0  0  0  0  0  0  0  0  0  0  0  0
   10.1396    0.5619   22.9054 C   0  0  0  0  0  0  0  0  0  0  0  0
    5.4926   -5.0037   23.6288 C   0  0  0  0  0  0  0  0  0  0  0  0
    6.8703   -5.5800   23.9549 C   0  0  0  0  0  0  0  0  0  0  0  0
   10.4231   -0.8649   22.4602 C   0  0  0  0  0  0  0  0  0  0  0  0
    5.2083   -5.0682   22.1314 C   0  0  0  0  0  0  0  0  0  0  0  0
    7.6228   -4.9700   21.6230 C   0  0  0  0  0  0  0  0  0  0  0  0
    7.9649   -4.8997   23.1182 C   0  0  2  0  0  0  0  0  0  0  0  0
    7.0418   -2.3528   20.2638 C   0  0  0  0  0  0  0  0  0  0  0  0
    9.3274   -5.5310   23.3930 C   0  0  0  0  0  0  0  0  0  0  0  0
    9.9176   -5.0240   24.7058 C   0  0  0  0  0  0  0  0  0  0  0  0
   10.0760   -3.5036   24.6876 C   0  0  0  0  0  0  0  0  0  0  0  0
   10.9697   -3.0527   23.5386 C   0  0  0  0  0  0  0  0  0  0  0  0
   11.1182   -1.6047   23.5125 N   0  0  3  0  0  0  0  0  0  0  0  0
    6.2815   -4.4265   21.3706 N   0  0  0  0  0  0  0  0  0  0  0  0
   16.2862   -2.3581   25.8376 N   0  0  0  0  0  0  0  0  0  0  0  0
    4.9144   -3.3132   19.8577 O   0  0  0  0  0  0  0  0  0  0  0  0
   15.5476   -1.0306   27.9204 O   0  0  0  0  0  0  0  0  0  0  0  0
   14.3190   -3.1422   27.3046 O   0  0  0  0  0  0  0  0  0  0  0  0
   15.0218   -1.9314   26.9045 S   0  0  0  0  0  0  0  0  0  0  0  0
    6.3172   -0.8097   20.7014 Cl  0  0  0  0  0  0  0  0  0  0  0  0
   13.4750    2.1523   24.7676 H   0  0  0  0  0  0  0  0  0  0  0  0
   14.9416    0.8710   26.2661 H   0  0  0  0  0  0  0  0  0  0  0  0
   12.8798   -2.7399   25.2419 H   0  0  0  0  0  0  0  0  0  0  0  0
   11.2250    2.2371   23.6902 H   0  0  0  0  0  0  0  0  0  0  0  0
   12.0079    1.4604   22.3018 H   0  0  0  0  0  0  0  0  0  0  0  0
    9.4840    0.5529   23.7861 H   0  0  0  0  0  0  0  0  0  0  0  0
    9.6079    1.1057   22.1163 H   0  0  0  0  0  0  0  0  0  0  0  0
    4.7231   -5.5606   24.1752 H   0  0  0  0  0  0  0  0  0  0  0  0
    5.4380   -3.9623   23.9692 H   0  0  0  0  0  0  0  0  0  0  0  0
    7.0770   -5.4487   25.0236 H   0  0  0  0  0  0  0  0  0  0  0  0
    6.8664   -6.6601   23.7600 H   0  0  0  0  0  0  0  0  0  0  0  0
    9.4704   -1.3505   22.2248 H   0  0  0  0  0  0  0  0  0  0  0  0
   11.0260   -0.8693   21.5455 H   0  0  0  0  0  0  0  0  0  0  0  0
    5.1475   -6.1105   21.7965 H   0  0  0  0  0  0  0  0  0  0  0  0
    4.2426   -4.5993   21.9180 H   0  0  0  0  0  0  0  0  0  0  0  0
    8.3866   -4.4451   21.0457 H   0  0  0  0  0  0  0  0  0  0  0  0
    7.6169   -6.0103   21.2746 H   0  0  0  0  0  0  0  0  0  0  0  0
    8.0192   -3.8419   23.4104 H   0  0  0  0  0  0  0  0  0  0  0  0
    7.3285   -2.3462   19.2184 H   0  0  0  0  0  0  0  0  0  0  0  0
    7.8816   -2.5678   20.9146 H   0  0  0  0  0  0  0  0  0  0  0  0
    9.9992   -5.2962   22.5620 H   0  0  0  0  0  0  0  0  0  0  0  0
    9.2123   -6.6186   23.4265 H   0  0  0  0  0  0  0  0  0  0  0  0
   10.8941   -5.4930   24.8776 H   0  0  0  0  0  0  0  0  0  0  0  0
    9.2680   -5.3157   25.5401 H   0  0  0  0  0  0  0  0  0  0  0  0
   10.5012   -3.1625   25.6399 H   0  0  0  0  0  0  0  0  0  0  0  0
    9.0909   -3.0289   24.5965 H   0  0  0  0  0  0  0  0  0  0  0  0
   10.5518   -3.3551   22.5732 H   0  0  0  0  0  0  0  0  0  0  0  0
   11.9721   -3.4827   23.6327 H   0  0  0  0  0  0  0  0  0  0  0  0
   17.1961   -1.8970   25.9600 H   0  0  0  0  0  0  0  0  0  0  0  0
   16.3545   -3.3386   25.5390 H   0  0  0  0  0  0  0  0  0  0  0  0
  1  2  2  0  0  0  0
  1  4  1  0  0  0  0
  2  6  1  0  0  0  0
  3  5  1  0  0  0  0
  3  6  2  0  0  0  0
  4  5  2  0  0  0  0
  4  8  1  0  0  0  0
  5 21  1  0  0  0  0
  6 27  1  0  0  0  0
  7 16  1  0  0  0  0
  7 22  1  0  0  0  0
  7 24  2  0  0  0  0
  8  9  1  0  0  0  0
  9 12  1  0  0  0  0
 10 11  1  0  0  0  0
 10 13  1  0  0  0  0
 11 15  1  0  0  0  0
 12 21  1  0  0  0  0
 13 22  1  0  0  0  0
 14 15  1  0  0  0  0
 14 22  1  0  0  0  0
 15 17  1  0  0  0  0
 16 28  1  0  0  0  0
 17 18  1  0  0  0  0
 18 19  1  0  0  0  0
 19 20  1  0  0  0  0
 20 21  1  0  0  0  0
 23 27  1  0  0  0  0
 25 27  2  0  0  0  0
 26 27  2  0  0  0  0
  1 29  1  0  0  0  0
  2 30  1  0  0  0  0
  3 31  1  0  0  0  0
  8 32  1  0  0  0  0
  8 33  1  0  0  0  0
  9 34  1  0  0  0  0
  9 35  1  0  0  0  0
 10 36  1  0  0  0  0
 10 37  1  0  0  0  0
 11 38  1  0  0  0  0
 11 39  1  0  0  0  0
 12 40  1  0  0  0  0
 12 41  1  0  0  0  0
 13 42  1  0  0  0  0
 13 43  1  0  0  0  0
 14 44  1  0  0  0  0
 14 45  1  0  0  0  0
 15 46  1  0  0  0  0
 16 47  1  0  0  0  0
 16 48  1  0  0  0  0
 17 49  1  0  0  0  0
 17 50  1  0  0  0  0
 18 51  1  0  0  0  0
 18 52  1  0  0  0  0
 19 53  1  0  0  0  0
 19 54  1  0  0  0  0
 20 55  1  0  0  0  0
 20 56  1  0  0  0  0
 23 57  1  0  0  0  0
 23 58  1  0  0  0  0
M  END
> <creator>
paul brear, University of cambridge

> <fragments>
x0749

> <real_space>
FALSE

> <SCR>
FALSE

> <BB>
FALSE

> <link>
https://covid.postera.ai/covid/submissions/f4334617-74f8-4d4a-abec-065a49b4bc47

> <covalent_frag>
TRUE

> <covalent_warhead>
TRUE

> <acrylamide>
FALSE

> <acrylamide_adduct>
FALSE

> <chloroacetamide>
TRUE

> <chloroacetamide_adduct>
FALSE

> <vinylsulfonamide>
FALSE

> <vinylsulfonamide_adduct>
FALSE

> <in_molport_or_mcule>
FALSE

> <in_emolecules>
FALSE

> <Hybrid2>
-5.208764

> <Mpro-x0749_dock>
-5.208764

> <site>
active-covalent

> <covalent_distance_min>
3.0517375

> <covalent_distance_mean>
3.5598702

> <covalent_distance_stderr>
0.040032122

$$$$
NIM-UNI-ed9-4
  -OEChem-04062011563D

 66 68  0     1  0  0  0  0  0999 V2000
    6.3204   -5.1758   23.9458 C   0  0  0  0  0  0  0  0  0  0  0  0
    7.3784   -5.1823   23.0369 C   0  0  0  0  0  0  0  0  0  0  0  0
    6.0270   -4.0180   24.6663 C   0  0  0  0  0  0  0  0  0  0  0  0
    8.1432   -4.0311   22.8486 C   0  0  0  0  0  0  0  0  0  0  0  0
    6.7917   -2.8668   24.4780 C   0  0  0  0  0  0  0  0  0  0  0  0
    5.2996    2.2446   20.3712 C   0  0  0  0  0  0  0  0  0  0  0  0
    5.8325   -0.0847   20.7282 C   0  0  0  0  0  0  0  0  0  0  0  0
    5.2132    2.0144   18.9982 C   0  0  0  0  0  0  0  0  0  0  0  0
    5.7461   -0.3149   19.3552 C   0  0  0  0  0  0  0  0  0  0  0  0
    5.6093    1.1950   21.2362 C   0  0  0  0  0  0  0  0  0  0  0  0
    7.8498   -2.8733   23.5691 C   0  0  0  0  0  0  0  0  0  0  0  0
    5.4364    0.7347   18.4902 C   0  0  0  0  0  0  0  0  0  0  0  0
   14.8675    0.4700   23.0876 C   0  0  0  0  0  0  0  0  0  0  0  0
    6.9423    4.2725   22.7092 C   0  0  0  0  0  0  0  0  0  0  0  0
    8.1097    0.7392   22.8048 C   0  0  0  0  0  0  0  0  0  0  0  0
   12.6535   -0.1150   22.1510 C   0  0  0  0  0  0  0  0  0  0  0  0
   12.7247    0.9658   24.3646 C   0  0  0  0  0  0  0  0  0  0  0  0
   11.7096   -1.1846   22.6808 C   0  0  0  0  0  0  0  0  0  0  0  0
   11.7797   -0.0872   24.9276 C   0  0  0  0  0  0  0  0  0  0  0  0
    7.5846    5.3959   21.9651 C   0  0  0  0  0  0  0  0  0  0  0  0
    5.7023    1.4438   22.7219 C   0  0  0  0  0  0  0  0  0  0  0  0
   15.6747    0.3618   24.3566 C   0  0  0  0  0  0  0  0  0  0  0  0
    9.8719   -1.5811   24.3243 C   0  0  0  0  0  0  0  0  0  0  0  0
    8.6801   -1.6227   23.3653 C   0  0  2  0  0  0  0  0  0  0  0  0
    7.1151    1.8352   23.1702 C   0  0  2  0  0  0  0  0  0  0  0  0
   13.4806    0.4350   23.2251 N   0  0  0  0  0  0  0  0  0  0  0  0
    7.8566   -0.4401   23.4902 N   0  0  0  0  0  0  0  0  0  0  0  0
    7.5689    3.0499   22.5410 N   0  0  0  0  0  0  0  0  0  0  0  0
   10.8951   -0.6049   23.8156 N   0  3  0  0  0  0  0  0  0  0  0  0
   15.4537    0.5796   22.0076 O   0  0  0  0  0  0  0  0  0  0  0  0
    5.9483    4.4902   23.3921 O   0  0  0  0  0  0  0  0  0  0  0  0
    9.0441    0.9161   22.0260 O   0  0  0  0  0  0  0  0  0  0  0  0
    5.3508    0.5100   17.1505 O   0  0  0  0  0  0  0  0  0  0  0  0
   15.2284   -1.1656   25.1088 Cl  0  0  0  0  0  0  0  0  0  0  0  0
    5.7242   -6.0719   24.0913 H   0  0  0  0  0  0  0  0  0  0  0  0
    7.6064   -6.0834   22.4750 H   0  0  0  0  0  0  0  0  0  0  0  0
    5.2026   -4.0123   25.3732 H   0  0  0  0  0  0  0  0  0  0  0  0
    8.9658   -4.0454   22.1384 H   0  0  0  0  0  0  0  0  0  0  0  0
    6.5559   -1.9694   25.0439 H   0  0  0  0  0  0  0  0  0  0  0  0
    5.1243    3.2448   20.7583 H   0  0  0  0  0  0  0  0  0  0  0  0
    6.0745   -0.9085   21.3948 H   0  0  0  0  0  0  0  0  0  0  0  0
    4.9713    2.8362   18.3294 H   0  0  0  0  0  0  0  0  0  0  0  0
    5.9207   -1.3139   18.9658 H   0  0  0  0  0  0  0  0  0  0  0  0
   13.2780   -0.5388   21.3583 H   0  0  0  0  0  0  0  0  0  0  0  0
   12.0899    0.7165   21.7107 H   0  0  0  0  0  0  0  0  0  0  0  0
   12.1621    1.8358   24.0048 H   0  0  0  0  0  0  0  0  0  0  0  0
   13.3824    1.3180   25.1611 H   0  0  0  0  0  0  0  0  0  0  0  0
   11.0070   -1.5000   21.9027 H   0  0  0  0  0  0  0  0  0  0  0  0
   12.2507   -2.0564   23.0656 H   0  0  0  0  0  0  0  0  0  0  0  0
   12.3215   -0.9401   25.3517 H   0  0  0  0  0  0  0  0  0  0  0  0
   11.1249    0.3494   25.6887 H   0  0  0  0  0  0  0  0  0  0  0  0
    7.1719    5.5188   20.9509 H   0  0  0  0  0  0  0  0  0  0  0  0
    7.4343    6.3686   22.4604 H   0  0  0  0  0  0  0  0  0  0  0  0
    8.6739    5.3071   21.8258 H   0  0  0  0  0  0  0  0  0  0  0  0
    4.9821    2.2208   23.0121 H   0  0  0  0  0  0  0  0  0  0  0  0
    5.3720    0.5359   23.2438 H   0  0  0  0  0  0  0  0  0  0  0  0
   15.4160    1.1877   25.0093 H   0  0  0  0  0  0  0  0  0  0  0  0
   16.7287    0.3582   24.1033 H   0  0  0  0  0  0  0  0  0  0  0  0
    9.5969   -1.2446   25.3292 H   0  0  0  0  0  0  0  0  0  0  0  0
   10.3763   -2.5504   24.3939 H   0  0  0  0  0  0  0  0  0  0  0  0
    9.0555   -1.6060   22.3341 H   0  0  0  0  0  0  0  0  0  0  0  0
    7.1549    2.0100   24.2518 H   0  0  0  0  0  0  0  0  0  0  0  0
    7.0536   -0.4747   24.1103 H   0  0  0  0  0  0  0  0  0  0  0  0
    8.3910    3.0064   21.9431 H   0  0  0  0  0  0  0  0  0  0  0  0
   10.3720    0.1984   23.4403 H   0  0  0  0  0  0  0  0  0  0  0  0
    5.5309   -0.4231   16.9538 H   0  0  0  0  0  0  0  0  0  0  0  0
  1  2  1  0  0  0  0
  1  3  2  0  0  0  0
  2  4  2  0  0  0  0
  3  5  1  0  0  0  0
  4 11  1  0  0  0  0
  5 11  2  0  0  0  0
  6  8  2  0  0  0  0
  6 10  1  0  0  0  0
  7  9  1  0  0  0  0
  7 10  2  0  0  0  0
  8 12  1  0  0  0  0
  9 12  2  0  0  0  0
 10 21  1  0  0  0  0
 11 24  1  0  0  0  0
 12 33  1  0  0  0  0
 13 22  1  0  0  0  0
 13 26  1  0  0  0  0
 13 30  2  0  0  0  0
 14 20  1  0  0  0  0
 14 28  1  0  0  0  0
 14 31  2  0  0  0  0
 15 25  1  0  0  0  0
 15 27  1  0  0  0  0
 15 32  2  0  0  0  0
 16 18  1  0  0  0  0
 16 26  1  0  0  0  0
 17 19  1  0  0  0  0
 17 26  1  0  0  0  0
 18 29  1  0  0  0  0
 19 29  1  0  0  0  0
 21 25  1  0  0  0  0
 22 34  1  0  0  0  0
 23 24  1  0  0  0  0
 23 29  1  0  0  0  0
 24 27  1  0  0  0  0
 25 28  1  0  0  0  0
  1 35  1  0  0  0  0
  2 36  1  0  0  0  0
  3 37  1  0  0  0  0
  4 38  1  0  0  0  0
  5 39  1  0  0  0  0
  6 40  1  0  0  0  0
  7 41  1  0  0  0  0
  8 42  1  0  0  0  0
  9 43  1  0  0  0  0
 16 44  1  0  0  0  0
 16 45  1  0  0  0  0
 17 46  1  0  0  0  0
 17 47  1  0  0  0  0
 18 48  1  0  0  0  0
 18 49  1  0  0  0  0
 19 50  1  0  0  0  0
 19 51  1  0  0  0  0
 20 52  1  0  0  0  0
 20 53  1  0  0  0  0
 20 54  1  0  0  0  0
 21 55  1  0  0  0  0
 21 56  1  0  0  0  0
 22 57  1  0  0  0  0
 22 58  1  0  0  0  0
 23 59  1  0  0  0  0
 23 60  1  0  0  0  0
 24 61  1  0  0  0  0
 25 62  1  0  0  0  0
 27 63  1  0  0  0  0
 28 64  1  0  0  0  0
 29 65  1  0  0  0  0
 33 66  1  0  0  0  0
M  CHG  1  29   1
M  END
> <creator>
Nimesh Mistry, University of Leeds

> <fragments>
x0967

> <real_space>
FALSE

> <SCR>
FALSE

> <BB>
FALSE

> <link>
https://covid.postera.ai/covid/submissions/ed9fc491-dc03-4238-8d3b-b72343b7eaa7

> <covalent_frag>
TRUE

> <covalent_warhead>
TRUE

> <acrylamide>
FALSE

> <acrylamide_adduct>
FALSE

> <chloroacetamide>
TRUE

> <chloroacetamide_adduct>
FALSE

> <vinylsulfonamide>
FALSE

> <vinylsulfonamide_adduct>
FALSE

> <in_molport_or_mcule>
FALSE

> <in_emolecules>
FALSE

> <Hybrid2>
-5.183060

> <Mpro-x0967_dock>
-5.18306

> <Mpro-x0770_dock>
4.880438

> <site>
active-noncovalent

> <covalent_distance_min>
6.630184

> <covalent_distance_mean>
7.4651027

> <covalent_distance_stderr>
0.028782867

$$$$
TAM-UNI-d1c-2
  -OEChem-04062011563D

 51 53  0     1  0  0  0  0  0999 V2000
   12.1386   -0.2533   22.6163 C   0  0  0  0  0  0  0  0  0  0  0  0
   11.0898   -0.0941   23.4887 C   0  0  0  0  0  0  0  0  0  0  0  0
   10.3755   -1.3042   23.4048 C   0  0  0  0  0  0  0  0  0  0  0  0
   10.6239    2.8450   22.6731 C   0  0  0  0  0  0  0  0  0  0  0  0
    6.0703   -1.7447   19.5247 C   0  0  0  0  0  0  0  0  0  0  0  0
   10.5319    2.2251   26.2559 C   0  0  0  0  0  0  0  0  0  0  0  0
   10.6339    3.2172   25.1111 C   0  0  0  0  0  0  0  0  0  0  0  0
   10.1377    0.9276   25.5594 C   0  0  0  0  0  0  0  0  0  0  0  0
    6.4298   -2.8620   21.7027 C   0  0  0  0  0  0  0  0  0  0  0  0
    6.5520   -0.4017   21.6300 C   0  0  0  0  0  0  0  0  0  0  0  0
    7.7405   -2.9249   22.4730 C   0  0  0  0  0  0  0  0  0  0  0  0
    7.8646   -0.4275   22.4014 C   0  0  0  0  0  0  0  0  0  0  0  0
   11.2228    2.3880   23.9645 C   0  0  1  0  0  0  0  0  0  0  0  0
   12.8593   -2.1204   21.1085 C   0  0  0  0  0  0  0  0  0  0  0  0
    9.1289   -1.6932   24.1435 C   0  0  0  0  0  0  0  0  0  0  0  0
    6.6646   -0.6830   18.6340 C   0  0  0  0  0  0  0  0  0  0  0  0
   10.9240   -2.1684   22.5467 N   0  0  0  0  0  0  0  0  0  0  0  0
   11.9942   -1.5004   22.0833 N   0  0  0  0  0  0  0  0  0  0  0  0
   10.8116    1.0132   24.2651 N   0  0  3  0  0  0  0  0  0  0  0  0
    6.3578   -1.6506   20.8856 N   0  0  0  0  0  0  0  0  0  0  0  0
   11.5504    3.2823   21.7562 N   0  0  0  0  0  0  0  0  0  0  0  0
    7.8982   -1.6567   23.2819 N   0  3  0  0  0  0  0  0  0  0  0  0
    9.4135    2.8083   22.4656 O   0  0  0  0  0  0  0  0  0  0  0  0
    5.3741   -2.6315   19.0238 O   0  0  0  0  0  0  0  0  0  0  0  0
    5.4762    0.6112   18.5310 Cl  0  0  0  0  0  0  0  0  0  0  0  0
   12.9563    0.3974   22.3361 H   0  0  0  0  0  0  0  0  0  0  0  0
   11.4711    2.1310   26.8084 H   0  0  0  0  0  0  0  0  0  0  0  0
    9.7487    2.5305   26.9596 H   0  0  0  0  0  0  0  0  0  0  0  0
    9.6608    3.6579   24.8708 H   0  0  0  0  0  0  0  0  0  0  0  0
   11.3252    4.0259   25.3793 H   0  0  0  0  0  0  0  0  0  0  0  0
   10.5115    0.0659   26.1209 H   0  0  0  0  0  0  0  0  0  0  0  0
    9.0537    0.8444   25.4505 H   0  0  0  0  0  0  0  0  0  0  0  0
    6.3283   -3.7567   21.0804 H   0  0  0  0  0  0  0  0  0  0  0  0
    5.5756   -2.8465   22.3905 H   0  0  0  0  0  0  0  0  0  0  0  0
    5.7032   -0.2971   22.3166 H   0  0  0  0  0  0  0  0  0  0  0  0
    6.5406    0.4698   20.9733 H   0  0  0  0  0  0  0  0  0  0  0  0
    7.7350   -3.7628   23.1776 H   0  0  0  0  0  0  0  0  0  0  0  0
    8.6058   -3.0087   21.8059 H   0  0  0  0  0  0  0  0  0  0  0  0
    8.7324   -0.4679   21.7336 H   0  0  0  0  0  0  0  0  0  0  0  0
    7.9439    0.4455   23.0573 H   0  0  0  0  0  0  0  0  0  0  0  0
   12.3041    2.5140   23.9167 H   0  0  0  0  0  0  0  0  0  0  0  0
   13.6424   -2.6603   21.6474 H   0  0  0  0  0  0  0  0  0  0  0  0
   12.2766   -2.8088   20.4901 H   0  0  0  0  0  0  0  0  0  0  0  0
   13.2963   -1.3477   20.4698 H   0  0  0  0  0  0  0  0  0  0  0  0
    9.2051   -2.7113   24.5402 H   0  0  0  0  0  0  0  0  0  0  0  0
    8.9425   -1.0196   24.9869 H   0  0  0  0  0  0  0  0  0  0  0  0
    6.8400   -1.1062   17.6516 H   0  0  0  0  0  0  0  0  0  0  0  0
    7.5778   -0.3149   19.0874 H   0  0  0  0  0  0  0  0  0  0  0  0
   11.2244    3.6097   20.8528 H   0  0  0  0  0  0  0  0  0  0  0  0
   12.5471    3.2907   21.9466 H   0  0  0  0  0  0  0  0  0  0  0  0
    7.0943   -1.5978   23.9221 H   0  0  0  0  0  0  0  0  0  0  0  0
  1  2  2  0  0  0  0
  1 18  1  0  0  0  0
  2  3  1  0  0  0  0
  2 19  1  0  0  0  0
  3 15  1  0  0  0  0
  3 17  2  0  0  0  0
  4 13  1  0  0  0  0
  4 21  1  0  0  0  0
  4 23  2  0  0  0  0
  5 16  1  0  0  0  0
  5 20  1  0  0  0  0
  5 24  2  0  0  0  0
  6  7  1  0  0  0  0
  6  8  1  0  0  0  0
  7 13  1  0  0  0  0
  8 19  1  0  0  0  0
  9 11  1  0  0  0  0
  9 20  1  0  0  0  0
 10 12  1  0  0  0  0
 10 20  1  0  0  0  0
 11 22  1  0  0  0  0
 12 22  1  0  0  0  0
 13 19  1  0  0  0  0
 14 18  1  0  0  0  0
 15 22  1  0  0  0  0
 16 25  1  0  0  0  0
 17 18  1  0  0  0  0
  1 26  1  0  0  0  0
  6 27  1  0  0  0  0
  6 28  1  0  0  0  0
  7 29  1  0  0  0  0
  7 30  1  0  0  0  0
  8 31  1  0  0  0  0
  8 32  1  0  0  0  0
  9 33  1  0  0  0  0
  9 34  1  0  0  0  0
 10 35  1  0  0  0  0
 10 36  1  0  0  0  0
 11 37  1  0  0  0  0
 11 38  1  0  0  0  0
 12 39  1  0  0  0  0
 12 40  1  0  0  0  0
 13 41  1  0  0  0  0
 14 42  1  0  0  0  0
 14 43  1  0  0  0  0
 14 44  1  0  0  0  0
 15 45  1  0  0  0  0
 15 46  1  0  0  0  0
 16 47  1  0  0  0  0
 16 48  1  0  0  0  0
 21 49  1  0  0  0  0
 21 50  1  0  0  0  0
 22 51  1  0  0  0  0
M  CHG  1  22   1
M  END
> <creator>
Tamas Szommer, University of Oxford, TDI

> <fragments>
x0692

> <real_space>
FALSE

> <SCR>
FALSE

> <BB>
FALSE

> <link>
https://covid.postera.ai/covid/submissions/d1c3dd9f-771c-474e-9133-8c7e4ace8b98

> <covalent_frag>
TRUE

> <covalent_warhead>
TRUE

> <acrylamide>
FALSE

> <acrylamide_adduct>
FALSE

> <chloroacetamide>
TRUE

> <chloroacetamide_adduct>
FALSE

> <vinylsulfonamide>
FALSE

> <vinylsulfonamide_adduct>
FALSE

> <in_molport_or_mcule>
FALSE

> <in_emolecules>
FALSE

> <Hybrid2>
-5.154994

> <Mpro-x0692_dock>
-5.154994

> <Mpro-x1392_dock>
-4.834817

> <Mpro-x1386_dock>
-3.554652

> <Mpro-x1382_dock>
-0.535836

> <site>
active-covalent

> <covalent_distance_min>
4.912583

> <covalent_distance_mean>
6.189254

> <covalent_distance_stderr>
0.04297113

$$$$
NIR-THE-ed2-2
  -OEChem-04062011563D

 58 61  0     0  0  0  0  0  0999 V2000
    5.9298    0.2527   18.5177 C   0  0  0  0  0  0  0  0  0  0  0  0
   11.0224   -3.8024   25.1592 C   0  0  0  0  0  0  0  0  0  0  0  0
    7.8020   -0.4609   20.6524 C   0  0  0  0  0  0  0  0  0  0  0  0
   10.0312   -4.7584   24.9376 C   0  0  0  0  0  0  0  0  0  0  0  0
   10.7787   -2.4623   24.8582 C   0  0  0  0  0  0  0  0  0  0  0  0
    8.6769   -0.7865   21.6903 C   0  0  0  0  0  0  0  0  0  0  0  0
    7.2731    0.4021   23.2547 C   0  0  0  0  0  0  0  0  0  0  0  0
    8.5527   -3.0344   24.1137 C   0  0  0  0  0  0  0  0  0  0  0  0
    4.6374    1.4000   20.2112 C   0  0  0  0  0  0  0  0  0  0  0  0
    5.7529    0.6444   19.8837 C   0  0  0  0  0  0  0  0  0  0  0  0
    6.6493    0.3016   20.9025 C   0  0  0  0  0  0  0  0  0  0  0  0
    6.3857    0.7356   22.2181 C   0  0  0  0  0  0  0  0  0  0  0  0
    8.7964   -4.3744   24.4148 C   0  0  0  0  0  0  0  0  0  0  0  0
    8.4131   -0.3560   22.9885 C   0  0  0  0  0  0  0  0  0  0  0  0
    9.5439   -2.0783   24.3354 C   0  0  0  0  0  0  0  0  0  0  0  0
    5.2307    1.4914   22.4280 C   0  0  0  0  0  0  0  0  0  0  0  0
    7.7544   -5.3814   24.1822 C   0  0  0  0  0  0  0  0  0  0  0  0
    9.9299    0.3526   24.7624 C   0  0  0  0  0  0  0  0  0  0  0  0
    5.4938   -6.0754   24.9018 C   0  0  0  0  0  0  0  0  0  0  0  0
    7.1428   -5.5016   26.6533 C   0  0  0  0  0  0  0  0  0  0  0  0
    4.4776   -5.0147   25.3082 C   0  0  0  0  0  0  0  0  0  0  0  0
    6.3216   -4.3722   27.2638 C   0  0  0  0  0  0  0  0  0  0  0  0
    2.5636    1.8591   24.1585 C   0  0  0  0  0  0  0  0  0  0  0  0
   10.2084    1.6567   24.0323 C   0  0  0  0  0  0  0  0  0  0  0  0
    3.7726    2.7227   24.0355 C   0  0  0  0  0  0  0  0  0  0  0  0
    6.0732   -0.0647   17.4106 N   0  0  0  0  0  0  0  0  0  0  0  0
    4.3528    1.8328   21.4579 N   0  0  0  0  0  0  0  0  0  0  0  0
    6.8586   -5.6545   25.2201 N   0  0  0  0  0  0  0  0  0  0  0  0
    4.9311    1.9464   23.7373 N   0  0  0  0  0  0  0  0  0  0  0  0
    9.2905   -0.6843   24.0226 N   0  0  0  0  0  0  0  0  0  0  0  0
    7.7489   -5.9080   23.0706 O   0  0  0  0  0  0  0  0  0  0  0  0
   10.2203    0.2423   25.9578 O   0  0  0  0  0  0  0  0  0  0  0  0
    4.5349   -4.6877   27.0993 S   0  0  0  0  0  0  0  0  0  0  0  0
    9.3044    2.9626   24.8322 Cl  0  0  0  0  0  0  0  0  0  0  0  0
   11.9839   -4.1011   25.5666 H   0  0  0  0  0  0  0  0  0  0  0  0
    8.0457   -0.8169   19.6543 H   0  0  0  0  0  0  0  0  0  0  0  0
   10.2330   -5.7996   25.1750 H   0  0  0  0  0  0  0  0  0  0  0  0
   11.5588   -1.7257   25.0345 H   0  0  0  0  0  0  0  0  0  0  0  0
    9.5630   -1.3780   21.4730 H   0  0  0  0  0  0  0  0  0  0  0  0
    7.0906    0.7262   24.2773 H   0  0  0  0  0  0  0  0  0  0  0  0
    7.5897   -2.7349   23.7049 H   0  0  0  0  0  0  0  0  0  0  0  0
    3.9098    1.6949   19.4598 H   0  0  0  0  0  0  0  0  0  0  0  0
    5.2458   -7.0145   25.4052 H   0  0  0  0  0  0  0  0  0  0  0  0
    5.4443   -6.2774   23.8239 H   0  0  0  0  0  0  0  0  0  0  0  0
    8.2183   -5.3238   26.7689 H   0  0  0  0  0  0  0  0  0  0  0  0
    6.9136   -6.4345   27.1783 H   0  0  0  0  0  0  0  0  0  0  0  0
    4.6931   -4.0763   24.7865 H   0  0  0  0  0  0  0  0  0  0  0  0
    3.4616   -5.3181   25.0314 H   0  0  0  0  0  0  0  0  0  0  0  0
    6.5646   -4.2387   28.3229 H   0  0  0  0  0  0  0  0  0  0  0  0
    6.5474   -3.4317   26.7527 H   0  0  0  0  0  0  0  0  0  0  0  0
    2.7164    1.1260   24.9642 H   0  0  0  0  0  0  0  0  0  0  0  0
    1.6891    2.4840   24.3926 H   0  0  0  0  0  0  0  0  0  0  0  0
    2.3928    1.3302   23.2092 H   0  0  0  0  0  0  0  0  0  0  0  0
    9.8734    1.6405   22.9942 H   0  0  0  0  0  0  0  0  0  0  0  0
   11.2735    1.8938   24.0870 H   0  0  0  0  0  0  0  0  0  0  0  0
    3.6119    3.4525   23.2283 H   0  0  0  0  0  0  0  0  0  0  0  0
    3.9317    3.2550   24.9848 H   0  0  0  0  0  0  0  0  0  0  0  0
    5.5787    1.6969   24.4560 H   0  0  0  0  0  0  0  0  0  0  0  0
  1 10  1  0  0  0  0
  1 26  3  0  0  0  0
  2  4  1  0  0  0  0
  2  5  2  0  0  0  0
  3  6  2  0  0  0  0
  3 11  1  0  0  0  0
  4 13  2  0  0  0  0
  5 15  1  0  0  0  0
  6 14  1  0  0  0  0
  7 12  1  0  0  0  0
  7 14  2  0  0  0  0
  8 13  1  0  0  0  0
  8 15  2  0  0  0  0
  9 10  1  0  0  0  0
  9 27  2  0  0  0  0
 10 11  2  0  0  0  0
 11 12  1  0  0  0  0
 12 16  2  0  0  0  0
 13 17  1  0  0  0  0
 14 30  1  0  0  0  0
 15 30  1  0  0  0  0
 16 27  1  0  0  0  0
 16 29  1  0  0  0  0
 17 28  1  0  0  0  0
 17 31  2  0  0  0  0
 18 24  1  0  0  0  0
 18 30  1  0  0  0  0
 18 32  2  0  0  0  0
 19 21  1  0  0  0  0
 19 28  1  0  0  0  0
 20 22  1  0  0  0  0
 20 28  1  0  0  0  0
 21 33  1  0  0  0  0
 22 33  1  0  0  0  0
 23 25  1  0  0  0  0
 24 34  1  0  0  0  0
 25 29  1  0  0  0  0
  2 35  1  0  0  0  0
  3 36  1  0  0  0  0
  4 37  1  0  0  0  0
  5 38  1  0  0  0  0
  6 39  1  0  0  0  0
  7 40  1  0  0  0  0
  8 41  1  0  0  0  0
  9 42  1  0  0  0  0
 19 43  1  0  0  0  0
 19 44  1  0  0  0  0
 20 45  1  0  0  0  0
 20 46  1  0  0  0  0
 21 47  1  0  0  0  0
 21 48  1  0  0  0  0
 22 49  1  0  0  0  0
 22 50  1  0  0  0  0
 23 51  1  0  0  0  0
 23 52  1  0  0  0  0
 23 53  1  0  0  0  0
 24 54  1  0  0  0  0
 24 55  1  0  0  0  0
 25 56  1  0  0  0  0
 25 57  1  0  0  0  0
 29 58  1  0  0  0  0
M  END
> <creator>
Nir London, The Weizmann Institute of Science

> <fragments>
x0107

> <real_space>
FALSE

> <SCR>
FALSE

> <BB>
FALSE

> <link>
https://covid.postera.ai/covid/submissions/ed286faa-f0a4-44f4-b4c7-e3e3ee31719b

> <covalent_frag>
TRUE

> <covalent_warhead>
TRUE

> <acrylamide>
FALSE

> <acrylamide_adduct>
FALSE

> <chloroacetamide>
TRUE

> <chloroacetamide_adduct>
FALSE

> <vinylsulfonamide>
FALSE

> <vinylsulfonamide_adduct>
FALSE

> <in_molport_or_mcule>
FALSE

> <in_emolecules>
FALSE

> <Hybrid2>
-5.154628

> <Mpro-x0107_dock>
-5.154628

> <Mpro-x0305_dock>
-3.01978

> <Mpro-x0786_dock>
3.582536

> <site>
active-noncovalent

> <covalent_distance_min>
6.995903

> <covalent_distance_mean>
7.38881

> <covalent_distance_stderr>
0.035328835

$$$$
BEN-VAN-ed8-19
  -OEChem-04062011563D

 47 48  0     0  0  0  0  0  0999 V2000
    6.8822   -2.2303   24.4031 C   0  0  0  0  0  0  0  0  0  0  0  0
   12.7202    2.0069   23.0005 C   0  0  0  0  0  0  0  0  0  0  0  0
    7.7194   -1.8823   25.4631 C   0  0  0  0  0  0  0  0  0  0  0  0
   11.6175    2.8304   22.8021 C   0  0  0  0  0  0  0  0  0  0  0  0
    8.7216   -1.9571   22.8607 C   0  0  0  0  0  0  0  0  0  0  0  0
    9.5588   -1.6091   23.9207 C   0  0  0  0  0  0  0  0  0  0  0  0
    7.3833   -2.2678   23.1019 C   0  0  0  0  0  0  0  0  0  0  0  0
   12.5324    0.6557   23.2690 C   0  0  0  0  0  0  0  0  0  0  0  0
    9.0576   -1.5717   25.2219 C   0  0  0  0  0  0  0  0  0  0  0  0
   11.2321    0.1808   23.3282 C   0  0  0  0  0  0  0  0  0  0  0  0
   10.3582    2.2582   22.8820 C   0  0  0  0  0  0  0  0  0  0  0  0
    3.5805    2.6397   19.4859 C   0  0  0  0  0  0  0  0  0  0  0  0
    3.9980    1.3909   19.7150 C   0  0  0  0  0  0  0  0  0  0  0  0
    5.4322    1.1173   20.0013 C   0  0  0  0  0  0  0  0  0  0  0  0
    6.9164   -0.7938   20.5001 C   0  0  0  0  0  0  0  0  0  0  0  0
    6.9335    3.7529   22.4816 C   0  0  0  0  0  0  0  0  0  0  0  0
   10.9867   -1.2843   23.6208 C   0  0  0  0  0  0  0  0  0  0  0  0
    6.8248   -2.2946   20.6702 C   0  0  0  0  0  0  0  0  0  0  0  0
    7.8975    2.6447   22.7366 C   0  0  0  0  0  0  0  0  0  0  0  0
   10.1362    0.9500   23.1410 N   0  0  0  0  0  0  0  0  0  0  0  0
    6.5507   -2.6151   22.0477 N   0  0  0  0  0  0  0  0  0  0  0  0
    9.2444    3.1110   22.6804 N   0  0  0  0  0  0  0  0  0  0  0  0
    5.6663   -0.2396   20.2116 N   0  0  0  0  0  0  0  0  0  0  0  0
    6.2772    2.0057   20.0389 O   0  0  0  0  0  0  0  0  0  0  0  0
    7.9651   -0.1635   20.6056 O   0  0  0  0  0  0  0  0  0  0  0  0
   13.5822   -0.1515   23.4647 F   0  0  0  0  0  0  0  0  0  0  0  0
   10.0631   -1.1453   26.5584 Cl  0  0  0  0  0  0  0  0  0  0  0  0
    5.8409   -2.4710   24.6020 H   0  0  0  0  0  0  0  0  0  0  0  0
   13.7239    2.4175   22.9462 H   0  0  0  0  0  0  0  0  0  0  0  0
    7.3137   -1.8577   26.4713 H   0  0  0  0  0  0  0  0  0  0  0  0
   11.7551    3.8859   22.5902 H   0  0  0  0  0  0  0  0  0  0  0  0
    9.1125   -1.9854   21.8459 H   0  0  0  0  0  0  0  0  0  0  0  0
    2.5331    2.8316   19.2779 H   0  0  0  0  0  0  0  0  0  0  0  0
    4.2511    3.4916   19.4982 H   0  0  0  0  0  0  0  0  0  0  0  0
    3.2933    0.5669   19.6937 H   0  0  0  0  0  0  0  0  0  0  0  0
    7.1198    4.1796   21.4850 H   0  0  0  0  0  0  0  0  0  0  0  0
    5.9060    3.3627   22.5270 H   0  0  0  0  0  0  0  0  0  0  0  0
    7.0630    4.5343   23.2450 H   0  0  0  0  0  0  0  0  0  0  0  0
   11.6347   -1.5973   24.4568 H   0  0  0  0  0  0  0  0  0  0  0  0
   11.3463   -1.8859   22.7689 H   0  0  0  0  0  0  0  0  0  0  0  0
    7.7714   -2.7516   20.3650 H   0  0  0  0  0  0  0  0  0  0  0  0
    6.0233   -2.6827   20.0334 H   0  0  0  0  0  0  0  0  0  0  0  0
    7.7047    2.2236   23.7344 H   0  0  0  0  0  0  0  0  0  0  0  0
    7.7559    1.8634   21.9753 H   0  0  0  0  0  0  0  0  0  0  0  0
    5.6985   -3.1238   22.2624 H   0  0  0  0  0  0  0  0  0  0  0  0
    9.4448    4.0719   22.4920 H   0  0  0  0  0  0  0  0  0  0  0  0
    4.8714   -0.8718   20.1508 H   0  0  0  0  0  0  0  0  0  0  0  0
  1  3  2  0  0  0  0
  1  7  1  0  0  0  0
  2  4  2  0  0  0  0
  2  8  1  0  0  0  0
  3  9  1  0  0  0  0
  4 11  1  0  0  0  0
  5  6  1  0  0  0  0
  5  7  2  0  0  0  0
  6  9  2  0  0  0  0
  6 17  1  0  0  0  0
  7 21  1  0  0  0  0
  8 10  2  0  0  0  0
  8 26  1  0  0  0  0
  9 27  1  0  0  0  0
 10 17  1  0  0  0  0
 10 20  1  0  0  0  0
 11 20  2  0  0  0  0
 11 22  1  0  0  0  0
 12 13  2  0  0  0  0
 13 14  1  0  0  0  0
 14 23  1  0  0  0  0
 14 24  2  0  0  0  0
 15 18  1  0  0  0  0
 15 23  1  0  0  0  0
 15 25  2  0  0  0  0
 16 19  1  0  0  0  0
 18 21  1  0  0  0  0
 19 22  1  0  0  0  0
  1 28  1  0  0  0  0
  2 29  1  0  0  0  0
  3 30  1  0  0  0  0
  4 31  1  0  0  0  0
  5 32  1  0  0  0  0
 12 33  1  0  0  0  0
 12 34  1  0  0  0  0
 13 35  1  0  0  0  0
 16 36  1  0  0  0  0
 16 37  1  0  0  0  0
 16 38  1  0  0  0  0
 17 39  1  0  0  0  0
 17 40  1  0  0  0  0
 18 41  1  0  0  0  0
 18 42  1  0  0  0  0
 19 43  1  0  0  0  0
 19 44  1  0  0  0  0
 21 45  1  0  0  0  0
 22 46  1  0  0  0  0
 23 47  1  0  0  0  0
M  END
> <creator>
Benjamin P. Brown, Vanderbilt University, Laboratory of Jens Meiler

> <fragments>
x0434

> <real_space>
FALSE

> <SCR>
FALSE

> <BB>
FALSE

> <link>
https://covid.postera.ai/covid/submissions/ed886787-7a03-461a-8e89-d76e33337a9e

> <covalent_frag>
FALSE

> <covalent_warhead>
TRUE

> <acrylamide>
TRUE

> <acrylamide_adduct>
FALSE

> <chloroacetamide>
FALSE

> <chloroacetamide_adduct>
FALSE

> <vinylsulfonamide>
FALSE

> <vinylsulfonamide_adduct>
FALSE

> <in_molport_or_mcule>
FALSE

> <in_emolecules>
FALSE

> <Hybrid2>
-5.086646

> <Mpro-x0434_dock>
-5.086646

> <Mpro-x0305_dock>
-4.523314

> <site>
active-noncovalent

> <covalent_distance_min>
9.437002

> <covalent_distance_mean>
9.998352

> <covalent_distance_stderr>
0.03564612

$$$$
MAK-UNK-cd9-1
  -OEChem-04062011563D

 50 51  0     0  0  0  0  0  0999 V2000
   12.6826    1.9083   20.4784 C   0  0  0  0  0  0  0  0  0  0  0  0
   12.5834    0.6051   20.9655 C   0  0  0  0  0  0  0  0  0  0  0  0
   12.4706    2.9903   21.3328 C   0  0  0  0  0  0  0  0  0  0  0  0
   12.0602    1.4657   23.1616 C   0  0  0  0  0  0  0  0  0  0  0  0
   12.2722    0.3838   22.3071 C   0  0  0  0  0  0  0  0  0  0  0  0
   12.1594    2.7690   22.6744 C   0  0  0  0  0  0  0  0  0  0  0  0
   12.1694   -0.9752   22.8148 C   0  0  0  0  0  0  0  0  0  0  0  0
    7.4863    7.2080   24.0481 C   0  0  0  0  0  0  0  0  0  0  0  0
    9.7924    7.0710   23.1625 C   0  0  0  0  0  0  0  0  0  0  0  0
    8.3458    5.0889   22.9350 C   0  0  0  0  0  0  0  0  0  0  0  0
   10.9177    6.2113   23.7195 C   0  0  0  0  0  0  0  0  0  0  0  0
    9.4507    4.1985   23.4873 C   0  0  0  0  0  0  0  0  0  0  0  0
    7.1217   -0.0663   22.1953 C   0  0  0  0  0  0  0  0  0  0  0  0
   11.9313    3.9327   23.5935 C   0  0  0  0  0  0  0  0  0  0  0  0
    6.0638    6.8573   23.6916 C   0  0  0  0  0  0  0  0  0  0  0  0
    8.9065   -1.8038   22.3807 C   0  0  0  0  0  0  0  0  0  0  0  0
    9.8866   -2.4420   23.3513 C   0  0  0  0  0  0  0  0  0  0  0  0
    8.4875    6.4641   23.4254 N   0  0  0  0  0  0  0  0  0  0  0  0
   10.7931    4.8124   23.1584 N   0  3  0  0  0  0  0  0  0  0  0  0
    8.0637   -0.8040   23.0808 N   0  3  0  0  0  0  0  0  0  0  0  0
   12.8078   -1.9319   22.3709 O   0  0  0  0  0  0  0  0  0  0  0  0
    7.6991    8.1142   24.8577 O   0  0  0  0  0  0  0  0  0  0  0  0
   10.9823   -1.2248   24.1125 S   0  0  0  0  0  0  0  0  0  0  0  0
    5.5586    5.5993   24.8142 Cl  0  0  0  0  0  0  0  0  0  0  0  0
   12.9238    2.0806   19.4335 H   0  0  0  0  0  0  0  0  0  0  0  0
   12.7510   -0.2308   20.2910 H   0  0  0  0  0  0  0  0  0  0  0  0
   12.5506    4.0023   20.9447 H   0  0  0  0  0  0  0  0  0  0  0  0
   11.8163    1.2950   24.2077 H   0  0  0  0  0  0  0  0  0  0  0  0
    9.8490    8.0738   23.5975 H   0  0  0  0  0  0  0  0  0  0  0  0
    9.8907    7.1826   22.0758 H   0  0  0  0  0  0  0  0  0  0  0  0
    8.3931    5.1278   21.8399 H   0  0  0  0  0  0  0  0  0  0  0  0
    7.3770    4.6607   23.1977 H   0  0  0  0  0  0  0  0  0  0  0  0
   11.8923    6.6018   23.4094 H   0  0  0  0  0  0  0  0  0  0  0  0
   10.8786    6.1406   24.8124 H   0  0  0  0  0  0  0  0  0  0  0  0
    9.3866    4.0924   24.5760 H   0  0  0  0  0  0  0  0  0  0  0  0
    9.4204    3.2099   23.0177 H   0  0  0  0  0  0  0  0  0  0  0  0
    6.4891   -0.8014   21.6945 H   0  0  0  0  0  0  0  0  0  0  0  0
    6.5272    0.6012   22.8221 H   0  0  0  0  0  0  0  0  0  0  0  0
    7.7146    0.4981   21.4731 H   0  0  0  0  0  0  0  0  0  0  0  0
   11.6976    3.5954   24.6090 H   0  0  0  0  0  0  0  0  0  0  0  0
   12.8190    4.5719   23.6502 H   0  0  0  0  0  0  0  0  0  0  0  0
    6.0387    6.4811   22.6753 H   0  0  0  0  0  0  0  0  0  0  0  0
    5.4434    7.7375   23.8150 H   0  0  0  0  0  0  0  0  0  0  0  0
    8.2325   -2.5316   21.9178 H   0  0  0  0  0  0  0  0  0  0  0  0
    9.4381   -1.2601   21.5939 H   0  0  0  0  0  0  0  0  0  0  0  0
    9.3341   -2.9410   24.1537 H   0  0  0  0  0  0  0  0  0  0  0  0
   10.4987   -3.1985   22.8493 H   0  0  0  0  0  0  0  0  0  0  0  0
   10.8546    4.8851   22.1334 H   0  0  0  0  0  0  0  0  0  0  0  0
    8.6704   -0.1249   23.5631 H   0  0  0  0  0  0  0  0  0  0  0  0
    7.5260   -1.2724   23.8247 H   0  0  0  0  0  0  0  0  0  0  0  0
  1  2  2  0  0  0  0
  1  3  1  0  0  0  0
  2  5  1  0  0  0  0
  3  6  2  0  0  0  0
  4  5  2  0  0  0  0
  4  6  1  0  0  0  0
  5  7  1  0  0  0  0
  6 14  1  0  0  0  0
  7 21  2  0  0  0  0
  7 23  1  0  0  0  0
  8 15  1  0  0  0  0
  8 18  1  0  0  0  0
  8 22  2  0  0  0  0
  9 11  1  0  0  0  0
  9 18  1  0  0  0  0
 10 12  1  0  0  0  0
 10 18  1  0  0  0  0
 11 19  1  0  0  0  0
 12 19  1  0  0  0  0
 13 20  1  0  0  0  0
 14 19  1  0  0  0  0
 15 24  1  0  0  0  0
 16 17  1  0  0  0  0
 16 20  1  0  0  0  0
 17 23  1  0  0  0  0
  1 25  1  0  0  0  0
  2 26  1  0  0  0  0
  3 27  1  0  0  0  0
  4 28  1  0  0  0  0
  9 29  1  0  0  0  0
  9 30  1  0  0  0  0
 10 31  1  0  0  0  0
 10 32  1  0  0  0  0
 11 33  1  0  0  0  0
 11 34  1  0  0  0  0
 12 35  1  0  0  0  0
 12 36  1  0  0  0  0
 13 37  1  0  0  0  0
 13 38  1  0  0  0  0
 13 39  1  0  0  0  0
 14 40  1  0  0  0  0
 14 41  1  0  0  0  0
 15 42  1  0  0  0  0
 15 43  1  0  0  0  0
 16 44  1  0  0  0  0
 16 45  1  0  0  0  0
 17 46  1  0  0  0  0
 17 47  1  0  0  0  0
 19 48  1  0  0  0  0
 20 49  1  0  0  0  0
 20 50  1  0  0  0  0
M  CHG  2  19   1  20   1
M  END
> <creator>
Maksym Voznyy

> <fragments>
x0104

> <real_space>
FALSE

> <SCR>
FALSE

> <BB>
FALSE

> <link>
https://covid.postera.ai/covid/submissions/cd94b63c-8061-4633-847b-b59c2fe4ac82

> <covalent_frag>
TRUE

> <covalent_warhead>
TRUE

> <acrylamide>
FALSE

> <acrylamide_adduct>
FALSE

> <chloroacetamide>
TRUE

> <chloroacetamide_adduct>
FALSE

> <vinylsulfonamide>
FALSE

> <vinylsulfonamide_adduct>
FALSE

> <in_molport_or_mcule>
FALSE

> <in_emolecules>
FALSE

> <Hybrid2>
-5.084774

> <Mpro-x0104_dock>
-5.084774

> <Mpro-x0692_dock>
-4.97152

> <site>
active-noncovalent

> <covalent_distance_min>
9.637426

> <covalent_distance_mean>
10.913251

> <covalent_distance_stderr>
0.08832845

$$$$
DR -UNK-640-2
  -OEChem-04062011563D

 52 55  0     1  0  0  0  0  0999 V2000
    3.4060    2.6290   20.7611 C   0  0  0  0  0  0  0  0  0  0  0  0
    3.4804    1.6327   21.7520 C   0  0  0  0  0  0  0  0  0  0  0  0
    4.1592    2.5293   19.5906 C   0  0  0  0  0  0  0  0  0  0  0  0
    4.3113    0.5191   21.5909 C   0  0  0  0  0  0  0  0  0  0  0  0
    8.2977   -0.0040   20.7841 C   0  0  0  0  0  0  0  0  0  0  0  0
    9.3852   -0.1711   21.6414 C   0  0  0  0  0  0  0  0  0  0  0  0
    7.1448   -1.8141   21.8938 C   0  0  0  0  0  0  0  0  0  0  0  0
    4.9723    1.4210   19.4563 C   0  0  0  0  0  0  0  0  0  0  0  0
    7.1774   -0.8255   20.9104 C   0  0  0  0  0  0  0  0  0  0  0  0
    5.0633    0.4264   20.4332 C   0  0  0  0  0  0  0  0  0  0  0  0
    9.3526   -1.1597   22.6248 C   0  0  0  0  0  0  0  0  0  0  0  0
    8.2324   -1.9813   22.7511 C   0  0  0  0  0  0  0  0  0  0  0  0
    5.8567    1.0592   18.3444 C   0  0  0  0  0  0  0  0  0  0  0  0
   14.2054    0.0737   26.2604 C   0  0  0  0  0  0  0  0  0  0  0  0
   14.5312    0.7733   25.1715 C   0  0  0  0  0  0  0  0  0  0  0  0
   14.3540    0.1506   23.8442 C   0  0  0  0  0  0  0  0  0  0  0  0
   11.5684   -2.1960   23.1488 C   0  0  0  0  0  0  0  0  0  0  0  0
   10.7812   -0.2753   24.4542 C   0  0  0  0  0  0  0  0  0  0  0  0
   12.7347   -1.3774   22.5917 C   0  0  0  0  0  0  0  0  0  0  0  0
   11.9268    0.5755   23.9028 C   0  0  0  0  0  0  0  0  0  0  0  0
    6.0148   -0.6462   19.9937 C   0  0  1  0  0  0  0  0  0  0  0  0
    6.4520   -0.1457   18.6960 N   0  0  0  0  0  0  0  0  0  0  0  0
   10.4492   -1.3073   23.4668 N   0  0  0  0  0  0  0  0  0  0  0  0
   13.0690   -0.2485   23.4812 N   0  0  0  0  0  0  0  0  0  0  0  0
    7.4586   -2.3695   25.2721 N   0  0  0  0  0  0  0  0  0  0  0  0
    6.0049    1.7183   17.3324 O   0  0  0  0  0  0  0  0  0  0  0  0
   15.3559    0.0155   23.1397 O   0  0  0  0  0  0  0  0  0  0  0  0
    7.2124   -4.2476   23.5234 O   0  0  0  0  0  0  0  0  0  0  0  0
    9.5117   -3.6091   24.3314 O   0  0  0  0  0  0  0  0  0  0  0  0
    8.1530   -3.2333   23.9729 S   0  0  0  0  0  0  0  0  0  0  0  0
    2.7520    3.4841   20.9093 H   0  0  0  0  0  0  0  0  0  0  0  0
    2.8816    1.7307   22.6535 H   0  0  0  0  0  0  0  0  0  0  0  0
    4.1002    3.2927   18.8237 H   0  0  0  0  0  0  0  0  0  0  0  0
    4.3598   -0.2459   22.3582 H   0  0  0  0  0  0  0  0  0  0  0  0
    8.3320    0.7687   20.0207 H   0  0  0  0  0  0  0  0  0  0  0  0
   10.2528    0.4749   21.5331 H   0  0  0  0  0  0  0  0  0  0  0  0
    6.2697   -2.4527   21.9896 H   0  0  0  0  0  0  0  0  0  0  0  0
   14.3131    0.4768   27.2618 H   0  0  0  0  0  0  0  0  0  0  0  0
   13.8175   -0.9348   26.1634 H   0  0  0  0  0  0  0  0  0  0  0  0
   14.9206    1.7814   25.2275 H   0  0  0  0  0  0  0  0  0  0  0  0
   11.2623   -2.9323   22.4027 H   0  0  0  0  0  0  0  0  0  0  0  0
   11.8841   -2.7327   24.0466 H   0  0  0  0  0  0  0  0  0  0  0  0
   11.0950   -0.7213   25.3955 H   0  0  0  0  0  0  0  0  0  0  0  0
    9.9052    0.3411   24.6399 H   0  0  0  0  0  0  0  0  0  0  0  0
   13.6041   -2.0190   22.4840 H   0  0  0  0  0  0  0  0  0  0  0  0
   12.4797   -0.9594   21.6205 H   0  0  0  0  0  0  0  0  0  0  0  0
   11.5698    1.1742   23.0579 H   0  0  0  0  0  0  0  0  0  0  0  0
   12.2933    1.2766   24.6626 H   0  0  0  0  0  0  0  0  0  0  0  0
    5.4996   -1.5973   19.8362 H   0  0  0  0  0  0  0  0  0  0  0  0
    7.1047   -0.6393   18.0947 H   0  0  0  0  0  0  0  0  0  0  0  0
    6.4861   -2.5821   25.5259 H   0  0  0  0  0  0  0  0  0  0  0  0
    8.0578   -2.1453   26.0757 H   0  0  0  0  0  0  0  0  0  0  0  0
  1  2  1  0  0  0  0
  1  3  2  0  0  0  0
  2  4  2  0  0  0  0
  3  8  1  0  0  0  0
  4 10  1  0  0  0  0
  5  6  2  0  0  0  0
  5  9  1  0  0  0  0
  6 11  1  0  0  0  0
  7  9  2  0  0  0  0
  7 12  1  0  0  0  0
  8 10  2  0  0  0  0
  8 13  1  0  0  0  0
  9 21  1  0  0  0  0
 10 21  1  0  0  0  0
 11 12  2  0  0  0  0
 11 23  1  0  0  0  0
 12 30  1  0  0  0  0
 13 22  1  0  0  0  0
 13 26  2  0  0  0  0
 14 15  2  0  0  0  0
 15 16  1  0  0  0  0
 16 24  1  0  0  0  0
 16 27  2  0  0  0  0
 17 19  1  0  0  0  0
 17 23  1  0  0  0  0
 18 20  1  0  0  0  0
 18 23  1  0  0  0  0
 19 24  1  0  0  0  0
 20 24  1  0  0  0  0
 21 22  1  0  0  0  0
 25 30  1  0  0  0  0
 28 30  2  0  0  0  0
 29 30  2  0  0  0  0
  1 31  1  0  0  0  0
  2 32  1  0  0  0  0
  3 33  1  0  0  0  0
  4 34  1  0  0  0  0
  5 35  1  0  0  0  0
  6 36  1  0  0  0  0
  7 37  1  0  0  0  0
 14 38  1  0  0  0  0
 14 39  1  0  0  0  0
 15 40  1  0  0  0  0
 17 41  1  0  0  0  0
 17 42  1  0  0  0  0
 18 43  1  0  0  0  0
 18 44  1  0  0  0  0
 19 45  1  0  0  0  0
 19 46  1  0  0  0  0
 20 47  1  0  0  0  0
 20 48  1  0  0  0  0
 21 49  1  0  0  0  0
 22 50  1  0  0  0  0
 25 51  1  0  0  0  0
 25 52  1  0  0  0  0
M  END
> <creator>
Dr Vamsi  Krishna Gurram

> <fragments>
x1093

> <real_space>
FALSE

> <SCR>
FALSE

> <BB>
FALSE

> <link>
https://covid.postera.ai/covid/submissions/64047f27-b27c-468c-87a8-63d24bd5bb43

> <covalent_frag>
FALSE

> <covalent_warhead>
TRUE

> <acrylamide>
TRUE

> <acrylamide_adduct>
FALSE

> <chloroacetamide>
FALSE

> <chloroacetamide_adduct>
FALSE

> <vinylsulfonamide>
FALSE

> <vinylsulfonamide_adduct>
FALSE

> <in_molport_or_mcule>
FALSE

> <in_emolecules>
FALSE

> <Hybrid2>
-5.077204

> <Mpro-x1093_dock>
-5.077204

> <Mpro-x1086_dock>
-2.801219

> <site>
active-noncovalent

> <covalent_distance_min>
8.374757

> <covalent_distance_mean>
9.401042

> <covalent_distance_stderr>
0.046515964

$$$$
DR -UNK-dd7-2
  -OEChem-04062011563D

 52 55  0     1  0  0  0  0  0999 V2000
    3.4060    2.6290   20.7611 C   0  0  0  0  0  0  0  0  0  0  0  0
    3.4804    1.6327   21.7520 C   0  0  0  0  0  0  0  0  0  0  0  0
    4.1592    2.5293   19.5906 C   0  0  0  0  0  0  0  0  0  0  0  0
    4.3113    0.5191   21.5909 C   0  0  0  0  0  0  0  0  0  0  0  0
    8.2977   -0.0040   20.7841 C   0  0  0  0  0  0  0  0  0  0  0  0
    9.3852   -0.1711   21.6414 C   0  0  0  0  0  0  0  0  0  0  0  0
    7.1448   -1.8141   21.8938 C   0  0  0  0  0  0  0  0  0  0  0  0
    4.9723    1.4210   19.4563 C   0  0  0  0  0  0  0  0  0  0  0  0
    7.1774   -0.8255   20.9104 C   0  0  0  0  0  0  0  0  0  0  0  0
    5.0633    0.4264   20.4332 C   0  0  0  0  0  0  0  0  0  0  0  0
    9.3526   -1.1597   22.6248 C   0  0  0  0  0  0  0  0  0  0  0  0
    8.2324   -1.9813   22.7511 C   0  0  0  0  0  0  0  0  0  0  0  0
    5.8567    1.0592   18.3444 C   0  0  0  0  0  0  0  0  0  0  0  0
   14.2054    0.0737   26.2604 C   0  0  0  0  0  0  0  0  0  0  0  0
   14.5312    0.7733   25.1715 C   0  0  0  0  0  0  0  0  0  0  0  0
   14.3540    0.1506   23.8442 C   0  0  0  0  0  0  0  0  0  0  0  0
   11.5684   -2.1960   23.1488 C   0  0  0  0  0  0  0  0  0  0  0  0
   10.7812   -0.2753   24.4542 C   0  0  0  0  0  0  0  0  0  0  0  0
   12.7347   -1.3774   22.5917 C   0  0  0  0  0  0  0  0  0  0  0  0
   11.9268    0.5755   23.9028 C   0  0  0  0  0  0  0  0  0  0  0  0
    6.0148   -0.6462   19.9937 C   0  0  1  0  0  0  0  0  0  0  0  0
    6.4520   -0.1457   18.6960 N   0  0  0  0  0  0  0  0  0  0  0  0
   10.4492   -1.3073   23.4668 N   0  0  0  0  0  0  0  0  0  0  0  0
   13.0690   -0.2485   23.4812 N   0  0  0  0  0  0  0  0  0  0  0  0
    7.4586   -2.3695   25.2721 N   0  0  0  0  0  0  0  0  0  0  0  0
    6.0049    1.7183   17.3324 O   0  0  0  0  0  0  0  0  0  0  0  0
   15.3559    0.0155   23.1397 O   0  0  0  0  0  0  0  0  0  0  0  0
    7.2124   -4.2476   23.5234 O   0  0  0  0  0  0  0  0  0  0  0  0
    9.5117   -3.6091   24.3314 O   0  0  0  0  0  0  0  0  0  0  0  0
    8.1530   -3.2333   23.9729 S   0  0  0  0  0  0  0  0  0  0  0  0
    2.7520    3.4841   20.9093 H   0  0  0  0  0  0  0  0  0  0  0  0
    2.8816    1.7307   22.6535 H   0  0  0  0  0  0  0  0  0  0  0  0
    4.1002    3.2927   18.8237 H   0  0  0  0  0  0  0  0  0  0  0  0
    4.3598   -0.2459   22.3582 H   0  0  0  0  0  0  0  0  0  0  0  0
    8.3320    0.7687   20.0207 H   0  0  0  0  0  0  0  0  0  0  0  0
   10.2528    0.4749   21.5331 H   0  0  0  0  0  0  0  0  0  0  0  0
    6.2697   -2.4527   21.9896 H   0  0  0  0  0  0  0  0  0  0  0  0
   14.3131    0.4768   27.2618 H   0  0  0  0  0  0  0  0  0  0  0  0
   13.8175   -0.9348   26.1634 H   0  0  0  0  0  0  0  0  0  0  0  0
   14.9206    1.7814   25.2275 H   0  0  0  0  0  0  0  0  0  0  0  0
   11.2623   -2.9323   22.4027 H   0  0  0  0  0  0  0  0  0  0  0  0
   11.8841   -2.7327   24.0466 H   0  0  0  0  0  0  0  0  0  0  0  0
   11.0950   -0.7213   25.3955 H   0  0  0  0  0  0  0  0  0  0  0  0
    9.9052    0.3411   24.6399 H   0  0  0  0  0  0  0  0  0  0  0  0
   13.6041   -2.0190   22.4840 H   0  0  0  0  0  0  0  0  0  0  0  0
   12.4797   -0.9594   21.6205 H   0  0  0  0  0  0  0  0  0  0  0  0
   11.5698    1.1742   23.0579 H   0  0  0  0  0  0  0  0  0  0  0  0
   12.2933    1.2766   24.6626 H   0  0  0  0  0  0  0  0  0  0  0  0
    5.4996   -1.5973   19.8362 H   0  0  0  0  0  0  0  0  0  0  0  0
    7.1047   -0.6393   18.0947 H   0  0  0  0  0  0  0  0  0  0  0  0
    6.4861   -2.5821   25.5259 H   0  0  0  0  0  0  0  0  0  0  0  0
    8.0578   -2.1453   26.0757 H   0  0  0  0  0  0  0  0  0  0  0  0
  1  2  1  0  0  0  0
  1  3  2  0  0  0  0
  2  4  2  0  0  0  0
  3  8  1  0  0  0  0
  4 10  1  0  0  0  0
  5  6  2  0  0  0  0
  5  9  1  0  0  0  0
  6 11  1  0  0  0  0
  7  9  2  0  0  0  0
  7 12  1  0  0  0  0
  8 10  2  0  0  0  0
  8 13  1  0  0  0  0
  9 21  1  0  0  0  0
 10 21  1  0  0  0  0
 11 12  2  0  0  0  0
 11 23  1  0  0  0  0
 12 30  1  0  0  0  0
 13 22  1  0  0  0  0
 13 26  2  0  0  0  0
 14 15  2  0  0  0  0
 15 16  1  0  0  0  0
 16 24  1  0  0  0  0
 16 27  2  0  0  0  0
 17 19  1  0  0  0  0
 17 23  1  0  0  0  0
 18 20  1  0  0  0  0
 18 23  1  0  0  0  0
 19 24  1  0  0  0  0
 20 24  1  0  0  0  0
 21 22  1  0  0  0  0
 25 30  1  0  0  0  0
 28 30  2  0  0  0  0
 29 30  2  0  0  0  0
  1 31  1  0  0  0  0
  2 32  1  0  0  0  0
  3 33  1  0  0  0  0
  4 34  1  0  0  0  0
  5 35  1  0  0  0  0
  6 36  1  0  0  0  0
  7 37  1  0  0  0  0
 14 38  1  0  0  0  0
 14 39  1  0  0  0  0
 15 40  1  0  0  0  0
 17 41  1  0  0  0  0
 17 42  1  0  0  0  0
 18 43  1  0  0  0  0
 18 44  1  0  0  0  0
 19 45  1  0  0  0  0
 19 46  1  0  0  0  0
 20 47  1  0  0  0  0
 20 48  1  0  0  0  0
 21 49  1  0  0  0  0
 22 50  1  0  0  0  0
 25 51  1  0  0  0  0
 25 52  1  0  0  0  0
M  END
> <creator>
Dr Vamsi  Krishna Gurram

> <fragments>
x1093

> <real_space>
FALSE

> <SCR>
FALSE

> <BB>
FALSE

> <link>
https://covid.postera.ai/covid/submissions/dd7f8c68-925c-400a-9147-04b42d92a020

> <covalent_frag>
FALSE

> <covalent_warhead>
TRUE

> <acrylamide>
TRUE

> <acrylamide_adduct>
FALSE

> <chloroacetamide>
FALSE

> <chloroacetamide_adduct>
FALSE

> <vinylsulfonamide>
FALSE

> <vinylsulfonamide_adduct>
FALSE

> <in_molport_or_mcule>
FALSE

> <in_emolecules>
FALSE

> <Hybrid2>
-5.077204

> <Mpro-x1093_dock>
-5.077204

> <Mpro-x1086_dock>
-2.801219

> <site>
active-noncovalent

> <covalent_distance_min>
8.009474

> <covalent_distance_mean>
8.955717

> <covalent_distance_stderr>
0.062073566

$$$$
BEN-VAN-d2b-6
  -OEChem-04062011563D

 45 47  0     1  0  0  0  0  0999 V2000
   10.1205   -2.8782   23.0199 C   0  0  0  0  0  0  0  0  0  0  0  0
    7.1624    2.0865   23.3029 C   0  0  0  0  0  0  0  0  0  0  0  0
    6.8749    1.4939   21.0618 C   0  0  0  0  0  0  0  0  0  0  0  0
    8.9562   -3.5393   23.3438 C   0  0  0  0  0  0  0  0  0  0  0  0
    9.8861   -1.5123   22.6887 C   0  0  0  0  0  0  0  0  0  0  0  0
    6.6866    2.4334   22.0548 C   0  0  0  0  0  0  0  0  0  0  0  0
    8.5514   -1.1816   22.7719 C   0  0  0  0  0  0  0  0  0  0  0  0
    7.8994    0.0835   22.5206 C   0  0  0  0  0  0  0  0  0  0  0  0
   10.6962    6.6348   23.8179 C   0  0  0  0  0  0  0  0  0  0  0  0
   10.9245    5.3324   24.0130 C   0  0  0  0  0  0  0  0  0  0  0  0
   10.5799    4.3415   22.9579 C   0  0  0  0  0  0  0  0  0  0  0  0
   10.6810    1.9094   22.5642 C   0  0  0  0  0  0  0  0  0  0  0  0
   13.3308   -0.0573   22.4824 C   0  0  0  0  0  0  0  0  0  0  0  0
   12.3742   -1.2148   22.2514 C   0  0  0  0  0  0  0  0  0  0  0  0
   12.6386    0.7498   23.5713 C   0  0  0  0  0  0  0  0  0  0  0  0
   10.9879   -0.5535   22.2941 C   0  0  2  0  0  0  0  0  0  0  0  0
   11.1445    0.6559   23.2459 C   0  0  2  0  0  0  0  0  0  0  0  0
    6.3593    4.8589   22.5401 C   0  0  0  0  0  0  0  0  0  0  0  0
    7.7761    0.9155   23.5722 N   0  0  0  0  0  0  0  0  0  0  0  0
    7.4797    0.3043   21.2602 N   0  0  0  0  0  0  0  0  0  0  0  0
    6.0565    3.6576   21.8121 N   0  0  0  0  0  0  0  0  0  0  0  0
   10.8924    3.0418   23.3490 N   0  0  0  0  0  0  0  0  0  0  0  0
   10.0827    4.6680   21.8851 O   0  0  0  0  0  0  0  0  0  0  0  0
   10.1977    1.8931   21.4353 O   0  0  0  0  0  0  0  0  0  0  0  0
    7.5876   -2.5146   23.2479 S   0  0  0  0  0  0  0  0  0  0  0  0
   11.0918   -3.3566   23.0221 H   0  0  0  0  0  0  0  0  0  0  0  0
    7.0647    2.7549   24.1529 H   0  0  0  0  0  0  0  0  0  0  0  0
    6.5397    1.6698   20.0443 H   0  0  0  0  0  0  0  0  0  0  0  0
    8.8438   -4.5749   23.6321 H   0  0  0  0  0  0  0  0  0  0  0  0
   10.9331    7.3874   24.5616 H   0  0  0  0  0  0  0  0  0  0  0  0
   10.2568    6.9746   22.8858 H   0  0  0  0  0  0  0  0  0  0  0  0
   11.3624    4.9881   24.9433 H   0  0  0  0  0  0  0  0  0  0  0  0
   14.3263   -0.3940   22.7853 H   0  0  0  0  0  0  0  0  0  0  0  0
   13.4326    0.5417   21.5699 H   0  0  0  0  0  0  0  0  0  0  0  0
   12.5599   -1.7185   21.2972 H   0  0  0  0  0  0  0  0  0  0  0  0
   12.4873   -1.9597   23.0496 H   0  0  0  0  0  0  0  0  0  0  0  0
   12.8286    0.2810   24.5448 H   0  0  0  0  0  0  0  0  0  0  0  0
   13.0170    1.7761   23.6156 H   0  0  0  0  0  0  0  0  0  0  0  0
   10.7416   -0.2008   21.2694 H   0  0  0  0  0  0  0  0  0  0  0  0
   10.5588    0.5556   24.1664 H   0  0  0  0  0  0  0  0  0  0  0  0
    7.1404    4.6494   23.2857 H   0  0  0  0  0  0  0  0  0  0  0  0
    6.7163    5.6304   21.8420 H   0  0  0  0  0  0  0  0  0  0  0  0
    5.4526    5.2169   23.0498 H   0  0  0  0  0  0  0  0  0  0  0  0
    5.3554    3.6862   21.0882 H   0  0  0  0  0  0  0  0  0  0  0  0
   11.3031    2.9099   24.2705 H   0  0  0  0  0  0  0  0  0  0  0  0
  1  4  2  0  0  0  0
  1  5  1  0  0  0  0
  2  6  1  0  0  0  0
  2 19  2  0  0  0  0
  3  6  2  0  0  0  0
  3 20  1  0  0  0  0
  4 25  1  0  0  0  0
  5  7  2  0  0  0  0
  5 16  1  0  0  0  0
  6 21  1  0  0  0  0
  7  8  1  0  0  0  0
  7 25  1  0  0  0  0
  8 19  1  0  0  0  0
  8 20  2  0  0  0  0
  9 10  2  0  0  0  0
 10 11  1  0  0  0  0
 11 22  1  0  0  0  0
 11 23  2  0  0  0  0
 12 17  1  0  0  0  0
 12 22  1  0  0  0  0
 12 24  2  0  0  0  0
 13 14  1  0  0  0  0
 13 15  1  0  0  0  0
 14 16  1  0  0  0  0
 15 17  1  0  0  0  0
 16 17  1  0  0  0  0
 18 21  1  0  0  0  0
  1 26  1  0  0  0  0
  2 27  1  0  0  0  0
  3 28  1  0  0  0  0
  4 29  1  0  0  0  0
  9 30  1  0  0  0  0
  9 31  1  0  0  0  0
 10 32  1  0  0  0  0
 13 33  1  0  0  0  0
 13 34  1  0  0  0  0
 14 35  1  0  0  0  0
 14 36  1  0  0  0  0
 15 37  1  0  0  0  0
 15 38  1  0  0  0  0
 16 39  1  0  0  0  0
 17 40  1  0  0  0  0
 18 41  1  0  0  0  0
 18 42  1  0  0  0  0
 18 43  1  0  0  0  0
 21 44  1  0  0  0  0
 22 45  1  0  0  0  0
M  END
> <creator>
Benjamin P. Brown, Vanderbilt University, Laboratory of Jens Meiler

> <fragments>
x0874

> <real_space>
FALSE

> <SCR>
FALSE

> <BB>
FALSE

> <link>
https://covid.postera.ai/covid/submissions/d2b455e2-4c45-4364-9fc0-1efc54e3e367

> <covalent_frag>
FALSE

> <covalent_warhead>
TRUE

> <acrylamide>
TRUE

> <acrylamide_adduct>
FALSE

> <chloroacetamide>
FALSE

> <chloroacetamide_adduct>
FALSE

> <vinylsulfonamide>
FALSE

> <vinylsulfonamide_adduct>
FALSE

> <in_molport_or_mcule>
FALSE

> <in_emolecules>
FALSE

> <Hybrid2>
-5.031328

> <Mpro-x0874_dock>
-5.031328

> <Mpro-x0305_dock>
-3.985076

> <site>
active-noncovalent

> <covalent_distance_min>
10.2544365

> <covalent_distance_mean>
11.408908

> <covalent_distance_stderr>
0.0685666

$$$$
AGN-NEW-5f0-1
  -OEChem-04062011563D

 76 79  0     0  0  0  0  0  0999 V2000
    7.1827   -2.9201   24.7545 C   0  0  0  0  0  0  0  0  0  0  0  0
    8.8767   -2.8664   23.0480 C   0  0  0  0  0  0  0  0  0  0  0  0
    6.8289   -1.6374   24.3679 C   0  0  0  0  0  0  0  0  0  0  0  0
    4.0203    1.1672   18.5633 C   0  0  0  0  0  0  0  0  0  0  0  0
    8.2271   -3.5392   24.0769 C   0  0  0  0  0  0  0  0  0  0  0  0
    4.2330    1.9997   19.6503 C   0  0  0  0  0  0  0  0  0  0  0  0
    5.2656    1.6782   20.5241 C   0  0  0  0  0  0  0  0  0  0  0  0
    6.0429    0.5498   20.2877 C   0  0  0  0  0  0  0  0  0  0  0  0
    5.7491   -0.2179   19.1723 C   0  0  0  0  0  0  0  0  0  0  0  0
    8.4469   -1.5862   22.7376 C   0  0  0  0  0  0  0  0  0  0  0  0
   13.5258    5.5984   22.5559 C   0  0  0  0  0  0  0  0  0  0  0  0
   12.9509    4.4009   22.4267 C   0  0  0  0  0  0  0  0  0  0  0  0
   13.0011    3.4609   23.5611 C   0  0  0  0  0  0  0  0  0  0  0  0
    8.4594    0.0691   20.8500 C   0  0  0  0  0  0  0  0  0  0  0  0
   11.6754    1.6617   22.2357 C   0  0  0  0  0  0  0  0  0  0  0  0
   12.3046    1.0858   24.1985 C   0  0  0  0  0  0  0  0  0  0  0  0
    6.6597    6.1502   22.2797 C   0  0  0  0  0  0  0  0  0  0  0  0
    7.5089    4.1620   23.5074 C   0  0  0  0  0  0  0  0  0  0  0  0
    6.7712    6.9226   23.5832 C   0  0  0  0  0  0  0  0  0  0  0  0
    7.5771    5.0373   24.7474 C   0  0  0  0  0  0  0  0  0  0  0  0
   11.2235    0.5736   23.2287 C   0  0  0  0  0  0  0  0  0  0  0  0
    8.6484   -4.9190   24.4526 C   0  0  0  0  0  0  0  0  0  0  0  0
    3.3695    3.1964   19.8538 C   0  0  0  0  0  0  0  0  0  0  0  0
    6.5466   -1.4435   18.8631 C   0  0  0  0  0  0  0  0  0  0  0  0
    5.5350    2.5511   21.7155 C   0  0  0  0  0  0  0  0  0  0  0  0
   11.3632   -0.8622   22.7628 C   0  0  0  0  0  0  0  0  0  0  0  0
   10.5695   -1.1495   21.4939 C   0  0  0  0  0  0  0  0  0  0  0  0
    6.2426    3.8587   21.3745 C   0  0  0  0  0  0  0  0  0  0  0  0
    4.7544    0.0627   18.3009 N   0  0  0  0  0  0  0  0  0  0  0  0
    7.4363   -0.9521   23.3734 N   0  0  0  0  0  0  0  0  0  0  0  0
   12.3903    2.2592   23.3478 N   0  0  0  0  0  0  0  0  0  0  0  0
    7.0858    0.2005   21.1495 N   0  0  0  0  0  0  0  0  0  0  0  0
    9.1307   -0.8926   21.6626 N   0  0  0  0  0  0  0  0  0  0  0  0
    6.4181    4.6958   22.6088 N   0  3  0  0  0  0  0  0  0  0  0  0
   13.5677    3.7856   24.6015 O   0  0  0  0  0  0  0  0  0  0  0  0
    9.0258    0.7292   19.9775 O   0  0  0  0  0  0  0  0  0  0  0  0
    7.8275    6.3968   24.3881 O   0  0  0  0  0  0  0  0  0  0  0  0
    6.6563   -3.4182   25.5614 H   0  0  0  0  0  0  0  0  0  0  0  0
    9.6942   -3.3349   22.5084 H   0  0  0  0  0  0  0  0  0  0  0  0
    6.0209   -1.1106   24.8647 H   0  0  0  0  0  0  0  0  0  0  0  0
    3.2291    1.3672   17.8474 H   0  0  0  0  0  0  0  0  0  0  0  0
   13.5219    6.3323   21.7570 H   0  0  0  0  0  0  0  0  0  0  0  0
   14.0195    5.8678   23.4836 H   0  0  0  0  0  0  0  0  0  0  0  0
   12.4490    4.0960   21.5177 H   0  0  0  0  0  0  0  0  0  0  0  0
   12.3445    1.3379   21.4329 H   0  0  0  0  0  0  0  0  0  0  0  0
   10.8651    2.2756   21.8348 H   0  0  0  0  0  0  0  0  0  0  0  0
   11.9564    1.2963   25.2127 H   0  0  0  0  0  0  0  0  0  0  0  0
   13.2413    0.5214   24.2255 H   0  0  0  0  0  0  0  0  0  0  0  0
    5.8166    6.5024   21.6776 H   0  0  0  0  0  0  0  0  0  0  0  0
    7.5881    6.1997   21.7003 H   0  0  0  0  0  0  0  0  0  0  0  0
    8.4426    4.1979   22.9356 H   0  0  0  0  0  0  0  0  0  0  0  0
    7.2578    3.1277   23.7613 H   0  0  0  0  0  0  0  0  0  0  0  0
    7.0078    7.9702   23.3717 H   0  0  0  0  0  0  0  0  0  0  0  0
    5.8314    6.9054   24.1479 H   0  0  0  0  0  0  0  0  0  0  0  0
    6.6570    4.9745   25.3406 H   0  0  0  0  0  0  0  0  0  0  0  0
    8.4027    4.7076   25.3859 H   0  0  0  0  0  0  0  0  0  0  0  0
   10.2089    0.7625   23.6097 H   0  0  0  0  0  0  0  0  0  0  0  0
    8.0871   -5.6618   23.8723 H   0  0  0  0  0  0  0  0  0  0  0  0
    9.7201   -5.0728   24.2696 H   0  0  0  0  0  0  0  0  0  0  0  0
    8.4783   -5.1114   25.5202 H   0  0  0  0  0  0  0  0  0  0  0  0
    2.4960    2.9395   20.4665 H   0  0  0  0  0  0  0  0  0  0  0  0
    3.9183    4.0053   20.3548 H   0  0  0  0  0  0  0  0  0  0  0  0
    3.0143    3.6011   18.8964 H   0  0  0  0  0  0  0  0  0  0  0  0
    6.0977   -2.3191   19.3452 H   0  0  0  0  0  0  0  0  0  0  0  0
    6.5922   -1.6232   17.7823 H   0  0  0  0  0  0  0  0  0  0  0  0
    7.5805   -1.3413   19.2145 H   0  0  0  0  0  0  0  0  0  0  0  0
    4.5772    2.7915   22.1959 H   0  0  0  0  0  0  0  0  0  0  0  0
    6.1130    2.0003   22.4689 H   0  0  0  0  0  0  0  0  0  0  0  0
   11.0081   -1.5253   23.5601 H   0  0  0  0  0  0  0  0  0  0  0  0
   12.4242   -1.0871   22.6021 H   0  0  0  0  0  0  0  0  0  0  0  0
   10.9165   -0.5039   20.6810 H   0  0  0  0  0  0  0  0  0  0  0  0
   10.6893   -2.1903   21.1773 H   0  0  0  0  0  0  0  0  0  0  0  0
    5.6424    4.4554   20.6812 H   0  0  0  0  0  0  0  0  0  0  0  0
    7.2393    3.7040   20.9503 H   0  0  0  0  0  0  0  0  0  0  0  0
    6.8202    0.0163   22.1214 H   0  0  0  0  0  0  0  0  0  0  0  0
    5.5326    4.6398   23.1310 H   0  0  0  0  0  0  0  0  0  0  0  0
  1  3  2  0  0  0  0
  1  5  1  0  0  0  0
  2  5  2  0  0  0  0
  2 10  1  0  0  0  0
  3 30  1  0  0  0  0
  4  6  2  0  0  0  0
  4 29  1  0  0  0  0
  5 22  1  0  0  0  0
  6  7  1  0  0  0  0
  6 23  1  0  0  0  0
  7  8  2  0  0  0  0
  7 25  1  0  0  0  0
  8  9  1  0  0  0  0
  8 32  1  0  0  0  0
  9 24  1  0  0  0  0
  9 29  2  0  0  0  0
 10 30  2  0  0  0  0
 10 33  1  0  0  0  0
 11 12  2  0  0  0  0
 12 13  1  0  0  0  0
 13 31  1  0  0  0  0
 13 35  2  0  0  0  0
 14 32  1  0  0  0  0
 14 33  1  0  0  0  0
 14 36  2  0  0  0  0
 15 21  1  0  0  0  0
 15 31  1  0  0  0  0
 16 21  1  0  0  0  0
 16 31  1  0  0  0  0
 17 19  1  0  0  0  0
 17 34  1  0  0  0  0
 18 20  1  0  0  0  0
 18 34  1  0  0  0  0
 19 37  1  0  0  0  0
 20 37  1  0  0  0  0
 21 26  1  0  0  0  0
 25 28  1  0  0  0  0
 26 27  1  0  0  0  0
 27 33  1  0  0  0  0
 28 34  1  0  0  0  0
  1 38  1  0  0  0  0
  2 39  1  0  0  0  0
  3 40  1  0  0  0  0
  4 41  1  0  0  0  0
 11 42  1  0  0  0  0
 11 43  1  0  0  0  0
 12 44  1  0  0  0  0
 15 45  1  0  0  0  0
 15 46  1  0  0  0  0
 16 47  1  0  0  0  0
 16 48  1  0  0  0  0
 17 49  1  0  0  0  0
 17 50  1  0  0  0  0
 18 51  1  0  0  0  0
 18 52  1  0  0  0  0
 19 53  1  0  0  0  0
 19 54  1  0  0  0  0
 20 55  1  0  0  0  0
 20 56  1  0  0  0  0
 21 57  1  0  0  0  0
 22 58  1  0  0  0  0
 22 59  1  0  0  0  0
 22 60  1  0  0  0  0
 23 61  1  0  0  0  0
 23 62  1  0  0  0  0
 23 63  1  0  0  0  0
 24 64  1  0  0  0  0
 24 65  1  0  0  0  0
 24 66  1  0  0  0  0
 25 67  1  0  0  0  0
 25 68  1  0  0  0  0
 26 69  1  0  0  0  0
 26 70  1  0  0  0  0
 27 71  1  0  0  0  0
 27 72  1  0  0  0  0
 28 73  1  0  0  0  0
 28 74  1  0  0  0  0
 32 75  1  0  0  0  0
 34 76  1  0  0  0  0
M  CHG  1  34   1
M  END
> <creator>
Agnieszka K. Bronowska, Newcastle University

> <fragments>
x0434

> <real_space>
FALSE

> <SCR>
FALSE

> <BB>
FALSE

> <link>
https://covid.postera.ai/covid/submissions/5f02c22c-d334-4d41-80cd-cb4029ada0dc

> <covalent_frag>
FALSE

> <covalent_warhead>
TRUE

> <acrylamide>
TRUE

> <acrylamide_adduct>
FALSE

> <chloroacetamide>
FALSE

> <chloroacetamide_adduct>
FALSE

> <vinylsulfonamide>
FALSE

> <vinylsulfonamide_adduct>
FALSE

> <in_molport_or_mcule>
FALSE

> <in_emolecules>
FALSE

> <Hybrid2>
-5.012227

> <Mpro-x0434_dock>
-5.012227

> <Mpro-x0540_dock>
1.536181

> <site>
active-noncovalent

> <covalent_distance_min>
12.181189

> <covalent_distance_mean>
13.297875

> <covalent_distance_stderr>
0.048337966

$$$$
DAV-CRI-f9b-6
  -OEChem-04062011563D

 74 77  0     1  0  0  0  0  0999 V2000
    6.4868   -5.5679   23.9086 C   0  0  0  0  0  0  0  0  0  0  0  0
    6.1226   -4.5944   22.9850 C   0  0  0  0  0  0  0  0  0  0  0  0
    6.6931   -1.2350   22.0204 C   0  0  0  0  0  0  0  0  0  0  0  0
    7.7616   -5.5722   24.4805 C   0  0  0  0  0  0  0  0  0  0  0  0
    6.3436   -0.2506   21.0961 C   0  0  0  0  0  0  0  0  0  0  0  0
    6.2879   -2.9403   20.3576 C   0  0  0  0  0  0  0  0  0  0  0  0
    6.6653   -2.5799   21.6512 C   0  0  0  0  0  0  0  0  0  0  0  0
    7.0278   -3.5977   22.6092 C   0  0  0  0  0  0  0  0  0  0  0  0
    8.3224   -3.5789   23.1718 C   0  0  0  0  0  0  0  0  0  0  0  0
    5.9383   -1.9559   19.4333 C   0  0  0  0  0  0  0  0  0  0  0  0
    8.6657   -4.5680   24.0985 C   0  0  0  0  0  0  0  0  0  0  0  0
    5.9661   -0.6110   19.8025 C   0  0  0  0  0  0  0  0  0  0  0  0
   10.3918   -2.9445   23.5987 C   0  0  0  0  0  0  0  0  0  0  0  0
   14.0377   -0.9024   21.0369 C   0  0  0  0  0  0  0  0  0  0  0  0
   13.0041    5.8692   22.5518 C   0  0  0  0  0  0  0  0  0  0  0  0
   12.7472    2.7095   23.2926 C   0  0  0  0  0  0  0  0  0  0  0  0
   11.7231   -1.0601   24.6332 C   0  0  0  0  0  0  0  0  0  0  0  0
   13.0352   -0.2841   24.5590 C   0  0  0  0  0  0  0  0  0  0  0  0
   11.9377   -1.5513   22.1616 C   0  0  0  0  0  0  0  0  0  0  0  0
   11.6850   -2.1510   23.5530 C   0  0  2  0  0  0  0  0  0  0  0  0
   13.3031    0.2880   23.1620 C   0  0  1  0  0  0  0  0  0  0  0  0
    7.9467    3.6989   23.5158 C   0  0  0  0  0  0  0  0  0  0  0  0
   15.2910   -0.0632   21.0484 C   0  0  0  0  0  0  0  0  0  0  0  0
   12.0008    5.1065   23.3991 C   0  0  0  0  0  0  0  0  0  0  0  0
   11.6866    3.7095   22.8629 C   0  0  2  0  0  0  0  0  0  0  0  0
    9.1709    3.8449   22.6157 C   0  0  2  0  0  0  0  0  0  0  0  0
    9.3212   -2.6564   22.8962 N   0  0  0  0  0  0  0  0  0  0  0  0
   13.1689   -0.7508   22.1225 N   0  0  0  0  0  0  0  0  0  0  0  0
   13.3299    7.0914   23.1004 N   0  0  0  0  0  0  0  0  0  0  0  0
    8.9117    3.1881   21.3384 N   0  0  0  0  0  0  0  0  0  0  0  0
    7.0653    1.0224   18.0057 N   0  0  0  0  0  0  0  0  0  0  0  0
   12.4473    1.4191   22.8834 N   0  0  0  0  0  0  0  0  0  0  0  0
   10.3480    3.2853   23.3680 N   0  3  0  0  0  0  0  0  0  0  0  0
    5.5954   -2.3164   18.2505 O   0  5  0  0  0  0  0  0  0  0  0  0
   13.8402   -1.6735   20.0940 O   0  0  0  0  0  0  0  0  0  0  0  0
   13.4776    5.4474   21.5008 O   0  0  0  0  0  0  0  0  0  0  0  0
   13.7497    3.0361   23.9240 O   0  0  0  0  0  0  0  0  0  0  0  0
    4.6652    0.1407   17.6775 O   0  0  0  0  0  0  0  0  0  0  0  0
    5.1204    1.8324   19.4882 O   0  0  0  0  0  0  0  0  0  0  0  0
   10.2884   -4.3114   24.6219 S   0  0  0  0  0  0  0  0  0  0  0  0
    5.5415    0.6894   18.6974 S   0  0  0  0  0  0  0  0  0  0  0  0
   14.9055    1.4286   20.1980 Cl  0  0  0  0  0  0  0  0  0  0  0  0
    5.7721   -6.3363   24.1913 H   0  0  0  0  0  0  0  0  0  0  0  0
    5.1223   -4.6194   22.5583 H   0  0  0  0  0  0  0  0  0  0  0  0
    6.9853   -0.9381   23.0249 H   0  0  0  0  0  0  0  0  0  0  0  0
    8.0393   -6.3348   25.2017 H   0  0  0  0  0  0  0  0  0  0  0  0
    6.3705    0.7934   21.3970 H   0  0  0  0  0  0  0  0  0  0  0  0
    6.2704   -3.9952   20.0820 H   0  0  0  0  0  0  0  0  0  0  0  0
   11.6190   -1.5088   25.6290 H   0  0  0  0  0  0  0  0  0  0  0  0
   10.8771   -0.3706   24.5124 H   0  0  0  0  0  0  0  0  0  0  0  0
   13.0335    0.5184   25.3068 H   0  0  0  0  0  0  0  0  0  0  0  0
   13.8619   -0.9538   24.8304 H   0  0  0  0  0  0  0  0  0  0  0  0
   11.9776   -2.3508   21.4128 H   0  0  0  0  0  0  0  0  0  0  0  0
   11.1145   -0.8881   21.8651 H   0  0  0  0  0  0  0  0  0  0  0  0
   12.5033   -2.8769   23.7659 H   0  0  0  0  0  0  0  0  0  0  0  0
   14.3166    0.6939   23.1630 H   0  0  0  0  0  0  0  0  0  0  0  0
    7.7045    2.6459   23.7005 H   0  0  0  0  0  0  0  0  0  0  0  0
    7.0684    4.1732   23.0632 H   0  0  0  0  0  0  0  0  0  0  0  0
    8.1138    4.1803   24.4860 H   0  0  0  0  0  0  0  0  0  0  0  0
   16.0760   -0.5976   20.5260 H   0  0  0  0  0  0  0  0  0  0  0  0
   15.5594    0.1523   22.0761 H   0  0  0  0  0  0  0  0  0  0  0  0
   11.0838    5.7036   23.4845 H   0  0  0  0  0  0  0  0  0  0  0  0
   12.4265    5.0358   24.4084 H   0  0  0  0  0  0  0  0  0  0  0  0
   11.6055    3.7009   21.7701 H   0  0  0  0  0  0  0  0  0  0  0  0
    9.3777    4.9093   22.4569 H   0  0  0  0  0  0  0  0  0  0  0  0
   13.9901    7.7100   22.6412 H   0  0  0  0  0  0  0  0  0  0  0  0
   12.9288    7.4190   23.9734 H   0  0  0  0  0  0  0  0  0  0  0  0
    8.1263    3.6410   20.8725 H   0  0  0  0  0  0  0  0  0  0  0  0
    9.7133    3.3097   20.7212 H   0  0  0  0  0  0  0  0  0  0  0  0
    7.2191    0.7465   17.0281 H   0  0  0  0  0  0  0  0  0  0  0  0
    7.5294    1.9008   18.2671 H   0  0  0  0  0  0  0  0  0  0  0  0
   11.5885    1.2618   22.3651 H   0  0  0  0  0  0  0  0  0  0  0  0
   10.2821    3.5618   24.3565 H   0  0  0  0  0  0  0  0  0  0  0  0
   10.2973    2.2584   23.3580 H   0  0  0  0  0  0  0  0  0  0  0  0
  1  2  1  0  0  0  0
  1  4  2  0  0  0  0
  2  8  2  0  0  0  0
  3  5  2  0  0  0  0
  3  7  1  0  0  0  0
  4 11  1  0  0  0  0
  5 12  1  0  0  0  0
  6  7  2  0  0  0  0
  6 10  1  0  0  0  0
  7  8  1  0  0  0  0
  8  9  1  0  0  0  0
  9 11  2  0  0  0  0
  9 27  1  0  0  0  0
 10 12  2  0  0  0  0
 10 34  1  0  0  0  0
 11 40  1  0  0  0  0
 12 41  1  0  0  0  0
 13 20  1  0  0  0  0
 13 27  2  0  0  0  0
 13 40  1  0  0  0  0
 14 23  1  0  0  0  0
 14 28  1  0  0  0  0
 14 35  2  0  0  0  0
 15 24  1  0  0  0  0
 15 29  1  0  0  0  0
 15 36  2  0  0  0  0
 16 25  1  0  0  0  0
 16 32  1  0  0  0  0
 16 37  2  0  0  0  0
 17 18  1  0  0  0  0
 17 20  1  0  0  0  0
 18 21  1  0  0  0  0
 19 20  1  0  0  0  0
 19 28  1  0  0  0  0
 21 28  1  0  0  0  0
 21 32  1  0  0  0  0
 22 26  1  0  0  0  0
 23 42  1  0  0  0  0
 24 25  1  0  0  0  0
 25 33  1  0  0  0  0
 26 30  1  0  0  0  0
 26 33  1  0  0  0  0
 31 41  1  0  0  0  0
 38 41  2  0  0  0  0
 39 41  2  0  0  0  0
  1 43  1  0  0  0  0
  2 44  1  0  0  0  0
  3 45  1  0  0  0  0
  4 46  1  0  0  0  0
  5 47  1  0  0  0  0
  6 48  1  0  0  0  0
 17 49  1  0  0  0  0
 17 50  1  0  0  0  0
 18 51  1  0  0  0  0
 18 52  1  0  0  0  0
 19 53  1  0  0  0  0
 19 54  1  0  0  0  0
 20 55  1  0  0  0  0
 21 56  1  0  0  0  0
 22 57  1  0  0  0  0
 22 58  1  0  0  0  0
 22 59  1  0  0  0  0
 23 60  1  0  0  0  0
 23 61  1  0  0  0  0
 24 62  1  0  0  0  0
 24 63  1  0  0  0  0
 25 64  1  0  0  0  0
 26 65  1  0  0  0  0
 29 66  1  0  0  0  0
 29 67  1  0  0  0  0
 30 68  1  0  0  0  0
 30 69  1  0  0  0  0
 31 70  1  0  0  0  0
 31 71  1  0  0  0  0
 32 72  1  0  0  0  0
 33 73  1  0  0  0  0
 33 74  1  0  0  0  0
M  CHG  2  33   1  34  -1
M  END
> <creator>
David Briggs, Crick Institute

> <fragments>
x0161

> <real_space>
FALSE

> <SCR>
FALSE

> <BB>
FALSE

> <link>
https://covid.postera.ai/covid/submissions/f9b12666-ae78-4cf8-8d60-dc19988e42d3

> <covalent_frag>
TRUE

> <covalent_warhead>
TRUE

> <acrylamide>
FALSE

> <acrylamide_adduct>
FALSE

> <chloroacetamide>
TRUE

> <chloroacetamide_adduct>
FALSE

> <vinylsulfonamide>
FALSE

> <vinylsulfonamide_adduct>
FALSE

> <in_molport_or_mcule>
FALSE

> <in_emolecules>
FALSE

> <Hybrid2>
-5.001788

> <Mpro-x0161_dock>
-5.001788

> <Mpro-x0749_dock>
-2.46794

> <Mpro-x0981_dock>
8.789695

> <site>
active-noncovalent

$$$$
MAK-UNK-e4a-2
  -OEChem-04062011563D

 47 48  0     1  0  0  0  0  0999 V2000
    7.3049    0.8239   20.1649 C   0  0  0  0  0  0  0  0  0  0  0  0
    6.9115    1.2515   18.9159 C   0  0  0  0  0  0  0  0  0  0  0  0
    6.2764   -1.0876   19.3340 C   0  0  0  0  0  0  0  0  0  0  0  0
    6.9372   -0.5312   20.4072 C   0  0  0  0  0  0  0  0  0  0  0  0
   11.8054    2.4040   23.5789 C   0  0  0  0  0  0  0  0  0  0  0  0
    6.0901   -3.3618   21.5511 C   0  0  0  0  0  0  0  0  0  0  0  0
   11.2406    0.6915   21.8850 C   0  0  0  0  0  0  0  0  0  0  0  0
    9.6542    1.0565   23.7352 C   0  0  0  0  0  0  0  0  0  0  0  0
   11.1909   -0.8124   22.1117 C   0  0  0  0  0  0  0  0  0  0  0  0
    9.5791   -0.4431   23.9888 C   0  0  0  0  0  0  0  0  0  0  0  0
    3.9309   -3.6320   22.7529 C   0  0  0  0  0  0  0  0  0  0  0  0
   11.4168    3.1038   24.8568 C   0  0  0  0  0  0  0  0  0  0  0  0
    8.2039   -3.0051   22.9199 C   0  0  0  0  0  0  0  0  0  0  0  0
    9.6907   -2.6651   22.8548 C   0  0  0  0  0  0  0  0  0  0  0  0
    7.4277   -2.6392   21.6486 C   0  0  2  0  0  0  0  0  0  0  0  0
   10.9336    1.4193   23.1164 N   0  0  0  0  0  0  0  0  0  0  0  0
    7.2093   -1.2100   21.5818 N   0  0  0  0  0  0  0  0  0  0  0  0
    5.2534   -3.0671   22.6178 N   0  0  0  0  0  0  0  0  0  0  0  0
    9.8441   -1.1787   22.6942 N   0  3  0  0  0  0  0  0  0  0  0  0
   12.8538    2.7225   23.0119 O   0  0  0  0  0  0  0  0  0  0  0  0
    5.8059   -4.1182   20.6247 O   0  0  0  0  0  0  0  0  0  0  0  0
    6.1021    0.0218   18.0413 S   0  0  0  0  0  0  0  0  0  0  0  0
   10.4789    4.5185   24.3912 Cl  0  0  0  0  0  0  0  0  0  0  0  0
    7.8307    1.4597   20.8665 H   0  0  0  0  0  0  0  0  0  0  0  0
    7.0608    2.2274   18.4759 H   0  0  0  0  0  0  0  0  0  0  0  0
    5.8855   -2.0918   19.2422 H   0  0  0  0  0  0  0  0  0  0  0  0
   12.2279    0.9713   21.5044 H   0  0  0  0  0  0  0  0  0  0  0  0
   10.5041    0.9950   21.1309 H   0  0  0  0  0  0  0  0  0  0  0  0
    8.8597    1.3716   23.0479 H   0  0  0  0  0  0  0  0  0  0  0  0
    9.4917    1.5864   24.6753 H   0  0  0  0  0  0  0  0  0  0  0  0
   11.2935   -1.3499   21.1635 H   0  0  0  0  0  0  0  0  0  0  0  0
   11.9636   -1.1482   22.8124 H   0  0  0  0  0  0  0  0  0  0  0  0
   10.3235   -0.7731   24.7220 H   0  0  0  0  0  0  0  0  0  0  0  0
    8.5773   -0.7276   24.3263 H   0  0  0  0  0  0  0  0  0  0  0  0
    3.1940   -2.9551   22.2958 H   0  0  0  0  0  0  0  0  0  0  0  0
    3.8956   -4.6079   22.2467 H   0  0  0  0  0  0  0  0  0  0  0  0
    3.6957   -3.7634   23.8194 H   0  0  0  0  0  0  0  0  0  0  0  0
   12.3169    3.4090   25.3781 H   0  0  0  0  0  0  0  0  0  0  0  0
   10.8086    2.4336   25.4534 H   0  0  0  0  0  0  0  0  0  0  0  0
    8.0895   -4.0810   23.1083 H   0  0  0  0  0  0  0  0  0  0  0  0
    7.7569   -2.4902   23.7800 H   0  0  0  0  0  0  0  0  0  0  0  0
   10.2208   -2.9354   23.7722 H   0  0  0  0  0  0  0  0  0  0  0  0
   10.1849   -3.1232   21.9937 H   0  0  0  0  0  0  0  0  0  0  0  0
    8.0271   -2.9256   20.7756 H   0  0  0  0  0  0  0  0  0  0  0  0
    7.2580   -0.6825   22.4444 H   0  0  0  0  0  0  0  0  0  0  0  0
    5.5860   -2.4596   23.3607 H   0  0  0  0  0  0  0  0  0  0  0  0
    9.1256   -0.8815   22.0196 H   0  0  0  0  0  0  0  0  0  0  0  0
  1  2  2  0  0  0  0
  1  4  1  0  0  0  0
  2 22  1  0  0  0  0
  3  4  2  0  0  0  0
  3 22  1  0  0  0  0
  4 17  1  0  0  0  0
  5 12  1  0  0  0  0
  5 16  1  0  0  0  0
  5 20  2  0  0  0  0
  6 15  1  0  0  0  0
  6 18  1  0  0  0  0
  6 21  2  0  0  0  0
  7  9  1  0  0  0  0
  7 16  1  0  0  0  0
  8 10  1  0  0  0  0
  8 16  1  0  0  0  0
  9 19  1  0  0  0  0
 10 19  1  0  0  0  0
 11 18  1  0  0  0  0
 12 23  1  0  0  0  0
 13 14  1  0  0  0  0
 13 15  1  0  0  0  0
 14 19  1  0  0  0  0
 15 17  1  0  0  0  0
  1 24  1  0  0  0  0
  2 25  1  0  0  0  0
  3 26  1  0  0  0  0
  7 27  1  0  0  0  0
  7 28  1  0  0  0  0
  8 29  1  0  0  0  0
  8 30  1  0  0  0  0
  9 31  1  0  0  0  0
  9 32  1  0  0  0  0
 10 33  1  0  0  0  0
 10 34  1  0  0  0  0
 11 35  1  0  0  0  0
 11 36  1  0  0  0  0
 11 37  1  0  0  0  0
 12 38  1  0  0  0  0
 12 39  1  0  0  0  0
 13 40  1  0  0  0  0
 13 41  1  0  0  0  0
 14 42  1  0  0  0  0
 14 43  1  0  0  0  0
 15 44  1  0  0  0  0
 17 45  1  0  0  0  0
 18 46  1  0  0  0  0
 19 47  1  0  0  0  0
M  CHG  1  19   1
M  END
> <creator>
Maksym Voznyy

> <fragments>
x0692

> <real_space>
FALSE

> <SCR>
FALSE

> <BB>
FALSE

> <link>
https://covid.postera.ai/covid/submissions/e4a48a85-91ce-4c28-86d4-edf9997dafca

> <covalent_frag>
TRUE

> <covalent_warhead>
TRUE

> <acrylamide>
FALSE

> <acrylamide_adduct>
FALSE

> <chloroacetamide>
TRUE

> <chloroacetamide_adduct>
FALSE

> <vinylsulfonamide>
FALSE

> <vinylsulfonamide_adduct>
FALSE

> <in_molport_or_mcule>
FALSE

> <in_emolecules>
FALSE

> <Hybrid2>
-5.000103

> <Mpro-x0692_dock>
-5.000103

> <Mpro-x0387_dock>
-4.617452

> <site>
active-covalent

> <covalent_distance_min>
9.814749

> <covalent_distance_mean>
11.018746

> <covalent_distance_stderr>
0.08418533

$$$$
DAN-LON-a5f-1
  -OEChem-04062011563D

 39 40  0     1  0  0  0  0  0999 V2000
   11.4600    0.3719   24.7774 C   0  0  0  0  0  0  0  0  0  0  0  0
   10.5692   -0.6969   24.8766 C   0  0  0  0  0  0  0  0  0  0  0  0
   12.4270    0.3828   23.7721 C   0  0  0  0  0  0  0  0  0  0  0  0
   11.6125   -1.7439   22.9655 C   0  0  0  0  0  0  0  0  0  0  0  0
   10.6455   -1.7548   23.9707 C   0  0  0  0  0  0  0  0  0  0  0  0
   12.5033   -0.6751   22.8662 C   0  0  0  0  0  0  0  0  0  0  0  0
    6.7541   -0.6380   23.2516 C   0  0  0  0  0  0  0  0  0  0  0  0
    6.3357   -3.1390   20.2378 C   0  0  0  0  0  0  0  0  0  0  0  0
    7.4047   -4.1099   22.2403 C   0  0  0  0  0  0  0  0  0  0  0  0
    8.1076   -1.8473   21.5237 C   0  0  0  0  0  0  0  0  0  0  0  0
    7.3137   -3.6487   23.6859 C   0  0  0  0  0  0  0  0  0  0  0  0
    8.0474   -1.3414   22.9647 C   0  0  2  0  0  0  0  0  0  0  0  0
    9.6878   -2.9046   24.0788 C   0  0  0  0  0  0  0  0  0  0  0  0
    6.1965   -1.9558   19.3132 C   0  0  0  0  0  0  0  0  0  0  0  0
    7.2253   -3.0005   21.3048 N   0  0  0  0  0  0  0  0  0  0  0  0
    6.5404    0.4711   22.4677 N   0  0  0  0  0  0  0  0  0  0  0  0
    8.2457   -2.4873   23.9406 N   0  3  2  0  0  0  0  0  0  0  0  0
    5.9652   -1.0433   24.1017 O   0  0  0  0  0  0  0  0  0  0  0  0
    5.6708   -4.1548   20.0181 O   0  0  0  0  0  0  0  0  0  0  0  0
   13.6973   -0.6616   21.6269 Cl  0  0  0  0  0  0  0  0  0  0  0  0
    7.4210   -2.1464   18.0634 Cl  0  0  0  0  0  0  0  0  0  0  0  0
   11.4004    1.1954   25.4831 H   0  0  0  0  0  0  0  0  0  0  0  0
    9.8191   -0.6971   25.6631 H   0  0  0  0  0  0  0  0  0  0  0  0
   13.1149    1.2222   23.7070 H   0  0  0  0  0  0  0  0  0  0  0  0
   11.6675   -2.5708   22.2612 H   0  0  0  0  0  0  0  0  0  0  0  0
    8.3613   -4.6208   22.0889 H   0  0  0  0  0  0  0  0  0  0  0  0
    6.6190   -4.8486   22.0229 H   0  0  0  0  0  0  0  0  0  0  0  0
    7.7967   -1.0671   20.8151 H   0  0  0  0  0  0  0  0  0  0  0  0
    9.1416   -2.1036   21.2634 H   0  0  0  0  0  0  0  0  0  0  0  0
    6.2939   -3.3059   23.9136 H   0  0  0  0  0  0  0  0  0  0  0  0
    7.5835   -4.4538   24.3865 H   0  0  0  0  0  0  0  0  0  0  0  0
    8.8795   -0.6214   23.1660 H   0  0  0  0  0  0  0  0  0  0  0  0
    9.8754   -3.6508   23.2993 H   0  0  0  0  0  0  0  0  0  0  0  0
    9.7788   -3.4052   25.0488 H   0  0  0  0  0  0  0  0  0  0  0  0
    6.3771   -1.0471   19.8758 H   0  0  0  0  0  0  0  0  0  0  0  0
    5.2071   -1.9704   18.8706 H   0  0  0  0  0  0  0  0  0  0  0  0
    7.2425    0.7242   21.7803 H   0  0  0  0  0  0  0  0  0  0  0  0
    5.7086    1.0468   22.5490 H   0  0  0  0  0  0  0  0  0  0  0  0
    7.9765   -2.1024   24.8894 H   0  0  0  0  0  0  0  0  0  0  0  0
  1  2  2  0  0  0  0
  1  3  1  0  0  0  0
  2  5  1  0  0  0  0
  3  6  2  0  0  0  0
  4  5  2  0  0  0  0
  4  6  1  0  0  0  0
  5 13  1  0  0  0  0
  6 20  1  0  0  0  0
  7 12  1  0  0  0  0
  7 16  1  0  0  0  0
  7 18  2  0  0  0  0
  8 14  1  0  0  0  0
  8 15  1  0  0  0  0
  8 19  2  0  0  0  0
  9 11  1  0  0  0  0
  9 15  1  0  0  0  0
 10 12  1  0  0  0  0
 10 15  1  0  0  0  0
 11 17  1  0  0  0  0
 12 17  1  0  0  0  0
 13 17  1  0  0  0  0
 14 21  1  0  0  0  0
  1 22  1  0  0  0  0
  2 23  1  0  0  0  0
  3 24  1  0  0  0  0
  4 25  1  0  0  0  0
  9 26  1  0  0  0  0
  9 27  1  0  0  0  0
 10 28  1  0  0  0  0
 10 29  1  0  0  0  0
 11 30  1  0  0  0  0
 11 31  1  0  0  0  0
 12 32  1  0  0  0  0
 13 33  1  0  0  0  0
 13 34  1  0  0  0  0
 14 35  1  0  0  0  0
 14 36  1  0  0  0  0
 16 37  1  0  0  0  0
 16 38  1  0  0  0  0
 17 39  1  0  0  0  0
M  CHG  1  17   1
M  END
> <creator>
Daniel Zaidman, London Lab, Weizmann Institute of Science

> <fragments>
x0770

> <real_space>
FALSE

> <SCR>
FALSE

> <BB>
FALSE

> <link>
https://covid.postera.ai/covid/submissions/a5fc619e-a7a0-43cf-a105-697cf3dc31cf

> <covalent_frag>
TRUE

> <covalent_warhead>
TRUE

> <acrylamide>
FALSE

> <acrylamide_adduct>
FALSE

> <chloroacetamide>
TRUE

> <chloroacetamide_adduct>
FALSE

> <vinylsulfonamide>
FALSE

> <vinylsulfonamide_adduct>
FALSE

> <in_molport_or_mcule>
FALSE

> <in_emolecules>
FALSE

> <Hybrid2>
-4.988998

> <Mpro-x0770_dock>
-4.988998

> <site>
active-covalent

> <covalent_distance_min>
4.6075835

> <covalent_distance_mean>
5.775089

> <covalent_distance_stderr>
0.07208705

$$$$
JAN-GHE-bf4-11
  -OEChem-04062011563D

 40 42  0     1  0  0  0  0  0999 V2000
   11.9860    3.0583   24.0375 C   0  0  0  0  0  0  0  0  0  0  0  0
   13.3886    1.1005   23.4882 C   0  0  0  0  0  0  0  0  0  0  0  0
   13.5268   -0.1897   23.1521 C   0  0  0  0  0  0  0  0  0  0  0  0
   11.0094    1.1168   23.0176 C   0  0  0  0  0  0  0  0  0  0  0  0
   10.7214   -1.9613   23.9612 C   0  0  0  0  0  0  0  0  0  0  0  0
   12.0915    1.7404   23.5129 C   0  0  0  0  0  0  0  0  0  0  0  0
    6.8722    0.1852   18.0569 C   0  0  0  0  0  0  0  0  0  0  0  0
    5.7170   -0.4070   18.3747 C   0  0  0  0  0  0  0  0  0  0  0  0
    5.6998   -1.5862   19.2809 C   0  0  0  0  0  0  0  0  0  0  0  0
    7.1644   -1.8354   22.7879 C   0  0  0  0  0  0  0  0  0  0  0  0
    7.3735   -3.3642   21.3413 C   0  0  0  0  0  0  0  0  0  0  0  0
   11.0693   -0.2698   22.4141 C   0  0  1  0  0  0  0  0  0  0  0  0
   12.3569   -1.0499   22.7678 C   0  0  2  0  0  0  0  0  0  0  0  0
    9.9608   -1.1822   22.9359 C   0  0  1  0  0  0  0  0  0  0  0  0
    6.3248   -2.2737   21.5834 C   0  0  0  0  0  0  0  0  0  0  0  0
    9.4142   -2.1331   21.8811 C   0  0  0  0  0  0  0  0  0  0  0  0
   11.9002    4.1332   24.4653 N   0  0  0  0  0  0  0  0  0  0  0  0
   12.0124   -1.9236   23.9141 N   0  0  0  0  0  0  0  0  0  0  0  0
    6.2278   -1.2822   20.5188 N   0  0  0  0  0  0  0  0  0  0  0  0
    8.2079   -2.8091   22.4215 N   0  3  0  0  0  0  0  0  0  0  0  0
    5.2645   -2.6794   18.9336 O   0  0  0  0  0  0  0  0  0  0  0  0
   14.2631    1.6821   23.7639 H   0  0  0  0  0  0  0  0  0  0  0  0
   14.5141   -0.6422   23.1608 H   0  0  0  0  0  0  0  0  0  0  0  0
   10.0453    1.6209   23.0033 H   0  0  0  0  0  0  0  0  0  0  0  0
   10.1790   -2.5579   24.7094 H   0  0  0  0  0  0  0  0  0  0  0  0
    6.8767    1.0444   17.3943 H   0  0  0  0  0  0  0  0  0  0  0  0
    7.8283   -0.1570   18.4373 H   0  0  0  0  0  0  0  0  0  0  0  0
    4.7818   -0.0326   17.9726 H   0  0  0  0  0  0  0  0  0  0  0  0
    7.4977   -0.7802   22.7736 H   0  0  0  0  0  0  0  0  0  0  0  0
    6.7152   -2.0369   23.7758 H   0  0  0  0  0  0  0  0  0  0  0  0
    7.0381   -4.3962   21.5436 H   0  0  0  0  0  0  0  0  0  0  0  0
    7.8498   -3.3505   20.3424 H   0  0  0  0  0  0  0  0  0  0  0  0
   10.9920   -0.1386   21.3267 H   0  0  0  0  0  0  0  0  0  0  0  0
   12.6454   -1.6847   21.9202 H   0  0  0  0  0  0  0  0  0  0  0  0
    9.1401   -0.6419   23.4185 H   0  0  0  0  0  0  0  0  0  0  0  0
    5.3291   -2.6640   21.8512 H   0  0  0  0  0  0  0  0  0  0  0  0
   10.1398   -2.9081   21.6327 H   0  0  0  0  0  0  0  0  0  0  0  0
    9.1125   -1.5954   20.9818 H   0  0  0  0  0  0  0  0  0  0  0  0
    6.5951   -0.3596   20.7136 H   0  0  0  0  0  0  0  0  0  0  0  0
    8.4267   -3.4865   23.1691 H   0  0  0  0  0  0  0  0  0  0  0  0
  1  6  1  0  0  0  0
  1 17  3  0  0  0  0
  2  3  2  0  0  0  0
  2  6  1  0  0  0  0
  3 13  1  0  0  0  0
  4  6  2  0  0  0  0
  4 12  1  0  0  0  0
  5 14  1  0  0  0  0
  5 18  2  0  0  0  0
  7  8  2  0  0  0  0
  8  9  1  0  0  0  0
  9 19  1  0  0  0  0
  9 21  2  0  0  0  0
 10 15  1  0  0  0  0
 10 20  1  0  0  0  0
 11 15  1  0  0  0  0
 11 20  1  0  0  0  0
 12 13  1  0  0  0  0
 12 14  1  0  0  0  0
 13 18  1  0  0  0  0
 14 16  1  0  0  0  0
 15 19  1  0  0  0  0
 16 20  1  0  0  0  0
  2 22  1  0  0  0  0
  3 23  1  0  0  0  0
  4 24  1  0  0  0  0
  5 25  1  0  0  0  0
  7 26  1  0  0  0  0
  7 27  1  0  0  0  0
  8 28  1  0  0  0  0
 10 29  1  0  0  0  0
 10 30  1  0  0  0  0
 11 31  1  0  0  0  0
 11 32  1  0  0  0  0
 12 33  1  0  0  0  0
 13 34  1  0  0  0  0
 14 35  1  0  0  0  0
 15 36  1  0  0  0  0
 16 37  1  0  0  0  0
 16 38  1  0  0  0  0
 19 39  1  0  0  0  0
 20 40  1  0  0  0  0
M  CHG  1  20   1
M  END
> <creator>
Jan, Ghent university

> <fragments>
x0692

> <real_space>
FALSE

> <SCR>
FALSE

> <BB>
FALSE

> <link>
https://covid.postera.ai/covid/submissions/bf40f168-4eec-438e-a3f5-b4da0b83bc9c

> <covalent_frag>
TRUE

> <covalent_warhead>
TRUE

> <acrylamide>
TRUE

> <acrylamide_adduct>
FALSE

> <chloroacetamide>
FALSE

> <chloroacetamide_adduct>
FALSE

> <vinylsulfonamide>
FALSE

> <vinylsulfonamide_adduct>
FALSE

> <in_molport_or_mcule>
FALSE

> <in_emolecules>
FALSE

> <Hybrid2>
-4.962409

> <Mpro-x0692_dock>
-4.962409

> <Mpro-x0305_dock>
-2.57773

> <Mpro-x0755_dock>
0.055336

> <site>
active-covalent

> <covalent_distance_min>
7.589452

> <covalent_distance_mean>
8.193475

> <covalent_distance_stderr>
0.026690977

$$$$
PAU-UNI-b6a-1
  -OEChem-04062011563D

 59 62  0     1  0  0  0  0  0999 V2000
    7.5262   -4.7005   26.0442 C   0  0  0  0  0  0  0  0  0  0  0  0
    6.2877   -4.4759   25.4388 C   0  0  0  0  0  0  0  0  0  0  0  0
    8.7083   -4.2162   25.4701 C   0  0  0  0  0  0  0  0  0  0  0  0
    6.1843   -3.7612   24.2408 C   0  0  0  0  0  0  0  0  0  0  0  0
    4.3208    1.3282   18.9763 C   0  0  0  0  0  0  0  0  0  0  0  0
    5.2534    0.8522   18.0688 C   0  0  0  0  0  0  0  0  0  0  0  0
    6.8333    0.5582   19.7107 C   0  0  0  0  0  0  0  0  0  0  0  0
    4.6963    1.4109   20.3125 C   0  0  0  0  0  0  0  0  0  0  0  0
    8.6231   -3.4962   24.2664 C   0  0  0  0  0  0  0  0  0  0  0  0
    5.9748    1.0206   20.6951 C   0  0  0  0  0  0  0  0  0  0  0  0
    7.3746   -3.2885   23.6871 C   0  0  0  0  0  0  0  0  0  0  0  0
    8.9935   -2.3747   22.4875 C   0  0  0  0  0  0  0  0  0  0  0  0
    6.2241    0.0676   22.8174 C   0  0  0  0  0  0  0  0  0  0  0  0
   10.7867    1.3163   23.3721 C   0  0  0  0  0  0  0  0  0  0  0  0
   12.1646   -1.6519   21.8322 C   0  0  0  0  0  0  0  0  0  0  0  0
   11.0274   -2.1834   20.9635 C   0  0  0  0  0  0  0  0  0  0  0  0
   12.1428   -0.1307   21.9007 C   0  0  0  0  0  0  0  0  0  0  0  0
    9.6891   -0.0832   21.5576 C   0  0  0  0  0  0  0  0  0  0  0  0
    9.6524   -1.6072   21.3407 C   0  0  2  0  0  0  0  0  0  0  0  0
    3.7138    1.9190   21.3155 C   0  0  0  0  0  0  0  0  0  0  0  0
    6.6358    0.0155   24.2716 C   0  0  0  0  0  0  0  0  0  0  0  0
    5.6078   -1.1850   22.2158 C   0  0  0  0  0  0  0  0  0  0  0  0
    9.6242    2.2768   23.3427 C   0  0  0  0  0  0  0  0  0  0  0  0
    6.6641   -2.0996   21.5947 C   0  0  0  0  0  0  0  0  0  0  0  0
    6.5045    0.4637   18.4028 N   0  0  0  0  0  0  0  0  0  0  0  0
    9.6165   -2.9213   23.5074 N   0  0  0  0  0  0  0  0  0  0  0  0
    6.3991    1.0878   22.0309 N   0  0  0  0  0  0  0  0  0  0  0  0
    7.6416   -2.5686   22.5508 N   0  0  0  0  0  0  0  0  0  0  0  0
   10.8422    0.3679   22.3483 N   0  0  0  0  0  0  0  0  0  0  0  0
   11.6169    1.4044   24.2804 O   0  0  0  0  0  0  0  0  0  0  0  0
   10.1782    3.7619   24.1078 Cl  0  0  0  0  0  0  0  0  0  0  0  0
    7.5742   -5.2584   26.9758 H   0  0  0  0  0  0  0  0  0  0  0  0
    5.3862   -4.8640   25.9068 H   0  0  0  0  0  0  0  0  0  0  0  0
    9.6654   -4.3956   25.9490 H   0  0  0  0  0  0  0  0  0  0  0  0
    5.2225   -3.5865   23.7719 H   0  0  0  0  0  0  0  0  0  0  0  0
    3.3308    1.6237   18.6459 H   0  0  0  0  0  0  0  0  0  0  0  0
    5.0104    0.7674   17.0148 H   0  0  0  0  0  0  0  0  0  0  0  0
    7.8435    0.2393   19.9492 H   0  0  0  0  0  0  0  0  0  0  0  0
   12.0805   -2.0692   22.8429 H   0  0  0  0  0  0  0  0  0  0  0  0
   13.1277   -1.9887   21.4270 H   0  0  0  0  0  0  0  0  0  0  0  0
   11.2492   -1.9692   19.8983 H   0  0  0  0  0  0  0  0  0  0  0  0
   11.0052   -3.2908   21.0355 H   0  0  0  0  0  0  0  0  0  0  0  0
   12.8961    0.2336   22.6144 H   0  0  0  0  0  0  0  0  0  0  0  0
   12.4043    0.2872   20.9197 H   0  0  0  0  0  0  0  0  0  0  0  0
    9.6450    0.4303   20.5786 H   0  0  0  0  0  0  0  0  0  0  0  0
    8.7805    0.2570   22.0979 H   0  0  0  0  0  0  0  0  0  0  0  0
    8.9662   -1.7925   20.4433 H   0  0  0  0  0  0  0  0  0  0  0  0
    3.1254    1.0897   21.7253 H   0  0  0  0  0  0  0  0  0  0  0  0
    4.2204    2.4304   22.1434 H   0  0  0  0  0  0  0  0  0  0  0  0
    3.0264    2.6457   20.8646 H   0  0  0  0  0  0  0  0  0  0  0  0
    7.6722   -0.3251   24.3441 H   0  0  0  0  0  0  0  0  0  0  0  0
    6.5368    0.9994   24.7365 H   0  0  0  0  0  0  0  0  0  0  0  0
    5.9996   -0.6839   24.8207 H   0  0  0  0  0  0  0  0  0  0  0  0
    5.0837   -1.7194   23.0163 H   0  0  0  0  0  0  0  0  0  0  0  0
    4.8539   -0.8951   21.4744 H   0  0  0  0  0  0  0  0  0  0  0  0
    8.8024    1.8514   23.9075 H   0  0  0  0  0  0  0  0  0  0  0  0
    9.3525    2.4684   22.3110 H   0  0  0  0  0  0  0  0  0  0  0  0
    7.1899   -1.5569   20.7989 H   0  0  0  0  0  0  0  0  0  0  0  0
    6.1844   -2.9566   21.1057 H   0  0  0  0  0  0  0  0  0  0  0  0
  1  2  1  0  0  0  0
  1  3  2  0  0  0  0
  2  4  2  0  0  0  0
  3  9  1  0  0  0  0
  4 11  1  0  0  0  0
  5  6  2  0  0  0  0
  5  8  1  0  0  0  0
  6 25  1  0  0  0  0
  7 10  1  0  0  0  0
  7 25  2  0  0  0  0
  8 10  2  0  0  0  0
  8 20  1  0  0  0  0
  9 11  2  0  0  0  0
  9 26  1  0  0  0  0
 10 27  1  0  0  0  0
 11 28  1  0  0  0  0
 12 19  1  0  0  0  0
 12 26  2  0  0  0  0
 12 28  1  0  0  0  0
 13 21  1  0  0  0  0
 13 22  1  0  0  0  0
 13 27  2  0  0  0  0
 14 23  1  0  0  0  0
 14 29  1  0  0  0  0
 14 30  2  0  0  0  0
 15 16  1  0  0  0  0
 15 17  1  0  0  0  0
 16 19  1  0  0  0  0
 17 29  1  0  0  0  0
 18 19  1  0  0  0  0
 18 29  1  0  0  0  0
 22 24  1  0  0  0  0
 23 31  1  0  0  0  0
 24 28  1  0  0  0  0
  1 32  1  0  0  0  0
  2 33  1  0  0  0  0
  3 34  1  0  0  0  0
  4 35  1  0  0  0  0
  5 36  1  0  0  0  0
  6 37  1  0  0  0  0
  7 38  1  0  0  0  0
 15 39  1  0  0  0  0
 15 40  1  0  0  0  0
 16 41  1  0  0  0  0
 16 42  1  0  0  0  0
 17 43  1  0  0  0  0
 17 44  1  0  0  0  0
 18 45  1  0  0  0  0
 18 46  1  0  0  0  0
 19 47  1  0  0  0  0
 20 48  1  0  0  0  0
 20 49  1  0  0  0  0
 20 50  1  0  0  0  0
 21 51  1  0  0  0  0
 21 52  1  0  0  0  0
 21 53  1  0  0  0  0
 22 54  1  0  0  0  0
 22 55  1  0  0  0  0
 23 56  1  0  0  0  0
 23 57  1  0  0  0  0
 24 58  1  0  0  0  0
 24 59  1  0  0  0  0
M  END
> <creator>
paul brear, University of Cambridge

> <fragments>
x0107

> <real_space>
FALSE

> <SCR>
FALSE

> <BB>
FALSE

> <link>
https://covid.postera.ai/covid/submissions/b6a619a1-bcac-4be4-a999-5665a0ef0199

> <covalent_frag>
TRUE

> <covalent_warhead>
TRUE

> <acrylamide>
FALSE

> <acrylamide_adduct>
FALSE

> <chloroacetamide>
TRUE

> <chloroacetamide_adduct>
FALSE

> <vinylsulfonamide>
FALSE

> <vinylsulfonamide_adduct>
FALSE

> <in_molport_or_mcule>
FALSE

> <in_emolecules>
FALSE

> <Hybrid2>
-4.961240

> <Mpro-x0107_dock>
-4.96124

> <Mpro-x0749_dock>
-4.448146

> <site>
active-noncovalent

> <covalent_distance_min>
10.124469

> <covalent_distance_mean>
10.799062

> <covalent_distance_stderr>
0.039625842

$$$$
TAM-UNI-d1c-13
  -OEChem-04062011563D

 52 54  0     0  0  0  0  0  0999 V2000
    9.5669   -5.3080   25.8052 C   0  0  0  0  0  0  0  0  0  0  0  0
    8.1983   -5.4139   26.0508 C   0  0  0  0  0  0  0  0  0  0  0  0
   10.0361   -4.3816   24.8811 C   0  0  0  0  0  0  0  0  0  0  0  0
    7.2773   -4.5973   25.3726 C   0  0  0  0  0  0  0  0  0  0  0  0
    7.7553   -3.6567   24.4380 C   0  0  0  0  0  0  0  0  0  0  0  0
    9.1370   -3.5603   24.2027 C   0  0  0  0  0  0  0  0  0  0  0  0
    6.2584   -3.8393   21.5369 C   0  0  0  0  0  0  0  0  0  0  0  0
   11.1492    2.6938   24.0997 C   0  0  0  0  0  0  0  0  0  0  0  0
    5.8052   -4.7387   25.6845 C   0  0  0  0  0  0  0  0  0  0  0  0
    6.8153   -2.7525   23.6791 C   0  0  0  0  0  0  0  0  0  0  0  0
    4.9483   -5.1445   24.4815 C   0  0  0  0  0  0  0  0  0  0  0  0
    4.6693   -3.9973   23.5099 C   0  0  0  0  0  0  0  0  0  0  0  0
   10.0897    0.7084   25.1277 C   0  0  0  0  0  0  0  0  0  0  0  0
   12.0984    0.3615   23.7428 C   0  0  0  0  0  0  0  0  0  0  0  0
    9.3621   -0.4044   24.3876 C   0  0  0  0  0  0  0  0  0  0  0  0
   11.4012   -0.7586   22.9825 C   0  0  0  0  0  0  0  0  0  0  0  0
    7.1812   -2.8728   20.8378 C   0  0  0  0  0  0  0  0  0  0  0  0
    9.7170   -2.5861   23.2259 C   0  0  0  0  0  0  0  0  0  0  0  0
   12.2437    3.2348   23.2147 C   0  0  0  0  0  0  0  0  0  0  0  0
    5.8858   -3.5175   22.8456 N   0  0  0  0  0  0  0  0  0  0  0  0
   11.1223    1.3123   24.2855 N   0  0  0  0  0  0  0  0  0  0  0  0
   10.3763   -1.4077   23.8856 N   0  3  0  0  0  0  0  0  0  0  0  0
    5.8782   -4.8503   20.9404 O   0  0  0  0  0  0  0  0  0  0  0  0
   10.3421    3.4766   24.6074 O   0  0  0  0  0  0  0  0  0  0  0  0
   13.6033    3.6104   24.2674 Cl  0  0  0  0  0  0  0  0  0  0  0  0
   10.2649   -5.9481   26.3368 H   0  0  0  0  0  0  0  0  0  0  0  0
    7.8541   -6.1437   26.7800 H   0  0  0  0  0  0  0  0  0  0  0  0
   11.1046   -4.3057   24.6971 H   0  0  0  0  0  0  0  0  0  0  0  0
    5.6737   -5.5053   26.4592 H   0  0  0  0  0  0  0  0  0  0  0  0
    5.4392   -3.8040   26.1271 H   0  0  0  0  0  0  0  0  0  0  0  0
    6.2463   -2.1329   24.3832 H   0  0  0  0  0  0  0  0  0  0  0  0
    7.3494   -2.0479   23.0344 H   0  0  0  0  0  0  0  0  0  0  0  0
    5.4011   -5.9905   23.9497 H   0  0  0  0  0  0  0  0  0  0  0  0
    3.9800   -5.4953   24.8605 H   0  0  0  0  0  0  0  0  0  0  0  0
    3.9345   -4.3299   22.7730 H   0  0  0  0  0  0  0  0  0  0  0  0
    4.2131   -3.1493   24.0345 H   0  0  0  0  0  0  0  0  0  0  0  0
    9.3672    1.4618   25.4566 H   0  0  0  0  0  0  0  0  0  0  0  0
   10.5839    0.3186   26.0260 H   0  0  0  0  0  0  0  0  0  0  0  0
   12.6649   -0.0425   24.5907 H   0  0  0  0  0  0  0  0  0  0  0  0
   12.8173    0.8484   23.0817 H   0  0  0  0  0  0  0  0  0  0  0  0
    8.6859   -0.9370   25.0613 H   0  0  0  0  0  0  0  0  0  0  0  0
    8.8075   -0.0271   23.5232 H   0  0  0  0  0  0  0  0  0  0  0  0
   10.8792   -0.3876   22.0956 H   0  0  0  0  0  0  0  0  0  0  0  0
   12.1175   -1.5334   22.6970 H   0  0  0  0  0  0  0  0  0  0  0  0
    8.2092   -3.1610   21.0311 H   0  0  0  0  0  0  0  0  0  0  0  0
    6.9993   -1.8717   21.2154 H   0  0  0  0  0  0  0  0  0  0  0  0
    6.9822   -2.9005   19.7714 H   0  0  0  0  0  0  0  0  0  0  0  0
   10.4806   -3.0582   22.5960 H   0  0  0  0  0  0  0  0  0  0  0  0
    8.9452   -2.1797   22.5611 H   0  0  0  0  0  0  0  0  0  0  0  0
   11.8891    4.1365   22.7286 H   0  0  0  0  0  0  0  0  0  0  0  0
   12.5266    2.4713   22.4991 H   0  0  0  0  0  0  0  0  0  0  0  0
   10.8810   -1.7696   24.7081 H   0  0  0  0  0  0  0  0  0  0  0  0
  1  2  2  0  0  0  0
  1  3  1  0  0  0  0
  2  4  1  0  0  0  0
  3  6  2  0  0  0  0
  4  5  2  0  0  0  0
  4  9  1  0  0  0  0
  5  6  1  0  0  0  0
  5 10  1  0  0  0  0
  6 18  1  0  0  0  0
  7 17  1  0  0  0  0
  7 20  1  0  0  0  0
  7 23  2  0  0  0  0
  8 19  1  0  0  0  0
  8 21  1  0  0  0  0
  8 24  2  0  0  0  0
  9 11  1  0  0  0  0
 10 20  1  0  0  0  0
 11 12  1  0  0  0  0
 12 20  1  0  0  0  0
 13 15  1  0  0  0  0
 13 21  1  0  0  0  0
 14 16  1  0  0  0  0
 14 21  1  0  0  0  0
 15 22  1  0  0  0  0
 16 22  1  0  0  0  0
 18 22  1  0  0  0  0
 19 25  1  0  0  0  0
  1 26  1  0  0  0  0
  2 27  1  0  0  0  0
  3 28  1  0  0  0  0
  9 29  1  0  0  0  0
  9 30  1  0  0  0  0
 10 31  1  0  0  0  0
 10 32  1  0  0  0  0
 11 33  1  0  0  0  0
 11 34  1  0  0  0  0
 12 35  1  0  0  0  0
 12 36  1  0  0  0  0
 13 37  1  0  0  0  0
 13 38  1  0  0  0  0
 14 39  1  0  0  0  0
 14 40  1  0  0  0  0
 15 41  1  0  0  0  0
 15 42  1  0  0  0  0
 16 43  1  0  0  0  0
 16 44  1  0  0  0  0
 17 45  1  0  0  0  0
 17 46  1  0  0  0  0
 17 47  1  0  0  0  0
 18 48  1  0  0  0  0
 18 49  1  0  0  0  0
 19 50  1  0  0  0  0
 19 51  1  0  0  0  0
 22 52  1  0  0  0  0
M  CHG  1  22   1
M  END
> <creator>
Tamas Szommer, University of Oxford, TDI

> <fragments>
x1392

> <real_space>
FALSE

> <SCR>
FALSE

> <BB>
FALSE

> <link>
https://covid.postera.ai/covid/submissions/d1c3dd9f-771c-474e-9133-8c7e4ace8b98

> <covalent_frag>
TRUE

> <covalent_warhead>
TRUE

> <acrylamide>
FALSE

> <acrylamide_adduct>
FALSE

> <chloroacetamide>
TRUE

> <chloroacetamide_adduct>
FALSE

> <vinylsulfonamide>
FALSE

> <vinylsulfonamide_adduct>
FALSE

> <in_molport_or_mcule>
FALSE

> <in_emolecules>
FALSE

> <Hybrid2>
-4.925334

> <Mpro-x1392_dock>
-4.925334

> <Mpro-x0692_dock>
-4.056229

> <Mpro-x1386_dock>
-3.444588

> <Mpro-x1382_dock>
0.913539

> <site>
active-covalent

> <covalent_distance_min>
6.266515

> <covalent_distance_mean>
7.0436997

> <covalent_distance_stderr>
0.024491275

$$$$
TAM-UNI-d1c-21
  -OEChem-04062011563D

 45 46  0     1  0  0  0  0  0999 V2000
    8.1706   -5.6037   25.7690 C   0  0  0  0  0  0  0  0  0  0  0  0
    7.0341   -4.8650   26.0978 C   0  0  0  0  0  0  0  0  0  0  0  0
    9.0698   -5.1154   24.8211 C   0  0  0  0  0  0  0  0  0  0  0  0
    6.7967   -3.6379   25.4786 C   0  0  0  0  0  0  0  0  0  0  0  0
    8.8324   -3.8883   24.2018 C   0  0  0  0  0  0  0  0  0  0  0  0
    7.6958   -3.1495   24.5306 C   0  0  0  0  0  0  0  0  0  0  0  0
    6.4748   -2.7414   21.7770 C   0  0  0  0  0  0  0  0  0  0  0  0
   11.2813   -1.4260   22.7579 C   0  0  0  0  0  0  0  0  0  0  0  0
   13.0927    0.2536   22.9120 C   0  0  0  0  0  0  0  0  0  0  0  0
   11.0694    0.6336   24.2691 C   0  0  0  0  0  0  0  0  0  0  0  0
   13.0994    1.7412   22.5972 C   0  0  0  0  0  0  0  0  0  0  0  0
   11.1847    2.1112   23.9101 C   0  0  0  0  0  0  0  0  0  0  0  0
    6.1306   -1.1695   24.3831 C   0  0  0  0  0  0  0  0  0  0  0  0
    9.8146   -3.3820   23.1854 C   0  0  0  0  0  0  0  0  0  0  0  0
    6.6131   -2.6760   20.2774 C   0  0  0  0  0  0  0  0  0  0  0  0
    7.4201   -1.8335   23.8804 C   0  0  2  0  0  0  0  0  0  0  0  0
   11.7467   -0.2020   23.2673 N   0  0  0  0  0  0  0  0  0  0  0  0
    7.3863   -1.9382   22.4322 N   0  0  0  0  0  0  0  0  0  0  0  0
   10.3788   -2.1066   23.5666 N   0  0  0  0  0  0  0  0  0  0  0  0
    5.6173   -3.4360   22.3197 O   0  0  0  0  0  0  0  0  0  0  0  0
   11.6475   -1.8795   21.6685 O   0  0  0  0  0  0  0  0  0  0  0  0
   12.5484    2.4747   23.6926 O   0  0  0  0  0  0  0  0  0  0  0  0
    6.3515   -0.9973   19.7791 Cl  0  0  0  0  0  0  0  0  0  0  0  0
    8.3547   -6.5594   26.2508 H   0  0  0  0  0  0  0  0  0  0  0  0
    6.3342   -5.2460   26.8358 H   0  0  0  0  0  0  0  0  0  0  0  0
    9.9516   -5.6994   24.5707 H   0  0  0  0  0  0  0  0  0  0  0  0
    5.9085   -3.0694   25.7418 H   0  0  0  0  0  0  0  0  0  0  0  0
   13.4959   -0.3156   22.0693 H   0  0  0  0  0  0  0  0  0  0  0  0
   13.7239    0.0521   23.7859 H   0  0  0  0  0  0  0  0  0  0  0  0
   11.5682    0.4346   25.2245 H   0  0  0  0  0  0  0  0  0  0  0  0
   10.0130    0.3816   24.3712 H   0  0  0  0  0  0  0  0  0  0  0  0
   14.1278    2.0862   22.4509 H   0  0  0  0  0  0  0  0  0  0  0  0
   12.5401    1.9638   21.6808 H   0  0  0  0  0  0  0  0  0  0  0  0
   10.5924    2.3535   23.0195 H   0  0  0  0  0  0  0  0  0  0  0  0
   10.8058    2.7232   24.7348 H   0  0  0  0  0  0  0  0  0  0  0  0
    5.2663   -1.8195   24.2084 H   0  0  0  0  0  0  0  0  0  0  0  0
    6.1858   -0.9597   25.4573 H   0  0  0  0  0  0  0  0  0  0  0  0
    5.9432   -0.2151   23.8782 H   0  0  0  0  0  0  0  0  0  0  0  0
   10.6396   -4.0915   23.0589 H   0  0  0  0  0  0  0  0  0  0  0  0
    9.3389   -3.2585   22.2068 H   0  0  0  0  0  0  0  0  0  0  0  0
    7.6001   -2.9940   19.9324 H   0  0  0  0  0  0  0  0  0  0  0  0
    5.8517   -3.3097   19.8144 H   0  0  0  0  0  0  0  0  0  0  0  0
    8.2435   -1.1282   24.0870 H   0  0  0  0  0  0  0  0  0  0  0  0
    8.0516   -1.4059   21.8867 H   0  0  0  0  0  0  0  0  0  0  0  0
   10.1078   -1.6962   24.4508 H   0  0  0  0  0  0  0  0  0  0  0  0
  1  2  1  0  0  0  0
  1  3  2  0  0  0  0
  2  4  2  0  0  0  0
  3  5  1  0  0  0  0
  4  6  1  0  0  0  0
  5  6  2  0  0  0  0
  5 14  1  0  0  0  0
  6 16  1  0  0  0  0
  7 15  1  0  0  0  0
  7 18  1  0  0  0  0
  7 20  2  0  0  0  0
  8 17  1  0  0  0  0
  8 19  1  0  0  0  0
  8 21  2  0  0  0  0
  9 11  1  0  0  0  0
  9 17  1  0  0  0  0
 10 12  1  0  0  0  0
 10 17  1  0  0  0  0
 11 22  1  0  0  0  0
 12 22  1  0  0  0  0
 13 16  1  0  0  0  0
 14 19  1  0  0  0  0
 15 23  1  0  0  0  0
 16 18  1  0  0  0  0
  1 24  1  0  0  0  0
  2 25  1  0  0  0  0
  3 26  1  0  0  0  0
  4 27  1  0  0  0  0
  9 28  1  0  0  0  0
  9 29  1  0  0  0  0
 10 30  1  0  0  0  0
 10 31  1  0  0  0  0
 11 32  1  0  0  0  0
 11 33  1  0  0  0  0
 12 34  1  0  0  0  0
 12 35  1  0  0  0  0
 13 36  1  0  0  0  0
 13 37  1  0  0  0  0
 13 38  1  0  0  0  0
 14 39  1  0  0  0  0
 14 40  1  0  0  0  0
 15 41  1  0  0  0  0
 15 42  1  0  0  0  0
 16 43  1  0  0  0  0
 18 44  1  0  0  0  0
 19 45  1  0  0  0  0
M  END
> <creator>
Tamas Szommer, University of Oxford, TDI

> <fragments>
x1392

> <real_space>
FALSE

> <SCR>
FALSE

> <BB>
FALSE

> <link>
https://covid.postera.ai/covid/submissions/d1c3dd9f-771c-474e-9133-8c7e4ace8b98

> <covalent_frag>
TRUE

> <covalent_warhead>
TRUE

> <acrylamide>
FALSE

> <acrylamide_adduct>
FALSE

> <chloroacetamide>
TRUE

> <chloroacetamide_adduct>
FALSE

> <vinylsulfonamide>
FALSE

> <vinylsulfonamide_adduct>
FALSE

> <in_molport_or_mcule>
FALSE

> <in_emolecules>
FALSE

> <Hybrid2>
-4.917112

> <Mpro-x1392_dock>
-4.917112

> <Mpro-x1386_dock>
-3.339695

> <Mpro-x1382_dock>
-3.218307

> <Mpro-x0692_dock>
-3.058434

> <site>
active-covalent

> <covalent_distance_min>
3.2496638

> <covalent_distance_mean>
3.6733017

> <covalent_distance_stderr>
0.048220452

$$$$
TAM-UNI-d1c-6
  -OEChem-04062011563D

 49 51  0     0  0  0  0  0  0999 V2000
   12.7196    0.1121   22.3759 C   0  0  0  0  0  0  0  0  0  0  0  0
   13.1886    2.4875   22.7507 C   0  0  0  0  0  0  0  0  0  0  0  0
   11.8664   -0.9847   22.5000 C   0  0  0  0  0  0  0  0  0  0  0  0
   12.7976    3.7324   23.2443 C   0  0  0  0  0  0  0  0  0  0  0  0
   10.2359    0.4078   23.6093 C   0  0  0  0  0  0  0  0  0  0  0  0
   10.7048    2.7832   23.9840 C   0  0  0  0  0  0  0  0  0  0  0  0
   12.3425    1.3726   22.8670 C   0  0  0  0  0  0  0  0  0  0  0  0
   11.0820    1.5227   23.4929 C   0  0  0  0  0  0  0  0  0  0  0  0
   10.6269   -0.8371   23.1155 C   0  0  0  0  0  0  0  0  0  0  0  0
   11.5581    3.8800   23.8598 C   0  0  0  0  0  0  0  0  0  0  0  0
    5.8174   -2.4982   19.3373 C   0  0  0  0  0  0  0  0  0  0  0  0
    6.2993   -2.8474   21.7388 C   0  0  0  0  0  0  0  0  0  0  0  0
    7.1619   -0.8007   20.6711 C   0  0  0  0  0  0  0  0  0  0  0  0
    7.6649   -3.1299   22.3478 C   0  0  0  0  0  0  0  0  0  0  0  0
    8.5409   -1.0515   21.2660 C   0  0  0  0  0  0  0  0  0  0  0  0
    9.1412    7.0431   23.3413 C   0  0  0  0  0  0  0  0  0  0  0  0
    9.7114   -2.0183   23.2486 C   0  0  0  0  0  0  0  0  0  0  0  0
    5.9964   -1.6280   18.1189 C   0  0  0  0  0  0  0  0  0  0  0  0
    6.4233   -2.0581   20.5133 N   0  0  0  0  0  0  0  0  0  0  0  0
   10.2788    6.1360   23.1320 N   0  0  0  0  0  0  0  0  0  0  0  0
    8.3905   -1.8200   22.5598 N   0  3  0  0  0  0  0  0  0  0  0  0
    5.1608   -3.5385   19.2441 O   0  0  0  0  0  0  0  0  0  0  0  0
   10.0934    5.2378   25.5394 O   0  0  0  0  0  0  0  0  0  0  0  0
   12.2780    6.2049   24.7542 O   0  0  0  0  0  0  0  0  0  0  0  0
   11.0703    5.4388   24.4769 S   0  0  0  0  0  0  0  0  0  0  0  0
    7.4750   -2.1649   17.3293 Cl  0  0  0  0  0  0  0  0  0  0  0  0
   13.6837   -0.0259   21.8906 H   0  0  0  0  0  0  0  0  0  0  0  0
   14.1616    2.3953   22.2728 H   0  0  0  0  0  0  0  0  0  0  0  0
   12.1795   -1.9509   22.1133 H   0  0  0  0  0  0  0  0  0  0  0  0
   13.4694    4.5807   23.1432 H   0  0  0  0  0  0  0  0  0  0  0  0
    9.2631    0.5098   24.0873 H   0  0  0  0  0  0  0  0  0  0  0  0
    9.7377    2.9102   24.4676 H   0  0  0  0  0  0  0  0  0  0  0  0
    5.7846   -3.7930   21.5412 H   0  0  0  0  0  0  0  0  0  0  0  0
    5.6738   -2.2769   22.4360 H   0  0  0  0  0  0  0  0  0  0  0  0
    6.5688   -0.1559   21.3309 H   0  0  0  0  0  0  0  0  0  0  0  0
    7.2726   -0.2716   19.7230 H   0  0  0  0  0  0  0  0  0  0  0  0
    7.5601   -3.6072   23.3275 H   0  0  0  0  0  0  0  0  0  0  0  0
    8.2842   -3.7563   21.6959 H   0  0  0  0  0  0  0  0  0  0  0  0
    9.1759   -1.6417   20.5957 H   0  0  0  0  0  0  0  0  0  0  0  0
    9.0361   -0.1048   21.5048 H   0  0  0  0  0  0  0  0  0  0  0  0
    9.2266    7.5170   24.3303 H   0  0  0  0  0  0  0  0  0  0  0  0
    9.1430    7.8191   22.5617 H   0  0  0  0  0  0  0  0  0  0  0  0
    8.2025    6.4721   23.2882 H   0  0  0  0  0  0  0  0  0  0  0  0
   10.1604   -2.9181   22.8147 H   0  0  0  0  0  0  0  0  0  0  0  0
    9.4893   -2.2300   24.3001 H   0  0  0  0  0  0  0  0  0  0  0  0
    6.0972   -0.5962   18.4357 H   0  0  0  0  0  0  0  0  0  0  0  0
    5.1488   -1.7698   17.4583 H   0  0  0  0  0  0  0  0  0  0  0  0
   10.2985    5.6377   22.2339 H   0  0  0  0  0  0  0  0  0  0  0  0
    7.8139   -1.2473   23.1917 H   0  0  0  0  0  0  0  0  0  0  0  0
  1  3  2  0  0  0  0
  1  7  1  0  0  0  0
  2  4  2  0  0  0  0
  2  7  1  0  0  0  0
  3  9  1  0  0  0  0
  4 10  1  0  0  0  0
  5  8  1  0  0  0  0
  5  9  2  0  0  0  0
  6  8  1  0  0  0  0
  6 10  2  0  0  0  0
  7  8  2  0  0  0  0
  9 17  1  0  0  0  0
 10 25  1  0  0  0  0
 11 18  1  0  0  0  0
 11 19  1  0  0  0  0
 11 22  2  0  0  0  0
 12 14  1  0  0  0  0
 12 19  1  0  0  0  0
 13 15  1  0  0  0  0
 13 19  1  0  0  0  0
 14 21  1  0  0  0  0
 15 21  1  0  0  0  0
 16 20  1  0  0  0  0
 17 21  1  0  0  0  0
 18 26  1  0  0  0  0
 20 25  1  0  0  0  0
 23 25  2  0  0  0  0
 24 25  2  0  0  0  0
  1 27  1  0  0  0  0
  2 28  1  0  0  0  0
  3 29  1  0  0  0  0
  4 30  1  0  0  0  0
  5 31  1  0  0  0  0
  6 32  1  0  0  0  0
 12 33  1  0  0  0  0
 12 34  1  0  0  0  0
 13 35  1  0  0  0  0
 13 36  1  0  0  0  0
 14 37  1  0  0  0  0
 14 38  1  0  0  0  0
 15 39  1  0  0  0  0
 15 40  1  0  0  0  0
 16 41  1  0  0  0  0
 16 42  1  0  0  0  0
 16 43  1  0  0  0  0
 17 44  1  0  0  0  0
 17 45  1  0  0  0  0
 18 46  1  0  0  0  0
 18 47  1  0  0  0  0
 20 48  1  0  0  0  0
 21 49  1  0  0  0  0
M  CHG  1  21   1
M  END
> <creator>
Tamas Szommer, University of Oxford, TDI

> <fragments>
x0692

> <real_space>
FALSE

> <SCR>
FALSE

> <BB>
FALSE

> <link>
https://covid.postera.ai/covid/submissions/d1c3dd9f-771c-474e-9133-8c7e4ace8b98

> <covalent_frag>
TRUE

> <covalent_warhead>
TRUE

> <acrylamide>
FALSE

> <acrylamide_adduct>
FALSE

> <chloroacetamide>
TRUE

> <chloroacetamide_adduct>
FALSE

> <vinylsulfonamide>
FALSE

> <vinylsulfonamide_adduct>
FALSE

> <in_molport_or_mcule>
FALSE

> <in_emolecules>
FALSE

> <Hybrid2>
-4.904441

> <Mpro-x0692_dock>
-4.904441

> <Mpro-x1392_dock>
-3.579096

> <Mpro-x1386_dock>
-2.571075

> <Mpro-x1382_dock>
1.919476

> <site>
active-covalent

> <covalent_distance_min>
3.0709176

> <covalent_distance_mean>
3.7263336

> <covalent_distance_stderr>
0.037502967

$$$$
DAN-LON-a5f-3
  -OEChem-04062011563D

 47 48  0     1  0  0  0  0  0999 V2000
   11.6749    0.2776   24.6849 C   0  0  0  0  0  0  0  0  0  0  0  0
   10.6817   -0.6833   24.8745 C   0  0  0  0  0  0  0  0  0  0  0  0
   12.6117    0.1203   23.6635 C   0  0  0  0  0  0  0  0  0  0  0  0
   11.5622   -1.9589   23.0212 C   0  0  0  0  0  0  0  0  0  0  0  0
   10.6254   -1.8016   24.0427 C   0  0  0  0  0  0  0  0  0  0  0  0
   12.5554   -0.9980   22.8316 C   0  0  0  0  0  0  0  0  0  0  0  0
    5.9724   -2.8698   20.5900 C   0  0  0  0  0  0  0  0  0  0  0  0
    7.0960   -3.9028   22.5335 C   0  0  0  0  0  0  0  0  0  0  0  0
    8.0083   -1.7855   21.6565 C   0  0  0  0  0  0  0  0  0  0  0  0
    7.1156   -3.3611   23.9539 C   0  0  0  0  0  0  0  0  0  0  0  0
    8.0676   -1.1776   23.0603 C   0  0  1  0  0  0  0  0  0  0  0  0
    5.7961    2.0170   23.1470 C   0  0  0  0  0  0  0  0  0  0  0  0
    8.2742    1.7858   23.4096 C   0  0  0  0  0  0  0  0  0  0  0  0
    9.5576   -2.8353   24.2479 C   0  0  0  0  0  0  0  0  0  0  0  0
    5.9154   -1.7192   19.6169 C   0  0  0  0  0  0  0  0  0  0  0  0
    6.8640   -0.2869   23.3666 C   0  0  0  0  0  0  0  0  0  0  0  0
    7.0115    1.1449   22.8288 C   0  0  0  0  0  0  0  0  0  0  0  0
    6.9801   -2.8252   21.5535 N   0  0  0  0  0  0  0  0  0  0  0  0
    8.1620   -2.2795   24.1079 N   0  3  2  0  0  0  0  0  0  0  0  0
    5.1430   -3.7784   20.4969 O   0  0  0  0  0  0  0  0  0  0  0  0
   13.7121   -1.1921   21.5723 Cl  0  0  0  0  0  0  0  0  0  0  0  0
    6.9583   -2.1499   18.2661 Cl  0  0  0  0  0  0  0  0  0  0  0  0
   11.7185    1.1482   25.3330 H   0  0  0  0  0  0  0  0  0  0  0  0
    9.9560   -0.5526   25.6730 H   0  0  0  0  0  0  0  0  0  0  0  0
   13.3804    0.8771   23.5276 H   0  0  0  0  0  0  0  0  0  0  0  0
   11.5137   -2.8323   22.3750 H   0  0  0  0  0  0  0  0  0  0  0  0
    7.9915   -4.5096   22.3710 H   0  0  0  0  0  0  0  0  0  0  0  0
    6.2344   -4.5694   22.3885 H   0  0  0  0  0  0  0  0  0  0  0  0
    7.7668   -1.0217   20.9063 H   0  0  0  0  0  0  0  0  0  0  0  0
    8.9879   -2.1958   21.3888 H   0  0  0  0  0  0  0  0  0  0  0  0
    6.1421   -2.9136   24.2013 H   0  0  0  0  0  0  0  0  0  0  0  0
    7.3412   -4.1509   24.6867 H   0  0  0  0  0  0  0  0  0  0  0  0
    9.0024   -0.5740   23.1760 H   0  0  0  0  0  0  0  0  0  0  0  0
    5.6340    2.0932   24.2274 H   0  0  0  0  0  0  0  0  0  0  0  0
    4.8862    1.6132   22.6929 H   0  0  0  0  0  0  0  0  0  0  0  0
    5.9320    3.0304   22.7538 H   0  0  0  0  0  0  0  0  0  0  0  0
    8.2184    1.8560   24.5013 H   0  0  0  0  0  0  0  0  0  0  0  0
    8.4165    2.7962   23.0117 H   0  0  0  0  0  0  0  0  0  0  0  0
    9.1624    1.1991   23.1523 H   0  0  0  0  0  0  0  0  0  0  0  0
    9.6473   -3.6475   23.5185 H   0  0  0  0  0  0  0  0  0  0  0  0
    9.6215   -3.2767   25.2483 H   0  0  0  0  0  0  0  0  0  0  0  0
    6.2890   -0.8267   20.1058 H   0  0  0  0  0  0  0  0  0  0  0  0
    4.8939   -1.5985   19.2750 H   0  0  0  0  0  0  0  0  0  0  0  0
    5.9636   -0.7569   22.9569 H   0  0  0  0  0  0  0  0  0  0  0  0
    6.7391   -0.2539   24.4546 H   0  0  0  0  0  0  0  0  0  0  0  0
    7.1272    1.1029   21.7383 H   0  0  0  0  0  0  0  0  0  0  0  0
    7.9631   -1.8077   25.0338 H   0  0  0  0  0  0  0  0  0  0  0  0
  1  2  2  0  0  0  0
  1  3  1  0  0  0  0
  2  5  1  0  0  0  0
  3  6  2  0  0  0  0
  4  5  2  0  0  0  0
  4  6  1  0  0  0  0
  5 14  1  0  0  0  0
  6 21  1  0  0  0  0
  7 15  1  0  0  0  0
  7 18  1  0  0  0  0
  7 20  2  0  0  0  0
  8 10  1  0  0  0  0
  8 18  1  0  0  0  0
  9 11  1  0  0  0  0
  9 18  1  0  0  0  0
 10 19  1  0  0  0  0
 11 16  1  0  0  0  0
 11 19  1  0  0  0  0
 12 17  1  0  0  0  0
 13 17  1  0  0  0  0
 14 19  1  0  0  0  0
 15 22  1  0  0  0  0
 16 17  1  0  0  0  0
  1 23  1  0  0  0  0
  2 24  1  0  0  0  0
  3 25  1  0  0  0  0
  4 26  1  0  0  0  0
  8 27  1  0  0  0  0
  8 28  1  0  0  0  0
  9 29  1  0  0  0  0
  9 30  1  0  0  0  0
 10 31  1  0  0  0  0
 10 32  1  0  0  0  0
 11 33  1  0  0  0  0
 12 34  1  0  0  0  0
 12 35  1  0  0  0  0
 12 36  1  0  0  0  0
 13 37  1  0  0  0  0
 13 38  1  0  0  0  0
 13 39  1  0  0  0  0
 14 40  1  0  0  0  0
 14 41  1  0  0  0  0
 15 42  1  0  0  0  0
 15 43  1  0  0  0  0
 16 44  1  0  0  0  0
 16 45  1  0  0  0  0
 17 46  1  0  0  0  0
 19 47  1  0  0  0  0
M  CHG  1  19   1
M  END
> <creator>
Daniel Zaidman, London Lab, Weizmann Institute of Science

> <fragments>
x0770

> <real_space>
FALSE

> <SCR>
FALSE

> <BB>
FALSE

> <link>
https://covid.postera.ai/covid/submissions/a5fc619e-a7a0-43cf-a105-697cf3dc31cf

> <covalent_frag>
TRUE

> <covalent_warhead>
TRUE

> <acrylamide>
FALSE

> <acrylamide_adduct>
FALSE

> <chloroacetamide>
TRUE

> <chloroacetamide_adduct>
FALSE

> <vinylsulfonamide>
FALSE

> <vinylsulfonamide_adduct>
FALSE

> <in_molport_or_mcule>
FALSE

> <in_emolecules>
FALSE

> <Hybrid2>
-4.898075

> <Mpro-x0770_dock>
-4.898075

> <site>
active-covalent

> <covalent_distance_min>
3.346179

> <covalent_distance_mean>
3.9820273

> <covalent_distance_stderr>
0.07515706

$$$$
ANT-STE-dbb-3
  -OEChem-04062011563D

 45 47  0     0  0  0  0  0  0999 V2000
   13.9299   -1.2187   21.0355 C   0  0  0  0  0  0  0  0  0  0  0  0
   14.5558   -0.0176   21.3689 C   0  0  0  0  0  0  0  0  0  0  0  0
   12.8124   -1.6454   21.7530 C   0  0  0  0  0  0  0  0  0  0  0  0
   14.0644    0.7567   22.4198 C   0  0  0  0  0  0  0  0  0  0  0  0
   10.5035   -2.4561   23.2915 C   0  0  0  0  0  0  0  0  0  0  0  0
   12.3209   -0.8711   22.8039 C   0  0  0  0  0  0  0  0  0  0  0  0
   12.9468    0.3300   23.1374 C   0  0  0  0  0  0  0  0  0  0  0  0
    9.5187   -2.4149   24.2462 C   0  0  0  0  0  0  0  0  0  0  0  0
    5.8890   -2.3313   19.7072 C   0  0  0  0  0  0  0  0  0  0  0  0
    6.4418   -4.1182   21.3266 C   0  0  0  0  0  0  0  0  0  0  0  0
    5.7484   -1.9263   22.2140 C   0  0  0  0  0  0  0  0  0  0  0  0
    7.6413   -4.1408   22.2627 C   0  0  0  0  0  0  0  0  0  0  0  0
    6.9372   -1.9167   23.1655 C   0  0  0  0  0  0  0  0  0  0  0  0
   11.5098    2.0909   23.8374 C   0  0  0  0  0  0  0  0  0  0  0  0
    8.4216   -3.4020   24.5167 C   0  0  0  0  0  0  0  0  0  0  0  0
    6.1605   -0.8757   19.4223 C   0  0  0  0  0  0  0  0  0  0  0  0
    9.6511   -1.2780   24.9942 N   0  0  0  0  0  0  0  0  0  0  0  0
   10.6972   -0.6034   24.5298 N   0  0  0  0  0  0  0  0  0  0  0  0
   11.2068   -1.3114   23.5088 N   0  0  0  0  0  0  0  0  0  0  0  0
    6.0316   -2.7455   21.0307 N   0  0  0  0  0  0  0  0  0  0  0  0
    7.3127   -3.3420   23.5042 N   0  3  0  0  0  0  0  0  0  0  0  0
    5.5628   -3.0766   18.7798 O   0  0  0  0  0  0  0  0  0  0  0  0
   12.4863    1.1039   24.1612 O   0  0  0  0  0  0  0  0  0  0  0  0
    7.8175   -0.5640   19.9275 Cl  0  0  0  0  0  0  0  0  0  0  0  0
   14.3121   -1.8213   20.2166 H   0  0  0  0  0  0  0  0  0  0  0  0
   15.4265    0.3144   20.8109 H   0  0  0  0  0  0  0  0  0  0  0  0
   12.3337   -2.5830   21.4805 H   0  0  0  0  0  0  0  0  0  0  0  0
   14.5583    1.6903   22.6753 H   0  0  0  0  0  0  0  0  0  0  0  0
   10.7487   -3.1681   22.5149 H   0  0  0  0  0  0  0  0  0  0  0  0
    6.6865   -4.6573   20.4060 H   0  0  0  0  0  0  0  0  0  0  0  0
    5.5839   -4.6272   21.7825 H   0  0  0  0  0  0  0  0  0  0  0  0
    4.8662   -2.3563   22.7036 H   0  0  0  0  0  0  0  0  0  0  0  0
    5.4962   -0.8986   21.9470 H   0  0  0  0  0  0  0  0  0  0  0  0
    7.8631   -5.1642   22.5822 H   0  0  0  0  0  0  0  0  0  0  0  0
    8.5308   -3.6966   21.8019 H   0  0  0  0  0  0  0  0  0  0  0  0
    7.8147   -1.4339   22.7210 H   0  0  0  0  0  0  0  0  0  0  0  0
    6.6765   -1.4165   24.1038 H   0  0  0  0  0  0  0  0  0  0  0  0
   11.2285    2.6366   24.7413 H   0  0  0  0  0  0  0  0  0  0  0  0
   10.6314    1.6069   23.4029 H   0  0  0  0  0  0  0  0  0  0  0  0
   11.9357    2.7877   23.1116 H   0  0  0  0  0  0  0  0  0  0  0  0
    8.8018   -4.4291   24.5063 H   0  0  0  0  0  0  0  0  0  0  0  0
    7.9634   -3.2257   25.4958 H   0  0  0  0  0  0  0  0  0  0  0  0
    5.4742   -0.2699   20.0029 H   0  0  0  0  0  0  0  0  0  0  0  0
    6.0567   -0.7008   18.3576 H   0  0  0  0  0  0  0  0  0  0  0  0
    6.4911   -3.7797   23.9436 H   0  0  0  0  0  0  0  0  0  0  0  0
  1  2  1  0  0  0  0
  1  3  2  0  0  0  0
  2  4  2  0  0  0  0
  3  6  1  0  0  0  0
  4  7  1  0  0  0  0
  5  8  2  0  0  0  0
  5 19  1  0  0  0  0
  6  7  2  0  0  0  0
  6 19  1  0  0  0  0
  7 23  1  0  0  0  0
  8 15  1  0  0  0  0
  8 17  1  0  0  0  0
  9 16  1  0  0  0  0
  9 20  1  0  0  0  0
  9 22  2  0  0  0  0
 10 12  1  0  0  0  0
 10 20  1  0  0  0  0
 11 13  1  0  0  0  0
 11 20  1  0  0  0  0
 12 21  1  0  0  0  0
 13 21  1  0  0  0  0
 14 23  1  0  0  0  0
 15 21  1  0  0  0  0
 16 24  1  0  0  0  0
 17 18  2  0  0  0  0
 18 19  1  0  0  0  0
  1 25  1  0  0  0  0
  2 26  1  0  0  0  0
  3 27  1  0  0  0  0
  4 28  1  0  0  0  0
  5 29  1  0  0  0  0
 10 30  1  0  0  0  0
 10 31  1  0  0  0  0
 11 32  1  0  0  0  0
 11 33  1  0  0  0  0
 12 34  1  0  0  0  0
 12 35  1  0  0  0  0
 13 36  1  0  0  0  0
 13 37  1  0  0  0  0
 14 38  1  0  0  0  0
 14 39  1  0  0  0  0
 14 40  1  0  0  0  0
 15 41  1  0  0  0  0
 15 42  1  0  0  0  0
 16 43  1  0  0  0  0
 16 44  1  0  0  0  0
 21 45  1  0  0  0  0
M  CHG  1  21   1
M  END
> <creator>
Anton Hamann, Stellenbosch University

> <fragments>
x1386

> <real_space>
FALSE

> <SCR>
FALSE

> <BB>
FALSE

> <link>
https://covid.postera.ai/covid/submissions/dbb91f63-dddf-4f6e-a0f1-20477ec380fd

> <covalent_frag>
TRUE

> <covalent_warhead>
TRUE

> <acrylamide>
FALSE

> <acrylamide_adduct>
FALSE

> <chloroacetamide>
TRUE

> <chloroacetamide_adduct>
FALSE

> <vinylsulfonamide>
FALSE

> <vinylsulfonamide_adduct>
FALSE

> <in_molport_or_mcule>
FALSE

> <in_emolecules>
FALSE

> <Hybrid2>
-4.881322

> <Mpro-x1386_dock>
-4.881322

> <site>
active-covalent

> <covalent_distance_min>
3.0169914

> <covalent_distance_mean>
3.4518595

> <covalent_distance_stderr>
0.014996873

$$$$
MAK-UNK-e4a-14
  -OEChem-04062011563D

 50 51  0     1  0  0  0  0  0999 V2000
   11.3960    0.1652   23.1008 C   0  0  0  0  0  0  0  0  0  0  0  0
    6.9296   -4.5235   28.3697 C   0  0  0  0  0  0  0  0  0  0  0  0
    9.3528   -4.3757   27.6725 C   0  0  0  0  0  0  0  0  0  0  0  0
    9.0443   -0.6031   23.1175 C   0  0  0  0  0  0  0  0  0  0  0  0
   10.6449   -1.7438   24.6041 C   0  0  0  0  0  0  0  0  0  0  0  0
    6.8361   -5.9024   27.7254 C   0  0  0  0  0  0  0  0  0  0  0  0
    9.2452   -5.7561   27.0342 C   0  0  0  0  0  0  0  0  0  0  0  0
    8.5344   -1.9421   22.6050 C   0  0  0  0  0  0  0  0  0  0  0  0
   10.1575   -3.1010   24.1150 C   0  0  0  0  0  0  0  0  0  0  0  0
    8.3522   -4.1868   28.8122 C   0  0  0  0  0  0  0  0  0  0  0  0
    8.2711   -6.7109   23.5648 C   0  0  0  0  0  0  0  0  0  0  0  0
   12.7956   -0.0159   23.6320 C   0  0  0  0  0  0  0  0  0  0  0  0
    7.4247   -5.3089   25.3439 C   0  0  0  0  0  0  0  0  0  0  0  0
    8.1396   -4.3131   23.2817 C   0  0  0  0  0  0  0  0  0  0  0  0
   10.4261   -0.7110   23.5857 N   0  0  0  0  0  0  0  0  0  0  0  0
    8.3765   -5.4090   24.2301 N   0  0  2  0  0  0  0  0  0  0  0  0
    7.8286   -6.0386   26.5966 N   0  3  0  0  0  0  0  0  0  0  0  0
    8.7117   -2.9838   23.6870 N   0  3  0  0  0  0  0  0  0  0  0  0
   11.1741    1.0572   22.2780 O   0  0  0  0  0  0  0  0  0  0  0  0
    8.7020   -5.0341   29.9052 O   0  0  0  0  0  0  0  0  0  0  0  0
   13.5904   -1.1751   22.5725 Cl  0  0  0  0  0  0  0  0  0  0  0  0
    6.5745   -3.7602   27.6641 H   0  0  0  0  0  0  0  0  0  0  0  0
    6.2463   -4.4631   29.2293 H   0  0  0  0  0  0  0  0  0  0  0  0
   10.3747   -4.2115   28.0433 H   0  0  0  0  0  0  0  0  0  0  0  0
    9.1932   -3.6019   26.9101 H   0  0  0  0  0  0  0  0  0  0  0  0
    8.9603    0.1474   22.3252 H   0  0  0  0  0  0  0  0  0  0  0  0
    8.4370   -0.2536   23.9613 H   0  0  0  0  0  0  0  0  0  0  0  0
   10.0945   -1.4370   25.5018 H   0  0  0  0  0  0  0  0  0  0  0  0
   11.6964   -1.8220   24.8854 H   0  0  0  0  0  0  0  0  0  0  0  0
    7.0678   -6.6852   28.4616 H   0  0  0  0  0  0  0  0  0  0  0  0
    5.8338   -6.0880   27.3107 H   0  0  0  0  0  0  0  0  0  0  0  0
    9.8904   -5.8434   26.1474 H   0  0  0  0  0  0  0  0  0  0  0  0
    9.5264   -6.5345   27.7578 H   0  0  0  0  0  0  0  0  0  0  0  0
    7.4650   -1.8870   22.3771 H   0  0  0  0  0  0  0  0  0  0  0  0
    9.0842   -2.2796   21.7192 H   0  0  0  0  0  0  0  0  0  0  0  0
   10.7351   -3.4591   23.2555 H   0  0  0  0  0  0  0  0  0  0  0  0
   10.1998   -3.8398   24.9218 H   0  0  0  0  0  0  0  0  0  0  0  0
    8.3870   -3.1501   29.1728 H   0  0  0  0  0  0  0  0  0  0  0  0
    8.9931   -6.7594   22.7363 H   0  0  0  0  0  0  0  0  0  0  0  0
    8.4888   -7.5107   24.2879 H   0  0  0  0  0  0  0  0  0  0  0  0
    7.2522   -6.8399   23.1710 H   0  0  0  0  0  0  0  0  0  0  0  0
   12.7406   -0.4101   24.6403 H   0  0  0  0  0  0  0  0  0  0  0  0
   13.3113    0.9368   23.5952 H   0  0  0  0  0  0  0  0  0  0  0  0
    6.4687   -5.7654   25.0646 H   0  0  0  0  0  0  0  0  0  0  0  0
    7.2346   -4.2695   25.6364 H   0  0  0  0  0  0  0  0  0  0  0  0
    7.0719   -4.1487   23.0947 H   0  0  0  0  0  0  0  0  0  0  0  0
    8.6244   -4.5324   22.3240 H   0  0  0  0  0  0  0  0  0  0  0  0
    7.8163   -7.0691   26.3368 H   0  0  0  0  0  0  0  0  0  0  0  0
    8.1733   -2.6711   24.5068 H   0  0  0  0  0  0  0  0  0  0  0  0
    9.6071   -4.7971   30.1627 H   0  0  0  0  0  0  0  0  0  0  0  0
  1 12  1  0  0  0  0
  1 15  1  0  0  0  0
  1 19  2  0  0  0  0
  2  6  1  0  0  0  0
  2 10  1  0  0  0  0
  3  7  1  0  0  0  0
  3 10  1  0  0  0  0
  4  8  1  0  0  0  0
  4 15  1  0  0  0  0
  5  9  1  0  0  0  0
  5 15  1  0  0  0  0
  6 17  1  0  0  0  0
  7 17  1  0  0  0  0
  8 18  1  0  0  0  0
  9 18  1  0  0  0  0
 10 20  1  0  0  0  0
 11 16  1  0  0  0  0
 12 21  1  0  0  0  0
 13 16  1  0  0  0  0
 13 17  1  0  0  0  0
 14 16  1  0  0  0  0
 14 18  1  0  0  0  0
  2 22  1  0  0  0  0
  2 23  1  0  0  0  0
  3 24  1  0  0  0  0
  3 25  1  0  0  0  0
  4 26  1  0  0  0  0
  4 27  1  0  0  0  0
  5 28  1  0  0  0  0
  5 29  1  0  0  0  0
  6 30  1  0  0  0  0
  6 31  1  0  0  0  0
  7 32  1  0  0  0  0
  7 33  1  0  0  0  0
  8 34  1  0  0  0  0
  8 35  1  0  0  0  0
  9 36  1  0  0  0  0
  9 37  1  0  0  0  0
 10 38  1  0  0  0  0
 11 39  1  0  0  0  0
 11 40  1  0  0  0  0
 11 41  1  0  0  0  0
 12 42  1  0  0  0  0
 12 43  1  0  0  0  0
 13 44  1  0  0  0  0
 13 45  1  0  0  0  0
 14 46  1  0  0  0  0
 14 47  1  0  0  0  0
 17 48  1  0  0  0  0
 18 49  1  0  0  0  0
 20 50  1  0  0  0  0
M  CHG  2  17   1  18   1
M  END
> <creator>
Maksym Voznyy

> <fragments>
x0387

> <real_space>
FALSE

> <SCR>
FALSE

> <BB>
FALSE

> <link>
https://covid.postera.ai/covid/submissions/e4a48a85-91ce-4c28-86d4-edf9997dafca

> <covalent_frag>
TRUE

> <covalent_warhead>
TRUE

> <acrylamide>
FALSE

> <acrylamide_adduct>
FALSE

> <chloroacetamide>
TRUE

> <chloroacetamide_adduct>
FALSE

> <vinylsulfonamide>
FALSE

> <vinylsulfonamide_adduct>
FALSE

> <in_molport_or_mcule>
FALSE

> <in_emolecules>
FALSE

> <Hybrid2>
-4.880488

> <Mpro-x0387_dock>
-4.880488

> <Mpro-x0692_dock>
-4.8469

> <site>
active-noncovalent

> <covalent_distance_min>
5.005653

> <covalent_distance_mean>
6.1584854

> <covalent_distance_stderr>
0.071009874

$$$$
DAV-CRI-f47-7
  -OEChem-04062011563D

 63 67  0     1  0  0  0  0  0999 V2000
   12.3678    1.0420   23.8357 C   0  0  0  0  0  0  0  0  0  0  0  0
   11.2453    0.3202   24.2413 C   0  0  0  0  0  0  0  0  0  0  0  0
    9.3036   -5.3214   25.0844 C   0  0  0  0  0  0  0  0  0  0  0  0
   10.5142   -5.5897   25.7173 C   0  0  0  0  0  0  0  0  0  0  0  0
   13.1682    0.5625   22.7988 C   0  0  0  0  0  0  0  0  0  0  0  0
   11.2237   -3.3227   25.2896 C   0  0  0  0  0  0  0  0  0  0  0  0
   11.7235   -1.3607   22.5731 C   0  0  0  0  0  0  0  0  0  0  0  0
   10.9231   -0.8812   23.6100 C   0  0  0  0  0  0  0  0  0  0  0  0
    9.0517   -4.0529   24.5384 C   0  0  0  0  0  0  0  0  0  0  0  0
   10.0225   -3.0462   24.6141 C   0  0  0  0  0  0  0  0  0  0  0  0
   11.4720   -4.5879   25.8254 C   0  0  0  0  0  0  0  0  0  0  0  0
   12.8460   -0.6389   22.1675 C   0  0  0  0  0  0  0  0  0  0  0  0
    4.2812   -5.1849   23.2221 C   0  0  0  0  0  0  0  0  0  0  0  0
    8.6563   -1.6711   22.9147 C   0  0  0  0  0  0  0  0  0  0  0  0
    7.1064   -2.9706   21.5932 C   0  0  0  0  0  0  0  0  0  0  0  0
    3.7932   -6.5705   23.5748 C   0  0  0  0  0  0  0  0  0  0  0  0
    4.5076   -6.8721   24.8868 C   0  0  0  0  0  0  0  0  0  0  0  0
    4.6863   -5.5094   25.5256 C   0  0  0  0  0  0  0  0  0  0  0  0
    7.0051   -1.7124   25.2466 C   0  0  0  0  0  0  0  0  0  0  0  0
    4.4806   -2.5117   25.5858 C   0  0  0  0  0  0  0  0  0  0  0  0
    9.6942   -1.6718   24.0545 C   0  0  2  0  0  0  0  0  0  0  0  0
    7.7145   -3.7416   23.9177 C   0  0  1  0  0  0  0  0  0  0  0  0
    6.7487   -3.1972   24.9619 C   0  0  2  0  0  0  0  0  0  0  0  0
    5.2731   -3.2770   24.5271 C   0  0  1  0  0  0  0  0  0  0  0  0
   12.7625   -4.8620   26.5215 C   0  0  0  0  0  0  0  0  0  0  0  0
    7.2053   -1.8801   20.5526 C   0  0  0  0  0  0  0  0  0  0  0  0
    7.8426   -2.8067   22.7790 N   0  0  0  0  0  0  0  0  0  0  0  0
    4.7985   -4.6267   24.3886 N   0  0  0  0  0  0  0  0  0  0  0  0
    4.1783   -4.6713   22.1182 O   0  0  0  0  0  0  0  0  0  0  0  0
    8.5443   -0.6707   22.1965 O   0  0  0  0  0  0  0  0  0  0  0  0
    6.3606   -3.9293   21.3677 O   0  0  0  0  0  0  0  0  0  0  0  0
    5.0421    0.0456   25.2618 O   0  0  0  0  0  0  0  0  0  0  0  0
    5.6852   -1.0805   27.4421 O   0  0  0  0  0  0  0  0  0  0  0  0
   13.6268   -1.1064   21.1552 O   0  0  0  0  0  0  0  0  0  0  0  0
    5.5041   -1.1078   26.0056 S   0  0  0  0  0  0  0  0  0  0  0  0
    6.2126   -2.3920   19.1930 Cl  0  0  0  0  0  0  0  0  0  0  0  0
   12.6183    1.9775   24.3270 H   0  0  0  0  0  0  0  0  0  0  0  0
   10.6280    0.7015   25.0504 H   0  0  0  0  0  0  0  0  0  0  0  0
    8.5503   -6.1027   25.0276 H   0  0  0  0  0  0  0  0  0  0  0  0
   10.6950   -6.5769   26.1338 H   0  0  0  0  0  0  0  0  0  0  0  0
   14.0411    1.1294   22.4876 H   0  0  0  0  0  0  0  0  0  0  0  0
   11.9777   -2.5473   25.4058 H   0  0  0  0  0  0  0  0  0  0  0  0
   11.4749   -2.2972   22.0792 H   0  0  0  0  0  0  0  0  0  0  0  0
    2.7068   -6.5868   23.6902 H   0  0  0  0  0  0  0  0  0  0  0  0
    4.0985   -7.2628   22.7840 H   0  0  0  0  0  0  0  0  0  0  0  0
    3.8714   -7.5029   25.5197 H   0  0  0  0  0  0  0  0  0  0  0  0
    5.4566   -7.3931   24.7320 H   0  0  0  0  0  0  0  0  0  0  0  0
    3.8324   -5.2305   26.1483 H   0  0  0  0  0  0  0  0  0  0  0  0
    5.6120   -5.4477   26.1055 H   0  0  0  0  0  0  0  0  0  0  0  0
    7.8469   -1.5591   25.9275 H   0  0  0  0  0  0  0  0  0  0  0  0
    7.1652   -1.1410   24.3258 H   0  0  0  0  0  0  0  0  0  0  0  0
    3.5134   -2.1620   25.2176 H   0  0  0  0  0  0  0  0  0  0  0  0
    4.3450   -3.1013   26.4983 H   0  0  0  0  0  0  0  0  0  0  0  0
    9.2257   -1.1008   24.8803 H   0  0  0  0  0  0  0  0  0  0  0  0
    7.3014   -4.6792   23.5326 H   0  0  0  0  0  0  0  0  0  0  0  0
    6.8839   -3.7615   25.8940 H   0  0  0  0  0  0  0  0  0  0  0  0
    5.1470   -2.7902   23.5499 H   0  0  0  0  0  0  0  0  0  0  0  0
   13.5092   -5.2340   25.8093 H   0  0  0  0  0  0  0  0  0  0  0  0
   13.1579   -3.9560   26.9987 H   0  0  0  0  0  0  0  0  0  0  0  0
   12.6360   -5.6096   27.3154 H   0  0  0  0  0  0  0  0  0  0  0  0
    8.2395   -1.7838   20.2440 H   0  0  0  0  0  0  0  0  0  0  0  0
    6.8174   -0.9598   20.9725 H   0  0  0  0  0  0  0  0  0  0  0  0
   14.3638   -0.4970   20.9901 H   0  0  0  0  0  0  0  0  0  0  0  0
  1  2  2  0  0  0  0
  1  5  1  0  0  0  0
  2  8  1  0  0  0  0
  3  4  2  0  0  0  0
  3  9  1  0  0  0  0
  4 11  1  0  0  0  0
  5 12  2  0  0  0  0
  6 10  1  0  0  0  0
  6 11  2  0  0  0  0
  7  8  2  0  0  0  0
  7 12  1  0  0  0  0
  8 21  1  0  0  0  0
  9 10  2  0  0  0  0
  9 22  1  0  0  0  0
 10 21  1  0  0  0  0
 11 25  1  0  0  0  0
 12 34  1  0  0  0  0
 13 16  1  0  0  0  0
 13 28  1  0  0  0  0
 13 29  2  0  0  0  0
 14 21  1  0  0  0  0
 14 27  1  0  0  0  0
 14 30  2  0  0  0  0
 15 26  1  0  0  0  0
 15 27  1  0  0  0  0
 15 31  2  0  0  0  0
 16 17  1  0  0  0  0
 17 18  1  0  0  0  0
 18 28  1  0  0  0  0
 19 23  1  0  0  0  0
 19 35  1  0  0  0  0
 20 24  1  0  0  0  0
 20 35  1  0  0  0  0
 22 23  1  0  0  0  0
 22 27  1  0  0  0  0
 23 24  1  0  0  0  0
 24 28  1  0  0  0  0
 26 36  1  0  0  0  0
 32 35  2  0  0  0  0
 33 35  2  0  0  0  0
  1 37  1  0  0  0  0
  2 38  1  0  0  0  0
  3 39  1  0  0  0  0
  4 40  1  0  0  0  0
  5 41  1  0  0  0  0
  6 42  1  0  0  0  0
  7 43  1  0  0  0  0
 16 44  1  0  0  0  0
 16 45  1  0  0  0  0
 17 46  1  0  0  0  0
 17 47  1  0  0  0  0
 18 48  1  0  0  0  0
 18 49  1  0  0  0  0
 19 50  1  0  0  0  0
 19 51  1  0  0  0  0
 20 52  1  0  0  0  0
 20 53  1  0  0  0  0
 21 54  1  0  0  0  0
 22 55  1  0  0  0  0
 23 56  1  0  0  0  0
 24 57  1  0  0  0  0
 25 58  1  0  0  0  0
 25 59  1  0  0  0  0
 25 60  1  0  0  0  0
 26 61  1  0  0  0  0
 26 62  1  0  0  0  0
 34 63  1  0  0  0  0
M  END
> <creator>
David Briggs, Crick Institute

> <fragments>
x1392

> <real_space>
FALSE

> <SCR>
FALSE

> <BB>
FALSE

> <link>
https://covid.postera.ai/covid/submissions/f4772df7-f5a5-4208-a16e-3d41483cc4c7

> <covalent_frag>
TRUE

> <covalent_warhead>
TRUE

> <acrylamide>
FALSE

> <acrylamide_adduct>
FALSE

> <chloroacetamide>
TRUE

> <chloroacetamide_adduct>
FALSE

> <vinylsulfonamide>
FALSE

> <vinylsulfonamide_adduct>
FALSE

> <in_molport_or_mcule>
FALSE

> <in_emolecules>
FALSE

> <Hybrid2>
-4.810890

> <Mpro-x1392_dock>
-4.81089

> <Mpro-x1384_dock>
2.391544

> <Mpro-x1375_dock>
2.597486

> <site>
active-covalent

$$$$
DAV-CRI-f47-2
  -OEChem-04062011563D

 60 64  0     1  0  0  0  0  0999 V2000
   13.0168    0.3916   22.9020 C   0  0  0  0  0  0  0  0  0  0  0  0
   12.3505    0.5543   24.1165 C   0  0  0  0  0  0  0  0  0  0  0  0
   12.5619   -0.5484   21.9773 C   0  0  0  0  0  0  0  0  0  0  0  0
   11.2292   -0.2232   24.4064 C   0  0  0  0  0  0  0  0  0  0  0  0
   11.4407   -1.3259   22.2672 C   0  0  0  0  0  0  0  0  0  0  0  0
    8.9705   -5.4207   25.3834 C   0  0  0  0  0  0  0  0  0  0  0  0
   10.1370   -5.6207   26.1173 C   0  0  0  0  0  0  0  0  0  0  0  0
   10.9578   -3.4697   25.3868 C   0  0  0  0  0  0  0  0  0  0  0  0
   10.7743   -1.1632   23.4817 C   0  0  0  0  0  0  0  0  0  0  0  0
    8.7920   -4.2465   24.6350 C   0  0  0  0  0  0  0  0  0  0  0  0
    9.8042   -3.2680   24.6137 C   0  0  0  0  0  0  0  0  0  0  0  0
   11.1261   -4.6428   26.1245 C   0  0  0  0  0  0  0  0  0  0  0  0
    4.0704   -5.5124   23.2386 C   0  0  0  0  0  0  0  0  0  0  0  0
    6.6408   -3.3634   21.6786 C   0  0  0  0  0  0  0  0  0  0  0  0
    3.8075   -6.9384   23.6627 C   0  0  0  0  0  0  0  0  0  0  0  0
    3.7334   -6.8457   25.1821 C   0  0  0  0  0  0  0  0  0  0  0  0
    4.6493   -5.6868   25.5211 C   0  0  0  0  0  0  0  0  0  0  0  0
    8.8110   -2.3763   22.4940 C   0  0  0  0  0  0  0  0  0  0  0  0
    6.7289   -1.8486   24.9954 C   0  0  0  0  0  0  0  0  0  0  0  0
    4.1893   -2.6065   25.3159 C   0  0  0  0  0  0  0  0  0  0  0  0
    9.5496   -2.0130   23.7978 C   0  0  2  0  0  0  0  0  0  0  0  0
    7.4805   -4.0061   23.9152 C   0  0  1  0  0  0  0  0  0  0  0  0
    6.4769   -3.3549   24.8576 C   0  0  2  0  0  0  0  0  0  0  0  0
    5.0192   -3.4789   24.3753 C   0  0  1  0  0  0  0  0  0  0  0  0
    6.4425   -2.1900   20.7496 C   0  0  0  0  0  0  0  0  0  0  0  0
    4.5441   -4.8354   24.3600 N   0  0  0  0  0  0  0  0  0  0  0  0
    7.6162   -3.2139   22.6761 N   0  0  0  0  0  0  0  0  0  0  0  0
    3.9260   -5.0868   22.1024 O   0  0  0  0  0  0  0  0  0  0  0  0
    5.9525   -4.3764   21.5298 O   0  0  0  0  0  0  0  0  0  0  0  0
    4.7751   -0.0974   24.7488 O   0  0  0  0  0  0  0  0  0  0  0  0
    5.3265   -0.9896   27.0588 O   0  0  0  0  0  0  0  0  0  0  0  0
   12.2468   -4.8284   26.8370 F   0  0  0  0  0  0  0  0  0  0  0  0
    5.2020   -1.1669   25.6270 S   0  0  0  0  0  0  0  0  0  0  0  0
    5.9324   -0.8353   21.7509 Cl  0  0  0  0  0  0  0  0  0  0  0  0
   13.8891    0.9980   22.6759 H   0  0  0  0  0  0  0  0  0  0  0  0
   12.7039    1.2869   24.8362 H   0  0  0  0  0  0  0  0  0  0  0  0
   13.0798   -0.6746   21.0312 H   0  0  0  0  0  0  0  0  0  0  0  0
   10.7164   -0.0897   25.3553 H   0  0  0  0  0  0  0  0  0  0  0  0
   11.0935   -2.0559   21.5407 H   0  0  0  0  0  0  0  0  0  0  0  0
    8.2025   -6.1871   25.3966 H   0  0  0  0  0  0  0  0  0  0  0  0
   10.2749   -6.5374   26.6817 H   0  0  0  0  0  0  0  0  0  0  0  0
   11.7389   -2.7138   25.4175 H   0  0  0  0  0  0  0  0  0  0  0  0
    2.8750   -7.3107   23.2320 H   0  0  0  0  0  0  0  0  0  0  0  0
    4.6471   -7.5618   23.3397 H   0  0  0  0  0  0  0  0  0  0  0  0
    2.7063   -6.6151   25.4904 H   0  0  0  0  0  0  0  0  0  0  0  0
    4.0339   -7.7775   25.6695 H   0  0  0  0  0  0  0  0  0  0  0  0
    4.3269   -5.1555   26.4202 H   0  0  0  0  0  0  0  0  0  0  0  0
    5.6909   -6.0054   25.6246 H   0  0  0  0  0  0  0  0  0  0  0  0
    8.4635   -1.4473   21.9957 H   0  0  0  0  0  0  0  0  0  0  0  0
    9.5200   -2.8276   21.7731 H   0  0  0  0  0  0  0  0  0  0  0  0
    7.5441   -1.6255   25.6896 H   0  0  0  0  0  0  0  0  0  0  0  0
    6.9283   -1.3763   24.0272 H   0  0  0  0  0  0  0  0  0  0  0  0
    3.2389   -2.2967   24.8751 H   0  0  0  0  0  0  0  0  0  0  0  0
    4.0150   -3.0973   26.2789 H   0  0  0  0  0  0  0  0  0  0  0  0
    8.8467   -1.3613   24.3730 H   0  0  0  0  0  0  0  0  0  0  0  0
    7.0830   -4.9901   23.6354 H   0  0  0  0  0  0  0  0  0  0  0  0
    6.5733   -3.8191   25.8476 H   0  0  0  0  0  0  0  0  0  0  0  0
    4.9338   -3.0971   23.3481 H   0  0  0  0  0  0  0  0  0  0  0  0
    5.6670   -2.4359   20.0332 H   0  0  0  0  0  0  0  0  0  0  0  0
    7.3853   -1.9613   20.2660 H   0  0  0  0  0  0  0  0  0  0  0  0
  1  2  1  0  0  0  0
  1  3  2  0  0  0  0
  2  4  2  0  0  0  0
  3  5  1  0  0  0  0
  4  9  1  0  0  0  0
  5  9  2  0  0  0  0
  6  7  2  0  0  0  0
  6 10  1  0  0  0  0
  7 12  1  0  0  0  0
  8 11  1  0  0  0  0
  8 12  2  0  0  0  0
  9 21  1  0  0  0  0
 10 11  2  0  0  0  0
 10 22  1  0  0  0  0
 11 21  1  0  0  0  0
 12 32  1  0  0  0  0
 13 15  1  0  0  0  0
 13 26  1  0  0  0  0
 13 28  2  0  0  0  0
 14 25  1  0  0  0  0
 14 27  1  0  0  0  0
 14 29  2  0  0  0  0
 15 16  1  0  0  0  0
 16 17  1  0  0  0  0
 17 26  1  0  0  0  0
 18 21  1  0  0  0  0
 18 27  1  0  0  0  0
 19 23  1  0  0  0  0
 19 33  1  0  0  0  0
 20 24  1  0  0  0  0
 20 33  1  0  0  0  0
 22 23  1  0  0  0  0
 22 27  1  0  0  0  0
 23 24  1  0  0  0  0
 24 26  1  0  0  0  0
 25 34  1  0  0  0  0
 30 33  2  0  0  0  0
 31 33  2  0  0  0  0
  1 35  1  0  0  0  0
  2 36  1  0  0  0  0
  3 37  1  0  0  0  0
  4 38  1  0  0  0  0
  5 39  1  0  0  0  0
  6 40  1  0  0  0  0
  7 41  1  0  0  0  0
  8 42  1  0  0  0  0
 15 43  1  0  0  0  0
 15 44  1  0  0  0  0
 16 45  1  0  0  0  0
 16 46  1  0  0  0  0
 17 47  1  0  0  0  0
 17 48  1  0  0  0  0
 18 49  1  0  0  0  0
 18 50  1  0  0  0  0
 19 51  1  0  0  0  0
 19 52  1  0  0  0  0
 20 53  1  0  0  0  0
 20 54  1  0  0  0  0
 21 55  1  0  0  0  0
 22 56  1  0  0  0  0
 23 57  1  0  0  0  0
 24 58  1  0  0  0  0
 25 59  1  0  0  0  0
 25 60  1  0  0  0  0
M  END
> <creator>
David Briggs, Crick Institute

> <fragments>
x1392

> <real_space>
FALSE

> <SCR>
FALSE

> <BB>
FALSE

> <link>
https://covid.postera.ai/covid/submissions/f4772df7-f5a5-4208-a16e-3d41483cc4c7

> <covalent_frag>
TRUE

> <covalent_warhead>
TRUE

> <acrylamide>
FALSE

> <acrylamide_adduct>
FALSE

> <chloroacetamide>
TRUE

> <chloroacetamide_adduct>
FALSE

> <vinylsulfonamide>
FALSE

> <vinylsulfonamide_adduct>
FALSE

> <in_molport_or_mcule>
FALSE

> <in_emolecules>
FALSE

> <Hybrid2>
-4.796548

> <Mpro-x1392_dock>
-4.796548

> <Mpro-x1375_dock>
-1.564673

> <Mpro-x1384_dock>
-1.492151

> <site>
active-covalent

> <covalent_distance_min>
3.009613

> <covalent_distance_mean>
3.4809008

> <covalent_distance_stderr>
0.017399339

$$$$
NIY-UNK-626-2
  -OEChem-04062011563D

 56 59  0     1  0  0  0  0  0999 V2000
    5.1689   -2.7395   22.3918 C   0  0  0  0  0  0  0  0  0  0  0  0
    6.3581   -2.6976   22.5529 C   0  0  0  0  0  0  0  0  0  0  0  0
   12.5978    6.9368   25.8418 C   0  0  0  0  0  0  0  0  0  0  0  0
    8.4776   -3.7705   23.1584 C   0  0  0  0  0  0  0  0  0  0  0  0
   11.2424    7.2608   25.8859 C   0  0  0  0  0  0  0  0  0  0  0  0
   13.0782    6.0850   24.8506 C   0  0  0  0  0  0  0  0  0  0  0  0
    9.8545   -3.6922   23.3356 C   0  0  0  0  0  0  0  0  0  0  0  0
   12.5383   -0.1053   22.7279 C   0  0  0  0  0  0  0  0  0  0  0  0
    8.4815   -1.4788   22.5225 C   0  0  0  0  0  0  0  0  0  0  0  0
   14.1774   -1.6158   23.3865 C   0  0  0  0  0  0  0  0  0  0  0  0
    7.7706   -2.6472   22.7443 C   0  0  0  0  0  0  0  0  0  0  0  0
   10.3573    6.7406   24.9320 C   0  0  0  0  0  0  0  0  0  0  0  0
   10.8363    5.8661   23.9411 C   0  0  0  0  0  0  0  0  0  0  0  0
   12.2026    5.5512   23.9053 C   0  0  0  0  0  0  0  0  0  0  0  0
   12.8339   -1.4365   23.1409 C   0  0  0  0  0  0  0  0  0  0  0  0
   13.6673    0.6823   22.6737 C   0  0  0  0  0  0  0  0  0  0  0  0
   10.4721   -2.4771   23.0871 C   0  0  0  0  0  0  0  0  0  0  0  0
    7.4411    4.8470   22.5780 C   0  0  0  0  0  0  0  0  0  0  0  0
    8.8916    7.0761   25.0038 C   0  0  0  0  0  0  0  0  0  0  0  0
    9.9166    5.2626   22.9073 C   0  0  0  0  0  0  0  0  0  0  0  0
    8.2273    6.9349   23.6400 C   0  0  0  0  0  0  0  0  0  0  0  0
   12.7649    4.6396   22.8612 C   0  0  0  0  0  0  0  0  0  0  0  0
   13.7797    2.1254   22.2893 C   0  0  0  0  0  0  0  0  0  0  0  0
    7.6770    3.3586   22.4982 C   0  0  0  0  0  0  0  0  0  0  0  0
    9.8188   -1.3644   22.6838 N   0  0  0  0  0  0  0  0  0  0  0  0
   14.3077    3.3313   24.6075 N   0  0  0  0  0  0  0  0  0  0  0  0
    8.4988    5.6163   23.0690 N   0  0  0  0  0  0  0  0  0  0  0  0
   11.9061   -2.4119   23.2769 N   0  0  0  0  0  0  0  0  0  0  0  0
    6.3538    5.3076   22.2217 O   0  0  0  0  0  0  0  0  0  0  0  0
   11.8582    2.4826   23.9988 O   0  0  0  0  0  0  0  0  0  0  0  0
   15.0762   -0.1829   23.1194 S   0  0  0  0  0  0  0  0  0  0  0  0
   13.1271    3.0967   23.6321 S   0  0  1  0  0  0  0  0  0  0  0  0
    6.1162    2.5879   22.7565 Cl  0  0  0  0  0  0  0  0  0  0  0  0
    4.1142   -2.7765   22.2494 H   0  0  0  0  0  0  0  0  0  0  0  0
   13.2789    7.3504   26.5798 H   0  0  0  0  0  0  0  0  0  0  0  0
    7.9695   -4.7129   23.3467 H   0  0  0  0  0  0  0  0  0  0  0  0
   10.8790    7.9202   26.6700 H   0  0  0  0  0  0  0  0  0  0  0  0
   14.1377    5.8445   24.8207 H   0  0  0  0  0  0  0  0  0  0  0  0
   10.4144   -4.5642   23.6575 H   0  0  0  0  0  0  0  0  0  0  0  0
   11.5481    0.2590   22.4822 H   0  0  0  0  0  0  0  0  0  0  0  0
    7.9878   -0.5675   22.1972 H   0  0  0  0  0  0  0  0  0  0  0  0
   14.6805   -2.5169   23.7100 H   0  0  0  0  0  0  0  0  0  0  0  0
    8.3885    6.4058   25.7106 H   0  0  0  0  0  0  0  0  0  0  0  0
    8.7797    8.1020   25.3752 H   0  0  0  0  0  0  0  0  0  0  0  0
   10.2501    5.5737   21.9130 H   0  0  0  0  0  0  0  0  0  0  0  0
    9.9684    4.1689   22.9684 H   0  0  0  0  0  0  0  0  0  0  0  0
    7.1375    7.0330   23.7225 H   0  0  0  0  0  0  0  0  0  0  0  0
    8.5767    7.7309   22.9743 H   0  0  0  0  0  0  0  0  0  0  0  0
   13.6918    5.0299   22.4300 H   0  0  0  0  0  0  0  0  0  0  0  0
   12.0541    4.4552   22.0497 H   0  0  0  0  0  0  0  0  0  0  0  0
   13.2022    2.3560   21.3897 H   0  0  0  0  0  0  0  0  0  0  0  0
   14.8183    2.4260   22.1248 H   0  0  0  0  0  0  0  0  0  0  0  0
    8.3688    3.0711   23.2811 H   0  0  0  0  0  0  0  0  0  0  0  0
    8.0540    3.1162   21.5117 H   0  0  0  0  0  0  0  0  0  0  0  0
   14.5989    2.4884   25.1111 H   0  0  0  0  0  0  0  0  0  0  0  0
   12.2529   -3.3424   23.5861 H   0  0  0  0  0  0  0  0  0  0  0  0
  1  2  3  0  0  0  0
  2 11  1  0  0  0  0
  3  5  1  0  0  0  0
  3  6  2  0  0  0  0
  4  7  2  0  0  0  0
  4 11  1  0  0  0  0
  5 12  2  0  0  0  0
  6 14  1  0  0  0  0
  7 17  1  0  0  0  0
  8 15  1  0  0  0  0
  8 16  2  0  0  0  0
  9 11  2  0  0  0  0
  9 25  1  0  0  0  0
 10 15  2  0  0  0  0
 10 31  1  0  0  0  0
 12 13  1  0  0  0  0
 12 19  1  0  0  0  0
 13 14  2  0  0  0  0
 13 20  1  0  0  0  0
 14 22  1  0  0  0  0
 15 28  1  0  0  0  0
 16 23  1  0  0  0  0
 16 31  1  0  0  0  0
 17 25  2  0  0  0  0
 17 28  1  0  0  0  0
 18 24  1  0  0  0  0
 18 27  1  0  0  0  0
 18 29  2  0  0  0  0
 19 21  1  0  0  0  0
 20 27  1  0  0  0  0
 21 27  1  0  0  0  0
 22 32  1  0  0  0  0
 23 32  1  0  0  0  0
 24 33  1  0  0  0  0
 26 32  2  0  0  0  0
 30 32  2  0  0  0  0
  1 34  1  0  0  0  0
  3 35  1  0  0  0  0
  4 36  1  0  0  0  0
  5 37  1  0  0  0  0
  6 38  1  0  0  0  0
  7 39  1  0  0  0  0
  8 40  1  0  0  0  0
  9 41  1  0  0  0  0
 10 42  1  0  0  0  0
 19 43  1  0  0  0  0
 19 44  1  0  0  0  0
 20 45  1  0  0  0  0
 20 46  1  0  0  0  0
 21 47  1  0  0  0  0
 21 48  1  0  0  0  0
 22 49  1  0  0  0  0
 22 50  1  0  0  0  0
 23 51  1  0  0  0  0
 23 52  1  0  0  0  0
 24 53  1  0  0  0  0
 24 54  1  0  0  0  0
 26 55  1  0  0  0  0
 28 56  1  0  0  0  0
M  END
> <creator>
Niyaz Zaman

> <fragments>
x0195

> <real_space>
FALSE

> <SCR>
FALSE

> <BB>
FALSE

> <link>
https://covid.postera.ai/covid/submissions/62612a68-06cc-4f11-8abb-79197bdbf3d2

> <covalent_frag>
TRUE

> <covalent_warhead>
TRUE

> <acrylamide>
FALSE

> <acrylamide_adduct>
FALSE

> <chloroacetamide>
TRUE

> <chloroacetamide_adduct>
FALSE

> <vinylsulfonamide>
FALSE

> <vinylsulfonamide_adduct>
FALSE

> <in_molport_or_mcule>
FALSE

> <in_emolecules>
FALSE

> <Hybrid2>
-4.775069

> <Mpro-x0195_dock>
-4.775069

> <Mpro-x0387_dock>
-3.771978

> <Mpro-x0305_dock>
-3.430276

> <Mpro-x1374_dock>
0.489353

> <Mpro-x0736_dock>
1.529952

> <Mpro-x0689_dock>
1.803302

> <site>
active-noncovalent

> <covalent_distance_min>
9.715704

> <covalent_distance_mean>
10.779051

> <covalent_distance_stderr>
0.06952707

$$$$
DAR-DIA-cab-12
  -OEChem-04062011563D

 56 59  0     1  0  0  0  0  0999 V2000
    8.6728   -2.6271   22.4333 C   0  0  0  0  0  0  0  0  0  0  0  0
   15.0366   -1.1390   23.1832 C   0  0  0  0  0  0  0  0  0  0  0  0
   14.0466   -1.5895   24.0500 C   0  0  0  0  0  0  0  0  0  0  0  0
   14.8876    0.0858   22.5360 C   0  0  0  0  0  0  0  0  0  0  0  0
   12.8990   -0.8237   24.2582 C   0  0  0  0  0  0  0  0  0  0  0  0
   10.0318   -0.7123   23.1405 C   0  0  0  0  0  0  0  0  0  0  0  0
    7.8309   -0.9538   24.0091 C   0  0  0  0  0  0  0  0  0  0  0  0
    8.8437   -1.4326   23.1937 C   0  0  0  0  0  0  0  0  0  0  0  0
   13.7438    0.8718   22.7467 C   0  0  0  0  0  0  0  0  0  0  0  0
   12.7157    0.3995   23.5892 C   0  0  0  0  0  0  0  0  0  0  0  0
   10.1689    0.4484   23.8936 C   0  0  0  0  0  0  0  0  0  0  0  0
    9.0967    0.8432   24.6774 C   0  0  0  0  0  0  0  0  0  0  0  0
   12.8735    4.3907   22.9030 C   0  0  0  0  0  0  0  0  0  0  0  0
    8.8460    4.5025   25.0742 C   0  0  0  0  0  0  0  0  0  0  0  0
   13.6368    2.1998   22.0384 C   0  0  0  0  0  0  0  0  0  0  0  0
    8.3612    6.8771   24.5722 C   0  0  0  0  0  0  0  0  0  0  0  0
    6.7090    5.1989   23.8420 C   0  0  0  0  0  0  0  0  0  0  0  0
   11.3158    2.3862   22.8176 C   0  0  0  0  0  0  0  0  0  0  0  0
    8.1478    7.5901   23.2463 C   0  0  0  0  0  0  0  0  0  0  0  0
    6.5540    6.0053   22.5570 C   0  0  0  0  0  0  0  0  0  0  0  0
   11.4675    1.2423   23.8396 C   0  0  2  0  0  0  0  0  0  0  0  0
    9.1873    2.0824   25.5063 C   0  0  0  0  0  0  0  0  0  0  0  0
   12.1149    4.9990   24.0555 C   0  0  0  0  0  0  0  0  0  0  0  0
    8.5338   -3.5991   21.8147 N   0  0  0  0  0  0  0  0  0  0  0  0
    7.9272    0.1696   24.7550 N   0  0  0  0  0  0  0  0  0  0  0  0
   12.6007    3.0550   22.6135 N   0  0  0  0  0  0  0  0  0  0  0  0
    8.0136    5.4581   24.4675 N   0  0  0  0  0  0  0  0  0  0  0  0
    8.4411    3.1803   24.9336 N   0  0  0  0  0  0  0  0  0  0  0  0
   13.6848    5.0819   22.2817 O   0  0  0  0  0  0  0  0  0  0  0  0
    9.8682    4.8059   25.6985 O   0  0  0  0  0  0  0  0  0  0  0  0
    6.8070    7.3905   22.7948 O   0  0  0  0  0  0  0  0  0  0  0  0
   13.1741    6.2076   24.7727 Cl  0  0  0  0  0  0  0  0  0  0  0  0
   15.9238   -1.7404   23.0108 H   0  0  0  0  0  0  0  0  0  0  0  0
   14.1666   -2.5374   24.5675 H   0  0  0  0  0  0  0  0  0  0  0  0
   15.6683    0.4276   21.8608 H   0  0  0  0  0  0  0  0  0  0  0  0
   12.1421   -1.1857   24.9525 H   0  0  0  0  0  0  0  0  0  0  0  0
   10.8535   -1.0510   22.5134 H   0  0  0  0  0  0  0  0  0  0  0  0
    6.8787   -1.4701   24.0947 H   0  0  0  0  0  0  0  0  0  0  0  0
   14.5805    2.7352   22.1357 H   0  0  0  0  0  0  0  0  0  0  0  0
   13.4318    2.0184   20.9875 H   0  0  0  0  0  0  0  0  0  0  0  0
    9.3918    7.0101   24.9143 H   0  0  0  0  0  0  0  0  0  0  0  0
    7.6969    7.2987   25.3362 H   0  0  0  0  0  0  0  0  0  0  0  0
    5.9509    5.5006   24.5738 H   0  0  0  0  0  0  0  0  0  0  0  0
    6.5647    4.1429   23.6097 H   0  0  0  0  0  0  0  0  0  0  0  0
   10.9090    2.0162   21.8784 H   0  0  0  0  0  0  0  0  0  0  0  0
   10.6303    3.1424   23.2042 H   0  0  0  0  0  0  0  0  0  0  0  0
    8.2978    8.6668   23.3741 H   0  0  0  0  0  0  0  0  0  0  0  0
    8.8537    7.2440   22.4820 H   0  0  0  0  0  0  0  0  0  0  0  0
    7.2248    5.6379   21.7712 H   0  0  0  0  0  0  0  0  0  0  0  0
    5.5286    5.9147   22.1844 H   0  0  0  0  0  0  0  0  0  0  0  0
   11.5701    1.7314   24.8419 H   0  0  0  0  0  0  0  0  0  0  0  0
    8.7975    1.9087   26.5183 H   0  0  0  0  0  0  0  0  0  0  0  0
   10.2278    2.4146   25.6181 H   0  0  0  0  0  0  0  0  0  0  0  0
   11.8928    4.2223   24.7779 H   0  0  0  0  0  0  0  0  0  0  0  0
   11.2164    5.4698   23.6741 H   0  0  0  0  0  0  0  0  0  0  0  0
    7.5967    2.9755   24.4138 H   0  0  0  0  0  0  0  0  0  0  0  0
  1  8  1  0  0  0  0
  1 24  3  0  0  0  0
  2  3  1  0  0  0  0
  2  4  2  0  0  0  0
  3  5  2  0  0  0  0
  4  9  1  0  0  0  0
  5 10  1  0  0  0  0
  6  8  2  0  0  0  0
  6 11  1  0  0  0  0
  7  8  1  0  0  0  0
  7 25  2  0  0  0  0
  9 10  2  0  0  0  0
  9 15  1  0  0  0  0
 10 21  1  0  0  0  0
 11 12  2  0  0  0  0
 11 21  1  0  0  0  0
 12 22  1  0  0  0  0
 12 25  1  0  0  0  0
 13 23  1  0  0  0  0
 13 26  1  0  0  0  0
 13 29  2  0  0  0  0
 14 27  1  0  0  0  0
 14 28  1  0  0  0  0
 14 30  2  0  0  0  0
 15 26  1  0  0  0  0
 16 19  1  0  0  0  0
 16 27  1  0  0  0  0
 17 20  1  0  0  0  0
 17 27  1  0  0  0  0
 18 21  1  0  0  0  0
 18 26  1  0  0  0  0
 19 31  1  0  0  0  0
 20 31  1  0  0  0  0
 22 28  1  0  0  0  0
 23 32  1  0  0  0  0
  2 33  1  0  0  0  0
  3 34  1  0  0  0  0
  4 35  1  0  0  0  0
  5 36  1  0  0  0  0
  6 37  1  0  0  0  0
  7 38  1  0  0  0  0
 15 39  1  0  0  0  0
 15 40  1  0  0  0  0
 16 41  1  0  0  0  0
 16 42  1  0  0  0  0
 17 43  1  0  0  0  0
 17 44  1  0  0  0  0
 18 45  1  0  0  0  0
 18 46  1  0  0  0  0
 19 47  1  0  0  0  0
 19 48  1  0  0  0  0
 20 49  1  0  0  0  0
 20 50  1  0  0  0  0
 21 51  1  0  0  0  0
 22 52  1  0  0  0  0
 22 53  1  0  0  0  0
 23 54  1  0  0  0  0
 23 55  1  0  0  0  0
 28 56  1  0  0  0  0
M  END
> <creator>
Daren Fearon, Diamond Light Source Ltd

> <fragments>
x0195

> <real_space>
FALSE

> <SCR>
FALSE

> <BB>
FALSE

> <link>
https://covid.postera.ai/covid/submissions/caba39e3-6989-456c-b896-1cac12e2588e

> <covalent_frag>
TRUE

> <covalent_warhead>
TRUE

> <acrylamide>
FALSE

> <acrylamide_adduct>
FALSE

> <chloroacetamide>
TRUE

> <chloroacetamide_adduct>
FALSE

> <vinylsulfonamide>
FALSE

> <vinylsulfonamide_adduct>
FALSE

> <in_molport_or_mcule>
FALSE

> <in_emolecules>
FALSE

> <Hybrid2>
-4.753704

> <Mpro-x0195_dock>
-4.753704

> <Mpro-x0830_dock>
-3.130951

> <Mpro-x0305_dock>
-1.564573

> <Mpro-x1249_dock>
-0.930575

> <Mpro-x1392_dock>
-0.107414

> <site>
active-noncovalent

> <covalent_distance_min>
10.693024

> <covalent_distance_mean>
11.514595

> <covalent_distance_stderr>
0.05061452

$$$$
BEN-VAN-d2b-18
  -OEChem-04062011563D

 45 47  0     1  0  0  0  0  0999 V2000
    7.4944   -2.9564   23.9250 C   0  0  0  0  0  0  0  0  0  0  0  0
   12.7506   -1.4539   21.7169 C   0  0  0  0  0  0  0  0  0  0  0  0
    7.9949   -4.1808   23.5404 C   0  0  0  0  0  0  0  0  0  0  0  0
    8.4524   -1.9134   23.7685 C   0  0  0  0  0  0  0  0  0  0  0  0
   13.1219   -0.3182   22.4073 C   0  0  0  0  0  0  0  0  0  0  0  0
    9.6489   -2.3804   23.2702 C   0  0  0  0  0  0  0  0  0  0  0  0
   12.2572    0.0834   23.4049 C   0  0  0  0  0  0  0  0  0  0  0  0
   10.8644   -1.6592   22.9687 C   0  0  0  0  0  0  0  0  0  0  0  0
    9.7863    4.5123   24.7078 C   0  0  0  0  0  0  0  0  0  0  0  0
   10.6642    3.7410   24.0592 C   0  0  0  0  0  0  0  0  0  0  0  0
   10.2398    2.9535   22.8703 C   0  0  0  0  0  0  0  0  0  0  0  0
    8.6338    1.1812   22.2703 C   0  0  0  0  0  0  0  0  0  0  0  0
    5.9076    0.3184   24.6084 C   0  0  0  0  0  0  0  0  0  0  0  0
    7.1505   -0.2733   25.2584 C   0  0  0  0  0  0  0  0  0  0  0  0
    6.4679    1.1700   23.4835 C   0  0  0  0  0  0  0  0  0  0  0  0
    8.1686   -0.4643   24.1157 C   0  0  2  0  0  0  0  0  0  0  0  0
    7.5949    0.3142   22.9106 C   0  0  2  0  0  0  0  0  0  0  0  0
   14.8804    0.4200   20.7984 C   0  0  0  0  0  0  0  0  0  0  0  0
   11.6245   -2.1518   21.9722 N   0  0  0  0  0  0  0  0  0  0  0  0
   11.1154   -0.5657   23.7135 N   0  0  0  0  0  0  0  0  0  0  0  0
   14.2985    0.3771   22.1114 N   0  0  0  0  0  0  0  0  0  0  0  0
    9.2265    2.0510   23.1841 N   0  0  0  0  0  0  0  0  0  0  0  0
   10.7456    3.1080   21.7635 O   0  0  0  0  0  0  0  0  0  0  0  0
    8.9132    1.0858   21.0783 O   0  0  0  0  0  0  0  0  0  0  0  0
   12.5497    1.1808   24.1214 F   0  0  0  0  0  0  0  0  0  0  0  0
    9.6138   -4.0699   22.9932 S   0  0  0  0  0  0  0  0  0  0  0  0
    6.4879   -2.8210   24.3003 H   0  0  0  0  0  0  0  0  0  0  0  0
   13.3614   -1.8532   20.9130 H   0  0  0  0  0  0  0  0  0  0  0  0
    7.4874   -5.1350   23.5545 H   0  0  0  0  0  0  0  0  0  0  0  0
   10.0563    5.1008   25.5775 H   0  0  0  0  0  0  0  0  0  0  0  0
    8.7573    4.5666   24.3679 H   0  0  0  0  0  0  0  0  0  0  0  0
   11.6933    3.6829   24.3960 H   0  0  0  0  0  0  0  0  0  0  0  0
    5.2227   -0.4552   24.2444 H   0  0  0  0  0  0  0  0  0  0  0  0
    5.3635    0.9432   25.3287 H   0  0  0  0  0  0  0  0  0  0  0  0
    7.5477    0.3783   26.0543 H   0  0  0  0  0  0  0  0  0  0  0  0
    6.9005   -1.2383   25.7350 H   0  0  0  0  0  0  0  0  0  0  0  0
    5.6977    1.3161   22.7221 H   0  0  0  0  0  0  0  0  0  0  0  0
    6.7908    2.1486   23.8384 H   0  0  0  0  0  0  0  0  0  0  0  0
    9.1365   -0.0234   24.4228 H   0  0  0  0  0  0  0  0  0  0  0  0
    7.1988   -0.3484   22.1245 H   0  0  0  0  0  0  0  0  0  0  0  0
   14.2602   -0.1643   20.1027 H   0  0  0  0  0  0  0  0  0  0  0  0
   14.9329    1.4636   20.4547 H   0  0  0  0  0  0  0  0  0  0  0  0
   15.8938   -0.0063   20.8325 H   0  0  0  0  0  0  0  0  0  0  0  0
   14.7526    0.8678   22.8658 H   0  0  0  0  0  0  0  0  0  0  0  0
    8.8964    2.0247   24.1462 H   0  0  0  0  0  0  0  0  0  0  0  0
  1  3  2  0  0  0  0
  1  4  1  0  0  0  0
  2  5  1  0  0  0  0
  2 19  2  0  0  0  0
  3 26  1  0  0  0  0
  4  6  2  0  0  0  0
  4 16  1  0  0  0  0
  5  7  2  0  0  0  0
  5 21  1  0  0  0  0
  6  8  1  0  0  0  0
  6 26  1  0  0  0  0
  7 20  1  0  0  0  0
  7 25  1  0  0  0  0
  8 19  1  0  0  0  0
  8 20  2  0  0  0  0
  9 10  2  0  0  0  0
 10 11  1  0  0  0  0
 11 22  1  0  0  0  0
 11 23  2  0  0  0  0
 12 17  1  0  0  0  0
 12 22  1  0  0  0  0
 12 24  2  0  0  0  0
 13 14  1  0  0  0  0
 13 15  1  0  0  0  0
 14 16  1  0  0  0  0
 15 17  1  0  0  0  0
 16 17  1  0  0  0  0
 18 21  1  0  0  0  0
  1 27  1  0  0  0  0
  2 28  1  0  0  0  0
  3 29  1  0  0  0  0
  9 30  1  0  0  0  0
  9 31  1  0  0  0  0
 10 32  1  0  0  0  0
 13 33  1  0  0  0  0
 13 34  1  0  0  0  0
 14 35  1  0  0  0  0
 14 36  1  0  0  0  0
 15 37  1  0  0  0  0
 15 38  1  0  0  0  0
 16 39  1  0  0  0  0
 17 40  1  0  0  0  0
 18 41  1  0  0  0  0
 18 42  1  0  0  0  0
 18 43  1  0  0  0  0
 21 44  1  0  0  0  0
 22 45  1  0  0  0  0
M  END
> <creator>
Benjamin P. Brown, Vanderbilt University, Laboratory of Jens Meiler

> <fragments>
x0874

> <real_space>
FALSE

> <SCR>
FALSE

> <BB>
FALSE

> <link>
https://covid.postera.ai/covid/submissions/d2b455e2-4c45-4364-9fc0-1efc54e3e367

> <covalent_frag>
FALSE

> <covalent_warhead>
TRUE

> <acrylamide>
TRUE

> <acrylamide_adduct>
FALSE

> <chloroacetamide>
FALSE

> <chloroacetamide_adduct>
FALSE

> <vinylsulfonamide>
FALSE

> <vinylsulfonamide_adduct>
FALSE

> <in_molport_or_mcule>
FALSE

> <in_emolecules>
FALSE

> <Hybrid2>
-4.752408

> <Mpro-x0874_dock>
-4.752408

> <Mpro-x0305_dock>
-3.421166

> <site>
active-noncovalent

> <covalent_distance_min>
5.705434

> <covalent_distance_mean>
6.837132

> <covalent_distance_stderr>
0.10115021

$$$$
AVI-UNI-a66-2
  -OEChem-04062011563D

 34 36  0     0  0  0  0  0  0999 V2000
    9.1113   -1.3028   18.2640 C   0  0  0  0  0  0  0  0  0  0  0  0
   10.0395   -2.0618   18.9738 C   0  0  0  0  0  0  0  0  0  0  0  0
   13.7531   -1.8559   21.5465 C   0  0  0  0  0  0  0  0  0  0  0  0
   14.6447   -0.9036   22.0351 C   0  0  0  0  0  0  0  0  0  0  0  0
   12.8356    0.1561   23.2224 C   0  0  0  0  0  0  0  0  0  0  0  0
    8.4483   -0.2277   20.3147 C   0  0  0  0  0  0  0  0  0  0  0  0
   11.9176   -0.7995   22.7467 C   0  0  0  0  0  0  0  0  0  0  0  0
    8.3083   -0.3908   18.9363 C   0  0  0  0  0  0  0  0  0  0  0  0
    9.4100   -0.9479   21.0450 C   0  0  0  0  0  0  0  0  0  0  0  0
   12.3942   -1.8030   21.8926 C   0  0  0  0  0  0  0  0  0  0  0  0
   10.1889   -1.8976   20.3610 C   0  0  0  0  0  0  0  0  0  0  0  0
   14.1849    0.1068   22.8701 C   0  0  0  0  0  0  0  0  0  0  0  0
   10.5093   -0.7155   23.1983 C   0  0  0  0  0  0  0  0  0  0  0  0
    7.3156    0.4047   18.1966 C   0  0  0  0  0  0  0  0  0  0  0  0
    9.2266    0.1186   25.0786 C   0  0  0  0  0  0  0  0  0  0  0  0
    9.2461    0.1423   26.5867 C   0  0  0  0  0  0  0  0  0  0  0  0
    9.4395   -0.7326   22.3975 N   0  3  0  0  0  0  0  0  0  0  0  0
   10.3190   -0.5530   24.5098 N   0  0  0  0  0  0  0  0  0  0  0  0
    6.5842    1.2428   18.8460 O   0  5  0  0  0  0  0  0  0  0  0  0
    7.2102    0.2369   16.9239 O   0  0  0  0  0  0  0  0  0  0  0  0
    8.3137    0.6380   24.4380 O   0  0  0  0  0  0  0  0  0  0  0  0
   11.2972   -3.0177   21.2024 S   0  0  0  0  0  0  0  0  0  0  0  0
   15.2753    1.2984   23.4634 Cl  0  0  0  0  0  0  0  0  0  0  0  0
    7.5702    0.2232   27.1523 Cl  0  0  0  0  0  0  0  0  0  0  0  0
    9.0383   -1.4190   17.1859 H   0  0  0  0  0  0  0  0  0  0  0  0
   10.6564   -2.7722   18.4271 H   0  0  0  0  0  0  0  0  0  0  0  0
   14.1336   -2.6446   20.9010 H   0  0  0  0  0  0  0  0  0  0  0  0
   15.6941   -0.9668   21.7595 H   0  0  0  0  0  0  0  0  0  0  0  0
   12.4860    0.9515   23.8792 H   0  0  0  0  0  0  0  0  0  0  0  0
    7.7850    0.4590   20.8389 H   0  0  0  0  0  0  0  0  0  0  0  0
    9.7830    1.0314   26.9288 H   0  0  0  0  0  0  0  0  0  0  0  0
    9.7174   -0.7455   27.0156 H   0  0  0  0  0  0  0  0  0  0  0  0
    8.5388   -0.6690   22.8673 H   0  0  0  0  0  0  0  0  0  0  0  0
   11.0198   -0.9479   25.1525 H   0  0  0  0  0  0  0  0  0  0  0  0
  1  2  2  0  0  0  0
  1  8  1  0  0  0  0
  2 11  1  0  0  0  0
  3  4  2  0  0  0  0
  3 10  1  0  0  0  0
  4 12  1  0  0  0  0
  5  7  1  0  0  0  0
  5 12  2  0  0  0  0
  6  8  2  0  0  0  0
  6  9  1  0  0  0  0
  7 10  2  0  0  0  0
  7 13  1  0  0  0  0
  8 14  1  0  0  0  0
  9 11  2  0  0  0  0
  9 17  1  0  0  0  0
 10 22  1  0  0  0  0
 11 22  1  0  0  0  0
 12 23  1  0  0  0  0
 13 17  2  0  0  0  0
 13 18  1  0  0  0  0
 14 19  1  0  0  0  0
 14 20  2  0  0  0  0
 15 16  1  0  0  0  0
 15 18  1  0  0  0  0
 15 21  2  0  0  0  0
 16 24  1  0  0  0  0
  1 25  1  0  0  0  0
  2 26  1  0  0  0  0
  3 27  1  0  0  0  0
  4 28  1  0  0  0  0
  5 29  1  0  0  0  0
  6 30  1  0  0  0  0
 16 31  1  0  0  0  0
 16 32  1  0  0  0  0
 17 33  1  0  0  0  0
 18 34  1  0  0  0  0
M  CHG  2  17   1  19  -1
M  END
> <creator>
Avinash Punekar, University of Dundee

> <fragments>
x1382

> <real_space>
FALSE

> <SCR>
FALSE

> <BB>
FALSE

> <link>
https://covid.postera.ai/covid/submissions/a66764d4-9e84-45cf-b096-f27dd30ef425

> <covalent_frag>
TRUE

> <covalent_warhead>
TRUE

> <acrylamide>
FALSE

> <acrylamide_adduct>
FALSE

> <chloroacetamide>
TRUE

> <chloroacetamide_adduct>
FALSE

> <vinylsulfonamide>
FALSE

> <vinylsulfonamide_adduct>
FALSE

> <in_molport_or_mcule>
FALSE

> <in_emolecules>
FALSE

> <Hybrid2>
-4.739315

> <Mpro-x1382_dock>
-4.739315

> <site>
active-covalent

> <covalent_distance_min>
6.665181

> <covalent_distance_mean>
8.459894

> <covalent_distance_stderr>
0.14765458

$$$$
WAR-XCH-b03-3
  -OEChem-04062011563D

 40 42  0     0  0  0  0  0  0999 V2000
    3.7582   -6.5686   27.5700 C   0  0  0  0  0  0  0  0  0  0  0  0
    4.7546   -7.5329   27.6799 C   0  0  0  0  0  0  0  0  0  0  0  0
    4.0997   -5.2815   27.1634 C   0  0  0  0  0  0  0  0  0  0  0  0
    5.4489   -5.0752   26.8972 C   0  0  0  0  0  0  0  0  0  0  0  0
    6.3892   -6.0906   27.0298 C   0  0  0  0  0  0  0  0  0  0  0  0
    7.4834   -4.3806   26.3912 C   0  0  0  0  0  0  0  0  0  0  0  0
    6.5778   -4.2733   20.8732 C   0  0  0  0  0  0  0  0  0  0  0  0
    7.1841   -2.5679   24.0198 C   0  0  0  0  0  0  0  0  0  0  0  0
    8.7797   -4.4897   23.6880 C   0  0  0  0  0  0  0  0  0  0  0  0
    7.1141   -2.3962   22.5033 C   0  0  0  0  0  0  0  0  0  0  0  0
    8.6790   -4.2776   22.1794 C   0  0  0  0  0  0  0  0  0  0  0  0
    8.5250   -3.1811   24.4512 C   0  0  0  0  0  0  0  0  0  0  0  0
    3.0620   -4.2220   27.0356 C   0  0  0  0  0  0  0  0  0  0  0  0
    8.5545   -3.4168   25.9594 C   0  0  0  0  0  0  0  0  0  0  0  0
    6.6286   -5.7787   20.8016 C   0  0  0  0  0  0  0  0  0  0  0  0
    6.0715   -7.3488   27.4246 N   0  0  0  0  0  0  0  0  0  0  0  0
    7.6478   -5.6454   26.7124 N   0  0  0  0  0  0  0  0  0  0  0  0
    6.1747   -3.9902   26.4868 N   0  0  0  0  0  0  0  0  0  0  0  0
    7.3984   -3.6649   21.8223 N   0  0  0  0  0  0  0  0  0  0  0  0
    5.8325   -3.6583   20.1063 O   0  0  0  0  0  0  0  0  0  0  0  0
    6.1736   -6.3744   22.3941 Cl  0  0  0  0  0  0  0  0  0  0  0  0
    2.7288   -6.8244   27.8026 H   0  0  0  0  0  0  0  0  0  0  0  0
    4.4970   -8.5409   27.9940 H   0  0  0  0  0  0  0  0  0  0  0  0
    7.0506   -1.5916   24.5009 H   0  0  0  0  0  0  0  0  0  0  0  0
    6.3531   -3.2036   24.3515 H   0  0  0  0  0  0  0  0  0  0  0  0
    8.0552   -5.2543   23.9965 H   0  0  0  0  0  0  0  0  0  0  0  0
    9.7759   -4.8765   23.9342 H   0  0  0  0  0  0  0  0  0  0  0  0
    6.1372   -1.9939   22.2299 H   0  0  0  0  0  0  0  0  0  0  0  0
    7.8667   -1.6732   22.1665 H   0  0  0  0  0  0  0  0  0  0  0  0
    9.4721   -3.6048   21.8323 H   0  0  0  0  0  0  0  0  0  0  0  0
    8.8123   -5.2333   21.6630 H   0  0  0  0  0  0  0  0  0  0  0  0
    9.3265   -2.4727   24.2026 H   0  0  0  0  0  0  0  0  0  0  0  0
    2.9477   -3.6792   27.9831 H   0  0  0  0  0  0  0  0  0  0  0  0
    3.3226   -3.4976   26.2516 H   0  0  0  0  0  0  0  0  0  0  0  0
    2.0866   -4.6468   26.7607 H   0  0  0  0  0  0  0  0  0  0  0  0
    8.4295   -2.4619   26.4803 H   0  0  0  0  0  0  0  0  0  0  0  0
    9.5389   -3.7982   26.2498 H   0  0  0  0  0  0  0  0  0  0  0  0
    7.6411   -6.0854   20.5649 H   0  0  0  0  0  0  0  0  0  0  0  0
    5.9163   -6.1194   20.0590 H   0  0  0  0  0  0  0  0  0  0  0  0
    5.8096   -3.0677   26.2898 H   0  0  0  0  0  0  0  0  0  0  0  0
  1  2  2  0  0  0  0
  1  3  1  0  0  0  0
  2 16  1  0  0  0  0
  3  4  2  0  0  0  0
  3 13  1  0  0  0  0
  4  5  1  0  0  0  0
  4 18  1  0  0  0  0
  5 16  2  0  0  0  0
  5 17  1  0  0  0  0
  6 14  1  0  0  0  0
  6 17  2  0  0  0  0
  6 18  1  0  0  0  0
  7 15  1  0  0  0  0
  7 19  1  0  0  0  0
  7 20  2  0  0  0  0
  8 10  1  0  0  0  0
  8 12  1  0  0  0  0
  9 11  1  0  0  0  0
  9 12  1  0  0  0  0
 10 19  1  0  0  0  0
 11 19  1  0  0  0  0
 12 14  1  0  0  0  0
 15 21  1  0  0  0  0
  1 22  1  0  0  0  0
  2 23  1  0  0  0  0
  8 24  1  0  0  0  0
  8 25  1  0  0  0  0
  9 26  1  0  0  0  0
  9 27  1  0  0  0  0
 10 28  1  0  0  0  0
 10 29  1  0  0  0  0
 11 30  1  0  0  0  0
 11 31  1  0  0  0  0
 12 32  1  0  0  0  0
 13 33  1  0  0  0  0
 13 34  1  0  0  0  0
 13 35  1  0  0  0  0
 14 36  1  0  0  0  0
 14 37  1  0  0  0  0
 15 38  1  0  0  0  0
 15 39  1  0  0  0  0
 18 40  1  0  0  0  0
M  END
> <creator>
Warren Thompson, XChem - Diamond Light Source

> <fragments>
x1493

> <real_space>
FALSE

> <SCR>
FALSE

> <BB>
FALSE

> <link>
https://covid.postera.ai/covid/submissions/b0339bbe-c90e-4133-a07d-b9c731b043e2

> <covalent_frag>
TRUE

> <covalent_warhead>
TRUE

> <acrylamide>
FALSE

> <acrylamide_adduct>
FALSE

> <chloroacetamide>
TRUE

> <chloroacetamide_adduct>
FALSE

> <vinylsulfonamide>
FALSE

> <vinylsulfonamide_adduct>
FALSE

> <in_molport_or_mcule>
FALSE

> <in_emolecules>
FALSE

> <Hybrid2>
-4.711391

> <Mpro-x1493_dock>
-4.711391

> <Mpro-x1478_dock>
-3.81139

> <Mpro-x1458_dock>
-3.717737

> <site>
active-covalent

> <covalent_distance_min>
2.96599

> <covalent_distance_mean>
3.5077524

> <covalent_distance_stderr>
0.022541817

$$$$
PAU-WEI-b9b-1
  -OEChem-04062011563D

 51 53  0     1  0  0  0  0  0999 V2000
   10.7189   -1.9923   24.0883 C   0  0  0  0  0  0  0  0  0  0  0  0
   11.3370   -1.0926   24.9566 C   0  0  0  0  0  0  0  0  0  0  0  0
   10.6538   -1.7116   22.7234 C   0  0  0  0  0  0  0  0  0  0  0  0
    8.4123    1.6465   26.2251 C   0  0  0  0  0  0  0  0  0  0  0  0
   11.8899    0.0879   24.4602 C   0  0  0  0  0  0  0  0  0  0  0  0
   11.2067   -0.5311   22.2270 C   0  0  0  0  0  0  0  0  0  0  0  0
    9.5048    2.3790   25.7610 C   0  0  0  0  0  0  0  0  0  0  0  0
    7.5520    1.0271   25.3185 C   0  0  0  0  0  0  0  0  0  0  0  0
    8.8767    1.8730   23.4836 C   0  0  0  0  0  0  0  0  0  0  0  0
   11.8248    0.3686   23.0954 C   0  0  0  0  0  0  0  0  0  0  0  0
    9.7370    2.4923   24.3903 C   0  0  0  0  0  0  0  0  0  0  0  0
    7.7842    1.1404   23.9478 C   0  0  0  0  0  0  0  0  0  0  0  0
    8.2635    8.0391   24.9144 C   0  0  0  0  0  0  0  0  0  0  0  0
   10.4772    6.9345   24.9430 C   0  0  0  0  0  0  0  0  0  0  0  0
    8.9771    6.4713   23.0434 C   0  0  0  0  0  0  0  0  0  0  0  0
   10.7348    5.4464   25.1291 C   0  0  0  0  0  0  0  0  0  0  0  0
    9.2138    4.9752   23.1999 C   0  0  0  0  0  0  0  0  0  0  0  0
   12.4220    1.6445   22.5582 C   0  0  0  0  0  0  0  0  0  0  0  0
    8.3232    8.1547   26.4166 C   0  0  0  0  0  0  0  0  0  0  0  0
   11.4727    2.8545   22.5130 C   0  0  0  0  0  0  0  0  0  0  0  0
   10.9210    3.2878   23.8878 C   0  0  1  0  0  0  0  0  0  0  0  0
    9.1751    7.1686   24.3186 N   0  0  0  0  0  0  0  0  0  0  0  0
   10.5857    4.7498   23.7950 N   0  3  0  0  0  0  0  0  0  0  0  0
    7.4330    8.7051   24.2909 O   0  0  0  0  0  0  0  0  0  0  0  0
    6.7217    0.3770   22.8297 Cl  0  0  0  0  0  0  0  0  0  0  0  0
    7.9781    6.5528   27.0592 Cl  0  0  0  0  0  0  0  0  0  0  0  0
   10.2896   -2.9120   24.4748 H   0  0  0  0  0  0  0  0  0  0  0  0
   11.3887   -1.3114   26.0192 H   0  0  0  0  0  0  0  0  0  0  0  0
   10.1736   -2.4124   22.0469 H   0  0  0  0  0  0  0  0  0  0  0  0
    8.2318    1.5587   27.2926 H   0  0  0  0  0  0  0  0  0  0  0  0
   12.3694    0.7832   25.1443 H   0  0  0  0  0  0  0  0  0  0  0  0
   11.1512   -0.3208   21.1622 H   0  0  0  0  0  0  0  0  0  0  0  0
   10.1699    2.8584   26.4746 H   0  0  0  0  0  0  0  0  0  0  0  0
    6.7043    0.4596   25.6946 H   0  0  0  0  0  0  0  0  0  0  0  0
    9.0623    1.9638   22.4159 H   0  0  0  0  0  0  0  0  0  0  0  0
   10.5398    7.4402   25.9116 H   0  0  0  0  0  0  0  0  0  0  0  0
   11.2391    7.3821   24.2933 H   0  0  0  0  0  0  0  0  0  0  0  0
    9.6856    6.9006   22.3246 H   0  0  0  0  0  0  0  0  0  0  0  0
    7.9759    6.6344   22.6411 H   0  0  0  0  0  0  0  0  0  0  0  0
   11.7584    5.2716   25.4760 H   0  0  0  0  0  0  0  0  0  0  0  0
   10.0247    4.9905   25.8283 H   0  0  0  0  0  0  0  0  0  0  0  0
    8.4776    4.5106   23.8654 H   0  0  0  0  0  0  0  0  0  0  0  0
    9.1956    4.4776   22.2248 H   0  0  0  0  0  0  0  0  0  0  0  0
   12.7700    1.4354   21.5379 H   0  0  0  0  0  0  0  0  0  0  0  0
   13.3214    1.9128   23.1268 H   0  0  0  0  0  0  0  0  0  0  0  0
    7.5669    8.8584   26.7453 H   0  0  0  0  0  0  0  0  0  0  0  0
    9.3207    8.4650   26.7059 H   0  0  0  0  0  0  0  0  0  0  0  0
   12.0566    3.6901   22.1021 H   0  0  0  0  0  0  0  0  0  0  0  0
   10.6585    2.6801   21.7995 H   0  0  0  0  0  0  0  0  0  0  0  0
   11.7356    3.2454   24.6208 H   0  0  0  0  0  0  0  0  0  0  0  0
   11.2720    5.1672   23.1512 H   0  0  0  0  0  0  0  0  0  0  0  0
  1  2  1  0  0  0  0
  1  3  2  0  0  0  0
  2  5  2  0  0  0  0
  3  6  1  0  0  0  0
  4  7  2  0  0  0  0
  4  8  1  0  0  0  0
  5 10  1  0  0  0  0
  6 10  2  0  0  0  0
  7 11  1  0  0  0  0
  8 12  2  0  0  0  0
  9 11  2  0  0  0  0
  9 12  1  0  0  0  0
 10 18  1  0  0  0  0
 11 21  1  0  0  0  0
 12 25  1  0  0  0  0
 13 19  1  0  0  0  0
 13 22  1  0  0  0  0
 13 24  2  0  0  0  0
 14 16  1  0  0  0  0
 14 22  1  0  0  0  0
 15 17  1  0  0  0  0
 15 22  1  0  0  0  0
 16 23  1  0  0  0  0
 17 23  1  0  0  0  0
 18 20  1  0  0  0  0
 19 26  1  0  0  0  0
 20 21  1  0  0  0  0
 21 23  1  0  0  0  0
  1 27  1  0  0  0  0
  2 28  1  0  0  0  0
  3 29  1  0  0  0  0
  4 30  1  0  0  0  0
  5 31  1  0  0  0  0
  6 32  1  0  0  0  0
  7 33  1  0  0  0  0
  8 34  1  0  0  0  0
  9 35  1  0  0  0  0
 14 36  1  0  0  0  0
 14 37  1  0  0  0  0
 15 38  1  0  0  0  0
 15 39  1  0  0  0  0
 16 40  1  0  0  0  0
 16 41  1  0  0  0  0
 17 42  1  0  0  0  0
 17 43  1  0  0  0  0
 18 44  1  0  0  0  0
 18 45  1  0  0  0  0
 19 46  1  0  0  0  0
 19 47  1  0  0  0  0
 20 48  1  0  0  0  0
 20 49  1  0  0  0  0
 21 50  1  0  0  0  0
 23 51  1  0  0  0  0
M  CHG  1  23   1
M  END
> <creator>
Paul Gehrtz, Weizmann Institute of Science

> <fragments>
x0104

> <real_space>
FALSE

> <SCR>
FALSE

> <BB>
FALSE

> <link>
https://covid.postera.ai/covid/submissions/b9b69149-728b-48ac-b50d-9dc89a43712c

> <covalent_frag>
TRUE

> <covalent_warhead>
TRUE

> <acrylamide>
FALSE

> <acrylamide_adduct>
FALSE

> <chloroacetamide>
TRUE

> <chloroacetamide_adduct>
FALSE

> <vinylsulfonamide>
FALSE

> <vinylsulfonamide_adduct>
FALSE

> <in_molport_or_mcule>
FALSE

> <in_emolecules>
FALSE

> <Hybrid2>
-4.709893

> <Mpro-x0104_dock>
-4.709893

> <Mpro-x0305_dock>
-4.524352

> <Mpro-x1385_dock>
-4.230319

> <Mpro-x1380_dock>
-3.704181

> <Mpro-x0770_dock>
-2.695954

> <site>
active-noncovalent

> <covalent_distance_min>
12.982645

> <covalent_distance_mean>
13.668069

> <covalent_distance_stderr>
0.053227168

$$$$
DUN-NEW-f8c-21
  -OEChem-04062011563D

 39 40  0     0  0  0  0  0  0999 V2000
    9.5261   -0.8166   26.0957 C   0  0  0  0  0  0  0  0  0  0  0  0
    9.6818   -0.7803   24.7053 C   0  0  0  0  0  0  0  0  0  0  0  0
    9.1532   -1.9939   26.7411 C   0  0  0  0  0  0  0  0  0  0  0  0
    9.1902   -3.6022   22.4346 C   0  0  0  0  0  0  0  0  0  0  0  0
    9.4567   -1.9533   23.9576 C   0  0  0  0  0  0  0  0  0  0  0  0
    8.9245   -3.1696   26.0205 C   0  0  0  0  0  0  0  0  0  0  0  0
    9.5195   -2.2735   22.5725 C   0  0  0  0  0  0  0  0  0  0  0  0
    9.0840   -3.1185   24.6311 C   0  0  0  0  0  0  0  0  0  0  0  0
   12.9145   -1.0388   23.3182 C   0  0  0  0  0  0  0  0  0  0  0  0
    6.5214   -5.7924   27.2115 C   0  0  0  0  0  0  0  0  0  0  0  0
   13.3046   -0.2495   24.5237 C   0  0  0  0  0  0  0  0  0  0  0  0
    9.8727   -1.3528   21.4729 C   0  0  0  0  0  0  0  0  0  0  0  0
    8.5265   -4.4131   26.7435 C   0  0  0  0  0  0  0  0  0  0  0  0
    5.0462   -5.8960   26.9195 C   0  0  0  0  0  0  0  0  0  0  0  0
   11.3792   -1.0559   21.3624 C   0  0  0  0  0  0  0  0  0  0  0  0
    8.9289   -4.1032   23.6816 N   0  0  0  0  0  0  0  0  0  0  0  0
    7.1261   -4.7122   26.5869 N   0  0  0  0  0  0  0  0  0  0  0  0
   11.9046   -0.4639   22.5635 N   0  0  0  0  0  0  0  0  0  0  0  0
   13.4843   -2.0969   23.0784 O   0  0  0  0  0  0  0  0  0  0  0  0
    7.0948   -6.5933   27.9478 O   0  0  0  0  0  0  0  0  0  0  0  0
    4.1802   -4.9698   28.1552 Cl  0  0  0  0  0  0  0  0  0  0  0  0
    9.6978    0.0854   26.6774 H   0  0  0  0  0  0  0  0  0  0  0  0
    9.9730    0.1457   24.2178 H   0  0  0  0  0  0  0  0  0  0  0  0
    9.0394   -1.9895   27.8229 H   0  0  0  0  0  0  0  0  0  0  0  0
    9.1177   -4.2370   21.5624 H   0  0  0  0  0  0  0  0  0  0  0  0
   12.7185   -0.5256   25.4149 H   0  0  0  0  0  0  0  0  0  0  0  0
   14.3575   -0.4078   24.8072 H   0  0  0  0  0  0  0  0  0  0  0  0
   13.1912    0.8423   24.4291 H   0  0  0  0  0  0  0  0  0  0  0  0
    9.3450   -0.3872   21.6015 H   0  0  0  0  0  0  0  0  0  0  0  0
    9.5151   -1.7361   20.4958 H   0  0  0  0  0  0  0  0  0  0  0  0
    9.0928   -5.2808   26.3783 H   0  0  0  0  0  0  0  0  0  0  0  0
    8.7266   -4.3333   27.8205 H   0  0  0  0  0  0  0  0  0  0  0  0
    4.7839   -5.4985   25.9360 H   0  0  0  0  0  0  0  0  0  0  0  0
    4.7376   -6.9435   26.9753 H   0  0  0  0  0  0  0  0  0  0  0  0
   11.9485   -1.9744   21.1881 H   0  0  0  0  0  0  0  0  0  0  0  0
   11.5836   -0.3657   20.5373 H   0  0  0  0  0  0  0  0  0  0  0  0
    8.6612   -5.0582   23.8759 H   0  0  0  0  0  0  0  0  0  0  0  0
    6.5596   -4.1084   25.9960 H   0  0  0  0  0  0  0  0  0  0  0  0
   11.5140    0.4238   22.8753 H   0  0  0  0  0  0  0  0  0  0  0  0
  1  2  2  0  0  0  0
  1  3  1  0  0  0  0
  2  5  1  0  0  0  0
  3  6  2  0  0  0  0
  4  7  2  0  0  0  0
  4 16  1  0  0  0  0
  5  7  1  0  0  0  0
  5  8  2  0  0  0  0
  6  8  1  0  0  0  0
  6 13  1  0  0  0  0
  7 12  1  0  0  0  0
  8 16  1  0  0  0  0
  9 11  1  0  0  0  0
  9 18  1  0  0  0  0
  9 19  2  0  0  0  0
 10 14  1  0  0  0  0
 10 17  1  0  0  0  0
 10 20  2  0  0  0  0
 12 15  1  0  0  0  0
 13 17  1  0  0  0  0
 14 21  1  0  0  0  0
 15 18  1  0  0  0  0
  1 22  1  0  0  0  0
  2 23  1  0  0  0  0
  3 24  1  0  0  0  0
  4 25  1  0  0  0  0
 11 26  1  0  0  0  0
 11 27  1  0  0  0  0
 11 28  1  0  0  0  0
 12 29  1  0  0  0  0
 12 30  1  0  0  0  0
 13 31  1  0  0  0  0
 13 32  1  0  0  0  0
 14 33  1  0  0  0  0
 14 34  1  0  0  0  0
 15 35  1  0  0  0  0
 15 36  1  0  0  0  0
 16 37  1  0  0  0  0
 17 38  1  0  0  0  0
 18 39  1  0  0  0  0
M  END
> <creator>
Duncan Miller, Newcastle University

> <fragments>
x0072

> <real_space>
FALSE

> <SCR>
FALSE

> <BB>
FALSE

> <link>
https://covid.postera.ai/covid/submissions/f8ce3686-4774-4f4e-b96a-ab98611b1edd

> <covalent_frag>
TRUE

> <covalent_warhead>
TRUE

> <acrylamide>
FALSE

> <acrylamide_adduct>
FALSE

> <chloroacetamide>
TRUE

> <chloroacetamide_adduct>
FALSE

> <vinylsulfonamide>
FALSE

> <vinylsulfonamide_adduct>
FALSE

> <in_molport_or_mcule>
FALSE

> <in_emolecules>
FALSE

> <Hybrid2>
-4.685959

> <Mpro-x0072_dock>
-4.685959

> <Mpro-x1458_dock>
-2.166148

> <site>
active-noncovalent

> <covalent_distance_min>
9.355948

> <covalent_distance_mean>
10.990979

> <covalent_distance_stderr>
0.09238609

$$$$
TOB-UNK-c2a-6
  -OEChem-04062011563D

 26 26  0     1  0  0  0  0  0999 V2000
   11.1355   -0.2915   24.5660 C   0  0  0  0  0  0  0  0  0  0  0  0
   10.7157   -1.2805   24.0307 C   0  0  0  0  0  0  0  0  0  0  0  0
    6.5558   -5.4028   22.4420 C   0  0  0  0  0  0  0  0  0  0  0  0
    7.3996   -4.5651   21.8364 C   0  0  0  0  0  0  0  0  0  0  0  0
    8.0338   -2.7310   24.7189 C   0  0  0  0  0  0  0  0  0  0  0  0
    9.3842   -3.3508   24.3445 C   0  0  0  0  0  0  0  0  0  0  0  0
    7.5863   -1.6252   23.7724 C   0  0  0  0  0  0  0  0  0  0  0  0
    9.3929   -2.1590   22.1106 C   0  0  0  0  0  0  0  0  0  0  0  0
   10.1999   -2.4965   23.3720 C   0  0  1  0  0  0  0  0  0  0  0  0
    7.9336   -1.9609   22.3727 N   0  0  1  0  0  0  0  0  0  0  0  0
    7.0222   -2.6902   20.1004 O   0  0  0  0  0  0  0  0  0  0  0  0
    5.5329   -2.8035   22.1232 O   0  0  0  0  0  0  0  0  0  0  0  0
    6.8430   -2.9569   21.5165 S   0  0  0  0  0  0  0  0  0  0  0  0
   11.5078    0.5859   25.0412 H   0  0  0  0  0  0  0  0  0  0  0  0
    6.8628   -6.4199   22.6614 H   0  0  0  0  0  0  0  0  0  0  0  0
    5.5534   -5.1064   22.7318 H   0  0  0  0  0  0  0  0  0  0  0  0
    8.3996   -4.8634   21.5479 H   0  0  0  0  0  0  0  0  0  0  0  0
    7.2646   -3.5245   24.7488 H   0  0  0  0  0  0  0  0  0  0  0  0
    8.0892   -2.3326   25.7498 H   0  0  0  0  0  0  0  0  0  0  0  0
    9.9585   -3.5519   25.2645 H   0  0  0  0  0  0  0  0  0  0  0  0
    9.1977   -4.3356   23.8830 H   0  0  0  0  0  0  0  0  0  0  0  0
    6.4995   -1.4600   23.8586 H   0  0  0  0  0  0  0  0  0  0  0  0
    8.0868   -0.6877   24.0630 H   0  0  0  0  0  0  0  0  0  0  0  0
    9.8014   -1.2401   21.6422 H   0  0  0  0  0  0  0  0  0  0  0  0
    9.5114   -2.9689   21.3613 H   0  0  0  0  0  0  0  0  0  0  0  0
   11.0796   -3.0890   23.0590 H   0  0  0  0  0  0  0  0  0  0  0  0
  1  2  3  0  0  0  0
  2  9  1  0  0  0  0
  3  4  2  0  0  0  0
  4 13  1  0  0  0  0
  5  6  1  0  0  0  0
  5  7  1  0  0  0  0
  6  9  1  0  0  0  0
  7 10  1  0  0  0  0
  8  9  1  0  0  0  0
  8 10  1  0  0  0  0
 10 13  1  0  0  0  0
 11 13  2  0  0  0  0
 12 13  2  0  0  0  0
  1 14  1  0  0  0  0
  3 15  1  0  0  0  0
  3 16  1  0  0  0  0
  4 17  1  0  0  0  0
  5 18  1  0  0  0  0
  5 19  1  0  0  0  0
  6 20  1  0  0  0  0
  6 21  1  0  0  0  0
  7 22  1  0  0  0  0
  7 23  1  0  0  0  0
  8 24  1  0  0  0  0
  8 25  1  0  0  0  0
  9 26  1  0  0  0  0
M  END
> <creator>
Tobias Grabe

> <fragments>
x1386

> <real_space>
FALSE

> <SCR>
FALSE

> <BB>
FALSE

> <link>
https://covid.postera.ai/covid/submissions/c2aba166-fc0c-4b8c-b831-fecfdf920427

> <covalent_frag>
TRUE

> <covalent_warhead>
TRUE

> <acrylamide>
FALSE

> <acrylamide_adduct>
FALSE

> <chloroacetamide>
FALSE

> <chloroacetamide_adduct>
FALSE

> <vinylsulfonamide>
TRUE

> <vinylsulfonamide_adduct>
FALSE

> <in_molport_or_mcule>
FALSE

> <in_emolecules>
FALSE

> <Hybrid2>
-4.665012

> <Mpro-x1386_dock>
-4.665012

> <site>
active-covalent

> <covalent_distance_min>
5.269983

> <covalent_distance_mean>
6.5659914

> <covalent_distance_stderr>
0.08796476

$$$$
MAK-UNK-af8-14
  -OEChem-04062011563D

 59 60  0     1  0  0  0  0  0999 V2000
   11.8044    1.1241   22.5997 C   0  0  0  0  0  0  0  0  0  0  0  0
   11.9071    2.4857   22.3150 C   0  0  0  0  0  0  0  0  0  0  0  0
   11.8308    1.6167   24.9648 C   0  0  0  0  0  0  0  0  0  0  0  0
   11.7663    0.6896   23.9247 C   0  0  0  0  0  0  0  0  0  0  0  0
   11.9716    3.4128   23.3551 C   0  0  0  0  0  0  0  0  0  0  0  0
   11.9335    2.9783   24.6801 C   0  0  0  0  0  0  0  0  0  0  0  0
    7.0632   -3.7351   25.1437 C   0  0  0  0  0  0  0  0  0  0  0  0
   13.3683    5.1963   22.2667 C   0  0  0  0  0  0  0  0  0  0  0  0
    7.9313   -1.4508   24.7571 C   0  0  0  0  0  0  0  0  0  0  0  0
    8.8911   -3.2932   23.4315 C   0  0  0  0  0  0  0  0  0  0  0  0
    9.3247   -0.9495   25.1073 C   0  0  0  0  0  0  0  0  0  0  0  0
   10.2999   -2.8182   23.7605 C   0  0  0  0  0  0  0  0  0  0  0  0
   12.0016    3.9526   25.8101 C   0  0  0  0  0  0  0  0  0  0  0  0
   14.6683    6.9207   21.2973 C   0  0  0  0  0  0  0  0  0  0  0  0
   11.6563   -0.7751   24.2307 C   0  0  0  0  0  0  0  0  0  0  0  0
    7.1440   -5.2004   24.7976 C   0  0  0  0  0  0  0  0  0  0  0  0
   12.0824    4.8653   23.0257 C   0  0  1  0  0  0  0  0  0  0  0  0
    7.9444   -2.8863   24.4754 N   0  0  0  0  0  0  0  0  0  0  0  0
    7.5486    2.8075   25.2562 N   0  0  0  0  0  0  0  0  0  0  0  0
   10.9106    5.3482   22.3245 N   0  0  0  0  0  0  0  0  0  0  0  0
    8.8181    4.5006   23.7020 N   0  0  0  0  0  0  0  0  0  0  0  0
   10.2776   -1.3242   23.9942 N   0  3  0  0  0  0  0  0  0  0  0  0
    6.2430   -3.3585   25.9848 O   0  0  0  0  0  0  0  0  0  0  0  0
   14.2087    4.3463   21.9906 O   0  0  0  0  0  0  0  0  0  0  0  0
    8.1686    5.1381   26.1369 O   0  0  0  0  0  0  0  0  0  0  0  0
    6.3622    4.9224   24.3869 O   0  0  0  0  0  0  0  0  0  0  0  0
   10.1245    6.6314   24.4232 O   0  0  0  0  0  0  0  0  0  0  0  0
    8.6933    6.6968   22.3511 O   0  0  0  0  0  0  0  0  0  0  0  0
   13.4724    6.5243   21.9768 O   0  0  0  0  0  0  0  0  0  0  0  0
    7.6262    4.4959   24.9553 S   0  0  0  0  0  0  0  0  0  0  0  0
    9.5873    5.9820   23.2424 S   0  0  0  0  0  0  0  0  0  0  0  0
    5.9586   -6.0223   25.8061 Cl  0  0  0  0  0  0  0  0  0  0  0  0
   11.7551    0.4088   21.7829 H   0  0  0  0  0  0  0  0  0  0  0  0
   11.9368    2.8141   21.2793 H   0  0  0  0  0  0  0  0  0  0  0  0
   11.8003    1.2771   25.9975 H   0  0  0  0  0  0  0  0  0  0  0  0
    7.2438   -1.2223   25.5775 H   0  0  0  0  0  0  0  0  0  0  0  0
    7.5495   -0.9432   23.8628 H   0  0  0  0  0  0  0  0  0  0  0  0
    8.5455   -2.8515   22.4890 H   0  0  0  0  0  0  0  0  0  0  0  0
    8.9025   -4.3755   23.2915 H   0  0  0  0  0  0  0  0  0  0  0  0
    9.3333    0.1421   25.1905 H   0  0  0  0  0  0  0  0  0  0  0  0
    9.7001   -1.3938   26.0360 H   0  0  0  0  0  0  0  0  0  0  0  0
   10.6928   -3.2948   24.6656 H   0  0  0  0  0  0  0  0  0  0  0  0
   10.9766   -3.0068   22.9207 H   0  0  0  0  0  0  0  0  0  0  0  0
   13.0443    4.1238   26.1016 H   0  0  0  0  0  0  0  0  0  0  0  0
   11.5538    4.9144   25.5316 H   0  0  0  0  0  0  0  0  0  0  0  0
   11.4499    3.5847   26.6842 H   0  0  0  0  0  0  0  0  0  0  0  0
   14.6455    7.9982   21.1167 H   0  0  0  0  0  0  0  0  0  0  0  0
   14.7448    6.3831   20.3489 H   0  0  0  0  0  0  0  0  0  0  0  0
   15.5301    6.6766   21.9229 H   0  0  0  0  0  0  0  0  0  0  0  0
   12.3398   -1.3621   23.6078 H   0  0  0  0  0  0  0  0  0  0  0  0
   11.9010   -0.9797   25.2786 H   0  0  0  0  0  0  0  0  0  0  0  0
    8.1405   -5.5611   25.0255 H   0  0  0  0  0  0  0  0  0  0  0  0
    6.8947   -5.3284   23.7505 H   0  0  0  0  0  0  0  0  0  0  0  0
   12.1241    5.4795   23.9410 H   0  0  0  0  0  0  0  0  0  0  0  0
    6.6531    2.3567   25.0243 H   0  0  0  0  0  0  0  0  0  0  0  0
    7.8727    2.5071   26.1855 H   0  0  0  0  0  0  0  0  0  0  0  0
   10.6275    4.7781   21.5025 H   0  0  0  0  0  0  0  0  0  0  0  0
    8.5196    3.9528   22.8834 H   0  0  0  0  0  0  0  0  0  0  0  0
    9.9311   -0.8836   23.1308 H   0  0  0  0  0  0  0  0  0  0  0  0
  1  2  2  0  0  0  0
  1  4  1  0  0  0  0
  2  5  1  0  0  0  0
  3  4  2  0  0  0  0
  3  6  1  0  0  0  0
  4 15  1  0  0  0  0
  5  6  2  0  0  0  0
  5 17  1  0  0  0  0
  6 13  1  0  0  0  0
  7 16  1  0  0  0  0
  7 18  1  0  0  0  0
  7 23  2  0  0  0  0
  8 17  1  0  0  0  0
  8 24  2  0  0  0  0
  8 29  1  0  0  0  0
  9 11  1  0  0  0  0
  9 18  1  0  0  0  0
 10 12  1  0  0  0  0
 10 18  1  0  0  0  0
 11 22  1  0  0  0  0
 12 22  1  0  0  0  0
 14 29  1  0  0  0  0
 15 22  1  0  0  0  0
 16 32  1  0  0  0  0
 17 20  1  0  0  0  0
 19 30  1  0  0  0  0
 20 31  1  0  0  0  0
 21 30  1  0  0  0  0
 21 31  1  0  0  0  0
 25 30  2  0  0  0  0
 26 30  2  0  0  0  0
 27 31  2  0  0  0  0
 28 31  2  0  0  0  0
  1 33  1  0  0  0  0
  2 34  1  0  0  0  0
  3 35  1  0  0  0  0
  9 36  1  0  0  0  0
  9 37  1  0  0  0  0
 10 38  1  0  0  0  0
 10 39  1  0  0  0  0
 11 40  1  0  0  0  0
 11 41  1  0  0  0  0
 12 42  1  0  0  0  0
 12 43  1  0  0  0  0
 13 44  1  0  0  0  0
 13 45  1  0  0  0  0
 13 46  1  0  0  0  0
 14 47  1  0  0  0  0
 14 48  1  0  0  0  0
 14 49  1  0  0  0  0
 15 50  1  0  0  0  0
 15 51  1  0  0  0  0
 16 52  1  0  0  0  0
 16 53  1  0  0  0  0
 17 54  1  0  0  0  0
 19 55  1  0  0  0  0
 19 56  1  0  0  0  0
 20 57  1  0  0  0  0
 21 58  1  0  0  0  0
 22 59  1  0  0  0  0
M  CHG  1  22   1
M  END
> <creator>
Maksym Voznyy

> <fragments>
x0104

> <real_space>
FALSE

> <SCR>
FALSE

> <BB>
FALSE

> <link>
https://covid.postera.ai/covid/submissions/af83ef51-35cf-489e-b3bd-9012d86d8275

> <covalent_frag>
TRUE

> <covalent_warhead>
TRUE

> <acrylamide>
FALSE

> <acrylamide_adduct>
FALSE

> <chloroacetamide>
TRUE

> <chloroacetamide_adduct>
FALSE

> <vinylsulfonamide>
FALSE

> <vinylsulfonamide_adduct>
FALSE

> <in_molport_or_mcule>
FALSE

> <in_emolecules>
FALSE

> <Hybrid2>
-4.634429

> <Mpro-x0104_dock>
-4.634429

> <Mpro-x0161_dock>
-3.5667

> <Mpro-x0387_dock>
-3.322235

> <Mpro-x0072_dock>
-3.130147

> <Mpro-x0305_dock>
-1.113249

> <Mpro-x0692_dock>
-0.598957

> <Mpro-x0195_dock>
3.333844

> <site>
active-noncovalent

> <covalent_distance_min>
8.259933

> <covalent_distance_mean>
9.110429

> <covalent_distance_stderr>
0.02935765

$$$$
TAM-UNI-d1c-10
  -OEChem-04062011563D

 45 47  0     1  0  0  0  0  0999 V2000
   11.4533   -2.1692   23.1609 C   0  0  0  0  0  0  0  0  0  0  0  0
    7.7635   -3.5014   26.0889 C   0  0  0  0  0  0  0  0  0  0  0  0
    8.4654   -2.3598   26.4590 C   0  0  0  0  0  0  0  0  0  0  0  0
   12.7319   -0.1302   23.5272 C   0  0  0  0  0  0  0  0  0  0  0  0
    7.4347   -3.7095   24.7512 C   0  0  0  0  0  0  0  0  0  0  0  0
    8.8542   -1.4342   25.4899 C   0  0  0  0  0  0  0  0  0  0  0  0
   12.8006    1.2532   23.6918 C   0  0  0  0  0  0  0  0  0  0  0  0
   10.4008    1.4006   23.4553 C   0  0  0  0  0  0  0  0  0  0  0  0
   11.4976   -0.7482   23.3265 C   0  0  0  0  0  0  0  0  0  0  0  0
    7.8108   -2.7809   23.7671 C   0  0  0  0  0  0  0  0  0  0  0  0
    8.5625   -1.6449   24.1304 C   0  0  0  0  0  0  0  0  0  0  0  0
   10.3320    0.0172   23.2906 C   0  0  0  0  0  0  0  0  0  0  0  0
   11.6351    2.0186   23.6559 C   0  0  0  0  0  0  0  0  0  0  0  0
    6.8235   -1.5451   20.3719 C   0  0  0  0  0  0  0  0  0  0  0  0
    7.3965   -3.0428   22.3386 C   0  0  0  0  0  0  0  0  0  0  0  0
    8.9091   -1.2186   21.6564 C   0  0  0  0  0  0  0  0  0  0  0  0
    8.9676   -0.6225   23.0740 C   0  0  1  0  0  0  0  0  0  0  0  0
   12.5490    3.3022   26.4513 C   0  0  0  0  0  0  0  0  0  0  0  0
    7.2612   -0.3458   19.5685 C   0  0  0  0  0  0  0  0  0  0  0  0
   11.4174   -3.3214   23.0265 N   0  0  0  0  0  0  0  0  0  0  0  0
    7.6418   -1.9100   21.4414 N   0  0  0  0  0  0  0  0  0  0  0  0
   11.5648    3.9268   25.5558 N   0  0  0  0  0  0  0  0  0  0  0  0
    5.7898   -2.1393   20.0555 O   0  0  0  0  0  0  0  0  0  0  0  0
   13.0486    4.2042   23.4682 O   0  0  0  0  0  0  0  0  0  0  0  0
   10.5490    4.3332   23.2243 O   0  0  0  0  0  0  0  0  0  0  0  0
   11.7213    3.7502   23.8631 S   0  0  0  0  0  0  0  0  0  0  0  0
    6.0776   -0.1432   18.2821 Cl  0  0  0  0  0  0  0  0  0  0  0  0
    7.4726   -4.2291   26.8399 H   0  0  0  0  0  0  0  0  0  0  0  0
    8.7110   -2.1860   27.5031 H   0  0  0  0  0  0  0  0  0  0  0  0
   13.6503   -0.7116   23.5586 H   0  0  0  0  0  0  0  0  0  0  0  0
    6.8829   -4.6048   24.4728 H   0  0  0  0  0  0  0  0  0  0  0  0
    9.3890   -0.5376   25.8011 H   0  0  0  0  0  0  0  0  0  0  0  0
   13.7673    1.7249   23.8464 H   0  0  0  0  0  0  0  0  0  0  0  0
    9.4913    1.9961   23.4274 H   0  0  0  0  0  0  0  0  0  0  0  0
    7.9279   -3.9237   21.9779 H   0  0  0  0  0  0  0  0  0  0  0  0
    6.3219   -3.2419   22.3078 H   0  0  0  0  0  0  0  0  0  0  0  0
    8.9597   -0.4190   20.9112 H   0  0  0  0  0  0  0  0  0  0  0  0
    9.7565   -1.8839   21.4808 H   0  0  0  0  0  0  0  0  0  0  0  0
    8.2264    0.2139   23.0910 H   0  0  0  0  0  0  0  0  0  0  0  0
   13.5060    3.1863   25.9214 H   0  0  0  0  0  0  0  0  0  0  0  0
   12.6949    3.9386   27.3365 H   0  0  0  0  0  0  0  0  0  0  0  0
   12.1826    2.3140   26.7664 H   0  0  0  0  0  0  0  0  0  0  0  0
    8.2396   -0.5445   19.1469 H   0  0  0  0  0  0  0  0  0  0  0  0
    7.2644    0.5254   20.2130 H   0  0  0  0  0  0  0  0  0  0  0  0
   10.6299    4.0825   25.9522 H   0  0  0  0  0  0  0  0  0  0  0  0
  1  9  1  0  0  0  0
  1 20  3  0  0  0  0
  2  3  1  0  0  0  0
  2  5  2  0  0  0  0
  3  6  2  0  0  0  0
  4  7  2  0  0  0  0
  4  9  1  0  0  0  0
  5 10  1  0  0  0  0
  6 11  1  0  0  0  0
  7 13  1  0  0  0  0
  8 12  1  0  0  0  0
  8 13  2  0  0  0  0
  9 12  2  0  0  0  0
 10 11  2  0  0  0  0
 10 15  1  0  0  0  0
 11 17  1  0  0  0  0
 12 17  1  0  0  0  0
 13 26  1  0  0  0  0
 14 19  1  0  0  0  0
 14 21  1  0  0  0  0
 14 23  2  0  0  0  0
 15 21  1  0  0  0  0
 16 17  1  0  0  0  0
 16 21  1  0  0  0  0
 18 22  1  0  0  0  0
 19 27  1  0  0  0  0
 22 26  1  0  0  0  0
 24 26  2  0  0  0  0
 25 26  2  0  0  0  0
  2 28  1  0  0  0  0
  3 29  1  0  0  0  0
  4 30  1  0  0  0  0
  5 31  1  0  0  0  0
  6 32  1  0  0  0  0
  7 33  1  0  0  0  0
  8 34  1  0  0  0  0
 15 35  1  0  0  0  0
 15 36  1  0  0  0  0
 16 37  1  0  0  0  0
 16 38  1  0  0  0  0
 17 39  1  0  0  0  0
 18 40  1  0  0  0  0
 18 41  1  0  0  0  0
 18 42  1  0  0  0  0
 19 43  1  0  0  0  0
 19 44  1  0  0  0  0
 22 45  1  0  0  0  0
M  END
> <creator>
Tamas Szommer, University of Oxford, TDI

> <fragments>
x0692

> <real_space>
FALSE

> <SCR>
FALSE

> <BB>
FALSE

> <link>
https://covid.postera.ai/covid/submissions/d1c3dd9f-771c-474e-9133-8c7e4ace8b98

> <covalent_frag>
TRUE

> <covalent_warhead>
TRUE

> <acrylamide>
FALSE

> <acrylamide_adduct>
FALSE

> <chloroacetamide>
TRUE

> <chloroacetamide_adduct>
FALSE

> <vinylsulfonamide>
FALSE

> <vinylsulfonamide_adduct>
FALSE

> <in_molport_or_mcule>
FALSE

> <in_emolecules>
FALSE

> <Hybrid2>
-4.629535

> <Mpro-x0692_dock>
-4.629535

> <Mpro-x1392_dock>
-4.204093

> <Mpro-x1386_dock>
-3.066897

> <Mpro-x1382_dock>
-1.637228

> <site>
active-covalent

> <covalent_distance_min>
3.00688

> <covalent_distance_mean>
3.3568199

> <covalent_distance_stderr>
0.012823462

$$$$
MAK-UNK-e4a-26
  -OEChem-04062011563D

 56 58  0     0  0  0  0  0  0999 V2000
    7.7721   -4.5654   29.1182 C   0  0  0  0  0  0  0  0  0  0  0  0
    6.6199   -4.9888   28.4559 C   0  0  0  0  0  0  0  0  0  0  0  0
    8.9755   -4.4532   28.4217 C   0  0  0  0  0  0  0  0  0  0  0  0
    7.8743   -5.1880   26.4007 C   0  0  0  0  0  0  0  0  0  0  0  0
    6.6710   -5.3002   27.0972 C   0  0  0  0  0  0  0  0  0  0  0  0
    9.0266   -4.7646   27.0630 C   0  0  0  0  0  0  0  0  0  0  0  0
    7.9282   -5.5154   24.9708 C   0  0  0  0  0  0  0  0  0  0  0  0
   12.0437   -0.6475   22.8946 C   0  0  0  0  0  0  0  0  0  0  0  0
    6.9988   -4.5710   21.6496 C   0  0  0  0  0  0  0  0  0  0  0  0
    7.0216   -2.5230   23.1280 C   0  0  0  0  0  0  0  0  0  0  0  0
    6.6281   -5.4136   22.8707 C   0  0  0  0  0  0  0  0  0  0  0  0
    6.6470   -3.4118   24.3146 C   0  0  0  0  0  0  0  0  0  0  0  0
   11.1928   -2.9678   23.0100 C   0  0  0  0  0  0  0  0  0  0  0  0
   10.1762   -1.2870   24.4981 C   0  0  0  0  0  0  0  0  0  0  0  0
   11.3631   -3.9287   24.1776 C   0  0  0  0  0  0  0  0  0  0  0  0
   10.3295   -2.2240   25.6886 C   0  0  0  0  0  0  0  0  0  0  0  0
    6.5393   -3.1177   21.8019 C   0  0  0  0  0  0  0  0  0  0  0  0
    5.4200   -5.7508   26.4154 C   0  0  0  0  0  0  0  0  0  0  0  0
   10.3354   -4.6342   26.3412 C   0  0  0  0  0  0  0  0  0  0  0  0
   11.9696    0.7609   23.4278 C   0  0  0  0  0  0  0  0  0  0  0  0
    7.1181   -4.7860   24.0978 N   0  0  0  0  0  0  0  0  0  0  0  0
   11.1803   -1.5790   23.4695 N   0  0  0  0  0  0  0  0  0  0  0  0
   10.2847   -3.6553   25.2021 N   0  3  0  0  0  0  0  0  0  0  0  0
    8.7026   -6.4153   24.6488 O   0  0  0  0  0  0  0  0  0  0  0  0
   12.8472   -0.9105   21.9960 O   0  0  0  0  0  0  0  0  0  0  0  0
    5.1156   -3.0547   21.7621 O   0  0  0  0  0  0  0  0  0  0  0  0
   10.7991    1.6164   22.4299 Cl  0  0  0  0  0  0  0  0  0  0  0  0
    7.7323   -4.3236   30.1763 H   0  0  0  0  0  0  0  0  0  0  0  0
    5.6874   -5.0731   29.0078 H   0  0  0  0  0  0  0  0  0  0  0  0
    9.8677   -4.1226   28.9471 H   0  0  0  0  0  0  0  0  0  0  0  0
    8.0846   -4.5992   21.4899 H   0  0  0  0  0  0  0  0  0  0  0  0
    6.5566   -5.0093   20.7438 H   0  0  0  0  0  0  0  0  0  0  0  0
    6.5985   -1.5172   23.2639 H   0  0  0  0  0  0  0  0  0  0  0  0
    8.1104   -2.3826   23.0953 H   0  0  0  0  0  0  0  0  0  0  0  0
    5.5428   -5.5500   22.9110 H   0  0  0  0  0  0  0  0  0  0  0  0
    7.0837   -6.4083   22.8036 H   0  0  0  0  0  0  0  0  0  0  0  0
    7.1221   -3.0438   25.2316 H   0  0  0  0  0  0  0  0  0  0  0  0
    5.5663   -3.3742   24.4703 H   0  0  0  0  0  0  0  0  0  0  0  0
   11.9956   -3.1293   22.2837 H   0  0  0  0  0  0  0  0  0  0  0  0
   10.2440   -3.1515   22.4912 H   0  0  0  0  0  0  0  0  0  0  0  0
    9.1901   -1.4111   24.0343 H   0  0  0  0  0  0  0  0  0  0  0  0
   10.2377   -0.2544   24.8459 H   0  0  0  0  0  0  0  0  0  0  0  0
   11.2430   -4.9651   23.8460 H   0  0  0  0  0  0  0  0  0  0  0  0
   12.3344   -3.8086   24.6706 H   0  0  0  0  0  0  0  0  0  0  0  0
   11.2826   -2.0746   26.2083 H   0  0  0  0  0  0  0  0  0  0  0  0
    9.5011   -2.0927   26.3922 H   0  0  0  0  0  0  0  0  0  0  0  0
    6.9240   -2.5186   20.9669 H   0  0  0  0  0  0  0  0  0  0  0  0
    4.8776   -4.8891   26.0103 H   0  0  0  0  0  0  0  0  0  0  0  0
    5.6442   -6.4415   25.5935 H   0  0  0  0  0  0  0  0  0  0  0  0
    4.7608   -6.2844   27.1108 H   0  0  0  0  0  0  0  0  0  0  0  0
   11.1272   -4.2911   27.0158 H   0  0  0  0  0  0  0  0  0  0  0  0
   10.6507   -5.5938   25.9175 H   0  0  0  0  0  0  0  0  0  0  0  0
   12.9457    1.2234   23.3358 H   0  0  0  0  0  0  0  0  0  0  0  0
   11.6297    0.7297   24.4566 H   0  0  0  0  0  0  0  0  0  0  0  0
    9.3765   -3.7933   24.7377 H   0  0  0  0  0  0  0  0  0  0  0  0
    4.8446   -3.4115   20.9012 H   0  0  0  0  0  0  0  0  0  0  0  0
  1  2  2  0  0  0  0
  1  3  1  0  0  0  0
  2  5  1  0  0  0  0
  3  6  2  0  0  0  0
  4  5  2  0  0  0  0
  4  6  1  0  0  0  0
  4  7  1  0  0  0  0
  5 18  1  0  0  0  0
  6 19  1  0  0  0  0
  7 21  1  0  0  0  0
  7 24  2  0  0  0  0
  8 20  1  0  0  0  0
  8 22  1  0  0  0  0
  8 25  2  0  0  0  0
  9 11  1  0  0  0  0
  9 17  1  0  0  0  0
 10 12  1  0  0  0  0
 10 17  1  0  0  0  0
 11 21  1  0  0  0  0
 12 21  1  0  0  0  0
 13 15  1  0  0  0  0
 13 22  1  0  0  0  0
 14 16  1  0  0  0  0
 14 22  1  0  0  0  0
 15 23  1  0  0  0  0
 16 23  1  0  0  0  0
 17 26  1  0  0  0  0
 19 23  1  0  0  0  0
 20 27  1  0  0  0  0
  1 28  1  0  0  0  0
  2 29  1  0  0  0  0
  3 30  1  0  0  0  0
  9 31  1  0  0  0  0
  9 32  1  0  0  0  0
 10 33  1  0  0  0  0
 10 34  1  0  0  0  0
 11 35  1  0  0  0  0
 11 36  1  0  0  0  0
 12 37  1  0  0  0  0
 12 38  1  0  0  0  0
 13 39  1  0  0  0  0
 13 40  1  0  0  0  0
 14 41  1  0  0  0  0
 14 42  1  0  0  0  0
 15 43  1  0  0  0  0
 15 44  1  0  0  0  0
 16 45  1  0  0  0  0
 16 46  1  0  0  0  0
 17 47  1  0  0  0  0
 18 48  1  0  0  0  0
 18 49  1  0  0  0  0
 18 50  1  0  0  0  0
 19 51  1  0  0  0  0
 19 52  1  0  0  0  0
 20 53  1  0  0  0  0
 20 54  1  0  0  0  0
 23 55  1  0  0  0  0
 26 56  1  0  0  0  0
M  CHG  1  23   1
M  END
> <creator>
Maksym Voznyy

> <fragments>
x0387

> <real_space>
FALSE

> <SCR>
FALSE

> <BB>
FALSE

> <link>
https://covid.postera.ai/covid/submissions/e4a48a85-91ce-4c28-86d4-edf9997dafca

> <covalent_frag>
TRUE

> <covalent_warhead>
TRUE

> <acrylamide>
FALSE

> <acrylamide_adduct>
FALSE

> <chloroacetamide>
TRUE

> <chloroacetamide_adduct>
FALSE

> <vinylsulfonamide>
FALSE

> <vinylsulfonamide_adduct>
FALSE

> <in_molport_or_mcule>
FALSE

> <in_emolecules>
FALSE

> <Hybrid2>
-4.612614

> <Mpro-x0387_dock>
-4.612614

> <Mpro-x0692_dock>
-2.024855

> <site>
active-noncovalent

> <covalent_distance_min>
6.0135765

> <covalent_distance_mean>
7.2339354

> <covalent_distance_stderr>
0.06851953

$$$$
STE-NAN-baf-3
  -OEChem-04062011563D

 81 85  0     1  0  0  0  0  0999 V2000
   13.0473    1.6892   25.0677 C   0  0  0  0  0  0  0  0  0  0  0  0
   12.7427    3.0435   25.0819 C   0  0  0  0  0  0  0  0  0  0  0  0
   10.8213    2.5920   23.6893 C   0  0  0  0  0  0  0  0  0  0  0  0
   12.2455    0.7770   24.3548 C   0  0  0  0  0  0  0  0  0  0  0  0
   11.0928    1.2072   23.6512 C   0  0  0  0  0  0  0  0  0  0  0  0
   11.6296    3.4947   24.3908 C   0  0  0  0  0  0  0  0  0  0  0  0
    8.4617   -5.1993   23.9982 C   0  0  0  0  0  0  0  0  0  0  0  0
    7.5996   -4.1855   24.1180 C   0  0  0  0  0  0  0  0  0  0  0  0
    7.1659   -4.0214   25.4745 C   0  0  0  0  0  0  0  0  0  0  0  0
    7.7643   -4.9520   26.2371 C   0  0  0  0  0  0  0  0  0  0  0  0
    6.2963   -2.4834   27.1345 C   0  0  0  0  0  0  0  0  0  0  0  0
   12.6274   -0.6778   24.4223 C   0  0  0  0  0  0  0  0  0  0  0  0
    8.6601   -5.8052   25.3624 C   0  0  0  0  0  0  0  0  0  0  0  0
   11.9943   -1.4614   23.2899 C   0  0  0  0  0  0  0  0  0  0  0  0
    8.3764   -0.2030   21.4028 C   0  0  0  0  0  0  0  0  0  0  0  0
    9.8790   -2.0328   22.1155 C   0  0  0  0  0  0  0  0  0  0  0  0
    8.9707    0.7315   22.4537 C   0  0  0  0  0  0  0  0  0  0  0  0
    6.1465   -5.6165   29.6358 C   0  0  0  0  0  0  0  0  0  0  0  0
    5.6033   -6.5833   27.3738 C   0  0  0  0  0  0  0  0  0  0  0  0
    4.6982   -5.5882   30.0942 C   0  0  0  0  0  0  0  0  0  0  0  0
    4.1076   -6.6400   27.6346 C   0  0  0  0  0  0  0  0  0  0  0  0
    8.4300   -1.6748   21.7961 C   0  0  1  0  0  0  0  0  0  0  0  0
   10.4990   -1.1449   23.2035 C   0  0  2  0  0  0  0  0  0  0  0  0
    4.5145   -3.2607   22.9517 C   0  0  0  0  0  0  0  0  0  0  0  0
    5.2284   -1.4321   27.3062 C   0  0  0  0  0  0  0  0  0  0  0  0
    7.4765   -2.0059   22.9447 C   0  0  0  0  0  0  0  0  0  0  0  0
    7.6538   -5.2082   27.6963 C   0  0  1  0  0  0  0  0  0  0  0  0
   10.2893    0.2934   22.9362 N   0  0  2  0  0  0  0  0  0  0  0  0
   12.4935    5.8192   25.3681 N   0  0  0  0  0  0  0  0  0  0  0  0
    6.2916   -3.0642   25.8699 N   0  0  0  0  0  0  0  0  0  0  0  0
    7.2121   -3.4044   22.9611 N   0  0  2  0  0  0  0  0  0  0  0  0
    6.2323   -5.4401   28.1370 N   0  3  0  0  0  0  0  0  0  0  0  0
    7.0807   -2.7588   28.0413 O   0  0  0  0  0  0  0  0  0  0  0  0
   11.3842    5.7080   23.0437 O   0  0  0  0  0  0  0  0  0  0  0  0
    9.9703    5.3723   25.1019 O   0  0  0  0  0  0  0  0  0  0  0  0
    5.8195   -3.6482   20.7226 O   0  0  0  0  0  0  0  0  0  0  0  0
    5.7722   -5.4881   22.4330 O   0  0  0  0  0  0  0  0  0  0  0  0
    8.5518   -6.2569   28.0575 O   0  0  0  0  0  0  0  0  0  0  0  0
    3.7416   -6.9553   29.3831 S   0  0  0  0  0  0  0  0  0  0  0  0
   11.2326    5.1961   24.3982 S   0  0  0  0  0  0  0  0  0  0  0  0
    5.8544   -4.0759   22.1089 S   0  0  0  0  0  0  0  0  0  0  0  0
    5.5379   -0.1438   26.1316 Cl  0  0  0  0  0  0  0  0  0  0  0  0
   13.9176    1.3380   25.6175 H   0  0  0  0  0  0  0  0  0  0  0  0
   13.3756    3.7321   25.6340 H   0  0  0  0  0  0  0  0  0  0  0  0
    9.9609    3.0109   23.1754 H   0  0  0  0  0  0  0  0  0  0  0  0
    8.9424   -5.5403   23.0936 H   0  0  0  0  0  0  0  0  0  0  0  0
   13.7165   -0.7903   24.3680 H   0  0  0  0  0  0  0  0  0  0  0  0
   12.2955   -1.0803   25.3874 H   0  0  0  0  0  0  0  0  0  0  0  0
    8.3431   -6.8526   25.3729 H   0  0  0  0  0  0  0  0  0  0  0  0
    9.7066   -5.7292   25.6736 H   0  0  0  0  0  0  0  0  0  0  0  0
   12.4879   -1.2138   22.3401 H   0  0  0  0  0  0  0  0  0  0  0  0
   12.1535   -2.5332   23.4591 H   0  0  0  0  0  0  0  0  0  0  0  0
    7.3407    0.0942   21.1975 H   0  0  0  0  0  0  0  0  0  0  0  0
    8.9255   -0.0665   20.4613 H   0  0  0  0  0  0  0  0  0  0  0  0
    9.9390   -3.0851   22.4215 H   0  0  0  0  0  0  0  0  0  0  0  0
   10.4711   -1.9502   21.1935 H   0  0  0  0  0  0  0  0  0  0  0  0
    9.0285    1.7089   21.9641 H   0  0  0  0  0  0  0  0  0  0  0  0
    8.2859    0.8254   23.3051 H   0  0  0  0  0  0  0  0  0  0  0  0
    6.6875   -4.7779   30.0846 H   0  0  0  0  0  0  0  0  0  0  0  0
    6.6545   -6.5507   29.8959 H   0  0  0  0  0  0  0  0  0  0  0  0
    6.1184   -7.5057   27.6601 H   0  0  0  0  0  0  0  0  0  0  0  0
    5.7808   -6.3909   26.3112 H   0  0  0  0  0  0  0  0  0  0  0  0
    4.6578   -5.6799   31.1844 H   0  0  0  0  0  0  0  0  0  0  0  0
    4.2198   -4.6385   29.8320 H   0  0  0  0  0  0  0  0  0  0  0  0
    3.6180   -5.7098   27.3263 H   0  0  0  0  0  0  0  0  0  0  0  0
    3.6639   -7.4493   27.0459 H   0  0  0  0  0  0  0  0  0  0  0  0
    8.1135   -2.2721   20.9311 H   0  0  0  0  0  0  0  0  0  0  0  0
   10.0285   -1.3878   24.1660 H   0  0  0  0  0  0  0  0  0  0  0  0
    3.5749   -3.5958   22.5096 H   0  0  0  0  0  0  0  0  0  0  0  0
    4.5575   -3.5301   24.0081 H   0  0  0  0  0  0  0  0  0  0  0  0
    4.6335   -2.1835   22.8263 H   0  0  0  0  0  0  0  0  0  0  0  0
    5.2863   -1.0175   28.3164 H   0  0  0  0  0  0  0  0  0  0  0  0
    4.2218   -1.8234   27.1389 H   0  0  0  0  0  0  0  0  0  0  0  0
    7.9646   -1.6954   23.8663 H   0  0  0  0  0  0  0  0  0  0  0  0
    6.5611   -1.4429   22.7739 H   0  0  0  0  0  0  0  0  0  0  0  0
    7.9766   -4.3126   28.2404 H   0  0  0  0  0  0  0  0  0  0  0  0
   13.2250    6.3751   24.9085 H   0  0  0  0  0  0  0  0  0  0  0  0
   12.2584    6.1435   26.3140 H   0  0  0  0  0  0  0  0  0  0  0  0
    5.5961   -2.7615   25.1875 H   0  0  0  0  0  0  0  0  0  0  0  0
    5.7085   -4.5860   27.8976 H   0  0  0  0  0  0  0  0  0  0  0  0
    9.4511   -5.9649   27.8292 H   0  0  0  0  0  0  0  0  0  0  0  0
  1  2  2  0  0  0  0
  1  4  1  0  0  0  0
  2  6  1  0  0  0  0
  3  5  1  0  0  0  0
  3  6  2  0  0  0  0
  4  5  2  0  0  0  0
  4 12  1  0  0  0  0
  5 28  1  0  0  0  0
  6 40  1  0  0  0  0
  7  8  2  0  0  0  0
  7 13  1  0  0  0  0
  8  9  1  0  0  0  0
  8 31  1  0  0  0  0
  9 10  2  0  0  0  0
  9 30  1  0  0  0  0
 10 13  1  0  0  0  0
 10 27  1  0  0  0  0
 11 25  1  0  0  0  0
 11 30  1  0  0  0  0
 11 33  2  0  0  0  0
 12 14  1  0  0  0  0
 14 23  1  0  0  0  0
 15 17  1  0  0  0  0
 15 22  1  0  0  0  0
 16 22  1  0  0  0  0
 16 23  1  0  0  0  0
 17 28  1  0  0  0  0
 18 20  1  0  0  0  0
 18 32  1  0  0  0  0
 19 21  1  0  0  0  0
 19 32  1  0  0  0  0
 20 39  1  0  0  0  0
 21 39  1  0  0  0  0
 22 26  1  0  0  0  0
 23 28  1  0  0  0  0
 24 41  1  0  0  0  0
 25 42  1  0  0  0  0
 26 31  1  0  0  0  0
 27 32  1  0  0  0  0
 27 38  1  0  0  0  0
 29 40  1  0  0  0  0
 31 41  1  0  0  0  0
 34 40  2  0  0  0  0
 35 40  2  0  0  0  0
 36 41  2  0  0  0  0
 37 41  2  0  0  0  0
  1 43  1  0  0  0  0
  2 44  1  0  0  0  0
  3 45  1  0  0  0  0
  7 46  1  0  0  0  0
 12 47  1  0  0  0  0
 12 48  1  0  0  0  0
 13 49  1  0  0  0  0
 13 50  1  0  0  0  0
 14 51  1  0  0  0  0
 14 52  1  0  0  0  0
 15 53  1  0  0  0  0
 15 54  1  0  0  0  0
 16 55  1  0  0  0  0
 16 56  1  0  0  0  0
 17 57  1  0  0  0  0
 17 58  1  0  0  0  0
 18 59  1  0  0  0  0
 18 60  1  0  0  0  0
 19 61  1  0  0  0  0
 19 62  1  0  0  0  0
 20 63  1  0  0  0  0
 20 64  1  0  0  0  0
 21 65  1  0  0  0  0
 21 66  1  0  0  0  0
 22 67  1  0  0  0  0
 23 68  1  0  0  0  0
 24 69  1  0  0  0  0
 24 70  1  0  0  0  0
 24 71  1  0  0  0  0
 25 72  1  0  0  0  0
 25 73  1  0  0  0  0
 26 74  1  0  0  0  0
 26 75  1  0  0  0  0
 27 76  1  0  0  0  0
 29 77  1  0  0  0  0
 29 78  1  0  0  0  0
 30 79  1  0  0  0  0
 32 80  1  0  0  0  0
 38 81  1  0  0  0  0
M  CHG  1  32   1
M  END
> <creator>
Steve McCloskey, Nanome

> <fragments>
x0072

> <real_space>
FALSE

> <SCR>
FALSE

> <BB>
FALSE

> <link>
https://covid.postera.ai/covid/submissions/bafe64f0-6e6c-469d-8133-4ae4b797a831

> <covalent_frag>
TRUE

> <covalent_warhead>
TRUE

> <acrylamide>
FALSE

> <acrylamide_adduct>
FALSE

> <chloroacetamide>
TRUE

> <chloroacetamide_adduct>
FALSE

> <vinylsulfonamide>
FALSE

> <vinylsulfonamide_adduct>
FALSE

> <in_molport_or_mcule>
FALSE

> <in_emolecules>
FALSE

> <Hybrid2>
-4.596193

> <Mpro-x0072_dock>
-4.596193

> <Mpro-x0786_dock>
8.387855

> <site>
active-noncovalent

> <covalent_distance_min>
8.875247

> <covalent_distance_mean>
10.022907

> <covalent_distance_stderr>
0.106157295

$$$$
TAM-UNI-d1c-12
  -OEChem-04062011563D

 55 57  0     0  0  0  0  0  0999 V2000
    8.7570   -4.0032   24.5287 C   0  0  0  0  0  0  0  0  0  0  0  0
    7.5426   -3.7595   23.8873 C   0  0  0  0  0  0  0  0  0  0  0  0
    9.8806   -3.2416   24.2075 C   0  0  0  0  0  0  0  0  0  0  0  0
    8.5753   -1.9926   22.6034 C   0  0  0  0  0  0  0  0  0  0  0  0
    7.4518   -2.7542   22.9246 C   0  0  0  0  0  0  0  0  0  0  0  0
    9.7898   -2.2363   23.2448 C   0  0  0  0  0  0  0  0  0  0  0  0
   12.2734    3.7516   24.4307 C   0  0  0  0  0  0  0  0  0  0  0  0
    5.9368   -2.1167   19.7966 C   0  0  0  0  0  0  0  0  0  0  0  0
   11.4374    2.3643   22.5605 C   0  0  0  0  0  0  0  0  0  0  0  0
   10.6191    1.8617   24.8300 C   0  0  0  0  0  0  0  0  0  0  0  0
    5.7997   -1.5965   17.3808 C   0  0  0  0  0  0  0  0  0  0  0  0
    6.8602    0.0780   18.8473 C   0  0  0  0  0  0  0  0  0  0  0  0
   11.7497    0.8937   22.3251 C   0  0  0  0  0  0  0  0  0  0  0  0
   10.9175    0.3822   24.6280 C   0  0  0  0  0  0  0  0  0  0  0  0
    5.1218   -0.4502   16.6469 C   0  0  0  0  0  0  0  0  0  0  0  0
    6.1504    1.1504   18.0277 C   0  0  0  0  0  0  0  0  0  0  0  0
    6.1525   -2.4933   22.2403 C   0  0  0  0  0  0  0  0  0  0  0  0
   10.9985   -1.4175   22.8989 C   0  0  0  0  0  0  0  0  0  0  0  0
   12.2702    4.0189   25.9147 C   0  0  0  0  0  0  0  0  0  0  0  0
   11.4861    2.6905   23.9858 N   0  0  0  0  0  0  0  0  0  0  0  0
    6.1554   -1.2080   18.7475 N   0  0  0  0  0  0  0  0  0  0  0  0
    6.3080   -1.6725   21.0603 N   0  0  0  0  0  0  0  0  0  0  0  0
   10.8085    0.0508   23.1564 N   0  3  0  0  0  0  0  0  0  0  0  0
   12.9576    4.4637   23.6913 O   0  0  0  0  0  0  0  0  0  0  0  0
    5.4538   -3.2398   19.6188 O   0  0  0  0  0  0  0  0  0  0  0  0
    5.9522    0.7119   16.6832 O   0  0  0  0  0  0  0  0  0  0  0  0
   13.5518    3.0311   26.6073 Cl  0  0  0  0  0  0  0  0  0  0  0  0
    8.8276   -4.7860   25.2784 H   0  0  0  0  0  0  0  0  0  0  0  0
    6.6723   -4.3578   24.1445 H   0  0  0  0  0  0  0  0  0  0  0  0
   10.8229   -3.4389   24.7117 H   0  0  0  0  0  0  0  0  0  0  0  0
    8.5049   -1.2080   21.8536 H   0  0  0  0  0  0  0  0  0  0  0  0
   12.1428    2.9825   21.9963 H   0  0  0  0  0  0  0  0  0  0  0  0
   10.4308    2.6098   22.2007 H   0  0  0  0  0  0  0  0  0  0  0  0
    9.5825    2.0874   24.5519 H   0  0  0  0  0  0  0  0  0  0  0  0
   10.7263    2.1065   25.8881 H   0  0  0  0  0  0  0  0  0  0  0  0
    5.1605   -2.4842   17.3731 H   0  0  0  0  0  0  0  0  0  0  0  0
    6.7413   -1.8566   16.8824 H   0  0  0  0  0  0  0  0  0  0  0  0
    7.8698   -0.0928   18.4566 H   0  0  0  0  0  0  0  0  0  0  0  0
    6.9422    0.4252   19.8782 H   0  0  0  0  0  0  0  0  0  0  0  0
   11.5864    0.6269   21.2760 H   0  0  0  0  0  0  0  0  0  0  0  0
   12.7753    0.6395   22.6158 H   0  0  0  0  0  0  0  0  0  0  0  0
   11.9284    0.1186   24.9585 H   0  0  0  0  0  0  0  0  0  0  0  0
   10.1838   -0.2351   25.1564 H   0  0  0  0  0  0  0  0  0  0  0  0
    4.9717   -0.7178   15.5961 H   0  0  0  0  0  0  0  0  0  0  0  0
    4.1393   -0.2196   17.0753 H   0  0  0  0  0  0  0  0  0  0  0  0
    5.1854    1.4204   18.4731 H   0  0  0  0  0  0  0  0  0  0  0  0
    6.7633    2.0568   17.9940 H   0  0  0  0  0  0  0  0  0  0  0  0
    5.6736   -3.4320   21.9285 H   0  0  0  0  0  0  0  0  0  0  0  0
    5.4431   -1.9808   22.9045 H   0  0  0  0  0  0  0  0  0  0  0  0
   11.8692   -1.7296   23.4856 H   0  0  0  0  0  0  0  0  0  0  0  0
   11.2558   -1.5204   21.8392 H   0  0  0  0  0  0  0  0  0  0  0  0
   11.3105    3.7232   26.3230 H   0  0  0  0  0  0  0  0  0  0  0  0
   12.4775    5.0694   26.0830 H   0  0  0  0  0  0  0  0  0  0  0  0
    6.7001   -0.7446   21.1611 H   0  0  0  0  0  0  0  0  0  0  0  0
    9.8490    0.2781   22.8609 H   0  0  0  0  0  0  0  0  0  0  0  0
  1  2  1  0  0  0  0
  1  3  2  0  0  0  0
  2  5  2  0  0  0  0
  3  6  1  0  0  0  0
  4  5  1  0  0  0  0
  4  6  2  0  0  0  0
  5 17  1  0  0  0  0
  6 18  1  0  0  0  0
  7 19  1  0  0  0  0
  7 20  1  0  0  0  0
  7 24  2  0  0  0  0
  8 21  1  0  0  0  0
  8 22  1  0  0  0  0
  8 25  2  0  0  0  0
  9 13  1  0  0  0  0
  9 20  1  0  0  0  0
 10 14  1  0  0  0  0
 10 20  1  0  0  0  0
 11 15  1  0  0  0  0
 11 21  1  0  0  0  0
 12 16  1  0  0  0  0
 12 21  1  0  0  0  0
 13 23  1  0  0  0  0
 14 23  1  0  0  0  0
 15 26  1  0  0  0  0
 16 26  1  0  0  0  0
 17 22  1  0  0  0  0
 18 23  1  0  0  0  0
 19 27  1  0  0  0  0
  1 28  1  0  0  0  0
  2 29  1  0  0  0  0
  3 30  1  0  0  0  0
  4 31  1  0  0  0  0
  9 32  1  0  0  0  0
  9 33  1  0  0  0  0
 10 34  1  0  0  0  0
 10 35  1  0  0  0  0
 11 36  1  0  0  0  0
 11 37  1  0  0  0  0
 12 38  1  0  0  0  0
 12 39  1  0  0  0  0
 13 40  1  0  0  0  0
 13 41  1  0  0  0  0
 14 42  1  0  0  0  0
 14 43  1  0  0  0  0
 15 44  1  0  0  0  0
 15 45  1  0  0  0  0
 16 46  1  0  0  0  0
 16 47  1  0  0  0  0
 17 48  1  0  0  0  0
 17 49  1  0  0  0  0
 18 50  1  0  0  0  0
 18 51  1  0  0  0  0
 19 52  1  0  0  0  0
 19 53  1  0  0  0  0
 22 54  1  0  0  0  0
 23 55  1  0  0  0  0
M  CHG  1  23   1
M  END
> <creator>
Tamas Szommer, University of Oxford, TDI

> <fragments>
x0692

> <real_space>
FALSE

> <SCR>
FALSE

> <BB>
FALSE

> <link>
https://covid.postera.ai/covid/submissions/d1c3dd9f-771c-474e-9133-8c7e4ace8b98

> <covalent_frag>
TRUE

> <covalent_warhead>
TRUE

> <acrylamide>
FALSE

> <acrylamide_adduct>
FALSE

> <chloroacetamide>
TRUE

> <chloroacetamide_adduct>
FALSE

> <vinylsulfonamide>
FALSE

> <vinylsulfonamide_adduct>
FALSE

> <in_molport_or_mcule>
FALSE

> <in_emolecules>
FALSE

> <Hybrid2>
-4.588231

> <Mpro-x0692_dock>
-4.588231

> <Mpro-x1392_dock>
-4.39742

> <Mpro-x1386_dock>
-2.286784

> <Mpro-x1382_dock>
1.672241

> <site>
active-covalent

> <covalent_distance_min>
6.917228

> <covalent_distance_mean>
7.456364

> <covalent_distance_stderr>
0.038197227

$$$$
SIM-SYN-f15-2
  -OEChem-04062011563D

 45 47  0     1  0  0  0  0  0999 V2000
   10.3669   -5.3279   25.4664 C   0  0  0  0  0  0  0  0  0  0  0  0
    9.2037   -5.8585   26.0242 C   0  0  0  0  0  0  0  0  0  0  0  0
   10.3021   -4.1750   24.6838 C   0  0  0  0  0  0  0  0  0  0  0  0
    9.7605    0.1622   24.0427 C   0  0  0  0  0  0  0  0  0  0  0  0
    9.7516    1.1219   25.0958 C   0  0  0  0  0  0  0  0  0  0  0  0
    7.9109   -4.0836   25.0166 C   0  0  0  0  0  0  0  0  0  0  0  0
    7.9757   -5.2364   25.7993 C   0  0  0  0  0  0  0  0  0  0  0  0
    9.0740   -3.5529   24.4589 C   0  0  0  0  0  0  0  0  0  0  0  0
    9.1882   -1.0310   24.4252 C   0  0  0  0  0  0  0  0  0  0  0  0
    9.1726    0.6256   26.2432 C   0  0  0  0  0  0  0  0  0  0  0  0
    6.0457   -2.0822   18.9261 C   0  0  0  0  0  0  0  0  0  0  0  0
    6.4069   -3.3637   21.0114 C   0  0  0  0  0  0  0  0  0  0  0  0
    6.4269   -0.9032   21.1470 C   0  0  0  0  0  0  0  0  0  0  0  0
    7.7029   -3.4386   21.8052 C   0  0  0  0  0  0  0  0  0  0  0  0
    7.7232   -0.9411   21.9450 C   0  0  0  0  0  0  0  0  0  0  0  0
    6.7327   -5.8036   26.3972 C   0  0  0  0  0  0  0  0  0  0  0  0
    6.6131   -0.9262   18.1416 C   0  0  0  0  0  0  0  0  0  0  0  0
    9.0034   -2.2972   23.6055 C   0  0  2  0  0  0  0  0  0  0  0  0
    6.3008   -2.0917   20.2966 N   0  0  0  0  0  0  0  0  0  0  0  0
    7.7903   -2.2377   22.7205 N   0  3  0  0  0  0  0  0  0  0  0  0
    5.3980   -2.9509   18.3363 O   0  0  0  0  0  0  0  0  0  0  0  0
    8.6433   -0.9912   26.0482 S   0  0  0  0  0  0  0  0  0  0  0  0
    8.9526    1.4289   27.7410 Cl  0  0  0  0  0  0  0  0  0  0  0  0
    5.3736    0.3232   18.1182 Cl  0  0  0  0  0  0  0  0  0  0  0  0
   11.3231   -5.8123   25.6417 H   0  0  0  0  0  0  0  0  0  0  0  0
    9.2641   -6.7569   26.6331 H   0  0  0  0  0  0  0  0  0  0  0  0
   11.2133   -3.7690   24.2526 H   0  0  0  0  0  0  0  0  0  0  0  0
   10.1672    0.3422   23.0557 H   0  0  0  0  0  0  0  0  0  0  0  0
   10.1513    2.1245   25.0095 H   0  0  0  0  0  0  0  0  0  0  0  0
    6.9539   -3.5976   24.8417 H   0  0  0  0  0  0  0  0  0  0  0  0
    6.3560   -4.2061   20.3144 H   0  0  0  0  0  0  0  0  0  0  0  0
    5.5388   -3.4406   21.6773 H   0  0  0  0  0  0  0  0  0  0  0  0
    5.5604   -0.8910   21.8193 H   0  0  0  0  0  0  0  0  0  0  0  0
    6.3924    0.0195   20.5651 H   0  0  0  0  0  0  0  0  0  0  0  0
    7.7182   -4.3324   22.4372 H   0  0  0  0  0  0  0  0  0  0  0  0
    8.5846   -3.4310   21.1545 H   0  0  0  0  0  0  0  0  0  0  0  0
    8.6055   -0.8900   21.2973 H   0  0  0  0  0  0  0  0  0  0  0  0
    7.7521   -0.1239   22.6731 H   0  0  0  0  0  0  0  0  0  0  0  0
    6.5538   -5.3704   27.3889 H   0  0  0  0  0  0  0  0  0  0  0  0
    5.8581   -5.6002   25.7658 H   0  0  0  0  0  0  0  0  0  0  0  0
    6.8025   -6.8943   26.5013 H   0  0  0  0  0  0  0  0  0  0  0  0
    6.8264   -1.2577   17.1318 H   0  0  0  0  0  0  0  0  0  0  0  0
    7.5004   -0.5611   18.6459 H   0  0  0  0  0  0  0  0  0  0  0  0
    9.8171   -2.3595   22.8703 H   0  0  0  0  0  0  0  0  0  0  0  0
    6.9716   -2.2654   23.3438 H   0  0  0  0  0  0  0  0  0  0  0  0
  1  2  2  0  0  0  0
  1  3  1  0  0  0  0
  2  7  1  0  0  0  0
  3  8  2  0  0  0  0
  4  5  1  0  0  0  0
  4  9  2  0  0  0  0
  5 10  2  0  0  0  0
  6  7  2  0  0  0  0
  6  8  1  0  0  0  0
  7 16  1  0  0  0  0
  8 18  1  0  0  0  0
  9 18  1  0  0  0  0
  9 22  1  0  0  0  0
 10 22  1  0  0  0  0
 10 23  1  0  0  0  0
 11 17  1  0  0  0  0
 11 19  1  0  0  0  0
 11 21  2  0  0  0  0
 12 14  1  0  0  0  0
 12 19  1  0  0  0  0
 13 15  1  0  0  0  0
 13 19  1  0  0  0  0
 14 20  1  0  0  0  0
 15 20  1  0  0  0  0
 17 24  1  0  0  0  0
 18 20  1  0  0  0  0
  1 25  1  0  0  0  0
  2 26  1  0  0  0  0
  3 27  1  0  0  0  0
  4 28  1  0  0  0  0
  5 29  1  0  0  0  0
  6 30  1  0  0  0  0
 12 31  1  0  0  0  0
 12 32  1  0  0  0  0
 13 33  1  0  0  0  0
 13 34  1  0  0  0  0
 14 35  1  0  0  0  0
 14 36  1  0  0  0  0
 15 37  1  0  0  0  0
 15 38  1  0  0  0  0
 16 39  1  0  0  0  0
 16 40  1  0  0  0  0
 16 41  1  0  0  0  0
 17 42  1  0  0  0  0
 17 43  1  0  0  0  0
 18 44  1  0  0  0  0
 20 45  1  0  0  0  0
M  CHG  1  20   1
M  END
> <creator>
Simon Williams, Syngenta

> <fragments>
x1334

> <real_space>
FALSE

> <SCR>
FALSE

> <BB>
FALSE

> <link>
https://covid.postera.ai/covid/submissions/f15aaa3a-53a3-4dd7-ba06-87a3faf5de20

> <covalent_frag>
TRUE

> <covalent_warhead>
TRUE

> <acrylamide>
FALSE

> <acrylamide_adduct>
FALSE

> <chloroacetamide>
TRUE

> <chloroacetamide_adduct>
FALSE

> <vinylsulfonamide>
FALSE

> <vinylsulfonamide_adduct>
FALSE

> <in_molport_or_mcule>
FALSE

> <in_emolecules>
FALSE

> <Hybrid2>
-4.558472

> <Mpro-x1334_dock>
-4.558472

> <Mpro-x0692_dock>
-4.191292

> <site>
active-covalent

> <covalent_distance_min>
3.0008795

> <covalent_distance_mean>
3.3606083

> <covalent_distance_stderr>
0.013987291

$$$$
TOB-UNK-c2a-3
  -OEChem-04062011563D

 29 29  0     0  0  0  0  0  0999 V2000
    6.2241   -0.8764   18.2755 C   0  0  0  0  0  0  0  0  0  0  0  0
    6.2366   -1.6593   19.1855 C   0  0  0  0  0  0  0  0  0  0  0  0
   11.0995    0.4191   24.6351 C   0  0  0  0  0  0  0  0  0  0  0  0
   11.0708   -0.9103   24.7463 C   0  0  0  0  0  0  0  0  0  0  0  0
    7.5764   -2.2084   23.8494 C   0  0  0  0  0  0  0  0  0  0  0  0
    8.2452   -0.2388   22.5184 C   0  0  0  0  0  0  0  0  0  0  0  0
    7.1754   -2.9489   22.5839 C   0  0  0  0  0  0  0  0  0  0  0  0
    7.8533   -0.9519   21.2344 C   0  0  0  0  0  0  0  0  0  0  0  0
    6.2501   -2.6160   20.2892 C   0  0  0  0  0  0  0  0  0  0  0  0
    8.6515   -1.2207   23.5604 N   0  0  0  0  0  0  0  0  0  0  0  0
    6.7527   -1.9440   21.5360 N   0  3  0  0  0  0  0  0  0  0  0  0
   10.8210   -1.4151   22.2255 O   0  0  0  0  0  0  0  0  0  0  0  0
   10.2338   -3.2008   23.8955 O   0  0  0  0  0  0  0  0  0  0  0  0
   10.2555   -1.8022   23.5058 S   0  0  0  0  0  0  0  0  0  0  0  0
    6.2133   -0.1815   17.4686 H   0  0  0  0  0  0  0  0  0  0  0  0
   11.5991    1.0174   25.3895 H   0  0  0  0  0  0  0  0  0  0  0  0
   10.6354    0.9412   23.8052 H   0  0  0  0  0  0  0  0  0  0  0  0
   11.5346   -1.4291   25.5756 H   0  0  0  0  0  0  0  0  0  0  0  0
    6.7090   -1.6972   24.2943 H   0  0  0  0  0  0  0  0  0  0  0  0
    7.9446   -2.9399   24.5833 H   0  0  0  0  0  0  0  0  0  0  0  0
    9.0894    0.4327   22.3040 H   0  0  0  0  0  0  0  0  0  0  0  0
    7.4148    0.3796   22.8920 H   0  0  0  0  0  0  0  0  0  0  0  0
    8.0062   -3.5289   22.1669 H   0  0  0  0  0  0  0  0  0  0  0  0
    6.3217   -3.6074   22.7721 H   0  0  0  0  0  0  0  0  0  0  0  0
    7.4637   -0.2420   20.4980 H   0  0  0  0  0  0  0  0  0  0  0  0
    8.6912   -1.5112   20.8034 H   0  0  0  0  0  0  0  0  0  0  0  0
    6.9201   -3.4574   20.0931 H   0  0  0  0  0  0  0  0  0  0  0  0
    5.2494   -2.9931   20.5162 H   0  0  0  0  0  0  0  0  0  0  0  0
    5.9575   -1.4135   21.9215 H   0  0  0  0  0  0  0  0  0  0  0  0
  1  2  3  0  0  0  0
  2  9  1  0  0  0  0
  3  4  2  0  0  0  0
  4 14  1  0  0  0  0
  5  7  1  0  0  0  0
  5 10  1  0  0  0  0
  6  8  1  0  0  0  0
  6 10  1  0  0  0  0
  7 11  1  0  0  0  0
  8 11  1  0  0  0  0
  9 11  1  0  0  0  0
 10 14  1  0  0  0  0
 12 14  2  0  0  0  0
 13 14  2  0  0  0  0
  1 15  1  0  0  0  0
  3 16  1  0  0  0  0
  3 17  1  0  0  0  0
  4 18  1  0  0  0  0
  5 19  1  0  0  0  0
  5 20  1  0  0  0  0
  6 21  1  0  0  0  0
  6 22  1  0  0  0  0
  7 23  1  0  0  0  0
  7 24  1  0  0  0  0
  8 25  1  0  0  0  0
  8 26  1  0  0  0  0
  9 27  1  0  0  0  0
  9 28  1  0  0  0  0
 11 29  1  0  0  0  0
M  CHG  1  11   1
M  END
> <creator>
Tobias Grabe

> <fragments>
x1386

> <real_space>
FALSE

> <SCR>
FALSE

> <BB>
FALSE

> <link>
https://covid.postera.ai/covid/submissions/c2aba166-fc0c-4b8c-b831-fecfdf920427

> <covalent_frag>
TRUE

> <covalent_warhead>
TRUE

> <acrylamide>
FALSE

> <acrylamide_adduct>
FALSE

> <chloroacetamide>
FALSE

> <chloroacetamide_adduct>
FALSE

> <vinylsulfonamide>
TRUE

> <vinylsulfonamide_adduct>
FALSE

> <in_molport_or_mcule>
FALSE

> <in_emolecules>
FALSE

> <Hybrid2>
-4.556074

> <Mpro-x1386_dock>
-4.556074

> <site>
active-covalent

> <covalent_distance_min>
6.6543245

> <covalent_distance_mean>
7.6477056

> <covalent_distance_stderr>
0.08169898

$$$$
STE-LAU-a2c-2
  -OEChem-04062011563D

 59 60  0     0  0  0  0  0  0999 V2000
    4.6595   -4.7520   26.7011 C   0  0  0  0  0  0  0  0  0  0  0  0
    8.4930   -0.7995   23.9566 C   0  0  0  0  0  0  0  0  0  0  0  0
    9.6572   -2.8515   22.4678 C   0  0  0  0  0  0  0  0  0  0  0  0
    3.9681   -3.7013   26.1333 C   0  0  0  0  0  0  0  0  0  0  0  0
    7.7699   -1.9611   23.6853 C   0  0  0  0  0  0  0  0  0  0  0  0
    8.3520   -2.9871   22.9409 C   0  0  0  0  0  0  0  0  0  0  0  0
    9.7981   -0.6639   23.4834 C   0  0  0  0  0  0  0  0  0  0  0  0
   10.3802   -1.6899   22.7390 C   0  0  0  0  0  0  0  0  0  0  0  0
    5.9938   -4.8419   26.3609 C   0  0  0  0  0  0  0  0  0  0  0  0
    5.8339   -2.9969   25.0427 C   0  0  0  0  0  0  0  0  0  0  0  0
    7.2575   -7.4668   21.1917 C   0  0  0  0  0  0  0  0  0  0  0  0
    7.0299   -6.3244   21.8474 C   0  0  0  0  0  0  0  0  0  0  0  0
    6.8194   -5.9087   26.8994 C   0  0  0  0  0  0  0  0  0  0  0  0
    8.0846   -5.2726   21.9281 C   0  0  0  0  0  0  0  0  0  0  0  0
   11.3481    3.3424   23.3061 C   0  0  0  0  0  0  0  0  0  0  0  0
   11.9325   -2.0397   19.8822 C   0  0  0  0  0  0  0  0  0  0  0  0
   13.3289   -0.9144   23.9210 C   0  0  0  0  0  0  0  0  0  0  0  0
   10.9515    2.7521   24.6519 C   0  0  0  0  0  0  0  0  0  0  0  0
   11.9482   -0.9944   20.9452 C   0  0  0  0  0  0  0  0  0  0  0  0
   12.8206   -2.0152   23.0536 C   0  0  0  0  0  0  0  0  0  0  0  0
    9.9637    1.5991   24.5213 C   0  0  0  0  0  0  0  0  0  0  0  0
    4.5259   -2.8018   25.2967 N   0  0  0  0  0  0  0  0  0  0  0  0
    6.6158   -3.9785   25.5313 N   0  0  0  0  0  0  0  0  0  0  0  0
    8.1589   -5.9478   26.5200 N   0  0  0  0  0  0  0  0  0  0  0  0
    6.4492   -2.0774   24.1740 N   0  0  0  0  0  0  0  0  0  0  0  0
    7.6466   -4.1598   22.6562 N   0  0  0  0  0  0  0  0  0  0  0  0
   10.4998    0.5024   23.7636 N   0  0  0  0  0  0  0  0  0  0  0  0
   11.7005   -1.5721   22.2497 N   0  0  0  0  0  0  0  0  0  0  0  0
    6.3493   -6.7729   27.6616 O   0  0  0  0  0  0  0  0  0  0  0  0
    9.1787   -5.4280   21.3987 O   0  0  0  0  0  0  0  0  0  0  0  0
    4.1764   -5.4540   27.3688 H   0  0  0  0  0  0  0  0  0  0  0  0
    8.0384    0.0008   24.5368 H   0  0  0  0  0  0  0  0  0  0  0  0
   10.1109   -3.6507   21.8847 H   0  0  0  0  0  0  0  0  0  0  0  0
    2.9145   -3.5491   26.3419 H   0  0  0  0  0  0  0  0  0  0  0  0
    6.5155   -8.2534   21.1120 H   0  0  0  0  0  0  0  0  0  0  0  0
    8.2164   -7.6354   20.7128 H   0  0  0  0  0  0  0  0  0  0  0  0
    6.0715   -6.1550   22.3261 H   0  0  0  0  0  0  0  0  0  0  0  0
   11.8093    2.5837   22.6658 H   0  0  0  0  0  0  0  0  0  0  0  0
   10.4639    3.7292   22.7893 H   0  0  0  0  0  0  0  0  0  0  0  0
   12.0551    4.1690   23.4257 H   0  0  0  0  0  0  0  0  0  0  0  0
   10.9510   -2.5361   19.8698 H   0  0  0  0  0  0  0  0  0  0  0  0
   12.1187   -1.5710   18.9046 H   0  0  0  0  0  0  0  0  0  0  0  0
   12.7167   -2.7832   20.0877 H   0  0  0  0  0  0  0  0  0  0  0  0
   12.5252   -0.5731   24.5900 H   0  0  0  0  0  0  0  0  0  0  0  0
   14.1744   -1.2815   24.5214 H   0  0  0  0  0  0  0  0  0  0  0  0
   13.6627   -0.0762   23.2917 H   0  0  0  0  0  0  0  0  0  0  0  0
   10.4954    3.5419   25.2600 H   0  0  0  0  0  0  0  0  0  0  0  0
   11.8533    2.4175   25.1782 H   0  0  0  0  0  0  0  0  0  0  0  0
   12.9323   -0.5031   20.9511 H   0  0  0  0  0  0  0  0  0  0  0  0
   11.1680   -0.2500   20.7282 H   0  0  0  0  0  0  0  0  0  0  0  0
   13.6297   -2.3507   22.3881 H   0  0  0  0  0  0  0  0  0  0  0  0
   12.4974   -2.8529   23.6890 H   0  0  0  0  0  0  0  0  0  0  0  0
    9.7098    1.2094   25.5121 H   0  0  0  0  0  0  0  0  0  0  0  0
    9.0380    1.9220   24.0347 H   0  0  0  0  0  0  0  0  0  0  0  0
    8.5154   -5.2401   25.8870 H   0  0  0  0  0  0  0  0  0  0  0  0
    8.7865   -6.6682   26.8622 H   0  0  0  0  0  0  0  0  0  0  0  0
    5.8254   -1.3556   23.8283 H   0  0  0  0  0  0  0  0  0  0  0  0
    6.6909   -4.2115   23.0260 H   0  0  0  0  0  0  0  0  0  0  0  0
   11.4494    0.5785   23.4067 H   0  0  0  0  0  0  0  0  0  0  0  0
  1  4  1  0  0  0  0
  1  9  2  0  0  0  0
  2  5  1  0  0  0  0
  2  7  2  0  0  0  0
  3  6  1  0  0  0  0
  3  8  2  0  0  0  0
  4 22  2  0  0  0  0
  5  6  2  0  0  0  0
  5 25  1  0  0  0  0
  6 26  1  0  0  0  0
  7  8  1  0  0  0  0
  7 27  1  0  0  0  0
  8 28  1  0  0  0  0
  9 13  1  0  0  0  0
  9 23  1  0  0  0  0
 10 22  1  0  0  0  0
 10 23  2  0  0  0  0
 10 25  1  0  0  0  0
 11 12  2  0  0  0  0
 12 14  1  0  0  0  0
 13 24  1  0  0  0  0
 13 29  2  0  0  0  0
 14 26  1  0  0  0  0
 14 30  2  0  0  0  0
 15 18  1  0  0  0  0
 16 19  1  0  0  0  0
 17 20  1  0  0  0  0
 18 21  1  0  0  0  0
 19 28  1  0  0  0  0
 20 28  1  0  0  0  0
 21 27  1  0  0  0  0
  1 31  1  0  0  0  0
  2 32  1  0  0  0  0
  3 33  1  0  0  0  0
  4 34  1  0  0  0  0
 11 35  1  0  0  0  0
 11 36  1  0  0  0  0
 12 37  1  0  0  0  0
 15 38  1  0  0  0  0
 15 39  1  0  0  0  0
 15 40  1  0  0  0  0
 16 41  1  0  0  0  0
 16 42  1  0  0  0  0
 16 43  1  0  0  0  0
 17 44  1  0  0  0  0
 17 45  1  0  0  0  0
 17 46  1  0  0  0  0
 18 47  1  0  0  0  0
 18 48  1  0  0  0  0
 19 49  1  0  0  0  0
 19 50  1  0  0  0  0
 20 51  1  0  0  0  0
 20 52  1  0  0  0  0
 21 53  1  0  0  0  0
 21 54  1  0  0  0  0
 24 55  1  0  0  0  0
 24 56  1  0  0  0  0
 25 57  1  0  0  0  0
 26 58  1  0  0  0  0
 27 59  1  0  0  0  0
M  END
> <creator>
Stefan Siemann, Laurentian University

> <fragments>
x0072

> <real_space>
FALSE

> <SCR>
FALSE

> <BB>
FALSE

> <link>
https://covid.postera.ai/covid/submissions/a2c26472-0684-47f0-a203-fcf5d6ec74a1

> <covalent_frag>
FALSE

> <covalent_warhead>
TRUE

> <acrylamide>
TRUE

> <acrylamide_adduct>
FALSE

> <chloroacetamide>
FALSE

> <chloroacetamide_adduct>
FALSE

> <vinylsulfonamide>
FALSE

> <vinylsulfonamide_adduct>
FALSE

> <in_molport_or_mcule>
FALSE

> <in_emolecules>
FALSE

> <Hybrid2>
-4.520107

> <Mpro-x0072_dock>
-4.520107

> <site>
active-noncovalent

> <covalent_distance_min>
4.7372656

> <covalent_distance_mean>
6.17799

> <covalent_distance_stderr>
0.06266054

$$$$
DAR-DIA-fb2-16
  -OEChem-04062011563D

 56 58  0     0  0  0  0  0  0999 V2000
   13.4933   -1.3179   20.7872 C   0  0  0  0  0  0  0  0  0  0  0  0
   13.0468    0.2498   22.6098 C   0  0  0  0  0  0  0  0  0  0  0  0
   12.4134    0.5631   23.8123 C   0  0  0  0  0  0  0  0  0  0  0  0
   12.0085   -1.9317   22.6312 C   0  0  0  0  0  0  0  0  0  0  0  0
   12.8444   -0.9976   22.0192 C   0  0  0  0  0  0  0  0  0  0  0  0
   11.5775   -0.3709   24.4244 C   0  0  0  0  0  0  0  0  0  0  0  0
   11.3751   -1.6183   23.8338 C   0  0  0  0  0  0  0  0  0  0  0  0
    5.9232   -4.8719   23.9615 C   0  0  0  0  0  0  0  0  0  0  0  0
    8.5771    0.1031   26.5505 C   0  0  0  0  0  0  0  0  0  0  0  0
    7.8902   -4.2493   25.3249 C   0  0  0  0  0  0  0  0  0  0  0  0
    7.8510   -3.5536   22.9567 C   0  0  0  0  0  0  0  0  0  0  0  0
    6.2039    0.2632   27.2348 C   0  0  0  0  0  0  0  0  0  0  0  0
    6.7539    0.8161   24.8957 C   0  0  0  0  0  0  0  0  0  0  0  0
    8.3088   -2.8492   25.7491 C   0  0  0  0  0  0  0  0  0  0  0  0
    8.2721   -2.1436   23.3486 C   0  0  0  0  0  0  0  0  0  0  0  0
    5.2463    1.4443   27.2357 C   0  0  0  0  0  0  0  0  0  0  0  0
    5.7500    1.9595   24.9980 C   0  0  0  0  0  0  0  0  0  0  0  0
   10.9100   -0.0124   25.7113 C   0  0  0  0  0  0  0  0  0  0  0  0
   10.4799   -2.6384   24.4733 C   0  0  0  0  0  0  0  0  0  0  0  0
    5.5515   -5.4124   22.6037 C   0  0  0  0  0  0  0  0  0  0  0  0
   14.0204   -1.5781   19.7866 N   0  0  0  0  0  0  0  0  0  0  0  0
    7.1539   -4.2229   24.0606 N   0  0  0  0  0  0  0  0  0  0  0  0
    7.2514    0.4370   26.2258 N   0  0  0  0  0  0  0  0  0  0  0  0
    9.5075    0.2912   25.5351 N   0  0  0  0  0  0  0  0  0  0  0  0
    9.0630   -2.1601   24.6358 N   0  3  0  0  0  0  0  0  0  0  0  0
    5.1409   -5.0206   24.9038 O   0  0  0  0  0  0  0  0  0  0  0  0
    8.9043   -0.3347   27.6585 O   0  0  0  0  0  0  0  0  0  0  0  0
    4.7119    1.6407   25.9253 O   0  0  0  0  0  0  0  0  0  0  0  0
    4.6537   -4.1400   21.7835 Cl  0  0  0  0  0  0  0  0  0  0  0  0
   13.6953    0.9883   22.1444 H   0  0  0  0  0  0  0  0  0  0  0  0
   12.5775    1.5375   24.2651 H   0  0  0  0  0  0  0  0  0  0  0  0
   11.8470   -2.9064   22.1746 H   0  0  0  0  0  0  0  0  0  0  0  0
    8.7771   -4.8871   25.2441 H   0  0  0  0  0  0  0  0  0  0  0  0
    7.2338   -4.7034   26.0784 H   0  0  0  0  0  0  0  0  0  0  0  0
    7.1597   -3.5268   22.1047 H   0  0  0  0  0  0  0  0  0  0  0  0
    8.7319   -4.1125   22.6333 H   0  0  0  0  0  0  0  0  0  0  0  0
    6.6314    0.1191   28.2314 H   0  0  0  0  0  0  0  0  0  0  0  0
    5.6679   -0.6543   26.9637 H   0  0  0  0  0  0  0  0  0  0  0  0
    6.2721   -0.0767   24.4809 H   0  0  0  0  0  0  0  0  0  0  0  0
    7.5587    1.1185   24.2244 H   0  0  0  0  0  0  0  0  0  0  0  0
    7.4240   -2.2331   25.9738 H   0  0  0  0  0  0  0  0  0  0  0  0
    8.9623   -2.8675   26.6370 H   0  0  0  0  0  0  0  0  0  0  0  0
    8.9003   -1.6735   22.5739 H   0  0  0  0  0  0  0  0  0  0  0  0
    7.3870   -1.5102   23.5180 H   0  0  0  0  0  0  0  0  0  0  0  0
    4.4073    1.2429   27.9092 H   0  0  0  0  0  0  0  0  0  0  0  0
    5.7363    2.3628   27.5798 H   0  0  0  0  0  0  0  0  0  0  0  0
    6.2383    2.8943   25.2987 H   0  0  0  0  0  0  0  0  0  0  0  0
    5.2828    2.1302   24.0229 H   0  0  0  0  0  0  0  0  0  0  0  0
   10.9826   -0.8351   26.4354 H   0  0  0  0  0  0  0  0  0  0  0  0
   11.3803    0.8639   26.1764 H   0  0  0  0  0  0  0  0  0  0  0  0
   10.4356   -3.5559   23.8767 H   0  0  0  0  0  0  0  0  0  0  0  0
   10.8377   -2.9074   25.4730 H   0  0  0  0  0  0  0  0  0  0  0  0
    4.9237   -6.2866   22.7332 H   0  0  0  0  0  0  0  0  0  0  0  0
    6.4586   -5.6405   22.0559 H   0  0  0  0  0  0  0  0  0  0  0  0
    9.1966    0.6523   24.6418 H   0  0  0  0  0  0  0  0  0  0  0  0
    9.1453   -1.1450   24.9323 H   0  0  0  0  0  0  0  0  0  0  0  0
  1  5  1  0  0  0  0
  1 21  3  0  0  0  0
  2  3  2  0  0  0  0
  2  5  1  0  0  0  0
  3  6  1  0  0  0  0
  4  5  2  0  0  0  0
  4  7  1  0  0  0  0
  6  7  2  0  0  0  0
  6 18  1  0  0  0  0
  7 19  1  0  0  0  0
  8 20  1  0  0  0  0
  8 22  1  0  0  0  0
  8 26  2  0  0  0  0
  9 23  1  0  0  0  0
  9 24  1  0  0  0  0
  9 27  2  0  0  0  0
 10 14  1  0  0  0  0
 10 22  1  0  0  0  0
 11 15  1  0  0  0  0
 11 22  1  0  0  0  0
 12 16  1  0  0  0  0
 12 23  1  0  0  0  0
 13 17  1  0  0  0  0
 13 23  1  0  0  0  0
 14 25  1  0  0  0  0
 15 25  1  0  0  0  0
 16 28  1  0  0  0  0
 17 28  1  0  0  0  0
 18 24  1  0  0  0  0
 19 25  1  0  0  0  0
 20 29  1  0  0  0  0
  2 30  1  0  0  0  0
  3 31  1  0  0  0  0
  4 32  1  0  0  0  0
 10 33  1  0  0  0  0
 10 34  1  0  0  0  0
 11 35  1  0  0  0  0
 11 36  1  0  0  0  0
 12 37  1  0  0  0  0
 12 38  1  0  0  0  0
 13 39  1  0  0  0  0
 13 40  1  0  0  0  0
 14 41  1  0  0  0  0
 14 42  1  0  0  0  0
 15 43  1  0  0  0  0
 15 44  1  0  0  0  0
 16 45  1  0  0  0  0
 16 46  1  0  0  0  0
 17 47  1  0  0  0  0
 17 48  1  0  0  0  0
 18 49  1  0  0  0  0
 18 50  1  0  0  0  0
 19 51  1  0  0  0  0
 19 52  1  0  0  0  0
 20 53  1  0  0  0  0
 20 54  1  0  0  0  0
 24 55  1  0  0  0  0
 25 56  1  0  0  0  0
M  CHG  1  25   1
M  END
> <creator>
Daren Fearon, Diamond Light Source Ltd

> <fragments>
x0305

> <real_space>
FALSE

> <SCR>
FALSE

> <BB>
FALSE

> <link>
https://covid.postera.ai/covid/submissions/fb20be43-b2ad-4a19-a5ce-eb2fe8d462e2

> <covalent_frag>
TRUE

> <covalent_warhead>
TRUE

> <acrylamide>
FALSE

> <acrylamide_adduct>
FALSE

> <chloroacetamide>
TRUE

> <chloroacetamide_adduct>
FALSE

> <vinylsulfonamide>
FALSE

> <vinylsulfonamide_adduct>
FALSE

> <in_molport_or_mcule>
FALSE

> <in_emolecules>
FALSE

> <Hybrid2>
-4.520052

> <Mpro-x0305_dock>
-4.520052

> <Mpro-x0104_dock>
-4.505337

> <Mpro-x0195_dock>
-4.430955

> <Mpro-x0830_dock>
-4.035851

> <site>
active-noncovalent

> <covalent_distance_min>
9.043368

> <covalent_distance_mean>
9.368492

> <covalent_distance_stderr>
0.04457305

$$$$
TAM-UNI-d1c-16
  -OEChem-04062011563D

 43 44  0     0  0  0  0  0  0999 V2000
   14.2094   -0.5565   22.2522 C   0  0  0  0  0  0  0  0  0  0  0  0
   11.9913   -1.3436   22.9161 C   0  0  0  0  0  0  0  0  0  0  0  0
   12.5974    0.9658   23.2850 C   0  0  0  0  0  0  0  0  0  0  0  0
   10.4092    0.1729   23.9331 C   0  0  0  0  0  0  0  0  0  0  0  0
   12.9227   -0.3095   22.8230 C   0  0  0  0  0  0  0  0  0  0  0  0
   10.7345   -1.1024   23.4711 C   0  0  0  0  0  0  0  0  0  0  0  0
   11.3407    1.2070   23.8401 C   0  0  0  0  0  0  0  0  0  0  0  0
    6.0031   -2.4774   19.4850 C   0  0  0  0  0  0  0  0  0  0  0  0
    9.8142    2.9119   24.8830 C   0  0  0  0  0  0  0  0  0  0  0  0
    6.3461   -2.8259   21.9103 C   0  0  0  0  0  0  0  0  0  0  0  0
    7.3991   -0.8591   20.8635 C   0  0  0  0  0  0  0  0  0  0  0  0
    7.6584   -3.1942   22.5869 C   0  0  0  0  0  0  0  0  0  0  0  0
    8.7278   -1.1969   21.5263 C   0  0  0  0  0  0  0  0  0  0  0  0
    9.8607    4.3747   25.2469 C   0  0  0  0  0  0  0  0  0  0  0  0
    9.7332   -2.2151   23.5727 C   0  0  0  0  0  0  0  0  0  0  0  0
    6.2998   -1.6388   18.2675 C   0  0  0  0  0  0  0  0  0  0  0  0
   15.2542   -0.7570   21.7885 N   0  0  0  0  0  0  0  0  0  0  0  0
    6.5825   -2.0642   20.6839 N   0  0  0  0  0  0  0  0  0  0  0  0
   11.0145    2.4829   24.3010 N   0  0  0  0  0  0  0  0  0  0  0  0
    8.4632   -1.9350   22.8195 N   0  3  0  0  0  0  0  0  0  0  0  0
    5.2803   -3.4707   19.3714 O   0  0  0  0  0  0  0  0  0  0  0  0
    8.8111    2.2412   25.1041 O   0  0  0  0  0  0  0  0  0  0  0  0
    5.6695   -0.0292   18.5987 Cl  0  0  0  0  0  0  0  0  0  0  0  0
   12.2392   -2.3407   22.5576 H   0  0  0  0  0  0  0  0  0  0  0  0
   13.3209    1.7758   23.2123 H   0  0  0  0  0  0  0  0  0  0  0  0
    9.4286    0.3585   24.3661 H   0  0  0  0  0  0  0  0  0  0  0  0
    5.7762   -3.7360   21.6984 H   0  0  0  0  0  0  0  0  0  0  0  0
    5.7300   -2.2036   22.5708 H   0  0  0  0  0  0  0  0  0  0  0  0
    6.8224   -0.1655   21.4874 H   0  0  0  0  0  0  0  0  0  0  0  0
    7.5911   -0.3522   19.9163 H   0  0  0  0  0  0  0  0  0  0  0  0
    7.4744   -3.6494   23.5654 H   0  0  0  0  0  0  0  0  0  0  0  0
    8.2622   -3.8711   21.9720 H   0  0  0  0  0  0  0  0  0  0  0  0
    9.3506   -1.8390   20.8934 H   0  0  0  0  0  0  0  0  0  0  0  0
    9.2764   -0.2837   21.7785 H   0  0  0  0  0  0  0  0  0  0  0  0
    9.5076    4.9770   24.4051 H   0  0  0  0  0  0  0  0  0  0  0  0
   10.8884    4.6647   25.4837 H   0  0  0  0  0  0  0  0  0  0  0  0
    9.2305    4.5621   26.1213 H   0  0  0  0  0  0  0  0  0  0  0  0
   10.1379   -3.1499   23.1703 H   0  0  0  0  0  0  0  0  0  0  0  0
    9.4476   -2.3963   24.6146 H   0  0  0  0  0  0  0  0  0  0  0  0
    5.7913   -2.0688   17.4121 H   0  0  0  0  0  0  0  0  0  0  0  0
    7.3732   -1.5960   18.1233 H   0  0  0  0  0  0  0  0  0  0  0  0
   11.7412    3.2016   24.2052 H   0  0  0  0  0  0  0  0  0  0  0  0
    7.8992   -1.3150   23.4171 H   0  0  0  0  0  0  0  0  0  0  0  0
  1  5  1  0  0  0  0
  1 17  3  0  0  0  0
  2  5  1  0  0  0  0
  2  6  2  0  0  0  0
  3  5  2  0  0  0  0
  3  7  1  0  0  0  0
  4  6  1  0  0  0  0
  4  7  2  0  0  0  0
  6 15  1  0  0  0  0
  7 19  1  0  0  0  0
  8 16  1  0  0  0  0
  8 18  1  0  0  0  0
  8 21  2  0  0  0  0
  9 14  1  0  0  0  0
  9 19  1  0  0  0  0
  9 22  2  0  0  0  0
 10 12  1  0  0  0  0
 10 18  1  0  0  0  0
 11 13  1  0  0  0  0
 11 18  1  0  0  0  0
 12 20  1  0  0  0  0
 13 20  1  0  0  0  0
 15 20  1  0  0  0  0
 16 23  1  0  0  0  0
  2 24  1  0  0  0  0
  3 25  1  0  0  0  0
  4 26  1  0  0  0  0
 10 27  1  0  0  0  0
 10 28  1  0  0  0  0
 11 29  1  0  0  0  0
 11 30  1  0  0  0  0
 12 31  1  0  0  0  0
 12 32  1  0  0  0  0
 13 33  1  0  0  0  0
 13 34  1  0  0  0  0
 14 35  1  0  0  0  0
 14 36  1  0  0  0  0
 14 37  1  0  0  0  0
 15 38  1  0  0  0  0
 15 39  1  0  0  0  0
 16 40  1  0  0  0  0
 16 41  1  0  0  0  0
 19 42  1  0  0  0  0
 20 43  1  0  0  0  0
M  CHG  1  20   1
M  END
> <creator>
Tamas Szommer, University of Oxford, TDI

> <fragments>
x0692

> <real_space>
FALSE

> <SCR>
FALSE

> <BB>
FALSE

> <link>
https://covid.postera.ai/covid/submissions/d1c3dd9f-771c-474e-9133-8c7e4ace8b98

> <covalent_frag>
TRUE

> <covalent_warhead>
TRUE

> <acrylamide>
FALSE

> <acrylamide_adduct>
FALSE

> <chloroacetamide>
TRUE

> <chloroacetamide_adduct>
FALSE

> <vinylsulfonamide>
FALSE

> <vinylsulfonamide_adduct>
FALSE

> <in_molport_or_mcule>
FALSE

> <in_emolecules>
FALSE

> <Hybrid2>
-4.514347

> <Mpro-x0692_dock>
-4.514347

> <Mpro-x1386_dock>
-4.193594

> <Mpro-x1392_dock>
-3.464096

> <Mpro-x1382_dock>
-0.881149

> <site>
active-covalent

> <covalent_distance_min>
3.169239

> <covalent_distance_mean>
3.533654

> <covalent_distance_stderr>
0.03962585

$$$$
WAR-XCH-72a-10
  -OEChem-04062011563D

 57 59  0     1  0  0  0  0  0999 V2000
    6.6842   -4.2741   22.0180 C   0  0  0  0  0  0  0  0  0  0  0  0
    8.9532   -4.8725   24.8995 C   0  0  0  0  0  0  0  0  0  0  0  0
    9.2179   -3.5690   25.3193 C   0  0  0  0  0  0  0  0  0  0  0  0
    8.1148   -5.0969   23.8075 C   0  0  0  0  0  0  0  0  0  0  0  0
    8.6440   -2.4898   24.6472 C   0  0  0  0  0  0  0  0  0  0  0  0
    7.5410   -4.0177   23.1354 C   0  0  0  0  0  0  0  0  0  0  0  0
    7.8056   -2.7141   23.5552 C   0  0  0  0  0  0  0  0  0  0  0  0
   14.4287   -0.2130   24.9949 C   0  0  0  0  0  0  0  0  0  0  0  0
   13.1632   -0.6182   24.8696 C   0  0  0  0  0  0  0  0  0  0  0  0
   12.1238    0.3791   24.5452 C   0  0  0  0  0  0  0  0  0  0  0  0
    7.7546    0.1096   19.4831 C   0  0  0  0  0  0  0  0  0  0  0  0
    5.8674   -1.4546   20.1198 C   0  0  0  0  0  0  0  0  0  0  0  0
    6.8430    0.7935   18.4618 C   0  0  0  0  0  0  0  0  0  0  0  0
    4.9549   -0.7688   19.1012 C   0  0  0  0  0  0  0  0  0  0  0  0
   10.2188   -1.5756   22.1100 C   0  0  0  0  0  0  0  0  0  0  0  0
    9.0345    0.5571   22.7306 C   0  0  0  0  0  0  0  0  0  0  0  0
   11.5585   -0.8993   22.4062 C   0  0  0  0  0  0  0  0  0  0  0  0
   10.3916    1.2026   22.9969 C   0  0  0  0  0  0  0  0  0  0  0  0
    6.9406   -0.4936   20.6253 C   0  0  0  0  0  0  0  0  0  0  0  0
    9.1696   -0.5500   21.6879 C   0  0  0  0  0  0  0  0  0  0  0  0
    5.7452   -0.1408   17.9511 C   0  0  0  0  0  0  0  0  0  0  0  0
    7.2064   -1.5290   22.8571 C   0  0  0  0  0  0  0  0  0  0  0  0
    5.9895   -4.4820   21.1119 N   0  0  0  0  0  0  0  0  0  0  0  0
   11.3969    0.2016   23.3700 N   0  0  0  0  0  0  0  0  0  0  0  0
    7.8590   -1.2323   21.5322 N   0  3  1  0  0  0  0  0  0  0  0  0
   11.9655    1.3127   25.3338 O   0  0  0  0  0  0  0  0  0  0  0  0
    6.3479   -1.1660   17.1639 O   0  0  0  0  0  0  0  0  0  0  0  0
    9.4001   -5.7127   25.4229 H   0  0  0  0  0  0  0  0  0  0  0  0
    9.8707   -3.3944   26.1695 H   0  0  0  0  0  0  0  0  0  0  0  0
    7.9190   -6.1194   23.4932 H   0  0  0  0  0  0  0  0  0  0  0  0
    8.8568   -1.4781   24.9826 H   0  0  0  0  0  0  0  0  0  0  0  0
   15.2357   -0.8982   25.2320 H   0  0  0  0  0  0  0  0  0  0  0  0
   14.6811    0.8333   24.8589 H   0  0  0  0  0  0  0  0  0  0  0  0
   12.8724   -1.6527   24.9974 H   0  0  0  0  0  0  0  0  0  0  0  0
    8.3577   -0.6502   18.9918 H   0  0  0  0  0  0  0  0  0  0  0  0
    8.4368    0.8529   19.8937 H   0  0  0  0  0  0  0  0  0  0  0  0
    5.2628   -1.7805   20.9650 H   0  0  0  0  0  0  0  0  0  0  0  0
    6.3157   -2.3410   19.6781 H   0  0  0  0  0  0  0  0  0  0  0  0
    6.3858    1.6858   18.9113 H   0  0  0  0  0  0  0  0  0  0  0  0
    7.4342    1.1711   17.6157 H   0  0  0  0  0  0  0  0  0  0  0  0
    4.2222   -1.4837   18.7019 H   0  0  0  0  0  0  0  0  0  0  0  0
    4.3569    0.0044   19.6021 H   0  0  0  0  0  0  0  0  0  0  0  0
   10.3587   -2.2894   21.2991 H   0  0  0  0  0  0  0  0  0  0  0  0
    9.8835   -2.1334   22.9812 H   0  0  0  0  0  0  0  0  0  0  0  0
    8.6188    0.1669   23.6558 H   0  0  0  0  0  0  0  0  0  0  0  0
    8.3497    1.3159   22.3560 H   0  0  0  0  0  0  0  0  0  0  0  0
   12.2722   -1.6086   22.8391 H   0  0  0  0  0  0  0  0  0  0  0  0
   11.9765   -0.5528   21.4606 H   0  0  0  0  0  0  0  0  0  0  0  0
   10.7092    1.7607   22.1108 H   0  0  0  0  0  0  0  0  0  0  0  0
   10.3299    1.9230   23.8199 H   0  0  0  0  0  0  0  0  0  0  0  0
    6.4893    0.2968   21.2288 H   0  0  0  0  0  0  0  0  0  0  0  0
    9.4087   -0.1319   20.7098 H   0  0  0  0  0  0  0  0  0  0  0  0
    5.0659    0.4225   17.2997 H   0  0  0  0  0  0  0  0  0  0  0  0
    6.1413   -1.6853   22.6550 H   0  0  0  0  0  0  0  0  0  0  0  0
    7.3013   -0.6225   23.4645 H   0  0  0  0  0  0  0  0  0  0  0  0
    8.0369   -2.1455   21.0849 H   0  0  0  0  0  0  0  0  0  0  0  0
    5.6282   -1.7392   16.8564 H   0  0  0  0  0  0  0  0  0  0  0  0
  1  6  1  0  0  0  0
  1 23  3  0  0  0  0
  2  3  1  0  0  0  0
  2  4  2  0  0  0  0
  3  5  2  0  0  0  0
  4  6  1  0  0  0  0
  5  7  1  0  0  0  0
  6  7  2  0  0  0  0
  7 22  1  0  0  0  0
  8  9  2  0  0  0  0
  9 10  1  0  0  0  0
 10 24  1  0  0  0  0
 10 26  2  0  0  0  0
 11 13  1  0  0  0  0
 11 19  1  0  0  0  0
 12 14  1  0  0  0  0
 12 19  1  0  0  0  0
 13 21  1  0  0  0  0
 14 21  1  0  0  0  0
 15 17  1  0  0  0  0
 15 20  1  0  0  0  0
 16 18  1  0  0  0  0
 16 20  1  0  0  0  0
 17 24  1  0  0  0  0
 18 24  1  0  0  0  0
 19 25  1  0  0  0  0
 20 25  1  0  0  0  0
 21 27  1  0  0  0  0
 22 25  1  0  0  0  0
  2 28  1  0  0  0  0
  3 29  1  0  0  0  0
  4 30  1  0  0  0  0
  5 31  1  0  0  0  0
  8 32  1  0  0  0  0
  8 33  1  0  0  0  0
  9 34  1  0  0  0  0
 11 35  1  0  0  0  0
 11 36  1  0  0  0  0
 12 37  1  0  0  0  0
 12 38  1  0  0  0  0
 13 39  1  0  0  0  0
 13 40  1  0  0  0  0
 14 41  1  0  0  0  0
 14 42  1  0  0  0  0
 15 43  1  0  0  0  0
 15 44  1  0  0  0  0
 16 45  1  0  0  0  0
 16 46  1  0  0  0  0
 17 47  1  0  0  0  0
 17 48  1  0  0  0  0
 18 49  1  0  0  0  0
 18 50  1  0  0  0  0
 19 51  1  0  0  0  0
 20 52  1  0  0  0  0
 21 53  1  0  0  0  0
 22 54  1  0  0  0  0
 22 55  1  0  0  0  0
 25 56  1  0  0  0  0
 27 57  1  0  0  0  0
M  CHG  1  25   1
M  END
> <creator>
Warren Thompson, XChem - Diamond Light Source

> <fragments>
x1418

> <real_space>
FALSE

> <SCR>
FALSE

> <BB>
FALSE

> <link>
https://covid.postera.ai/covid/submissions/72a8c209-a4b2-4e6c-8301-3438755f7985

> <covalent_frag>
TRUE

> <covalent_warhead>
TRUE

> <acrylamide>
TRUE

> <acrylamide_adduct>
FALSE

> <chloroacetamide>
FALSE

> <chloroacetamide_adduct>
FALSE

> <vinylsulfonamide>
FALSE

> <vinylsulfonamide_adduct>
FALSE

> <in_molport_or_mcule>
FALSE

> <in_emolecules>
FALSE

> <Hybrid2>
-4.496875

> <Mpro-x1418_dock>
-4.496875

> <Mpro-x1458_dock>
-2.17666

> <Mpro-x1493_dock>
-2.090913

> <Mpro-x1478_dock>
-0.845337

> <site>
active-covalent

> <covalent_distance_min>
7.6897807

> <covalent_distance_mean>
8.569868

> <covalent_distance_stderr>
0.026589824

$$$$
DAV-CRI-d1e-6
  -OEChem-04062011563D

 40 41  0     0  0  0  0  0  0999 V2000
   13.0842   -0.9971   21.7786 C   0  0  0  0  0  0  0  0  0  0  0  0
   12.7560    0.9586   23.2329 C   0  0  0  0  0  0  0  0  0  0  0  0
   12.3936   -0.3050   22.8212 C   0  0  0  0  0  0  0  0  0  0  0  0
   11.2776   -0.8064   23.5515 C   0  0  0  0  0  0  0  0  0  0  0  0
   10.8297    0.0932   24.4938 C   0  0  0  0  0  0  0  0  0  0  0  0
    6.2115   -2.2383   20.0231 C   0  0  0  0  0  0  0  0  0  0  0  0
    9.3810    0.9798   26.3484 C   0  0  0  0  0  0  0  0  0  0  0  0
    7.2365   -3.2597   22.0298 C   0  0  0  0  0  0  0  0  0  0  0  0
    7.4443   -0.8215   21.7380 C   0  0  0  0  0  0  0  0  0  0  0  0
    8.7266   -3.3731   22.3169 C   0  0  0  0  0  0  0  0  0  0  0  0
    8.9382   -0.8979   22.0229 C   0  0  0  0  0  0  0  0  0  0  0  0
    8.1985    0.5122   27.1594 C   0  0  0  0  0  0  0  0  0  0  0  0
   10.6576   -2.1540   23.3271 C   0  0  0  0  0  0  0  0  0  0  0  0
    5.9624   -0.9856   19.2215 C   0  0  0  0  0  0  0  0  0  0  0  0
   13.6449   -1.5589   20.9320 N   0  0  0  0  0  0  0  0  0  0  0  0
    6.9489   -2.0918   21.1971 N   0  0  0  0  0  0  0  0  0  0  0  0
    9.8022    0.0189   25.3945 N   0  0  0  0  0  0  0  0  0  0  0  0
    9.2104   -2.0776   22.9293 N   0  3  0  0  0  0  0  0  0  0  0  0
    5.7657   -3.3138   19.6151 O   0  0  0  0  0  0  0  0  0  0  0  0
    9.8765    2.0855   26.5404 O   0  0  0  0  0  0  0  0  0  0  0  0
   11.7529    1.5354   24.4952 S   0  0  0  0  0  0  0  0  0  0  0  0
    7.5424   -0.3296   18.8080 Cl  0  0  0  0  0  0  0  0  0  0  0  0
   13.5601    1.5783   22.8592 H   0  0  0  0  0  0  0  0  0  0  0  0
    6.8868   -4.1771   21.5461 H   0  0  0  0  0  0  0  0  0  0  0  0
    6.6690   -3.1475   22.9617 H   0  0  0  0  0  0  0  0  0  0  0  0
    6.8857   -0.6211   22.6604 H   0  0  0  0  0  0  0  0  0  0  0  0
    7.2519    0.0122   21.0607 H   0  0  0  0  0  0  0  0  0  0  0  0
    8.9210   -4.1696   23.0424 H   0  0  0  0  0  0  0  0  0  0  0  0
    9.3083   -3.5529   21.4059 H   0  0  0  0  0  0  0  0  0  0  0  0
    9.5241   -1.0347   21.1070 H   0  0  0  0  0  0  0  0  0  0  0  0
    9.2775    0.0012   22.5472 H   0  0  0  0  0  0  0  0  0  0  0  0
    8.5471   -0.0126   28.0534 H   0  0  0  0  0  0  0  0  0  0  0  0
    7.5876   -0.1713   26.5628 H   0  0  0  0  0  0  0  0  0  0  0  0
    7.5851    1.3690   27.4533 H   0  0  0  0  0  0  0  0  0  0  0  0
   11.1744   -2.6999   22.5304 H   0  0  0  0  0  0  0  0  0  0  0  0
   10.7025   -2.7661   24.2344 H   0  0  0  0  0  0  0  0  0  0  0  0
    5.4149   -0.2790   19.8347 H   0  0  0  0  0  0  0  0  0  0  0  0
    5.4203   -1.2474   18.3200 H   0  0  0  0  0  0  0  0  0  0  0  0
    9.2318   -0.8492   25.4054 H   0  0  0  0  0  0  0  0  0  0  0  0
    8.6760   -1.9282   23.7963 H   0  0  0  0  0  0  0  0  0  0  0  0
  1  3  1  0  0  0  0
  1 15  3  0  0  0  0
  2  3  2  0  0  0  0
  2 21  1  0  0  0  0
  3  4  1  0  0  0  0
  4  5  2  0  0  0  0
  4 13  1  0  0  0  0
  5 17  1  0  0  0  0
  5 21  1  0  0  0  0
  6 14  1  0  0  0  0
  6 16  1  0  0  0  0
  6 19  2  0  0  0  0
  7 12  1  0  0  0  0
  7 17  1  0  0  0  0
  7 20  2  0  0  0  0
  8 10  1  0  0  0  0
  8 16  1  0  0  0  0
  9 11  1  0  0  0  0
  9 16  1  0  0  0  0
 10 18  1  0  0  0  0
 11 18  1  0  0  0  0
 13 18  1  0  0  0  0
 14 22  1  0  0  0  0
  2 23  1  0  0  0  0
  8 24  1  0  0  0  0
  8 25  1  0  0  0  0
  9 26  1  0  0  0  0
  9 27  1  0  0  0  0
 10 28  1  0  0  0  0
 10 29  1  0  0  0  0
 11 30  1  0  0  0  0
 11 31  1  0  0  0  0
 12 32  1  0  0  0  0
 12 33  1  0  0  0  0
 12 34  1  0  0  0  0
 13 35  1  0  0  0  0
 13 36  1  0  0  0  0
 14 37  1  0  0  0  0
 14 38  1  0  0  0  0
 17 39  1  0  0  0  0
 18 40  1  0  0  0  0
M  CHG  1  18   1
M  END
> <creator>
David Briggs, Crick Institute

> <fragments>
x1386

> <real_space>
FALSE

> <SCR>
FALSE

> <BB>
FALSE

> <link>
https://covid.postera.ai/covid/submissions/d1e0885a-4deb-43bc-868d-ea4ea14cd272

> <covalent_frag>
TRUE

> <covalent_warhead>
TRUE

> <acrylamide>
FALSE

> <acrylamide_adduct>
FALSE

> <chloroacetamide>
TRUE

> <chloroacetamide_adduct>
FALSE

> <vinylsulfonamide>
FALSE

> <vinylsulfonamide_adduct>
FALSE

> <in_molport_or_mcule>
FALSE

> <in_emolecules>
FALSE

> <Hybrid2>
-4.480016

> <Mpro-x1386_dock>
-4.480016

> <Mpro-x1418_dock>
-4.412069

> <Mpro-x0305_dock>
-3.930196

> <site>
active-covalent

> <covalent_distance_min>
3.0433517

> <covalent_distance_mean>
3.375388

> <covalent_distance_stderr>
0.014895977

$$$$
DAV-CRI-d1e-2
  -OEChem-04062011563D

 43 44  0     0  0  0  0  0  0999 V2000
   10.9221   -2.7305   23.9708 C   0  0  0  0  0  0  0  0  0  0  0  0
   11.0481    0.9893   23.7455 C   0  0  0  0  0  0  0  0  0  0  0  0
   12.7399   -1.1473   23.6092 C   0  0  0  0  0  0  0  0  0  0  0  0
   11.3929   -1.3896   23.8255 C   0  0  0  0  0  0  0  0  0  0  0  0
   10.5376   -0.2955   23.8937 C   0  0  0  0  0  0  0  0  0  0  0  0
   12.4105    1.1251   23.5330 C   0  0  0  0  0  0  0  0  0  0  0  0
    6.6156   -2.5690   20.1769 C   0  0  0  0  0  0  0  0  0  0  0  0
    6.6835   -1.8103   22.5297 C   0  0  0  0  0  0  0  0  0  0  0  0
    8.7107   -1.5104   21.1534 C   0  0  0  0  0  0  0  0  0  0  0  0
    6.7886   -0.3774   23.0308 C   0  0  0  0  0  0  0  0  0  0  0  0
    8.8452   -0.0730   21.6382 C   0  0  0  0  0  0  0  0  0  0  0  0
   12.8780    4.8433   23.2506 C   0  0  0  0  0  0  0  0  0  0  0  0
    9.0648   -0.4645   24.1248 C   0  0  0  0  0  0  0  0  0  0  0  0
    6.9485   -2.1087   18.7800 C   0  0  0  0  0  0  0  0  0  0  0  0
   12.0832    3.5971   23.4454 C   0  0  0  0  0  0  0  0  0  0  0  0
   10.5396   -3.8198   24.0887 N   0  0  0  0  0  0  0  0  0  0  0  0
   13.2726    0.0863   23.4607 N   0  0  0  0  0  0  0  0  0  0  0  0
    7.3163   -1.9619   21.2190 N   0  0  0  0  0  0  0  0  0  0  0  0
   12.9161    2.4405   23.3841 N   0  0  0  0  0  0  0  0  0  0  0  0
    8.2253    0.0898   23.0064 N   0  3  0  0  0  0  0  0  0  0  0  0
    5.7564   -3.4401   20.3352 O   0  0  0  0  0  0  0  0  0  0  0  0
    6.5617   -0.3931   18.7093 Cl  0  0  0  0  0  0  0  0  0  0  0  0
   10.3957    1.8559   23.7957 H   0  0  0  0  0  0  0  0  0  0  0  0
   13.4606   -1.9577   23.5456 H   0  0  0  0  0  0  0  0  0  0  0  0
    7.1384   -2.4874   23.2607 H   0  0  0  0  0  0  0  0  0  0  0  0
    5.6325   -2.1086   22.4239 H   0  0  0  0  0  0  0  0  0  0  0  0
    9.0309   -1.5959   20.1071 H   0  0  0  0  0  0  0  0  0  0  0  0
    9.3734   -2.1491   21.7413 H   0  0  0  0  0  0  0  0  0  0  0  0
    6.2136    0.3018   22.3820 H   0  0  0  0  0  0  0  0  0  0  0  0
    6.4195   -0.2762   24.0649 H   0  0  0  0  0  0  0  0  0  0  0  0
    9.9005    0.2387   21.7080 H   0  0  0  0  0  0  0  0  0  0  0  0
    8.3180    0.6141   20.9577 H   0  0  0  0  0  0  0  0  0  0  0  0
   13.3723    4.8137   22.2683 H   0  0  0  0  0  0  0  0  0  0  0  0
   12.2096    5.7156   23.2984 H   0  0  0  0  0  0  0  0  0  0  0  0
   13.6386    4.9203   24.0415 H   0  0  0  0  0  0  0  0  0  0  0  0
    8.7983   -1.5222   24.2236 H   0  0  0  0  0  0  0  0  0  0  0  0
    8.7469    0.0467   25.0399 H   0  0  0  0  0  0  0  0  0  0  0  0
    6.3363   -2.6577   18.0737 H   0  0  0  0  0  0  0  0  0  0  0  0
    8.0074   -2.2592   18.6035 H   0  0  0  0  0  0  0  0  0  0  0  0
   11.5924    3.6344   24.4291 H   0  0  0  0  0  0  0  0  0  0  0  0
   11.3192    3.5316   22.6567 H   0  0  0  0  0  0  0  0  0  0  0  0
   13.8998    2.5273   23.2300 H   0  0  0  0  0  0  0  0  0  0  0  0
    8.1884    1.1357   23.1795 H   0  0  0  0  0  0  0  0  0  0  0  0
  1  4  1  0  0  0  0
  1 16  3  0  0  0  0
  2  5  2  0  0  0  0
  2  6  1  0  0  0  0
  3  4  2  0  0  0  0
  3 17  1  0  0  0  0
  4  5  1  0  0  0  0
  5 13  1  0  0  0  0
  6 17  2  0  0  0  0
  6 19  1  0  0  0  0
  7 14  1  0  0  0  0
  7 18  1  0  0  0  0
  7 21  2  0  0  0  0
  8 10  1  0  0  0  0
  8 18  1  0  0  0  0
  9 11  1  0  0  0  0
  9 18  1  0  0  0  0
 10 20  1  0  0  0  0
 11 20  1  0  0  0  0
 12 15  1  0  0  0  0
 13 20  1  0  0  0  0
 14 22  1  0  0  0  0
 15 19  1  0  0  0  0
  2 23  1  0  0  0  0
  3 24  1  0  0  0  0
  8 25  1  0  0  0  0
  8 26  1  0  0  0  0
  9 27  1  0  0  0  0
  9 28  1  0  0  0  0
 10 29  1  0  0  0  0
 10 30  1  0  0  0  0
 11 31  1  0  0  0  0
 11 32  1  0  0  0  0
 12 33  1  0  0  0  0
 12 34  1  0  0  0  0
 12 35  1  0  0  0  0
 13 36  1  0  0  0  0
 13 37  1  0  0  0  0
 14 38  1  0  0  0  0
 14 39  1  0  0  0  0
 15 40  1  0  0  0  0
 15 41  1  0  0  0  0
 19 42  1  0  0  0  0
 20 43  1  0  0  0  0
M  CHG  1  20   1
M  END
> <creator>
David Briggs, Crick Institute

> <fragments>
x1418

> <real_space>
FALSE

> <SCR>
FALSE

> <BB>
FALSE

> <link>
https://covid.postera.ai/covid/submissions/d1e0885a-4deb-43bc-868d-ea4ea14cd272

> <covalent_frag>
TRUE

> <covalent_warhead>
TRUE

> <acrylamide>
FALSE

> <acrylamide_adduct>
FALSE

> <chloroacetamide>
TRUE

> <chloroacetamide_adduct>
FALSE

> <vinylsulfonamide>
FALSE

> <vinylsulfonamide_adduct>
FALSE

> <in_molport_or_mcule>
FALSE

> <in_emolecules>
FALSE

> <Hybrid2>
-4.469190

> <Mpro-x1418_dock>
-4.46919

> <Mpro-x1386_dock>
-3.823133

> <Mpro-x0305_dock>
-3.733008

> <site>
active-covalent

> <covalent_distance_min>
3.0011492

> <covalent_distance_mean>
3.4132035

> <covalent_distance_stderr>
0.020256836

$$$$
STE-LAU-a2c-3
  -OEChem-04062011563D

 65 66  0     0  0  0  0  0  0999 V2000
   13.1961   -0.3003   23.7593 C   0  0  0  0  0  0  0  0  0  0  0  0
    8.4354   -4.1561   24.3236 C   0  0  0  0  0  0  0  0  0  0  0  0
    6.6340   -2.1509   23.6050 C   0  0  0  0  0  0  0  0  0  0  0  0
   13.3926   -1.4455   23.0149 C   0  0  0  0  0  0  0  0  0  0  0  0
    8.8627   -3.0814   23.5438 C   0  0  0  0  0  0  0  0  0  0  0  0
    7.9620   -2.0788   23.1845 C   0  0  0  0  0  0  0  0  0  0  0  0
    7.1074   -4.2282   24.7440 C   0  0  0  0  0  0  0  0  0  0  0  0
    6.2066   -3.2256   24.3847 C   0  0  0  0  0  0  0  0  0  0  0  0
   11.9276   -0.1350   24.2770 C   0  0  0  0  0  0  0  0  0  0  0  0
   11.2380   -2.0904   23.3453 C   0  0  0  0  0  0  0  0  0  0  0  0
    8.6932    2.4935   21.6475 C   0  0  0  0  0  0  0  0  0  0  0  0
    8.5630    1.1816   21.4265 C   0  0  0  0  0  0  0  0  0  0  0  0
   11.6067    1.0343   25.0765 C   0  0  0  0  0  0  0  0  0  0  0  0
    7.8593    0.3120   22.4134 C   0  0  0  0  0  0  0  0  0  0  0  0
    2.7918   -2.9974   23.5613 C   0  0  0  0  0  0  0  0  0  0  0  0
    4.2811   -1.2105   25.9229 C   0  0  0  0  0  0  0  0  0  0  0  0
    5.9912   -6.5147   28.5924 C   0  0  0  0  0  0  0  0  0  0  0  0
    7.0397   -4.5319   29.6739 C   0  0  0  0  0  0  0  0  0  0  0  0
    3.8659   -3.9437   23.9781 C   0  0  0  0  0  0  0  0  0  0  0  0
    4.4535   -2.6853   26.0565 C   0  0  0  0  0  0  0  0  0  0  0  0
    7.6665   -6.1287   26.2610 C   0  0  0  0  0  0  0  0  0  0  0  0
    8.0132   -5.4692   27.5824 C   0  0  0  0  0  0  0  0  0  0  0  0
   12.4322   -2.3654   22.7870 N   0  0  0  0  0  0  0  0  0  0  0  0
   10.9209   -1.0133   24.0889 N   0  0  0  0  0  0  0  0  0  0  0  0
   10.3099    1.1463   25.5720 N   0  0  0  0  0  0  0  0  0  0  0  0
   10.2123   -3.0283   23.1286 N   0  0  0  0  0  0  0  0  0  0  0  0
    8.3673   -0.9926   22.4035 N   0  0  0  0  0  0  0  0  0  0  0  0
    6.7093   -5.2902   25.5053 N   0  0  0  0  0  0  0  0  0  0  0  0
    4.8570   -3.2802   24.7993 N   0  0  0  0  0  0  0  0  0  0  0  0
    6.7609   -5.2424   28.3802 N   0  3  0  0  0  0  0  0  0  0  0  0
   12.4518    1.9197   25.3019 O   0  0  0  0  0  0  0  0  0  0  0  0
    6.9552    0.7499   23.1151 O   0  0  0  0  0  0  0  0  0  0  0  0
   13.9925    0.4151   23.9203 H   0  0  0  0  0  0  0  0  0  0  0  0
    9.1381   -4.9383   24.6032 H   0  0  0  0  0  0  0  0  0  0  0  0
    5.9302   -1.3701   23.3228 H   0  0  0  0  0  0  0  0  0  0  0  0
   14.3570   -1.6617   22.5677 H   0  0  0  0  0  0  0  0  0  0  0  0
    9.1978    3.1563   20.9535 H   0  0  0  0  0  0  0  0  0  0  0  0
    8.2854    2.9343   22.5512 H   0  0  0  0  0  0  0  0  0  0  0  0
    8.9700    0.7403   20.5233 H   0  0  0  0  0  0  0  0  0  0  0  0
    3.2338   -2.1708   22.9857 H   0  0  0  0  0  0  0  0  0  0  0  0
    2.0581   -3.5279   22.9367 H   0  0  0  0  0  0  0  0  0  0  0  0
    2.2907   -2.5955   24.4543 H   0  0  0  0  0  0  0  0  0  0  0  0
    3.5113   -0.9978   25.1666 H   0  0  0  0  0  0  0  0  0  0  0  0
    3.9710   -0.7887   26.8903 H   0  0  0  0  0  0  0  0  0  0  0  0
    5.2342   -0.7566   25.6136 H   0  0  0  0  0  0  0  0  0  0  0  0
    6.6147   -7.1874   29.1842 H   0  0  0  0  0  0  0  0  0  0  0  0
    5.0708   -6.2639   29.1231 H   0  0  0  0  0  0  0  0  0  0  0  0
    5.7746   -6.9418   27.6114 H   0  0  0  0  0  0  0  0  0  0  0  0
    7.6768   -5.1790   30.2796 H   0  0  0  0  0  0  0  0  0  0  0  0
    7.5448   -3.5934   29.4376 H   0  0  0  0  0  0  0  0  0  0  0  0
    6.0833   -4.3494   30.1677 H   0  0  0  0  0  0  0  0  0  0  0  0
    3.4161   -4.7668   24.5527 H   0  0  0  0  0  0  0  0  0  0  0  0
    4.3561   -4.3483   23.0803 H   0  0  0  0  0  0  0  0  0  0  0  0
    5.2244   -2.8896   26.8141 H   0  0  0  0  0  0  0  0  0  0  0  0
    3.4995   -3.1310   26.3747 H   0  0  0  0  0  0  0  0  0  0  0  0
    8.5600   -6.2857   25.6477 H   0  0  0  0  0  0  0  0  0  0  0  0
    7.2003   -7.1031   26.4390 H   0  0  0  0  0  0  0  0  0  0  0  0
    8.4689   -4.4868   27.4294 H   0  0  0  0  0  0  0  0  0  0  0  0
    8.6727   -6.0890   28.1975 H   0  0  0  0  0  0  0  0  0  0  0  0
    9.6353    0.4182   25.3635 H   0  0  0  0  0  0  0  0  0  0  0  0
   10.0243    1.9396   26.1369 H   0  0  0  0  0  0  0  0  0  0  0  0
   10.4927   -3.8230   22.5635 H   0  0  0  0  0  0  0  0  0  0  0  0
    9.1304   -1.1736   21.7419 H   0  0  0  0  0  0  0  0  0  0  0  0
    5.7473   -5.5429   25.5793 H   0  0  0  0  0  0  0  0  0  0  0  0
    6.1605   -4.6205   27.8220 H   0  0  0  0  0  0  0  0  0  0  0  0
  1  4  1  0  0  0  0
  1  9  2  0  0  0  0
  2  5  1  0  0  0  0
  2  7  2  0  0  0  0
  3  6  1  0  0  0  0
  3  8  2  0  0  0  0
  4 23  2  0  0  0  0
  5  6  2  0  0  0  0
  5 26  1  0  0  0  0
  6 27  1  0  0  0  0
  7  8  1  0  0  0  0
  7 28  1  0  0  0  0
  8 29  1  0  0  0  0
  9 13  1  0  0  0  0
  9 24  1  0  0  0  0
 10 23  1  0  0  0  0
 10 24  2  0  0  0  0
 10 26  1  0  0  0  0
 11 12  2  0  0  0  0
 12 14  1  0  0  0  0
 13 25  1  0  0  0  0
 13 31  2  0  0  0  0
 14 27  1  0  0  0  0
 14 32  2  0  0  0  0
 15 19  1  0  0  0  0
 16 20  1  0  0  0  0
 17 30  1  0  0  0  0
 18 30  1  0  0  0  0
 19 29  1  0  0  0  0
 20 29  1  0  0  0  0
 21 22  1  0  0  0  0
 21 28  1  0  0  0  0
 22 30  1  0  0  0  0
  1 33  1  0  0  0  0
  2 34  1  0  0  0  0
  3 35  1  0  0  0  0
  4 36  1  0  0  0  0
 11 37  1  0  0  0  0
 11 38  1  0  0  0  0
 12 39  1  0  0  0  0
 15 40  1  0  0  0  0
 15 41  1  0  0  0  0
 15 42  1  0  0  0  0
 16 43  1  0  0  0  0
 16 44  1  0  0  0  0
 16 45  1  0  0  0  0
 17 46  1  0  0  0  0
 17 47  1  0  0  0  0
 17 48  1  0  0  0  0
 18 49  1  0  0  0  0
 18 50  1  0  0  0  0
 18 51  1  0  0  0  0
 19 52  1  0  0  0  0
 19 53  1  0  0  0  0
 20 54  1  0  0  0  0
 20 55  1  0  0  0  0
 21 56  1  0  0  0  0
 21 57  1  0  0  0  0
 22 58  1  0  0  0  0
 22 59  1  0  0  0  0
 25 60  1  0  0  0  0
 25 61  1  0  0  0  0
 26 62  1  0  0  0  0
 27 63  1  0  0  0  0
 28 64  1  0  0  0  0
 30 65  1  0  0  0  0
M  CHG  1  30   1
M  END
> <creator>
Stefan Siemann, Laurentian University

> <fragments>
x0072

> <real_space>
FALSE

> <SCR>
FALSE

> <BB>
FALSE

> <link>
https://covid.postera.ai/covid/submissions/a2c26472-0684-47f0-a203-fcf5d6ec74a1

> <covalent_frag>
FALSE

> <covalent_warhead>
TRUE

> <acrylamide>
TRUE

> <acrylamide_adduct>
FALSE

> <chloroacetamide>
FALSE

> <chloroacetamide_adduct>
FALSE

> <vinylsulfonamide>
FALSE

> <vinylsulfonamide_adduct>
FALSE

> <in_molport_or_mcule>
FALSE

> <in_emolecules>
FALSE

> <Hybrid2>
-4.441552

> <Mpro-x0072_dock>
-4.441552

> <site>
active-noncovalent

> <covalent_distance_min>
3.3907995

> <covalent_distance_mean>
5.016319

> <covalent_distance_stderr>
0.08693101

$$$$
WAR-XCH-bdd-27
  -OEChem-04062011563D

 60 63  0     0  0  0  0  0  0999 V2000
    6.7277   -4.2826   26.7190 C   0  0  0  0  0  0  0  0  0  0  0  0
    5.8030   -3.8077   27.6969 C   0  0  0  0  0  0  0  0  0  0  0  0
    5.3810   -2.5237   27.4085 C   0  0  0  0  0  0  0  0  0  0  0  0
    6.9648   -3.3504   25.7318 C   0  0  0  0  0  0  0  0  0  0  0  0
    7.9109   -2.3187   23.6698 C   0  0  0  0  0  0  0  0  0  0  0  0
    5.8012   -1.7579   19.0552 C   0  0  0  0  0  0  0  0  0  0  0  0
    5.3342   -4.5460   28.9123 C   0  0  0  0  0  0  0  0  0  0  0  0
    4.3928   -1.7417   28.2160 C   0  0  0  0  0  0  0  0  0  0  0  0
    4.0772   -3.9036   29.5197 C   0  0  0  0  0  0  0  0  0  0  0  0
    4.2071   -2.3757   29.6038 C   0  0  0  0  0  0  0  0  0  0  0  0
    9.6143   -4.7118   25.5796 C   0  0  0  0  0  0  0  0  0  0  0  0
    7.7586   -5.8363   24.2814 C   0  0  0  0  0  0  0  0  0  0  0  0
   10.4601   -5.9808   25.4702 C   0  0  0  0  0  0  0  0  0  0  0  0
    8.6036   -7.1064   24.1733 C   0  0  0  0  0  0  0  0  0  0  0  0
    7.3781   -3.6407   21.6302 C   0  0  0  0  0  0  0  0  0  0  0  0
    8.4989   -1.3674   21.4317 C   0  0  0  0  0  0  0  0  0  0  0  0
    6.0708   -2.9878   21.1849 C   0  0  0  0  0  0  0  0  0  0  0  0
    7.1595   -0.7885   20.9739 C   0  0  0  0  0  0  0  0  0  0  0  0
    8.3466   -2.6408   22.2700 C   0  0  0  0  0  0  0  0  0  0  0  0
    8.6330   -4.5868   24.4121 C   0  0  0  0  0  0  0  0  0  0  0  0
    9.5992   -7.2363   25.3257 C   0  0  0  0  0  0  0  0  0  0  0  0
    6.1230   -0.5232   18.2516 C   0  0  0  0  0  0  0  0  0  0  0  0
    6.3342   -1.8223   20.3420 N   0  0  0  0  0  0  0  0  0  0  0  0
    7.8176   -3.4057   24.5615 N   0  0  0  0  0  0  0  0  0  0  0  0
    7.6983   -1.1362   23.9497 O   0  0  0  0  0  0  0  0  0  0  0  0
    5.0989   -2.6386   18.5519 O   0  0  0  0  0  0  0  0  0  0  0  0
    8.8749   -7.4668   26.5322 O   0  0  0  0  0  0  0  0  0  0  0  0
    6.0774   -1.9074   25.9826 S   0  0  0  0  0  0  0  0  0  0  0  0
    7.6288   -0.8532   17.4023 Cl  0  0  0  0  0  0  0  0  0  0  0  0
    7.1954   -5.2590   26.7430 H   0  0  0  0  0  0  0  0  0  0  0  0
    5.1264   -5.5934   28.6651 H   0  0  0  0  0  0  0  0  0  0  0  0
    6.1404   -4.5389   29.6562 H   0  0  0  0  0  0  0  0  0  0  0  0
    4.7136   -0.7002   28.3319 H   0  0  0  0  0  0  0  0  0  0  0  0
    3.4304   -1.7359   27.6894 H   0  0  0  0  0  0  0  0  0  0  0  0
    3.2025   -4.1556   28.9065 H   0  0  0  0  0  0  0  0  0  0  0  0
    3.8999   -4.3202   30.5176 H   0  0  0  0  0  0  0  0  0  0  0  0
    5.0658   -2.1244   30.2397 H   0  0  0  0  0  0  0  0  0  0  0  0
    3.3188   -1.9498   30.0837 H   0  0  0  0  0  0  0  0  0  0  0  0
    9.0842   -4.6990   26.5347 H   0  0  0  0  0  0  0  0  0  0  0  0
   10.2803   -3.8440   25.5755 H   0  0  0  0  0  0  0  0  0  0  0  0
    7.1483   -5.7454   23.3796 H   0  0  0  0  0  0  0  0  0  0  0  0
    7.0701   -5.9178   25.1241 H   0  0  0  0  0  0  0  0  0  0  0  0
   11.1404   -5.9019   24.6113 H   0  0  0  0  0  0  0  0  0  0  0  0
   11.1135   -6.0770   26.3488 H   0  0  0  0  0  0  0  0  0  0  0  0
    7.9515   -7.9906   24.1461 H   0  0  0  0  0  0  0  0  0  0  0  0
    9.1426   -7.1136   23.2167 H   0  0  0  0  0  0  0  0  0  0  0  0
    7.1538   -4.4563   22.3282 H   0  0  0  0  0  0  0  0  0  0  0  0
    7.8616   -4.0948   20.7558 H   0  0  0  0  0  0  0  0  0  0  0  0
    9.1014   -1.5987   20.5439 H   0  0  0  0  0  0  0  0  0  0  0  0
    9.0465   -0.6033   21.9965 H   0  0  0  0  0  0  0  0  0  0  0  0
    5.4562   -3.7222   20.6546 H   0  0  0  0  0  0  0  0  0  0  0  0
    5.4915   -2.6451   22.0501 H   0  0  0  0  0  0  0  0  0  0  0  0
    6.5928   -0.3985   21.8271 H   0  0  0  0  0  0  0  0  0  0  0  0
    7.3429    0.0546   20.3052 H   0  0  0  0  0  0  0  0  0  0  0  0
    9.3291   -3.1189   22.3689 H   0  0  0  0  0  0  0  0  0  0  0  0
    9.2016   -4.4517   23.4842 H   0  0  0  0  0  0  0  0  0  0  0  0
   10.2456   -8.1079   25.1550 H   0  0  0  0  0  0  0  0  0  0  0  0
    6.2533    0.3130   18.9291 H   0  0  0  0  0  0  0  0  0  0  0  0
    5.3242   -0.3493   17.5398 H   0  0  0  0  0  0  0  0  0  0  0  0
    9.5343   -7.5818   27.2346 H   0  0  0  0  0  0  0  0  0  0  0  0
  1  2  1  0  0  0  0
  1  4  2  0  0  0  0
  2  3  2  0  0  0  0
  2  7  1  0  0  0  0
  3  8  1  0  0  0  0
  3 28  1  0  0  0  0
  4 24  1  0  0  0  0
  4 28  1  0  0  0  0
  5 19  1  0  0  0  0
  5 24  1  0  0  0  0
  5 25  2  0  0  0  0
  6 22  1  0  0  0  0
  6 23  1  0  0  0  0
  6 26  2  0  0  0  0
  7  9  1  0  0  0  0
  8 10  1  0  0  0  0
  9 10  1  0  0  0  0
 11 13  1  0  0  0  0
 11 20  1  0  0  0  0
 12 14  1  0  0  0  0
 12 20  1  0  0  0  0
 13 21  1  0  0  0  0
 14 21  1  0  0  0  0
 15 17  1  0  0  0  0
 15 19  1  0  0  0  0
 16 18  1  0  0  0  0
 16 19  1  0  0  0  0
 17 23  1  0  0  0  0
 18 23  1  0  0  0  0
 20 24  1  0  0  0  0
 21 27  1  0  0  0  0
 22 29  1  0  0  0  0
  1 30  1  0  0  0  0
  7 31  1  0  0  0  0
  7 32  1  0  0  0  0
  8 33  1  0  0  0  0
  8 34  1  0  0  0  0
  9 35  1  0  0  0  0
  9 36  1  0  0  0  0
 10 37  1  0  0  0  0
 10 38  1  0  0  0  0
 11 39  1  0  0  0  0
 11 40  1  0  0  0  0
 12 41  1  0  0  0  0
 12 42  1  0  0  0  0
 13 43  1  0  0  0  0
 13 44  1  0  0  0  0
 14 45  1  0  0  0  0
 14 46  1  0  0  0  0
 15 47  1  0  0  0  0
 15 48  1  0  0  0  0
 16 49  1  0  0  0  0
 16 50  1  0  0  0  0
 17 51  1  0  0  0  0
 17 52  1  0  0  0  0
 18 53  1  0  0  0  0
 18 54  1  0  0  0  0
 19 55  1  0  0  0  0
 20 56  1  0  0  0  0
 21 57  1  0  0  0  0
 22 58  1  0  0  0  0
 22 59  1  0  0  0  0
 27 60  1  0  0  0  0
M  END
> <creator>
Warren Thompson, XChem - Diamond Light Source

> <fragments>
x1334

> <real_space>
FALSE

> <SCR>
FALSE

> <BB>
FALSE

> <link>
https://covid.postera.ai/covid/submissions/bdd24732-f687-4f5f-b96b-e2bd62c18337

> <covalent_frag>
TRUE

> <covalent_warhead>
TRUE

> <acrylamide>
FALSE

> <acrylamide_adduct>
FALSE

> <chloroacetamide>
TRUE

> <chloroacetamide_adduct>
FALSE

> <vinylsulfonamide>
FALSE

> <vinylsulfonamide_adduct>
FALSE

> <in_molport_or_mcule>
FALSE

> <in_emolecules>
FALSE

> <Hybrid2>
-4.384601

> <Mpro-x1334_dock>
-4.384601

> <site>
active-covalent

> <covalent_distance_min>
3.012785

> <covalent_distance_mean>
3.4888964

> <covalent_distance_stderr>
0.032754015

$$$$
FAR-UNI-9a7-2
  -OEChem-04062011563D

 53 54  0     1  0  0  0  0  0999 V2000
    5.5410    0.4434   21.0168 C   0  0  0  0  0  0  0  0  0  0  0  0
    4.4647    1.2243   20.5957 C   0  0  0  0  0  0  0  0  0  0  0  0
    5.2784    1.1202   18.3232 C   0  0  0  0  0  0  0  0  0  0  0  0
    6.4861    0.0010   20.0912 C   0  0  0  0  0  0  0  0  0  0  0  0
    4.3334    1.5627   19.2489 C   0  0  0  0  0  0  0  0  0  0  0  0
    6.3547    0.3393   18.7444 C   0  0  0  0  0  0  0  0  0  0  0  0
    9.9795   -1.9928   25.4285 C   0  0  0  0  0  0  0  0  0  0  0  0
   12.0627   -0.0693   24.1229 C   0  0  0  0  0  0  0  0  0  0  0  0
    7.3887   -3.6032   26.6490 C   0  0  0  0  0  0  0  0  0  0  0  0
    7.8644   -1.2218   21.8190 C   0  0  0  0  0  0  0  0  0  0  0  0
   10.8931   -3.3154   22.7289 C   0  0  0  0  0  0  0  0  0  0  0  0
   11.9643   -2.2375   22.8134 C   0  0  0  0  0  0  0  0  0  0  0  0
   10.0145   -1.4876   24.0163 C   0  0  2  0  0  0  0  0  0  0  0  0
    9.5869   -2.5711   23.0277 C   0  0  1  0  0  0  0  0  0  0  0  0
    8.0317   -0.5107   25.9340 C   0  0  0  0  0  0  0  0  0  0  0  0
   12.0952    2.2285   22.4815 C   0  0  0  0  0  0  0  0  0  0  0  0
   13.4584    0.1213   23.5848 C   0  0  0  0  0  0  0  0  0  0  0  0
    8.3450   -2.5861   27.2278 C   0  0  0  0  0  0  0  0  0  0  0  0
   11.4157   -1.2244   23.7105 N   0  0  0  0  0  0  0  0  0  0  0  0
    7.8278   -4.8972   26.8298 N   0  0  0  0  0  0  0  0  0  0  0  0
    7.5768   -0.7903   20.5211 N   0  0  0  0  0  0  0  0  0  0  0  0
    9.0361   -1.9867   21.8283 N   0  0  0  0  0  0  0  0  0  0  0  0
    8.8306   -1.7070   26.1671 N   0  0  0  0  0  0  0  0  0  0  0  0
   10.9451   -2.6243   25.8660 O   0  0  0  0  0  0  0  0  0  0  0  0
   11.5692    0.7661   24.8823 O   0  0  0  0  0  0  0  0  0  0  0  0
    6.3194   -3.3145   26.1187 O   0  0  0  0  0  0  0  0  0  0  0  0
    7.2094   -0.9861   22.8314 O   0  0  0  0  0  0  0  0  0  0  0  0
    3.2991    2.3119   18.8446 F   0  0  0  0  0  0  0  0  0  0  0  0
    7.2579   -0.0790   17.8461 F   0  0  0  0  0  0  0  0  0  0  0  0
   13.3826    1.0375   22.0361 S   0  0  0  0  0  0  0  0  0  0  0  0
    5.6336    0.1867   22.0691 H   0  0  0  0  0  0  0  0  0  0  0  0
    3.7294    1.5697   21.3164 H   0  0  0  0  0  0  0  0  0  0  0  0
    5.1754    1.3827   17.2746 H   0  0  0  0  0  0  0  0  0  0  0  0
   10.8869   -3.8256   21.7604 H   0  0  0  0  0  0  0  0  0  0  0  0
   11.0698   -4.0742   23.5011 H   0  0  0  0  0  0  0  0  0  0  0  0
   12.9150   -2.6198   23.1957 H   0  0  0  0  0  0  0  0  0  0  0  0
   12.1353   -1.7695   21.8379 H   0  0  0  0  0  0  0  0  0  0  0  0
    9.4190   -0.5698   23.9661 H   0  0  0  0  0  0  0  0  0  0  0  0
    8.8287   -3.2493   23.4352 H   0  0  0  0  0  0  0  0  0  0  0  0
    7.2570   -0.7270   25.1837 H   0  0  0  0  0  0  0  0  0  0  0  0
    7.5541   -0.1999   26.8749 H   0  0  0  0  0  0  0  0  0  0  0  0
    8.6811    0.2981   25.5678 H   0  0  0  0  0  0  0  0  0  0  0  0
   11.9002    2.8974   21.6396 H   0  0  0  0  0  0  0  0  0  0  0  0
   12.4194    2.8216   23.3402 H   0  0  0  0  0  0  0  0  0  0  0  0
   11.1740    1.7003   22.7392 H   0  0  0  0  0  0  0  0  0  0  0  0
   13.9074   -0.8539   23.4199 H   0  0  0  0  0  0  0  0  0  0  0  0
   14.0482    0.6666   24.3158 H   0  0  0  0  0  0  0  0  0  0  0  0
    9.2093   -3.0774   27.6828 H   0  0  0  0  0  0  0  0  0  0  0  0
    7.8253   -1.9787   27.9737 H   0  0  0  0  0  0  0  0  0  0  0  0
    7.2850   -5.6842   26.4903 H   0  0  0  0  0  0  0  0  0  0  0  0
    8.6999   -5.1145   27.3015 H   0  0  0  0  0  0  0  0  0  0  0  0
    8.2272   -1.0780   19.7943 H   0  0  0  0  0  0  0  0  0  0  0  0
    9.5221   -2.1378   20.9493 H   0  0  0  0  0  0  0  0  0  0  0  0
  1  2  2  0  0  0  0
  1  4  1  0  0  0  0
  2  5  1  0  0  0  0
  3  5  2  0  0  0  0
  3  6  1  0  0  0  0
  4  6  2  0  0  0  0
  4 21  1  0  0  0  0
  5 28  1  0  0  0  0
  6 29  1  0  0  0  0
  7 13  1  0  0  0  0
  7 23  1  0  0  0  0
  7 24  2  0  0  0  0
  8 17  1  0  0  0  0
  8 19  1  0  0  0  0
  8 25  2  0  0  0  0
  9 18  1  0  0  0  0
  9 20  1  0  0  0  0
  9 26  2  0  0  0  0
 10 21  1  0  0  0  0
 10 22  1  0  0  0  0
 10 27  2  0  0  0  0
 11 12  1  0  0  0  0
 11 14  1  0  0  0  0
 12 19  1  0  0  0  0
 13 14  1  0  0  0  0
 13 19  1  0  0  0  0
 14 22  1  0  0  0  0
 15 23  1  0  0  0  0
 16 30  1  0  0  0  0
 17 30  1  0  0  0  0
 18 23  1  0  0  0  0
  1 31  1  0  0  0  0
  2 32  1  0  0  0  0
  3 33  1  0  0  0  0
 11 34  1  0  0  0  0
 11 35  1  0  0  0  0
 12 36  1  0  0  0  0
 12 37  1  0  0  0  0
 13 38  1  0  0  0  0
 14 39  1  0  0  0  0
 15 40  1  0  0  0  0
 15 41  1  0  0  0  0
 15 42  1  0  0  0  0
 16 43  1  0  0  0  0
 16 44  1  0  0  0  0
 16 45  1  0  0  0  0
 17 46  1  0  0  0  0
 17 47  1  0  0  0  0
 18 48  1  0  0  0  0
 18 49  1  0  0  0  0
 20 50  1  0  0  0  0
 20 51  1  0  0  0  0
 21 52  1  0  0  0  0
 22 53  1  0  0  0  0
M  END
> <creator>
FARAZ MOHAMMADALI SHAIKH, University of Macau

> <fragments>
x1093

> <real_space>
FALSE

> <SCR>
FALSE

> <BB>
FALSE

> <link>
https://covid.postera.ai/covid/submissions/9a76d7b5-c481-48ba-86bc-155635d68654

> <covalent_frag>
TRUE

> <covalent_warhead>
TRUE

> <acrylamide>
FALSE

> <acrylamide_adduct>
FALSE

> <chloroacetamide>
FALSE

> <chloroacetamide_adduct>
TRUE

> <vinylsulfonamide>
FALSE

> <vinylsulfonamide_adduct>
FALSE

> <in_molport_or_mcule>
TRUE

> <in_emolecules>
TRUE

> <Hybrid2>
-4.340620

> <Mpro-x1093_dock>
-4.34062

> <Mpro-x1375_dock>
0.307799

> <site>
active-noncovalent

> <covalent_distance_min>
6.6457086

> <covalent_distance_mean>
7.8649063

> <covalent_distance_stderr>
0.09046617

$$$$
DAV-CRI-d1e-3
  -OEChem-04062011563D

 41 42  0     0  0  0  0  0  0999 V2000
    9.3644   -0.6166   24.9524 C   0  0  0  0  0  0  0  0  0  0  0  0
   12.3126   -1.0550   22.7120 C   0  0  0  0  0  0  0  0  0  0  0  0
   11.4690    0.5907   24.7184 C   0  0  0  0  0  0  0  0  0  0  0  0
   10.6320   -0.4385   24.3183 C   0  0  0  0  0  0  0  0  0  0  0  0
   11.0693   -1.2725   23.2953 C   0  0  0  0  0  0  0  0  0  0  0  0
   13.0742    0.0020   23.1839 C   0  0  0  0  0  0  0  0  0  0  0  0
    6.1265   -1.7526   19.1342 C   0  0  0  0  0  0  0  0  0  0  0  0
    6.6874   -2.6320   21.3777 C   0  0  0  0  0  0  0  0  0  0  0  0
    7.6828   -0.4836   20.6947 C   0  0  0  0  0  0  0  0  0  0  0  0
    8.0485   -3.1437   21.8261 C   0  0  0  0  0  0  0  0  0  0  0  0
    9.0596   -0.9625   21.1349 C   0  0  0  0  0  0  0  0  0  0  0  0
   10.2288   -2.4118   22.7987 C   0  0  0  0  0  0  0  0  0  0  0  0
    6.3269   -0.6649   18.1093 C   0  0  0  0  0  0  0  0  0  0  0  0
   15.2189    1.2632   22.9726 C   0  0  0  0  0  0  0  0  0  0  0  0
    8.3346   -0.7614   25.4676 N   0  0  0  0  0  0  0  0  0  0  0  0
   12.6831    0.8333   24.1757 N   0  0  0  0  0  0  0  0  0  0  0  0
    6.8252   -1.6172   20.3330 N   0  0  0  0  0  0  0  0  0  0  0  0
   14.3387    0.2113   22.5795 N   0  0  0  0  0  0  0  0  0  0  0  0
    8.9006   -1.9691   22.2524 N   0  3  0  0  0  0  0  0  0  0  0  0
    5.3734   -2.6946   18.8743 O   0  0  0  0  0  0  0  0  0  0  0  0
   16.0141    1.6430   21.8558 O   0  0  0  0  0  0  0  0  0  0  0  0
    5.0769    0.5391   18.4016 Cl  0  0  0  0  0  0  0  0  0  0  0  0
   12.6710   -1.6957   21.9119 H   0  0  0  0  0  0  0  0  0  0  0  0
   11.1871    1.2773   25.5117 H   0  0  0  0  0  0  0  0  0  0  0  0
    6.0792   -3.4713   21.0259 H   0  0  0  0  0  0  0  0  0  0  0  0
    6.1506   -2.1710   22.2157 H   0  0  0  0  0  0  0  0  0  0  0  0
    7.1834    0.0550   21.5092 H   0  0  0  0  0  0  0  0  0  0  0  0
    7.7967    0.2208   19.8690 H   0  0  0  0  0  0  0  0  0  0  0  0
    7.9467   -3.8046   22.6929 H   0  0  0  0  0  0  0  0  0  0  0  0
    8.5761   -3.6681   21.0214 H   0  0  0  0  0  0  0  0  0  0  0  0
    9.6052   -1.4490   20.3186 H   0  0  0  0  0  0  0  0  0  0  0  0
    9.6505   -0.1291   21.5285 H   0  0  0  0  0  0  0  0  0  0  0  0
   10.7346   -2.9554   21.9936 H   0  0  0  0  0  0  0  0  0  0  0  0
   10.0164   -3.1260   23.6015 H   0  0  0  0  0  0  0  0  0  0  0  0
    6.2103   -1.0896   17.1187 H   0  0  0  0  0  0  0  0  0  0  0  0
    7.3076   -0.2254   18.2505 H   0  0  0  0  0  0  0  0  0  0  0  0
   15.8947    0.9376   23.7699 H   0  0  0  0  0  0  0  0  0  0  0  0
   14.6603    2.1455   23.3018 H   0  0  0  0  0  0  0  0  0  0  0  0
   14.5969   -0.4184   21.8485 H   0  0  0  0  0  0  0  0  0  0  0  0
    8.4096   -1.4963   23.0238 H   0  0  0  0  0  0  0  0  0  0  0  0
   15.4042    1.9429   21.1604 H   0  0  0  0  0  0  0  0  0  0  0  0
  1  4  1  0  0  0  0
  1 15  3  0  0  0  0
  2  5  1  0  0  0  0
  2  6  2  0  0  0  0
  3  4  1  0  0  0  0
  3 16  2  0  0  0  0
  4  5  2  0  0  0  0
  5 12  1  0  0  0  0
  6 16  1  0  0  0  0
  6 18  1  0  0  0  0
  7 13  1  0  0  0  0
  7 17  1  0  0  0  0
  7 20  2  0  0  0  0
  8 10  1  0  0  0  0
  8 17  1  0  0  0  0
  9 11  1  0  0  0  0
  9 17  1  0  0  0  0
 10 19  1  0  0  0  0
 11 19  1  0  0  0  0
 12 19  1  0  0  0  0
 13 22  1  0  0  0  0
 14 18  1  0  0  0  0
 14 21  1  0  0  0  0
  2 23  1  0  0  0  0
  3 24  1  0  0  0  0
  8 25  1  0  0  0  0
  8 26  1  0  0  0  0
  9 27  1  0  0  0  0
  9 28  1  0  0  0  0
 10 29  1  0  0  0  0
 10 30  1  0  0  0  0
 11 31  1  0  0  0  0
 11 32  1  0  0  0  0
 12 33  1  0  0  0  0
 12 34  1  0  0  0  0
 13 35  1  0  0  0  0
 13 36  1  0  0  0  0
 14 37  1  0  0  0  0
 14 38  1  0  0  0  0
 18 39  1  0  0  0  0
 19 40  1  0  0  0  0
 21 41  1  0  0  0  0
M  CHG  1  19   1
M  END
> <creator>
David Briggs, Crick Institute

> <fragments>
x1386

> <real_space>
FALSE

> <SCR>
FALSE

> <BB>
FALSE

> <link>
https://covid.postera.ai/covid/submissions/d1e0885a-4deb-43bc-868d-ea4ea14cd272

> <covalent_frag>
TRUE

> <covalent_warhead>
TRUE

> <acrylamide>
FALSE

> <acrylamide_adduct>
FALSE

> <chloroacetamide>
TRUE

> <chloroacetamide_adduct>
FALSE

> <vinylsulfonamide>
FALSE

> <vinylsulfonamide_adduct>
FALSE

> <in_molport_or_mcule>
FALSE

> <in_emolecules>
FALSE

> <Hybrid2>
-4.328671

> <Mpro-x1386_dock>
-4.328671

> <Mpro-x1418_dock>
-3.674369

> <Mpro-x0305_dock>
-3.43684

> <site>
active-covalent

> <covalent_distance_min>
3.1093354

> <covalent_distance_mean>
3.6008892

> <covalent_distance_stderr>
0.03563653

$$$$
JAN-GHE-bf4-4
  -OEChem-04062011563D

 61 65  0     1  0  0  0  0  0999 V2000
    6.5640    5.4269   27.1986 C   0  0  0  0  0  0  0  0  0  0  0  0
   13.7669   -2.9268   21.0016 C   0  0  0  0  0  0  0  0  0  0  0  0
   13.2376   -4.0664   21.6071 C   0  0  0  0  0  0  0  0  0  0  0  0
    7.8069    3.5835   26.1653 C   0  0  0  0  0  0  0  0  0  0  0  0
   13.2890   -1.6643   21.3531 C   0  0  0  0  0  0  0  0  0  0  0  0
   10.7462    0.3501   21.9434 C   0  0  0  0  0  0  0  0  0  0  0  0
   12.4167    0.5002   23.6824 C   0  0  0  0  0  0  0  0  0  0  0  0
   10.2913    1.6276   22.2702 C   0  0  0  0  0  0  0  0  0  0  0  0
   11.9618    1.7777   24.0091 C   0  0  0  0  0  0  0  0  0  0  0  0
   12.2303   -3.9436   22.5641 C   0  0  0  0  0  0  0  0  0  0  0  0
    8.7767    3.1425   25.2718 C   0  0  0  0  0  0  0  0  0  0  0  0
    8.2914    5.8173   25.5077 C   0  0  0  0  0  0  0  0  0  0  0  0
    7.5535    4.9448   26.2915 C   0  0  0  0  0  0  0  0  0  0  0  0
   11.8088   -0.2136   22.6496 C   0  0  0  0  0  0  0  0  0  0  0  0
   12.2817   -1.5415   22.3101 C   0  0  0  0  0  0  0  0  0  0  0  0
   10.8991    2.3414   23.3030 C   0  0  0  0  0  0  0  0  0  0  0  0
   11.7523   -2.6811   22.9156 C   0  0  0  0  0  0  0  0  0  0  0  0
    9.4596    4.0955   24.5336 C   0  0  0  0  0  0  0  0  0  0  0  0
    7.7091    0.2079   18.5750 C   0  0  0  0  0  0  0  0  0  0  0  0
    6.4204   -0.1347   18.6304 C   0  0  0  0  0  0  0  0  0  0  0  0
    6.0472   -1.4029   19.2880 C   0  0  0  0  0  0  0  0  0  0  0  0
    6.0741   -2.7448   21.3678 C   0  0  0  0  0  0  0  0  0  0  0  0
    7.0830   -0.5588   21.4602 C   0  0  0  0  0  0  0  0  0  0  0  0
    8.3149   -3.1488   22.5486 C   0  0  0  0  0  0  0  0  0  0  0  0
    8.2933   -1.0042   23.6830 C   0  0  0  0  0  0  0  0  0  0  0  0
    6.8740   -2.6393   22.6565 C   0  0  1  0  0  0  0  0  0  0  0  0
    7.0149   -1.1351   22.8754 C   0  0  2  0  0  0  0  0  0  0  0  0
    5.7589    5.8192   27.9366 N   0  0  0  0  0  0  0  0  0  0  0  0
    9.2413    5.4263   24.6289 N   0  0  0  0  0  0  0  0  0  0  0  0
    6.3895   -1.5343   20.6205 N   0  0  0  0  0  0  0  0  0  0  0  0
    9.1658   -2.0929   23.1700 N   0  0  0  0  0  0  0  0  0  0  0  0
   10.4393    3.6330   23.6334 N   0  0  0  0  0  0  0  0  0  0  0  0
    5.4648   -2.2630   18.6280 O   0  0  0  0  0  0  0  0  0  0  0  0
   10.2388   -3.9280   24.6267 O   0  0  0  0  0  0  0  0  0  0  0  0
   10.8256   -1.5151   25.0524 O   0  0  0  0  0  0  0  0  0  0  0  0
   10.4747   -2.5830   24.1335 S   0  0  0  0  0  0  0  0  0  0  0  0
   14.5518   -3.0227   20.2569 H   0  0  0  0  0  0  0  0  0  0  0  0
   13.6103   -5.0492   21.3340 H   0  0  0  0  0  0  0  0  0  0  0  0
    7.2569    2.8554   26.7561 H   0  0  0  0  0  0  0  0  0  0  0  0
   13.7131   -0.7866   20.8708 H   0  0  0  0  0  0  0  0  0  0  0  0
   10.2621   -0.1937   21.1357 H   0  0  0  0  0  0  0  0  0  0  0  0
   13.2460    0.0742   24.2421 H   0  0  0  0  0  0  0  0  0  0  0  0
    9.4625    2.0576   21.7135 H   0  0  0  0  0  0  0  0  0  0  0  0
   12.4428    2.3249   24.8158 H   0  0  0  0  0  0  0  0  0  0  0  0
   11.8268   -4.8395   23.0287 H   0  0  0  0  0  0  0  0  0  0  0  0
    8.9802    2.0819   25.1661 H   0  0  0  0  0  0  0  0  0  0  0  0
    8.1406    6.8918   25.5589 H   0  0  0  0  0  0  0  0  0  0  0  0
    8.0449    1.1264   18.1055 H   0  0  0  0  0  0  0  0  0  0  0  0
    8.4636   -0.4401   19.0085 H   0  0  0  0  0  0  0  0  0  0  0  0
    5.6392    0.4851   18.2101 H   0  0  0  0  0  0  0  0  0  0  0  0
    6.3024   -3.6384   20.7778 H   0  0  0  0  0  0  0  0  0  0  0  0
    4.9969   -2.7271   21.5706 H   0  0  0  0  0  0  0  0  0  0  0  0
    6.5901    0.4169   21.3968 H   0  0  0  0  0  0  0  0  0  0  0  0
    8.1094   -0.4582   21.0883 H   0  0  0  0  0  0  0  0  0  0  0  0
    8.4382   -4.0989   23.0857 H   0  0  0  0  0  0  0  0  0  0  0  0
    8.6178   -3.3048   21.5022 H   0  0  0  0  0  0  0  0  0  0  0  0
    8.7487   -0.0205   23.5770 H   0  0  0  0  0  0  0  0  0  0  0  0
    8.1041   -1.2002   24.7396 H   0  0  0  0  0  0  0  0  0  0  0  0
    6.3597   -3.1236   23.5014 H   0  0  0  0  0  0  0  0  0  0  0  0
    6.1531   -0.7196   23.4047 H   0  0  0  0  0  0  0  0  0  0  0  0
   10.9066    4.3747   23.1204 H   0  0  0  0  0  0  0  0  0  0  0  0
  1 13  1  0  0  0  0
  1 28  3  0  0  0  0
  2  3  1  0  0  0  0
  2  5  2  0  0  0  0
  3 10  2  0  0  0  0
  4 11  2  0  0  0  0
  4 13  1  0  0  0  0
  5 15  1  0  0  0  0
  6  8  2  0  0  0  0
  6 14  1  0  0  0  0
  7  9  1  0  0  0  0
  7 14  2  0  0  0  0
  8 16  1  0  0  0  0
  9 16  2  0  0  0  0
 10 17  1  0  0  0  0
 11 18  1  0  0  0  0
 12 13  2  0  0  0  0
 12 29  1  0  0  0  0
 14 15  1  0  0  0  0
 15 17  2  0  0  0  0
 16 32  1  0  0  0  0
 17 36  1  0  0  0  0
 18 29  2  0  0  0  0
 18 32  1  0  0  0  0
 19 20  2  0  0  0  0
 20 21  1  0  0  0  0
 21 30  1  0  0  0  0
 21 33  2  0  0  0  0
 22 26  1  0  0  0  0
 22 30  1  0  0  0  0
 23 27  1  0  0  0  0
 23 30  1  0  0  0  0
 24 26  1  0  0  0  0
 24 31  1  0  0  0  0
 25 27  1  0  0  0  0
 25 31  1  0  0  0  0
 26 27  1  0  0  0  0
 31 36  1  0  0  0  0
 34 36  2  0  0  0  0
 35 36  2  0  0  0  0
  2 37  1  0  0  0  0
  3 38  1  0  0  0  0
  4 39  1  0  0  0  0
  5 40  1  0  0  0  0
  6 41  1  0  0  0  0
  7 42  1  0  0  0  0
  8 43  1  0  0  0  0
  9 44  1  0  0  0  0
 10 45  1  0  0  0  0
 11 46  1  0  0  0  0
 12 47  1  0  0  0  0
 19 48  1  0  0  0  0
 19 49  1  0  0  0  0
 20 50  1  0  0  0  0
 22 51  1  0  0  0  0
 22 52  1  0  0  0  0
 23 53  1  0  0  0  0
 23 54  1  0  0  0  0
 24 55  1  0  0  0  0
 24 56  1  0  0  0  0
 25 57  1  0  0  0  0
 25 58  1  0  0  0  0
 26 59  1  0  0  0  0
 27 60  1  0  0  0  0
 32 61  1  0  0  0  0
M  END
> <creator>
Jan, Ghent university

> <fragments>
x0692

> <real_space>
FALSE

> <SCR>
FALSE

> <BB>
FALSE

> <link>
https://covid.postera.ai/covid/submissions/bf40f168-4eec-438e-a3f5-b4da0b83bc9c

> <covalent_frag>
TRUE

> <covalent_warhead>
TRUE

> <acrylamide>
TRUE

> <acrylamide_adduct>
FALSE

> <chloroacetamide>
FALSE

> <chloroacetamide_adduct>
FALSE

> <vinylsulfonamide>
FALSE

> <vinylsulfonamide_adduct>
FALSE

> <in_molport_or_mcule>
FALSE

> <in_emolecules>
FALSE

> <Hybrid2>
-4.306818

> <Mpro-x0692_dock>
-4.306818

> <Mpro-x0305_dock>
-0.462308

> <Mpro-x0755_dock>
1.543264

> <site>
active-covalent

> <covalent_distance_min>
2.927215

> <covalent_distance_mean>
4.0950265

> <covalent_distance_stderr>
0.0756544

$$$$
STE-LAU-a2c-1
  -OEChem-04062011563D

 59 60  0     0  0  0  0  0  0999 V2000
    5.6369   -4.2296   27.2880 C   0  0  0  0  0  0  0  0  0  0  0  0
   10.3770   -0.4499   25.3428 C   0  0  0  0  0  0  0  0  0  0  0  0
   10.5934   -2.3489   23.3107 C   0  0  0  0  0  0  0  0  0  0  0  0
    5.2408   -2.9205   27.1041 C   0  0  0  0  0  0  0  0  0  0  0  0
    9.3538   -1.3765   25.1424 C   0  0  0  0  0  0  0  0  0  0  0  0
    9.4620   -2.3260   24.1264 C   0  0  0  0  0  0  0  0  0  0  0  0
   11.5083   -0.4727   24.5271 C   0  0  0  0  0  0  0  0  0  0  0  0
   11.6165   -1.4223   23.5111 C   0  0  0  0  0  0  0  0  0  0  0  0
    6.9597   -4.4988   27.0017 C   0  0  0  0  0  0  0  0  0  0  0  0
    7.3297   -2.3303   26.4295 C   0  0  0  0  0  0  0  0  0  0  0  0
    6.9198   -6.0811   22.1868 C   0  0  0  0  0  0  0  0  0  0  0  0
    7.1480   -5.0691   23.0298 C   0  0  0  0  0  0  0  0  0  0  0  0
    7.4868   -5.8431   27.1588 C   0  0  0  0  0  0  0  0  0  0  0  0
    8.4062   -4.2731   22.9368 C   0  0  0  0  0  0  0  0  0  0  0  0
   12.7844   -0.6949   21.4454 C   0  0  0  0  0  0  0  0  0  0  0  0
   13.9053   -2.2591   23.0407 C   0  0  0  0  0  0  0  0  0  0  0  0
   10.1691    2.7127   23.7494 C   0  0  0  0  0  0  0  0  0  0  0  0
   11.8673    3.9380   22.4021 C   0  0  0  0  0  0  0  0  0  0  0  0
   12.2656    1.7068   25.4768 C   0  0  0  0  0  0  0  0  0  0  0  0
   12.5128    2.8981   24.5706 C   0  0  0  0  0  0  0  0  0  0  0  0
    6.0639   -1.9416   26.6746 N   0  0  0  0  0  0  0  0  0  0  0  0
    7.8372   -3.5699   26.5687 N   0  0  0  0  0  0  0  0  0  0  0  0
    8.8294   -6.0540   26.8545 N   0  0  0  0  0  0  0  0  0  0  0  0
    8.2166   -1.3352   25.9799 N   0  0  0  0  0  0  0  0  0  0  0  0
    8.4493   -3.2641   23.9065 N   0  0  0  0  0  0  0  0  0  0  0  0
   12.4977    0.4449   24.7392 N   0  0  0  0  0  0  0  0  0  0  0  0
   12.7536   -1.4619   22.6732 N   0  0  0  0  0  0  0  0  0  0  0  0
   11.6181    2.8141   23.3670 N   0  3  0  0  0  0  0  0  0  0  0  0
    6.7652   -6.7844   27.5359 O   0  0  0  0  0  0  0  0  0  0  0  0
    9.2563   -4.5248   22.0909 O   0  0  0  0  0  0  0  0  0  0  0  0
    4.9463   -4.9877   27.6347 H   0  0  0  0  0  0  0  0  0  0  0  0
   10.2921    0.2910   26.1351 H   0  0  0  0  0  0  0  0  0  0  0  0
   10.6771   -3.0880   22.5162 H   0  0  0  0  0  0  0  0  0  0  0  0
    4.2197   -2.6133   27.3034 H   0  0  0  0  0  0  0  0  0  0  0  0
    6.0176   -6.6815   22.2242 H   0  0  0  0  0  0  0  0  0  0  0  0
    7.6532   -6.3299   21.4269 H   0  0  0  0  0  0  0  0  0  0  0  0
    6.4153   -4.8196   23.7895 H   0  0  0  0  0  0  0  0  0  0  0  0
   13.7461   -0.8555   20.9361 H   0  0  0  0  0  0  0  0  0  0  0  0
   11.9634   -1.0200   20.7894 H   0  0  0  0  0  0  0  0  0  0  0  0
   12.6667    0.3738   21.6778 H   0  0  0  0  0  0  0  0  0  0  0  0
   14.6816   -2.1610   22.2676 H   0  0  0  0  0  0  0  0  0  0  0  0
   14.3017   -1.9078   24.0048 H   0  0  0  0  0  0  0  0  0  0  0  0
   13.6075   -3.3143   23.1293 H   0  0  0  0  0  0  0  0  0  0  0  0
    9.8964    3.6318   24.2713 H   0  0  0  0  0  0  0  0  0  0  0  0
    9.5889    2.5951   22.8322 H   0  0  0  0  0  0  0  0  0  0  0  0
   10.0553    1.8435   24.4000 H   0  0  0  0  0  0  0  0  0  0  0  0
   11.6166    4.8730   22.9066 H   0  0  0  0  0  0  0  0  0  0  0  0
   12.9228    3.9124   22.1246 H   0  0  0  0  0  0  0  0  0  0  0  0
   11.2286    3.7786   21.5313 H   0  0  0  0  0  0  0  0  0  0  0  0
   12.9218    1.7301   26.3531 H   0  0  0  0  0  0  0  0  0  0  0  0
   11.2287    1.7113   25.8278 H   0  0  0  0  0  0  0  0  0  0  0  0
   13.5405    2.9070   24.1965 H   0  0  0  0  0  0  0  0  0  0  0  0
   12.2923    3.8498   25.0634 H   0  0  0  0  0  0  0  0  0  0  0  0
    9.3937   -5.2736   26.5362 H   0  0  0  0  0  0  0  0  0  0  0  0
    9.2562   -6.9704   26.9439 H   0  0  0  0  0  0  0  0  0  0  0  0
    7.9999   -0.4046   26.3215 H   0  0  0  0  0  0  0  0  0  0  0  0
    7.6383   -3.2062   24.5323 H   0  0  0  0  0  0  0  0  0  0  0  0
   13.4236    0.2964   24.3994 H   0  0  0  0  0  0  0  0  0  0  0  0
   11.8588    1.9418   22.8771 H   0  0  0  0  0  0  0  0  0  0  0  0
  1  4  1  0  0  0  0
  1  9  2  0  0  0  0
  2  5  1  0  0  0  0
  2  7  2  0  0  0  0
  3  6  1  0  0  0  0
  3  8  2  0  0  0  0
  4 21  2  0  0  0  0
  5  6  2  0  0  0  0
  5 24  1  0  0  0  0
  6 25  1  0  0  0  0
  7  8  1  0  0  0  0
  7 26  1  0  0  0  0
  8 27  1  0  0  0  0
  9 13  1  0  0  0  0
  9 22  1  0  0  0  0
 10 21  1  0  0  0  0
 10 22  2  0  0  0  0
 10 24  1  0  0  0  0
 11 12  2  0  0  0  0
 12 14  1  0  0  0  0
 13 23  1  0  0  0  0
 13 29  2  0  0  0  0
 14 25  1  0  0  0  0
 14 30  2  0  0  0  0
 15 27  1  0  0  0  0
 16 27  1  0  0  0  0
 17 28  1  0  0  0  0
 18 28  1  0  0  0  0
 19 20  1  0  0  0  0
 19 26  1  0  0  0  0
 20 28  1  0  0  0  0
  1 31  1  0  0  0  0
  2 32  1  0  0  0  0
  3 33  1  0  0  0  0
  4 34  1  0  0  0  0
 11 35  1  0  0  0  0
 11 36  1  0  0  0  0
 12 37  1  0  0  0  0
 15 38  1  0  0  0  0
 15 39  1  0  0  0  0
 15 40  1  0  0  0  0
 16 41  1  0  0  0  0
 16 42  1  0  0  0  0
 16 43  1  0  0  0  0
 17 44  1  0  0  0  0
 17 45  1  0  0  0  0
 17 46  1  0  0  0  0
 18 47  1  0  0  0  0
 18 48  1  0  0  0  0
 18 49  1  0  0  0  0
 19 50  1  0  0  0  0
 19 51  1  0  0  0  0
 20 52  1  0  0  0  0
 20 53  1  0  0  0  0
 23 54  1  0  0  0  0
 23 55  1  0  0  0  0
 24 56  1  0  0  0  0
 25 57  1  0  0  0  0
 26 58  1  0  0  0  0
 28 59  1  0  0  0  0
M  CHG  1  28   1
M  END
> <creator>
Stefan Siemann, Laurentian University

> <fragments>
x0072

> <real_space>
FALSE

> <SCR>
FALSE

> <BB>
FALSE

> <link>
https://covid.postera.ai/covid/submissions/a2c26472-0684-47f0-a203-fcf5d6ec74a1

> <covalent_frag>
FALSE

> <covalent_warhead>
TRUE

> <acrylamide>
TRUE

> <acrylamide_adduct>
FALSE

> <chloroacetamide>
FALSE

> <chloroacetamide_adduct>
FALSE

> <vinylsulfonamide>
FALSE

> <vinylsulfonamide_adduct>
FALSE

> <in_molport_or_mcule>
FALSE

> <in_emolecules>
FALSE

> <Hybrid2>
-4.297851

> <Mpro-x0072_dock>
-4.297851

> <site>
active-noncovalent

> <covalent_distance_min>
5.492148

> <covalent_distance_mean>
6.4936647

> <covalent_distance_stderr>
0.050274402

$$$$
MAK-UNK-e4a-18
  -OEChem-04062011563D

 68 70  0     0  0  0  0  0  0999 V2000
   10.7512   -1.3474   25.3148 C   0  0  0  0  0  0  0  0  0  0  0  0
   10.9601   -0.0966   24.7341 C   0  0  0  0  0  0  0  0  0  0  0  0
   11.4520   -2.4164   23.2646 C   0  0  0  0  0  0  0  0  0  0  0  0
   10.9972   -2.5073   24.5801 C   0  0  0  0  0  0  0  0  0  0  0  0
   11.6608   -1.1655   22.6838 C   0  0  0  0  0  0  0  0  0  0  0  0
   11.4148   -0.0056   23.4186 C   0  0  0  0  0  0  0  0  0  0  0  0
    5.7787   -6.2307   25.5182 C   0  0  0  0  0  0  0  0  0  0  0  0
    5.1094    1.4626   19.0578 C   0  0  0  0  0  0  0  0  0  0  0  0
    7.2589    0.3639   18.3498 C   0  0  0  0  0  0  0  0  0  0  0  0
    7.7415   -5.5100   26.8408 C   0  0  0  0  0  0  0  0  0  0  0  0
    6.9559   -4.0288   25.0347 C   0  0  0  0  0  0  0  0  0  0  0  0
    5.6081    1.5068   20.4938 C   0  0  0  0  0  0  0  0  0  0  0  0
    7.7528    0.4108   19.7873 C   0  0  0  0  0  0  0  0  0  0  0  0
    9.1727   -5.4012   26.3356 C   0  0  0  0  0  0  0  0  0  0  0  0
    8.3766   -3.8961   24.5030 C   0  0  0  0  0  0  0  0  0  0  0  0
    5.7350    0.3104   18.2772 C   0  0  0  0  0  0  0  0  0  0  0  0
   12.1483   -1.0971   21.2731 C   0  0  0  0  0  0  0  0  0  0  0  0
   10.7725   -3.8526   25.2053 C   0  0  0  0  0  0  0  0  0  0  0  0
    4.8350   -5.9339   24.3802 C   0  0  0  0  0  0  0  0  0  0  0  0
   11.0157    2.4568   23.3632 C   0  0  0  0  0  0  0  0  0  0  0  0
    9.4992    2.4094   23.2826 C   0  0  0  0  0  0  0  0  0  0  0  0
    7.6602    1.7477   21.8906 C   0  0  0  0  0  0  0  0  0  0  0  0
    6.7833   -5.2939   25.7567 N   0  0  0  0  0  0  0  0  0  0  0  0
   11.6206    1.2693   22.8470 N   0  0  0  0  0  0  0  0  0  0  0  0
    9.0365    2.2430   21.9314 N   0  0  0  0  0  0  0  0  0  0  0  0
    9.3519   -4.0671   25.6462 N   0  3  0  0  0  0  0  0  0  0  0  0
    7.1171    1.5829   20.4978 N   0  3  0  0  0  0  0  0  0  0  0  0
    5.6275   -7.2655   26.1726 O   0  0  0  0  0  0  0  0  0  0  0  0
    5.3148    0.3963   16.9204 O   0  0  0  0  0  0  0  0  0  0  0  0
    5.5574   -6.6274   22.9328 Cl  0  0  0  0  0  0  0  0  0  0  0  0
   10.3967   -1.4087   26.3404 H   0  0  0  0  0  0  0  0  0  0  0  0
   10.7650    0.8005   25.3163 H   0  0  0  0  0  0  0  0  0  0  0  0
   11.6435   -3.3214   22.6927 H   0  0  0  0  0  0  0  0  0  0  0  0
    4.0171    1.3633   19.0461 H   0  0  0  0  0  0  0  0  0  0  0  0
    5.3226    2.4149   18.5544 H   0  0  0  0  0  0  0  0  0  0  0  0
    7.6278    1.2366   17.7950 H   0  0  0  0  0  0  0  0  0  0  0  0
    7.6830   -0.5089   17.8392 H   0  0  0  0  0  0  0  0  0  0  0  0
    7.5905   -6.4907   27.3027 H   0  0  0  0  0  0  0  0  0  0  0  0
    7.5432   -4.7546   27.6109 H   0  0  0  0  0  0  0  0  0  0  0  0
    6.7308   -3.2190   25.7393 H   0  0  0  0  0  0  0  0  0  0  0  0
    6.2536   -3.9343   24.2048 H   0  0  0  0  0  0  0  0  0  0  0  0
    5.2355    2.3989   21.0031 H   0  0  0  0  0  0  0  0  0  0  0  0
    5.3201    0.6116   21.0522 H   0  0  0  0  0  0  0  0  0  0  0  0
    7.4864   -0.4950   20.3389 H   0  0  0  0  0  0  0  0  0  0  0  0
    8.8352    0.5593   19.8167 H   0  0  0  0  0  0  0  0  0  0  0  0
    9.8808   -5.4352   27.1698 H   0  0  0  0  0  0  0  0  0  0  0  0
    9.4146   -6.1889   25.6131 H   0  0  0  0  0  0  0  0  0  0  0  0
    8.6052   -4.6573   23.7486 H   0  0  0  0  0  0  0  0  0  0  0  0
    8.5394   -2.8987   24.0819 H   0  0  0  0  0  0  0  0  0  0  0  0
    5.3740   -0.6433   18.6802 H   0  0  0  0  0  0  0  0  0  0  0  0
   11.3001   -1.0734   20.5795 H   0  0  0  0  0  0  0  0  0  0  0  0
   12.7602   -0.2019   21.1088 H   0  0  0  0  0  0  0  0  0  0  0  0
   12.7762   -1.9628   21.0291 H   0  0  0  0  0  0  0  0  0  0  0  0
   11.0094   -4.6597   24.5038 H   0  0  0  0  0  0  0  0  0  0  0  0
   11.4008   -3.9864   26.0925 H   0  0  0  0  0  0  0  0  0  0  0  0
    4.7423   -4.8593   24.2716 H   0  0  0  0  0  0  0  0  0  0  0  0
    3.8806   -6.4061   24.5830 H   0  0  0  0  0  0  0  0  0  0  0  0
   11.3573    2.5752   24.3964 H   0  0  0  0  0  0  0  0  0  0  0  0
   11.3976    3.2948   22.7718 H   0  0  0  0  0  0  0  0  0  0  0  0
    9.1154    1.5628   23.8601 H   0  0  0  0  0  0  0  0  0  0  0  0
    9.0501    3.3282   23.6734 H   0  0  0  0  0  0  0  0  0  0  0  0
    6.9807    2.4450   22.3913 H   0  0  0  0  0  0  0  0  0  0  0  0
    7.5801    0.7632   22.3635 H   0  0  0  0  0  0  0  0  0  0  0  0
   12.2197    1.3145   22.0454 H   0  0  0  0  0  0  0  0  0  0  0  0
    9.6372    1.5774   21.4323 H   0  0  0  0  0  0  0  0  0  0  0  0
    9.1460   -3.3329   26.3377 H   0  0  0  0  0  0  0  0  0  0  0  0
    7.3782    2.4317   19.9746 H   0  0  0  0  0  0  0  0  0  0  0  0
    5.7281   -0.3471   16.4533 H   0  0  0  0  0  0  0  0  0  0  0  0
  1  2  2  0  0  0  0
  1  4  1  0  0  0  0
  2  6  1  0  0  0  0
  3  4  2  0  0  0  0
  3  5  1  0  0  0  0
  4 18  1  0  0  0  0
  5  6  2  0  0  0  0
  5 17  1  0  0  0  0
  6 24  1  0  0  0  0
  7 19  1  0  0  0  0
  7 23  1  0  0  0  0
  7 28  2  0  0  0  0
  8 12  1  0  0  0  0
  8 16  1  0  0  0  0
  9 13  1  0  0  0  0
  9 16  1  0  0  0  0
 10 14  1  0  0  0  0
 10 23  1  0  0  0  0
 11 15  1  0  0  0  0
 11 23  1  0  0  0  0
 12 27  1  0  0  0  0
 13 27  1  0  0  0  0
 14 26  1  0  0  0  0
 15 26  1  0  0  0  0
 16 29  1  0  0  0  0
 18 26  1  0  0  0  0
 19 30  1  0  0  0  0
 20 21  1  0  0  0  0
 20 24  1  0  0  0  0
 21 25  1  0  0  0  0
 22 25  1  0  0  0  0
 22 27  1  0  0  0  0
  1 31  1  0  0  0  0
  2 32  1  0  0  0  0
  3 33  1  0  0  0  0
  8 34  1  0  0  0  0
  8 35  1  0  0  0  0
  9 36  1  0  0  0  0
  9 37  1  0  0  0  0
 10 38  1  0  0  0  0
 10 39  1  0  0  0  0
 11 40  1  0  0  0  0
 11 41  1  0  0  0  0
 12 42  1  0  0  0  0
 12 43  1  0  0  0  0
 13 44  1  0  0  0  0
 13 45  1  0  0  0  0
 14 46  1  0  0  0  0
 14 47  1  0  0  0  0
 15 48  1  0  0  0  0
 15 49  1  0  0  0  0
 16 50  1  0  0  0  0
 17 51  1  0  0  0  0
 17 52  1  0  0  0  0
 17 53  1  0  0  0  0
 18 54  1  0  0  0  0
 18 55  1  0  0  0  0
 19 56  1  0  0  0  0
 19 57  1  0  0  0  0
 20 58  1  0  0  0  0
 20 59  1  0  0  0  0
 21 60  1  0  0  0  0
 21 61  1  0  0  0  0
 22 62  1  0  0  0  0
 22 63  1  0  0  0  0
 24 64  1  0  0  0  0
 25 65  1  0  0  0  0
 26 66  1  0  0  0  0
 27 67  1  0  0  0  0
 29 68  1  0  0  0  0
M  CHG  2  26   1  27   1
M  END
> <creator>
Maksym Voznyy

> <fragments>
x0387

> <real_space>
FALSE

> <SCR>
FALSE

> <BB>
FALSE

> <link>
https://covid.postera.ai/covid/submissions/e4a48a85-91ce-4c28-86d4-edf9997dafca

> <covalent_frag>
TRUE

> <covalent_warhead>
TRUE

> <acrylamide>
FALSE

> <acrylamide_adduct>
FALSE

> <chloroacetamide>
TRUE

> <chloroacetamide_adduct>
FALSE

> <vinylsulfonamide>
FALSE

> <vinylsulfonamide_adduct>
FALSE

> <in_molport_or_mcule>
FALSE

> <in_emolecules>
FALSE

> <Hybrid2>
-4.259506

> <Mpro-x0387_dock>
-4.259506

> <Mpro-x0692_dock>
-1.729243

> <site>
active-noncovalent

> <covalent_distance_min>
4.9858546

> <covalent_distance_mean>
6.353971

> <covalent_distance_stderr>
0.079328686

$$$$
DAV-CRI-f9b-4
  -OEChem-04062011563D

 74 77  0     1  0  0  0  0  0999 V2000
   14.5123   -1.1403   26.4862 C   0  0  0  0  0  0  0  0  0  0  0  0
   11.1910    2.5361   23.5189 C   0  0  0  0  0  0  0  0  0  0  0  0
   13.6711   -0.1283   26.0371 C   0  0  0  0  0  0  0  0  0  0  0  0
   12.0444    1.5315   23.9749 C   0  0  0  0  0  0  0  0  0  0  0  0
   14.1825   -2.4844   26.2944 C   0  0  0  0  0  0  0  0  0  0  0  0
    9.8834    2.6114   23.9987 C   0  0  0  0  0  0  0  0  0  0  0  0
   10.2826    0.6774   25.3905 C   0  0  0  0  0  0  0  0  0  0  0  0
   11.5903    0.6021   24.9107 C   0  0  0  0  0  0  0  0  0  0  0  0
   12.4749   -0.4369   25.3828 C   0  0  0  0  0  0  0  0  0  0  0  0
   12.1178   -1.7870   25.1759 C   0  0  0  0  0  0  0  0  0  0  0  0
   12.9796   -2.7871   25.6362 C   0  0  0  0  0  0  0  0  0  0  0  0
    9.4292    1.6821   24.9345 C   0  0  0  0  0  0  0  0  0  0  0  0
   10.9655   -3.5546   24.5320 C   0  0  0  0  0  0  0  0  0  0  0  0
    6.5521   -5.6610   24.8652 C   0  0  0  0  0  0  0  0  0  0  0  0
    7.6997   -1.3814   20.1507 C   0  0  0  0  0  0  0  0  0  0  0  0
    5.8863   -3.3861   21.0994 C   0  0  0  0  0  0  0  0  0  0  0  0
    9.7239   -4.1609   22.4145 C   0  0  0  0  0  0  0  0  0  0  0  0
    8.6081   -5.0279   21.8378 C   0  0  0  0  0  0  0  0  0  0  0  0
    8.5187   -4.1856   24.6378 C   0  0  0  0  0  0  0  0  0  0  0  0
    9.8620   -4.4018   23.9248 C   0  0  2  0  0  0  0  0  0  0  0  0
    7.2745   -4.8356   22.5696 C   0  0  1  0  0  0  0  0  0  0  0  0
    2.1613   -1.4742   22.9665 C   0  0  0  0  0  0  0  0  0  0  0  0
    5.4667   -6.4623   24.1906 C   0  0  0  0  0  0  0  0  0  0  0  0
    6.5115   -0.9546   20.9948 C   0  0  0  0  0  0  0  0  0  0  0  0
    5.3630   -1.9638   20.9859 C   0  0  2  0  0  0  0  0  0  0  0  0
    3.0597   -2.2404   21.9990 C   0  0  2  0  0  0  0  0  0  0  0  0
   10.9688   -2.2422   24.5456 N   0  0  0  0  0  0  0  0  0  0  0  0
    7.4393   -4.9748   24.0295 N   0  0  0  0  0  0  0  0  0  0  0  0
    8.8989   -0.9597   20.6845 N   0  0  0  0  0  0  0  0  0  0  0  0
    2.9789   -3.6677   22.2931 N   0  0  0  0  0  0  0  0  0  0  0  0
    8.0044    2.7965   26.8922 N   0  0  0  0  0  0  0  0  0  0  0  0
    6.6662   -3.5688   22.2311 N   0  0  0  0  0  0  0  0  0  0  0  0
    4.4442   -1.6638   22.1229 N   0  3  0  0  0  0  0  0  0  0  0  0
    6.6128   -5.6504   26.0975 O   0  0  0  0  0  0  0  0  0  0  0  0
    7.6080   -2.0320   19.1139 O   0  0  0  0  0  0  0  0  0  0  0  0
    5.6265   -4.2564   20.2716 O   0  0  0  0  0  0  0  0  0  0  0  0
    6.9805    2.4745   24.5484 O   0  0  0  0  0  0  0  0  0  0  0  0
    7.3927    0.4579   26.0014 O   0  0  0  0  0  0  0  0  0  0  0  0
   12.3080   -4.3289   25.2560 S   0  0  0  0  0  0  0  0  0  0  0  0
    7.7929    1.7786   25.5363 S   0  0  0  0  0  0  0  0  0  0  0  0
    4.5402   -7.2338   25.4727 Cl  0  0  0  0  0  0  0  0  0  0  0  0
   15.4391   -0.8849   26.9930 H   0  0  0  0  0  0  0  0  0  0  0  0
   11.5446    3.2600   22.7904 H   0  0  0  0  0  0  0  0  0  0  0  0
   13.9570    0.9082   26.2024 H   0  0  0  0  0  0  0  0  0  0  0  0
   13.0608    1.4859   23.5910 H   0  0  0  0  0  0  0  0  0  0  0  0
   14.8443   -3.2697   26.6468 H   0  0  0  0  0  0  0  0  0  0  0  0
    9.2267    3.3978   23.6368 H   0  0  0  0  0  0  0  0  0  0  0  0
    9.9230   -0.0452   26.1201 H   0  0  0  0  0  0  0  0  0  0  0  0
   10.6678   -4.3929   21.9056 H   0  0  0  0  0  0  0  0  0  0  0  0
    9.5130   -3.1024   22.2123 H   0  0  0  0  0  0  0  0  0  0  0  0
    8.4907   -4.8169   20.7678 H   0  0  0  0  0  0  0  0  0  0  0  0
    8.9018   -6.0833   21.9113 H   0  0  0  0  0  0  0  0  0  0  0  0
    8.6179   -4.4298   25.7017 H   0  0  0  0  0  0  0  0  0  0  0  0
    8.2132   -3.1322   24.5875 H   0  0  0  0  0  0  0  0  0  0  0  0
   10.1638   -5.4633   24.0793 H   0  0  0  0  0  0  0  0  0  0  0  0
    6.5822   -5.5912   22.1930 H   0  0  0  0  0  0  0  0  0  0  0  0
    2.4569   -1.6393   24.0090 H   0  0  0  0  0  0  0  0  0  0  0  0
    1.1155   -1.7834   22.8588 H   0  0  0  0  0  0  0  0  0  0  0  0
    2.2047   -0.3966   22.7718 H   0  0  0  0  0  0  0  0  0  0  0  0
    5.9262   -7.2138   23.5592 H   0  0  0  0  0  0  0  0  0  0  0  0
    4.8326   -5.7885   23.6262 H   0  0  0  0  0  0  0  0  0  0  0  0
    6.1662    0.0279   20.6481 H   0  0  0  0  0  0  0  0  0  0  0  0
    6.8830   -0.8155   22.0182 H   0  0  0  0  0  0  0  0  0  0  0  0
    4.7507   -1.8767   20.0813 H   0  0  0  0  0  0  0  0  0  0  0  0
    2.7309   -2.0483   20.9715 H   0  0  0  0  0  0  0  0  0  0  0  0
    9.7782   -1.1734   20.2255 H   0  0  0  0  0  0  0  0  0  0  0  0
    8.9518   -0.4255   21.5460 H   0  0  0  0  0  0  0  0  0  0  0  0
    2.0228   -3.9932   22.1551 H   0  0  0  0  0  0  0  0  0  0  0  0
    3.5517   -4.1876   21.6299 H   0  0  0  0  0  0  0  0  0  0  0  0
    7.6419    3.7561   26.8355 H   0  0  0  0  0  0  0  0  0  0  0  0
    7.9251    2.3773   27.8267 H   0  0  0  0  0  0  0  0  0  0  0  0
    6.8167   -2.7777   22.8496 H   0  0  0  0  0  0  0  0  0  0  0  0
    4.3795   -0.6413   22.2143 H   0  0  0  0  0  0  0  0  0  0  0  0
    4.8722   -1.9989   22.9956 H   0  0  0  0  0  0  0  0  0  0  0  0
  1  3  1  0  0  0  0
  1  5  2  0  0  0  0
  2  4  2  0  0  0  0
  2  6  1  0  0  0  0
  3  9  2  0  0  0  0
  4  8  1  0  0  0  0
  5 11  1  0  0  0  0
  6 12  2  0  0  0  0
  7  8  2  0  0  0  0
  7 12  1  0  0  0  0
  8  9  1  0  0  0  0
  9 10  1  0  0  0  0
 10 11  2  0  0  0  0
 10 27  1  0  0  0  0
 11 39  1  0  0  0  0
 12 40  1  0  0  0  0
 13 20  1  0  0  0  0
 13 27  2  0  0  0  0
 13 39  1  0  0  0  0
 14 23  1  0  0  0  0
 14 28  1  0  0  0  0
 14 34  2  0  0  0  0
 15 24  1  0  0  0  0
 15 29  1  0  0  0  0
 15 35  2  0  0  0  0
 16 25  1  0  0  0  0
 16 32  1  0  0  0  0
 16 36  2  0  0  0  0
 17 18  1  0  0  0  0
 17 20  1  0  0  0  0
 18 21  1  0  0  0  0
 19 20  1  0  0  0  0
 19 28  1  0  0  0  0
 21 28  1  0  0  0  0
 21 32  1  0  0  0  0
 22 26  1  0  0  0  0
 23 41  1  0  0  0  0
 24 25  1  0  0  0  0
 25 33  1  0  0  0  0
 26 30  1  0  0  0  0
 26 33  1  0  0  0  0
 31 40  1  0  0  0  0
 37 40  2  0  0  0  0
 38 40  2  0  0  0  0
  1 42  1  0  0  0  0
  2 43  1  0  0  0  0
  3 44  1  0  0  0  0
  4 45  1  0  0  0  0
  5 46  1  0  0  0  0
  6 47  1  0  0  0  0
  7 48  1  0  0  0  0
 17 49  1  0  0  0  0
 17 50  1  0  0  0  0
 18 51  1  0  0  0  0
 18 52  1  0  0  0  0
 19 53  1  0  0  0  0
 19 54  1  0  0  0  0
 20 55  1  0  0  0  0
 21 56  1  0  0  0  0
 22 57  1  0  0  0  0
 22 58  1  0  0  0  0
 22 59  1  0  0  0  0
 23 60  1  0  0  0  0
 23 61  1  0  0  0  0
 24 62  1  0  0  0  0
 24 63  1  0  0  0  0
 25 64  1  0  0  0  0
 26 65  1  0  0  0  0
 29 66  1  0  0  0  0
 29 67  1  0  0  0  0
 30 68  1  0  0  0  0
 30 69  1  0  0  0  0
 31 70  1  0  0  0  0
 31 71  1  0  0  0  0
 32 72  1  0  0  0  0
 33 73  1  0  0  0  0
 33 74  1  0  0  0  0
M  CHG  1  33   1
M  END
> <creator>
David Briggs, Crick Institute

> <fragments>
x0749

> <real_space>
FALSE

> <SCR>
FALSE

> <BB>
FALSE

> <link>
https://covid.postera.ai/covid/submissions/f9b12666-ae78-4cf8-8d60-dc19988e42d3

> <covalent_frag>
TRUE

> <covalent_warhead>
TRUE

> <acrylamide>
FALSE

> <acrylamide_adduct>
FALSE

> <chloroacetamide>
TRUE

> <chloroacetamide_adduct>
FALSE

> <vinylsulfonamide>
FALSE

> <vinylsulfonamide_adduct>
FALSE

> <in_molport_or_mcule>
FALSE

> <in_emolecules>
FALSE

> <Hybrid2>
-4.245031

> <Mpro-x0749_dock>
-4.245031

> <Mpro-x0161_dock>
-2.74908

> <Mpro-x0981_dock>
7.020253

> <site>
active-covalent

> <covalent_distance_min>
6.6292343

> <covalent_distance_mean>
7.1923804

> <covalent_distance_stderr>
0.015877444

$$$$
JAN-GHE-bf4-1
  -OEChem-04062011563D

 57 59  0     0  0  0  0  0  0999 V2000
    8.3505    5.7288   26.7835 C   0  0  0  0  0  0  0  0  0  0  0  0
   12.2656   -4.1278   23.1943 C   0  0  0  0  0  0  0  0  0  0  0  0
    9.9992    6.0399   24.9958 C   0  0  0  0  0  0  0  0  0  0  0  0
   12.2817   -2.7743   22.8575 C   0  0  0  0  0  0  0  0  0  0  0  0
   11.2468   -4.6336   24.0017 C   0  0  0  0  0  0  0  0  0  0  0  0
   10.7844    5.5040   23.9812 C   0  0  0  0  0  0  0  0  0  0  0  0
    9.1555    3.8579   25.4244 C   0  0  0  0  0  0  0  0  0  0  0  0
    9.1665    5.2080   25.7359 C   0  0  0  0  0  0  0  0  0  0  0  0
   11.2789   -1.9266   23.3281 C   0  0  0  0  0  0  0  0  0  0  0  0
   10.2441   -3.7858   24.4723 C   0  0  0  0  0  0  0  0  0  0  0  0
   10.2601   -2.4323   24.1356 C   0  0  0  0  0  0  0  0  0  0  0  0
   10.7012    4.1407   23.7484 C   0  0  0  0  0  0  0  0  0  0  0  0
    7.3468   -2.3719   17.7630 C   0  0  0  0  0  0  0  0  0  0  0  0
    6.4862   -1.8767   18.6550 C   0  0  0  0  0  0  0  0  0  0  0  0
    6.1404   -2.6902   19.8434 C   0  0  0  0  0  0  0  0  0  0  0  0
    6.1290   -2.8590   22.3036 C   0  0  0  0  0  0  0  0  0  0  0  0
    6.9941   -0.7874   21.2765 C   0  0  0  0  0  0  0  0  0  0  0  0
    7.3441   -2.9157   23.2223 C   0  0  0  0  0  0  0  0  0  0  0  0
    8.2099   -0.8390   22.1962 C   0  0  0  0  0  0  0  0  0  0  0  0
   12.5525    1.4399   23.1582 C   0  0  0  0  0  0  0  0  0  0  0  0
   11.5181    2.2299   22.3674 C   0  0  0  0  0  0  0  0  0  0  0  0
   12.6001   -0.0314   22.7638 C   0  0  0  0  0  0  0  0  0  0  0  0
    7.6867    6.1526   27.6359 N   0  0  0  0  0  0  0  0  0  0  0  0
    9.9041    3.3008   24.4462 N   0  0  0  0  0  0  0  0  0  0  0  0
    6.4378   -2.1292   21.0760 N   0  0  0  0  0  0  0  0  0  0  0  0
    7.8425   -1.5287   23.4703 N   0  0  0  0  0  0  0  0  0  0  0  0
   11.4912    3.6203   22.7310 N   0  0  0  0  0  0  0  0  0  0  0  0
    5.6246   -3.7753   19.6096 O   0  0  0  0  0  0  0  0  0  0  0  0
    8.4374   -1.9804   25.9375 O   0  0  0  0  0  0  0  0  0  0  0  0
    9.4911   -0.0217   24.7537 O   0  0  0  0  0  0  0  0  0  0  0  0
   11.3150   -0.6080   22.9865 O   0  0  0  0  0  0  0  0  0  0  0  0
    9.2709   -4.2845   25.2476 F   0  0  0  0  0  0  0  0  0  0  0  0
    8.9819   -1.3760   24.7409 S   0  0  0  0  0  0  0  0  0  0  0  0
   13.0464   -4.7878   22.8279 H   0  0  0  0  0  0  0  0  0  0  0  0
   10.0466    7.1069   25.1984 H   0  0  0  0  0  0  0  0  0  0  0  0
   13.0784   -2.3871   22.2281 H   0  0  0  0  0  0  0  0  0  0  0  0
   11.2342   -5.6873   24.2641 H   0  0  0  0  0  0  0  0  0  0  0  0
   11.4379    6.1457   23.3994 H   0  0  0  0  0  0  0  0  0  0  0  0
    8.5277    3.1559   25.9657 H   0  0  0  0  0  0  0  0  0  0  0  0
    7.6387   -1.8238   16.8734 H   0  0  0  0  0  0  0  0  0  0  0  0
    7.7814   -3.3545   17.9135 H   0  0  0  0  0  0  0  0  0  0  0  0
    6.0324   -0.9011   18.5400 H   0  0  0  0  0  0  0  0  0  0  0  0
    5.7791   -3.8729   22.0863 H   0  0  0  0  0  0  0  0  0  0  0  0
    5.3054   -2.3254   22.7935 H   0  0  0  0  0  0  0  0  0  0  0  0
    6.2004   -0.1748   21.7204 H   0  0  0  0  0  0  0  0  0  0  0  0
    7.2933   -0.3190   20.3383 H   0  0  0  0  0  0  0  0  0  0  0  0
    7.0505   -3.3705   24.1746 H   0  0  0  0  0  0  0  0  0  0  0  0
    8.1404   -3.5232   22.7772 H   0  0  0  0  0  0  0  0  0  0  0  0
    9.0400   -1.3681   21.7139 H   0  0  0  0  0  0  0  0  0  0  0  0
    8.5323    0.1840   22.4187 H   0  0  0  0  0  0  0  0  0  0  0  0
   13.5440    1.8823   23.0005 H   0  0  0  0  0  0  0  0  0  0  0  0
   12.3557    1.5213   24.2347 H   0  0  0  0  0  0  0  0  0  0  0  0
   11.7470    2.1843   21.2981 H   0  0  0  0  0  0  0  0  0  0  0  0
   10.5126    1.8246   22.5197 H   0  0  0  0  0  0  0  0  0  0  0  0
   12.8525   -0.1507   21.7056 H   0  0  0  0  0  0  0  0  0  0  0  0
   13.3337   -0.5736   23.3690 H   0  0  0  0  0  0  0  0  0  0  0  0
   12.0850    4.2663   22.2170 H   0  0  0  0  0  0  0  0  0  0  0  0
  1  8  1  0  0  0  0
  1 23  3  0  0  0  0
  2  4  2  0  0  0  0
  2  5  1  0  0  0  0
  3  6  2  0  0  0  0
  3  8  1  0  0  0  0
  4  9  1  0  0  0  0
  5 10  2  0  0  0  0
  6 12  1  0  0  0  0
  7  8  2  0  0  0  0
  7 24  1  0  0  0  0
  9 11  2  0  0  0  0
  9 31  1  0  0  0  0
 10 11  1  0  0  0  0
 10 32  1  0  0  0  0
 11 33  1  0  0  0  0
 12 24  2  0  0  0  0
 12 27  1  0  0  0  0
 13 14  2  0  0  0  0
 14 15  1  0  0  0  0
 15 25  1  0  0  0  0
 15 28  2  0  0  0  0
 16 18  1  0  0  0  0
 16 25  1  0  0  0  0
 17 19  1  0  0  0  0
 17 25  1  0  0  0  0
 18 26  1  0  0  0  0
 19 26  1  0  0  0  0
 20 21  1  0  0  0  0
 20 22  1  0  0  0  0
 21 27  1  0  0  0  0
 22 31  1  0  0  0  0
 26 33  1  0  0  0  0
 29 33  2  0  0  0  0
 30 33  2  0  0  0  0
  2 34  1  0  0  0  0
  3 35  1  0  0  0  0
  4 36  1  0  0  0  0
  5 37  1  0  0  0  0
  6 38  1  0  0  0  0
  7 39  1  0  0  0  0
 13 40  1  0  0  0  0
 13 41  1  0  0  0  0
 14 42  1  0  0  0  0
 16 43  1  0  0  0  0
 16 44  1  0  0  0  0
 17 45  1  0  0  0  0
 17 46  1  0  0  0  0
 18 47  1  0  0  0  0
 18 48  1  0  0  0  0
 19 49  1  0  0  0  0
 19 50  1  0  0  0  0
 20 51  1  0  0  0  0
 20 52  1  0  0  0  0
 21 53  1  0  0  0  0
 21 54  1  0  0  0  0
 22 55  1  0  0  0  0
 22 56  1  0  0  0  0
 27 57  1  0  0  0  0
M  END
> <creator>
Jan, Ghent university

> <fragments>
x0692

> <real_space>
FALSE

> <SCR>
FALSE

> <BB>
FALSE

> <link>
https://covid.postera.ai/covid/submissions/bf40f168-4eec-438e-a3f5-b4da0b83bc9c

> <covalent_frag>
TRUE

> <covalent_warhead>
TRUE

> <acrylamide>
TRUE

> <acrylamide_adduct>
FALSE

> <chloroacetamide>
FALSE

> <chloroacetamide_adduct>
FALSE

> <vinylsulfonamide>
FALSE

> <vinylsulfonamide_adduct>
FALSE

> <in_molport_or_mcule>
FALSE

> <in_emolecules>
FALSE

> <Hybrid2>
-4.243554

> <Mpro-x0692_dock>
-4.243554

> <Mpro-x0305_dock>
-2.108944

> <Mpro-x0755_dock>
1.762235

> <site>
active-covalent

> <covalent_distance_min>
3.0942621

> <covalent_distance_mean>
3.9827306

> <covalent_distance_stderr>
0.029714469

$$$$
DAV-CRI-f9b-8
  -OEChem-04062011563D

 74 77  0     1  0  0  0  0  0999 V2000
   14.4948   -1.1658   26.5542 C   0  0  0  0  0  0  0  0  0  0  0  0
   13.6691   -0.1554   26.0739 C   0  0  0  0  0  0  0  0  0  0  0  0
   12.0724    1.4689   23.9601 C   0  0  0  0  0  0  0  0  0  0  0  0
   11.2338    2.4712   23.4727 C   0  0  0  0  0  0  0  0  0  0  0  0
   14.1476   -2.5101   26.3980 C   0  0  0  0  0  0  0  0  0  0  0  0
   10.2942    0.6767   25.3909 C   0  0  0  0  0  0  0  0  0  0  0  0
   11.6026    0.5716   24.9192 C   0  0  0  0  0  0  0  0  0  0  0  0
   12.4714   -0.4658   25.4233 C   0  0  0  0  0  0  0  0  0  0  0  0
   12.0968   -1.8161   25.2522 C   0  0  0  0  0  0  0  0  0  0  0  0
    9.9253    2.5763   23.9444 C   0  0  0  0  0  0  0  0  0  0  0  0
   12.9433   -2.8147   25.7434 C   0  0  0  0  0  0  0  0  0  0  0  0
    9.4555    1.6791   24.9035 C   0  0  0  0  0  0  0  0  0  0  0  0
   10.9231   -3.5852   24.6523 C   0  0  0  0  0  0  0  0  0  0  0  0
    6.4805   -5.6222   25.0247 C   0  0  0  0  0  0  0  0  0  0  0  0
    7.7037   -1.4898   20.1993 C   0  0  0  0  0  0  0  0  0  0  0  0
    5.8598   -3.4431   21.1951 C   0  0  0  0  0  0  0  0  0  0  0  0
    9.6815   -4.2328   22.5471 C   0  0  0  0  0  0  0  0  0  0  0  0
    8.5563   -5.1004   21.9897 C   0  0  0  0  0  0  0  0  0  0  0  0
    8.4677   -4.1802   24.7652 C   0  0  0  0  0  0  0  0  0  0  0  0
    9.8106   -4.4339   24.0640 C   0  0  2  0  0  0  0  0  0  0  0  0
    7.2227   -4.8702   22.7104 C   0  0  1  0  0  0  0  0  0  0  0  0
    2.1539   -1.4308   22.9934 C   0  0  0  0  0  0  0  0  0  0  0  0
    5.3868   -6.4271   24.3680 C   0  0  0  0  0  0  0  0  0  0  0  0
    6.5182   -1.0240   21.0264 C   0  0  0  0  0  0  0  0  0  0  0  0
    5.3562   -2.0176   21.0404 C   0  0  2  0  0  0  0  0  0  0  0  0
    3.0456   -2.2353   22.0512 C   0  0  2  0  0  0  0  0  0  0  0  0
   10.9442   -2.2731   24.6298 N   0  0  0  0  0  0  0  0  0  0  0  0
    7.3800   -4.9712   24.1742 N   0  0  0  0  0  0  0  0  0  0  0  0
    8.9065   -1.0697   20.7263 N   0  0  0  0  0  0  0  0  0  0  0  0
    2.9443   -3.6528   22.3840 N   0  0  0  0  0  0  0  0  0  0  0  0
    7.8613    0.4332   26.6388 N   0  0  0  0  0  0  0  0  0  0  0  0
    6.6329   -3.6050   22.3347 N   0  0  0  0  0  0  0  0  0  0  0  0
    4.4372   -1.6741   22.1649 N   0  3  0  0  0  0  0  0  0  0  0  0
    9.1770    3.5083   23.4778 O   0  5  0  0  0  0  0  0  0  0  0  0
    6.5366   -5.5785   26.2566 O   0  0  0  0  0  0  0  0  0  0  0  0
    7.6071   -2.1674   19.1804 O   0  0  0  0  0  0  0  0  0  0  0  0
    5.5914   -4.3324   20.3905 O   0  0  0  0  0  0  0  0  0  0  0  0
    7.6849    2.9822   26.2965 O   0  0  0  0  0  0  0  0  0  0  0  0
    6.8988    1.4355   24.4695 O   0  0  0  0  0  0  0  0  0  0  0  0
   12.2523   -4.3572   25.4028 S   0  0  0  0  0  0  0  0  0  0  0  0
    7.8205    1.7449   25.5483 S   0  0  0  0  0  0  0  0  0  0  0  0
    4.4452   -7.1506   25.6669 Cl  0  0  0  0  0  0  0  0  0  0  0  0
   15.4231   -0.9090   27.0576 H   0  0  0  0  0  0  0  0  0  0  0  0
   13.9683    0.8814   26.2119 H   0  0  0  0  0  0  0  0  0  0  0  0
   13.0900    1.3997   23.5827 H   0  0  0  0  0  0  0  0  0  0  0  0
   11.6275    3.1576   22.7243 H   0  0  0  0  0  0  0  0  0  0  0  0
   14.7973   -3.2942   26.7746 H   0  0  0  0  0  0  0  0  0  0  0  0
    9.9267   -0.0227   26.1393 H   0  0  0  0  0  0  0  0  0  0  0  0
   10.6241   -4.4914   22.0487 H   0  0  0  0  0  0  0  0  0  0  0  0
    9.4858   -3.1776   22.3150 H   0  0  0  0  0  0  0  0  0  0  0  0
    8.4458   -4.9173   20.9138 H   0  0  0  0  0  0  0  0  0  0  0  0
    8.8354   -6.1572   22.0934 H   0  0  0  0  0  0  0  0  0  0  0  0
    8.5595   -4.3963   25.8358 H   0  0  0  0  0  0  0  0  0  0  0  0
    8.1767   -3.1245   24.6847 H   0  0  0  0  0  0  0  0  0  0  0  0
   10.0974   -5.4947   24.2488 H   0  0  0  0  0  0  0  0  0  0  0  0
    6.5217   -5.6264   22.3518 H   0  0  0  0  0  0  0  0  0  0  0  0
    2.4433   -1.5711   24.0414 H   0  0  0  0  0  0  0  0  0  0  0  0
    1.1044   -1.7288   22.8900 H   0  0  0  0  0  0  0  0  0  0  0  0
    2.2126   -0.3597   22.7694 H   0  0  0  0  0  0  0  0  0  0  0  0
    5.8386   -7.2019   23.7593 H   0  0  0  0  0  0  0  0  0  0  0  0
    4.7641   -5.7607   23.7826 H   0  0  0  0  0  0  0  0  0  0  0  0
    6.1875   -0.0470   20.6514 H   0  0  0  0  0  0  0  0  0  0  0  0
    6.8877   -0.8618   22.0472 H   0  0  0  0  0  0  0  0  0  0  0  0
    4.7485   -1.9473   20.1312 H   0  0  0  0  0  0  0  0  0  0  0  0
    2.7233   -2.0672   21.0174 H   0  0  0  0  0  0  0  0  0  0  0  0
    9.7845   -1.3078   20.2770 H   0  0  0  0  0  0  0  0  0  0  0  0
    8.9633   -0.5127   21.5731 H   0  0  0  0  0  0  0  0  0  0  0  0
    1.9844   -3.9691   22.2510 H   0  0  0  0  0  0  0  0  0  0  0  0
    3.5126   -4.1983   21.7378 H   0  0  0  0  0  0  0  0  0  0  0  0
    7.8649    0.6449   27.6441 H   0  0  0  0  0  0  0  0  0  0  0  0
    7.3294   -0.4109   26.3942 H   0  0  0  0  0  0  0  0  0  0  0  0
    6.7917   -2.7993   22.9318 H   0  0  0  0  0  0  0  0  0  0  0  0
    4.3860   -0.6488   22.2279 H   0  0  0  0  0  0  0  0  0  0  0  0
    4.8573   -1.9908   23.0483 H   0  0  0  0  0  0  0  0  0  0  0  0
  1  2  1  0  0  0  0
  1  5  2  0  0  0  0
  2  8  2  0  0  0  0
  3  4  2  0  0  0  0
  3  7  1  0  0  0  0
  4 10  1  0  0  0  0
  5 11  1  0  0  0  0
  6  7  2  0  0  0  0
  6 12  1  0  0  0  0
  7  8  1  0  0  0  0
  8  9  1  0  0  0  0
  9 11  2  0  0  0  0
  9 27  1  0  0  0  0
 10 12  2  0  0  0  0
 10 34  1  0  0  0  0
 11 40  1  0  0  0  0
 12 41  1  0  0  0  0
 13 20  1  0  0  0  0
 13 27  2  0  0  0  0
 13 40  1  0  0  0  0
 14 23  1  0  0  0  0
 14 28  1  0  0  0  0
 14 35  2  0  0  0  0
 15 24  1  0  0  0  0
 15 29  1  0  0  0  0
 15 36  2  0  0  0  0
 16 25  1  0  0  0  0
 16 32  1  0  0  0  0
 16 37  2  0  0  0  0
 17 18  1  0  0  0  0
 17 20  1  0  0  0  0
 18 21  1  0  0  0  0
 19 20  1  0  0  0  0
 19 28  1  0  0  0  0
 21 28  1  0  0  0  0
 21 32  1  0  0  0  0
 22 26  1  0  0  0  0
 23 42  1  0  0  0  0
 24 25  1  0  0  0  0
 25 33  1  0  0  0  0
 26 30  1  0  0  0  0
 26 33  1  0  0  0  0
 31 41  1  0  0  0  0
 38 41  2  0  0  0  0
 39 41  2  0  0  0  0
  1 43  1  0  0  0  0
  2 44  1  0  0  0  0
  3 45  1  0  0  0  0
  4 46  1  0  0  0  0
  5 47  1  0  0  0  0
  6 48  1  0  0  0  0
 17 49  1  0  0  0  0
 17 50  1  0  0  0  0
 18 51  1  0  0  0  0
 18 52  1  0  0  0  0
 19 53  1  0  0  0  0
 19 54  1  0  0  0  0
 20 55  1  0  0  0  0
 21 56  1  0  0  0  0
 22 57  1  0  0  0  0
 22 58  1  0  0  0  0
 22 59  1  0  0  0  0
 23 60  1  0  0  0  0
 23 61  1  0  0  0  0
 24 62  1  0  0  0  0
 24 63  1  0  0  0  0
 25 64  1  0  0  0  0
 26 65  1  0  0  0  0
 29 66  1  0  0  0  0
 29 67  1  0  0  0  0
 30 68  1  0  0  0  0
 30 69  1  0  0  0  0
 31 70  1  0  0  0  0
 31 71  1  0  0  0  0
 32 72  1  0  0  0  0
 33 73  1  0  0  0  0
 33 74  1  0  0  0  0
M  CHG  2  33   1  34  -1
M  END
> <creator>
David Briggs, Crick Institute

> <fragments>
x0749

> <real_space>
FALSE

> <SCR>
FALSE

> <BB>
FALSE

> <link>
https://covid.postera.ai/covid/submissions/f9b12666-ae78-4cf8-8d60-dc19988e42d3

> <covalent_frag>
TRUE

> <covalent_warhead>
TRUE

> <acrylamide>
FALSE

> <acrylamide_adduct>
FALSE

> <chloroacetamide>
TRUE

> <chloroacetamide_adduct>
FALSE

> <vinylsulfonamide>
FALSE

> <vinylsulfonamide_adduct>
FALSE

> <in_molport_or_mcule>
FALSE

> <in_emolecules>
FALSE

> <Hybrid2>
-4.235141

> <Mpro-x0749_dock>
-4.235141

> <Mpro-x0161_dock>
-2.321057

> <Mpro-x0981_dock>
10.547525

> <site>
active-covalent

$$$$
MAK-UNK-e4a-24
  -OEChem-04062011563D

 55 57  0     1  0  0  0  0  0999 V2000
    8.1834   -2.0973   21.8450 C   0  0  0  0  0  0  0  0  0  0  0  0
    8.5241   -1.1306   20.9247 C   0  0  0  0  0  0  0  0  0  0  0  0
    7.4202   -0.1740   22.9036 C   0  0  0  0  0  0  0  0  0  0  0  0
    7.5438   -1.5433   22.9914 C   0  0  0  0  0  0  0  0  0  0  0  0
   13.0507   -0.6571   22.6995 C   0  0  0  0  0  0  0  0  0  0  0  0
    6.7677   -5.3013   27.3762 C   0  0  0  0  0  0  0  0  0  0  0  0
    7.0469   -4.7238   25.9937 C   0  0  0  0  0  0  0  0  0  0  0  0
    8.9051   -4.2652   28.2365 C   0  0  0  0  0  0  0  0  0  0  0  0
   11.3200   -2.2823   23.3956 C   0  0  0  0  0  0  0  0  0  0  0  0
   11.1608    0.0195   24.2612 C   0  0  0  0  0  0  0  0  0  0  0  0
   11.1291   -2.8444   24.7968 C   0  0  0  0  0  0  0  0  0  0  0  0
   10.9655   -0.5083   25.6761 C   0  0  0  0  0  0  0  0  0  0  0  0
    8.0661   -5.5482   28.1537 C   0  0  1  0  0  0  0  0  0  0  0  0
    9.1931   -3.6788   26.8466 C   0  0  1  0  0  0  0  0  0  0  0  0
    7.8878   -3.4492   26.0671 C   0  0  1  0  0  0  0  0  0  0  0  0
    7.7628   -6.0854   29.5514 C   0  0  0  0  0  0  0  0  0  0  0  0
    7.0630   -2.3573   24.1566 C   0  0  0  0  0  0  0  0  0  0  0  0
   13.2323   -1.4268   21.4157 C   0  0  0  0  0  0  0  0  0  0  0  0
   10.0005   -2.4062   26.9807 C   0  0  0  0  0  0  0  0  0  0  0  0
   11.9057   -0.9425   23.4419 N   0  0  0  0  0  0  0  0  0  0  0  0
   10.3090   -1.8692   25.6114 N   0  3  0  0  0  0  0  0  0  0  0  0
   13.9004    0.1742   23.0296 O   0  0  0  0  0  0  0  0  0  0  0  0
    8.1665   -3.0424   24.7300 O   0  0  0  0  0  0  0  0  0  0  0  0
    8.0733    0.4378   21.4437 S   0  0  0  0  0  0  0  0  0  0  0  0
   14.7218   -0.8408   20.6835 Cl  0  0  0  0  0  0  0  0  0  0  0  0
    8.3857   -3.1509   21.6990 H   0  0  0  0  0  0  0  0  0  0  0  0
    9.0167   -1.2701   19.9728 H   0  0  0  0  0  0  0  0  0  0  0  0
    6.9794    0.5001   23.6250 H   0  0  0  0  0  0  0  0  0  0  0  0
    6.1227   -4.6100   27.9335 H   0  0  0  0  0  0  0  0  0  0  0  0
    6.2106   -6.2397   27.2705 H   0  0  0  0  0  0  0  0  0  0  0  0
    7.5607   -5.4710   25.3746 H   0  0  0  0  0  0  0  0  0  0  0  0
    6.1020   -4.5134   25.4778 H   0  0  0  0  0  0  0  0  0  0  0  0
    8.3801   -3.5200   28.8488 H   0  0  0  0  0  0  0  0  0  0  0  0
    9.8522   -4.4816   28.7468 H   0  0  0  0  0  0  0  0  0  0  0  0
   11.9497   -2.9614   22.8122 H   0  0  0  0  0  0  0  0  0  0  0  0
   10.3581   -2.2034   22.8746 H   0  0  0  0  0  0  0  0  0  0  0  0
   10.1922    0.1812   23.7728 H   0  0  0  0  0  0  0  0  0  0  0  0
   11.6609    0.9884   24.3072 H   0  0  0  0  0  0  0  0  0  0  0  0
   10.5750   -3.7880   24.7626 H   0  0  0  0  0  0  0  0  0  0  0  0
   12.0839   -2.9950   25.3130 H   0  0  0  0  0  0  0  0  0  0  0  0
   11.9171   -0.6185   26.2081 H   0  0  0  0  0  0  0  0  0  0  0  0
   10.2989    0.1486   26.2443 H   0  0  0  0  0  0  0  0  0  0  0  0
    8.6507   -6.3094   27.6197 H   0  0  0  0  0  0  0  0  0  0  0  0
    9.8135   -4.3916   26.2858 H   0  0  0  0  0  0  0  0  0  0  0  0
    7.2950   -2.6570   26.5415 H   0  0  0  0  0  0  0  0  0  0  0  0
    7.1824   -5.3530   30.1098 H   0  0  0  0  0  0  0  0  0  0  0  0
    8.6935   -6.2820   30.0807 H   0  0  0  0  0  0  0  0  0  0  0  0
    7.1930   -7.0098   29.4753 H   0  0  0  0  0  0  0  0  0  0  0  0
    6.6045   -1.7179   24.9186 H   0  0  0  0  0  0  0  0  0  0  0  0
    6.3135   -3.0887   23.8356 H   0  0  0  0  0  0  0  0  0  0  0  0
   12.3915   -1.2239   20.7623 H   0  0  0  0  0  0  0  0  0  0  0  0
   13.3216   -2.4818   21.6482 H   0  0  0  0  0  0  0  0  0  0  0  0
   10.9574   -2.5849   27.4788 H   0  0  0  0  0  0  0  0  0  0  0  0
    9.4450   -1.6291   27.5129 H   0  0  0  0  0  0  0  0  0  0  0  0
    9.4053   -1.7516   25.1327 H   0  0  0  0  0  0  0  0  0  0  0  0
  1  2  2  0  0  0  0
  1  4  1  0  0  0  0
  2 24  1  0  0  0  0
  3  4  2  0  0  0  0
  3 24  1  0  0  0  0
  4 17  1  0  0  0  0
  5 18  1  0  0  0  0
  5 20  1  0  0  0  0
  5 22  2  0  0  0  0
  6  7  1  0  0  0  0
  6 13  1  0  0  0  0
  7 15  1  0  0  0  0
  8 13  1  0  0  0  0
  8 14  1  0  0  0  0
  9 11  1  0  0  0  0
  9 20  1  0  0  0  0
 10 12  1  0  0  0  0
 10 20  1  0  0  0  0
 11 21  1  0  0  0  0
 12 21  1  0  0  0  0
 13 16  1  0  0  0  0
 14 15  1  0  0  0  0
 14 19  1  0  0  0  0
 15 23  1  0  0  0  0
 17 23  1  0  0  0  0
 18 25  1  0  0  0  0
 19 21  1  0  0  0  0
  1 26  1  0  0  0  0
  2 27  1  0  0  0  0
  3 28  1  0  0  0  0
  6 29  1  0  0  0  0
  6 30  1  0  0  0  0
  7 31  1  0  0  0  0
  7 32  1  0  0  0  0
  8 33  1  0  0  0  0
  8 34  1  0  0  0  0
  9 35  1  0  0  0  0
  9 36  1  0  0  0  0
 10 37  1  0  0  0  0
 10 38  1  0  0  0  0
 11 39  1  0  0  0  0
 11 40  1  0  0  0  0
 12 41  1  0  0  0  0
 12 42  1  0  0  0  0
 13 43  1  0  0  0  0
 14 44  1  0  0  0  0
 15 45  1  0  0  0  0
 16 46  1  0  0  0  0
 16 47  1  0  0  0  0
 16 48  1  0  0  0  0
 17 49  1  0  0  0  0
 17 50  1  0  0  0  0
 18 51  1  0  0  0  0
 18 52  1  0  0  0  0
 19 53  1  0  0  0  0
 19 54  1  0  0  0  0
 21 55  1  0  0  0  0
M  CHG  1  21   1
M  END
> <creator>
Maksym Voznyy

> <fragments>
x0387

> <real_space>
FALSE

> <SCR>
FALSE

> <BB>
FALSE

> <link>
https://covid.postera.ai/covid/submissions/e4a48a85-91ce-4c28-86d4-edf9997dafca

> <covalent_frag>
TRUE

> <covalent_warhead>
TRUE

> <acrylamide>
FALSE

> <acrylamide_adduct>
FALSE

> <chloroacetamide>
TRUE

> <chloroacetamide_adduct>
FALSE

> <vinylsulfonamide>
FALSE

> <vinylsulfonamide_adduct>
FALSE

> <in_molport_or_mcule>
FALSE

> <in_emolecules>
FALSE

> <Hybrid2>
-4.163197

> <Mpro-x0387_dock>
-4.163197

> <Mpro-x0692_dock>
-2.433334

> <site>
active-noncovalent

> <covalent_distance_min>
6.635682

> <covalent_distance_mean>
7.171566

> <covalent_distance_stderr>
0.029175213

$$$$
SEA-TRI-825-1
  -OEChem-04062011563D

 46 48  0     1  0  0  0  0  0999 V2000
    6.1016    1.7829   20.1437 C   0  0  0  0  0  0  0  0  0  0  0  0
    6.4283   -0.5867   19.8046 C   0  0  0  0  0  0  0  0  0  0  0  0
    5.7727    1.9304   18.7962 C   0  0  0  0  0  0  0  0  0  0  0  0
    6.0993   -0.4393   18.4571 C   0  0  0  0  0  0  0  0  0  0  0  0
    8.3312    6.7722   23.0277 C   0  0  0  0  0  0  0  0  0  0  0  0
    7.2641    7.5422   23.5742 C   0  0  0  0  0  0  0  0  0  0  0  0
    6.4295    0.5244   20.6479 C   0  0  0  0  0  0  0  0  0  0  0  0
    5.7715    0.8193   17.9530 C   0  0  0  0  0  0  0  0  0  0  0  0
    7.9615    5.4652   22.7983 C   0  0  0  0  0  0  0  0  0  0  0  0
    6.1192    6.7943   23.7413 C   0  0  0  0  0  0  0  0  0  0  0  0
    8.9912   -0.9691   24.1612 C   0  0  0  0  0  0  0  0  0  0  0  0
    8.3569    1.4308   24.6705 C   0  0  0  0  0  0  0  0  0  0  0  0
    8.8856    2.7592   24.1536 C   0  0  0  0  0  0  0  0  0  0  0  0
    8.8050    1.8879   21.8274 C   0  0  0  0  0  0  0  0  0  0  0  0
    8.2877    0.5390   22.3311 C   0  0  2  0  0  0  0  0  0  0  0  0
    6.7832    0.3653   22.0990 C   0  0  0  0  0  0  0  0  0  0  0  0
    8.7874    4.3460   22.2360 C   0  0  0  0  0  0  0  0  0  0  0  0
    9.8638   -1.7598   23.2188 C   0  0  0  0  0  0  0  0  0  0  0  0
    8.6237    0.3172   23.7497 N   0  0  0  0  0  0  0  0  0  0  0  0
    8.3807    2.9948   22.7558 N   0  3  2  0  0  0  0  0  0  0  0  0
    8.6432   -1.4793   25.2295 O   0  0  0  0  0  0  0  0  0  0  0  0
    5.4492    0.9632   16.6385 O   0  0  0  0  0  0  0  0  0  0  0  0
    6.3336    5.1708   23.2408 S   0  0  0  0  0  0  0  0  0  0  0  0
    4.6080    7.3114   24.3625 Cl  0  0  0  0  0  0  0  0  0  0  0  0
    8.7800   -2.6825   22.1836 Cl  0  0  0  0  0  0  0  0  0  0  0  0
    6.1001    2.6540   20.7934 H   0  0  0  0  0  0  0  0  0  0  0  0
    6.6826   -1.5713   20.1888 H   0  0  0  0  0  0  0  0  0  0  0  0
    5.5178    2.9135   18.4094 H   0  0  0  0  0  0  0  0  0  0  0  0
    6.0999   -1.3086   17.8056 H   0  0  0  0  0  0  0  0  0  0  0  0
    9.3188    7.1614   22.8152 H   0  0  0  0  0  0  0  0  0  0  0  0
    7.3389    8.5918   23.8294 H   0  0  0  0  0  0  0  0  0  0  0  0
    8.7918    1.2455   25.6547 H   0  0  0  0  0  0  0  0  0  0  0  0
    7.2706    1.4794   24.8104 H   0  0  0  0  0  0  0  0  0  0  0  0
    8.5255    3.5843   24.7769 H   0  0  0  0  0  0  0  0  0  0  0  0
    9.9810    2.7757   24.1236 H   0  0  0  0  0  0  0  0  0  0  0  0
    9.9005    1.8996   21.7828 H   0  0  0  0  0  0  0  0  0  0  0  0
    8.4059    2.1199   20.8338 H   0  0  0  0  0  0  0  0  0  0  0  0
    8.7866   -0.2358   21.7358 H   0  0  0  0  0  0  0  0  0  0  0  0
    6.2400    1.0973   22.7021 H   0  0  0  0  0  0  0  0  0  0  0  0
    6.4763   -0.6212   22.4561 H   0  0  0  0  0  0  0  0  0  0  0  0
    8.7036    4.3015   21.1449 H   0  0  0  0  0  0  0  0  0  0  0  0
    9.8467    4.4728   22.4844 H   0  0  0  0  0  0  0  0  0  0  0  0
   10.4873   -2.4314   23.7976 H   0  0  0  0  0  0  0  0  0  0  0  0
   10.4513   -1.0709   22.6230 H   0  0  0  0  0  0  0  0  0  0  0  0
    7.3527    2.9989   22.7942 H   0  0  0  0  0  0  0  0  0  0  0  0
    5.4931    0.1060   16.1856 H   0  0  0  0  0  0  0  0  0  0  0  0
  1  3  2  0  0  0  0
  1  7  1  0  0  0  0
  2  4  1  0  0  0  0
  2  7  2  0  0  0  0
  3  8  1  0  0  0  0
  4  8  2  0  0  0  0
  5  6  1  0  0  0  0
  5  9  2  0  0  0  0
  6 10  2  0  0  0  0
  7 16  1  0  0  0  0
  8 22  1  0  0  0  0
  9 17  1  0  0  0  0
  9 23  1  0  0  0  0
 10 23  1  0  0  0  0
 10 24  1  0  0  0  0
 11 18  1  0  0  0  0
 11 19  1  0  0  0  0
 11 21  2  0  0  0  0
 12 13  1  0  0  0  0
 12 19  1  0  0  0  0
 13 20  1  0  0  0  0
 14 15  1  0  0  0  0
 14 20  1  0  0  0  0
 15 16  1  0  0  0  0
 15 19  1  0  0  0  0
 17 20  1  0  0  0  0
 18 25  1  0  0  0  0
  1 26  1  0  0  0  0
  2 27  1  0  0  0  0
  3 28  1  0  0  0  0
  4 29  1  0  0  0  0
  5 30  1  0  0  0  0
  6 31  1  0  0  0  0
 12 32  1  0  0  0  0
 12 33  1  0  0  0  0
 13 34  1  0  0  0  0
 13 35  1  0  0  0  0
 14 36  1  0  0  0  0
 14 37  1  0  0  0  0
 15 38  1  0  0  0  0
 16 39  1  0  0  0  0
 16 40  1  0  0  0  0
 17 41  1  0  0  0  0
 17 42  1  0  0  0  0
 18 43  1  0  0  0  0
 18 44  1  0  0  0  0
 20 45  1  0  0  0  0
 22 46  1  0  0  0  0
M  CHG  1  20   1
M  END
> <creator>
Sean McKenna, Trinity College Dublin

> <fragments>
x0967

> <real_space>
FALSE

> <SCR>
FALSE

> <BB>
FALSE

> <link>
https://covid.postera.ai/covid/submissions/8252c13b-28e3-4eb2-89eb-55a663db6ceb

> <covalent_frag>
TRUE

> <covalent_warhead>
TRUE

> <acrylamide>
FALSE

> <acrylamide_adduct>
FALSE

> <chloroacetamide>
TRUE

> <chloroacetamide_adduct>
FALSE

> <vinylsulfonamide>
FALSE

> <vinylsulfonamide_adduct>
FALSE

> <in_molport_or_mcule>
FALSE

> <in_emolecules>
FALSE

> <Hybrid2>
-4.143690

> <Mpro-x0967_dock>
-4.14369

> <Mpro-x1334_dock>
-2.716359

> <site>
active-noncovalent

> <covalent_distance_min>
5.2852583

> <covalent_distance_mean>
6.508517

> <covalent_distance_stderr>
0.06637208

$$$$
JAN-GHE-bf4-12
  -OEChem-04062011563D

 47 50  0     1  0  0  0  0  0999 V2000
   10.1679    4.8762   25.2734 C   0  0  0  0  0  0  0  0  0  0  0  0
   11.7167    4.1567   23.4887 C   0  0  0  0  0  0  0  0  0  0  0  0
   12.3257    3.1985   22.7762 C   0  0  0  0  0  0  0  0  0  0  0  0
   10.1249    2.6136   24.4722 C   0  0  0  0  0  0  0  0  0  0  0  0
   12.3112    0.2328   24.4697 C   0  0  0  0  0  0  0  0  0  0  0  0
   10.6594    3.8453   24.4256 C   0  0  0  0  0  0  0  0  0  0  0  0
    6.7724   -1.4792   17.6250 C   0  0  0  0  0  0  0  0  0  0  0  0
    5.9968   -1.3428   18.7025 C   0  0  0  0  0  0  0  0  0  0  0  0
    5.8789   -2.4739   19.6440 C   0  0  0  0  0  0  0  0  0  0  0  0
    6.7923   -0.9412   21.3587 C   0  0  0  0  0  0  0  0  0  0  0  0
    6.2884   -3.1930   22.0567 C   0  0  0  0  0  0  0  0  0  0  0  0
    8.0123   -0.2885   23.5178 C   0  0  0  0  0  0  0  0  0  0  0  0
    8.5146   -2.6564   23.1876 C   0  0  0  0  0  0  0  0  0  0  0  0
   10.5827    1.4887   23.5692 C   0  0  1  0  0  0  0  0  0  0  0  0
   11.9471    1.7493   22.8894 C   0  0  2  0  0  0  0  0  0  0  0  0
   10.8225    0.1875   24.3328 C   0  0  1  0  0  0  0  0  0  0  0  0
    6.8215   -0.9925   22.8851 C   0  0  2  0  0  0  0  0  0  0  0  0
    7.0060   -2.4776   23.1908 C   0  0  1  0  0  0  0  0  0  0  0  0
   10.4242   -1.0549   23.5498 C   0  0  0  0  0  0  0  0  0  0  0  0
    9.7672    5.7170   25.9650 N   0  0  0  0  0  0  0  0  0  0  0  0
   12.9630    1.0557   23.7158 N   0  0  0  0  0  0  0  0  0  0  0  0
    6.2819   -2.2416   20.9455 N   0  0  0  0  0  0  0  0  0  0  0  0
    9.0004   -1.3918   23.8526 N   0  3  0  0  0  0  0  0  0  0  0  0
    5.4393   -3.5461   19.2295 O   0  0  0  0  0  0  0  0  0  0  0  0
   12.0279    5.1909   23.3773 H   0  0  0  0  0  0  0  0  0  0  0  0
   13.1275    3.4665   22.0944 H   0  0  0  0  0  0  0  0  0  0  0  0
    9.3026    2.3985   25.1516 H   0  0  0  0  0  0  0  0  0  0  0  0
   12.8167   -0.4373   25.1806 H   0  0  0  0  0  0  0  0  0  0  0  0
    6.8988   -0.6843   16.8976 H   0  0  0  0  0  0  0  0  0  0  0  0
    7.3041   -2.4088   17.4513 H   0  0  0  0  0  0  0  0  0  0  0  0
    5.4513   -0.4315   18.9102 H   0  0  0  0  0  0  0  0  0  0  0  0
    6.0851   -0.1821   21.0093 H   0  0  0  0  0  0  0  0  0  0  0  0
    7.7749   -0.7460   20.9210 H   0  0  0  0  0  0  0  0  0  0  0  0
    6.8118   -4.0938   21.7135 H   0  0  0  0  0  0  0  0  0  0  0  0
    5.2625   -3.4756   22.3172 H   0  0  0  0  0  0  0  0  0  0  0  0
    8.5166    0.4167   22.8326 H   0  0  0  0  0  0  0  0  0  0  0  0
    7.7611    0.2389   24.4538 H   0  0  0  0  0  0  0  0  0  0  0  0
    8.8305   -3.4807   23.8197 H   0  0  0  0  0  0  0  0  0  0  0  0
    8.9385   -2.7376   22.1923 H   0  0  0  0  0  0  0  0  0  0  0  0
    9.7992    1.3612   22.8106 H   0  0  0  0  0  0  0  0  0  0  0  0
   11.9487    1.3020   21.8871 H   0  0  0  0  0  0  0  0  0  0  0  0
   10.3608    0.1686   25.3243 H   0  0  0  0  0  0  0  0  0  0  0  0
    5.8781   -0.6085   23.3098 H   0  0  0  0  0  0  0  0  0  0  0  0
    6.5703   -2.7402   24.1526 H   0  0  0  0  0  0  0  0  0  0  0  0
   11.0268   -1.9222   23.8333 H   0  0  0  0  0  0  0  0  0  0  0  0
   10.4933   -0.8922   22.4707 H   0  0  0  0  0  0  0  0  0  0  0  0
    8.9355   -1.5435   24.8687 H   0  0  0  0  0  0  0  0  0  0  0  0
  1  6  1  0  0  0  0
  1 20  3  0  0  0  0
  2  3  2  0  0  0  0
  2  6  1  0  0  0  0
  3 15  1  0  0  0  0
  4  6  2  0  0  0  0
  4 14  1  0  0  0  0
  5 16  1  0  0  0  0
  5 21  2  0  0  0  0
  7  8  2  0  0  0  0
  8  9  1  0  0  0  0
  9 22  1  0  0  0  0
  9 24  2  0  0  0  0
 10 17  1  0  0  0  0
 10 22  1  0  0  0  0
 11 18  1  0  0  0  0
 11 22  1  0  0  0  0
 12 17  1  0  0  0  0
 12 23  1  0  0  0  0
 13 18  1  0  0  0  0
 13 23  1  0  0  0  0
 14 15  1  0  0  0  0
 14 16  1  0  0  0  0
 15 21  1  0  0  0  0
 16 19  1  0  0  0  0
 17 18  1  0  0  0  0
 19 23  1  0  0  0  0
  2 25  1  0  0  0  0
  3 26  1  0  0  0  0
  4 27  1  0  0  0  0
  5 28  1  0  0  0  0
  7 29  1  0  0  0  0
  7 30  1  0  0  0  0
  8 31  1  0  0  0  0
 10 32  1  0  0  0  0
 10 33  1  0  0  0  0
 11 34  1  0  0  0  0
 11 35  1  0  0  0  0
 12 36  1  0  0  0  0
 12 37  1  0  0  0  0
 13 38  1  0  0  0  0
 13 39  1  0  0  0  0
 14 40  1  0  0  0  0
 15 41  1  0  0  0  0
 16 42  1  0  0  0  0
 17 43  1  0  0  0  0
 18 44  1  0  0  0  0
 19 45  1  0  0  0  0
 19 46  1  0  0  0  0
 23 47  1  0  0  0  0
M  CHG  1  23   1
M  END
> <creator>
Jan, Ghent university

> <fragments>
x0692

> <real_space>
FALSE

> <SCR>
FALSE

> <BB>
FALSE

> <link>
https://covid.postera.ai/covid/submissions/bf40f168-4eec-438e-a3f5-b4da0b83bc9c

> <covalent_frag>
TRUE

> <covalent_warhead>
TRUE

> <acrylamide>
TRUE

> <acrylamide_adduct>
FALSE

> <chloroacetamide>
FALSE

> <chloroacetamide_adduct>
FALSE

> <vinylsulfonamide>
FALSE

> <vinylsulfonamide_adduct>
FALSE

> <in_molport_or_mcule>
FALSE

> <in_emolecules>
FALSE

> <Hybrid2>
-4.142497

> <Mpro-x0692_dock>
-4.142497

> <Mpro-x0305_dock>
-3.76532

> <Mpro-x0755_dock>
0.23474

> <site>
active-covalent

> <covalent_distance_min>
6.8270435

> <covalent_distance_mean>
7.3864927

> <covalent_distance_stderr>
0.04629368

$$$$
TAM-UNI-d1c-19
  -OEChem-04062011563D

 55 57  0     0  0  0  0  0  0999 V2000
    8.2009   -4.1746   23.3550 C   0  0  0  0  0  0  0  0  0  0  0  0
    9.4451   -3.5964   23.0782 C   0  0  0  0  0  0  0  0  0  0  0  0
    8.4736   -2.2125   21.3331 C   0  0  0  0  0  0  0  0  0  0  0  0
    5.0628   -3.3871   21.6541 C   0  0  0  0  0  0  0  0  0  0  0  0
    7.0741   -3.7688   22.6126 C   0  0  0  0  0  0  0  0  0  0  0  0
    9.5771   -2.6306   22.0824 C   0  0  0  0  0  0  0  0  0  0  0  0
    5.6979   -4.1306   22.6221 C   0  0  0  0  0  0  0  0  0  0  0  0
    7.2361   -2.7991   21.6208 C   0  0  0  0  0  0  0  0  0  0  0  0
   11.7582    2.8936   24.2066 C   0  0  0  0  0  0  0  0  0  0  0  0
    6.8298   -5.1284   26.3292 C   0  0  0  0  0  0  0  0  0  0  0  0
   10.6705    0.6886   24.4825 C   0  0  0  0  0  0  0  0  0  0  0  0
   12.9310    0.7495   23.5029 C   0  0  0  0  0  0  0  0  0  0  0  0
   10.1868   -0.2196   23.3615 C   0  0  0  0  0  0  0  0  0  0  0  0
   12.4815   -0.1599   22.3673 C   0  0  0  0  0  0  0  0  0  0  0  0
    8.0645   -4.5220   26.9089 C   0  0  0  0  0  0  0  0  0  0  0  0
    5.7123   -1.6586   19.9833 C   0  0  0  0  0  0  0  0  0  0  0  0
    5.0558   -5.1226   23.5079 C   0  0  0  0  0  0  0  0  0  0  0  0
   10.9242   -2.0300   21.8078 C   0  0  0  0  0  0  0  0  0  0  0  0
   12.9604    3.6659   23.7252 C   0  0  0  0  0  0  0  0  0  0  0  0
    4.8259   -4.6239   24.9462 C   0  0  0  0  0  0  0  0  0  0  0  0
    5.9989   -2.5872   21.0555 N   0  0  0  0  0  0  0  0  0  0  0  0
   11.7992    1.5096   24.0441 N   0  0  0  0  0  0  0  0  0  0  0  0
    6.0546   -4.2474   25.5923 N   0  0  0  0  0  0  0  0  0  0  0  0
   11.3519   -1.0398   22.8542 N   0  3  0  0  0  0  0  0  0  0  0  0
   10.8111    3.5039   24.7092 O   0  0  0  0  0  0  0  0  0  0  0  0
    6.5874   -6.3129   26.5287 O   0  0  0  0  0  0  0  0  0  0  0  0
   12.6179    5.3668   24.0209 Cl  0  0  0  0  0  0  0  0  0  0  0  0
    8.1150   -4.9273   24.1337 H   0  0  0  0  0  0  0  0  0  0  0  0
   10.3127   -3.9122   23.6528 H   0  0  0  0  0  0  0  0  0  0  0  0
    8.5744   -1.4619   20.5555 H   0  0  0  0  0  0  0  0  0  0  0  0
    4.0266   -3.3600   21.3435 H   0  0  0  0  0  0  0  0  0  0  0  0
    9.8432    1.3175   24.8261 H   0  0  0  0  0  0  0  0  0  0  0  0
   11.0078    0.0975   25.3427 H   0  0  0  0  0  0  0  0  0  0  0  0
   13.3499    0.1591   24.3269 H   0  0  0  0  0  0  0  0  0  0  0  0
   13.7264    1.4042   23.1428 H   0  0  0  0  0  0  0  0  0  0  0  0
    9.4307   -0.9201   23.7304 H   0  0  0  0  0  0  0  0  0  0  0  0
    9.7825    0.3496   22.5168 H   0  0  0  0  0  0  0  0  0  0  0  0
   12.1170    0.4097   21.5051 H   0  0  0  0  0  0  0  0  0  0  0  0
   13.2975   -0.8198   22.0554 H   0  0  0  0  0  0  0  0  0  0  0  0
    7.8952   -4.1024   27.9136 H   0  0  0  0  0  0  0  0  0  0  0  0
    8.8755   -5.2574   27.0335 H   0  0  0  0  0  0  0  0  0  0  0  0
    8.5062   -3.7005   26.3225 H   0  0  0  0  0  0  0  0  0  0  0  0
    5.4538   -0.6955   20.4313 H   0  0  0  0  0  0  0  0  0  0  0  0
    6.5933   -1.5583   19.3432 H   0  0  0  0  0  0  0  0  0  0  0  0
    4.8785   -2.0405   19.3876 H   0  0  0  0  0  0  0  0  0  0  0  0
    5.6741   -6.0405   23.5619 H   0  0  0  0  0  0  0  0  0  0  0  0
    4.0863   -5.4656   23.0933 H   0  0  0  0  0  0  0  0  0  0  0  0
   11.7010   -2.8012   21.7684 H   0  0  0  0  0  0  0  0  0  0  0  0
   10.9326   -1.4988   20.8499 H   0  0  0  0  0  0  0  0  0  0  0  0
   13.0882    3.4912   22.6630 H   0  0  0  0  0  0  0  0  0  0  0  0
   13.8285    3.3562   24.2957 H   0  0  0  0  0  0  0  0  0  0  0  0
    4.1801   -3.7403   24.9567 H   0  0  0  0  0  0  0  0  0  0  0  0
    4.3543   -5.3988   25.5594 H   0  0  0  0  0  0  0  0  0  0  0  0
    6.3714   -3.2832   25.5035 H   0  0  0  0  0  0  0  0  0  0  0  0
   11.7106   -1.5889   23.6476 H   0  0  0  0  0  0  0  0  0  0  0  0
  1  2  2  0  0  0  0
  1  5  1  0  0  0  0
  2  6  1  0  0  0  0
  3  6  2  0  0  0  0
  3  8  1  0  0  0  0
  4  7  2  0  0  0  0
  4 21  1  0  0  0  0
  5  7  1  0  0  0  0
  5  8  2  0  0  0  0
  6 18  1  0  0  0  0
  7 17  1  0  0  0  0
  8 21  1  0  0  0  0
  9 19  1  0  0  0  0
  9 22  1  0  0  0  0
  9 25  2  0  0  0  0
 10 15  1  0  0  0  0
 10 23  1  0  0  0  0
 10 26  2  0  0  0  0
 11 13  1  0  0  0  0
 11 22  1  0  0  0  0
 12 14  1  0  0  0  0
 12 22  1  0  0  0  0
 13 24  1  0  0  0  0
 14 24  1  0  0  0  0
 16 21  1  0  0  0  0
 17 20  1  0  0  0  0
 18 24  1  0  0  0  0
 19 27  1  0  0  0  0
 20 23  1  0  0  0  0
  1 28  1  0  0  0  0
  2 29  1  0  0  0  0
  3 30  1  0  0  0  0
  4 31  1  0  0  0  0
 11 32  1  0  0  0  0
 11 33  1  0  0  0  0
 12 34  1  0  0  0  0
 12 35  1  0  0  0  0
 13 36  1  0  0  0  0
 13 37  1  0  0  0  0
 14 38  1  0  0  0  0
 14 39  1  0  0  0  0
 15 40  1  0  0  0  0
 15 41  1  0  0  0  0
 15 42  1  0  0  0  0
 16 43  1  0  0  0  0
 16 44  1  0  0  0  0
 16 45  1  0  0  0  0
 17 46  1  0  0  0  0
 17 47  1  0  0  0  0
 18 48  1  0  0  0  0
 18 49  1  0  0  0  0
 19 50  1  0  0  0  0
 19 51  1  0  0  0  0
 20 52  1  0  0  0  0
 20 53  1  0  0  0  0
 23 54  1  0  0  0  0
 24 55  1  0  0  0  0
M  CHG  1  24   1
M  END
> <creator>
Tamas Szommer, University of Oxford, TDI

> <fragments>
x1392

> <real_space>
FALSE

> <SCR>
FALSE

> <BB>
FALSE

> <link>
https://covid.postera.ai/covid/submissions/d1c3dd9f-771c-474e-9133-8c7e4ace8b98

> <covalent_frag>
TRUE

> <covalent_warhead>
TRUE

> <acrylamide>
FALSE

> <acrylamide_adduct>
FALSE

> <chloroacetamide>
TRUE

> <chloroacetamide_adduct>
FALSE

> <vinylsulfonamide>
FALSE

> <vinylsulfonamide_adduct>
FALSE

> <in_molport_or_mcule>
FALSE

> <in_emolecules>
FALSE

> <Hybrid2>
-4.142491

> <Mpro-x1392_dock>
-4.142491

> <Mpro-x0692_dock>
-3.360259

> <Mpro-x1386_dock>
-1.70534

> <Mpro-x1382_dock>
-0.457204

> <site>
active-covalent

> <covalent_distance_min>
9.819097

> <covalent_distance_mean>
10.771277

> <covalent_distance_stderr>
0.06737816

$$$$
DAV-CRI-8c8-1
  -OEChem-04062011563D

 57 61  0     1  0  0  0  0  0999 V2000
    3.5706   -5.4347   22.7483 C   0  0  0  0  0  0  0  0  0  0  0  0
    3.1801   -4.1932   23.2499 C   0  0  0  0  0  0  0  0  0  0  0  0
    4.9252   -5.7532   22.6515 C   0  0  0  0  0  0  0  0  0  0  0  0
    8.6756   -4.3526   26.6242 C   0  0  0  0  0  0  0  0  0  0  0  0
    9.9013   -4.4671   25.9774 C   0  0  0  0  0  0  0  0  0  0  0  0
   12.4388   -0.9679   21.7059 C   0  0  0  0  0  0  0  0  0  0  0  0
    4.1442   -3.2700   23.6547 C   0  0  0  0  0  0  0  0  0  0  0  0
    5.8893   -4.8300   23.0563 C   0  0  0  0  0  0  0  0  0  0  0  0
    7.6055   -3.7339   25.9806 C   0  0  0  0  0  0  0  0  0  0  0  0
   10.0587   -3.9579   24.6889 C   0  0  0  0  0  0  0  0  0  0  0  0
   11.4466   -1.9449   21.7862 C   0  0  0  0  0  0  0  0  0  0  0  0
   12.2774    0.2466   22.3727 C   0  0  0  0  0  0  0  0  0  0  0  0
   10.1314   -0.4930   23.2000 C   0  0  0  0  0  0  0  0  0  0  0  0
    5.4989   -3.5884   23.5579 C   0  0  0  0  0  0  0  0  0  0  0  0
   10.2929   -1.7075   22.5332 C   0  0  0  0  0  0  0  0  0  0  0  0
    7.7499   -3.2155   24.6819 C   0  0  0  0  0  0  0  0  0  0  0  0
    8.9928   -3.3193   24.0292 C   0  0  0  0  0  0  0  0  0  0  0  0
   11.1236    0.4841   23.1198 C   0  0  0  0  0  0  0  0  0  0  0  0
    9.8580    2.1118   24.5910 C   0  0  0  0  0  0  0  0  0  0  0  0
    7.8093   -2.4801   20.5854 C   0  0  0  0  0  0  0  0  0  0  0  0
   10.0914    3.5438   25.0160 C   0  0  0  0  0  0  0  0  0  0  0  0
   11.5868    3.7210   24.8442 C   0  0  0  0  0  0  0  0  0  0  0  0
   11.9175    2.8076   23.6824 C   0  0  0  0  0  0  0  0  0  0  0  0
    6.9709   -1.6667   22.8372 C   0  0  0  0  0  0  0  0  0  0  0  0
    6.5525   -2.5804   23.9996 C   0  0  1  0  0  0  0  0  0  0  0  0
    9.2068   -2.7776   22.6208 C   0  0  1  0  0  0  0  0  0  0  0  0
    6.5388   -1.9497   19.9701 C   0  0  0  0  0  0  0  0  0  0  0  0
   10.9592    1.7258   23.8020 N   0  0  0  0  0  0  0  0  0  0  0  0
    7.9595   -2.3160   21.9676 N   0  0  0  0  0  0  0  0  0  0  0  0
    8.8396    1.4988   24.8765 O   0  0  0  0  0  0  0  0  0  0  0  0
    8.6441   -3.0269   19.8594 O   0  0  0  0  0  0  0  0  0  0  0  0
    6.8498   -0.2717   19.5396 Cl  0  0  0  0  0  0  0  0  0  0  0  0
    2.8197   -6.1539   22.4344 H   0  0  0  0  0  0  0  0  0  0  0  0
    2.1254   -3.9454   23.3264 H   0  0  0  0  0  0  0  0  0  0  0  0
    5.2295   -6.7201   22.2620 H   0  0  0  0  0  0  0  0  0  0  0  0
    8.5503   -4.7496   27.6272 H   0  0  0  0  0  0  0  0  0  0  0  0
   10.7351   -4.9542   26.4742 H   0  0  0  0  0  0  0  0  0  0  0  0
   13.3375   -1.1529   21.1245 H   0  0  0  0  0  0  0  0  0  0  0  0
    3.8308   -2.3049   24.0441 H   0  0  0  0  0  0  0  0  0  0  0  0
    6.9424   -5.0867   22.9771 H   0  0  0  0  0  0  0  0  0  0  0  0
    6.6510   -3.6603   26.4967 H   0  0  0  0  0  0  0  0  0  0  0  0
   11.0234   -4.0622   24.1977 H   0  0  0  0  0  0  0  0  0  0  0  0
   11.5812   -2.8875   21.2628 H   0  0  0  0  0  0  0  0  0  0  0  0
   13.0571    1.0009   22.3030 H   0  0  0  0  0  0  0  0  0  0  0  0
    9.2303   -0.3098   23.7814 H   0  0  0  0  0  0  0  0  0  0  0  0
    9.5271    4.2040   24.3498 H   0  0  0  0  0  0  0  0  0  0  0  0
    9.7784    3.7003   26.0511 H   0  0  0  0  0  0  0  0  0  0  0  0
   11.8645    4.7617   24.6551 H   0  0  0  0  0  0  0  0  0  0  0  0
   12.1111    3.3855   25.7473 H   0  0  0  0  0  0  0  0  0  0  0  0
   11.7540    3.3056   22.7198 H   0  0  0  0  0  0  0  0  0  0  0  0
   12.9426    2.4271   23.7323 H   0  0  0  0  0  0  0  0  0  0  0  0
    6.0927   -1.3263   22.2835 H   0  0  0  0  0  0  0  0  0  0  0  0
    7.4559   -0.7650   23.2334 H   0  0  0  0  0  0  0  0  0  0  0  0
    6.0468   -1.9173   24.7532 H   0  0  0  0  0  0  0  0  0  0  0  0
    9.5825   -3.6373   22.0052 H   0  0  0  0  0  0  0  0  0  0  0  0
    5.7433   -2.0042   20.7045 H   0  0  0  0  0  0  0  0  0  0  0  0
    6.3117   -2.5264   19.0809 H   0  0  0  0  0  0  0  0  0  0  0  0
  1  2  1  0  0  0  0
  1  3  2  0  0  0  0
  2  7  2  0  0  0  0
  3  8  1  0  0  0  0
  4  5  1  0  0  0  0
  4  9  2  0  0  0  0
  5 10  2  0  0  0  0
  6 11  1  0  0  0  0
  6 12  2  0  0  0  0
  7 14  1  0  0  0  0
  8 14  2  0  0  0  0
  9 16  1  0  0  0  0
 10 17  1  0  0  0  0
 11 15  2  0  0  0  0
 12 18  1  0  0  0  0
 13 15  1  0  0  0  0
 13 18  2  0  0  0  0
 14 25  1  0  0  0  0
 15 26  1  0  0  0  0
 16 17  2  0  0  0  0
 16 25  1  0  0  0  0
 17 26  1  0  0  0  0
 18 28  1  0  0  0  0
 19 21  1  0  0  0  0
 19 28  1  0  0  0  0
 19 30  2  0  0  0  0
 20 27  1  0  0  0  0
 20 29  1  0  0  0  0
 20 31  2  0  0  0  0
 21 22  1  0  0  0  0
 22 23  1  0  0  0  0
 23 28  1  0  0  0  0
 24 25  1  0  0  0  0
 24 29  1  0  0  0  0
 26 29  1  0  0  0  0
 27 32  1  0  0  0  0
  1 33  1  0  0  0  0
  2 34  1  0  0  0  0
  3 35  1  0  0  0  0
  4 36  1  0  0  0  0
  5 37  1  0  0  0  0
  6 38  1  0  0  0  0
  7 39  1  0  0  0  0
  8 40  1  0  0  0  0
  9 41  1  0  0  0  0
 10 42  1  0  0  0  0
 11 43  1  0  0  0  0
 12 44  1  0  0  0  0
 13 45  1  0  0  0  0
 21 46  1  0  0  0  0
 21 47  1  0  0  0  0
 22 48  1  0  0  0  0
 22 49  1  0  0  0  0
 23 50  1  0  0  0  0
 23 51  1  0  0  0  0
 24 52  1  0  0  0  0
 24 53  1  0  0  0  0
 25 54  1  0  0  0  0
 26 55  1  0  0  0  0
 27 56  1  0  0  0  0
 27 57  1  0  0  0  0
M  END
> <creator>
David Briggs, Crick Institute

> <fragments>
x1392

> <real_space>
FALSE

> <SCR>
FALSE

> <BB>
FALSE

> <link>
https://covid.postera.ai/covid/submissions/8c8dd668-6ccd-4296-927f-9e29d70b0ecc

> <covalent_frag>
TRUE

> <covalent_warhead>
TRUE

> <acrylamide>
FALSE

> <acrylamide_adduct>
FALSE

> <chloroacetamide>
TRUE

> <chloroacetamide_adduct>
FALSE

> <vinylsulfonamide>
FALSE

> <vinylsulfonamide_adduct>
FALSE

> <in_molport_or_mcule>
FALSE

> <in_emolecules>
FALSE

> <Hybrid2>
-4.134730

> <Mpro-x1392_dock>
-4.13473

> <Mpro-x1384_dock>
-0.386226

> <site>
active-covalent

> <covalent_distance_min>
3.0158825

> <covalent_distance_mean>
3.4041817

> <covalent_distance_stderr>
0.024837438

$$$$
INS-INS-9c6-1
  -OEChem-04062011563D

 73 77  0     1  0  0  0  0  0999 V2000
   10.7933    1.4072   25.1211 C   0  0  0  0  0  0  0  0  0  0  0  0
   11.3077    2.6339   25.5417 C   0  0  0  0  0  0  0  0  0  0  0  0
    7.0982   -5.4437   22.4532 C   0  0  0  0  0  0  0  0  0  0  0  0
   13.1522    2.3890   24.0037 C   0  0  0  0  0  0  0  0  0  0  0  0
   13.3072    0.3992   22.5826 C   0  0  0  0  0  0  0  0  0  0  0  0
   11.6156   -1.3175   22.7198 C   0  0  0  0  0  0  0  0  0  0  0  0
    7.7190   -6.4465   23.1698 C   0  0  0  0  0  0  0  0  0  0  0  0
    8.3106   -4.9815   24.8040 C   0  0  0  0  0  0  0  0  0  0  0  0
   11.4517    0.6540   24.1355 C   0  0  0  0  0  0  0  0  0  0  0  0
   12.6488    1.1523   23.5684 C   0  0  0  0  0  0  0  0  0  0  0  0
   12.4849    3.1239   24.9841 C   0  0  0  0  0  0  0  0  0  0  0  0
   12.7928   -0.8275   22.1621 C   0  0  0  0  0  0  0  0  0  0  0  0
   10.9483   -0.5827   23.7002 C   0  0  0  0  0  0  0  0  0  0  0  0
    7.1410   -4.1880   23.0237 C   0  0  0  0  0  0  0  0  0  0  0  0
    5.2952    2.5017   22.9017 C   0  0  0  0  0  0  0  0  0  0  0  0
    7.1128    3.0951   21.8754 C   0  0  0  0  0  0  0  0  0  0  0  0
    6.0180   -1.7889   19.4575 C   0  0  0  0  0  0  0  0  0  0  0  0
    7.0089    0.1168   20.7983 C   0  0  0  0  0  0  0  0  0  0  0  0
    8.1708    0.3835   23.0675 C   0  0  0  0  0  0  0  0  0  0  0  0
    8.7620   -1.8641   22.0606 C   0  0  0  0  0  0  0  0  0  0  0  0
    6.8719    0.5465   22.2703 C   0  0  1  0  0  0  0  0  0  0  0  0
    7.4741   -2.3294   21.3677 C   0  0  1  0  0  0  0  0  0  0  0  0
   13.0344    4.4354   25.4341 C   0  0  0  0  0  0  0  0  0  0  0  0
   13.5054   -1.6141   21.1143 C   0  0  0  0  0  0  0  0  0  0  0  0
    4.2732    1.6489   23.5343 C   0  0  0  0  0  0  0  0  0  0  0  0
    8.4162    3.0010   21.1942 C   0  0  0  0  0  0  0  0  0  0  0  0
    9.6858   -1.1690   24.2597 C   0  0  0  0  0  0  0  0  0  0  0  0
    6.4919   -3.0317   22.3170 C   0  0  0  0  0  0  0  0  0  0  0  0
    5.9889   -0.9443   18.2074 C   0  0  0  0  0  0  0  0  0  0  0  0
    8.3371   -6.2500   24.3528 N   0  0  0  0  0  0  0  0  0  0  0  0
    7.7407   -3.9200   24.2023 N   0  0  0  0  0  0  0  0  0  0  0  0
    5.2697    3.8095   22.7781 N   0  0  0  0  0  0  0  0  0  0  0  0
    6.4261    4.1870   22.1253 N   0  0  0  0  0  0  0  0  0  0  0  0
    6.4379    2.0103   22.3471 N   0  0  0  0  0  0  0  0  0  0  0  0
    6.7871   -1.3170   20.5392 N   0  0  0  0  0  0  0  0  0  0  0  0
    8.5120   -1.0623   23.3120 N   0  3  1  0  0  0  0  0  0  0  0  0
    5.3755   -2.8434   19.4748 O   0  0  0  0  0  0  0  0  0  0  0  0
    7.6562   -0.7904   17.6661 Cl  0  0  0  0  0  0  0  0  0  0  0  0
    9.8711    1.0586   25.5803 H   0  0  0  0  0  0  0  0  0  0  0  0
   10.7820    3.2001   26.3061 H   0  0  0  0  0  0  0  0  0  0  0  0
    6.6117   -5.6396   21.5063 H   0  0  0  0  0  0  0  0  0  0  0  0
   14.0722    2.7837   23.5756 H   0  0  0  0  0  0  0  0  0  0  0  0
   14.2288    0.7711   22.1376 H   0  0  0  0  0  0  0  0  0  0  0  0
   11.2168   -2.2742   22.3898 H   0  0  0  0  0  0  0  0  0  0  0  0
    7.7375   -7.4667   22.8014 H   0  0  0  0  0  0  0  0  0  0  0  0
    8.7997   -4.7956   25.7524 H   0  0  0  0  0  0  0  0  0  0  0  0
    6.3200    0.7221   20.1784 H   0  0  0  0  0  0  0  0  0  0  0  0
    8.0131    0.3787   20.4038 H   0  0  0  0  0  0  0  0  0  0  0  0
    9.0403    0.8720   22.5876 H   0  0  0  0  0  0  0  0  0  0  0  0
    8.0522    0.8657   24.0564 H   0  0  0  0  0  0  0  0  0  0  0  0
    9.3816   -2.7234   22.3613 H   0  0  0  0  0  0  0  0  0  0  0  0
    9.3543   -1.2359   21.3763 H   0  0  0  0  0  0  0  0  0  0  0  0
    6.0625    0.0165   22.7551 H   0  0  0  0  0  0  0  0  0  0  0  0
    7.7579   -3.1455   20.6582 H   0  0  0  0  0  0  0  0  0  0  0  0
   13.7196    4.2928   26.2786 H   0  0  0  0  0  0  0  0  0  0  0  0
   13.5796    4.9378   24.6246 H   0  0  0  0  0  0  0  0  0  0  0  0
   12.2327    5.1167   25.7477 H   0  0  0  0  0  0  0  0  0  0  0  0
   14.2323   -2.2938   21.5754 H   0  0  0  0  0  0  0  0  0  0  0  0
   12.8031   -2.2092   20.5163 H   0  0  0  0  0  0  0  0  0  0  0  0
   14.0386   -0.9559   20.4159 H   0  0  0  0  0  0  0  0  0  0  0  0
    3.5155    1.3229   22.8018 H   0  0  0  0  0  0  0  0  0  0  0  0
    4.7105    0.7418   23.9874 H   0  0  0  0  0  0  0  0  0  0  0  0
    3.7440    2.1703   24.3515 H   0  0  0  0  0  0  0  0  0  0  0  0
    9.2493    3.0702   21.9140 H   0  0  0  0  0  0  0  0  0  0  0  0
    8.5301    2.0509   20.6431 H   0  0  0  0  0  0  0  0  0  0  0  0
    8.5540    3.8026   20.4471 H   0  0  0  0  0  0  0  0  0  0  0  0
    9.8104   -2.2331   24.4875 H   0  0  0  0  0  0  0  0  0  0  0  0
    9.3903   -0.6621   25.1847 H   0  0  0  0  0  0  0  0  0  0  0  0
    5.6250   -3.3776   21.7474 H   0  0  0  0  0  0  0  0  0  0  0  0
    6.1156   -2.3086   23.0459 H   0  0  0  0  0  0  0  0  0  0  0  0
    5.5850    0.0308   18.4529 H   0  0  0  0  0  0  0  0  0  0  0  0
    5.3978   -1.4528   17.4550 H   0  0  0  0  0  0  0  0  0  0  0  0
    7.7265   -1.4873   23.7958 H   0  0  0  0  0  0  0  0  0  0  0  0
  1  2  2  0  0  0  0
  1  9  1  0  0  0  0
  2 11  1  0  0  0  0
  3  7  2  0  0  0  0
  3 14  1  0  0  0  0
  4 10  1  0  0  0  0
  4 11  2  0  0  0  0
  5 10  1  0  0  0  0
  5 12  2  0  0  0  0
  6 12  1  0  0  0  0
  6 13  2  0  0  0  0
  7 30  1  0  0  0  0
  8 30  2  0  0  0  0
  8 31  1  0  0  0  0
  9 10  2  0  0  0  0
  9 13  1  0  0  0  0
 11 23  1  0  0  0  0
 12 24  1  0  0  0  0
 13 27  1  0  0  0  0
 14 28  1  0  0  0  0
 14 31  2  0  0  0  0
 15 25  1  0  0  0  0
 15 32  2  0  0  0  0
 15 34  1  0  0  0  0
 16 26  1  0  0  0  0
 16 33  2  0  0  0  0
 16 34  1  0  0  0  0
 17 29  1  0  0  0  0
 17 35  1  0  0  0  0
 17 37  2  0  0  0  0
 18 21  1  0  0  0  0
 18 35  1  0  0  0  0
 19 21  1  0  0  0  0
 19 36  1  0  0  0  0
 20 22  1  0  0  0  0
 20 36  1  0  0  0  0
 21 34  1  0  0  0  0
 22 28  1  0  0  0  0
 22 35  1  0  0  0  0
 27 36  1  0  0  0  0
 29 38  1  0  0  0  0
 32 33  1  0  0  0  0
  1 39  1  0  0  0  0
  2 40  1  0  0  0  0
  3 41  1  0  0  0  0
  4 42  1  0  0  0  0
  5 43  1  0  0  0  0
  6 44  1  0  0  0  0
  7 45  1  0  0  0  0
  8 46  1  0  0  0  0
 18 47  1  0  0  0  0
 18 48  1  0  0  0  0
 19 49  1  0  0  0  0
 19 50  1  0  0  0  0
 20 51  1  0  0  0  0
 20 52  1  0  0  0  0
 21 53  1  0  0  0  0
 22 54  1  0  0  0  0
 23 55  1  0  0  0  0
 23 56  1  0  0  0  0
 23 57  1  0  0  0  0
 24 58  1  0  0  0  0
 24 59  1  0  0  0  0
 24 60  1  0  0  0  0
 25 61  1  0  0  0  0
 25 62  1  0  0  0  0
 25 63  1  0  0  0  0
 26 64  1  0  0  0  0
 26 65  1  0  0  0  0
 26 66  1  0  0  0  0
 27 67  1  0  0  0  0
 27 68  1  0  0  0  0
 28 69  1  0  0  0  0
 28 70  1  0  0  0  0
 29 71  1  0  0  0  0
 29 72  1  0  0  0  0
 36 73  1  0  0  0  0
M  CHG  1  36   1
M  END
> <creator>
INSCoV_5REY_5537, Insilico Medicine Hong Kong Ltd

> <fragments>
x0831

> <real_space>
FALSE

> <SCR>
FALSE

> <BB>
FALSE

> <link>
https://covid.postera.ai/covid/submissions/9c68b1a9-1194-4e0b-a6a4-636a1f2e02f1

> <covalent_frag>
TRUE

> <covalent_warhead>
TRUE

> <acrylamide>
FALSE

> <acrylamide_adduct>
FALSE

> <chloroacetamide>
TRUE

> <chloroacetamide_adduct>
FALSE

> <vinylsulfonamide>
FALSE

> <vinylsulfonamide_adduct>
FALSE

> <in_molport_or_mcule>
FALSE

> <in_emolecules>
FALSE

> <Hybrid2>
-4.119519

> <Mpro-x0831_dock>
-4.119519

> <site>
active-covalent

> <covalent_distance_min>
2.8936944

> <covalent_distance_mean>
3.5102472

> <covalent_distance_stderr>
0.02134428

$$$$
CHA-KIN-87c-2
  -OEChem-04062011563D

 85 87  0     1  0  0  0  0  0999 V2000
    6.3261    8.0300   25.4355 C   0  0  0  0  0  0  0  0  0  0  0  0
    7.6739    7.7535   25.6645 C   0  0  0  0  0  0  0  0  0  0  0  0
    5.6103    7.2839   24.4991 C   0  0  0  0  0  0  0  0  0  0  0  0
   12.5590    0.3270   24.7196 C   0  0  0  0  0  0  0  0  0  0  0  0
   12.8005   -0.0609   22.3472 C   0  0  0  0  0  0  0  0  0  0  0  0
   13.2591   -0.8502   24.9833 C   0  0  0  0  0  0  0  0  0  0  0  0
   13.5007   -1.2381   22.6109 C   0  0  0  0  0  0  0  0  0  0  0  0
   12.3295    0.7216   23.4015 C   0  0  0  0  0  0  0  0  0  0  0  0
    8.3060    6.7309   24.9571 C   0  0  0  0  0  0  0  0  0  0  0  0
    6.2424    6.2613   23.7918 C   0  0  0  0  0  0  0  0  0  0  0  0
    7.5903    5.9848   24.0207 C   0  0  0  0  0  0  0  0  0  0  0  0
   13.7301   -1.6327   23.9290 C   0  0  0  0  0  0  0  0  0  0  0  0
    4.5104    1.7472   21.5400 C   0  0  0  0  0  0  0  0  0  0  0  0
    9.4430   -0.9941   26.4023 C   0  0  0  0  0  0  0  0  0  0  0  0
    9.7457    0.8749   21.8011 C   0  0  0  0  0  0  0  0  0  0  0  0
    8.8470    3.8032   23.8164 C   0  0  0  0  0  0  0  0  0  0  0  0
    6.7992    1.4138   18.7802 C   0  0  0  0  0  0  0  0  0  0  0  0
    5.3430    1.4571   19.2305 C   0  0  0  0  0  0  0  0  0  0  0  0
    7.4198    0.0415   19.0045 C   0  0  0  0  0  0  0  0  0  0  0  0
    5.7843   -0.3380   20.8645 C   0  0  0  0  0  0  0  0  0  0  0  0
    9.7510    6.4584   25.2244 C   0  0  0  0  0  0  0  0  0  0  0  0
   11.5723    1.9958   23.1159 C   0  0  0  0  0  0  0  0  0  0  0  0
    5.4485    5.4797   22.7957 C   0  0  0  0  0  0  0  0  0  0  0  0
    4.4135    1.1867   22.9366 C   0  0  0  0  0  0  0  0  0  0  0  0
    8.5224   -1.7694   25.4783 C   0  0  0  0  0  0  0  0  0  0  0  0
    8.4228   -1.1770   24.0717 C   0  0  0  0  0  0  0  0  0  0  0  0
    9.7632   -1.0818   23.3461 C   0  0  0  0  0  0  0  0  0  0  0  0
    9.3853   -1.4670   20.9450 C   0  0  0  0  0  0  0  0  0  0  0  0
    7.8936   -1.6702   20.7582 C   0  0  0  0  0  0  0  0  0  0  0  0
   10.0591    1.7761   22.9973 C   0  0  1  0  0  0  0  0  0  0  0  0
    5.2049    0.9789   20.6057 N   0  0  0  0  0  0  0  0  0  0  0  0
   10.0370   -1.8014   27.3488 N   0  0  0  0  0  0  0  0  0  0  0  0
    8.2312    4.9481   23.3031 N   0  0  0  0  0  0  0  0  0  0  0  0
    9.3639    3.0243   22.7767 N   0  0  0  0  0  0  0  0  0  0  0  0
    9.6379   -0.4903   22.0278 N   0  0  0  0  0  0  0  0  0  0  0  0
    7.2369   -0.3545   20.4506 N   0  3  1  0  0  0  0  0  0  0  0  0
    3.9856    2.8352   21.2892 O   0  0  0  0  0  0  0  0  0  0  0  0
    9.6220    0.2183   26.3336 O   0  0  0  0  0  0  0  0  0  0  0  0
    9.6367    1.3658   20.6721 O   0  0  0  0  0  0  0  0  0  0  0  0
    8.9412    3.4906   25.0009 O   0  0  0  0  0  0  0  0  0  0  0  0
   14.4144   -2.7807   24.1866 O   0  0  0  0  0  0  0  0  0  0  0  0
    5.8080    5.8899   21.4831 O   0  0  0  0  0  0  0  0  0  0  0  0
    5.8315    1.7586   23.8083 Cl  0  0  0  0  0  0  0  0  0  0  0  0
    5.8336    8.8261   25.9864 H   0  0  0  0  0  0  0  0  0  0  0  0
    8.2230    8.3408   26.3958 H   0  0  0  0  0  0  0  0  0  0  0  0
    4.5604    7.5072   24.3287 H   0  0  0  0  0  0  0  0  0  0  0  0
   12.1957    0.9304   25.5471 H   0  0  0  0  0  0  0  0  0  0  0  0
   12.6263    0.2388   21.3169 H   0  0  0  0  0  0  0  0  0  0  0  0
   13.4349   -1.1522   26.0124 H   0  0  0  0  0  0  0  0  0  0  0  0
   13.8652   -1.8430   21.7854 H   0  0  0  0  0  0  0  0  0  0  0  0
    6.8609    1.6720   17.7169 H   0  0  0  0  0  0  0  0  0  0  0  0
    7.3743    2.1729   19.3251 H   0  0  0  0  0  0  0  0  0  0  0  0
    4.9529    2.4746   19.1271 H   0  0  0  0  0  0  0  0  0  0  0  0
    4.7290    0.8049   18.5980 H   0  0  0  0  0  0  0  0  0  0  0  0
    6.9410   -0.7267   18.3871 H   0  0  0  0  0  0  0  0  0  0  0  0
    8.4951    0.0617   18.8002 H   0  0  0  0  0  0  0  0  0  0  0  0
    5.7486   -0.6155   21.9188 H   0  0  0  0  0  0  0  0  0  0  0  0
    5.2517   -1.0864   20.2668 H   0  0  0  0  0  0  0  0  0  0  0  0
    9.8550    5.7192   26.0266 H   0  0  0  0  0  0  0  0  0  0  0  0
   10.2536    6.0759   24.3280 H   0  0  0  0  0  0  0  0  0  0  0  0
   10.2776    7.3737   25.5207 H   0  0  0  0  0  0  0  0  0  0  0  0
   11.7862    2.7330   23.9020 H   0  0  0  0  0  0  0  0  0  0  0  0
   11.9745    2.4384   22.1956 H   0  0  0  0  0  0  0  0  0  0  0  0
    5.6373    4.4030   22.8932 H   0  0  0  0  0  0  0  0  0  0  0  0
    4.3721    5.6415   22.9359 H   0  0  0  0  0  0  0  0  0  0  0  0
    4.4216    0.1041   22.8820 H   0  0  0  0  0  0  0  0  0  0  0  0
    3.5114    1.5637   23.4046 H   0  0  0  0  0  0  0  0  0  0  0  0
    7.5259   -1.7549   25.9372 H   0  0  0  0  0  0  0  0  0  0  0  0
    8.8454   -2.8157   25.4379 H   0  0  0  0  0  0  0  0  0  0  0  0
    7.7403   -1.8003   23.4804 H   0  0  0  0  0  0  0  0  0  0  0  0
    7.9760   -0.1769   24.1232 H   0  0  0  0  0  0  0  0  0  0  0  0
   10.4482   -0.4452   23.9154 H   0  0  0  0  0  0  0  0  0  0  0  0
   10.2342   -2.0618   23.2283 H   0  0  0  0  0  0  0  0  0  0  0  0
    9.8874   -2.4079   21.1932 H   0  0  0  0  0  0  0  0  0  0  0  0
    9.8291   -1.0772   20.0232 H   0  0  0  0  0  0  0  0  0  0  0  0
    7.4258   -2.0472   21.6721 H   0  0  0  0  0  0  0  0  0  0  0  0
    7.6653   -2.3408   19.9243 H   0  0  0  0  0  0  0  0  0  0  0  0
    9.6212    1.3633   23.9104 H   0  0  0  0  0  0  0  0  0  0  0  0
   10.6781   -1.4164   28.0344 H   0  0  0  0  0  0  0  0  0  0  0  0
    9.8602   -2.7996   27.3995 H   0  0  0  0  0  0  0  0  0  0  0  0
    8.2422    5.0526   22.2916 H   0  0  0  0  0  0  0  0  0  0  0  0
    9.2455    3.3502   21.8230 H   0  0  0  0  0  0  0  0  0  0  0  0
    7.7135    0.3564   21.0219 H   0  0  0  0  0  0  0  0  0  0  0  0
   14.4928   -2.9178   25.1441 H   0  0  0  0  0  0  0  0  0  0  0  0
    5.2734    5.3618   20.8684 H   0  0  0  0  0  0  0  0  0  0  0  0
  1  2  2  0  0  0  0
  1  3  1  0  0  0  0
  2  9  1  0  0  0  0
  3 10  2  0  0  0  0
  4  6  2  0  0  0  0
  4  8  1  0  0  0  0
  5  7  1  0  0  0  0
  5  8  2  0  0  0  0
  6 12  1  0  0  0  0
  7 12  2  0  0  0  0
  8 22  1  0  0  0  0
  9 11  2  0  0  0  0
  9 21  1  0  0  0  0
 10 11  1  0  0  0  0
 10 23  1  0  0  0  0
 11 33  1  0  0  0  0
 12 41  1  0  0  0  0
 13 24  1  0  0  0  0
 13 31  1  0  0  0  0
 13 37  2  0  0  0  0
 14 25  1  0  0  0  0
 14 32  1  0  0  0  0
 14 38  2  0  0  0  0
 15 30  1  0  0  0  0
 15 35  1  0  0  0  0
 15 39  2  0  0  0  0
 16 33  1  0  0  0  0
 16 34  1  0  0  0  0
 16 40  2  0  0  0  0
 17 18  1  0  0  0  0
 17 19  1  0  0  0  0
 18 31  1  0  0  0  0
 19 36  1  0  0  0  0
 20 31  1  0  0  0  0
 20 36  1  0  0  0  0
 22 30  1  0  0  0  0
 23 42  1  0  0  0  0
 24 43  1  0  0  0  0
 25 26  1  0  0  0  0
 26 27  1  0  0  0  0
 27 35  1  0  0  0  0
 28 29  1  0  0  0  0
 28 35  1  0  0  0  0
 29 36  1  0  0  0  0
 30 34  1  0  0  0  0
  1 44  1  0  0  0  0
  2 45  1  0  0  0  0
  3 46  1  0  0  0  0
  4 47  1  0  0  0  0
  5 48  1  0  0  0  0
  6 49  1  0  0  0  0
  7 50  1  0  0  0  0
 17 51  1  0  0  0  0
 17 52  1  0  0  0  0
 18 53  1  0  0  0  0
 18 54  1  0  0  0  0
 19 55  1  0  0  0  0
 19 56  1  0  0  0  0
 20 57  1  0  0  0  0
 20 58  1  0  0  0  0
 21 59  1  0  0  0  0
 21 60  1  0  0  0  0
 21 61  1  0  0  0  0
 22 62  1  0  0  0  0
 22 63  1  0  0  0  0
 23 64  1  0  0  0  0
 23 65  1  0  0  0  0
 24 66  1  0  0  0  0
 24 67  1  0  0  0  0
 25 68  1  0  0  0  0
 25 69  1  0  0  0  0
 26 70  1  0  0  0  0
 26 71  1  0  0  0  0
 27 72  1  0  0  0  0
 27 73  1  0  0  0  0
 28 74  1  0  0  0  0
 28 75  1  0  0  0  0
 29 76  1  0  0  0  0
 29 77  1  0  0  0  0
 30 78  1  0  0  0  0
 32 79  1  0  0  0  0
 32 80  1  0  0  0  0
 33 81  1  0  0  0  0
 34 82  1  0  0  0  0
 36 83  1  0  0  0  0
 41 84  1  0  0  0  0
 42 85  1  0  0  0  0
M  CHG  1  36   1
M  END
> <creator>
Charlie Nichols, King's College / Randall Institute

> <fragments>
x0967

> <real_space>
FALSE

> <SCR>
FALSE

> <BB>
FALSE

> <link>
https://covid.postera.ai/covid/submissions/87c379ac-8445-4918-a58c-534bf6c3c5b1

> <covalent_frag>
FALSE

> <covalent_warhead>
TRUE

> <acrylamide>
FALSE

> <acrylamide_adduct>
FALSE

> <chloroacetamide>
TRUE

> <chloroacetamide_adduct>
FALSE

> <vinylsulfonamide>
FALSE

> <vinylsulfonamide_adduct>
FALSE

> <in_molport_or_mcule>
FALSE

> <in_emolecules>
FALSE

> <Hybrid2>
-4.118788

> <Mpro-x0967_dock>
-4.118788

> <site>
active-noncovalent

> <covalent_distance_min>
7.8142476

> <covalent_distance_mean>
8.633084

> <covalent_distance_stderr>
0.038886536

$$$$
BEN-VAN-d2b-1
  -OEChem-04062011563D

 52 54  0     1  0  0  0  0  0999 V2000
   13.2133    0.1952   23.7313 C   0  0  0  0  0  0  0  0  0  0  0  0
   10.7466    2.9940   23.6739 C   0  0  0  0  0  0  0  0  0  0  0  0
   13.3728    2.5396   23.0890 C   0  0  0  0  0  0  0  0  0  0  0  0
    7.0153   -0.3353   25.0553 C   0  0  0  0  0  0  0  0  0  0  0  0
    8.4212    1.6740   25.2451 C   0  0  0  0  0  0  0  0  0  0  0  0
   12.6135    1.4818   23.5624 C   0  0  0  0  0  0  0  0  0  0  0  0
    8.2997   -0.5585   24.6101 C   0  0  0  0  0  0  0  0  0  0  0  0
   11.2762    1.7216   23.8580 C   0  0  0  0  0  0  0  0  0  0  0  0
    9.1142    0.6053   24.7201 C   0  0  0  0  0  0  0  0  0  0  0  0
   11.5896    3.9842   23.1957 C   0  0  0  0  0  0  0  0  0  0  0  0
    4.8643    1.5176   20.4366 C   0  0  0  0  0  0  0  0  0  0  0  0
    5.5856    0.5690   21.0417 C   0  0  0  0  0  0  0  0  0  0  0  0
    7.0721    0.6049   20.9883 C   0  0  0  0  0  0  0  0  0  0  0  0
    9.0096   -0.6892   21.7957 C   0  0  0  0  0  0  0  0  0  0  0  0
   10.9025   -3.0911   23.9360 C   0  0  0  0  0  0  0  0  0  0  0  0
    9.9003   -2.5153   24.9275 C   0  0  0  0  0  0  0  0  0  0  0  0
   10.8115   -2.1521   22.7465 C   0  0  0  0  0  0  0  0  0  0  0  0
    8.7744   -1.8926   24.0695 C   0  0  2  0  0  0  0  0  0  0  0  0
    9.3123   -1.9043   22.6169 C   0  0  1  0  0  0  0  0  0  0  0  0
    9.4662    5.7950   24.7630 C   0  0  0  0  0  0  0  0  0  0  0  0
    9.6718    5.5768   23.3026 C   0  0  0  0  0  0  0  0  0  0  0  0
   13.7003   -0.8492   23.8684 N   0  0  0  0  0  0  0  0  0  0  0  0
   12.8937    3.7891   22.8973 N   0  0  0  0  0  0  0  0  0  0  0  0
   10.4168    0.6691   24.3560 N   0  0  0  0  0  0  0  0  0  0  0  0
   11.0362    5.2762   23.0142 N   0  0  0  0  0  0  0  0  0  0  0  0
    7.6390   -0.4655   21.6760 N   0  0  0  0  0  0  0  0  0  0  0  0
    7.6888    1.4874   20.4005 O   0  0  0  0  0  0  0  0  0  0  0  0
    9.8999    0.0113   21.3215 O   0  0  0  0  0  0  0  0  0  0  0  0
    6.7955    1.2723   25.6030 S   0  0  0  0  0  0  0  0  0  0  0  0
    9.7045    3.2028   23.8980 H   0  0  0  0  0  0  0  0  0  0  0  0
   14.4233    2.4196   22.8396 H   0  0  0  0  0  0  0  0  0  0  0  0
    6.1923   -1.0357   25.0872 H   0  0  0  0  0  0  0  0  0  0  0  0
    8.7855    2.6737   25.4383 H   0  0  0  0  0  0  0  0  0  0  0  0
    3.7802    1.5266   20.4525 H   0  0  0  0  0  0  0  0  0  0  0  0
    5.3626    2.3198   19.9024 H   0  0  0  0  0  0  0  0  0  0  0  0
    5.0919   -0.2352   21.5758 H   0  0  0  0  0  0  0  0  0  0  0  0
   11.9042   -3.1382   24.3543 H   0  0  0  0  0  0  0  0  0  0  0  0
   10.6007   -4.0961   23.6430 H   0  0  0  0  0  0  0  0  0  0  0  0
    9.5117   -3.2870   25.6126 H   0  0  0  0  0  0  0  0  0  0  0  0
   10.3834   -1.7499   25.5604 H   0  0  0  0  0  0  0  0  0  0  0  0
   11.3771   -1.2437   22.9162 H   0  0  0  0  0  0  0  0  0  0  0  0
   11.1966   -2.6438   21.8593 H   0  0  0  0  0  0  0  0  0  0  0  0
    7.8901   -2.5742   24.1251 H   0  0  0  0  0  0  0  0  0  0  0  0
    8.8369   -2.7699   22.0592 H   0  0  0  0  0  0  0  0  0  0  0  0
   10.0933    6.6332   25.1009 H   0  0  0  0  0  0  0  0  0  0  0  0
    8.4083    6.0287   24.9533 H   0  0  0  0  0  0  0  0  0  0  0  0
    9.7451    4.8838   25.3126 H   0  0  0  0  0  0  0  0  0  0  0  0
    9.0418    4.7376   22.9727 H   0  0  0  0  0  0  0  0  0  0  0  0
    9.3824    6.4883   22.7592 H   0  0  0  0  0  0  0  0  0  0  0  0
   10.9637   -0.2115   24.4354 H   0  0  0  0  0  0  0  0  0  0  0  0
   11.6526    5.9825   22.6677 H   0  0  0  0  0  0  0  0  0  0  0  0
    7.0097   -1.1294   22.1213 H   0  0  0  0  0  0  0  0  0  0  0  0
  1  6  1  0  0  0  0
  1 22  3  0  0  0  0
  2  8  1  0  0  0  0
  2 10  2  0  0  0  0
  3  6  1  0  0  0  0
  3 23  2  0  0  0  0
  4  7  2  0  0  0  0
  4 29  1  0  0  0  0
  5  9  2  0  0  0  0
  5 29  1  0  0  0  0
  6  8  2  0  0  0  0
  7  9  1  0  0  0  0
  7 18  1  0  0  0  0
  8 24  1  0  0  0  0
  9 24  1  0  0  0  0
 10 23  1  0  0  0  0
 10 25  1  0  0  0  0
 11 12  2  0  0  0  0
 12 13  1  0  0  0  0
 13 26  1  0  0  0  0
 13 27  2  0  0  0  0
 14 19  1  0  0  0  0
 14 26  1  0  0  0  0
 14 28  2  0  0  0  0
 15 16  1  0  0  0  0
 15 17  1  0  0  0  0
 16 18  1  0  0  0  0
 17 19  1  0  0  0  0
 18 19  1  0  0  0  0
 20 21  1  0  0  0  0
 21 25  1  0  0  0  0
  2 30  1  0  0  0  0
  3 31  1  0  0  0  0
  4 32  1  0  0  0  0
  5 33  1  0  0  0  0
 11 34  1  0  0  0  0
 11 35  1  0  0  0  0
 12 36  1  0  0  0  0
 15 37  1  0  0  0  0
 15 38  1  0  0  0  0
 16 39  1  0  0  0  0
 16 40  1  0  0  0  0
 17 41  1  0  0  0  0
 17 42  1  0  0  0  0
 18 43  1  0  0  0  0
 19 44  1  0  0  0  0
 20 45  1  0  0  0  0
 20 46  1  0  0  0  0
 20 47  1  0  0  0  0
 21 48  1  0  0  0  0
 21 49  1  0  0  0  0
 24 50  1  0  0  0  0
 25 51  1  0  0  0  0
 26 52  1  0  0  0  0
M  END
> <creator>
Benjamin P. Brown, Vanderbilt University, Laboratory of Jens Meiler

> <fragments>
x0874

> <real_space>
FALSE

> <SCR>
FALSE

> <BB>
FALSE

> <link>
https://covid.postera.ai/covid/submissions/d2b455e2-4c45-4364-9fc0-1efc54e3e367

> <covalent_frag>
FALSE

> <covalent_warhead>
TRUE

> <acrylamide>
TRUE

> <acrylamide_adduct>
FALSE

> <chloroacetamide>
FALSE

> <chloroacetamide_adduct>
FALSE

> <vinylsulfonamide>
FALSE

> <vinylsulfonamide_adduct>
FALSE

> <in_molport_or_mcule>
FALSE

> <in_emolecules>
FALSE

> <Hybrid2>
-4.091533

> <Mpro-x0874_dock>
-4.091533

> <Mpro-x0305_dock>
-1.813688

> <site>
active-noncovalent

> <covalent_distance_min>
5.7761197

> <covalent_distance_mean>
6.2437444

> <covalent_distance_stderr>
0.041132968

$$$$
JIA-UNI-93b-1
  -OEChem-04062011563D

 41 42  0     0  0  0  0  0  0999 V2000
   11.4296   -1.3032   22.4823 C   0  0  0  0  0  0  0  0  0  0  0  0
   10.6584   -1.0887   24.7619 C   0  0  0  0  0  0  0  0  0  0  0  0
   12.1714   -0.1304   22.6229 C   0  0  0  0  0  0  0  0  0  0  0  0
   11.4003    0.0842   24.9024 C   0  0  0  0  0  0  0  0  0  0  0  0
   10.6730   -1.7823   23.5518 C   0  0  0  0  0  0  0  0  0  0  0  0
   12.1568    0.5633   23.8329 C   0  0  0  0  0  0  0  0  0  0  0  0
    5.8854   -2.5630   20.2603 C   0  0  0  0  0  0  0  0  0  0  0  0
    7.4265   -3.9492   21.6091 C   0  0  0  0  0  0  0  0  0  0  0  0
    7.7656   -1.5040   21.6046 C   0  0  0  0  0  0  0  0  0  0  0  0
    7.5446   -3.9819   23.1258 C   0  0  0  0  0  0  0  0  0  0  0  0
    7.8912   -1.5037   23.1223 C   0  0  0  0  0  0  0  0  0  0  0  0
    9.8748   -3.0438   23.4015 C   0  0  0  0  0  0  0  0  0  0  0  0
   12.9517    1.8163   23.9829 C   0  0  0  0  0  0  0  0  0  0  0  0
    5.4667   -1.1808   19.8266 C   0  0  0  0  0  0  0  0  0  0  0  0
    6.9641   -2.6421   21.1409 N   0  0  0  0  0  0  0  0  0  0  0  0
    8.4004   -2.8374   23.6168 N   0  3  0  0  0  0  0  0  0  0  0  0
    5.2693   -3.5416   19.8303 O   0  0  0  0  0  0  0  0  0  0  0  0
   10.7962    3.2642   23.6373 O   0  0  0  0  0  0  0  0  0  0  0  0
   12.3419    2.8803   21.6681 O   0  0  0  0  0  0  0  0  0  0  0  0
   12.9009    4.4363   23.4321 F   0  0  0  0  0  0  0  0  0  0  0  0
   12.1273    3.0924   23.0870 S   0  0  0  0  0  0  0  0  0  0  0  0
    6.4142   -0.7935   18.3947 Cl  0  0  0  0  0  0  0  0  0  0  0  0
   11.4464   -1.8369   21.5356 H   0  0  0  0  0  0  0  0  0  0  0  0
   10.0726   -1.4556   25.6007 H   0  0  0  0  0  0  0  0  0  0  0  0
   12.7592    0.2346   21.7849 H   0  0  0  0  0  0  0  0  0  0  0  0
   11.3832    0.6186   25.8486 H   0  0  0  0  0  0  0  0  0  0  0  0
    8.3939   -4.2015   21.1617 H   0  0  0  0  0  0  0  0  0  0  0  0
    6.7041   -4.6981   21.2597 H   0  0  0  0  0  0  0  0  0  0  0  0
    7.2637   -0.5911   21.2591 H   0  0  0  0  0  0  0  0  0  0  0  0
    8.7647   -1.5032   21.1635 H   0  0  0  0  0  0  0  0  0  0  0  0
    6.5534   -3.8717   23.5929 H   0  0  0  0  0  0  0  0  0  0  0  0
    8.0015   -4.9202   23.4817 H   0  0  0  0  0  0  0  0  0  0  0  0
    8.5882   -0.7257   23.4754 H   0  0  0  0  0  0  0  0  0  0  0  0
    6.9083   -1.3362   23.5902 H   0  0  0  0  0  0  0  0  0  0  0  0
    9.9898   -3.4679   22.3982 H   0  0  0  0  0  0  0  0  0  0  0  0
   10.1949   -3.8028   24.1234 H   0  0  0  0  0  0  0  0  0  0  0  0
   13.9641    1.7180   23.5750 H   0  0  0  0  0  0  0  0  0  0  0  0
   13.0312    2.1358   25.0283 H   0  0  0  0  0  0  0  0  0  0  0  0
    5.6913   -0.4797   20.6223 H   0  0  0  0  0  0  0  0  0  0  0  0
    4.4108   -1.1940   19.5820 H   0  0  0  0  0  0  0  0  0  0  0  0
    8.2740   -2.8176   24.6698 H   0  0  0  0  0  0  0  0  0  0  0  0
  1  3  2  0  0  0  0
  1  5  1  0  0  0  0
  2  4  1  0  0  0  0
  2  5  2  0  0  0  0
  3  6  1  0  0  0  0
  4  6  2  0  0  0  0
  5 12  1  0  0  0  0
  6 13  1  0  0  0  0
  7 14  1  0  0  0  0
  7 15  1  0  0  0  0
  7 17  2  0  0  0  0
  8 10  1  0  0  0  0
  8 15  1  0  0  0  0
  9 11  1  0  0  0  0
  9 15  1  0  0  0  0
 10 16  1  0  0  0  0
 11 16  1  0  0  0  0
 12 16  1  0  0  0  0
 13 21  1  0  0  0  0
 14 22  1  0  0  0  0
 18 21  2  0  0  0  0
 19 21  2  0  0  0  0
 20 21  1  0  0  0  0
  1 23  1  0  0  0  0
  2 24  1  0  0  0  0
  3 25  1  0  0  0  0
  4 26  1  0  0  0  0
  8 27  1  0  0  0  0
  8 28  1  0  0  0  0
  9 29  1  0  0  0  0
  9 30  1  0  0  0  0
 10 31  1  0  0  0  0
 10 32  1  0  0  0  0
 11 33  1  0  0  0  0
 11 34  1  0  0  0  0
 12 35  1  0  0  0  0
 12 36  1  0  0  0  0
 13 37  1  0  0  0  0
 13 38  1  0  0  0  0
 14 39  1  0  0  0  0
 14 40  1  0  0  0  0
 16 41  1  0  0  0  0
M  CHG  1  16   1
M  END
> <creator>
Jiang Yin, University of Alberta

> <fragments>
x0770

> <real_space>
FALSE

> <SCR>
FALSE

> <BB>
FALSE

> <link>
https://covid.postera.ai/covid/submissions/93b03cae-43e4-4aae-a43c-d07e5b6ffdbc

> <covalent_frag>
TRUE

> <covalent_warhead>
TRUE

> <acrylamide>
FALSE

> <acrylamide_adduct>
FALSE

> <chloroacetamide>
TRUE

> <chloroacetamide_adduct>
FALSE

> <vinylsulfonamide>
FALSE

> <vinylsulfonamide_adduct>
FALSE

> <in_molport_or_mcule>
FALSE

> <in_emolecules>
FALSE

> <Hybrid2>
-4.050922

> <Mpro-x0770_dock>
-4.050922

> <site>
active-covalent

> <covalent_distance_min>
3.1264627

> <covalent_distance_mean>
3.6143622

> <covalent_distance_stderr>
0.027791353

$$$$
WAR-XCH-79d-5
  -OEChem-04062011563D

 50 52  0     0  0  0  0  0  0999 V2000
    7.2411   -6.5161   21.1209 C   0  0  0  0  0  0  0  0  0  0  0  0
    7.7808   -5.6242   22.0410 C   0  0  0  0  0  0  0  0  0  0  0  0
    6.1446   -6.1015   20.3822 C   0  0  0  0  0  0  0  0  0  0  0  0
    6.1204   -4.0446   21.4053 C   0  0  0  0  0  0  0  0  0  0  0  0
    7.2156   -4.3629   22.1921 C   0  0  0  0  0  0  0  0  0  0  0  0
    3.7820   -6.3425   27.0668 C   0  0  0  0  0  0  0  0  0  0  0  0
    9.9919   -1.7402   21.9388 C   0  0  0  0  0  0  0  0  0  0  0  0
    8.5260   -1.4198   21.6663 C   0  0  0  0  0  0  0  0  0  0  0  0
   10.1920   -3.2005   22.3300 C   0  0  0  0  0  0  0  0  0  0  0  0
    7.6220   -1.8548   22.8252 C   0  0  0  0  0  0  0  0  0  0  0  0
    9.2943   -3.5861   23.5074 C   0  0  0  0  0  0  0  0  0  0  0  0
    6.2447   -5.8486   24.5101 C   0  0  0  0  0  0  0  0  0  0  0  0
    7.0229   -4.7522   26.6548 C   0  0  0  0  0  0  0  0  0  0  0  0
    4.8004   -5.5935   24.9406 C   0  0  0  0  0  0  0  0  0  0  0  0
    5.5592   -4.5235   27.0354 C   0  0  0  0  0  0  0  0  0  0  0  0
    7.2318   -4.8649   25.1428 C   0  0  0  0  0  0  0  0  0  0  0  0
    7.7890   -3.3538   23.1999 C   0  0  0  0  0  0  0  0  0  0  0  0
    4.1506   -6.7620   28.4674 C   0  0  0  0  0  0  0  0  0  0  0  0
    5.5683   -4.8844   20.5011 N   0  0  0  0  0  0  0  0  0  0  0  0
    4.6922   -5.5233   26.3992 N   0  0  0  0  0  0  0  0  0  0  0  0
    7.0597   -3.5219   24.5189 N   0  3  0  0  0  0  0  0  0  0  0  0
    2.7173   -6.7339   26.5817 O   0  0  0  0  0  0  0  0  0  0  0  0
    3.5269   -5.5191   29.5462 Cl  0  0  0  0  0  0  0  0  0  0  0  0
    7.6654   -7.5044   20.9861 H   0  0  0  0  0  0  0  0  0  0  0  0
    8.6411   -5.9203   22.6352 H   0  0  0  0  0  0  0  0  0  0  0  0
    5.6866   -6.7603   19.6517 H   0  0  0  0  0  0  0  0  0  0  0  0
    5.6372   -3.0752   21.4791 H   0  0  0  0  0  0  0  0  0  0  0  0
   10.5858   -1.5191   21.0424 H   0  0  0  0  0  0  0  0  0  0  0  0
   10.3695   -1.0893   22.7366 H   0  0  0  0  0  0  0  0  0  0  0  0
    8.4095   -0.3444   21.4833 H   0  0  0  0  0  0  0  0  0  0  0  0
    8.2070   -1.9271   20.7473 H   0  0  0  0  0  0  0  0  0  0  0  0
    9.9640   -3.8404   21.4744 H   0  0  0  0  0  0  0  0  0  0  0  0
   11.2398   -3.3721   22.5867 H   0  0  0  0  0  0  0  0  0  0  0  0
    7.8157   -1.2235   23.6936 H   0  0  0  0  0  0  0  0  0  0  0  0
    6.5848   -1.6720   22.5341 H   0  0  0  0  0  0  0  0  0  0  0  0
    9.4550   -4.6415   23.7265 H   0  0  0  0  0  0  0  0  0  0  0  0
    9.5919   -3.0296   24.3934 H   0  0  0  0  0  0  0  0  0  0  0  0
    6.5255   -6.8678   24.8071 H   0  0  0  0  0  0  0  0  0  0  0  0
    6.3180   -5.8163   23.4165 H   0  0  0  0  0  0  0  0  0  0  0  0
    7.6437   -3.9484   27.0687 H   0  0  0  0  0  0  0  0  0  0  0  0
    7.3671   -5.6814   27.1272 H   0  0  0  0  0  0  0  0  0  0  0  0
    4.4308   -4.6442   24.5370 H   0  0  0  0  0  0  0  0  0  0  0  0
    4.1566   -6.3834   24.5407 H   0  0  0  0  0  0  0  0  0  0  0  0
    5.4676   -4.5377   28.1230 H   0  0  0  0  0  0  0  0  0  0  0  0
    5.2166   -3.5375   26.7016 H   0  0  0  0  0  0  0  0  0  0  0  0
    8.2632   -5.1626   24.9213 H   0  0  0  0  0  0  0  0  0  0  0  0
    5.2306   -6.8150   28.5457 H   0  0  0  0  0  0  0  0  0  0  0  0
    3.6799   -7.7140   28.6845 H   0  0  0  0  0  0  0  0  0  0  0  0
    6.0568   -3.3466   24.3778 H   0  0  0  0  0  0  0  0  0  0  0  0
    7.3823   -2.8042   25.1801 H   0  0  0  0  0  0  0  0  0  0  0  0
  1  2  2  0  0  0  0
  1  3  1  0  0  0  0
  2  5  1  0  0  0  0
  3 19  2  0  0  0  0
  4  5  2  0  0  0  0
  4 19  1  0  0  0  0
  5 17  1  0  0  0  0
  6 18  1  0  0  0  0
  6 20  1  0  0  0  0
  6 22  2  0  0  0  0
  7  8  1  0  0  0  0
  7  9  1  0  0  0  0
  8 10  1  0  0  0  0
  9 11  1  0  0  0  0
 10 17  1  0  0  0  0
 11 17  1  0  0  0  0
 12 14  1  0  0  0  0
 12 16  1  0  0  0  0
 13 15  1  0  0  0  0
 13 16  1  0  0  0  0
 14 20  1  0  0  0  0
 15 20  1  0  0  0  0
 16 21  1  0  0  0  0
 17 21  1  0  0  0  0
 18 23  1  0  0  0  0
  1 24  1  0  0  0  0
  2 25  1  0  0  0  0
  3 26  1  0  0  0  0
  4 27  1  0  0  0  0
  7 28  1  0  0  0  0
  7 29  1  0  0  0  0
  8 30  1  0  0  0  0
  8 31  1  0  0  0  0
  9 32  1  0  0  0  0
  9 33  1  0  0  0  0
 10 34  1  0  0  0  0
 10 35  1  0  0  0  0
 11 36  1  0  0  0  0
 11 37  1  0  0  0  0
 12 38  1  0  0  0  0
 12 39  1  0  0  0  0
 13 40  1  0  0  0  0
 13 41  1  0  0  0  0
 14 42  1  0  0  0  0
 14 43  1  0  0  0  0
 15 44  1  0  0  0  0
 15 45  1  0  0  0  0
 16 46  1  0  0  0  0
 18 47  1  0  0  0  0
 18 48  1  0  0  0  0
 21 49  1  0  0  0  0
 21 50  1  0  0  0  0
M  CHG  1  21   1
M  END
> <creator>
Warren Thompson, XChem - Diamond Light Source

> <fragments>
x1493

> <real_space>
FALSE

> <SCR>
FALSE

> <BB>
FALSE

> <link>
https://covid.postera.ai/covid/submissions/79d12f6e-a32e-4f5a-9965-cd14d93bc08a

> <covalent_frag>
TRUE

> <covalent_warhead>
TRUE

> <acrylamide>
FALSE

> <acrylamide_adduct>
FALSE

> <chloroacetamide>
TRUE

> <chloroacetamide_adduct>
FALSE

> <vinylsulfonamide>
FALSE

> <vinylsulfonamide_adduct>
FALSE

> <in_molport_or_mcule>
FALSE

> <in_emolecules>
FALSE

> <Hybrid2>
-4.018666

> <Mpro-x1493_dock>
-4.018666

> <Mpro-x1478_dock>
-3.572127

> <site>
active-covalent

> <covalent_distance_min>
11.168797

> <covalent_distance_mean>
12.158348

> <covalent_distance_stderr>
0.07597558

$$$$
PED-UNI-d0b-1
  -OEChem-04062011563D

 59 62  0     1  0  0  0  0  0999 V2000
    6.4362   -1.6825   22.1283 C   0  0  0  0  0  0  0  0  0  0  0  0
    6.0812   -1.2196   20.8632 C   0  0  0  0  0  0  0  0  0  0  0  0
   13.4431    0.1998   23.5349 C   0  0  0  0  0  0  0  0  0  0  0  0
   14.6332    0.3230   22.7612 C   0  0  0  0  0  0  0  0  0  0  0  0
    8.3828   -0.6235   20.4427 C   0  0  0  0  0  0  0  0  0  0  0  0
    7.7708   -1.6270   22.5556 C   0  0  0  0  0  0  0  0  0  0  0  0
    8.7584   -1.0721   21.7177 C   0  0  0  0  0  0  0  0  0  0  0  0
    7.0547   -0.6942   20.0190 C   0  0  0  0  0  0  0  0  0  0  0  0
   12.4315    1.0052   23.0601 C   0  0  0  0  0  0  0  0  0  0  0  0
   14.4857    1.2180   21.7242 C   0  0  0  0  0  0  0  0  0  0  0  0
    9.9131    6.3030   25.3455 C   0  0  0  0  0  0  0  0  0  0  0  0
    8.1319   -2.1216   23.9338 C   0  0  0  0  0  0  0  0  0  0  0  0
    9.6206   -2.4539   24.0298 C   0  0  0  0  0  0  0  0  0  0  0  0
    9.4201    3.8491   25.7958 C   0  0  0  0  0  0  0  0  0  0  0  0
   11.6857    4.5863   25.1652 C   0  0  0  0  0  0  0  0  0  0  0  0
    9.4727    2.7406   24.7531 C   0  0  0  0  0  0  0  0  0  0  0  0
   11.7715    3.4906   24.1128 C   0  0  0  0  0  0  0  0  0  0  0  0
   10.4978   -1.3310   23.4673 C   0  0  2  0  0  0  0  0  0  0  0  0
    8.4747    6.5759   24.9849 C   0  0  0  0  0  0  0  0  0  0  0  0
   10.4856   -0.0721   24.3326 C   0  0  0  0  0  0  0  0  0  0  0  0
   11.0250    1.1648   23.5948 C   0  0  1  0  0  0  0  0  0  0  0  0
   10.0889   -0.9985   22.1107 N   0  0  0  0  0  0  0  0  0  0  0  0
   10.2953    4.9643   25.4189 N   0  0  0  0  0  0  0  0  0  0  0  0
    6.8164   -1.5489   17.5055 N   0  0  0  0  0  0  0  0  0  0  0  0
   10.9114    2.3239   24.5445 N   0  3  0  0  0  0  0  0  0  0  0  0
   10.6732    7.2523   25.5529 O   0  0  0  0  0  0  0  0  0  0  0  0
    5.2031    0.2308   18.4412 O   0  0  0  0  0  0  0  0  0  0  0  0
    7.6036    0.8542   17.9977 O   0  0  0  0  0  0  0  0  0  0  0  0
   12.9177    1.9052   21.6868 S   0  0  0  0  0  0  0  0  0  0  0  0
    6.6151   -0.1248   18.4280 S   0  0  0  0  0  0  0  0  0  0  0  0
    8.4471    8.1348   24.1682 Cl  0  0  0  0  0  0  0  0  0  0  0  0
   15.8497    1.6501   20.4752 Br  0  0  0  0  0  0  0  0  0  0  0  0
    5.6666   -2.0825   22.7840 H   0  0  0  0  0  0  0  0  0  0  0  0
    5.0428   -1.2713   20.5480 H   0  0  0  0  0  0  0  0  0  0  0  0
   13.3386   -0.4483   24.3958 H   0  0  0  0  0  0  0  0  0  0  0  0
   15.5467   -0.2222   22.9635 H   0  0  0  0  0  0  0  0  0  0  0  0
    9.1385   -0.2197   19.7708 H   0  0  0  0  0  0  0  0  0  0  0  0
    7.8884   -1.3614   24.6855 H   0  0  0  0  0  0  0  0  0  0  0  0
    7.5342   -3.0150   24.1527 H   0  0  0  0  0  0  0  0  0  0  0  0
    9.8910   -2.6493   25.0847 H   0  0  0  0  0  0  0  0  0  0  0  0
    9.8174   -3.3975   23.4911 H   0  0  0  0  0  0  0  0  0  0  0  0
    8.3884    4.1904   25.9155 H   0  0  0  0  0  0  0  0  0  0  0  0
    9.7587    3.4818   26.7710 H   0  0  0  0  0  0  0  0  0  0  0  0
   12.1087    4.2397   26.1173 H   0  0  0  0  0  0  0  0  0  0  0  0
   12.2886    5.4386   24.8427 H   0  0  0  0  0  0  0  0  0  0  0  0
    8.9241    1.8583   25.0996 H   0  0  0  0  0  0  0  0  0  0  0  0
    9.0728    3.0671   23.7861 H   0  0  0  0  0  0  0  0  0  0  0  0
   11.4116    3.8305   23.1356 H   0  0  0  0  0  0  0  0  0  0  0  0
   12.7980    3.1224   24.0212 H   0  0  0  0  0  0  0  0  0  0  0  0
   11.5525   -1.6964   23.4173 H   0  0  0  0  0  0  0  0  0  0  0  0
    7.8870    6.6219   25.8947 H   0  0  0  0  0  0  0  0  0  0  0  0
    8.1268    5.7982   24.3148 H   0  0  0  0  0  0  0  0  0  0  0  0
    9.4656    0.1004   24.6971 H   0  0  0  0  0  0  0  0  0  0  0  0
   11.1042   -0.2648   25.2188 H   0  0  0  0  0  0  0  0  0  0  0  0
   10.3420    1.4143   22.7737 H   0  0  0  0  0  0  0  0  0  0  0  0
   10.8012   -0.9669   21.3796 H   0  0  0  0  0  0  0  0  0  0  0  0
    5.9728   -2.0223   17.1596 H   0  0  0  0  0  0  0  0  0  0  0  0
    7.6133   -1.5958   16.8589 H   0  0  0  0  0  0  0  0  0  0  0  0
   11.2717    1.9959   25.4512 H   0  0  0  0  0  0  0  0  0  0  0  0
  1  2  2  0  0  0  0
  1  6  1  0  0  0  0
  2  8  1  0  0  0  0
  3  4  1  0  0  0  0
  3  9  2  0  0  0  0
  4 10  2  0  0  0  0
  5  7  1  0  0  0  0
  5  8  2  0  0  0  0
  6  7  2  0  0  0  0
  6 12  1  0  0  0  0
  7 22  1  0  0  0  0
  8 30  1  0  0  0  0
  9 21  1  0  0  0  0
  9 29  1  0  0  0  0
 10 29  1  0  0  0  0
 10 32  1  0  0  0  0
 11 19  1  0  0  0  0
 11 23  1  0  0  0  0
 11 26  2  0  0  0  0
 12 13  1  0  0  0  0
 13 18  1  0  0  0  0
 14 16  1  0  0  0  0
 14 23  1  0  0  0  0
 15 17  1  0  0  0  0
 15 23  1  0  0  0  0
 16 25  1  0  0  0  0
 17 25  1  0  0  0  0
 18 20  1  0  0  0  0
 18 22  1  0  0  0  0
 19 31  1  0  0  0  0
 20 21  1  0  0  0  0
 21 25  1  0  0  0  0
 24 30  1  0  0  0  0
 27 30  2  0  0  0  0
 28 30  2  0  0  0  0
  1 33  1  0  0  0  0
  2 34  1  0  0  0  0
  3 35  1  0  0  0  0
  4 36  1  0  0  0  0
  5 37  1  0  0  0  0
 12 38  1  0  0  0  0
 12 39  1  0  0  0  0
 13 40  1  0  0  0  0
 13 41  1  0  0  0  0
 14 42  1  0  0  0  0
 14 43  1  0  0  0  0
 15 44  1  0  0  0  0
 15 45  1  0  0  0  0
 16 46  1  0  0  0  0
 16 47  1  0  0  0  0
 17 48  1  0  0  0  0
 17 49  1  0  0  0  0
 18 50  1  0  0  0  0
 19 51  1  0  0  0  0
 19 52  1  0  0  0  0
 20 53  1  0  0  0  0
 20 54  1  0  0  0  0
 21 55  1  0  0  0  0
 22 56  1  0  0  0  0
 24 57  1  0  0  0  0
 24 58  1  0  0  0  0
 25 59  1  0  0  0  0
M  CHG  1  25   1
M  END
> <creator>
Pedro Silva, Univ. Fernando Pessoa

> <fragments>
x0195

> <real_space>
FALSE

> <SCR>
FALSE

> <BB>
FALSE

> <link>
https://covid.postera.ai/covid/submissions/d0b586b3-0836-44e0-821a-632a10ca52c2

> <covalent_frag>
TRUE

> <covalent_warhead>
TRUE

> <acrylamide>
FALSE

> <acrylamide_adduct>
FALSE

> <chloroacetamide>
TRUE

> <chloroacetamide_adduct>
FALSE

> <vinylsulfonamide>
FALSE

> <vinylsulfonamide_adduct>
FALSE

> <in_molport_or_mcule>
FALSE

> <in_emolecules>
FALSE

> <Hybrid2>
-3.988873

> <Mpro-x0195_dock>
-3.988873

> <Mpro-x1385_dock>
-0.779982

> <site>
active-noncovalent

> <covalent_distance_min>
13.26764

> <covalent_distance_mean>
13.4923525

> <covalent_distance_stderr>
0.05073818

$$$$
DAV-CRI-f9b-10
  -OEChem-04062011563D

 77 80  0     1  0  0  0  0  0999 V2000
   13.4690    0.5759   23.0883 C   0  0  0  0  0  0  0  0  0  0  0  0
   13.3308   -0.3742   24.1001 C   0  0  0  0  0  0  0  0  0  0  0  0
   12.8559   -3.5254   25.6626 C   0  0  0  0  0  0  0  0  0  0  0  0
   12.4951   -4.7963   25.2078 C   0  0  0  0  0  0  0  0  0  0  0  0
   12.7458    1.7672   23.1467 C   0  0  0  0  0  0  0  0  0  0  0  0
   10.5725   -2.7500   25.4430 C   0  0  0  0  0  0  0  0  0  0  0  0
   11.7460    1.0582   25.2287 C   0  0  0  0  0  0  0  0  0  0  0  0
   11.9087   -2.5141   25.7794 C   0  0  0  0  0  0  0  0  0  0  0  0
   12.4693   -0.1331   25.1703 C   0  0  0  0  0  0  0  0  0  0  0  0
   10.1811   -4.0252   24.9808 C   0  0  0  0  0  0  0  0  0  0  0  0
   11.1513   -5.0261   24.8715 C   0  0  0  0  0  0  0  0  0  0  0  0
   11.8843    2.0084   24.2169 C   0  0  0  0  0  0  0  0  0  0  0  0
    8.9028   -5.6606   24.2336 C   0  0  0  0  0  0  0  0  0  0  0  0
    4.8473   -4.0801   24.6708 C   0  0  0  0  0  0  0  0  0  0  0  0
    6.5068    0.1258   19.5212 C   0  0  0  0  0  0  0  0  0  0  0  0
    6.5858   -2.8142   20.9170 C   0  0  0  0  0  0  0  0  0  0  0  0
    7.5841   -6.4352   22.2191 C   0  0  0  0  0  0  0  0  0  0  0  0
    6.2425   -5.9399   21.6861 C   0  0  0  0  0  0  0  0  0  0  0  0
    6.3412   -6.0221   24.4304 C   0  0  0  0  0  0  0  0  0  0  0  0
    7.6698   -6.4207   23.7603 C   0  0  2  0  0  0  0  0  0  0  0  0
    5.7945   -4.6577   22.3880 C   0  0  1  0  0  0  0  0  0  0  0  0
   11.3849   -2.2232   21.4960 C   0  0  0  0  0  0  0  0  0  0  0  0
   12.3197   -1.1656   26.2690 C   0  0  0  0  0  0  0  0  0  0  0  0
    4.1600   -2.8968   24.0336 C   0  0  0  0  0  0  0  0  0  0  0  0
    7.5582   -0.9700   19.5145 C   0  0  0  0  0  0  0  0  0  0  0  0
    7.6515   -1.7339   20.8356 C   0  0  2  0  0  0  0  0  0  0  0  0
   10.0964   -1.4095   21.4060 C   0  0  2  0  0  0  0  0  0  0  0  0
    8.8986   -4.4037   24.6116 N   0  0  0  0  0  0  0  0  0  0  0  0
    5.6681   -4.8570   23.8431 N   0  0  0  0  0  0  0  0  0  0  0  0
    6.3879    0.7441   18.2945 N   0  0  0  0  0  0  0  0  0  0  0  0
    9.8360   -0.7744   22.6940 N   0  0  0  0  0  0  0  0  0  0  0  0
    9.5546    3.0554   23.4546 N   0  0  0  0  0  0  0  0  0  0  0  0
    6.6953   -3.5724   22.0727 N   0  0  0  0  0  0  0  0  0  0  0  0
    9.0088   -2.3437   20.9490 N   0  3  0  0  0  0  0  0  0  0  0  0
    4.6544   -4.3154   25.8668 O   0  0  0  0  0  0  0  0  0  0  0  0
    5.8337    0.4266   20.5025 O   0  0  0  0  0  0  0  0  0  0  0  0
    5.7323   -2.9708   20.0467 O   0  0  0  0  0  0  0  0  0  0  0  0
   10.6434    3.7667   25.6804 O   0  0  0  0  0  0  0  0  0  0  0  0
   11.6825    4.5065   23.5077 O   0  0  0  0  0  0  0  0  0  0  0  0
   10.4092   -6.4691   24.2886 S   0  0  0  0  0  0  0  0  0  0  0  0
   10.9784    3.4990   24.2887 S   0  0  0  0  0  0  0  0  0  0  0  0
    5.2334   -1.5181   24.2442 Cl  0  0  0  0  0  0  0  0  0  0  0  0
   14.1403    0.3885   22.2553 H   0  0  0  0  0  0  0  0  0  0  0  0
   13.8991   -1.2991   24.0468 H   0  0  0  0  0  0  0  0  0  0  0  0
   13.8936   -3.3364   25.9275 H   0  0  0  0  0  0  0  0  0  0  0  0
   13.2402   -5.5809   25.1190 H   0  0  0  0  0  0  0  0  0  0  0  0
   12.8609    2.5000   22.3526 H   0  0  0  0  0  0  0  0  0  0  0  0
    9.8332   -1.9587   25.5355 H   0  0  0  0  0  0  0  0  0  0  0  0
   11.0750    1.2451   26.0637 H   0  0  0  0  0  0  0  0  0  0  0  0
    7.7705   -7.4619   21.8439 H   0  0  0  0  0  0  0  0  0  0  0  0
    8.4030   -5.8218   21.7889 H   0  0  0  0  0  0  0  0  0  0  0  0
    6.3082   -5.7845   20.6059 H   0  0  0  0  0  0  0  0  0  0  0  0
    5.4870   -6.7153   21.8468 H   0  0  0  0  0  0  0  0  0  0  0  0
    5.6548   -6.8951   24.4346 H   0  0  0  0  0  0  0  0  0  0  0  0
    6.5024   -5.7884   25.5050 H   0  0  0  0  0  0  0  0  0  0  0  0
    7.8769   -7.5114   24.0661 H   0  0  0  0  0  0  0  0  0  0  0  0
    4.8379   -4.3653   21.9552 H   0  0  0  0  0  0  0  0  0  0  0  0
   11.3195   -2.9989   22.2677 H   0  0  0  0  0  0  0  0  0  0  0  0
   12.2391   -1.5798   21.7352 H   0  0  0  0  0  0  0  0  0  0  0  0
   11.6046   -2.7161   20.5422 H   0  0  0  0  0  0  0  0  0  0  0  0
   11.5992   -0.7905   27.0165 H   0  0  0  0  0  0  0  0  0  0  0  0
   13.2685   -1.2310   26.8295 H   0  0  0  0  0  0  0  0  0  0  0  0
    3.2210   -2.7192   24.5448 H   0  0  0  0  0  0  0  0  0  0  0  0
    4.0173   -3.1002   22.9787 H   0  0  0  0  0  0  0  0  0  0  0  0
    8.5283   -0.5276   19.2538 H   0  0  0  0  0  0  0  0  0  0  0  0
    7.2955   -1.6569   18.6997 H   0  0  0  0  0  0  0  0  0  0  0  0
    7.5549   -1.0671   21.6999 H   0  0  0  0  0  0  0  0  0  0  0  0
   10.2039   -0.6479   20.6254 H   0  0  0  0  0  0  0  0  0  0  0  0
    5.7226    1.4967   18.1520 H   0  0  0  0  0  0  0  0  0  0  0  0
    6.9526    0.4764   17.4946 H   0  0  0  0  0  0  0  0  0  0  0  0
   10.5949   -0.1327   22.9202 H   0  0  0  0  0  0  0  0  0  0  0  0
    8.9941   -0.2037   22.6311 H   0  0  0  0  0  0  0  0  0  0  0  0
    8.6918    2.9418   24.0006 H   0  0  0  0  0  0  0  0  0  0  0  0
    9.4039    3.4461   22.5166 H   0  0  0  0  0  0  0  0  0  0  0  0
    7.4414   -3.3556   22.7263 H   0  0  0  0  0  0  0  0  0  0  0  0
    9.2579   -2.7313   20.0294 H   0  0  0  0  0  0  0  0  0  0  0  0
    8.9620   -3.1460   21.5903 H   0  0  0  0  0  0  0  0  0  0  0  0
  1  2  2  0  0  0  0
  1  5  1  0  0  0  0
  2  9  1  0  0  0  0
  3  4  2  0  0  0  0
  3  8  1  0  0  0  0
  4 11  1  0  0  0  0
  5 12  2  0  0  0  0
  6  8  2  0  0  0  0
  6 10  1  0  0  0  0
  7  9  2  0  0  0  0
  7 12  1  0  0  0  0
  8 23  1  0  0  0  0
  9 23  1  0  0  0  0
 10 11  2  0  0  0  0
 10 28  1  0  0  0  0
 11 40  1  0  0  0  0
 12 41  1  0  0  0  0
 13 20  1  0  0  0  0
 13 28  2  0  0  0  0
 13 40  1  0  0  0  0
 14 24  1  0  0  0  0
 14 29  1  0  0  0  0
 14 35  2  0  0  0  0
 15 25  1  0  0  0  0
 15 30  1  0  0  0  0
 15 36  2  0  0  0  0
 16 26  1  0  0  0  0
 16 33  1  0  0  0  0
 16 37  2  0  0  0  0
 17 18  1  0  0  0  0
 17 20  1  0  0  0  0
 18 21  1  0  0  0  0
 19 20  1  0  0  0  0
 19 29  1  0  0  0  0
 21 29  1  0  0  0  0
 21 33  1  0  0  0  0
 22 27  1  0  0  0  0
 24 42  1  0  0  0  0
 25 26  1  0  0  0  0
 26 34  1  0  0  0  0
 27 31  1  0  0  0  0
 27 34  1  0  0  0  0
 32 41  1  0  0  0  0
 38 41  2  0  0  0  0
 39 41  2  0  0  0  0
  1 43  1  0  0  0  0
  2 44  1  0  0  0  0
  3 45  1  0  0  0  0
  4 46  1  0  0  0  0
  5 47  1  0  0  0  0
  6 48  1  0  0  0  0
  7 49  1  0  0  0  0
 17 50  1  0  0  0  0
 17 51  1  0  0  0  0
 18 52  1  0  0  0  0
 18 53  1  0  0  0  0
 19 54  1  0  0  0  0
 19 55  1  0  0  0  0
 20 56  1  0  0  0  0
 21 57  1  0  0  0  0
 22 58  1  0  0  0  0
 22 59  1  0  0  0  0
 22 60  1  0  0  0  0
 23 61  1  0  0  0  0
 23 62  1  0  0  0  0
 24 63  1  0  0  0  0
 24 64  1  0  0  0  0
 25 65  1  0  0  0  0
 25 66  1  0  0  0  0
 26 67  1  0  0  0  0
 27 68  1  0  0  0  0
 30 69  1  0  0  0  0
 30 70  1  0  0  0  0
 31 71  1  0  0  0  0
 31 72  1  0  0  0  0
 32 73  1  0  0  0  0
 32 74  1  0  0  0  0
 33 75  1  0  0  0  0
 34 76  1  0  0  0  0
 34 77  1  0  0  0  0
M  CHG  1  34   1
M  END
> <creator>
David Briggs, Crick Institute

> <fragments>
x0749

> <real_space>
FALSE

> <SCR>
FALSE

> <BB>
FALSE

> <link>
https://covid.postera.ai/covid/submissions/f9b12666-ae78-4cf8-8d60-dc19988e42d3

> <covalent_frag>
TRUE

> <covalent_warhead>
TRUE

> <acrylamide>
FALSE

> <acrylamide_adduct>
FALSE

> <chloroacetamide>
TRUE

> <chloroacetamide_adduct>
FALSE

> <vinylsulfonamide>
FALSE

> <vinylsulfonamide_adduct>
FALSE

> <in_molport_or_mcule>
FALSE

> <in_emolecules>
FALSE

> <Hybrid2>
-3.974461

> <Mpro-x0749_dock>
-3.974461

> <Mpro-x0161_dock>
-2.302395

> <Mpro-x0981_dock>
11.929981

> <site>
active-covalent

> <covalent_distance_min>
6.584158

> <covalent_distance_mean>
7.554089

> <covalent_distance_stderr>
0.06968411

$$$$
BEN-VAN-d2b-14
  -OEChem-04062011563D

 52 54  0     1  0  0  0  0  0999 V2000
    6.6402   -0.2204   23.7877 C   0  0  0  0  0  0  0  0  0  0  0  0
    7.5815   -2.6481   26.4600 C   0  0  0  0  0  0  0  0  0  0  0  0
    5.4703   -2.0888   24.8242 C   0  0  0  0  0  0  0  0  0  0  0  0
   10.4447    2.2742   24.4605 C   0  0  0  0  0  0  0  0  0  0  0  0
    6.6030   -1.2967   24.7277 C   0  0  0  0  0  0  0  0  0  0  0  0
   10.4145    0.9120   24.6630 C   0  0  0  0  0  0  0  0  0  0  0  0
    7.6743   -1.5883   25.5647 C   0  0  0  0  0  0  0  0  0  0  0  0
    9.1788    0.4820   25.2272 C   0  0  0  0  0  0  0  0  0  0  0  0
    6.4049   -3.3795   26.4791 C   0  0  0  0  0  0  0  0  0  0  0  0
    8.3116    1.5322   25.4347 C   0  0  0  0  0  0  0  0  0  0  0  0
    7.3859   -4.8828   22.4761 C   0  0  0  0  0  0  0  0  0  0  0  0
    8.4916   -4.1764   22.7306 C   0  0  0  0  0  0  0  0  0  0  0  0
    8.6034   -2.7638   22.2771 C   0  0  0  0  0  0  0  0  0  0  0  0
   10.2087   -0.8933   22.3458 C   0  0  0  0  0  0  0  0  0  0  0  0
   13.3538    1.0554   22.9879 C   0  0  0  0  0  0  0  0  0  0  0  0
   12.9628    0.6454   24.4109 C   0  0  0  0  0  0  0  0  0  0  0  0
   12.2872    0.4856   22.0579 C   0  0  0  0  0  0  0  0  0  0  0  0
   11.5739   -0.0096   24.3184 C   0  0  2  0  0  0  0  0  0  0  0  0
   11.5669   -0.5709   22.8858 C   0  0  1  0  0  0  0  0  0  0  0  0
    5.1375   -6.3184   26.4411 C   0  0  0  0  0  0  0  0  0  0  0  0
    5.1685   -5.2837   27.5140 C   0  0  0  0  0  0  0  0  0  0  0  0
    6.6705    0.6533   23.0245 N   0  0  0  0  0  0  0  0  0  0  0  0
    5.3431   -3.1264   25.6814 N   0  0  0  0  0  0  0  0  0  0  0  0
    8.8919   -0.8090   25.5242 N   0  0  0  0  0  0  0  0  0  0  0  0
    6.3243   -4.4559   27.3975 N   0  0  0  0  0  0  0  0  0  0  0  0
    9.8259   -2.2016   22.6366 N   0  0  0  0  0  0  0  0  0  0  0  0
    7.7054   -2.1962   21.6637 O   0  0  0  0  0  0  0  0  0  0  0  0
    9.5366   -0.0616   21.7418 O   0  0  0  0  0  0  0  0  0  0  0  0
    8.9875    3.0289   24.9499 S   0  0  0  0  0  0  0  0  0  0  0  0
    6.7234    1.4982   26.0878 Cl  0  0  0  0  0  0  0  0  0  0  0  0
    8.4067   -2.8935   27.1222 H   0  0  0  0  0  0  0  0  0  0  0  0
    4.5987   -1.9142   24.1998 H   0  0  0  0  0  0  0  0  0  0  0  0
   11.2501    2.8668   24.0491 H   0  0  0  0  0  0  0  0  0  0  0  0
    7.2661   -5.9138   22.7895 H   0  0  0  0  0  0  0  0  0  0  0  0
    6.5632   -4.4263   21.9356 H   0  0  0  0  0  0  0  0  0  0  0  0
    9.3167   -4.6289   23.2694 H   0  0  0  0  0  0  0  0  0  0  0  0
   13.4447    2.1455   22.8956 H   0  0  0  0  0  0  0  0  0  0  0  0
   14.3348    0.6274   22.7362 H   0  0  0  0  0  0  0  0  0  0  0  0
   13.7131   -0.0377   24.8545 H   0  0  0  0  0  0  0  0  0  0  0  0
   12.9412    1.5383   25.0683 H   0  0  0  0  0  0  0  0  0  0  0  0
   11.6212    1.2720   21.6997 H   0  0  0  0  0  0  0  0  0  0  0  0
   12.7669    0.0330   21.1878 H   0  0  0  0  0  0  0  0  0  0  0  0
   11.5326   -0.8538   25.0284 H   0  0  0  0  0  0  0  0  0  0  0  0
   12.1439   -1.5356   22.8627 H   0  0  0  0  0  0  0  0  0  0  0  0
    6.0352   -6.9500   26.5140 H   0  0  0  0  0  0  0  0  0  0  0  0
    4.2395   -6.9425   26.5595 H   0  0  0  0  0  0  0  0  0  0  0  0
    5.1148   -5.8260   25.4577 H   0  0  0  0  0  0  0  0  0  0  0  0
    4.2682   -4.6567   27.4343 H   0  0  0  0  0  0  0  0  0  0  0  0
    5.1819   -5.7831   28.4940 H   0  0  0  0  0  0  0  0  0  0  0  0
    9.6961   -1.4122   25.7869 H   0  0  0  0  0  0  0  0  0  0  0  0
    7.1260   -4.6140   27.9731 H   0  0  0  0  0  0  0  0  0  0  0  0
   10.4846   -2.7859   23.1464 H   0  0  0  0  0  0  0  0  0  0  0  0
  1  5  1  0  0  0  0
  1 22  3  0  0  0  0
  2  7  1  0  0  0  0
  2  9  2  0  0  0  0
  3  5  1  0  0  0  0
  3 23  2  0  0  0  0
  4  6  2  0  0  0  0
  4 29  1  0  0  0  0
  5  7  2  0  0  0  0
  6  8  1  0  0  0  0
  6 18  1  0  0  0  0
  7 24  1  0  0  0  0
  8 10  2  0  0  0  0
  8 24  1  0  0  0  0
  9 23  1  0  0  0  0
  9 25  1  0  0  0  0
 10 29  1  0  0  0  0
 10 30  1  0  0  0  0
 11 12  2  0  0  0  0
 12 13  1  0  0  0  0
 13 26  1  0  0  0  0
 13 27  2  0  0  0  0
 14 19  1  0  0  0  0
 14 26  1  0  0  0  0
 14 28  2  0  0  0  0
 15 16  1  0  0  0  0
 15 17  1  0  0  0  0
 16 18  1  0  0  0  0
 17 19  1  0  0  0  0
 18 19  1  0  0  0  0
 20 21  1  0  0  0  0
 21 25  1  0  0  0  0
  2 31  1  0  0  0  0
  3 32  1  0  0  0  0
  4 33  1  0  0  0  0
 11 34  1  0  0  0  0
 11 35  1  0  0  0  0
 12 36  1  0  0  0  0
 15 37  1  0  0  0  0
 15 38  1  0  0  0  0
 16 39  1  0  0  0  0
 16 40  1  0  0  0  0
 17 41  1  0  0  0  0
 17 42  1  0  0  0  0
 18 43  1  0  0  0  0
 19 44  1  0  0  0  0
 20 45  1  0  0  0  0
 20 46  1  0  0  0  0
 20 47  1  0  0  0  0
 21 48  1  0  0  0  0
 21 49  1  0  0  0  0
 24 50  1  0  0  0  0
 25 51  1  0  0  0  0
 26 52  1  0  0  0  0
M  END
> <creator>
Benjamin P. Brown, Vanderbilt University, Laboratory of Jens Meiler

> <fragments>
x0874

> <real_space>
FALSE

> <SCR>
FALSE

> <BB>
FALSE

> <link>
https://covid.postera.ai/covid/submissions/d2b455e2-4c45-4364-9fc0-1efc54e3e367

> <covalent_frag>
FALSE

> <covalent_warhead>
TRUE

> <acrylamide>
TRUE

> <acrylamide_adduct>
FALSE

> <chloroacetamide>
FALSE

> <chloroacetamide_adduct>
FALSE

> <vinylsulfonamide>
FALSE

> <vinylsulfonamide_adduct>
FALSE

> <in_molport_or_mcule>
FALSE

> <in_emolecules>
FALSE

> <Hybrid2>
-3.959137

> <Mpro-x0874_dock>
-3.959137

> <Mpro-x0305_dock>
-0.635879

> <site>
active-noncovalent

> <covalent_distance_min>
5.096035

> <covalent_distance_mean>
5.6792564

> <covalent_distance_stderr>
0.044081997

$$$$
MAK-UNK-e4a-27
  -OEChem-04062011563D

 53 55  0     0  0  0  0  0  0999 V2000
   11.6539   -0.4124   25.4823 C   0  0  0  0  0  0  0  0  0  0  0  0
   11.6092   -1.8027   25.3784 C   0  0  0  0  0  0  0  0  0  0  0  0
   11.5728    0.3758   24.3343 C   0  0  0  0  0  0  0  0  0  0  0  0
   11.4022   -1.6166   22.9784 C   0  0  0  0  0  0  0  0  0  0  0  0
   11.4833   -2.4048   24.1265 C   0  0  0  0  0  0  0  0  0  0  0  0
   11.4470   -0.2263   23.0824 C   0  0  0  0  0  0  0  0  0  0  0  0
    9.2513   -4.6516   24.7844 C   0  0  0  0  0  0  0  0  0  0  0  0
    8.3766   -3.8111   25.3807 C   0  0  0  0  0  0  0  0  0  0  0  0
    9.3086   -6.0585   25.2990 C   0  0  0  0  0  0  0  0  0  0  0  0
    7.5987   -5.3735   26.8515 C   0  0  0  0  0  0  0  0  0  0  0  0
    6.3248   -0.7073   20.5444 C   0  0  0  0  0  0  0  0  0  0  0  0
    6.9998   -2.5480   22.0516 C   0  0  0  0  0  0  0  0  0  0  0  0
    7.2723   -0.2297   22.8548 C   0  0  0  0  0  0  0  0  0  0  0  0
    6.3452   -2.9467   23.3661 C   0  0  0  0  0  0  0  0  0  0  0  0
    6.6234   -0.5977   24.1824 C   0  0  0  0  0  0  0  0  0  0  0  0
    6.7185   -5.8215   27.9819 C   0  0  0  0  0  0  0  0  0  0  0  0
   11.4357   -3.9012   24.0147 C   0  0  0  0  0  0  0  0  0  0  0  0
    8.2173   -2.3928   24.9705 C   0  0  0  0  0  0  0  0  0  0  0  0
    6.1653    0.7787   20.3432 C   0  0  0  0  0  0  0  0  0  0  0  0
    7.5386   -4.1549   26.4218 N   0  0  0  0  0  0  0  0  0  0  0  0
    8.4427   -6.3262   26.3372 N   0  0  0  0  0  0  0  0  0  0  0  0
    6.8204   -1.1212   21.7807 N   0  0  0  0  0  0  0  0  0  0  0  0
   10.1053   -4.3791   23.7556 N   0  0  0  0  0  0  0  0  0  0  0  0
    6.8305   -2.0621   24.4910 N   0  3  0  0  0  0  0  0  0  0  0  0
   10.0732   -6.8923   24.8202 O   0  0  0  0  0  0  0  0  0  0  0  0
    6.0151   -1.4755   19.6301 O   0  0  0  0  0  0  0  0  0  0  0  0
   11.3672    0.5429   21.9622 O   0  0  0  0  0  0  0  0  0  0  0  0
    5.5653    1.0035   18.7039 Cl  0  0  0  0  0  0  0  0  0  0  0  0
   11.7514    0.0562   26.4571 H   0  0  0  0  0  0  0  0  0  0  0  0
   11.6735   -2.4085   26.2784 H   0  0  0  0  0  0  0  0  0  0  0  0
   11.6082    1.4580   24.4220 H   0  0  0  0  0  0  0  0  0  0  0  0
   11.3044   -2.0832   22.0010 H   0  0  0  0  0  0  0  0  0  0  0  0
    8.0638   -2.8067   22.0800 H   0  0  0  0  0  0  0  0  0  0  0  0
    6.5557   -3.1003   21.2135 H   0  0  0  0  0  0  0  0  0  0  0  0
    7.0012    0.7932   22.5635 H   0  0  0  0  0  0  0  0  0  0  0  0
    8.3582   -0.2496   22.9704 H   0  0  0  0  0  0  0  0  0  0  0  0
    5.2522   -2.8268   23.3052 H   0  0  0  0  0  0  0  0  0  0  0  0
    6.5723   -3.9910   23.6376 H   0  0  0  0  0  0  0  0  0  0  0  0
    7.0435   -0.0151   25.0191 H   0  0  0  0  0  0  0  0  0  0  0  0
    5.5366   -0.4237   24.1414 H   0  0  0  0  0  0  0  0  0  0  0  0
    5.7819   -6.2022   27.5821 H   0  0  0  0  0  0  0  0  0  0  0  0
    6.5192   -4.9799   28.6413 H   0  0  0  0  0  0  0  0  0  0  0  0
    7.2217   -6.6049   28.5439 H   0  0  0  0  0  0  0  0  0  0  0  0
   12.0831   -4.2485   23.2021 H   0  0  0  0  0  0  0  0  0  0  0  0
   11.7881   -4.3756   24.9367 H   0  0  0  0  0  0  0  0  0  0  0  0
    8.8936   -2.1537   24.1450 H   0  0  0  0  0  0  0  0  0  0  0  0
    8.4247   -1.7248   25.8109 H   0  0  0  0  0  0  0  0  0  0  0  0
    7.1332    1.2542   20.4537 H   0  0  0  0  0  0  0  0  0  0  0  0
    5.4433    1.1547   21.0589 H   0  0  0  0  0  0  0  0  0  0  0  0
    8.4400   -7.2653   26.7248 H   0  0  0  0  0  0  0  0  0  0  0  0
    9.7620   -4.5274   22.8368 H   0  0  0  0  0  0  0  0  0  0  0  0
    6.1950   -2.2722   25.3139 H   0  0  0  0  0  0  0  0  0  0  0  0
   11.4115    1.4836   22.1965 H   0  0  0  0  0  0  0  0  0  0  0  0
  1  2  2  0  0  0  0
  1  3  1  0  0  0  0
  2  5  1  0  0  0  0
  3  6  2  0  0  0  0
  4  5  2  0  0  0  0
  4  6  1  0  0  0  0
  5 17  1  0  0  0  0
  6 27  1  0  0  0  0
  7  8  2  0  0  0  0
  7  9  1  0  0  0  0
  7 23  1  0  0  0  0
  8 18  1  0  0  0  0
  8 20  1  0  0  0  0
  9 21  1  0  0  0  0
  9 25  2  0  0  0  0
 10 16  1  0  0  0  0
 10 20  2  0  0  0  0
 10 21  1  0  0  0  0
 11 19  1  0  0  0  0
 11 22  1  0  0  0  0
 11 26  2  0  0  0  0
 12 14  1  0  0  0  0
 12 22  1  0  0  0  0
 13 15  1  0  0  0  0
 13 22  1  0  0  0  0
 14 24  1  0  0  0  0
 15 24  1  0  0  0  0
 17 23  1  0  0  0  0
 18 24  1  0  0  0  0
 19 28  1  0  0  0  0
  1 29  1  0  0  0  0
  2 30  1  0  0  0  0
  3 31  1  0  0  0  0
  4 32  1  0  0  0  0
 12 33  1  0  0  0  0
 12 34  1  0  0  0  0
 13 35  1  0  0  0  0
 13 36  1  0  0  0  0
 14 37  1  0  0  0  0
 14 38  1  0  0  0  0
 15 39  1  0  0  0  0
 15 40  1  0  0  0  0
 16 41  1  0  0  0  0
 16 42  1  0  0  0  0
 16 43  1  0  0  0  0
 17 44  1  0  0  0  0
 17 45  1  0  0  0  0
 18 46  1  0  0  0  0
 18 47  1  0  0  0  0
 19 48  1  0  0  0  0
 19 49  1  0  0  0  0
 21 50  1  0  0  0  0
 23 51  1  0  0  0  0
 24 52  1  0  0  0  0
 27 53  1  0  0  0  0
M  CHG  1  24   1
M  END
> <creator>
Maksym Voznyy

> <fragments>
x0387

> <real_space>
FALSE

> <SCR>
FALSE

> <BB>
FALSE

> <link>
https://covid.postera.ai/covid/submissions/e4a48a85-91ce-4c28-86d4-edf9997dafca

> <covalent_frag>
TRUE

> <covalent_warhead>
TRUE

> <acrylamide>
FALSE

> <acrylamide_adduct>
FALSE

> <chloroacetamide>
TRUE

> <chloroacetamide_adduct>
FALSE

> <vinylsulfonamide>
FALSE

> <vinylsulfonamide_adduct>
FALSE

> <in_molport_or_mcule>
FALSE

> <in_emolecules>
FALSE

> <Hybrid2>
-3.938882

> <Mpro-x0387_dock>
-3.938882

> <Mpro-x0692_dock>
-2.637325

> <site>
active-noncovalent

> <covalent_distance_min>
3.48966

> <covalent_distance_mean>
4.3601294

> <covalent_distance_stderr>
0.03786095

$$$$
MAK-UNK-702-7
  -OEChem-04062011563D

 72 77  0     1  0  0  0  0  0999 V2000
    5.0981   -6.2392   22.0079 C   0  0  0  0  0  0  0  0  0  0  0  0
    7.1645   -0.4722   18.8941 C   0  0  0  0  0  0  0  0  0  0  0  0
    4.1067   -5.8503   22.9086 C   0  0  0  0  0  0  0  0  0  0  0  0
    6.4381   -5.9699   22.2865 C   0  0  0  0  0  0  0  0  0  0  0  0
    6.3920   -6.8771   29.0418 C   0  0  0  0  0  0  0  0  0  0  0  0
    5.1565   -6.5015   28.5243 C   0  0  0  0  0  0  0  0  0  0  0  0
    6.4154    0.6209   18.4587 C   0  0  0  0  0  0  0  0  0  0  0  0
   12.6712   -0.9498   22.0181 C   0  0  0  0  0  0  0  0  0  0  0  0
    7.4231   -0.6432   20.2541 C   0  0  0  0  0  0  0  0  0  0  0  0
    4.4552   -5.1920   24.0880 C   0  0  0  0  0  0  0  0  0  0  0  0
    6.7866   -5.3116   23.4658 C   0  0  0  0  0  0  0  0  0  0  0  0
    7.5648   -6.3897   28.4661 C   0  0  0  0  0  0  0  0  0  0  0  0
    5.0940   -5.6367   27.4328 C   0  0  0  0  0  0  0  0  0  0  0  0
    5.9251    1.5431   19.3833 C   0  0  0  0  0  0  0  0  0  0  0  0
   11.4744   -0.2732   21.8108 C   0  0  0  0  0  0  0  0  0  0  0  0
    6.4632   -0.5894   23.5242 C   0  0  0  0  0  0  0  0  0  0  0  0
   13.3817   -0.6715   23.1746 C   0  0  0  0  0  0  0  0  0  0  0  0
   11.8147    0.8548   23.8768 C   0  0  0  0  0  0  0  0  0  0  0  0
    8.2743    0.2723   24.5476 C   0  0  0  0  0  0  0  0  0  0  0  0
    6.9328    0.2790   21.1787 C   0  0  0  0  0  0  0  0  0  0  0  0
    5.7951   -4.9227   24.3666 C   0  0  0  0  0  0  0  0  0  0  0  0
    7.5164   -5.5212   27.3644 C   0  0  0  0  0  0  0  0  0  0  0  0
    6.2691   -5.1372   26.8469 C   0  0  0  0  0  0  0  0  0  0  0  0
    7.1402   -0.4790   24.7638 C   0  0  0  0  0  0  0  0  0  0  0  0
    6.1837    1.3721   20.7433 C   0  0  0  0  0  0  0  0  0  0  0  0
   11.0308    0.6481   22.7531 C   0  0  0  0  0  0  0  0  0  0  0  0
    7.2043    0.0976   22.5882 C   0  0  0  0  0  0  0  0  0  0  0  0
    9.7404   -3.9329   24.7003 C   0  0  0  0  0  0  0  0  0  0  0  0
    8.8125   -5.0249   26.7783 C   0  0  0  0  0  0  0  0  0  0  0  0
    6.1772   -4.2021   25.6569 C   0  0  1  0  0  0  0  0  0  0  0  0
    7.4616   -3.3711   25.4604 C   0  0  2  0  0  0  0  0  0  0  0  0
    6.7037   -1.0704   26.0717 C   0  0  0  0  0  0  0  0  0  0  0  0
   11.0433   -4.6300   25.0071 C   0  0  0  0  0  0  0  0  0  0  0  0
   12.9829    0.2165   24.1127 N   0  0  0  0  0  0  0  0  0  0  0  0
    8.3031    0.6170   23.2215 N   0  0  0  0  0  0  0  0  0  0  0  0
    8.6854   -4.1645   25.5925 N   0  0  0  0  0  0  0  0  0  0  0  0
    7.4959   -2.2613   26.4642 N   0  3  0  0  0  0  0  0  0  0  0  0
    9.6595   -3.2163   23.6996 O   0  0  0  0  0  0  0  0  0  0  0  0
    9.5679    2.7634   23.3084 O   0  0  0  0  0  0  0  0  0  0  0  0
    9.2783    1.5749   21.0776 O   0  0  0  0  0  0  0  0  0  0  0  0
    5.7050    2.2675   21.6195 F   0  0  0  0  0  0  0  0  0  0  0  0
    9.5091    1.5308   22.5234 S   0  0  0  0  0  0  0  0  0  0  0  0
   11.9823   -3.5240   26.0027 Cl  0  0  0  0  0  0  0  0  0  0  0  0
    4.8267   -6.7530   21.0902 H   0  0  0  0  0  0  0  0  0  0  0  0
    7.5458   -1.1903   18.1741 H   0  0  0  0  0  0  0  0  0  0  0  0
    3.0633   -6.0609   22.6924 H   0  0  0  0  0  0  0  0  0  0  0  0
    7.2103   -6.2735   21.5859 H   0  0  0  0  0  0  0  0  0  0  0  0
    6.4435   -7.5498   29.8928 H   0  0  0  0  0  0  0  0  0  0  0  0
    4.2421   -6.8812   28.9704 H   0  0  0  0  0  0  0  0  0  0  0  0
    6.2136    0.7538   17.3999 H   0  0  0  0  0  0  0  0  0  0  0  0
   13.0364   -1.6723   21.2972 H   0  0  0  0  0  0  0  0  0  0  0  0
    8.0086   -1.5007   20.5774 H   0  0  0  0  0  0  0  0  0  0  0  0
    3.6759   -4.8926   24.7839 H   0  0  0  0  0  0  0  0  0  0  0  0
    7.8332   -5.1059   23.6745 H   0  0  0  0  0  0  0  0  0  0  0  0
    8.5235   -6.6925   28.8808 H   0  0  0  0  0  0  0  0  0  0  0  0
    4.1211   -5.3503   27.0403 H   0  0  0  0  0  0  0  0  0  0  0  0
    5.3415    2.3940   19.0444 H   0  0  0  0  0  0  0  0  0  0  0  0
   10.8955   -0.4707   20.9129 H   0  0  0  0  0  0  0  0  0  0  0  0
    5.5354   -1.1137   23.3371 H   0  0  0  0  0  0  0  0  0  0  0  0
   14.3213   -1.1725   23.3832 H   0  0  0  0  0  0  0  0  0  0  0  0
   11.5207    1.5611   24.6470 H   0  0  0  0  0  0  0  0  0  0  0  0
    9.0577    0.5872   25.2246 H   0  0  0  0  0  0  0  0  0  0  0  0
    9.3464   -4.4368   27.5347 H   0  0  0  0  0  0  0  0  0  0  0  0
    9.4293   -5.8920   26.5217 H   0  0  0  0  0  0  0  0  0  0  0  0
    5.3348   -3.4813   25.8516 H   0  0  0  0  0  0  0  0  0  0  0  0
    7.4419   -2.8609   24.4907 H   0  0  0  0  0  0  0  0  0  0  0  0
    6.8015   -0.3451   26.8865 H   0  0  0  0  0  0  0  0  0  0  0  0
    5.6563   -1.3885   26.0320 H   0  0  0  0  0  0  0  0  0  0  0  0
   11.5625   -4.8265   24.0766 H   0  0  0  0  0  0  0  0  0  0  0  0
   10.8325   -5.5396   25.5567 H   0  0  0  0  0  0  0  0  0  0  0  0
    7.1537   -2.6209   27.3624 H   0  0  0  0  0  0  0  0  0  0  0  0
    8.4733   -1.9887   26.6181 H   0  0  0  0  0  0  0  0  0  0  0  0
  1  3  1  0  0  0  0
  1  4  2  0  0  0  0
  2  7  1  0  0  0  0
  2  9  2  0  0  0  0
  3 10  2  0  0  0  0
  4 11  1  0  0  0  0
  5  6  1  0  0  0  0
  5 12  2  0  0  0  0
  6 13  2  0  0  0  0
  7 14  2  0  0  0  0
  8 15  2  0  0  0  0
  8 17  1  0  0  0  0
  9 20  1  0  0  0  0
 10 21  1  0  0  0  0
 11 21  2  0  0  0  0
 12 22  1  0  0  0  0
 13 23  1  0  0  0  0
 14 25  1  0  0  0  0
 15 26  1  0  0  0  0
 16 24  1  0  0  0  0
 16 27  2  0  0  0  0
 17 34  2  0  0  0  0
 18 26  2  0  0  0  0
 18 34  1  0  0  0  0
 19 24  2  0  0  0  0
 19 35  1  0  0  0  0
 20 25  2  0  0  0  0
 20 27  1  0  0  0  0
 21 30  1  0  0  0  0
 22 23  2  0  0  0  0
 22 29  1  0  0  0  0
 23 30  1  0  0  0  0
 24 32  1  0  0  0  0
 25 41  1  0  0  0  0
 26 42  1  0  0  0  0
 27 35  1  0  0  0  0
 28 33  1  0  0  0  0
 28 36  1  0  0  0  0
 28 38  2  0  0  0  0
 29 36  1  0  0  0  0
 30 31  1  0  0  0  0
 31 36  1  0  0  0  0
 31 37  1  0  0  0  0
 32 37  1  0  0  0  0
 33 43  1  0  0  0  0
 35 42  1  0  0  0  0
 39 42  2  0  0  0  0
 40 42  2  0  0  0  0
  1 44  1  0  0  0  0
  2 45  1  0  0  0  0
  3 46  1  0  0  0  0
  4 47  1  0  0  0  0
  5 48  1  0  0  0  0
  6 49  1  0  0  0  0
  7 50  1  0  0  0  0
  8 51  1  0  0  0  0
  9 52  1  0  0  0  0
 10 53  1  0  0  0  0
 11 54  1  0  0  0  0
 12 55  1  0  0  0  0
 13 56  1  0  0  0  0
 14 57  1  0  0  0  0
 15 58  1  0  0  0  0
 16 59  1  0  0  0  0
 17 60  1  0  0  0  0
 18 61  1  0  0  0  0
 19 62  1  0  0  0  0
 29 63  1  0  0  0  0
 29 64  1  0  0  0  0
 30 65  1  0  0  0  0
 31 66  1  0  0  0  0
 32 67  1  0  0  0  0
 32 68  1  0  0  0  0
 33 69  1  0  0  0  0
 33 70  1  0  0  0  0
 37 71  1  0  0  0  0
 37 72  1  0  0  0  0
M  CHG  1  37   1
M  END
> <creator>
Maksym Voznyy

> <fragments>
x0387

> <real_space>
FALSE

> <SCR>
FALSE

> <BB>
FALSE

> <link>
https://covid.postera.ai/covid/submissions/702fb7d3-1941-4d37-9e1c-6a10ebd67f09

> <covalent_frag>
FALSE

> <covalent_warhead>
TRUE

> <acrylamide>
FALSE

> <acrylamide_adduct>
FALSE

> <chloroacetamide>
TRUE

> <chloroacetamide_adduct>
FALSE

> <vinylsulfonamide>
FALSE

> <vinylsulfonamide_adduct>
FALSE

> <in_molport_or_mcule>
FALSE

> <in_emolecules>
FALSE

> <Hybrid2>
-3.934216

> <Mpro-x0387_dock>
-3.934216

> <site>
active-noncovalent

> <covalent_distance_min>
5.065918

> <covalent_distance_mean>
6.3144145

> <covalent_distance_stderr>
0.09038323

$$$$
DAV-CRI-f9b-3
  -OEChem-04062011563D

 74 77  0     1  0  0  0  0  0999 V2000
   14.6663    0.4111   24.0618 C   0  0  0  0  0  0  0  0  0  0  0  0
   14.0291   -0.7876   24.3824 C   0  0  0  0  0  0  0  0  0  0  0  0
   12.6250   -3.0115   25.6129 C   0  0  0  0  0  0  0  0  0  0  0  0
   12.0082   -4.2195   25.9480 C   0  0  0  0  0  0  0  0  0  0  0  0
   13.9125    1.5626   23.8347 C   0  0  0  0  0  0  0  0  0  0  0  0
   10.6936   -2.3327   24.3199 C   0  0  0  0  0  0  0  0  0  0  0  0
   11.8844    0.3167   24.2487 C   0  0  0  0  0  0  0  0  0  0  0  0
   11.9781   -2.0790   24.8095 C   0  0  0  0  0  0  0  0  0  0  0  0
   12.6382   -0.8348   24.4759 C   0  0  0  0  0  0  0  0  0  0  0  0
   10.0476   -3.5456   24.6433 C   0  0  0  0  0  0  0  0  0  0  0  0
   10.7180   -4.4678   25.4526 C   0  0  0  0  0  0  0  0  0  0  0  0
   12.5216    1.5154   23.9281 C   0  0  0  0  0  0  0  0  0  0  0  0
    8.5033   -5.1192   24.7205 C   0  0  0  0  0  0  0  0  0  0  0  0
    4.6083   -3.1287   24.7739 C   0  0  0  0  0  0  0  0  0  0  0  0
    6.4270   -0.5788   18.6786 C   0  0  0  0  0  0  0  0  0  0  0  0
    6.3135   -3.0466   20.7988 C   0  0  0  0  0  0  0  0  0  0  0  0
    7.0567   -6.2744   22.9971 C   0  0  0  0  0  0  0  0  0  0  0  0
    5.7424   -5.8197   22.3684 C   0  0  0  0  0  0  0  0  0  0  0  0
    5.9291   -5.1896   25.0361 C   0  0  0  0  0  0  0  0  0  0  0  0
    7.1966   -5.8650   24.4789 C   0  0  2  0  0  0  0  0  0  0  0  0
    5.4255   -4.3642   22.7129 C   0  0  1  0  0  0  0  0  0  0  0  0
   10.0161   -4.8725   20.9926 C   0  0  0  0  0  0  0  0  0  0  0  0
    3.9985   -2.0974   23.8556 C   0  0  0  0  0  0  0  0  0  0  0  0
    7.3844   -1.7264   18.9484 C   0  0  0  0  0  0  0  0  0  0  0  0
    7.4606   -2.1233   20.4229 C   0  0  2  0  0  0  0  0  0  0  0  0
    8.8336   -4.2438   20.2601 C   0  0  2  0  0  0  0  0  0  0  0  0
    8.7806   -3.9330   24.2320 N   0  0  0  0  0  0  0  0  0  0  0  0
    5.3336   -4.1641   24.1705 N   0  0  0  0  0  0  0  0  0  0  0  0
    6.3166   -0.2949   17.3339 N   0  0  0  0  0  0  0  0  0  0  0  0
    8.9944   -4.4439   18.8234 N   0  0  0  0  0  0  0  0  0  0  0  0
   11.3068    2.8447   21.9629 N   0  0  0  0  0  0  0  0  0  0  0  0
    6.4006   -3.4828   22.1120 N   0  0  0  0  0  0  0  0  0  0  0  0
    8.7665   -2.7994   20.6769 N   0  3  0  0  0  0  0  0  0  0  0  0
    4.4383   -3.0250   25.9918 O   0  0  0  0  0  0  0  0  0  0  0  0
    5.8151    0.0262   19.5539 O   0  0  0  0  0  0  0  0  0  0  0  0
    5.4204   -3.3496   20.0108 O   0  0  0  0  0  0  0  0  0  0  0  0
   10.3058    2.8173   24.3384 O   0  0  0  0  0  0  0  0  0  0  0  0
   12.4198    4.1180   23.9063 O   0  0  0  0  0  0  0  0  0  0  0  0
    9.7112   -5.8475   25.6883 S   0  0  0  0  0  0  0  0  0  0  0  0
   11.5790    2.9579   23.6459 S   0  0  0  0  0  0  0  0  0  0  0  0
    2.4028   -2.6956   23.4163 Cl  0  0  0  0  0  0  0  0  0  0  0  0
   15.7494    0.4480   23.9893 H   0  0  0  0  0  0  0  0  0  0  0  0
   14.6307   -1.6767   24.5562 H   0  0  0  0  0  0  0  0  0  0  0  0
   13.6252   -2.8149   25.9941 H   0  0  0  0  0  0  0  0  0  0  0  0
   12.5198   -4.9429   26.5757 H   0  0  0  0  0  0  0  0  0  0  0  0
   14.4187    2.4911   23.5854 H   0  0  0  0  0  0  0  0  0  0  0  0
   10.1836   -1.6065   23.6913 H   0  0  0  0  0  0  0  0  0  0  0  0
   10.7991    0.2854   24.3198 H   0  0  0  0  0  0  0  0  0  0  0  0
    7.1453   -7.3758   22.9036 H   0  0  0  0  0  0  0  0  0  0  0  0
    7.9076   -5.8695   22.4108 H   0  0  0  0  0  0  0  0  0  0  0  0
    5.7832   -5.9585   21.2848 H   0  0  0  0  0  0  0  0  0  0  0  0
    4.9321   -6.4564   22.7368 H   0  0  0  0  0  0  0  0  0  0  0  0
    5.1742   -5.9672   25.2783 H   0  0  0  0  0  0  0  0  0  0  0  0
    6.1460   -4.6982   26.0091 H   0  0  0  0  0  0  0  0  0  0  0  0
    7.3243   -6.8516   25.0588 H   0  0  0  0  0  0  0  0  0  0  0  0
    4.4816   -4.1121   22.2298 H   0  0  0  0  0  0  0  0  0  0  0  0
   10.9682   -4.4304   20.6768 H   0  0  0  0  0  0  0  0  0  0  0  0
   10.0656   -5.9510   20.8043 H   0  0  0  0  0  0  0  0  0  0  0  0
    9.9246   -4.7342   22.0759 H   0  0  0  0  0  0  0  0  0  0  0  0
    4.6182   -2.0050   22.9711 H   0  0  0  0  0  0  0  0  0  0  0  0
    3.9105   -1.1592   24.3910 H   0  0  0  0  0  0  0  0  0  0  0  0
    8.3778   -1.4547   18.5688 H   0  0  0  0  0  0  0  0  0  0  0  0
    7.0382   -2.5766   18.3466 H   0  0  0  0  0  0  0  0  0  0  0  0
    7.4488   -1.2479   21.0820 H   0  0  0  0  0  0  0  0  0  0  0  0
    7.9049   -4.7128   20.6041 H   0  0  0  0  0  0  0  0  0  0  0  0
    5.7106    0.4499   17.0060 H   0  0  0  0  0  0  0  0  0  0  0  0
    6.8295   -0.8110   16.6261 H   0  0  0  0  0  0  0  0  0  0  0  0
    8.9965   -5.4414   18.6136 H   0  0  0  0  0  0  0  0  0  0  0  0
    8.1920   -4.0544   18.3308 H   0  0  0  0  0  0  0  0  0  0  0  0
   10.3583    2.6140   21.6427 H   0  0  0  0  0  0  0  0  0  0  0  0
   11.8040    3.5013   21.3490 H   0  0  0  0  0  0  0  0  0  0  0  0
    7.1840   -3.1692   22.6765 H   0  0  0  0  0  0  0  0  0  0  0  0
    8.9689   -2.7261   21.6826 H   0  0  0  0  0  0  0  0  0  0  0  0
    9.5119   -2.2759   20.2000 H   0  0  0  0  0  0  0  0  0  0  0  0
  1  2  2  0  0  0  0
  1  5  1  0  0  0  0
  2  9  1  0  0  0  0
  3  4  2  0  0  0  0
  3  8  1  0  0  0  0
  4 11  1  0  0  0  0
  5 12  2  0  0  0  0
  6  8  2  0  0  0  0
  6 10  1  0  0  0  0
  7  9  2  0  0  0  0
  7 12  1  0  0  0  0
  8  9  1  0  0  0  0
 10 11  2  0  0  0  0
 10 27  1  0  0  0  0
 11 39  1  0  0  0  0
 12 40  1  0  0  0  0
 13 20  1  0  0  0  0
 13 27  2  0  0  0  0
 13 39  1  0  0  0  0
 14 23  1  0  0  0  0
 14 28  1  0  0  0  0
 14 34  2  0  0  0  0
 15 24  1  0  0  0  0
 15 29  1  0  0  0  0
 15 35  2  0  0  0  0
 16 25  1  0  0  0  0
 16 32  1  0  0  0  0
 16 36  2  0  0  0  0
 17 18  1  0  0  0  0
 17 20  1  0  0  0  0
 18 21  1  0  0  0  0
 19 20  1  0  0  0  0
 19 28  1  0  0  0  0
 21 28  1  0  0  0  0
 21 32  1  0  0  0  0
 22 26  1  0  0  0  0
 23 41  1  0  0  0  0
 24 25  1  0  0  0  0
 25 33  1  0  0  0  0
 26 30  1  0  0  0  0
 26 33  1  0  0  0  0
 31 40  1  0  0  0  0
 37 40  2  0  0  0  0
 38 40  2  0  0  0  0
  1 42  1  0  0  0  0
  2 43  1  0  0  0  0
  3 44  1  0  0  0  0
  4 45  1  0  0  0  0
  5 46  1  0  0  0  0
  6 47  1  0  0  0  0
  7 48  1  0  0  0  0
 17 49  1  0  0  0  0
 17 50  1  0  0  0  0
 18 51  1  0  0  0  0
 18 52  1  0  0  0  0
 19 53  1  0  0  0  0
 19 54  1  0  0  0  0
 20 55  1  0  0  0  0
 21 56  1  0  0  0  0
 22 57  1  0  0  0  0
 22 58  1  0  0  0  0
 22 59  1  0  0  0  0
 23 60  1  0  0  0  0
 23 61  1  0  0  0  0
 24 62  1  0  0  0  0
 24 63  1  0  0  0  0
 25 64  1  0  0  0  0
 26 65  1  0  0  0  0
 29 66  1  0  0  0  0
 29 67  1  0  0  0  0
 30 68  1  0  0  0  0
 30 69  1  0  0  0  0
 31 70  1  0  0  0  0
 31 71  1  0  0  0  0
 32 72  1  0  0  0  0
 33 73  1  0  0  0  0
 33 74  1  0  0  0  0
M  CHG  1  33   1
M  END
> <creator>
David Briggs, Crick Institute

> <fragments>
x0749

> <real_space>
FALSE

> <SCR>
FALSE

> <BB>
FALSE

> <link>
https://covid.postera.ai/covid/submissions/f9b12666-ae78-4cf8-8d60-dc19988e42d3

> <covalent_frag>
TRUE

> <covalent_warhead>
TRUE

> <acrylamide>
FALSE

> <acrylamide_adduct>
FALSE

> <chloroacetamide>
TRUE

> <chloroacetamide_adduct>
FALSE

> <vinylsulfonamide>
FALSE

> <vinylsulfonamide_adduct>
FALSE

> <in_molport_or_mcule>
FALSE

> <in_emolecules>
FALSE

> <Hybrid2>
-3.928930

> <Mpro-x0749_dock>
-3.92893

> <Mpro-x0161_dock>
-3.477245

> <Mpro-x0981_dock>
10.420635

> <site>
active-covalent

$$$$
STU-CHA-7b3-1
  -OEChem-04062011563D

 56 58  0     1  0  0  0  0  0999 V2000
    7.6063    3.7934   26.4891 C   0  0  0  0  0  0  0  0  0  0  0  0
    8.3695    4.9585   26.4145 C   0  0  0  0  0  0  0  0  0  0  0  0
    9.4938    4.0966   24.4573 C   0  0  0  0  0  0  0  0  0  0  0  0
    7.7869    2.7798   25.5480 C   0  0  0  0  0  0  0  0  0  0  0  0
    8.7306    2.9315   24.5321 C   0  0  0  0  0  0  0  0  0  0  0  0
    9.3133    5.1102   25.3986 C   0  0  0  0  0  0  0  0  0  0  0  0
    5.3789    0.3269   24.1612 C   0  0  0  0  0  0  0  0  0  0  0  0
   13.3928   -0.3245   22.2975 C   0  0  0  0  0  0  0  0  0  0  0  0
    5.5298    1.8994   21.4016 C   0  0  0  0  0  0  0  0  0  0  0  0
    4.8825    0.5567   21.7319 C   0  0  0  0  0  0  0  0  0  0  0  0
   12.0642    1.3227   23.5771 C   0  0  0  0  0  0  0  0  0  0  0  0
   10.8723   -0.1626   22.0063 C   0  0  0  0  0  0  0  0  0  0  0  0
   11.0369    1.0320   24.6613 C   0  0  0  0  0  0  0  0  0  0  0  0
    9.8264   -0.4718   23.0692 C   0  0  0  0  0  0  0  0  0  0  0  0
    4.6140    3.0519   21.7831 C   0  0  0  0  0  0  0  0  0  0  0  0
    3.5151    1.7982   23.4676 C   0  0  0  0  0  0  0  0  0  0  0  0
    4.2946    0.5260   23.1422 C   0  0  2  0  0  0  0  0  0  0  0  0
    6.9590    1.5409   25.6484 C   0  0  0  0  0  0  0  0  0  0  0  0
    8.9434    1.8543   23.5096 C   0  0  0  0  0  0  0  0  0  0  0  0
   13.3976   -1.4587   21.3038 C   0  0  0  0  0  0  0  0  0  0  0  0
   12.1497    0.2209   22.6178 N   0  0  0  0  0  0  0  0  0  0  0  0
    5.9111    1.5033   24.6612 N   0  0  0  0  0  0  0  0  0  0  0  0
    9.7037    0.6731   24.0474 N   0  3  0  0  0  0  0  0  0  0  0  0
    5.7111   -0.8100   24.4755 O   0  0  0  0  0  0  0  0  0  0  0  0
   14.4625    0.0620   22.7755 O   0  0  0  0  0  0  0  0  0  0  0  0
    4.2662    2.9744   23.1636 O   0  0  0  0  0  0  0  0  0  0  0  0
   10.2558    6.5469   25.3079 Cl  0  0  0  0  0  0  0  0  0  0  0  0
   13.5231   -0.7290   19.7071 Cl  0  0  0  0  0  0  0  0  0  0  0  0
    6.8739    3.6850   27.2848 H   0  0  0  0  0  0  0  0  0  0  0  0
    8.2188    5.7391   27.1559 H   0  0  0  0  0  0  0  0  0  0  0  0
   10.2297    4.2097   23.6642 H   0  0  0  0  0  0  0  0  0  0  0  0
    6.4677    1.9855   21.9638 H   0  0  0  0  0  0  0  0  0  0  0  0
    5.7806    1.9473   20.3366 H   0  0  0  0  0  0  0  0  0  0  0  0
    4.0776    0.3738   21.0076 H   0  0  0  0  0  0  0  0  0  0  0  0
    5.6168   -0.2471   21.5967 H   0  0  0  0  0  0  0  0  0  0  0  0
   11.8059    2.2589   23.0705 H   0  0  0  0  0  0  0  0  0  0  0  0
   13.0623    1.4568   24.0137 H   0  0  0  0  0  0  0  0  0  0  0  0
   11.0625   -1.0464   21.3840 H   0  0  0  0  0  0  0  0  0  0  0  0
   10.4885    0.6158   21.3433 H   0  0  0  0  0  0  0  0  0  0  0  0
   11.3550    0.1744   25.2747 H   0  0  0  0  0  0  0  0  0  0  0  0
   10.8801    1.9009   25.3217 H   0  0  0  0  0  0  0  0  0  0  0  0
    8.8312   -0.6440   22.6266 H   0  0  0  0  0  0  0  0  0  0  0  0
   10.1156   -1.3641   23.6463 H   0  0  0  0  0  0  0  0  0  0  0  0
    5.1285    4.0044   21.6217 H   0  0  0  0  0  0  0  0  0  0  0  0
    3.7030    3.0598   21.1733 H   0  0  0  0  0  0  0  0  0  0  0  0
    2.5683    1.8318   22.9139 H   0  0  0  0  0  0  0  0  0  0  0  0
    3.2693    1.8361   24.5351 H   0  0  0  0  0  0  0  0  0  0  0  0
    3.6234   -0.3391   23.2379 H   0  0  0  0  0  0  0  0  0  0  0  0
    7.5759    0.6426   25.5113 H   0  0  0  0  0  0  0  0  0  0  0  0
    6.4848    1.4545   26.6348 H   0  0  0  0  0  0  0  0  0  0  0  0
    7.9887    1.4698   23.1350 H   0  0  0  0  0  0  0  0  0  0  0  0
    9.5115    2.2300   22.6517 H   0  0  0  0  0  0  0  0  0  0  0  0
   12.4659   -2.0060   21.3907 H   0  0  0  0  0  0  0  0  0  0  0  0
   14.2588   -2.0888   21.4940 H   0  0  0  0  0  0  0  0  0  0  0  0
    5.5430    2.3864   24.3133 H   0  0  0  0  0  0  0  0  0  0  0  0
    9.1120    0.3027   24.8461 H   0  0  0  0  0  0  0  0  0  0  0  0
  1  2  2  0  0  0  0
  1  4  1  0  0  0  0
  2  6  1  0  0  0  0
  3  5  1  0  0  0  0
  3  6  2  0  0  0  0
  4  5  2  0  0  0  0
  4 18  1  0  0  0  0
  5 19  1  0  0  0  0
  6 27  1  0  0  0  0
  7 17  1  0  0  0  0
  7 22  1  0  0  0  0
  7 24  2  0  0  0  0
  8 20  1  0  0  0  0
  8 21  1  0  0  0  0
  8 25  2  0  0  0  0
  9 10  1  0  0  0  0
  9 15  1  0  0  0  0
 10 17  1  0  0  0  0
 11 13  1  0  0  0  0
 11 21  1  0  0  0  0
 12 14  1  0  0  0  0
 12 21  1  0  0  0  0
 13 23  1  0  0  0  0
 14 23  1  0  0  0  0
 15 26  1  0  0  0  0
 16 17  1  0  0  0  0
 16 26  1  0  0  0  0
 18 22  1  0  0  0  0
 19 23  1  0  0  0  0
 20 28  1  0  0  0  0
  1 29  1  0  0  0  0
  2 30  1  0  0  0  0
  3 31  1  0  0  0  0
  9 32  1  0  0  0  0
  9 33  1  0  0  0  0
 10 34  1  0  0  0  0
 10 35  1  0  0  0  0
 11 36  1  0  0  0  0
 11 37  1  0  0  0  0
 12 38  1  0  0  0  0
 12 39  1  0  0  0  0
 13 40  1  0  0  0  0
 13 41  1  0  0  0  0
 14 42  1  0  0  0  0
 14 43  1  0  0  0  0
 15 44  1  0  0  0  0
 15 45  1  0  0  0  0
 16 46  1  0  0  0  0
 16 47  1  0  0  0  0
 17 48  1  0  0  0  0
 18 49  1  0  0  0  0
 18 50  1  0  0  0  0
 19 51  1  0  0  0  0
 19 52  1  0  0  0  0
 20 53  1  0  0  0  0
 20 54  1  0  0  0  0
 22 55  1  0  0  0  0
 23 56  1  0  0  0  0
M  CHG  1  23   1
M  END
> <creator>
Stuart Ward, Charles River Laboratories

> <fragments>
x1249

> <real_space>
FALSE

> <SCR>
FALSE

> <BB>
FALSE

> <link>
https://covid.postera.ai/covid/submissions/7b3b91d5-8a3a-40b2-b342-707c5ec320b5

> <covalent_frag>
TRUE

> <covalent_warhead>
TRUE

> <acrylamide>
FALSE

> <acrylamide_adduct>
FALSE

> <chloroacetamide>
TRUE

> <chloroacetamide_adduct>
FALSE

> <vinylsulfonamide>
FALSE

> <vinylsulfonamide_adduct>
FALSE

> <in_molport_or_mcule>
FALSE

> <in_emolecules>
FALSE

> <Hybrid2>
-3.919082

> <Mpro-x1249_dock>
-3.919082

> <Mpro-x0770_dock>
-2.608452

> <site>
active-noncovalent

> <covalent_distance_min>
5.4876575

> <covalent_distance_mean>
6.1199045

> <covalent_distance_stderr>
0.049694132

$$$$
PAU-WEI-b9b-7
  -OEChem-04062011563D

 68 71  0     1  0  0  0  0  0999 V2000
   13.9182    1.5346   21.8452 C   0  0  0  0  0  0  0  0  0  0  0  0
   12.6316    1.6908   21.3295 C   0  0  0  0  0  0  0  0  0  0  0  0
   14.3184    0.3014   22.3597 C   0  0  0  0  0  0  0  0  0  0  0  0
   11.7550    1.3086   25.5474 C   0  0  0  0  0  0  0  0  0  0  0  0
   11.2910    2.6192   25.3866 C   0  0  0  0  0  0  0  0  0  0  0  0
   11.7452    0.6138   21.3284 C   0  0  0  0  0  0  0  0  0  0  0  0
   13.4320   -0.7756   22.3587 C   0  0  0  0  0  0  0  0  0  0  0  0
   11.1335    0.2467   24.8933 C   0  0  0  0  0  0  0  0  0  0  0  0
    8.4559    3.6336   23.3144 C   0  0  0  0  0  0  0  0  0  0  0  0
   10.1816    2.8579   24.5512 C   0  0  0  0  0  0  0  0  0  0  0  0
   12.1454   -0.6194   21.8430 C   0  0  0  0  0  0  0  0  0  0  0  0
   10.0317    0.4591   24.0599 C   0  0  0  0  0  0  0  0  0  0  0  0
    9.4625    4.0242   24.1672 C   0  0  0  0  0  0  0  0  0  0  0  0
    9.5788    1.7745   23.9085 C   0  0  0  0  0  0  0  0  0  0  0  0
    5.9269   -4.3698   25.6913 C   0  0  0  0  0  0  0  0  0  0  0  0
   12.4669    6.3702   22.9469 C   0  0  0  0  0  0  0  0  0  0  0  0
    7.4101   -2.4429   26.1478 C   0  0  0  0  0  0  0  0  0  0  0  0
    6.0184   -2.3760   24.1151 C   0  0  0  0  0  0  0  0  0  0  0  0
    8.6399   -2.0474   25.3437 C   0  0  0  0  0  0  0  0  0  0  0  0
    7.2278   -1.9774   23.2801 C   0  0  0  0  0  0  0  0  0  0  0  0
   13.4920    5.8235   22.0095 C   0  0  0  0  0  0  0  0  0  0  0  0
   11.1878   -1.7839   21.8424 C   0  0  0  0  0  0  0  0  0  0  0  0
    9.7379    5.4090   24.6007 C   0  0  0  0  0  0  0  0  0  0  0  0
    4.9228   -5.0090   24.7656 C   0  0  0  0  0  0  0  0  0  0  0  0
   10.3084   -1.9211   23.0975 C   0  0  0  0  0  0  0  0  0  0  0  0
   10.0307    6.3820   23.4442 C   0  0  0  0  0  0  0  0  0  0  0  0
    9.3815   -0.7165   23.3652 C   0  0  1  0  0  0  0  0  0  0  0  0
    8.5340    2.2749   23.1646 N   0  0  0  0  0  0  0  0  0  0  0  0
    6.4293   -3.1278   25.3057 N   0  0  0  0  0  0  0  0  0  0  0  0
   11.1694    5.9728   22.6665 N   0  0  0  0  0  0  0  0  0  0  0  0
    8.2058   -1.2227   24.1526 N   0  3  0  0  0  0  0  0  0  0  0  0
    6.2553   -4.9592   26.7241 O   0  0  0  0  0  0  0  0  0  0  0  0
   12.8172    7.1016   23.8656 O   0  0  0  0  0  0  0  0  0  0  0  0
    5.8422   -5.9584   23.6034 Cl  0  0  0  0  0  0  0  0  0  0  0  0
   14.6087    2.3730   21.8447 H   0  0  0  0  0  0  0  0  0  0  0  0
   12.3202    2.6506   20.9278 H   0  0  0  0  0  0  0  0  0  0  0  0
   15.3204    0.1792   22.7603 H   0  0  0  0  0  0  0  0  0  0  0  0
   12.6100    1.1186   26.1911 H   0  0  0  0  0  0  0  0  0  0  0  0
   11.7870    3.4356   25.9037 H   0  0  0  0  0  0  0  0  0  0  0  0
   10.7447    0.7447   20.9248 H   0  0  0  0  0  0  0  0  0  0  0  0
   13.7525   -1.7326   22.7618 H   0  0  0  0  0  0  0  0  0  0  0  0
   11.5173   -0.7605   25.0397 H   0  0  0  0  0  0  0  0  0  0  0  0
    7.6908    4.1987   22.8003 H   0  0  0  0  0  0  0  0  0  0  0  0
    7.7110   -3.0770   26.9876 H   0  0  0  0  0  0  0  0  0  0  0  0
    6.9204   -1.5567   26.5694 H   0  0  0  0  0  0  0  0  0  0  0  0
    5.4794   -1.4862   24.4623 H   0  0  0  0  0  0  0  0  0  0  0  0
    5.3265   -2.9457   23.4924 H   0  0  0  0  0  0  0  0  0  0  0  0
    9.3109   -1.4249   25.9445 H   0  0  0  0  0  0  0  0  0  0  0  0
    9.1840   -2.9212   24.9680 H   0  0  0  0  0  0  0  0  0  0  0  0
    7.7477   -2.8496   22.8682 H   0  0  0  0  0  0  0  0  0  0  0  0
    6.9313   -1.3067   22.4672 H   0  0  0  0  0  0  0  0  0  0  0  0
   13.6624    6.4817   21.1424 H   0  0  0  0  0  0  0  0  0  0  0  0
   14.4788    5.7086   22.4861 H   0  0  0  0  0  0  0  0  0  0  0  0
   13.2602    4.8350   21.5819 H   0  0  0  0  0  0  0  0  0  0  0  0
   11.7877   -2.6973   21.7349 H   0  0  0  0  0  0  0  0  0  0  0  0
   10.5448   -1.7476   20.9539 H   0  0  0  0  0  0  0  0  0  0  0  0
   10.6073    5.4265   25.2872 H   0  0  0  0  0  0  0  0  0  0  0  0
    8.9009    5.8168   25.2028 H   0  0  0  0  0  0  0  0  0  0  0  0
    4.3697   -4.2292   24.2546 H   0  0  0  0  0  0  0  0  0  0  0  0
    4.2734   -5.6558   25.3443 H   0  0  0  0  0  0  0  0  0  0  0  0
    9.6776   -2.8067   22.9375 H   0  0  0  0  0  0  0  0  0  0  0  0
   10.9232   -2.1477   23.9769 H   0  0  0  0  0  0  0  0  0  0  0  0
    9.1821    6.4395   22.7552 H   0  0  0  0  0  0  0  0  0  0  0  0
   10.2332    7.3899   23.8212 H   0  0  0  0  0  0  0  0  0  0  0  0
    8.9464   -0.3913   22.4126 H   0  0  0  0  0  0  0  0  0  0  0  0
    7.9140    1.7206   22.5905 H   0  0  0  0  0  0  0  0  0  0  0  0
   11.0139    5.3590   21.8683 H   0  0  0  0  0  0  0  0  0  0  0  0
    7.7166   -0.3924   24.5147 H   0  0  0  0  0  0  0  0  0  0  0  0
  1  2  1  0  0  0  0
  1  3  2  0  0  0  0
  2  6  2  0  0  0  0
  3  7  1  0  0  0  0
  4  5  2  0  0  0  0
  4  8  1  0  0  0  0
  5 10  1  0  0  0  0
  6 11  1  0  0  0  0
  7 11  2  0  0  0  0
  8 12  2  0  0  0  0
  9 13  2  0  0  0  0
  9 28  1  0  0  0  0
 10 13  1  0  0  0  0
 10 14  2  0  0  0  0
 11 22  1  0  0  0  0
 12 14  1  0  0  0  0
 12 27  1  0  0  0  0
 13 23  1  0  0  0  0
 14 28  1  0  0  0  0
 15 24  1  0  0  0  0
 15 29  1  0  0  0  0
 15 32  2  0  0  0  0
 16 21  1  0  0  0  0
 16 30  1  0  0  0  0
 16 33  2  0  0  0  0
 17 19  1  0  0  0  0
 17 29  1  0  0  0  0
 18 20  1  0  0  0  0
 18 29  1  0  0  0  0
 19 31  1  0  0  0  0
 20 31  1  0  0  0  0
 22 25  1  0  0  0  0
 23 26  1  0  0  0  0
 24 34  1  0  0  0  0
 25 27  1  0  0  0  0
 26 30  1  0  0  0  0
 27 31  1  0  0  0  0
  1 35  1  0  0  0  0
  2 36  1  0  0  0  0
  3 37  1  0  0  0  0
  4 38  1  0  0  0  0
  5 39  1  0  0  0  0
  6 40  1  0  0  0  0
  7 41  1  0  0  0  0
  8 42  1  0  0  0  0
  9 43  1  0  0  0  0
 17 44  1  0  0  0  0
 17 45  1  0  0  0  0
 18 46  1  0  0  0  0
 18 47  1  0  0  0  0
 19 48  1  0  0  0  0
 19 49  1  0  0  0  0
 20 50  1  0  0  0  0
 20 51  1  0  0  0  0
 21 52  1  0  0  0  0
 21 53  1  0  0  0  0
 21 54  1  0  0  0  0
 22 55  1  0  0  0  0
 22 56  1  0  0  0  0
 23 57  1  0  0  0  0
 23 58  1  0  0  0  0
 24 59  1  0  0  0  0
 24 60  1  0  0  0  0
 25 61  1  0  0  0  0
 25 62  1  0  0  0  0
 26 63  1  0  0  0  0
 26 64  1  0  0  0  0
 27 65  1  0  0  0  0
 28 66  1  0  0  0  0
 30 67  1  0  0  0  0
 31 68  1  0  0  0  0
M  CHG  1  31   1
M  END
> <creator>
Paul Gehrtz, Weizmann Institute of Science

> <fragments>
x0104

> <real_space>
FALSE

> <SCR>
FALSE

> <BB>
FALSE

> <link>
https://covid.postera.ai/covid/submissions/b9b69149-728b-48ac-b50d-9dc89a43712c

> <covalent_frag>
TRUE

> <covalent_warhead>
TRUE

> <acrylamide>
FALSE

> <acrylamide_adduct>
FALSE

> <chloroacetamide>
TRUE

> <chloroacetamide_adduct>
FALSE

> <vinylsulfonamide>
FALSE

> <vinylsulfonamide_adduct>
FALSE

> <in_molport_or_mcule>
FALSE

> <in_emolecules>
FALSE

> <Hybrid2>
-3.916099

> <Mpro-x0104_dock>
-3.916099

> <Mpro-x0305_dock>
-2.751782

> <Mpro-x1385_dock>
0.690304

> <Mpro-x1380_dock>
1.865653

> <Mpro-x0770_dock>
2.216063

> <site>
active-noncovalent

> <covalent_distance_min>
7.628588

> <covalent_distance_mean>
9.23595

> <covalent_distance_stderr>
0.09126083

$$$$
MAK-UNK-af8-33
  -OEChem-04062011563D

 79 82  0     1  0  0  0  0  0999 V2000
    6.1927   -6.6082   23.1408 C   0  0  0  0  0  0  0  0  0  0  0  0
    6.3634   -4.8657   21.4759 C   0  0  0  0  0  0  0  0  0  0  0  0
    5.3471   -5.7996   23.9004 C   0  0  0  0  0  0  0  0  0  0  0  0
    5.5178   -4.0572   22.2355 C   0  0  0  0  0  0  0  0  0  0  0  0
   11.4210   -1.2123   22.8364 C   0  0  0  0  0  0  0  0  0  0  0  0
   10.8096    0.2683   24.6449 C   0  0  0  0  0  0  0  0  0  0  0  0
   12.3601    1.0109   22.9475 C   0  0  0  0  0  0  0  0  0  0  0  0
   10.7004   -0.9663   24.0051 C   0  0  0  0  0  0  0  0  0  0  0  0
    6.7009   -6.1412   21.9286 C   0  0  0  0  0  0  0  0  0  0  0  0
   12.2509   -0.2237   22.3076 C   0  0  0  0  0  0  0  0  0  0  0  0
   11.6394    1.2570   24.1161 C   0  0  0  0  0  0  0  0  0  0  0  0
    5.0097   -4.5242   23.4477 C   0  0  0  0  0  0  0  0  0  0  0  0
    8.6624   -1.0649   26.6499 C   0  0  0  0  0  0  0  0  0  0  0  0
    8.9044    7.0612   23.2179 C   0  0  0  0  0  0  0  0  0  0  0  0
    9.6595   -2.0722   26.1128 C   0  0  0  0  0  0  0  0  0  0  0  0
   11.1748    6.1875   23.6685 C   0  0  0  0  0  0  0  0  0  0  0  0
    9.5819    4.7193   22.4937 C   0  0  0  0  0  0  0  0  0  0  0  0
   11.5291    5.0656   24.6334 C   0  0  0  0  0  0  0  0  0  0  0  0
    9.9138    3.5738   23.4405 C   0  0  0  0  0  0  0  0  0  0  0  0
    8.4166   -2.0470   23.9085 C   0  0  0  0  0  0  0  0  0  0  0  0
    9.7931   -2.0472   24.5824 C   0  0  1  0  0  0  0  0  0  0  0  0
    7.3633   -0.8834   25.8998 C   0  0  2  0  0  0  0  0  0  0  0  0
    7.6044   -7.0057   21.1162 C   0  0  0  0  0  0  0  0  0  0  0  0
   13.0215   -0.4861   21.0578 C   0  0  0  0  0  0  0  0  0  0  0  0
   11.7566    2.5848   24.8047 C   0  0  0  0  0  0  0  0  0  0  0  0
    7.5327    6.8009   22.6485 C   0  0  0  0  0  0  0  0  0  0  0  0
    6.3386   -1.9344   26.2952 C   0  0  0  0  0  0  0  0  0  0  0  0
    4.9226   -1.5090   25.9084 C   0  0  0  0  0  0  0  0  0  0  0  0
    3.9003   -2.5820   26.2765 C   0  0  0  0  0  0  0  0  0  0  0  0
    4.2123   -3.9106   25.6026 C   0  0  0  0  0  0  0  0  0  0  0  0
    9.8231    6.0158   23.1360 N   0  0  0  0  0  0  0  0  0  0  0  0
    7.5943   -0.9097   24.4204 N   0  3  0  0  0  0  0  0  0  0  0  0
   11.3326    3.7370   23.9380 N   0  3  0  0  0  0  0  0  0  0  0  0
    8.8549   -0.4987   27.7273 O   0  0  0  0  0  0  0  0  0  0  0  0
    9.1492    8.1602   23.7223 O   0  0  0  0  0  0  0  0  0  0  0  0
    4.1776   -3.7302   24.1936 O   0  0  0  0  0  0  0  0  0  0  0  0
    6.5698    6.1100   23.9498 Cl  0  0  0  0  0  0  0  0  0  0  0  0
    6.4504   -7.6004   23.5012 H   0  0  0  0  0  0  0  0  0  0  0  0
    6.7548   -4.4935   20.5326 H   0  0  0  0  0  0  0  0  0  0  0  0
    4.9542   -6.1692   24.8438 H   0  0  0  0  0  0  0  0  0  0  0  0
    5.2585   -3.0649   21.8773 H   0  0  0  0  0  0  0  0  0  0  0  0
   11.3366   -2.1749   22.3373 H   0  0  0  0  0  0  0  0  0  0  0  0
   10.2476    0.4600   25.5562 H   0  0  0  0  0  0  0  0  0  0  0  0
   13.0070    1.7818   22.5355 H   0  0  0  0  0  0  0  0  0  0  0  0
   10.6341   -1.8717   26.6046 H   0  0  0  0  0  0  0  0  0  0  0  0
    9.3538   -3.0846   26.4481 H   0  0  0  0  0  0  0  0  0  0  0  0
   11.2721    7.1516   24.1774 H   0  0  0  0  0  0  0  0  0  0  0  0
   11.8654    6.1992   22.8164 H   0  0  0  0  0  0  0  0  0  0  0  0
   10.2156    4.6765   21.5996 H   0  0  0  0  0  0  0  0  0  0  0  0
    8.5486    4.6172   22.1578 H   0  0  0  0  0  0  0  0  0  0  0  0
   12.5816    5.1271   24.9283 H   0  0  0  0  0  0  0  0  0  0  0  0
   10.8940    5.0755   25.5264 H   0  0  0  0  0  0  0  0  0  0  0  0
    9.2509    3.5573   24.3129 H   0  0  0  0  0  0  0  0  0  0  0  0
    9.8599    2.6133   22.9179 H   0  0  0  0  0  0  0  0  0  0  0  0
    8.4797   -1.9384   22.8144 H   0  0  0  0  0  0  0  0  0  0  0  0
    7.8544   -2.9666   24.1295 H   0  0  0  0  0  0  0  0  0  0  0  0
   10.2866   -3.0406   24.2747 H   0  0  0  0  0  0  0  0  0  0  0  0
    6.9679    0.1268   26.1445 H   0  0  0  0  0  0  0  0  0  0  0  0
    7.0212   -7.6167   20.4164 H   0  0  0  0  0  0  0  0  0  0  0  0
    8.3197   -6.4044   20.5401 H   0  0  0  0  0  0  0  0  0  0  0  0
    8.1949   -7.6760   21.7545 H   0  0  0  0  0  0  0  0  0  0  0  0
   12.4342   -0.1937   20.1787 H   0  0  0  0  0  0  0  0  0  0  0  0
   13.9658    0.0733   21.0472 H   0  0  0  0  0  0  0  0  0  0  0  0
   13.2808   -1.5488   20.9655 H   0  0  0  0  0  0  0  0  0  0  0  0
   11.1321    2.6210   25.7038 H   0  0  0  0  0  0  0  0  0  0  0  0
   12.7903    2.7831   25.1081 H   0  0  0  0  0  0  0  0  0  0  0  0
    7.6194    6.0920   21.8329 H   0  0  0  0  0  0  0  0  0  0  0  0
    7.1019    7.7417   22.3256 H   0  0  0  0  0  0  0  0  0  0  0  0
    6.3951   -2.1024   27.3770 H   0  0  0  0  0  0  0  0  0  0  0  0
    6.5894   -2.8825   25.8056 H   0  0  0  0  0  0  0  0  0  0  0  0
    4.6690   -0.5702   26.4158 H   0  0  0  0  0  0  0  0  0  0  0  0
    4.8791   -1.3149   24.8296 H   0  0  0  0  0  0  0  0  0  0  0  0
    2.8913   -2.2589   25.9915 H   0  0  0  0  0  0  0  0  0  0  0  0
    3.8733   -2.7239   27.3640 H   0  0  0  0  0  0  0  0  0  0  0  0
    3.4726   -4.6702   25.8746 H   0  0  0  0  0  0  0  0  0  0  0  0
    5.2086   -4.2665   25.8836 H   0  0  0  0  0  0  0  0  0  0  0  0
    8.0434   -0.0203   24.1309 H   0  0  0  0  0  0  0  0  0  0  0  0
    6.6805   -0.9113   23.9279 H   0  0  0  0  0  0  0  0  0  0  0  0
   11.9499    3.7263   23.1142 H   0  0  0  0  0  0  0  0  0  0  0  0
  1  3  2  0  0  0  0
  1  9  1  0  0  0  0
  2  4  1  0  0  0  0
  2  9  2  0  0  0  0
  3 12  1  0  0  0  0
  4 12  2  0  0  0  0
  5  8  1  0  0  0  0
  5 10  2  0  0  0  0
  6  8  2  0  0  0  0
  6 11  1  0  0  0  0
  7 10  1  0  0  0  0
  7 11  2  0  0  0  0
  8 21  1  0  0  0  0
  9 23  1  0  0  0  0
 10 24  1  0  0  0  0
 11 25  1  0  0  0  0
 12 36  1  0  0  0  0
 13 15  1  0  0  0  0
 13 22  1  0  0  0  0
 13 34  2  0  0  0  0
 14 26  1  0  0  0  0
 14 31  1  0  0  0  0
 14 35  2  0  0  0  0
 15 21  1  0  0  0  0
 16 18  1  0  0  0  0
 16 31  1  0  0  0  0
 17 19  1  0  0  0  0
 17 31  1  0  0  0  0
 18 33  1  0  0  0  0
 19 33  1  0  0  0  0
 20 21  1  0  0  0  0
 20 32  1  0  0  0  0
 22 27  1  0  0  0  0
 22 32  1  0  0  0  0
 25 33  1  0  0  0  0
 26 37  1  0  0  0  0
 27 28  1  0  0  0  0
 28 29  1  0  0  0  0
 29 30  1  0  0  0  0
 30 36  1  0  0  0  0
  1 38  1  0  0  0  0
  2 39  1  0  0  0  0
  3 40  1  0  0  0  0
  4 41  1  0  0  0  0
  5 42  1  0  0  0  0
  6 43  1  0  0  0  0
  7 44  1  0  0  0  0
 15 45  1  0  0  0  0
 15 46  1  0  0  0  0
 16 47  1  0  0  0  0
 16 48  1  0  0  0  0
 17 49  1  0  0  0  0
 17 50  1  0  0  0  0
 18 51  1  0  0  0  0
 18 52  1  0  0  0  0
 19 53  1  0  0  0  0
 19 54  1  0  0  0  0
 20 55  1  0  0  0  0
 20 56  1  0  0  0  0
 21 57  1  0  0  0  0
 22 58  1  0  0  0  0
 23 59  1  0  0  0  0
 23 60  1  0  0  0  0
 23 61  1  0  0  0  0
 24 62  1  0  0  0  0
 24 63  1  0  0  0  0
 24 64  1  0  0  0  0
 25 65  1  0  0  0  0
 25 66  1  0  0  0  0
 26 67  1  0  0  0  0
 26 68  1  0  0  0  0
 27 69  1  0  0  0  0
 27 70  1  0  0  0  0
 28 71  1  0  0  0  0
 28 72  1  0  0  0  0
 29 73  1  0  0  0  0
 29 74  1  0  0  0  0
 30 75  1  0  0  0  0
 30 76  1  0  0  0  0
 32 77  1  0  0  0  0
 32 78  1  0  0  0  0
 33 79  1  0  0  0  0
M  CHG  2  32   1  33   1
M  END
> <creator>
Maksym Voznyy

> <fragments>
x0104

> <real_space>
FALSE

> <SCR>
FALSE

> <BB>
FALSE

> <link>
https://covid.postera.ai/covid/submissions/af83ef51-35cf-489e-b3bd-9012d86d8275

> <covalent_frag>
TRUE

> <covalent_warhead>
TRUE

> <acrylamide>
FALSE

> <acrylamide_adduct>
FALSE

> <chloroacetamide>
TRUE

> <chloroacetamide_adduct>
FALSE

> <vinylsulfonamide>
FALSE

> <vinylsulfonamide_adduct>
FALSE

> <in_molport_or_mcule>
FALSE

> <in_emolecules>
FALSE

> <Hybrid2>
-3.899983

> <Mpro-x0104_dock>
-3.899983

> <Mpro-x0072_dock>
-3.048597

> <Mpro-x0305_dock>
-2.147302

> <Mpro-x0161_dock>
0.228237

> <Mpro-x0692_dock>
2.613713

> <site>
active-noncovalent

> <covalent_distance_min>
12.217014

> <covalent_distance_mean>
13.243754

> <covalent_distance_stderr>
0.092682436

$$$$
MAK-UNK-af8-16
  -OEChem-04062011563D

 73 75  0     1  0  0  0  0  0999 V2000
    9.6321   -0.4616   22.6764 C   0  0  0  0  0  0  0  0  0  0  0  0
    9.8197    0.9094   22.5008 C   0  0  0  0  0  0  0  0  0  0  0  0
   10.3413   -0.2640   24.9775 C   0  0  0  0  0  0  0  0  0  0  0  0
    9.8928   -1.0483   23.9147 C   0  0  0  0  0  0  0  0  0  0  0  0
   10.2681    1.6937   23.5635 C   0  0  0  0  0  0  0  0  0  0  0  0
   10.5290    1.1070   24.8019 C   0  0  0  0  0  0  0  0  0  0  0  0
    5.0487   -4.5527   26.3432 C   0  0  0  0  0  0  0  0  0  0  0  0
   11.8649    3.4918   22.8495 C   0  0  0  0  0  0  0  0  0  0  0  0
    6.0671   -2.5450   25.3168 C   0  0  0  0  0  0  0  0  0  0  0  0
    6.5833   -4.7406   24.3238 C   0  0  0  0  0  0  0  0  0  0  0  0
    7.5446   -2.1814   25.3319 C   0  0  0  0  0  0  0  0  0  0  0  0
    8.0695   -4.4090   24.3222 C   0  0  0  0  0  0  0  0  0  0  0  0
    7.1472    6.3088   23.3963 C   0  0  0  0  0  0  0  0  0  0  0  0
    7.1129    3.9038   22.1225 C   0  0  2  0  0  0  0  0  0  0  0  0
    8.4774    5.5551   23.4230 C   0  0  2  0  0  0  0  0  0  0  0  0
    8.3157    4.0771   23.0439 C   0  0  2  0  0  0  0  0  0  0  0  0
    5.8250    4.4190   22.7808 C   0  0  1  0  0  0  0  0  0  0  0  0
   11.0102    1.9266   25.9540 C   0  0  0  0  0  0  0  0  0  0  0  0
    5.8034    2.1666   20.8954 C   0  0  0  0  0  0  0  0  0  0  0  0
    9.6914   -2.5230   24.1031 C   0  0  0  0  0  0  0  0  0  0  0  0
    5.4025   -5.9382   26.8216 C   0  0  0  0  0  0  0  0  0  0  0  0
   10.4627    3.1592   23.3514 C   0  0  1  0  0  0  0  0  0  0  0  0
    5.8819   -3.9951   25.3744 N   0  0  0  0  0  0  0  0  0  0  0  0
   14.2611    5.9570   23.4882 N   0  0  0  0  0  0  0  0  0  0  0  0
   12.0510    4.8860   22.5692 N   0  0  0  0  0  0  0  0  0  0  0  0
    8.2432   -2.9111   24.2064 N   0  3  0  0  0  0  0  0  0  0  0  0
    6.9427    2.4570   21.8027 N   0  3  0  0  0  0  0  0  0  0  0  0
    4.0629   -3.9839   26.8191 O   0  0  0  0  0  0  0  0  0  0  0  0
   12.7437    2.6486   22.7048 O   0  0  0  0  0  0  0  0  0  0  0  0
   14.2936    4.5784   21.3122 O   0  0  0  0  0  0  0  0  0  0  0  0
   13.1717    6.8346   21.3337 O   0  0  0  0  0  0  0  0  0  0  0  0
    6.0812    5.4340   23.7608 O   0  0  0  0  0  0  0  0  0  0  0  0
    9.0211    5.5983   24.7447 O   0  0  0  0  0  0  0  0  0  0  0  0
    4.9478    4.8896   21.7606 O   0  0  0  0  0  0  0  0  0  0  0  0
    9.5094    3.6312   22.4035 O   0  0  0  0  0  0  0  0  0  0  0  0
   13.5036    5.5858   21.9931 S   0  0  0  0  0  0  0  0  0  0  0  0
    7.0330   -5.8436   27.4776 Cl  0  0  0  0  0  0  0  0  0  0  0  0
    9.2828   -1.0650   21.8426 H   0  0  0  0  0  0  0  0  0  0  0  0
    9.6143    1.3569   21.5318 H   0  0  0  0  0  0  0  0  0  0  0  0
   10.5437   -0.7221   25.9428 H   0  0  0  0  0  0  0  0  0  0  0  0
    5.5617   -2.0555   26.1552 H   0  0  0  0  0  0  0  0  0  0  0  0
    5.5888   -2.1883   24.3965 H   0  0  0  0  0  0  0  0  0  0  0  0
    6.1252   -4.4627   23.3669 H   0  0  0  0  0  0  0  0  0  0  0  0
    6.4580   -5.8188   24.4366 H   0  0  0  0  0  0  0  0  0  0  0  0
    7.6805   -1.1088   25.1594 H   0  0  0  0  0  0  0  0  0  0  0  0
    8.0292   -2.4689   26.2717 H   0  0  0  0  0  0  0  0  0  0  0  0
    8.5637   -4.7350   25.2442 H   0  0  0  0  0  0  0  0  0  0  0  0
    8.5650   -4.8625   23.4576 H   0  0  0  0  0  0  0  0  0  0  0  0
    7.1637    7.1781   24.0591 H   0  0  0  0  0  0  0  0  0  0  0  0
    6.9533    6.6834   22.3893 H   0  0  0  0  0  0  0  0  0  0  0  0
    7.2808    4.3971   21.1608 H   0  0  0  0  0  0  0  0  0  0  0  0
    9.2033    6.0280   22.7536 H   0  0  0  0  0  0  0  0  0  0  0  0
    8.1986    3.4788   23.9660 H   0  0  0  0  0  0  0  0  0  0  0  0
    5.2951    3.5691   23.2934 H   0  0  0  0  0  0  0  0  0  0  0  0
   12.1056    1.9653   25.9613 H   0  0  0  0  0  0  0  0  0  0  0  0
   10.6244    2.9521   25.8993 H   0  0  0  0  0  0  0  0  0  0  0  0
   10.6686    1.5075   26.9085 H   0  0  0  0  0  0  0  0  0  0  0  0
    4.8960    2.5496   21.3658 H   0  0  0  0  0  0  0  0  0  0  0  0
    5.9958    2.6696   19.9458 H   0  0  0  0  0  0  0  0  0  0  0  0
    5.7497    1.0844   20.7624 H   0  0  0  0  0  0  0  0  0  0  0  0
   10.1100   -3.0901   23.2647 H   0  0  0  0  0  0  0  0  0  0  0  0
   10.1774   -2.8747   25.0196 H   0  0  0  0  0  0  0  0  0  0  0  0
    5.3798   -6.6180   25.9775 H   0  0  0  0  0  0  0  0  0  0  0  0
    4.7051   -6.2305   27.5982 H   0  0  0  0  0  0  0  0  0  0  0  0
   10.2929    3.7299   24.2790 H   0  0  0  0  0  0  0  0  0  0  0  0
   14.3902    6.9592   23.6832 H   0  0  0  0  0  0  0  0  0  0  0  0
   15.1260    5.4370   23.6888 H   0  0  0  0  0  0  0  0  0  0  0  0
   11.2511    5.5131   22.7262 H   0  0  0  0  0  0  0  0  0  0  0  0
    7.7980   -2.6176   23.3259 H   0  0  0  0  0  0  0  0  0  0  0  0
    7.8116    2.1052   21.3813 H   0  0  0  0  0  0  0  0  0  0  0  0
    6.8214    1.9348   22.6795 H   0  0  0  0  0  0  0  0  0  0  0  0
    8.3712    5.1738   25.3269 H   0  0  0  0  0  0  0  0  0  0  0  0
    4.1481    5.2064   22.2084 H   0  0  0  0  0  0  0  0  0  0  0  0
  1  2  2  0  0  0  0
  1  4  1  0  0  0  0
  2  5  1  0  0  0  0
  3  4  2  0  0  0  0
  3  6  1  0  0  0  0
  4 20  1  0  0  0  0
  5  6  2  0  0  0  0
  5 22  1  0  0  0  0
  6 18  1  0  0  0  0
  7 21  1  0  0  0  0
  7 23  1  0  0  0  0
  7 28  2  0  0  0  0
  8 22  1  0  0  0  0
  8 25  1  0  0  0  0
  8 29  2  0  0  0  0
  9 11  1  0  0  0  0
  9 23  1  0  0  0  0
 10 12  1  0  0  0  0
 10 23  1  0  0  0  0
 11 26  1  0  0  0  0
 12 26  1  0  0  0  0
 13 15  1  0  0  0  0
 13 32  1  0  0  0  0
 14 16  1  0  0  0  0
 14 17  1  0  0  0  0
 14 27  1  0  0  0  0
 15 16  1  0  0  0  0
 15 33  1  0  0  0  0
 16 35  1  0  0  0  0
 17 32  1  0  0  0  0
 17 34  1  0  0  0  0
 19 27  1  0  0  0  0
 20 26  1  0  0  0  0
 21 37  1  0  0  0  0
 22 35  1  0  0  0  0
 24 36  1  0  0  0  0
 25 36  1  0  0  0  0
 30 36  2  0  0  0  0
 31 36  2  0  0  0  0
  1 38  1  0  0  0  0
  2 39  1  0  0  0  0
  3 40  1  0  0  0  0
  9 41  1  0  0  0  0
  9 42  1  0  0  0  0
 10 43  1  0  0  0  0
 10 44  1  0  0  0  0
 11 45  1  0  0  0  0
 11 46  1  0  0  0  0
 12 47  1  0  0  0  0
 12 48  1  0  0  0  0
 13 49  1  0  0  0  0
 13 50  1  0  0  0  0
 14 51  1  0  0  0  0
 15 52  1  0  0  0  0
 16 53  1  0  0  0  0
 17 54  1  0  0  0  0
 18 55  1  0  0  0  0
 18 56  1  0  0  0  0
 18 57  1  0  0  0  0
 19 58  1  0  0  0  0
 19 59  1  0  0  0  0
 19 60  1  0  0  0  0
 20 61  1  0  0  0  0
 20 62  1  0  0  0  0
 21 63  1  0  0  0  0
 21 64  1  0  0  0  0
 22 65  1  0  0  0  0
 24 66  1  0  0  0  0
 24 67  1  0  0  0  0
 25 68  1  0  0  0  0
 26 69  1  0  0  0  0
 27 70  1  0  0  0  0
 27 71  1  0  0  0  0
 33 72  1  0  0  0  0
 34 73  1  0  0  0  0
M  CHG  2  26   1  27   1
M  END
> <creator>
Maksym Voznyy

> <fragments>
x0104

> <real_space>
FALSE

> <SCR>
FALSE

> <BB>
FALSE

> <link>
https://covid.postera.ai/covid/submissions/af83ef51-35cf-489e-b3bd-9012d86d8275

> <covalent_frag>
TRUE

> <covalent_warhead>
TRUE

> <acrylamide>
FALSE

> <acrylamide_adduct>
FALSE

> <chloroacetamide>
TRUE

> <chloroacetamide_adduct>
FALSE

> <vinylsulfonamide>
FALSE

> <vinylsulfonamide_adduct>
FALSE

> <in_molport_or_mcule>
FALSE

> <in_emolecules>
FALSE

> <Hybrid2>
-3.885993

> <Mpro-x0104_dock>
-3.885993

> <Mpro-x0161_dock>
-3.009888

> <Mpro-x0072_dock>
-2.378362

> <Mpro-x0692_dock>
-0.944414

> <Mpro-x0387_dock>
2.338969

> <Mpro-x0305_dock>
4.528189

> <site>
active-noncovalent

> <covalent_distance_min>
9.400931

> <covalent_distance_mean>
10.738531

> <covalent_distance_stderr>
0.060336925

$$$$
BEN-VAN-d2b-9
  -OEChem-04062011563D

 51 53  0     1  0  0  0  0  0999 V2000
   12.8881    0.7950   23.5043 C   0  0  0  0  0  0  0  0  0  0  0  0
    9.9652    3.1099   23.6442 C   0  0  0  0  0  0  0  0  0  0  0  0
   12.6627    3.2065   23.2445 C   0  0  0  0  0  0  0  0  0  0  0  0
    6.8147   -0.9802   24.1519 C   0  0  0  0  0  0  0  0  0  0  0  0
    7.8199    1.1766   24.7743 C   0  0  0  0  0  0  0  0  0  0  0  0
   12.0778    1.9724   23.4782 C   0  0  0  0  0  0  0  0  0  0  0  0
    8.1442   -0.9080   23.7987 C   0  0  0  0  0  0  0  0  0  0  0  0
   10.7028    1.9318   23.6808 C   0  0  0  0  0  0  0  0  0  0  0  0
    8.7266    0.3414   24.1594 C   0  0  0  0  0  0  0  0  0  0  0  0
   10.6447    4.2931   23.4033 C   0  0  0  0  0  0  0  0  0  0  0  0
    4.6668    1.2260   19.6897 C   0  0  0  0  0  0  0  0  0  0  0  0
    5.5069    0.3247   20.2076 C   0  0  0  0  0  0  0  0  0  0  0  0
    6.9629    0.6177   20.2981 C   0  0  0  0  0  0  0  0  0  0  0  0
    9.0459   -0.4489   21.0751 C   0  0  0  0  0  0  0  0  0  0  0  0
   11.1991   -2.8207   22.9911 C   0  0  0  0  0  0  0  0  0  0  0  0
   10.0477   -2.5937   23.9617 C   0  0  0  0  0  0  0  0  0  0  0  0
   11.0170   -1.7260   21.9550 C   0  0  0  0  0  0  0  0  0  0  0  0
    8.8856   -2.0350   23.1079 C   0  0  2  0  0  0  0  0  0  0  0  0
    9.5092   -1.7152   21.7265 C   0  0  1  0  0  0  0  0  0  0  0  0
   10.7552    6.8853   21.6172 C   0  0  0  0  0  0  0  0  0  0  0  0
   10.6861    6.6530   23.1115 C   0  0  0  0  0  0  0  0  0  0  0  0
   13.5459   -0.1608   23.5254 N   0  0  0  0  0  0  0  0  0  0  0  0
   11.9792    4.3721   23.2017 N   0  0  0  0  0  0  0  0  0  0  0  0
   10.0171    0.6822   23.9313 N   0  0  0  0  0  0  0  0  0  0  0  0
    7.6680   -0.4414   20.8645 N   0  0  0  0  0  0  0  0  0  0  0  0
    7.4467    1.6764   19.9110 O   0  0  0  0  0  0  0  0  0  0  0  0
    9.8238    0.4599   20.7973 O   0  0  0  0  0  0  0  0  0  0  0  0
    9.9403    5.4676   23.3621 O   0  0  0  0  0  0  0  0  0  0  0  0
    6.2737    0.4542   24.9150 S   0  0  0  0  0  0  0  0  0  0  0  0
    8.8907    3.1063   23.7988 H   0  0  0  0  0  0  0  0  0  0  0  0
   13.7315    3.3074   23.0790 H   0  0  0  0  0  0  0  0  0  0  0  0
    6.1313   -1.8042   24.0007 H   0  0  0  0  0  0  0  0  0  0  0  0
    7.9847    2.1771   25.1501 H   0  0  0  0  0  0  0  0  0  0  0  0
    3.6001    1.0503   19.6065 H   0  0  0  0  0  0  0  0  0  0  0  0
    5.0456    2.1778   19.3321 H   0  0  0  0  0  0  0  0  0  0  0  0
    5.1329   -0.6282   20.5653 H   0  0  0  0  0  0  0  0  0  0  0  0
   12.1638   -2.7679   23.4883 H   0  0  0  0  0  0  0  0  0  0  0  0
   11.1031   -3.7992   22.5221 H   0  0  0  0  0  0  0  0  0  0  0  0
    9.7614   -3.5225   24.4825 H   0  0  0  0  0  0  0  0  0  0  0  0
   10.3430   -1.8739   24.7455 H   0  0  0  0  0  0  0  0  0  0  0  0
   11.3974   -0.7766   22.3125 H   0  0  0  0  0  0  0  0  0  0  0  0
   11.5408   -1.9921   21.0428 H   0  0  0  0  0  0  0  0  0  0  0  0
    8.1370   -2.8549   22.9770 H   0  0  0  0  0  0  0  0  0  0  0  0
    9.2347   -2.5435   21.0020 H   0  0  0  0  0  0  0  0  0  0  0  0
   11.2496    6.0492   21.1147 H   0  0  0  0  0  0  0  0  0  0  0  0
    9.7507    7.0054   21.1983 H   0  0  0  0  0  0  0  0  0  0  0  0
   11.3050    7.8059   21.3949 H   0  0  0  0  0  0  0  0  0  0  0  0
   10.1906    7.4927   23.6078 H   0  0  0  0  0  0  0  0  0  0  0  0
   11.6905    6.5323   23.5282 H   0  0  0  0  0  0  0  0  0  0  0  0
   10.7075   -0.0950   23.9261 H   0  0  0  0  0  0  0  0  0  0  0  0
    7.1415   -1.2660   21.1436 H   0  0  0  0  0  0  0  0  0  0  0  0
  1  6  1  0  0  0  0
  1 22  3  0  0  0  0
  2  8  1  0  0  0  0
  2 10  2  0  0  0  0
  3  6  1  0  0  0  0
  3 23  2  0  0  0  0
  4  7  2  0  0  0  0
  4 29  1  0  0  0  0
  5  9  2  0  0  0  0
  5 29  1  0  0  0  0
  6  8  2  0  0  0  0
  7  9  1  0  0  0  0
  7 18  1  0  0  0  0
  8 24  1  0  0  0  0
  9 24  1  0  0  0  0
 10 23  1  0  0  0  0
 10 28  1  0  0  0  0
 11 12  2  0  0  0  0
 12 13  1  0  0  0  0
 13 25  1  0  0  0  0
 13 26  2  0  0  0  0
 14 19  1  0  0  0  0
 14 25  1  0  0  0  0
 14 27  2  0  0  0  0
 15 16  1  0  0  0  0
 15 17  1  0  0  0  0
 16 18  1  0  0  0  0
 17 19  1  0  0  0  0
 18 19  1  0  0  0  0
 20 21  1  0  0  0  0
 21 28  1  0  0  0  0
  2 30  1  0  0  0  0
  3 31  1  0  0  0  0
  4 32  1  0  0  0  0
  5 33  1  0  0  0  0
 11 34  1  0  0  0  0
 11 35  1  0  0  0  0
 12 36  1  0  0  0  0
 15 37  1  0  0  0  0
 15 38  1  0  0  0  0
 16 39  1  0  0  0  0
 16 40  1  0  0  0  0
 17 41  1  0  0  0  0
 17 42  1  0  0  0  0
 18 43  1  0  0  0  0
 19 44  1  0  0  0  0
 20 45  1  0  0  0  0
 20 46  1  0  0  0  0
 20 47  1  0  0  0  0
 21 48  1  0  0  0  0
 21 49  1  0  0  0  0
 24 50  1  0  0  0  0
 25 51  1  0  0  0  0
M  END
> <creator>
Benjamin P. Brown, Vanderbilt University, Laboratory of Jens Meiler

> <fragments>
x0874

> <real_space>
FALSE

> <SCR>
FALSE

> <BB>
FALSE

> <link>
https://covid.postera.ai/covid/submissions/d2b455e2-4c45-4364-9fc0-1efc54e3e367

> <covalent_frag>
FALSE

> <covalent_warhead>
TRUE

> <acrylamide>
TRUE

> <acrylamide_adduct>
FALSE

> <chloroacetamide>
FALSE

> <chloroacetamide_adduct>
FALSE

> <vinylsulfonamide>
FALSE

> <vinylsulfonamide_adduct>
FALSE

> <in_molport_or_mcule>
FALSE

> <in_emolecules>
FALSE

> <Hybrid2>
-3.885869

> <Mpro-x0874_dock>
-3.885869

> <Mpro-x0305_dock>
-1.535432

> <site>
active-noncovalent

> <covalent_distance_min>
5.12001

> <covalent_distance_mean>
5.8085265

> <covalent_distance_stderr>
0.07031627

$$$$
MAK-UNK-e4a-22
  -OEChem-04062011563D

 45 47  0     0  0  0  0  0  0999 V2000
   13.0031    0.2306   23.9487 C   0  0  0  0  0  0  0  0  0  0  0  0
   10.8133   -2.5123   25.5280 C   0  0  0  0  0  0  0  0  0  0  0  0
   13.9848   -0.1569   23.0634 C   0  0  0  0  0  0  0  0  0  0  0  0
   11.8690   -1.3502   22.6770 C   0  0  0  0  0  0  0  0  0  0  0  0
   11.7774   -0.4607   23.7250 C   0  0  0  0  0  0  0  0  0  0  0  0
    9.9762   -1.4765   25.1667 C   0  0  0  0  0  0  0  0  0  0  0  0
    8.6348   -1.6762   25.4219 C   0  0  0  0  0  0  0  0  0  0  0  0
    9.0551   -3.7332   26.2930 C   0  0  0  0  0  0  0  0  0  0  0  0
    4.7826   -5.7890   22.9282 C   0  0  0  0  0  0  0  0  0  0  0  0
    7.0264   -6.6070   23.8023 C   0  0  0  0  0  0  0  0  0  0  0  0
    5.2066   -6.0149   25.3552 C   0  0  0  0  0  0  0  0  0  0  0  0
    8.0094   -5.7689   24.6083 C   0  0  0  0  0  0  0  0  0  0  0  0
    6.1614   -5.1672   26.1831 C   0  0  0  0  0  0  0  0  0  0  0  0
   10.5197   -0.2407   24.5454 C   0  0  0  0  0  0  0  0  0  0  0  0
    8.5403   -4.9943   26.9220 C   0  0  0  0  0  0  0  0  0  0  0  0
    5.3044   -5.9725   21.5254 C   0  0  0  0  0  0  0  0  0  0  0  0
   10.3851   -3.6591   26.0954 N   0  0  0  0  0  0  0  0  0  0  0  0
    8.1377   -2.7965   25.9858 N   0  0  0  0  0  0  0  0  0  0  0  0
    5.6564   -6.1091   23.9663 N   0  0  0  0  0  0  0  0  0  0  0  0
    7.7262   -0.6469   25.0723 N   0  0  0  0  0  0  0  0  0  0  0  0
    7.5595   -5.7286   26.0516 N   0  3  0  0  0  0  0  0  0  0  0  0
    3.6337   -5.3715   23.0943 O   0  0  0  0  0  0  0  0  0  0  0  0
   13.4278   -1.3496   21.9681 S   0  0  0  0  0  0  0  0  0  0  0  0
    6.0204   -4.4367   21.0495 Cl  0  0  0  0  0  0  0  0  0  0  0  0
   13.1609    0.9754   24.7185 H   0  0  0  0  0  0  0  0  0  0  0  0
   11.8856   -2.4546   25.3696 H   0  0  0  0  0  0  0  0  0  0  0  0
   15.0021    0.2037   23.0070 H   0  0  0  0  0  0  0  0  0  0  0  0
   11.0975   -2.0013   22.2898 H   0  0  0  0  0  0  0  0  0  0  0  0
    7.3171   -6.5995   22.7484 H   0  0  0  0  0  0  0  0  0  0  0  0
    7.0384   -7.6500   24.1377 H   0  0  0  0  0  0  0  0  0  0  0  0
    5.1564   -7.0373   25.7523 H   0  0  0  0  0  0  0  0  0  0  0  0
    4.2003   -5.5961   25.4314 H   0  0  0  0  0  0  0  0  0  0  0  0
    9.0072   -6.2198   24.5897 H   0  0  0  0  0  0  0  0  0  0  0  0
    8.0645   -4.7366   24.2435 H   0  0  0  0  0  0  0  0  0  0  0  0
    6.1840   -4.1253   25.8454 H   0  0  0  0  0  0  0  0  0  0  0  0
    5.8928   -5.2066   27.2433 H   0  0  0  0  0  0  0  0  0  0  0  0
   10.7302    0.5253   25.3151 H   0  0  0  0  0  0  0  0  0  0  0  0
    9.7594    0.2423   23.9034 H   0  0  0  0  0  0  0  0  0  0  0  0
    9.3568   -5.6928   27.1343 H   0  0  0  0  0  0  0  0  0  0  0  0
    8.0269   -4.7842   27.8665 H   0  0  0  0  0  0  0  0  0  0  0  0
    4.4751   -6.2152   20.8709 H   0  0  0  0  0  0  0  0  0  0  0  0
    6.0598   -6.7499   21.5304 H   0  0  0  0  0  0  0  0  0  0  0  0
    8.0842    0.2050   24.6984 H   0  0  0  0  0  0  0  0  0  0  0  0
    6.7612   -0.7607   25.2950 H   0  0  0  0  0  0  0  0  0  0  0  0
    7.5341   -6.6991   26.3936 H   0  0  0  0  0  0  0  0  0  0  0  0
  1  3  2  0  0  0  0
  1  5  1  0  0  0  0
  2  6  1  0  0  0  0
  2 17  2  0  0  0  0
  3 23  1  0  0  0  0
  4  5  2  0  0  0  0
  4 23  1  0  0  0  0
  5 14  1  0  0  0  0
  6  7  2  0  0  0  0
  6 14  1  0  0  0  0
  7 18  1  0  0  0  0
  7 20  1  0  0  0  0
  8 15  1  0  0  0  0
  8 17  1  0  0  0  0
  8 18  2  0  0  0  0
  9 16  1  0  0  0  0
  9 19  1  0  0  0  0
  9 22  2  0  0  0  0
 10 12  1  0  0  0  0
 10 19  1  0  0  0  0
 11 13  1  0  0  0  0
 11 19  1  0  0  0  0
 12 21  1  0  0  0  0
 13 21  1  0  0  0  0
 15 21  1  0  0  0  0
 16 24  1  0  0  0  0
  1 25  1  0  0  0  0
  2 26  1  0  0  0  0
  3 27  1  0  0  0  0
  4 28  1  0  0  0  0
 10 29  1  0  0  0  0
 10 30  1  0  0  0  0
 11 31  1  0  0  0  0
 11 32  1  0  0  0  0
 12 33  1  0  0  0  0
 12 34  1  0  0  0  0
 13 35  1  0  0  0  0
 13 36  1  0  0  0  0
 14 37  1  0  0  0  0
 14 38  1  0  0  0  0
 15 39  1  0  0  0  0
 15 40  1  0  0  0  0
 16 41  1  0  0  0  0
 16 42  1  0  0  0  0
 20 43  1  0  0  0  0
 20 44  1  0  0  0  0
 21 45  1  0  0  0  0
M  CHG  1  21   1
M  END
> <creator>
Maksym Voznyy

> <fragments>
x0387

> <real_space>
FALSE

> <SCR>
FALSE

> <BB>
FALSE

> <link>
https://covid.postera.ai/covid/submissions/e4a48a85-91ce-4c28-86d4-edf9997dafca

> <covalent_frag>
TRUE

> <covalent_warhead>
TRUE

> <acrylamide>
FALSE

> <acrylamide_adduct>
FALSE

> <chloroacetamide>
TRUE

> <chloroacetamide_adduct>
FALSE

> <vinylsulfonamide>
FALSE

> <vinylsulfonamide_adduct>
FALSE

> <in_molport_or_mcule>
FALSE

> <in_emolecules>
FALSE

> <Hybrid2>
-3.868979

> <Mpro-x0387_dock>
-3.868979

> <Mpro-x0692_dock>
-3.838659

> <site>
active-noncovalent

> <covalent_distance_min>
4.7651706

> <covalent_distance_mean>
5.1908007

> <covalent_distance_stderr>
0.049938902

$$$$
DAN-LON-a5f-7
  -OEChem-04062011563D

 51 52  0     1  0  0  0  0  0999 V2000
   12.4204    0.7181   23.9037 C   0  0  0  0  0  0  0  0  0  0  0  0
   11.3718   -0.1715   24.1376 C   0  0  0  0  0  0  0  0  0  0  0  0
   13.4310    0.3835   23.0023 C   0  0  0  0  0  0  0  0  0  0  0  0
   12.3443   -1.7303   22.5687 C   0  0  0  0  0  0  0  0  0  0  0  0
   11.3338   -1.3957   23.4701 C   0  0  0  0  0  0  0  0  0  0  0  0
   13.3929   -0.8407   22.3348 C   0  0  0  0  0  0  0  0  0  0  0  0
    7.5573   -0.6698   21.5947 C   0  0  0  0  0  0  0  0  0  0  0  0
    6.0332   -4.2456   21.4595 C   0  0  0  0  0  0  0  0  0  0  0  0
    7.3799   -3.7855   23.5619 C   0  0  0  0  0  0  0  0  0  0  0  0
    8.2062   -3.0727   21.3407 C   0  0  0  0  0  0  0  0  0  0  0  0
    7.7264   -2.4257   24.1489 C   0  0  0  0  0  0  0  0  0  0  0  0
    8.6017   -1.7036   21.8884 C   0  0  2  0  0  0  0  0  0  0  0  0
    5.2831   -0.5391   18.6077 C   0  0  0  0  0  0  0  0  0  0  0  0
    4.6956    0.0293   20.9784 C   0  0  0  0  0  0  0  0  0  0  0  0
    6.3900    1.4018   19.7400 C   0  0  0  0  0  0  0  0  0  0  0  0
   10.2062   -2.3525   23.7231 C   0  0  0  0  0  0  0  0  0  0  0  0
    5.0227   -4.9691   22.3136 C   0  0  0  0  0  0  0  0  0  0  0  0
    5.8225   -0.0081   19.9408 C   0  0  0  0  0  0  0  0  0  0  0  0
    7.1365   -3.7008   22.1192 N   0  0  0  0  0  0  0  0  0  0  0  0
    6.8716   -0.8825   20.4139 N   0  0  0  0  0  0  0  0  0  0  0  0
    8.8549   -1.7766   23.3824 N   0  3  2  0  0  0  0  0  0  0  0  0
    7.3832    0.2537   22.3812 O   0  0  0  0  0  0  0  0  0  0  0  0
    5.8442   -4.1647   20.2429 O   0  0  0  0  0  0  0  0  0  0  0  0
   14.6406   -1.2534   21.2236 Cl  0  0  0  0  0  0  0  0  0  0  0  0
    3.8603   -3.7615   22.8505 Cl  0  0  0  0  0  0  0  0  0  0  0  0
   12.4498    1.6712   24.4238 H   0  0  0  0  0  0  0  0  0  0  0  0
   10.5888    0.0975   24.8417 H   0  0  0  0  0  0  0  0  0  0  0  0
   14.2423    1.0865   22.8301 H   0  0  0  0  0  0  0  0  0  0  0  0
   12.3099   -2.6858   22.0504 H   0  0  0  0  0  0  0  0  0  0  0  0
    8.1802   -4.4913   23.7994 H   0  0  0  0  0  0  0  0  0  0  0  0
    6.4640   -4.1807   24.0220 H   0  0  0  0  0  0  0  0  0  0  0  0
    7.8462   -2.9966   20.3029 H   0  0  0  0  0  0  0  0  0  0  0  0
    9.0888   -3.7268   21.3063 H   0  0  0  0  0  0  0  0  0  0  0  0
    6.8591   -1.7519   24.0880 H   0  0  0  0  0  0  0  0  0  0  0  0
    8.0399   -2.5069   25.2014 H   0  0  0  0  0  0  0  0  0  0  0  0
    9.5623   -1.3568   21.4320 H   0  0  0  0  0  0  0  0  0  0  0  0
    6.0719   -0.5754   17.8473 H   0  0  0  0  0  0  0  0  0  0  0  0
    4.8745   -1.5498   18.7169 H   0  0  0  0  0  0  0  0  0  0  0  0
    4.4874    0.1066   18.2182 H   0  0  0  0  0  0  0  0  0  0  0  0
    5.0578    0.4064   21.9419 H   0  0  0  0  0  0  0  0  0  0  0  0
    4.2880   -0.9728   21.1555 H   0  0  0  0  0  0  0  0  0  0  0  0
    3.8732    0.6750   20.6512 H   0  0  0  0  0  0  0  0  0  0  0  0
    6.7836    1.8068   20.6796 H   0  0  0  0  0  0  0  0  0  0  0  0
    7.2025    1.4039   19.0050 H   0  0  0  0  0  0  0  0  0  0  0  0
    5.6161    2.0939   19.3881 H   0  0  0  0  0  0  0  0  0  0  0  0
   10.3191   -3.2641   23.1264 H   0  0  0  0  0  0  0  0  0  0  0  0
   10.1661   -2.6467   24.7774 H   0  0  0  0  0  0  0  0  0  0  0  0
    5.5305   -5.4025   23.1676 H   0  0  0  0  0  0  0  0  0  0  0  0
    4.5269   -5.7209   21.7104 H   0  0  0  0  0  0  0  0  0  0  0  0
    7.1165   -1.6919   19.8517 H   0  0  0  0  0  0  0  0  0  0  0  0
    8.8919   -0.7720   23.7145 H   0  0  0  0  0  0  0  0  0  0  0  0
  1  2  2  0  0  0  0
  1  3  1  0  0  0  0
  2  5  1  0  0  0  0
  3  6  2  0  0  0  0
  4  5  2  0  0  0  0
  4  6  1  0  0  0  0
  5 16  1  0  0  0  0
  6 24  1  0  0  0  0
  7 12  1  0  0  0  0
  7 20  1  0  0  0  0
  7 22  2  0  0  0  0
  8 17  1  0  0  0  0
  8 19  1  0  0  0  0
  8 23  2  0  0  0  0
  9 11  1  0  0  0  0
  9 19  1  0  0  0  0
 10 12  1  0  0  0  0
 10 19  1  0  0  0  0
 11 21  1  0  0  0  0
 12 21  1  0  0  0  0
 13 18  1  0  0  0  0
 14 18  1  0  0  0  0
 15 18  1  0  0  0  0
 16 21  1  0  0  0  0
 17 25  1  0  0  0  0
 18 20  1  0  0  0  0
  1 26  1  0  0  0  0
  2 27  1  0  0  0  0
  3 28  1  0  0  0  0
  4 29  1  0  0  0  0
  9 30  1  0  0  0  0
  9 31  1  0  0  0  0
 10 32  1  0  0  0  0
 10 33  1  0  0  0  0
 11 34  1  0  0  0  0
 11 35  1  0  0  0  0
 12 36  1  0  0  0  0
 13 37  1  0  0  0  0
 13 38  1  0  0  0  0
 13 39  1  0  0  0  0
 14 40  1  0  0  0  0
 14 41  1  0  0  0  0
 14 42  1  0  0  0  0
 15 43  1  0  0  0  0
 15 44  1  0  0  0  0
 15 45  1  0  0  0  0
 16 46  1  0  0  0  0
 16 47  1  0  0  0  0
 17 48  1  0  0  0  0
 17 49  1  0  0  0  0
 20 50  1  0  0  0  0
 21 51  1  0  0  0  0
M  CHG  1  21   1
M  END
> <creator>
Daniel Zaidman, London Lab, Weizmann Institute of Science

> <fragments>
x0770

> <real_space>
FALSE

> <SCR>
FALSE

> <BB>
FALSE

> <link>
https://covid.postera.ai/covid/submissions/a5fc619e-a7a0-43cf-a105-697cf3dc31cf

> <covalent_frag>
TRUE

> <covalent_warhead>
TRUE

> <acrylamide>
FALSE

> <acrylamide_adduct>
FALSE

> <chloroacetamide>
TRUE

> <chloroacetamide_adduct>
FALSE

> <vinylsulfonamide>
FALSE

> <vinylsulfonamide_adduct>
FALSE

> <in_molport_or_mcule>
FALSE

> <in_emolecules>
FALSE

> <Hybrid2>
-3.848757

> <Mpro-x0770_dock>
-3.848757

> <site>
active-covalent

> <covalent_distance_min>
2.9728398

> <covalent_distance_mean>
3.3539324

> <covalent_distance_stderr>
0.008941372

$$$$
MAK-UNK-e4a-25
  -OEChem-04062011563D

 53 55  0     0  0  0  0  0  0999 V2000
   11.8322   -1.2805   24.7911 C   0  0  0  0  0  0  0  0  0  0  0  0
   11.7459   -0.1519   24.0060 C   0  0  0  0  0  0  0  0  0  0  0  0
   10.9722   -2.1633   22.8205 C   0  0  0  0  0  0  0  0  0  0  0  0
   11.3841   -2.4458   24.1045 C   0  0  0  0  0  0  0  0  0  0  0  0
    8.6480   -3.9650   25.8999 C   0  0  0  0  0  0  0  0  0  0  0  0
    7.7479   -3.4966   25.0074 C   0  0  0  0  0  0  0  0  0  0  0  0
    8.5816   -5.4176   26.2572 C   0  0  0  0  0  0  0  0  0  0  0  0
    6.7406   -5.5229   24.7052 C   0  0  0  0  0  0  0  0  0  0  0  0
    6.3456    0.0409   19.6579 C   0  0  0  0  0  0  0  0  0  0  0  0
    6.7550   -2.0625   20.8945 C   0  0  0  0  0  0  0  0  0  0  0  0
    5.4927   -0.2779   22.0325 C   0  0  0  0  0  0  0  0  0  0  0  0
    7.6563   -2.2280   22.1093 C   0  0  0  0  0  0  0  0  0  0  0  0
    6.3745   -0.4179   23.2660 C   0  0  0  0  0  0  0  0  0  0  0  0
    5.7155   -6.4237   24.0798 C   0  0  0  0  0  0  0  0  0  0  0  0
   11.3631   -3.8256   24.7140 C   0  0  0  0  0  0  0  0  0  0  0  0
    9.7418   -3.1811   26.5631 C   0  0  0  0  0  0  0  0  0  0  0  0
    7.6878   -2.0696   24.6011 C   0  0  0  0  0  0  0  0  0  0  0  0
    5.7569    1.4290   19.6719 C   0  0  0  0  0  0  0  0  0  0  0  0
   11.1061   -3.7669   26.2248 C   0  0  0  0  0  0  0  0  0  0  0  0
    6.7816   -4.2675   24.3940 N   0  0  0  0  0  0  0  0  0  0  0  0
    7.5925   -6.1196   25.6021 N   0  0  0  0  0  0  0  0  0  0  0  0
    6.2083   -0.7073   20.8262 N   0  0  0  0  0  0  0  0  0  0  0  0
    6.8861   -1.8386   23.3512 N   0  3  0  0  0  0  0  0  0  0  0  0
    9.3507   -5.9226   27.0702 O   0  0  0  0  0  0  0  0  0  0  0  0
    6.9123   -0.3634   18.6393 O   0  0  0  0  0  0  0  0  0  0  0  0
   11.1267   -0.4992   22.4477 S   0  0  0  0  0  0  0  0  0  0  0  0
    4.1072    1.2826   19.0760 Cl  0  0  0  0  0  0  0  0  0  0  0  0
   12.1995   -1.2662   25.8095 H   0  0  0  0  0  0  0  0  0  0  0  0
   12.0162    0.8599   24.2730 H   0  0  0  0  0  0  0  0  0  0  0  0
   10.5863   -2.8512   22.0810 H   0  0  0  0  0  0  0  0  0  0  0  0
    7.3181   -2.3002   19.9865 H   0  0  0  0  0  0  0  0  0  0  0  0
    5.9077   -2.7573   20.9422 H   0  0  0  0  0  0  0  0  0  0  0  0
    4.6002   -0.9088   22.1230 H   0  0  0  0  0  0  0  0  0  0  0  0
    5.1474    0.7545   21.9555 H   0  0  0  0  0  0  0  0  0  0  0  0
    7.9583   -3.2737   22.2270 H   0  0  0  0  0  0  0  0  0  0  0  0
    8.5459   -1.5907   22.0510 H   0  0  0  0  0  0  0  0  0  0  0  0
    7.2419    0.2506   23.2284 H   0  0  0  0  0  0  0  0  0  0  0  0
    5.7982   -0.2238   24.1764 H   0  0  0  0  0  0  0  0  0  0  0  0
    6.1195   -6.8514   23.1655 H   0  0  0  0  0  0  0  0  0  0  0  0
    4.8205   -5.8499   23.8507 H   0  0  0  0  0  0  0  0  0  0  0  0
    5.4615   -7.2204   24.7751 H   0  0  0  0  0  0  0  0  0  0  0  0
   12.3182   -4.3307   24.5197 H   0  0  0  0  0  0  0  0  0  0  0  0
   10.5920   -4.4312   24.2215 H   0  0  0  0  0  0  0  0  0  0  0  0
    9.6742   -2.1570   26.1882 H   0  0  0  0  0  0  0  0  0  0  0  0
    9.5622   -3.1753   27.6399 H   0  0  0  0  0  0  0  0  0  0  0  0
    8.6915   -1.6857   24.3982 H   0  0  0  0  0  0  0  0  0  0  0  0
    7.2234   -1.4664   25.3859 H   0  0  0  0  0  0  0  0  0  0  0  0
    6.3364    2.0633   19.0108 H   0  0  0  0  0  0  0  0  0  0  0  0
    5.7533    1.7989   20.6907 H   0  0  0  0  0  0  0  0  0  0  0  0
   11.8978   -3.1858   26.7150 H   0  0  0  0  0  0  0  0  0  0  0  0
   11.1564   -4.7813   26.6405 H   0  0  0  0  0  0  0  0  0  0  0  0
    7.4902   -7.1129   25.7893 H   0  0  0  0  0  0  0  0  0  0  0  0
    6.0655   -2.4572   23.4113 H   0  0  0  0  0  0  0  0  0  0  0  0
  1  2  2  0  0  0  0
  1  4  1  0  0  0  0
  2 26  1  0  0  0  0
  3  4  2  0  0  0  0
  3 26  1  0  0  0  0
  4 15  1  0  0  0  0
  5  6  2  0  0  0  0
  5  7  1  0  0  0  0
  5 16  1  0  0  0  0
  6 17  1  0  0  0  0
  6 20  1  0  0  0  0
  7 21  1  0  0  0  0
  7 24  2  0  0  0  0
  8 14  1  0  0  0  0
  8 20  2  0  0  0  0
  8 21  1  0  0  0  0
  9 18  1  0  0  0  0
  9 22  1  0  0  0  0
  9 25  2  0  0  0  0
 10 12  1  0  0  0  0
 10 22  1  0  0  0  0
 11 13  1  0  0  0  0
 11 22  1  0  0  0  0
 12 23  1  0  0  0  0
 13 23  1  0  0  0  0
 15 19  1  0  0  0  0
 16 19  1  0  0  0  0
 17 23  1  0  0  0  0
 18 27  1  0  0  0  0
  1 28  1  0  0  0  0
  2 29  1  0  0  0  0
  3 30  1  0  0  0  0
 10 31  1  0  0  0  0
 10 32  1  0  0  0  0
 11 33  1  0  0  0  0
 11 34  1  0  0  0  0
 12 35  1  0  0  0  0
 12 36  1  0  0  0  0
 13 37  1  0  0  0  0
 13 38  1  0  0  0  0
 14 39  1  0  0  0  0
 14 40  1  0  0  0  0
 14 41  1  0  0  0  0
 15 42  1  0  0  0  0
 15 43  1  0  0  0  0
 16 44  1  0  0  0  0
 16 45  1  0  0  0  0
 17 46  1  0  0  0  0
 17 47  1  0  0  0  0
 18 48  1  0  0  0  0
 18 49  1  0  0  0  0
 19 50  1  0  0  0  0
 19 51  1  0  0  0  0
 21 52  1  0  0  0  0
 23 53  1  0  0  0  0
M  CHG  1  23   1
M  END
> <creator>
Maksym Voznyy

> <fragments>
x0387

> <real_space>
FALSE

> <SCR>
FALSE

> <BB>
FALSE

> <link>
https://covid.postera.ai/covid/submissions/e4a48a85-91ce-4c28-86d4-edf9997dafca

> <covalent_frag>
TRUE

> <covalent_warhead>
TRUE

> <acrylamide>
FALSE

> <acrylamide_adduct>
FALSE

> <chloroacetamide>
TRUE

> <chloroacetamide_adduct>
FALSE

> <vinylsulfonamide>
FALSE

> <vinylsulfonamide_adduct>
FALSE

> <in_molport_or_mcule>
FALSE

> <in_emolecules>
FALSE

> <Hybrid2>
-3.830079

> <Mpro-x0387_dock>
-3.830079

> <Mpro-x0692_dock>
-3.643239

> <site>
active-noncovalent

> <covalent_distance_min>
5.139781

> <covalent_distance_mean>
6.4172583

> <covalent_distance_stderr>
0.0851001

$$$$
PAU-WEI-f73-2
  -OEChem-04062011563D

 63 66  0     1  0  0  0  0  0999 V2000
    8.8786    3.7998   25.9286 C   0  0  0  0  0  0  0  0  0  0  0  0
    9.2927    1.6558   27.0290 C   0  0  0  0  0  0  0  0  0  0  0  0
    9.5829    0.2933   26.9602 C   0  0  0  0  0  0  0  0  0  0  0  0
   12.1043   -1.2590   22.4537 C   0  0  0  0  0  0  0  0  0  0  0  0
   13.4011   -0.8333   22.0447 C   0  0  0  0  0  0  0  0  0  0  0  0
    9.3499    1.7898   24.6174 C   0  0  0  0  0  0  0  0  0  0  0  0
    9.1762    2.4041   25.8575 C   0  0  0  0  0  0  0  0  0  0  0  0
    9.7566   -0.3211   25.7201 C   0  0  0  0  0  0  0  0  0  0  0  0
    9.6401    0.4271   24.5486 C   0  0  0  0  0  0  0  0  0  0  0  0
   11.2724   -0.1953   22.7259 C   0  0  0  0  0  0  0  0  0  0  0  0
   13.5109    0.5397   22.0197 C   0  0  0  0  0  0  0  0  0  0  0  0
    6.1974   -2.3832   20.3256 C   0  0  0  0  0  0  0  0  0  0  0  0
    8.9544   -3.4117   24.1666 C   0  0  0  0  0  0  0  0  0  0  0  0
    6.9340   -1.2410   22.3917 C   0  0  0  0  0  0  0  0  0  0  0  0
    8.6209   -1.6839   20.6446 C   0  0  0  0  0  0  0  0  0  0  0  0
    7.7055   -5.0117   22.7504 C   0  0  0  0  0  0  0  0  0  0  0  0
    6.4770   -3.9178   24.5871 C   0  0  0  0  0  0  0  0  0  0  0  0
    7.4210    0.1945   22.5248 C   0  0  0  0  0  0  0  0  0  0  0  0
    9.1332   -0.2541   20.7559 C   0  0  0  0  0  0  0  0  0  0  0  0
    6.9856   -6.3031   23.1056 C   0  0  0  0  0  0  0  0  0  0  0  0
    5.7944   -5.2574   24.8418 C   0  0  0  0  0  0  0  0  0  0  0  0
   10.0664   -1.7813   25.6717 C   0  0  0  0  0  0  0  0  0  0  0  0
    6.2913   -2.2796   18.8242 C   0  0  0  0  0  0  0  0  0  0  0  0
    9.8244   -0.2205   23.1860 C   0  0  2  0  0  0  0  0  0  0  0  0
    8.6369    4.9334   25.9864 N   0  0  0  0  0  0  0  0  0  0  0  0
    7.2165   -1.7758   21.0592 N   0  0  0  0  0  0  0  0  0  0  0  0
    7.7634   -4.1086   23.9021 N   0  0  0  0  0  0  0  0  0  0  0  0
    8.9228   -2.5710   25.2731 N   0  0  0  0  0  0  0  0  0  0  0  0
    8.8781    0.2990   22.1386 N   0  3  0  0  0  0  0  0  0  0  0  0
    5.2450   -2.9839   20.8296 O   0  0  0  0  0  0  0  0  0  0  0  0
    9.9658   -3.5259   23.4663 O   0  0  0  0  0  0  0  0  0  0  0  0
    5.6903   -6.0108   23.6331 O   0  0  0  0  0  0  0  0  0  0  0  0
   12.0547    1.3093   22.4882 S   0  0  0  0  0  0  0  0  0  0  0  0
    7.2395   -3.6599   18.2823 Cl  0  0  0  0  0  0  0  0  0  0  0  0
   15.0837    1.4834   21.5265 Br  0  0  0  0  0  0  0  0  0  0  0  0
    9.1597    2.1207   28.0030 H   0  0  0  0  0  0  0  0  0  0  0  0
    9.6721   -0.2815   27.8785 H   0  0  0  0  0  0  0  0  0  0  0  0
   11.8011   -2.2945   22.5426 H   0  0  0  0  0  0  0  0  0  0  0  0
   14.2064   -1.5088   21.7839 H   0  0  0  0  0  0  0  0  0  0  0  0
    9.2599    2.3689   23.7002 H   0  0  0  0  0  0  0  0  0  0  0  0
    7.4026   -1.8591   23.1651 H   0  0  0  0  0  0  0  0  0  0  0  0
    5.8488   -1.2987   22.5460 H   0  0  0  0  0  0  0  0  0  0  0  0
    8.6764   -2.0336   19.6058 H   0  0  0  0  0  0  0  0  0  0  0  0
    9.2634   -2.3405   21.2353 H   0  0  0  0  0  0  0  0  0  0  0  0
    8.7057   -5.2277   22.3634 H   0  0  0  0  0  0  0  0  0  0  0  0
    7.1521   -4.4760   21.9697 H   0  0  0  0  0  0  0  0  0  0  0  0
    5.8631   -3.2986   23.9230 H   0  0  0  0  0  0  0  0  0  0  0  0
    6.5892   -3.3977   25.5394 H   0  0  0  0  0  0  0  0  0  0  0  0
    6.8565    0.8579   21.8510 H   0  0  0  0  0  0  0  0  0  0  0  0
    7.3191    0.5684   23.5571 H   0  0  0  0  0  0  0  0  0  0  0  0
   10.2170   -0.1912   20.5633 H   0  0  0  0  0  0  0  0  0  0  0  0
    8.6088    0.3998   20.0414 H   0  0  0  0  0  0  0  0  0  0  0  0
    6.8477   -6.9120   22.2065 H   0  0  0  0  0  0  0  0  0  0  0  0
    7.5560   -6.8995   23.8274 H   0  0  0  0  0  0  0  0  0  0  0  0
    6.3332   -5.8435   25.5959 H   0  0  0  0  0  0  0  0  0  0  0  0
    4.7796   -5.0905   25.2169 H   0  0  0  0  0  0  0  0  0  0  0  0
   10.8768   -1.9888   24.9601 H   0  0  0  0  0  0  0  0  0  0  0  0
   10.3981   -2.1533   26.6500 H   0  0  0  0  0  0  0  0  0  0  0  0
    6.7973   -1.3562   18.5665 H   0  0  0  0  0  0  0  0  0  0  0  0
    5.2925   -2.3266   18.4056 H   0  0  0  0  0  0  0  0  0  0  0  0
    9.5056   -1.2675   23.2797 H   0  0  0  0  0  0  0  0  0  0  0  0
    8.0732   -2.5071   25.8200 H   0  0  0  0  0  0  0  0  0  0  0  0
    9.0819    1.3379   22.0715 H   0  0  0  0  0  0  0  0  0  0  0  0
  1  7  1  0  0  0  0
  1 25  3  0  0  0  0
  2  3  2  0  0  0  0
  2  7  1  0  0  0  0
  3  8  1  0  0  0  0
  4  5  1  0  0  0  0
  4 10  2  0  0  0  0
  5 11  2  0  0  0  0
  6  7  2  0  0  0  0
  6  9  1  0  0  0  0
  8  9  2  0  0  0  0
  8 22  1  0  0  0  0
  9 24  1  0  0  0  0
 10 24  1  0  0  0  0
 10 33  1  0  0  0  0
 11 33  1  0  0  0  0
 11 35  1  0  0  0  0
 12 23  1  0  0  0  0
 12 26  1  0  0  0  0
 12 30  2  0  0  0  0
 13 27  1  0  0  0  0
 13 28  1  0  0  0  0
 13 31  2  0  0  0  0
 14 18  1  0  0  0  0
 14 26  1  0  0  0  0
 15 19  1  0  0  0  0
 15 26  1  0  0  0  0
 16 20  1  0  0  0  0
 16 27  1  0  0  0  0
 17 21  1  0  0  0  0
 17 27  1  0  0  0  0
 18 29  1  0  0  0  0
 19 29  1  0  0  0  0
 20 32  1  0  0  0  0
 21 32  1  0  0  0  0
 22 28  1  0  0  0  0
 23 34  1  0  0  0  0
 24 29  1  0  0  0  0
  2 36  1  0  0  0  0
  3 37  1  0  0  0  0
  4 38  1  0  0  0  0
  5 39  1  0  0  0  0
  6 40  1  0  0  0  0
 14 41  1  0  0  0  0
 14 42  1  0  0  0  0
 15 43  1  0  0  0  0
 15 44  1  0  0  0  0
 16 45  1  0  0  0  0
 16 46  1  0  0  0  0
 17 47  1  0  0  0  0
 17 48  1  0  0  0  0
 18 49  1  0  0  0  0
 18 50  1  0  0  0  0
 19 51  1  0  0  0  0
 19 52  1  0  0  0  0
 20 53  1  0  0  0  0
 20 54  1  0  0  0  0
 21 55  1  0  0  0  0
 21 56  1  0  0  0  0
 22 57  1  0  0  0  0
 22 58  1  0  0  0  0
 23 59  1  0  0  0  0
 23 60  1  0  0  0  0
 24 61  1  0  0  0  0
 28 62  1  0  0  0  0
 29 63  1  0  0  0  0
M  CHG  1  29   1
M  END
> <creator>
Paul Gehrtz, Weizmann Institute

> <fragments>
x0830

> <real_space>
FALSE

> <SCR>
FALSE

> <BB>
FALSE

> <link>
https://covid.postera.ai/covid/submissions/f734c343-ab19-4bdf-8469-060177d375ae

> <covalent_frag>
TRUE

> <covalent_warhead>
TRUE

> <acrylamide>
FALSE

> <acrylamide_adduct>
FALSE

> <chloroacetamide>
TRUE

> <chloroacetamide_adduct>
FALSE

> <vinylsulfonamide>
FALSE

> <vinylsulfonamide_adduct>
FALSE

> <in_molport_or_mcule>
FALSE

> <in_emolecules>
FALSE

> <Hybrid2>
-3.817135

> <Mpro-x0830_dock>
-3.817135

> <Mpro-x0104_dock>
-3.333698

> <Mpro-x0305_dock>
-1.588217

> <Mpro-x1249_dock>
-1.162382

> <Mpro-x1385_dock>
0.17835

> <site>
active-covalent

> <covalent_distance_min>
3.1254802

> <covalent_distance_mean>
3.579068

> <covalent_distance_stderr>
0.012662606

$$$$
DR -UNK-640-3
  -OEChem-04062011563D

 53 56  0     1  0  0  0  0  0999 V2000
    3.2762    2.7336   20.2879 C   0  0  0  0  0  0  0  0  0  0  0  0
    3.2787    1.8151   21.3538 C   0  0  0  0  0  0  0  0  0  0  0  0
    4.0514    2.5083   19.1496 C   0  0  0  0  0  0  0  0  0  0  0  0
    4.0585    0.6550   21.3015 C   0  0  0  0  0  0  0  0  0  0  0  0
    8.0330   -0.1133   20.6474 C   0  0  0  0  0  0  0  0  0  0  0  0
    9.0904   -0.2633   21.5446 C   0  0  0  0  0  0  0  0  0  0  0  0
    6.7679   -1.7762   21.8603 C   0  0  0  0  0  0  0  0  0  0  0  0
    4.8131    1.3565   19.1232 C   0  0  0  0  0  0  0  0  0  0  0  0
    6.8717   -0.8697   20.8053 C   0  0  0  0  0  0  0  0  0  0  0  0
    4.8325    0.4378   20.1755 C   0  0  0  0  0  0  0  0  0  0  0  0
    8.9866   -1.1698   22.5996 C   0  0  0  0  0  0  0  0  0  0  0  0
    7.8253   -1.9263   22.7575 C   0  0  0  0  0  0  0  0  0  0  0  0
    5.7052    0.8686   18.0670 C   0  0  0  0  0  0  0  0  0  0  0  0
   15.2810   -1.0055   25.4122 C   0  0  0  0  0  0  0  0  0  0  0  0
   15.1866    0.0358   24.5833 C   0  0  0  0  0  0  0  0  0  0  0  0
   10.5561   -0.1807   24.2788 C   0  0  0  0  0  0  0  0  0  0  0  0
   11.0110   -2.4055   23.3389 C   0  0  0  0  0  0  0  0  0  0  0  0
   11.8204    0.3774   23.6291 C   0  0  0  0  0  0  0  0  0  0  0  0
   12.2864   -1.8726   22.6818 C   0  0  0  0  0  0  0  0  0  0  0  0
    5.7413   -0.7087   19.8459 C   0  0  1  0  0  0  0  0  0  0  0  0
    6.2331   -0.3316   18.5262 N   0  0  0  0  0  0  0  0  0  0  0  0
   10.0544   -1.3020   23.4803 N   0  0  0  0  0  0  0  0  0  0  0  0
   12.8230   -0.7241   23.4780 N   0  0  0  0  0  0  0  0  0  0  0  0
    6.0885   -3.6791   23.7656 N   0  0  0  0  0  0  0  0  0  0  0  0
    5.9092    1.4393   17.0119 O   0  0  0  0  0  0  0  0  0  0  0  0
    8.6225   -4.1425   23.8649 O   0  0  0  0  0  0  0  0  0  0  0  0
    7.6412   -2.3372   25.3230 O   0  0  0  0  0  0  0  0  0  0  0  0
   14.2967    1.0632   22.3868 O   0  0  0  0  0  0  0  0  0  0  0  0
   15.0650   -1.3310   22.3952 O   0  0  0  0  0  0  0  0  0  0  0  0
    7.6564   -3.0743   24.0690 S   0  0  0  0  0  0  0  0  0  0  0  0
   14.4061   -0.2199   23.0586 S   0  0  0  0  0  0  0  0  0  0  0  0
    2.6609    3.6271   20.3521 H   0  0  0  0  0  0  0  0  0  0  0  0
    2.6640    2.0106   22.2284 H   0  0  0  0  0  0  0  0  0  0  0  0
    4.0477    3.2116   18.3252 H   0  0  0  0  0  0  0  0  0  0  0  0
    4.0515   -0.0493   22.1263 H   0  0  0  0  0  0  0  0  0  0  0  0
    8.1229    0.5952   19.8282 H   0  0  0  0  0  0  0  0  0  0  0  0
    9.9905    0.3314   21.4110 H   0  0  0  0  0  0  0  0  0  0  0  0
    5.8609   -2.3641   21.9806 H   0  0  0  0  0  0  0  0  0  0  0  0
   15.7623   -0.8905   26.3775 H   0  0  0  0  0  0  0  0  0  0  0  0
   14.8891   -1.9849   25.1592 H   0  0  0  0  0  0  0  0  0  0  0  0
   15.5787    1.0123   24.8381 H   0  0  0  0  0  0  0  0  0  0  0  0
   10.7784   -0.5195   25.2949 H   0  0  0  0  0  0  0  0  0  0  0  0
    9.8082    0.6143   24.3370 H   0  0  0  0  0  0  0  0  0  0  0  0
   10.5958   -3.1974   22.7158 H   0  0  0  0  0  0  0  0  0  0  0  0
   11.2464   -2.8183   24.3209 H   0  0  0  0  0  0  0  0  0  0  0  0
   11.5972    0.8138   22.6508 H   0  0  0  0  0  0  0  0  0  0  0  0
   12.2357    1.1581   24.2724 H   0  0  0  0  0  0  0  0  0  0  0  0
   13.0321   -2.6737   22.6536 H   0  0  0  0  0  0  0  0  0  0  0  0
   12.0868   -1.5504   21.6537 H   0  0  0  0  0  0  0  0  0  0  0  0
    5.1847   -1.6443   19.7477 H   0  0  0  0  0  0  0  0  0  0  0  0
    6.8753   -0.9002   17.9827 H   0  0  0  0  0  0  0  0  0  0  0  0
    6.0036   -4.6398   23.4118 H   0  0  0  0  0  0  0  0  0  0  0  0
    5.3345   -3.4047   24.4070 H   0  0  0  0  0  0  0  0  0  0  0  0
  1  2  1  0  0  0  0
  1  3  2  0  0  0  0
  2  4  2  0  0  0  0
  3  8  1  0  0  0  0
  4 10  1  0  0  0  0
  5  6  2  0  0  0  0
  5  9  1  0  0  0  0
  6 11  1  0  0  0  0
  7  9  2  0  0  0  0
  7 12  1  0  0  0  0
  8 10  2  0  0  0  0
  8 13  1  0  0  0  0
  9 20  1  0  0  0  0
 10 20  1  0  0  0  0
 11 12  2  0  0  0  0
 11 22  1  0  0  0  0
 12 30  1  0  0  0  0
 13 21  1  0  0  0  0
 13 25  2  0  0  0  0
 14 15  2  0  0  0  0
 15 31  1  0  0  0  0
 16 18  1  0  0  0  0
 16 22  1  0  0  0  0
 17 19  1  0  0  0  0
 17 22  1  0  0  0  0
 18 23  1  0  0  0  0
 19 23  1  0  0  0  0
 20 21  1  0  0  0  0
 23 31  1  0  0  0  0
 24 30  1  0  0  0  0
 26 30  2  0  0  0  0
 27 30  2  0  0  0  0
 28 31  2  0  0  0  0
 29 31  2  0  0  0  0
  1 32  1  0  0  0  0
  2 33  1  0  0  0  0
  3 34  1  0  0  0  0
  4 35  1  0  0  0  0
  5 36  1  0  0  0  0
  6 37  1  0  0  0  0
  7 38  1  0  0  0  0
 14 39  1  0  0  0  0
 14 40  1  0  0  0  0
 15 41  1  0  0  0  0
 16 42  1  0  0  0  0
 16 43  1  0  0  0  0
 17 44  1  0  0  0  0
 17 45  1  0  0  0  0
 18 46  1  0  0  0  0
 18 47  1  0  0  0  0
 19 48  1  0  0  0  0
 19 49  1  0  0  0  0
 20 50  1  0  0  0  0
 21 51  1  0  0  0  0
 24 52  1  0  0  0  0
 24 53  1  0  0  0  0
M  END
> <creator>
Dr Vamsi  Krishna Gurram

> <fragments>
x1093

> <real_space>
FALSE

> <SCR>
FALSE

> <BB>
FALSE

> <link>
https://covid.postera.ai/covid/submissions/64047f27-b27c-468c-87a8-63d24bd5bb43

> <covalent_frag>
FALSE

> <covalent_warhead>
TRUE

> <acrylamide>
FALSE

> <acrylamide_adduct>
FALSE

> <chloroacetamide>
FALSE

> <chloroacetamide_adduct>
FALSE

> <vinylsulfonamide>
TRUE

> <vinylsulfonamide_adduct>
FALSE

> <in_molport_or_mcule>
FALSE

> <in_emolecules>
FALSE

> <Hybrid2>
-3.816393

> <Mpro-x1093_dock>
-3.816393

> <Mpro-x1086_dock>
-2.416167

> <site>
active-noncovalent

> <covalent_distance_min>
7.56609

> <covalent_distance_mean>
8.741426

> <covalent_distance_stderr>
0.05049407

$$$$
DR -UNK-dd7-3
  -OEChem-04062011563D

 53 56  0     1  0  0  0  0  0999 V2000
    3.2762    2.7336   20.2879 C   0  0  0  0  0  0  0  0  0  0  0  0
    3.2787    1.8151   21.3538 C   0  0  0  0  0  0  0  0  0  0  0  0
    4.0514    2.5083   19.1496 C   0  0  0  0  0  0  0  0  0  0  0  0
    4.0585    0.6550   21.3015 C   0  0  0  0  0  0  0  0  0  0  0  0
    8.0330   -0.1133   20.6474 C   0  0  0  0  0  0  0  0  0  0  0  0
    9.0904   -0.2633   21.5446 C   0  0  0  0  0  0  0  0  0  0  0  0
    6.7679   -1.7762   21.8603 C   0  0  0  0  0  0  0  0  0  0  0  0
    4.8131    1.3565   19.1232 C   0  0  0  0  0  0  0  0  0  0  0  0
    6.8717   -0.8697   20.8053 C   0  0  0  0  0  0  0  0  0  0  0  0
    4.8325    0.4378   20.1755 C   0  0  0  0  0  0  0  0  0  0  0  0
    8.9866   -1.1698   22.5996 C   0  0  0  0  0  0  0  0  0  0  0  0
    7.8253   -1.9263   22.7575 C   0  0  0  0  0  0  0  0  0  0  0  0
    5.7052    0.8686   18.0670 C   0  0  0  0  0  0  0  0  0  0  0  0
   15.2810   -1.0055   25.4122 C   0  0  0  0  0  0  0  0  0  0  0  0
   15.1866    0.0358   24.5833 C   0  0  0  0  0  0  0  0  0  0  0  0
   10.5561   -0.1807   24.2788 C   0  0  0  0  0  0  0  0  0  0  0  0
   11.0110   -2.4055   23.3389 C   0  0  0  0  0  0  0  0  0  0  0  0
   11.8204    0.3774   23.6291 C   0  0  0  0  0  0  0  0  0  0  0  0
   12.2864   -1.8726   22.6818 C   0  0  0  0  0  0  0  0  0  0  0  0
    5.7413   -0.7087   19.8459 C   0  0  1  0  0  0  0  0  0  0  0  0
    6.2331   -0.3316   18.5262 N   0  0  0  0  0  0  0  0  0  0  0  0
   10.0544   -1.3020   23.4803 N   0  0  0  0  0  0  0  0  0  0  0  0
   12.8230   -0.7241   23.4780 N   0  0  0  0  0  0  0  0  0  0  0  0
    6.0885   -3.6791   23.7656 N   0  0  0  0  0  0  0  0  0  0  0  0
    5.9092    1.4393   17.0119 O   0  0  0  0  0  0  0  0  0  0  0  0
    8.6225   -4.1425   23.8649 O   0  0  0  0  0  0  0  0  0  0  0  0
    7.6412   -2.3372   25.3230 O   0  0  0  0  0  0  0  0  0  0  0  0
   14.2967    1.0632   22.3868 O   0  0  0  0  0  0  0  0  0  0  0  0
   15.0650   -1.3310   22.3952 O   0  0  0  0  0  0  0  0  0  0  0  0
    7.6564   -3.0743   24.0690 S   0  0  0  0  0  0  0  0  0  0  0  0
   14.4061   -0.2199   23.0586 S   0  0  0  0  0  0  0  0  0  0  0  0
    2.6609    3.6271   20.3521 H   0  0  0  0  0  0  0  0  0  0  0  0
    2.6640    2.0106   22.2284 H   0  0  0  0  0  0  0  0  0  0  0  0
    4.0477    3.2116   18.3252 H   0  0  0  0  0  0  0  0  0  0  0  0
    4.0515   -0.0493   22.1263 H   0  0  0  0  0  0  0  0  0  0  0  0
    8.1229    0.5952   19.8282 H   0  0  0  0  0  0  0  0  0  0  0  0
    9.9905    0.3314   21.4110 H   0  0  0  0  0  0  0  0  0  0  0  0
    5.8609   -2.3641   21.9806 H   0  0  0  0  0  0  0  0  0  0  0  0
   15.7623   -0.8905   26.3775 H   0  0  0  0  0  0  0  0  0  0  0  0
   14.8891   -1.9849   25.1592 H   0  0  0  0  0  0  0  0  0  0  0  0
   15.5787    1.0123   24.8381 H   0  0  0  0  0  0  0  0  0  0  0  0
   10.7784   -0.5195   25.2949 H   0  0  0  0  0  0  0  0  0  0  0  0
    9.8082    0.6143   24.3370 H   0  0  0  0  0  0  0  0  0  0  0  0
   10.5958   -3.1974   22.7158 H   0  0  0  0  0  0  0  0  0  0  0  0
   11.2464   -2.8183   24.3209 H   0  0  0  0  0  0  0  0  0  0  0  0
   11.5972    0.8138   22.6508 H   0  0  0  0  0  0  0  0  0  0  0  0
   12.2357    1.1581   24.2724 H   0  0  0  0  0  0  0  0  0  0  0  0
   13.0321   -2.6737   22.6536 H   0  0  0  0  0  0  0  0  0  0  0  0
   12.0868   -1.5504   21.6537 H   0  0  0  0  0  0  0  0  0  0  0  0
    5.1847   -1.6443   19.7477 H   0  0  0  0  0  0  0  0  0  0  0  0
    6.8753   -0.9002   17.9827 H   0  0  0  0  0  0  0  0  0  0  0  0
    6.0036   -4.6398   23.4118 H   0  0  0  0  0  0  0  0  0  0  0  0
    5.3345   -3.4047   24.4070 H   0  0  0  0  0  0  0  0  0  0  0  0
  1  2  1  0  0  0  0
  1  3  2  0  0  0  0
  2  4  2  0  0  0  0
  3  8  1  0  0  0  0
  4 10  1  0  0  0  0
  5  6  2  0  0  0  0
  5  9  1  0  0  0  0
  6 11  1  0  0  0  0
  7  9  2  0  0  0  0
  7 12  1  0  0  0  0
  8 10  2  0  0  0  0
  8 13  1  0  0  0  0
  9 20  1  0  0  0  0
 10 20  1  0  0  0  0
 11 12  2  0  0  0  0
 11 22  1  0  0  0  0
 12 30  1  0  0  0  0
 13 21  1  0  0  0  0
 13 25  2  0  0  0  0
 14 15  2  0  0  0  0
 15 31  1  0  0  0  0
 16 18  1  0  0  0  0
 16 22  1  0  0  0  0
 17 19  1  0  0  0  0
 17 22  1  0  0  0  0
 18 23  1  0  0  0  0
 19 23  1  0  0  0  0
 20 21  1  0  0  0  0
 23 31  1  0  0  0  0
 24 30  1  0  0  0  0
 26 30  2  0  0  0  0
 27 30  2  0  0  0  0
 28 31  2  0  0  0  0
 29 31  2  0  0  0  0
  1 32  1  0  0  0  0
  2 33  1  0  0  0  0
  3 34  1  0  0  0  0
  4 35  1  0  0  0  0
  5 36  1  0  0  0  0
  6 37  1  0  0  0  0
  7 38  1  0  0  0  0
 14 39  1  0  0  0  0
 14 40  1  0  0  0  0
 15 41  1  0  0  0  0
 16 42  1  0  0  0  0
 16 43  1  0  0  0  0
 17 44  1  0  0  0  0
 17 45  1  0  0  0  0
 18 46  1  0  0  0  0
 18 47  1  0  0  0  0
 19 48  1  0  0  0  0
 19 49  1  0  0  0  0
 20 50  1  0  0  0  0
 21 51  1  0  0  0  0
 24 52  1  0  0  0  0
 24 53  1  0  0  0  0
M  END
> <creator>
Dr Vamsi  Krishna Gurram

> <fragments>
x1093

> <real_space>
FALSE

> <SCR>
FALSE

> <BB>
FALSE

> <link>
https://covid.postera.ai/covid/submissions/dd7f8c68-925c-400a-9147-04b42d92a020

> <covalent_frag>
FALSE

> <covalent_warhead>
TRUE

> <acrylamide>
FALSE

> <acrylamide_adduct>
FALSE

> <chloroacetamide>
FALSE

> <chloroacetamide_adduct>
FALSE

> <vinylsulfonamide>
TRUE

> <vinylsulfonamide_adduct>
FALSE

> <in_molport_or_mcule>
FALSE

> <in_emolecules>
FALSE

> <Hybrid2>
-3.816393

> <Mpro-x1093_dock>
-3.816393

> <Mpro-x1086_dock>
-2.416167

> <site>
active-noncovalent

> <covalent_distance_min>
8.389114

> <covalent_distance_mean>
8.897855

> <covalent_distance_stderr>
0.044422895

$$$$
WAR-XCH-bdd-24
  -OEChem-04062011563D

 36 38  0     0  0  0  0  0  0999 V2000
    9.6489    0.0799   21.3901 C   0  0  0  0  0  0  0  0  0  0  0  0
    9.6521   -0.8686   22.4128 C   0  0  0  0  0  0  0  0  0  0  0  0
    8.6987    0.0044   20.3717 C   0  0  0  0  0  0  0  0  0  0  0  0
    7.7549   -1.9684   21.3986 C   0  0  0  0  0  0  0  0  0  0  0  0
    8.8635   -4.2412   23.3916 C   0  0  0  0  0  0  0  0  0  0  0  0
    8.7051   -1.8928   22.4170 C   0  0  0  0  0  0  0  0  0  0  0  0
    8.8050   -4.8697   24.6716 C   0  0  0  0  0  0  0  0  0  0  0  0
    7.7518   -1.0198   20.3759 C   0  0  0  0  0  0  0  0  0  0  0  0
    8.7077   -2.8743   23.4761 C   0  0  0  0  0  0  0  0  0  0  0  0
    8.6118   -3.9432   25.6787 C   0  0  0  0  0  0  0  0  0  0  0  0
    5.8062   -2.0576   19.2355 C   0  0  0  0  0  0  0  0  0  0  0  0
    8.9541   -6.3328   24.9533 C   0  0  0  0  0  0  0  0  0  0  0  0
    8.4788   -4.2695   27.1333 C   0  0  0  0  0  0  0  0  0  0  0  0
    8.4627   -6.6945   26.3637 C   0  0  0  0  0  0  0  0  0  0  0  0
    8.9736   -5.6973   27.4139 C   0  0  0  0  0  0  0  0  0  0  0  0
    4.9559   -1.8333   18.0067 C   0  0  0  0  0  0  0  0  0  0  0  0
    6.8028   -1.0958   19.3561 N   0  0  0  0  0  0  0  0  0  0  0  0
    5.5849   -3.0140   19.9733 O   0  0  0  0  0  0  0  0  0  0  0  0
    8.4930   -2.3495   25.0920 S   0  0  0  0  0  0  0  0  0  0  0  0
    4.9318   -0.0937   17.6767 Cl  0  0  0  0  0  0  0  0  0  0  0  0
   10.3865    0.8774   21.3869 H   0  0  0  0  0  0  0  0  0  0  0  0
   10.3992   -0.7962   23.1999 H   0  0  0  0  0  0  0  0  0  0  0  0
    8.7067    0.7486   19.5794 H   0  0  0  0  0  0  0  0  0  0  0  0
    7.0136   -2.7653   21.3979 H   0  0  0  0  0  0  0  0  0  0  0  0
    9.0151   -4.7703   22.4585 H   0  0  0  0  0  0  0  0  0  0  0  0
    8.4027   -6.9212   24.2113 H   0  0  0  0  0  0  0  0  0  0  0  0
   10.0144   -6.5989   24.8593 H   0  0  0  0  0  0  0  0  0  0  0  0
    9.0434   -3.5612   27.7502 H   0  0  0  0  0  0  0  0  0  0  0  0
    7.4226   -4.1903   27.4190 H   0  0  0  0  0  0  0  0  0  0  0  0
    7.3651   -6.7007   26.3803 H   0  0  0  0  0  0  0  0  0  0  0  0
    8.7939   -7.7079   26.6172 H   0  0  0  0  0  0  0  0  0  0  0  0
   10.0712   -5.7113   27.4155 H   0  0  0  0  0  0  0  0  0  0  0  0
    8.6491   -6.0064   28.4139 H   0  0  0  0  0  0  0  0  0  0  0  0
    3.9280   -2.1826   18.1335 H   0  0  0  0  0  0  0  0  0  0  0  0
    5.4032   -2.3528   17.1545 H   0  0  0  0  0  0  0  0  0  0  0  0
    6.8440   -0.3801   18.6328 H   0  0  0  0  0  0  0  0  0  0  0  0
  1  2  1  0  0  0  0
  1  3  2  0  0  0  0
  2  6  2  0  0  0  0
  3  8  1  0  0  0  0
  4  6  1  0  0  0  0
  4  8  2  0  0  0  0
  5  7  1  0  0  0  0
  5  9  2  0  0  0  0
  6  9  1  0  0  0  0
  7 10  2  0  0  0  0
  7 12  1  0  0  0  0
  8 17  1  0  0  0  0
  9 19  1  0  0  0  0
 10 13  1  0  0  0  0
 10 19  1  0  0  0  0
 11 16  1  0  0  0  0
 11 17  1  0  0  0  0
 11 18  2  0  0  0  0
 12 14  1  0  0  0  0
 13 15  1  0  0  0  0
 14 15  1  0  0  0  0
 16 20  1  0  0  0  0
  1 21  1  0  0  0  0
  2 22  1  0  0  0  0
  3 23  1  0  0  0  0
  4 24  1  0  0  0  0
  5 25  1  0  0  0  0
 12 26  1  0  0  0  0
 12 27  1  0  0  0  0
 13 28  1  0  0  0  0
 13 29  1  0  0  0  0
 14 30  1  0  0  0  0
 14 31  1  0  0  0  0
 15 32  1  0  0  0  0
 15 33  1  0  0  0  0
 16 34  1  0  0  0  0
 16 35  1  0  0  0  0
 17 36  1  0  0  0  0
M  END
> <creator>
Warren Thompson, XChem - Diamond Light Source

> <fragments>
x1334

> <real_space>
FALSE

> <SCR>
FALSE

> <BB>
FALSE

> <link>
https://covid.postera.ai/covid/submissions/bdd24732-f687-4f5f-b96b-e2bd62c18337

> <covalent_frag>
TRUE

> <covalent_warhead>
TRUE

> <acrylamide>
FALSE

> <acrylamide_adduct>
FALSE

> <chloroacetamide>
TRUE

> <chloroacetamide_adduct>
FALSE

> <vinylsulfonamide>
FALSE

> <vinylsulfonamide_adduct>
FALSE

> <in_molport_or_mcule>
FALSE

> <in_emolecules>
FALSE

> <Hybrid2>
-3.808669

> <Mpro-x1334_dock>
-3.808669

> <site>
active-covalent

> <covalent_distance_min>
3.167811

> <covalent_distance_mean>
3.6663487

> <covalent_distance_stderr>
0.019453995

$$$$
KAT-FAI-9b6-3
  -OEChem-04062011563D

 71 74  0     1  0  0  0  0  0999 V2000
    6.5536   -3.9922   20.7015 C   0  0  0  0  0  0  0  0  0  0  0  0
   13.3994   -0.7119   21.1028 C   0  0  0  0  0  0  0  0  0  0  0  0
   13.7338   -0.4149   22.5615 C   0  0  0  0  0  0  0  0  0  0  0  0
    6.6900    0.6544   18.2256 C   0  0  0  0  0  0  0  0  0  0  0  0
    7.7393   -0.4267   18.4696 C   0  0  0  0  0  0  0  0  0  0  0  0
    5.5130    0.5246   19.1885 C   0  0  0  0  0  0  0  0  0  0  0  0
   12.0709   -1.4516   20.9690 C   0  0  0  0  0  0  0  0  0  0  0  0
   12.6056    0.3497   23.2488 C   0  0  0  0  0  0  0  0  0  0  0  0
    7.0292   -0.5657   20.8916 C   0  0  0  0  0  0  0  0  0  0  0  0
    8.5097   -3.5018   22.2152 C   0  0  0  0  0  0  0  0  0  0  0  0
    9.8536   -2.7726   22.1972 C   0  0  0  0  0  0  0  0  0  0  0  0
    8.5989   -2.9200   19.8088 C   0  0  0  0  0  0  0  0  0  0  0  0
   10.3450    1.9184   23.3253 C   0  0  0  0  0  0  0  0  0  0  0  0
   10.1210    0.3203   25.2167 C   0  0  0  0  0  0  0  0  0  0  0  0
    9.1868    2.6948   23.9284 C   0  0  0  0  0  0  0  0  0  0  0  0
    8.9746    1.1796   25.7224 C   0  0  0  0  0  0  0  0  0  0  0  0
    8.2167   -0.4323   19.9273 C   0  0  1  0  0  0  0  0  0  0  0  0
    5.9765    0.5258   20.6507 C   0  0  2  0  0  0  0  0  0  0  0  0
   10.9266   -0.6985   21.6559 C   0  0  2  0  0  0  0  0  0  0  0  0
    9.2312   -1.5578   20.1594 C   0  0  1  0  0  0  0  0  0  0  0  0
   11.2756   -0.3914   23.1178 C   0  0  2  0  0  0  0  0  0  0  0  0
    4.7877    0.3458   21.5929 C   0  0  0  0  0  0  0  0  0  0  0  0
    5.8777   -4.6092   21.9020 C   0  0  0  0  0  0  0  0  0  0  0  0
    7.8284   -3.4693   20.9199 N   0  0  0  0  0  0  0  0  0  0  0  0
    9.7057   -1.4652   21.5555 N   0  0  1  0  0  0  0  0  0  0  0  0
   10.1973    0.4664   23.7150 N   0  3  0  0  0  0  0  0  0  0  0  0
    5.9695   -3.9709   19.6160 O   0  0  0  0  0  0  0  0  0  0  0  0
    9.1685    2.5445   25.3487 O   0  0  0  0  0  0  0  0  0  0  0  0
    6.3023   -6.3570   21.9951 S   0  0  0  0  0  0  0  0  0  0  0  0
   13.3544    0.2263   20.5407 H   0  0  0  0  0  0  0  0  0  0  0  0
   14.2042   -1.3080   20.6591 H   0  0  0  0  0  0  0  0  0  0  0  0
   13.9141   -1.3554   23.0927 H   0  0  0  0  0  0  0  0  0  0  0  0
   14.6651    0.1587   22.6155 H   0  0  0  0  0  0  0  0  0  0  0  0
    7.1501    1.6434   18.3416 H   0  0  0  0  0  0  0  0  0  0  0  0
    6.3292    0.5904   17.1929 H   0  0  0  0  0  0  0  0  0  0  0  0
    7.3150   -1.4055   18.2115 H   0  0  0  0  0  0  0  0  0  0  0  0
    8.5900   -0.2622   17.7975 H   0  0  0  0  0  0  0  0  0  0  0  0
    4.8134    1.3513   19.0167 H   0  0  0  0  0  0  0  0  0  0  0  0
    4.9688   -0.4031   18.9696 H   0  0  0  0  0  0  0  0  0  0  0  0
   11.8374   -1.5721   19.9076 H   0  0  0  0  0  0  0  0  0  0  0  0
   12.1702   -2.4600   21.3794 H   0  0  0  0  0  0  0  0  0  0  0  0
   12.8490    0.4641   24.3049 H   0  0  0  0  0  0  0  0  0  0  0  0
   12.5295    1.3512   22.8288 H   0  0  0  0  0  0  0  0  0  0  0  0
    6.5681   -1.5556   20.7747 H   0  0  0  0  0  0  0  0  0  0  0  0
    7.3890   -0.5058   21.9264 H   0  0  0  0  0  0  0  0  0  0  0  0
    8.6674   -4.5323   22.5645 H   0  0  0  0  0  0  0  0  0  0  0  0
    7.8286   -3.0303   22.9450 H   0  0  0  0  0  0  0  0  0  0  0  0
   10.1777   -2.6480   23.2306 H   0  0  0  0  0  0  0  0  0  0  0  0
   10.5930   -3.3860   21.6797 H   0  0  0  0  0  0  0  0  0  0  0  0
    7.9075   -2.8201   18.9617 H   0  0  0  0  0  0  0  0  0  0  0  0
    9.3800   -3.6256   19.5039 H   0  0  0  0  0  0  0  0  0  0  0  0
   10.3371    1.9742   22.2331 H   0  0  0  0  0  0  0  0  0  0  0  0
   11.3080    2.2607   23.7182 H   0  0  0  0  0  0  0  0  0  0  0  0
   11.0829    0.6524   25.6206 H   0  0  0  0  0  0  0  0  0  0  0  0
    9.9570   -0.7373   25.4419 H   0  0  0  0  0  0  0  0  0  0  0  0
    9.3050    3.7611   23.7110 H   0  0  0  0  0  0  0  0  0  0  0  0
    8.2236    2.3789   23.5100 H   0  0  0  0  0  0  0  0  0  0  0  0
    8.0062    0.8272   25.3477 H   0  0  0  0  0  0  0  0  0  0  0  0
    8.9384    1.1391   26.8156 H   0  0  0  0  0  0  0  0  0  0  0  0
    8.7204    0.5222   20.1303 H   0  0  0  0  0  0  0  0  0  0  0  0
    6.4339    1.5003   20.8680 H   0  0  0  0  0  0  0  0  0  0  0  0
   10.7709    0.2527   21.1116 H   0  0  0  0  0  0  0  0  0  0  0  0
   10.0810   -1.3669   19.4794 H   0  0  0  0  0  0  0  0  0  0  0  0
   11.2914   -1.3014   23.7247 H   0  0  0  0  0  0  0  0  0  0  0  0
    4.3093   -0.6136   21.4039 H   0  0  0  0  0  0  0  0  0  0  0  0
    4.0646    1.1433   21.4307 H   0  0  0  0  0  0  0  0  0  0  0  0
    5.1283    0.3775   22.6265 H   0  0  0  0  0  0  0  0  0  0  0  0
    4.8029   -4.4912   21.7990 H   0  0  0  0  0  0  0  0  0  0  0  0
    6.2090   -4.0934   22.7987 H   0  0  0  0  0  0  0  0  0  0  0  0
    9.3051    0.1310   23.3262 H   0  0  0  0  0  0  0  0  0  0  0  0
    7.6289   -6.1900   22.1031 H   0  0  0  0  0  0  0  0  0  0  0  0
  1 23  1  0  0  0  0
  1 24  1  0  0  0  0
  1 27  2  0  0  0  0
  2  3  1  0  0  0  0
  2  7  1  0  0  0  0
  3  8  1  0  0  0  0
  4  5  1  0  0  0  0
  4  6  1  0  0  0  0
  5 17  1  0  0  0  0
  6 18  1  0  0  0  0
  7 19  1  0  0  0  0
  8 21  1  0  0  0  0
  9 17  1  0  0  0  0
  9 18  1  0  0  0  0
 10 11  1  0  0  0  0
 10 24  1  0  0  0  0
 11 25  1  0  0  0  0
 12 20  1  0  0  0  0
 12 24  1  0  0  0  0
 13 15  1  0  0  0  0
 13 26  1  0  0  0  0
 14 16  1  0  0  0  0
 14 26  1  0  0  0  0
 15 28  1  0  0  0  0
 16 28  1  0  0  0  0
 17 20  1  0  0  0  0
 18 22  1  0  0  0  0
 19 21  1  0  0  0  0
 19 25  1  0  0  0  0
 20 25  1  0  0  0  0
 21 26  1  0  0  0  0
 23 29  1  0  0  0  0
  2 30  1  0  0  0  0
  2 31  1  0  0  0  0
  3 32  1  0  0  0  0
  3 33  1  0  0  0  0
  4 34  1  0  0  0  0
  4 35  1  0  0  0  0
  5 36  1  0  0  0  0
  5 37  1  0  0  0  0
  6 38  1  0  0  0  0
  6 39  1  0  0  0  0
  7 40  1  0  0  0  0
  7 41  1  0  0  0  0
  8 42  1  0  0  0  0
  8 43  1  0  0  0  0
  9 44  1  0  0  0  0
  9 45  1  0  0  0  0
 10 46  1  0  0  0  0
 10 47  1  0  0  0  0
 11 48  1  0  0  0  0
 11 49  1  0  0  0  0
 12 50  1  0  0  0  0
 12 51  1  0  0  0  0
 13 52  1  0  0  0  0
 13 53  1  0  0  0  0
 14 54  1  0  0  0  0
 14 55  1  0  0  0  0
 15 56  1  0  0  0  0
 15 57  1  0  0  0  0
 16 58  1  0  0  0  0
 16 59  1  0  0  0  0
 17 60  1  0  0  0  0
 18 61  1  0  0  0  0
 19 62  1  0  0  0  0
 20 63  1  0  0  0  0
 21 64  1  0  0  0  0
 22 65  1  0  0  0  0
 22 66  1  0  0  0  0
 22 67  1  0  0  0  0
 23 68  1  0  0  0  0
 23 69  1  0  0  0  0
 26 70  1  0  0  0  0
 29 71  1  0  0  0  0
M  CHG  1  26   1
M  END
> <creator>
Kathleen Frey, Fairleigh Dickinson University

> <fragments>
x0708

> <real_space>
FALSE

> <SCR>
FALSE

> <BB>
FALSE

> <link>
https://covid.postera.ai/covid/submissions/9b65c29e-39dc-40b1-b388-d5c5a2718f9c

> <covalent_frag>
TRUE

> <covalent_warhead>
TRUE

> <acrylamide>
FALSE

> <acrylamide_adduct>
FALSE

> <chloroacetamide>
FALSE

> <chloroacetamide_adduct>
TRUE

> <vinylsulfonamide>
FALSE

> <vinylsulfonamide_adduct>
FALSE

> <in_molport_or_mcule>
FALSE

> <in_emolecules>
FALSE

> <Hybrid2>
-3.808011

> <Mpro-x0708_dock>
-3.808011

> <Mpro-x0689_dock>
-1.34941

> <site>
active-covalent

> <covalent_distance_min>
6.2380605

> <covalent_distance_mean>
6.768196

> <covalent_distance_stderr>
0.037074093

$$$$
TAM-UNI-d1c-4
  -OEChem-04062011563D

 56 57  0     0  0  0  0  0  0999 V2000
    6.1329   -2.6973   21.5850 C   0  0  0  0  0  0  0  0  0  0  0  0
    6.8090   -2.9444   22.7797 C   0  0  0  0  0  0  0  0  0  0  0  0
    8.1909   -1.9292   20.5791 C   0  0  0  0  0  0  0  0  0  0  0  0
    6.8239   -2.1897   20.4846 C   0  0  0  0  0  0  0  0  0  0  0  0
    8.1760   -2.6839   22.8742 C   0  0  0  0  0  0  0  0  0  0  0  0
    8.8670   -2.1763   21.7739 C   0  0  0  0  0  0  0  0  0  0  0  0
    6.1188   -1.9331   19.2386 C   0  0  0  0  0  0  0  0  0  0  0  0
   12.8205    2.8959   23.1249 C   0  0  0  0  0  0  0  0  0  0  0  0
   10.6310    1.8253   22.6990 C   0  0  0  0  0  0  0  0  0  0  0  0
   12.2912    0.5769   24.0250 C   0  0  0  0  0  0  0  0  0  0  0  0
   10.3840    0.6063   21.8224 C   0  0  0  0  0  0  0  0  0  0  0  0
   12.0676   -0.6624   23.1690 C   0  0  0  0  0  0  0  0  0  0  0  0
    5.4302   -0.2913   17.4747 C   0  0  0  0  0  0  0  0  0  0  0  0
    6.7535    0.4901   19.4079 C   0  0  0  0  0  0  0  0  0  0  0  0
    7.3766   -1.2300   26.2833 C   0  0  0  0  0  0  0  0  0  0  0  0
    8.8788   -2.9573   24.1634 C   0  0  0  0  0  0  0  0  0  0  0  0
   10.3378   -1.8902   21.8516 C   0  0  0  0  0  0  0  0  0  0  0  0
   12.1585    4.2474   23.0300 C   0  0  0  0  0  0  0  0  0  0  0  0
   11.9763    1.7963   23.2729 N   0  0  0  0  0  0  0  0  0  0  0  0
    9.4880   -1.7743   24.7142 N   0  0  0  0  0  0  0  0  0  0  0  0
    6.1007   -0.6240   18.7238 N   0  0  0  0  0  0  0  0  0  0  0  0
   10.6550   -0.6439   22.6292 N   0  3  0  0  0  0  0  0  0  0  0  0
    5.5784   -2.9023   18.6895 O   0  0  0  0  0  0  0  0  0  0  0  0
   14.0508    2.8221   23.0714 O   0  0  0  0  0  0  0  0  0  0  0  0
    7.7599    0.0270   24.0198 O   0  0  0  0  0  0  0  0  0  0  0  0
    9.3033    0.4982   25.9569 O   0  0  0  0  0  0  0  0  0  0  0  0
    8.5114   -0.4296   25.1725 S   0  0  0  0  0  0  0  0  0  0  0  0
   13.2754    5.4064   23.7420 Cl  0  0  0  0  0  0  0  0  0  0  0  0
    5.0675   -2.9039   21.5225 H   0  0  0  0  0  0  0  0  0  0  0  0
    6.2614   -3.3410   23.6306 H   0  0  0  0  0  0  0  0  0  0  0  0
    8.7311   -1.5330   19.7222 H   0  0  0  0  0  0  0  0  0  0  0  0
   10.4796    2.7355   22.1102 H   0  0  0  0  0  0  0  0  0  0  0  0
    9.9182    1.8554   23.5320 H   0  0  0  0  0  0  0  0  0  0  0  0
   11.6377    0.5603   24.9057 H   0  0  0  0  0  0  0  0  0  0  0  0
   13.3195    0.5779   24.3905 H   0  0  0  0  0  0  0  0  0  0  0  0
    9.3382    0.5668   21.5008 H   0  0  0  0  0  0  0  0  0  0  0  0
   11.0411    0.5904   20.9456 H   0  0  0  0  0  0  0  0  0  0  0  0
   12.7537   -0.7009   22.3155 H   0  0  0  0  0  0  0  0  0  0  0  0
   12.1750   -1.5711   23.7702 H   0  0  0  0  0  0  0  0  0  0  0  0
    4.3858   -0.0146   17.6810 H   0  0  0  0  0  0  0  0  0  0  0  0
    5.9457    0.5542   16.9959 H   0  0  0  0  0  0  0  0  0  0  0  0
    5.4529   -1.1623   16.8033 H   0  0  0  0  0  0  0  0  0  0  0  0
    7.7929    0.5772   19.0586 H   0  0  0  0  0  0  0  0  0  0  0  0
    6.2133    1.4227   19.1875 H   0  0  0  0  0  0  0  0  0  0  0  0
    6.7454    0.3093   20.4929 H   0  0  0  0  0  0  0  0  0  0  0  0
    6.6794   -0.4809   26.6620 H   0  0  0  0  0  0  0  0  0  0  0  0
    6.8427   -2.0047   25.7309 H   0  0  0  0  0  0  0  0  0  0  0  0
    7.9484   -1.6690   27.1022 H   0  0  0  0  0  0  0  0  0  0  0  0
    8.1828   -3.3526   24.9154 H   0  0  0  0  0  0  0  0  0  0  0  0
    9.6710   -3.7069   24.0370 H   0  0  0  0  0  0  0  0  0  0  0  0
   10.8755   -2.7105   22.3391 H   0  0  0  0  0  0  0  0  0  0  0  0
   10.7679   -1.7561   20.8532 H   0  0  0  0  0  0  0  0  0  0  0  0
   11.2337    4.2262   23.5951 H   0  0  0  0  0  0  0  0  0  0  0  0
   11.9916    4.4843   21.9855 H   0  0  0  0  0  0  0  0  0  0  0  0
   10.3186   -1.9364   25.3230 H   0  0  0  0  0  0  0  0  0  0  0  0
   10.0176   -0.6331   23.4375 H   0  0  0  0  0  0  0  0  0  0  0  0
  1  2  2  0  0  0  0
  1  4  1  0  0  0  0
  2  5  1  0  0  0  0
  3  4  2  0  0  0  0
  3  6  1  0  0  0  0
  4  7  1  0  0  0  0
  5  6  2  0  0  0  0
  5 16  1  0  0  0  0
  6 17  1  0  0  0  0
  7 21  1  0  0  0  0
  7 23  2  0  0  0  0
  8 18  1  0  0  0  0
  8 19  1  0  0  0  0
  8 24  2  0  0  0  0
  9 11  1  0  0  0  0
  9 19  1  0  0  0  0
 10 12  1  0  0  0  0
 10 19  1  0  0  0  0
 11 22  1  0  0  0  0
 12 22  1  0  0  0  0
 13 21  1  0  0  0  0
 14 21  1  0  0  0  0
 15 27  1  0  0  0  0
 16 20  1  0  0  0  0
 17 22  1  0  0  0  0
 18 28  1  0  0  0  0
 20 27  1  0  0  0  0
 25 27  2  0  0  0  0
 26 27  2  0  0  0  0
  1 29  1  0  0  0  0
  2 30  1  0  0  0  0
  3 31  1  0  0  0  0
  9 32  1  0  0  0  0
  9 33  1  0  0  0  0
 10 34  1  0  0  0  0
 10 35  1  0  0  0  0
 11 36  1  0  0  0  0
 11 37  1  0  0  0  0
 12 38  1  0  0  0  0
 12 39  1  0  0  0  0
 13 40  1  0  0  0  0
 13 41  1  0  0  0  0
 13 42  1  0  0  0  0
 14 43  1  0  0  0  0
 14 44  1  0  0  0  0
 14 45  1  0  0  0  0
 15 46  1  0  0  0  0
 15 47  1  0  0  0  0
 15 48  1  0  0  0  0
 16 49  1  0  0  0  0
 16 50  1  0  0  0  0
 17 51  1  0  0  0  0
 17 52  1  0  0  0  0
 18 53  1  0  0  0  0
 18 54  1  0  0  0  0
 20 55  1  0  0  0  0
 22 56  1  0  0  0  0
M  CHG  1  22   1
M  END
> <creator>
Tamas Szommer, University of Oxford, TDI

> <fragments>
x0692

> <real_space>
FALSE

> <SCR>
FALSE

> <BB>
FALSE

> <link>
https://covid.postera.ai/covid/submissions/d1c3dd9f-771c-474e-9133-8c7e4ace8b98

> <covalent_frag>
TRUE

> <covalent_warhead>
TRUE

> <acrylamide>
FALSE

> <acrylamide_adduct>
FALSE

> <chloroacetamide>
TRUE

> <chloroacetamide_adduct>
FALSE

> <vinylsulfonamide>
FALSE

> <vinylsulfonamide_adduct>
FALSE

> <in_molport_or_mcule>
FALSE

> <in_emolecules>
FALSE

> <Hybrid2>
-3.725492

> <Mpro-x0692_dock>
-3.725492

> <Mpro-x1392_dock>
-2.87801

> <Mpro-x1386_dock>
-0.908817

> <Mpro-x1382_dock>
2.387768

> <site>
active-covalent

> <covalent_distance_min>
9.107819

> <covalent_distance_mean>
10.042216

> <covalent_distance_stderr>
0.05441428

$$$$
DAR-DIA-fb2-18
  -OEChem-04062011563D

 58 60  0     0  0  0  0  0  0999 V2000
   12.1720   -1.9922   22.8264 C   0  0  0  0  0  0  0  0  0  0  0  0
   12.8133    0.2635   22.4300 C   0  0  0  0  0  0  0  0  0  0  0  0
   11.4926   -1.5674   23.9628 C   0  0  0  0  0  0  0  0  0  0  0  0
   12.8475   -1.0656   22.0400 C   0  0  0  0  0  0  0  0  0  0  0  0
   11.5193   -0.2159   24.2669 C   0  0  0  0  0  0  0  0  0  0  0  0
    6.5977   -5.5065   24.8835 C   0  0  0  0  0  0  0  0  0  0  0  0
    8.4836    0.2441   26.3457 C   0  0  0  0  0  0  0  0  0  0  0  0
    8.4458   -4.3401   26.0409 C   0  0  0  0  0  0  0  0  0  0  0  0
    8.3043   -4.1412   23.5844 C   0  0  0  0  0  0  0  0  0  0  0  0
    6.1134    0.1964   27.0566 C   0  0  0  0  0  0  0  0  0  0  0  0
    6.5739    0.3350   24.6383 C   0  0  0  0  0  0  0  0  0  0  0  0
    8.6465   -2.8373   26.1701 C   0  0  0  0  0  0  0  0  0  0  0  0
    8.5059   -2.6348   23.6800 C   0  0  0  0  0  0  0  0  0  0  0  0
    4.9922    1.2024   26.8493 C   0  0  0  0  0  0  0  0  0  0  0  0
    5.4127    1.3185   24.5392 C   0  0  0  0  0  0  0  0  0  0  0  0
   13.4946   -2.8409   20.5959 C   0  0  0  0  0  0  0  0  0  0  0  0
   10.7619   -2.5623   24.8155 C   0  0  0  0  0  0  0  0  0  0  0  0
   10.8074    0.2975   25.4756 C   0  0  0  0  0  0  0  0  0  0  0  0
    5.8974   -5.8018   23.5810 C   0  0  0  0  0  0  0  0  0  0  0  0
   12.1643    0.7139   23.5271 N   0  0  0  0  0  0  0  0  0  0  0  0
    7.7155   -4.6748   24.8178 N   0  0  0  0  0  0  0  0  0  0  0  0
    7.1230    0.3103   26.0015 N   0  0  0  0  0  0  0  0  0  0  0  0
    9.3753    0.3536   25.2851 N   0  0  0  0  0  0  0  0  0  0  0  0
    9.2887   -2.2779   24.9219 N   0  3  0  0  0  0  0  0  0  0  0  0
    6.1614   -5.9990   25.9271 O   0  0  0  0  0  0  0  0  0  0  0  0
    8.8728    0.0928   27.5085 O   0  0  0  0  0  0  0  0  0  0  0  0
    4.4336    1.0489   25.5432 O   0  0  0  0  0  0  0  0  0  0  0  0
   13.5156   -1.4502   20.9247 O   0  0  0  0  0  0  0  0  0  0  0  0
    4.5660   -6.8888   23.9601 Cl  0  0  0  0  0  0  0  0  0  0  0  0
   12.1760   -3.0435   22.5496 H   0  0  0  0  0  0  0  0  0  0  0  0
   13.3215    1.0299   21.8532 H   0  0  0  0  0  0  0  0  0  0  0  0
    9.4193   -4.8418   26.0610 H   0  0  0  0  0  0  0  0  0  0  0  0
    7.8650   -4.7285   26.8875 H   0  0  0  0  0  0  0  0  0  0  0  0
    7.6179   -4.3871   22.7640 H   0  0  0  0  0  0  0  0  0  0  0  0
    9.2601   -4.6154   23.3515 H   0  0  0  0  0  0  0  0  0  0  0  0
    6.5583    0.3214   28.0481 H   0  0  0  0  0  0  0  0  0  0  0  0
    5.7182   -0.8245   26.9922 H   0  0  0  0  0  0  0  0  0  0  0  0
    6.2286   -0.6834   24.4266 H   0  0  0  0  0  0  0  0  0  0  0  0
    7.3249    0.6073   23.8954 H   0  0  0  0  0  0  0  0  0  0  0  0
    7.6782   -2.3277   26.2952 H   0  0  0  0  0  0  0  0  0  0  0  0
    9.2942   -2.5817   27.0251 H   0  0  0  0  0  0  0  0  0  0  0  0
    9.0565   -2.2393   22.8103 H   0  0  0  0  0  0  0  0  0  0  0  0
    7.5348   -2.1196   23.7474 H   0  0  0  0  0  0  0  0  0  0  0  0
    4.1925    1.0236   27.5751 H   0  0  0  0  0  0  0  0  0  0  0  0
    5.3418    2.2326   26.9863 H   0  0  0  0  0  0  0  0  0  0  0  0
    5.7581    2.3553   24.6305 H   0  0  0  0  0  0  0  0  0  0  0  0
    4.9245    1.2180   23.5646 H   0  0  0  0  0  0  0  0  0  0  0  0
   14.0679   -3.0084   19.6809 H   0  0  0  0  0  0  0  0  0  0  0  0
   12.4610   -3.1675   20.4560 H   0  0  0  0  0  0  0  0  0  0  0  0
   13.9457   -3.4065   21.4146 H   0  0  0  0  0  0  0  0  0  0  0  0
   10.8582   -3.5760   24.4119 H   0  0  0  0  0  0  0  0  0  0  0  0
   11.1552   -2.5715   25.8378 H   0  0  0  0  0  0  0  0  0  0  0  0
   11.0013   -0.3412   26.3476 H   0  0  0  0  0  0  0  0  0  0  0  0
   11.1442    1.3086   25.7395 H   0  0  0  0  0  0  0  0  0  0  0  0
    6.5953   -6.2883   22.9092 H   0  0  0  0  0  0  0  0  0  0  0  0
    5.5156   -4.8746   23.1693 H   0  0  0  0  0  0  0  0  0  0  0  0
    9.0140    0.4767   24.3474 H   0  0  0  0  0  0  0  0  0  0  0  0
    9.2156   -1.2235   25.0112 H   0  0  0  0  0  0  0  0  0  0  0  0
  1  3  1  0  0  0  0
  1  4  2  0  0  0  0
  2  4  1  0  0  0  0
  2 20  2  0  0  0  0
  3  5  2  0  0  0  0
  3 17  1  0  0  0  0
  4 28  1  0  0  0  0
  5 18  1  0  0  0  0
  5 20  1  0  0  0  0
  6 19  1  0  0  0  0
  6 21  1  0  0  0  0
  6 25  2  0  0  0  0
  7 22  1  0  0  0  0
  7 23  1  0  0  0  0
  7 26  2  0  0  0  0
  8 12  1  0  0  0  0
  8 21  1  0  0  0  0
  9 13  1  0  0  0  0
  9 21  1  0  0  0  0
 10 14  1  0  0  0  0
 10 22  1  0  0  0  0
 11 15  1  0  0  0  0
 11 22  1  0  0  0  0
 12 24  1  0  0  0  0
 13 24  1  0  0  0  0
 14 27  1  0  0  0  0
 15 27  1  0  0  0  0
 16 28  1  0  0  0  0
 17 24  1  0  0  0  0
 18 23  1  0  0  0  0
 19 29  1  0  0  0  0
  1 30  1  0  0  0  0
  2 31  1  0  0  0  0
  8 32  1  0  0  0  0
  8 33  1  0  0  0  0
  9 34  1  0  0  0  0
  9 35  1  0  0  0  0
 10 36  1  0  0  0  0
 10 37  1  0  0  0  0
 11 38  1  0  0  0  0
 11 39  1  0  0  0  0
 12 40  1  0  0  0  0
 12 41  1  0  0  0  0
 13 42  1  0  0  0  0
 13 43  1  0  0  0  0
 14 44  1  0  0  0  0
 14 45  1  0  0  0  0
 15 46  1  0  0  0  0
 15 47  1  0  0  0  0
 16 48  1  0  0  0  0
 16 49  1  0  0  0  0
 16 50  1  0  0  0  0
 17 51  1  0  0  0  0
 17 52  1  0  0  0  0
 18 53  1  0  0  0  0
 18 54  1  0  0  0  0
 19 55  1  0  0  0  0
 19 56  1  0  0  0  0
 23 57  1  0  0  0  0
 24 58  1  0  0  0  0
M  CHG  1  24   1
M  END
> <creator>
Daren Fearon, Diamond Light Source Ltd

> <fragments>
x0305

> <real_space>
FALSE

> <SCR>
FALSE

> <BB>
FALSE

> <link>
https://covid.postera.ai/covid/submissions/fb20be43-b2ad-4a19-a5ce-eb2fe8d462e2

> <covalent_frag>
TRUE

> <covalent_warhead>
TRUE

> <acrylamide>
FALSE

> <acrylamide_adduct>
FALSE

> <chloroacetamide>
TRUE

> <chloroacetamide_adduct>
FALSE

> <vinylsulfonamide>
FALSE

> <vinylsulfonamide_adduct>
FALSE

> <in_molport_or_mcule>
FALSE

> <in_emolecules>
FALSE

> <Hybrid2>
-3.715890

> <Mpro-x0305_dock>
-3.71589

> <Mpro-x0195_dock>
-3.294444

> <Mpro-x0830_dock>
-1.766389

> <Mpro-x0104_dock>
-1.348325

> <site>
active-noncovalent

> <covalent_distance_min>
7.7177076

> <covalent_distance_mean>
8.291723

> <covalent_distance_stderr>
0.062360134

$$$$
WAR-XCH-bdd-19
  -OEChem-04062011563D

 48 50  0     1  0  0  0  0  0999 V2000
    5.4892   -3.5190   27.0062 C   0  0  0  0  0  0  0  0  0  0  0  0
    8.2683   -5.5336   28.4464 C   0  0  0  0  0  0  0  0  0  0  0  0
    7.1389   -4.7203   28.3530 C   0  0  0  0  0  0  0  0  0  0  0  0
    8.9047   -5.9791   27.2878 C   0  0  0  0  0  0  0  0  0  0  0  0
    9.7323   -2.7891   24.9967 C   0  0  0  0  0  0  0  0  0  0  0  0
    7.2823   -4.7981   25.9425 C   0  0  0  0  0  0  0  0  0  0  0  0
    9.2735   -3.4286   22.7240 C   0  0  0  0  0  0  0  0  0  0  0  0
    9.2785   -1.5203   24.6744 C   0  0  0  0  0  0  0  0  0  0  0  0
    6.6459   -4.3526   27.1010 C   0  0  0  0  0  0  0  0  0  0  0  0
    8.4117   -5.6113   26.0359 C   0  0  0  0  0  0  0  0  0  0  0  0
    9.7266   -3.7557   23.9972 C   0  0  0  0  0  0  0  0  0  0  0  0
    8.8400   -2.1312   22.5035 C   0  0  0  0  0  0  0  0  0  0  0  0
    5.7438   -2.4560   18.6942 C   0  0  0  0  0  0  0  0  0  0  0  0
    8.1212    0.1076   19.4106 C   0  0  0  0  0  0  0  0  0  0  0  0
    8.6518   -0.2658   20.7959 C   0  0  0  0  0  0  0  0  0  0  0  0
    6.6373   -0.2238   19.2792 C   0  0  0  0  0  0  0  0  0  0  0  0
    6.8369   -2.0293   20.9528 C   0  0  0  0  0  0  0  0  0  0  0  0
    8.3380   -1.7375   21.1238 C   0  0  2  0  0  0  0  0  0  0  0  0
    9.1005   -6.0936   24.7825 C   0  0  0  0  0  0  0  0  0  0  0  0
   10.2049   -5.1371   24.2903 C   0  0  0  0  0  0  0  0  0  0  0  0
    5.9503   -2.1346   17.2355 C   0  0  0  0  0  0  0  0  0  0  0  0
    4.5498   -2.8419   26.9293 N   0  0  0  0  0  0  0  0  0  0  0  0
    8.8309   -1.1651   23.4492 N   0  0  0  0  0  0  0  0  0  0  0  0
    6.3852   -1.6267   19.6135 N   0  0  0  0  0  0  0  0  0  0  0  0
    5.0315   -3.4141   19.0052 O   0  0  0  0  0  0  0  0  0  0  0  0
    7.6840   -2.2153   16.9422 Cl  0  0  0  0  0  0  0  0  0  0  0  0
    8.6518   -5.8211   29.4210 H   0  0  0  0  0  0  0  0  0  0  0  0
    6.6539   -4.3806   29.2650 H   0  0  0  0  0  0  0  0  0  0  0  0
    9.7844   -6.6119   27.3709 H   0  0  0  0  0  0  0  0  0  0  0  0
   10.0789   -3.0128   25.9998 H   0  0  0  0  0  0  0  0  0  0  0  0
    6.9018   -4.5154   24.9630 H   0  0  0  0  0  0  0  0  0  0  0  0
    9.2602   -4.1674   21.9290 H   0  0  0  0  0  0  0  0  0  0  0  0
    9.2624   -0.7306   25.4185 H   0  0  0  0  0  0  0  0  0  0  0  0
    8.2767    1.1779   19.2349 H   0  0  0  0  0  0  0  0  0  0  0  0
    8.6882   -0.4306   18.6409 H   0  0  0  0  0  0  0  0  0  0  0  0
    9.7337   -0.0894   20.8359 H   0  0  0  0  0  0  0  0  0  0  0  0
    8.1976    0.3944   21.5469 H   0  0  0  0  0  0  0  0  0  0  0  0
    6.0444    0.3891   19.9687 H   0  0  0  0  0  0  0  0  0  0  0  0
    6.2961    0.0038   18.2645 H   0  0  0  0  0  0  0  0  0  0  0  0
    6.6383   -3.0854   21.1497 H   0  0  0  0  0  0  0  0  0  0  0  0
    6.2418   -1.4571   21.6766 H   0  0  0  0  0  0  0  0  0  0  0  0
    8.8975   -2.3811   20.3974 H   0  0  0  0  0  0  0  0  0  0  0  0
    9.5329   -7.0818   24.9869 H   0  0  0  0  0  0  0  0  0  0  0  0
    8.3597   -6.2538   23.9885 H   0  0  0  0  0  0  0  0  0  0  0  0
   10.6501   -5.5670   23.3764 H   0  0  0  0  0  0  0  0  0  0  0  0
   11.0301   -5.1176   25.0231 H   0  0  0  0  0  0  0  0  0  0  0  0
    5.5865   -1.1320   17.0412 H   0  0  0  0  0  0  0  0  0  0  0  0
    5.4364   -2.8770   16.6357 H   0  0  0  0  0  0  0  0  0  0  0  0
  1  9  1  0  0  0  0
  1 22  3  0  0  0  0
  2  3  2  0  0  0  0
  2  4  1  0  0  0  0
  3  9  1  0  0  0  0
  4 10  2  0  0  0  0
  5  8  2  0  0  0  0
  5 11  1  0  0  0  0
  6  9  2  0  0  0  0
  6 10  1  0  0  0  0
  7 11  2  0  0  0  0
  7 12  1  0  0  0  0
  8 23  1  0  0  0  0
 10 19  1  0  0  0  0
 11 20  1  0  0  0  0
 12 18  1  0  0  0  0
 12 23  2  0  0  0  0
 13 21  1  0  0  0  0
 13 24  1  0  0  0  0
 13 25  2  0  0  0  0
 14 15  1  0  0  0  0
 14 16  1  0  0  0  0
 15 18  1  0  0  0  0
 16 24  1  0  0  0  0
 17 18  1  0  0  0  0
 17 24  1  0  0  0  0
 19 20  1  0  0  0  0
 21 26  1  0  0  0  0
  2 27  1  0  0  0  0
  3 28  1  0  0  0  0
  4 29  1  0  0  0  0
  5 30  1  0  0  0  0
  6 31  1  0  0  0  0
  7 32  1  0  0  0  0
  8 33  1  0  0  0  0
 14 34  1  0  0  0  0
 14 35  1  0  0  0  0
 15 36  1  0  0  0  0
 15 37  1  0  0  0  0
 16 38  1  0  0  0  0
 16 39  1  0  0  0  0
 17 40  1  0  0  0  0
 17 41  1  0  0  0  0
 18 42  1  0  0  0  0
 19 43  1  0  0  0  0
 19 44  1  0  0  0  0
 20 45  1  0  0  0  0
 20 46  1  0  0  0  0
 21 47  1  0  0  0  0
 21 48  1  0  0  0  0
M  END
> <creator>
Warren Thompson, XChem - Diamond Light Source

> <fragments>
x1334

> <real_space>
FALSE

> <SCR>
FALSE

> <BB>
FALSE

> <link>
https://covid.postera.ai/covid/submissions/bdd24732-f687-4f5f-b96b-e2bd62c18337

> <covalent_frag>
TRUE

> <covalent_warhead>
TRUE

> <acrylamide>
FALSE

> <acrylamide_adduct>
FALSE

> <chloroacetamide>
TRUE

> <chloroacetamide_adduct>
FALSE

> <vinylsulfonamide>
FALSE

> <vinylsulfonamide_adduct>
FALSE

> <in_molport_or_mcule>
FALSE

> <in_emolecules>
FALSE

> <Hybrid2>
-3.700049

> <Mpro-x1334_dock>
-3.700049

> <site>
active-covalent

> <covalent_distance_min>
2.9522424

> <covalent_distance_mean>
3.3245432

> <covalent_distance_stderr>
0.008092014

$$$$
JAN-GHE-bf4-2
  -OEChem-04062011563D

 57 60  0     0  0  0  0  0  0999 V2000
   12.2054    6.0687   24.9014 C   0  0  0  0  0  0  0  0  0  0  0  0
    8.5371   -5.8542   24.9497 C   0  0  0  0  0  0  0  0  0  0  0  0
    7.1883   -5.8152   24.5965 C   0  0  0  0  0  0  0  0  0  0  0  0
   13.2490    4.2699   23.6029 C   0  0  0  0  0  0  0  0  0  0  0  0
    9.3546   -4.7509   24.7042 C   0  0  0  0  0  0  0  0  0  0  0  0
   10.3978   -2.3844   22.6586 C   0  0  0  0  0  0  0  0  0  0  0  0
    9.8543   -1.4945   24.8380 C   0  0  0  0  0  0  0  0  0  0  0  0
   11.2439   -1.3001   22.4268 C   0  0  0  0  0  0  0  0  0  0  0  0
   10.7006   -0.4102   24.6063 C   0  0  0  0  0  0  0  0  0  0  0  0
    6.6570   -4.6730   23.9976 C   0  0  0  0  0  0  0  0  0  0  0  0
   13.2541    2.9474   23.1736 C   0  0  0  0  0  0  0  0  0  0  0  0
   11.2598    3.8115   24.8235 C   0  0  0  0  0  0  0  0  0  0  0  0
   12.2363    4.7182   24.4437 C   0  0  0  0  0  0  0  0  0  0  0  0
    9.7029   -2.4817   23.8642 C   0  0  0  0  0  0  0  0  0  0  0  0
    8.8233   -3.6087   24.1052 C   0  0  0  0  0  0  0  0  0  0  0  0
   11.3954   -0.3130   23.4006 C   0  0  0  0  0  0  0  0  0  0  0  0
    7.4745   -3.5697   23.7519 C   0  0  0  0  0  0  0  0  0  0  0  0
   12.2321    2.1200   23.6104 C   0  0  0  0  0  0  0  0  0  0  0  0
    6.8445   -2.2137   16.6433 C   0  0  0  0  0  0  0  0  0  0  0  0
    5.8808   -1.3267   16.8998 C   0  0  0  0  0  0  0  0  0  0  0  0
    6.0814   -0.3486   17.9939 C   0  0  0  0  0  0  0  0  0  0  0  0
    5.7166   -2.1514   19.7318 C   0  0  0  0  0  0  0  0  0  0  0  0
    7.0133   -0.1109   20.2643 C   0  0  0  0  0  0  0  0  0  0  0  0
    6.7929   -3.0037   20.3952 C   0  0  0  0  0  0  0  0  0  0  0  0
    8.0886   -0.9658   20.9232 C   0  0  0  0  0  0  0  0  0  0  0  0
   12.1802    7.1676   25.2737 N   0  0  0  0  0  0  0  0  0  0  0  0
   11.2315    2.5194   24.4271 N   0  0  0  0  0  0  0  0  0  0  0  0
    6.2759   -0.8785   19.2610 N   0  0  0  0  0  0  0  0  0  0  0  0
    7.4942   -2.2251   21.4561 N   0  0  0  0  0  0  0  0  0  0  0  0
   12.2509    0.7835   23.1663 N   0  0  0  0  0  0  0  0  0  0  0  0
    6.0508    0.8292   17.6620 O   0  0  0  0  0  0  0  0  0  0  0  0
    5.3339   -2.4024   22.8416 O   0  0  0  0  0  0  0  0  0  0  0  0
    7.2312   -0.9772   23.6883 O   0  0  0  0  0  0  0  0  0  0  0  0
    6.7509   -2.1507   22.9913 S   0  0  0  0  0  0  0  0  0  0  0  0
    8.9504   -6.7434   25.4168 H   0  0  0  0  0  0  0  0  0  0  0  0
    6.5517   -6.6739   24.7885 H   0  0  0  0  0  0  0  0  0  0  0  0
   14.0400    4.9393   23.2744 H   0  0  0  0  0  0  0  0  0  0  0  0
   10.4039   -4.7987   24.9860 H   0  0  0  0  0  0  0  0  0  0  0  0
   10.2903   -3.1460   21.8898 H   0  0  0  0  0  0  0  0  0  0  0  0
    9.3194   -1.5562   25.7827 H   0  0  0  0  0  0  0  0  0  0  0  0
   11.7808   -1.2340   21.4839 H   0  0  0  0  0  0  0  0  0  0  0  0
   10.8110    0.3534   25.3720 H   0  0  0  0  0  0  0  0  0  0  0  0
    5.6043   -4.6554   23.7277 H   0  0  0  0  0  0  0  0  0  0  0  0
   14.0410    2.5888   22.5183 H   0  0  0  0  0  0  0  0  0  0  0  0
   10.4428    4.0991   25.4791 H   0  0  0  0  0  0  0  0  0  0  0  0
    6.7557   -2.9542   15.8555 H   0  0  0  0  0  0  0  0  0  0  0  0
    7.7565   -2.2116   17.2309 H   0  0  0  0  0  0  0  0  0  0  0  0
    4.9577   -1.2971   16.3357 H   0  0  0  0  0  0  0  0  0  0  0  0
    5.2530   -2.7063   18.9119 H   0  0  0  0  0  0  0  0  0  0  0  0
    4.9278   -1.9034   20.4510 H   0  0  0  0  0  0  0  0  0  0  0  0
    6.2820    0.2303   21.0089 H   0  0  0  0  0  0  0  0  0  0  0  0
    7.4915    0.7747   19.8401 H   0  0  0  0  0  0  0  0  0  0  0  0
    6.3182   -3.8874   20.8472 H   0  0  0  0  0  0  0  0  0  0  0  0
    7.5215   -3.3577   19.6492 H   0  0  0  0  0  0  0  0  0  0  0  0
    8.8872   -1.2064   20.2054 H   0  0  0  0  0  0  0  0  0  0  0  0
    8.5375   -0.3982   21.7508 H   0  0  0  0  0  0  0  0  0  0  0  0
   13.0338    0.5656   22.5569 H   0  0  0  0  0  0  0  0  0  0  0  0
  1 13  1  0  0  0  0
  1 26  3  0  0  0  0
  2  3  1  0  0  0  0
  2  5  2  0  0  0  0
  3 10  2  0  0  0  0
  4 11  2  0  0  0  0
  4 13  1  0  0  0  0
  5 15  1  0  0  0  0
  6  8  2  0  0  0  0
  6 14  1  0  0  0  0
  7  9  1  0  0  0  0
  7 14  2  0  0  0  0
  8 16  1  0  0  0  0
  9 16  2  0  0  0  0
 10 17  1  0  0  0  0
 11 18  1  0  0  0  0
 12 13  2  0  0  0  0
 12 27  1  0  0  0  0
 14 15  1  0  0  0  0
 15 17  2  0  0  0  0
 16 30  1  0  0  0  0
 17 34  1  0  0  0  0
 18 27  2  0  0  0  0
 18 30  1  0  0  0  0
 19 20  2  0  0  0  0
 20 21  1  0  0  0  0
 21 28  1  0  0  0  0
 21 31  2  0  0  0  0
 22 24  1  0  0  0  0
 22 28  1  0  0  0  0
 23 25  1  0  0  0  0
 23 28  1  0  0  0  0
 24 29  1  0  0  0  0
 25 29  1  0  0  0  0
 29 34  1  0  0  0  0
 32 34  2  0  0  0  0
 33 34  2  0  0  0  0
  2 35  1  0  0  0  0
  3 36  1  0  0  0  0
  4 37  1  0  0  0  0
  5 38  1  0  0  0  0
  6 39  1  0  0  0  0
  7 40  1  0  0  0  0
  8 41  1  0  0  0  0
  9 42  1  0  0  0  0
 10 43  1  0  0  0  0
 11 44  1  0  0  0  0
 12 45  1  0  0  0  0
 19 46  1  0  0  0  0
 19 47  1  0  0  0  0
 20 48  1  0  0  0  0
 22 49  1  0  0  0  0
 22 50  1  0  0  0  0
 23 51  1  0  0  0  0
 23 52  1  0  0  0  0
 24 53  1  0  0  0  0
 24 54  1  0  0  0  0
 25 55  1  0  0  0  0
 25 56  1  0  0  0  0
 30 57  1  0  0  0  0
M  END
> <creator>
Jan, Ghent university

> <fragments>
x0692

> <real_space>
FALSE

> <SCR>
FALSE

> <BB>
FALSE

> <link>
https://covid.postera.ai/covid/submissions/bf40f168-4eec-438e-a3f5-b4da0b83bc9c

> <covalent_frag>
TRUE

> <covalent_warhead>
TRUE

> <acrylamide>
TRUE

> <acrylamide_adduct>
FALSE

> <chloroacetamide>
FALSE

> <chloroacetamide_adduct>
FALSE

> <vinylsulfonamide>
FALSE

> <vinylsulfonamide_adduct>
FALSE

> <in_molport_or_mcule>
FALSE

> <in_emolecules>
FALSE

> <Hybrid2>
-3.641435

> <Mpro-x0692_dock>
-3.641435

> <Mpro-x0305_dock>
-1.786795

> <Mpro-x0755_dock>
0.30146

> <site>
active-covalent

> <covalent_distance_min>
3.0005882

> <covalent_distance_mean>
3.9645493

> <covalent_distance_stderr>
0.095841534

$$$$
WAR-XCH-b03-7
  -OEChem-04062011563D

 59 61  0     0  0  0  0  0  0999 V2000
    7.4302   -1.8955   25.5691 C   0  0  0  0  0  0  0  0  0  0  0  0
    7.5215   -3.0929   25.5678 C   0  0  0  0  0  0  0  0  0  0  0  0
    6.0970   -2.7121   19.9740 C   0  0  0  0  0  0  0  0  0  0  0  0
    8.5555    2.2620   25.5791 C   0  0  0  0  0  0  0  0  0  0  0  0
    9.1305   -5.4090   27.9864 C   0  0  0  0  0  0  0  0  0  0  0  0
    7.9172    1.6823   26.8377 C   0  0  0  0  0  0  0  0  0  0  0  0
    7.9270    1.6856   24.3140 C   0  0  0  0  0  0  0  0  0  0  0  0
    9.8523   -4.7740   26.8013 C   0  0  0  0  0  0  0  0  0  0  0  0
    7.6810   -4.9422   28.0848 C   0  0  0  0  0  0  0  0  0  0  0  0
    7.9567    0.1555   26.8376 C   0  0  0  0  0  0  0  0  0  0  0  0
    7.9669    0.1589   24.3103 C   0  0  0  0  0  0  0  0  0  0  0  0
    9.1010   -5.0115   25.4888 C   0  0  0  0  0  0  0  0  0  0  0  0
    6.9207   -5.1803   26.7776 C   0  0  0  0  0  0  0  0  0  0  0  0
    8.1377   -3.5339   22.8035 C   0  0  0  0  0  0  0  0  0  0  0  0
    7.0155   -5.6300   21.9347 C   0  0  0  0  0  0  0  0  0  0  0  0
    6.9444   -2.7233   22.2979 C   0  0  0  0  0  0  0  0  0  0  0  0
    5.8484   -4.7693   21.4485 C   0  0  0  0  0  0  0  0  0  0  0  0
    7.3183   -0.4270   25.5706 C   0  0  0  0  0  0  0  0  0  0  0  0
    7.7784   -4.9921   23.0982 C   0  0  0  0  0  0  0  0  0  0  0  0
    7.6342   -4.5627   25.5656 C   0  0  0  0  0  0  0  0  0  0  0  0
    6.5861   -1.2867   19.9221 C   0  0  0  0  0  0  0  0  0  0  0  0
    6.2912   -3.3966   21.1736 N   0  0  0  0  0  0  0  0  0  0  0  0
    6.9424   -5.0558   24.3310 N   0  3  0  0  0  0  0  0  0  0  0  0
    5.5572   -3.2000   18.9777 O   0  0  0  0  0  0  0  0  0  0  0  0
    6.2451   -0.6958   18.2996 Cl  0  0  0  0  0  0  0  0  0  0  0  0
    8.4382    3.3523   25.5801 H   0  0  0  0  0  0  0  0  0  0  0  0
    9.6314    2.0563   25.5830 H   0  0  0  0  0  0  0  0  0  0  0  0
    9.1546   -6.5010   27.8842 H   0  0  0  0  0  0  0  0  0  0  0  0
    9.6600   -5.1645   28.9141 H   0  0  0  0  0  0  0  0  0  0  0  0
    8.4374    2.0687   27.7225 H   0  0  0  0  0  0  0  0  0  0  0  0
    6.8776    2.0219   26.9102 H   0  0  0  0  0  0  0  0  0  0  0  0
    6.8879    2.0249   24.2348 H   0  0  0  0  0  0  0  0  0  0  0  0
    8.4536    2.0746   23.4341 H   0  0  0  0  0  0  0  0  0  0  0  0
    9.9665   -3.6974   26.9757 H   0  0  0  0  0  0  0  0  0  0  0  0
   10.8635   -5.1896   26.7235 H   0  0  0  0  0  0  0  0  0  0  0  0
    7.1796   -5.4748   28.9012 H   0  0  0  0  0  0  0  0  0  0  0  0
    7.6558   -3.8762   28.3418 H   0  0  0  0  0  0  0  0  0  0  0  0
    8.9913   -0.1813   26.9349 H   0  0  0  0  0  0  0  0  0  0  0  0
    7.4144   -0.2062   27.7152 H   0  0  0  0  0  0  0  0  0  0  0  0
    7.4319   -0.2010   23.4270 H   0  0  0  0  0  0  0  0  0  0  0  0
    9.0024   -0.1772   24.2210 H   0  0  0  0  0  0  0  0  0  0  0  0
    9.6281   -4.4926   24.6777 H   0  0  0  0  0  0  0  0  0  0  0  0
    9.1491   -6.0855   25.2624 H   0  0  0  0  0  0  0  0  0  0  0  0
    6.8228   -6.2655   26.6375 H   0  0  0  0  0  0  0  0  0  0  0  0
    5.9033   -4.7810   26.8797 H   0  0  0  0  0  0  0  0  0  0  0  0
    8.9257   -3.5140   22.0391 H   0  0  0  0  0  0  0  0  0  0  0  0
    8.5618   -3.0553   23.6943 H   0  0  0  0  0  0  0  0  0  0  0  0
    6.6507   -6.6254   22.2153 H   0  0  0  0  0  0  0  0  0  0  0  0
    7.7116   -5.7815   21.0993 H   0  0  0  0  0  0  0  0  0  0  0  0
    6.1936   -2.5943   23.0856 H   0  0  0  0  0  0  0  0  0  0  0  0
    7.2805   -1.7223   22.0093 H   0  0  0  0  0  0  0  0  0  0  0  0
    5.4027   -5.2376   20.5690 H   0  0  0  0  0  0  0  0  0  0  0  0
    5.0613   -4.7102   22.2088 H   0  0  0  0  0  0  0  0  0  0  0  0
    6.2610   -0.1693   25.5667 H   0  0  0  0  0  0  0  0  0  0  0  0
    8.6817   -5.5701   23.3247 H   0  0  0  0  0  0  0  0  0  0  0  0
    7.6544   -1.2746   20.1056 H   0  0  0  0  0  0  0  0  0  0  0  0
    6.0411   -0.7013   20.6537 H   0  0  0  0  0  0  0  0  0  0  0  0
    6.0850   -4.5094   24.1801 H   0  0  0  0  0  0  0  0  0  0  0  0
    6.6376   -6.0266   24.4763 H   0  0  0  0  0  0  0  0  0  0  0  0
  1  2  3  0  0  0  0
  1 18  1  0  0  0  0
  2 20  1  0  0  0  0
  3 21  1  0  0  0  0
  3 22  1  0  0  0  0
  3 24  2  0  0  0  0
  4  6  1  0  0  0  0
  4  7  1  0  0  0  0
  5  8  1  0  0  0  0
  5  9  1  0  0  0  0
  6 10  1  0  0  0  0
  7 11  1  0  0  0  0
  8 12  1  0  0  0  0
  9 13  1  0  0  0  0
 10 18  1  0  0  0  0
 11 18  1  0  0  0  0
 12 20  1  0  0  0  0
 13 20  1  0  0  0  0
 14 16  1  0  0  0  0
 14 19  1  0  0  0  0
 15 17  1  0  0  0  0
 15 19  1  0  0  0  0
 16 22  1  0  0  0  0
 17 22  1  0  0  0  0
 19 23  1  0  0  0  0
 20 23  1  0  0  0  0
 21 25  1  0  0  0  0
  4 26  1  0  0  0  0
  4 27  1  0  0  0  0
  5 28  1  0  0  0  0
  5 29  1  0  0  0  0
  6 30  1  0  0  0  0
  6 31  1  0  0  0  0
  7 32  1  0  0  0  0
  7 33  1  0  0  0  0
  8 34  1  0  0  0  0
  8 35  1  0  0  0  0
  9 36  1  0  0  0  0
  9 37  1  0  0  0  0
 10 38  1  0  0  0  0
 10 39  1  0  0  0  0
 11 40  1  0  0  0  0
 11 41  1  0  0  0  0
 12 42  1  0  0  0  0
 12 43  1  0  0  0  0
 13 44  1  0  0  0  0
 13 45  1  0  0  0  0
 14 46  1  0  0  0  0
 14 47  1  0  0  0  0
 15 48  1  0  0  0  0
 15 49  1  0  0  0  0
 16 50  1  0  0  0  0
 16 51  1  0  0  0  0
 17 52  1  0  0  0  0
 17 53  1  0  0  0  0
 18 54  1  0  0  0  0
 19 55  1  0  0  0  0
 21 56  1  0  0  0  0
 21 57  1  0  0  0  0
 23 58  1  0  0  0  0
 23 59  1  0  0  0  0
M  CHG  1  23   1
M  END
> <creator>
Warren Thompson, XChem - Diamond Light Source

> <fragments>
x1458

> <real_space>
FALSE

> <SCR>
FALSE

> <BB>
FALSE

> <link>
https://covid.postera.ai/covid/submissions/b0339bbe-c90e-4133-a07d-b9c731b043e2

> <covalent_frag>
TRUE

> <covalent_warhead>
TRUE

> <acrylamide>
FALSE

> <acrylamide_adduct>
FALSE

> <chloroacetamide>
TRUE

> <chloroacetamide_adduct>
FALSE

> <vinylsulfonamide>
FALSE

> <vinylsulfonamide_adduct>
FALSE

> <in_molport_or_mcule>
FALSE

> <in_emolecules>
FALSE

> <Hybrid2>
-3.589585

> <Mpro-x1458_dock>
-3.589585

> <Mpro-x1478_dock>
-1.482204

> <Mpro-x1493_dock>
-1.086086

> <site>
active-covalent

> <covalent_distance_min>
2.8648307

> <covalent_distance_mean>
3.3448427

> <covalent_distance_stderr>
0.0106882015

$$$$
WAR-XCH-79d-6
  -OEChem-04062011563D

 40 41  0     0  0  0  0  0  0999 V2000
    3.9016   -2.0626   25.4436 C   0  0  0  0  0  0  0  0  0  0  0  0
    5.0463   -1.2832   25.6103 C   0  0  0  0  0  0  0  0  0  0  0  0
    5.2814   -3.9859   24.9599 C   0  0  0  0  0  0  0  0  0  0  0  0
    4.0191   -3.4139   25.1184 C   0  0  0  0  0  0  0  0  0  0  0  0
    6.3086   -1.8552   25.4518 C   0  0  0  0  0  0  0  0  0  0  0  0
    6.4262   -3.2065   25.1266 C   0  0  0  0  0  0  0  0  0  0  0  0
    6.5878   -2.3571   19.5012 C   0  0  0  0  0  0  0  0  0  0  0  0
    8.2926   -2.2014   21.2806 C   0  0  0  0  0  0  0  0  0  0  0  0
    6.5674   -3.9870   21.4362 C   0  0  0  0  0  0  0  0  0  0  0  0
    8.2635   -2.2804   22.8006 C   0  0  0  0  0  0  0  0  0  0  0  0
    7.6161   -4.6642   22.3086 C   0  0  0  0  0  0  0  0  0  0  0  0
    2.7948   -4.2471   24.9417 C   0  0  0  0  0  0  0  0  0  0  0  0
    7.5142   -0.9928   25.6372 C   0  0  0  0  0  0  0  0  0  0  0  0
    7.2848   -1.1597   18.9035 C   0  0  0  0  0  0  0  0  0  0  0  0
    7.1194   -2.8488   20.6934 N   0  0  0  0  0  0  0  0  0  0  0  0
    8.2478   -3.6991   23.2524 N   0  0  0  0  0  0  0  0  0  0  0  0
    5.6036   -2.8362   18.9331 O   0  0  0  0  0  0  0  0  0  0  0  0
    8.9724   -3.1822   25.6647 O   0  0  0  0  0  0  0  0  0  0  0  0
    7.8571   -5.3828   25.1538 O   0  0  0  0  0  0  0  0  0  0  0  0
    8.0078   -3.9627   24.9204 S   0  0  0  0  0  0  0  0  0  0  0  0
    6.4390   -0.7792   17.4076 Cl  0  0  0  0  0  0  0  0  0  0  0  0
    2.9223   -1.6086   25.5702 H   0  0  0  0  0  0  0  0  0  0  0  0
    4.9432   -0.2319   25.8660 H   0  0  0  0  0  0  0  0  0  0  0  0
    5.3696   -5.0398   24.7065 H   0  0  0  0  0  0  0  0  0  0  0  0
    8.2740   -1.1521   20.9520 H   0  0  0  0  0  0  0  0  0  0  0  0
    9.2284   -2.6339   20.9124 H   0  0  0  0  0  0  0  0  0  0  0  0
    6.1241   -4.7215   20.7483 H   0  0  0  0  0  0  0  0  0  0  0  0
    5.7459   -3.5941   22.0560 H   0  0  0  0  0  0  0  0  0  0  0  0
    9.1343   -1.7613   23.2329 H   0  0  0  0  0  0  0  0  0  0  0  0
    7.3569   -1.7736   23.1662 H   0  0  0  0  0  0  0  0  0  0  0  0
    7.1308   -5.4712   22.8864 H   0  0  0  0  0  0  0  0  0  0  0  0
    8.3963   -5.1359   21.6823 H   0  0  0  0  0  0  0  0  0  0  0  0
    2.4630   -4.2214   23.8965 H   0  0  0  0  0  0  0  0  0  0  0  0
    2.9799   -5.2920   25.2224 H   0  0  0  0  0  0  0  0  0  0  0  0
    1.9739   -3.8885   25.5763 H   0  0  0  0  0  0  0  0  0  0  0  0
    7.8377   -1.0128   26.6842 H   0  0  0  0  0  0  0  0  0  0  0  0
    8.3453   -1.3333   25.0076 H   0  0  0  0  0  0  0  0  0  0  0  0
    7.3048    0.0465   25.3554 H   0  0  0  0  0  0  0  0  0  0  0  0
    8.3152   -1.4220   18.6921 H   0  0  0  0  0  0  0  0  0  0  0  0
    7.2104   -0.3283   19.5951 H   0  0  0  0  0  0  0  0  0  0  0  0
  1  2  2  0  0  0  0
  1  4  1  0  0  0  0
  2  5  1  0  0  0  0
  3  4  2  0  0  0  0
  3  6  1  0  0  0  0
  4 12  1  0  0  0  0
  5  6  2  0  0  0  0
  5 13  1  0  0  0  0
  6 20  1  0  0  0  0
  7 14  1  0  0  0  0
  7 15  1  0  0  0  0
  7 17  2  0  0  0  0
  8 10  1  0  0  0  0
  8 15  1  0  0  0  0
  9 11  1  0  0  0  0
  9 15  1  0  0  0  0
 10 16  1  0  0  0  0
 11 16  1  0  0  0  0
 14 21  1  0  0  0  0
 16 20  1  0  0  0  0
 18 20  2  0  0  0  0
 19 20  2  0  0  0  0
  1 22  1  0  0  0  0
  2 23  1  0  0  0  0
  3 24  1  0  0  0  0
  8 25  1  0  0  0  0
  8 26  1  0  0  0  0
  9 27  1  0  0  0  0
  9 28  1  0  0  0  0
 10 29  1  0  0  0  0
 10 30  1  0  0  0  0
 11 31  1  0  0  0  0
 11 32  1  0  0  0  0
 12 33  1  0  0  0  0
 12 34  1  0  0  0  0
 12 35  1  0  0  0  0
 13 36  1  0  0  0  0
 13 37  1  0  0  0  0
 13 38  1  0  0  0  0
 14 39  1  0  0  0  0
 14 40  1  0  0  0  0
M  END
> <creator>
Warren Thompson, XChem - Diamond Light Source

> <fragments>
x1478

> <real_space>
Z166605410

> <SCR>
Z166605410

> <BB>
EN300-22818

> <link>
https://covid.postera.ai/covid/submissions/79d12f6e-a32e-4f5a-9965-cd14d93bc08a

> <covalent_frag>
TRUE

> <covalent_warhead>
TRUE

> <acrylamide>
FALSE

> <acrylamide_adduct>
FALSE

> <chloroacetamide>
TRUE

> <chloroacetamide_adduct>
FALSE

> <vinylsulfonamide>
FALSE

> <vinylsulfonamide_adduct>
FALSE

> <in_molport_or_mcule>
TRUE

> <in_emolecules>
TRUE

> <Hybrid2>
-3.587647

> <Mpro-x1478_dock>
-3.587647

> <Mpro-x1493_dock>
-1.832654

> <site>
active-covalent

> <covalent_distance_min>
3.102138

> <covalent_distance_mean>
3.599305

> <covalent_distance_stderr>
0.022821989

$$$$
DAR-DIA-fb2-17
  -OEChem-04062011563D

 55 57  0     0  0  0  0  0  0999 V2000
   13.3058    6.1811   22.9359 C   0  0  0  0  0  0  0  0  0  0  0  0
   12.0164    4.2448   23.7115 C   0  0  0  0  0  0  0  0  0  0  0  0
   10.8709    6.0725   22.7095 C   0  0  0  0  0  0  0  0  0  0  0  0
   12.0652    5.5014   23.1183 C   0  0  0  0  0  0  0  0  0  0  0  0
   10.7919    3.6067   23.8755 C   0  0  0  0  0  0  0  0  0  0  0  0
    9.6545    4.2627   23.4330 C   0  0  0  0  0  0  0  0  0  0  0  0
   13.2314   -2.4496   22.9819 C   0  0  0  0  0  0  0  0  0  0  0  0
    7.0853    2.6328   21.6687 C   0  0  0  0  0  0  0  0  0  0  0  0
   11.0727   -1.2409   22.9984 C   0  0  0  0  0  0  0  0  0  0  0  0
   13.1146    0.0439   22.4953 C   0  0  0  0  0  0  0  0  0  0  0  0
    5.9546    1.5069   19.7767 C   0  0  0  0  0  0  0  0  0  0  0  0
    7.7614    0.2770   20.9179 C   0  0  0  0  0  0  0  0  0  0  0  0
   10.6389   -0.1934   24.0133 C   0  0  0  0  0  0  0  0  0  0  0  0
   12.7103    1.1124   23.5020 C   0  0  0  0  0  0  0  0  0  0  0  0
    6.5028    0.9868   18.4572 C   0  0  0  0  0  0  0  0  0  0  0  0
    8.2120   -0.2069   19.5437 C   0  0  0  0  0  0  0  0  0  0  0  0
   10.7322    2.2509   24.5151 C   0  0  0  0  0  0  0  0  0  0  0  0
    8.3122    3.6255   23.5843 C   0  0  0  0  0  0  0  0  0  0  0  0
   14.7279   -2.3754   22.8126 C   0  0  0  0  0  0  0  0  0  0  0  0
   14.3152    6.7341   22.7874 N   0  0  0  0  0  0  0  0  0  0  0  0
    9.6624    5.4834   22.8520 N   0  0  0  0  0  0  0  0  0  0  0  0
   12.5276   -1.2540   22.8455 N   0  0  0  0  0  0  0  0  0  0  0  0
    6.9958    1.5268   20.8068 N   0  0  0  0  0  0  0  0  0  0  0  0
    8.0956    2.5691   22.6211 N   0  0  0  0  0  0  0  0  0  0  0  0
   11.2020    1.1499   23.6065 N   0  3  0  0  0  0  0  0  0  0  0  0
   12.7060   -3.5378   23.2306 O   0  0  0  0  0  0  0  0  0  0  0  0
    6.3192    3.5995   21.5980 O   0  0  0  0  0  0  0  0  0  0  0  0
    7.1024   -0.2958   18.6492 O   0  0  0  0  0  0  0  0  0  0  0  0
   15.3980   -2.0245   24.4018 Cl  0  0  0  0  0  0  0  0  0  0  0  0
   12.9295    3.7589   24.0482 H   0  0  0  0  0  0  0  0  0  0  0  0
   10.8411    7.0516   22.2394 H   0  0  0  0  0  0  0  0  0  0  0  0
   10.7061   -2.2244   23.3088 H   0  0  0  0  0  0  0  0  0  0  0  0
   10.6399   -1.0294   22.0130 H   0  0  0  0  0  0  0  0  0  0  0  0
   12.7550    0.3034   21.4922 H   0  0  0  0  0  0  0  0  0  0  0  0
   14.2036   -0.0028   22.4418 H   0  0  0  0  0  0  0  0  0  0  0  0
    5.5108    2.4974   19.6404 H   0  0  0  0  0  0  0  0  0  0  0  0
    5.1706    0.8359   20.1479 H   0  0  0  0  0  0  0  0  0  0  0  0
    7.0891   -0.4564   21.3775 H   0  0  0  0  0  0  0  0  0  0  0  0
    8.6409    0.3865   21.5540 H   0  0  0  0  0  0  0  0  0  0  0  0
    9.5483   -0.0989   24.0292 H   0  0  0  0  0  0  0  0  0  0  0  0
   11.0048   -0.4209   25.0209 H   0  0  0  0  0  0  0  0  0  0  0  0
   13.1120    0.9082   24.5009 H   0  0  0  0  0  0  0  0  0  0  0  0
   13.0387    2.1018   23.1674 H   0  0  0  0  0  0  0  0  0  0  0  0
    5.6876    0.8672   17.7366 H   0  0  0  0  0  0  0  0  0  0  0  0
    7.2336    1.6783   18.0214 H   0  0  0  0  0  0  0  0  0  0  0  0
    8.9763    0.4543   19.1180 H   0  0  0  0  0  0  0  0  0  0  0  0
    8.6505   -1.2063   19.6286 H   0  0  0  0  0  0  0  0  0  0  0  0
   11.3599    2.2081   25.4117 H   0  0  0  0  0  0  0  0  0  0  0  0
    9.7086    1.9984   24.8121 H   0  0  0  0  0  0  0  0  0  0  0  0
    8.1932    3.1906   24.5857 H   0  0  0  0  0  0  0  0  0  0  0  0
    7.5042    4.3578   23.4566 H   0  0  0  0  0  0  0  0  0  0  0  0
   14.9642   -1.5726   22.1235 H   0  0  0  0  0  0  0  0  0  0  0  0
   15.0895   -3.3343   22.4594 H   0  0  0  0  0  0  0  0  0  0  0  0
    8.7015    1.7584   22.6443 H   0  0  0  0  0  0  0  0  0  0  0  0
   10.8348    1.3669   22.6696 H   0  0  0  0  0  0  0  0  0  0  0  0
  1  4  1  0  0  0  0
  1 20  3  0  0  0  0
  2  4  2  0  0  0  0
  2  5  1  0  0  0  0
  3  4  1  0  0  0  0
  3 21  2  0  0  0  0
  5  6  2  0  0  0  0
  5 17  1  0  0  0  0
  6 18  1  0  0  0  0
  6 21  1  0  0  0  0
  7 19  1  0  0  0  0
  7 22  1  0  0  0  0
  7 26  2  0  0  0  0
  8 23  1  0  0  0  0
  8 24  1  0  0  0  0
  8 27  2  0  0  0  0
  9 13  1  0  0  0  0
  9 22  1  0  0  0  0
 10 14  1  0  0  0  0
 10 22  1  0  0  0  0
 11 15  1  0  0  0  0
 11 23  1  0  0  0  0
 12 16  1  0  0  0  0
 12 23  1  0  0  0  0
 13 25  1  0  0  0  0
 14 25  1  0  0  0  0
 15 28  1  0  0  0  0
 16 28  1  0  0  0  0
 17 25  1  0  0  0  0
 18 24  1  0  0  0  0
 19 29  1  0  0  0  0
  2 30  1  0  0  0  0
  3 31  1  0  0  0  0
  9 32  1  0  0  0  0
  9 33  1  0  0  0  0
 10 34  1  0  0  0  0
 10 35  1  0  0  0  0
 11 36  1  0  0  0  0
 11 37  1  0  0  0  0
 12 38  1  0  0  0  0
 12 39  1  0  0  0  0
 13 40  1  0  0  0  0
 13 41  1  0  0  0  0
 14 42  1  0  0  0  0
 14 43  1  0  0  0  0
 15 44  1  0  0  0  0
 15 45  1  0  0  0  0
 16 46  1  0  0  0  0
 16 47  1  0  0  0  0
 17 48  1  0  0  0  0
 17 49  1  0  0  0  0
 18 50  1  0  0  0  0
 18 51  1  0  0  0  0
 19 52  1  0  0  0  0
 19 53  1  0  0  0  0
 24 54  1  0  0  0  0
 25 55  1  0  0  0  0
M  CHG  1  25   1
M  END
> <creator>
Daren Fearon, Diamond Light Source Ltd

> <fragments>
x0195

> <real_space>
FALSE

> <SCR>
FALSE

> <BB>
FALSE

> <link>
https://covid.postera.ai/covid/submissions/fb20be43-b2ad-4a19-a5ce-eb2fe8d462e2

> <covalent_frag>
TRUE

> <covalent_warhead>
TRUE

> <acrylamide>
FALSE

> <acrylamide_adduct>
FALSE

> <chloroacetamide>
TRUE

> <chloroacetamide_adduct>
FALSE

> <vinylsulfonamide>
FALSE

> <vinylsulfonamide_adduct>
FALSE

> <in_molport_or_mcule>
FALSE

> <in_emolecules>
FALSE

> <Hybrid2>
-3.553147

> <Mpro-x0195_dock>
-3.553147

> <Mpro-x0305_dock>
-3.29743

> <Mpro-x0104_dock>
-2.864568

> <Mpro-x0830_dock>
-2.220334

> <site>
active-noncovalent

> <covalent_distance_min>
5.1929092

> <covalent_distance_mean>
6.3173556

> <covalent_distance_stderr>
0.079380974

$$$$
MAK-UNK-69e-1
  -OEChem-04062011563D

 66 69  0     1  0  0  0  0  0999 V2000
   13.7383    2.9766   20.9964 C   0  0  0  0  0  0  0  0  0  0  0  0
   13.8591    1.6245   21.3170 C   0  0  0  0  0  0  0  0  0  0  0  0
   13.0001    3.8257   21.8209 C   0  0  0  0  0  0  0  0  0  0  0  0
    5.9818   -0.7820   25.2054 C   0  0  0  0  0  0  0  0  0  0  0  0
    5.5487   -1.8522   24.4173 C   0  0  0  0  0  0  0  0  0  0  0  0
    7.8100   -2.2665   23.6351 C   0  0  0  0  0  0  0  0  0  0  0  0
   12.5035    1.9705   23.2867 C   0  0  0  0  0  0  0  0  0  0  0  0
    9.3765    0.4367   25.5323 C   0  0  0  0  0  0  0  0  0  0  0  0
    8.2700   -1.1917   24.4216 C   0  0  0  0  0  0  0  0  0  0  0  0
   13.2417    1.1215   22.4622 C   0  0  0  0  0  0  0  0  0  0  0  0
   12.3827    3.3227   22.9661 C   0  0  0  0  0  0  0  0  0  0  0  0
    7.3471   -0.4757   25.1871 C   0  0  0  0  0  0  0  0  0  0  0  0
    9.5462   -0.6049   24.6495 C   0  0  0  0  0  0  0  0  0  0  0  0
    6.4470   -2.5844   23.6435 C   0  0  0  0  0  0  0  0  0  0  0  0
    6.4893    6.2685   23.1036 C   0  0  0  0  0  0  0  0  0  0  0  0
    8.8997    6.8177   23.0067 C   0  0  0  0  0  0  0  0  0  0  0  0
    8.1792    4.6177   22.1617 C   0  0  0  0  0  0  0  0  0  0  0  0
   10.0023    6.1645   23.8272 C   0  0  0  0  0  0  0  0  0  0  0  0
    9.2729    3.9310   22.9686 C   0  0  0  0  0  0  0  0  0  0  0  0
   12.3471   -1.2090   20.6866 C   0  0  0  0  0  0  0  0  0  0  0  0
   13.3726   -0.3241   22.8051 C   0  0  0  0  0  0  0  0  0  0  0  0
   11.5883    4.2359   23.8526 C   0  0  0  0  0  0  0  0  0  0  0  0
    5.4063    5.2520   22.8436 C   0  0  0  0  0  0  0  0  0  0  0  0
   12.5538   -2.7705   22.6453 C   0  0  0  0  0  0  0  0  0  0  0  0
   10.8616   -0.9257   22.6944 C   0  0  0  0  0  0  0  0  0  0  0  0
   12.2878   -1.3043   22.2312 C   0  0  2  0  0  0  0  0  0  0  0  0
    8.0469    0.5066   25.8509 N   0  0  0  0  0  0  0  0  0  0  0  0
    7.7917    5.8894   22.7815 N   0  0  0  0  0  0  0  0  0  0  0  0
   10.4328    4.8854   23.1444 N   0  3  0  0  0  0  0  0  0  0  0  0
    6.1853    7.3647   23.5810 O   0  0  0  0  0  0  0  0  0  0  0  0
   13.8294   -3.2086   22.1960 O   0  0  0  0  0  0  0  0  0  0  0  0
   10.7509   -0.9744   24.1109 O   0  0  0  0  0  0  0  0  0  0  0  0
    6.0018   -3.6052   22.8981 F   0  0  0  0  0  0  0  0  0  0  0  0
    5.2748    4.2724   24.3000 Cl  0  0  0  0  0  0  0  0  0  0  0  0
   14.2192    3.3683   20.1047 H   0  0  0  0  0  0  0  0  0  0  0  0
   14.4367    0.9706   20.6688 H   0  0  0  0  0  0  0  0  0  0  0  0
   12.9107    4.8777   21.5630 H   0  0  0  0  0  0  0  0  0  0  0  0
    5.2817   -0.2126   25.8075 H   0  0  0  0  0  0  0  0  0  0  0  0
    4.4945   -2.1166   24.4087 H   0  0  0  0  0  0  0  0  0  0  0  0
    8.4985   -2.8462   23.0269 H   0  0  0  0  0  0  0  0  0  0  0  0
   12.0227    1.5791   24.1802 H   0  0  0  0  0  0  0  0  0  0  0  0
   10.0814    1.1345   25.9623 H   0  0  0  0  0  0  0  0  0  0  0  0
    8.5516    7.7216   23.5164 H   0  0  0  0  0  0  0  0  0  0  0  0
    9.2773    7.1244   22.0236 H   0  0  0  0  0  0  0  0  0  0  0  0
    8.5322    4.8441   21.1483 H   0  0  0  0  0  0  0  0  0  0  0  0
    7.3307    3.9390   22.0600 H   0  0  0  0  0  0  0  0  0  0  0  0
   10.8803    6.8160   23.8831 H   0  0  0  0  0  0  0  0  0  0  0  0
    9.6661    5.9097   24.8386 H   0  0  0  0  0  0  0  0  0  0  0  0
    8.9245    3.6372   23.9652 H   0  0  0  0  0  0  0  0  0  0  0  0
    9.6513    3.0525   22.4361 H   0  0  0  0  0  0  0  0  0  0  0  0
   11.6123   -1.8708   20.2147 H   0  0  0  0  0  0  0  0  0  0  0  0
   13.3375   -1.4924   20.3123 H   0  0  0  0  0  0  0  0  0  0  0  0
   12.1397   -0.1910   20.3386 H   0  0  0  0  0  0  0  0  0  0  0  0
   13.3989   -0.4322   23.9051 H   0  0  0  0  0  0  0  0  0  0  0  0
   14.3707   -0.6799   22.4892 H   0  0  0  0  0  0  0  0  0  0  0  0
   11.1688    3.6928   24.7063 H   0  0  0  0  0  0  0  0  0  0  0  0
   12.2116    5.0460   24.2461 H   0  0  0  0  0  0  0  0  0  0  0  0
    5.6999    4.6327   22.0037 H   0  0  0  0  0  0  0  0  0  0  0  0
    4.4733    5.7720   22.6591 H   0  0  0  0  0  0  0  0  0  0  0  0
   11.7987   -3.4356   22.2101 H   0  0  0  0  0  0  0  0  0  0  0  0
   12.5111   -2.8904   23.7329 H   0  0  0  0  0  0  0  0  0  0  0  0
   10.1127   -1.6003   22.2662 H   0  0  0  0  0  0  0  0  0  0  0  0
   10.6108    0.0920   22.3734 H   0  0  0  0  0  0  0  0  0  0  0  0
    7.6373    1.1819   26.4815 H   0  0  0  0  0  0  0  0  0  0  0  0
   10.7691    5.1362   22.2044 H   0  0  0  0  0  0  0  0  0  0  0  0
   13.9282   -4.1289   22.4885 H   0  0  0  0  0  0  0  0  0  0  0  0
  1  2  2  0  0  0  0
  1  3  1  0  0  0  0
  2 10  1  0  0  0  0
  3 11  2  0  0  0  0
  4  5  2  0  0  0  0
  4 12  1  0  0  0  0
  5 14  1  0  0  0  0
  6  9  1  0  0  0  0
  6 14  2  0  0  0  0
  7 10  2  0  0  0  0
  7 11  1  0  0  0  0
  8 13  2  0  0  0  0
  8 27  1  0  0  0  0
  9 12  2  0  0  0  0
  9 13  1  0  0  0  0
 10 21  1  0  0  0  0
 11 22  1  0  0  0  0
 12 27  1  0  0  0  0
 13 32  1  0  0  0  0
 14 33  1  0  0  0  0
 15 23  1  0  0  0  0
 15 28  1  0  0  0  0
 15 30  2  0  0  0  0
 16 18  1  0  0  0  0
 16 28  1  0  0  0  0
 17 19  1  0  0  0  0
 17 28  1  0  0  0  0
 18 29  1  0  0  0  0
 19 29  1  0  0  0  0
 20 26  1  0  0  0  0
 21 26  1  0  0  0  0
 22 29  1  0  0  0  0
 23 34  1  0  0  0  0
 24 26  1  0  0  0  0
 24 31  1  0  0  0  0
 25 26  1  0  0  0  0
 25 32  1  0  0  0  0
  1 35  1  0  0  0  0
  2 36  1  0  0  0  0
  3 37  1  0  0  0  0
  4 38  1  0  0  0  0
  5 39  1  0  0  0  0
  6 40  1  0  0  0  0
  7 41  1  0  0  0  0
  8 42  1  0  0  0  0
 16 43  1  0  0  0  0
 16 44  1  0  0  0  0
 17 45  1  0  0  0  0
 17 46  1  0  0  0  0
 18 47  1  0  0  0  0
 18 48  1  0  0  0  0
 19 49  1  0  0  0  0
 19 50  1  0  0  0  0
 20 51  1  0  0  0  0
 20 52  1  0  0  0  0
 20 53  1  0  0  0  0
 21 54  1  0  0  0  0
 21 55  1  0  0  0  0
 22 56  1  0  0  0  0
 22 57  1  0  0  0  0
 23 58  1  0  0  0  0
 23 59  1  0  0  0  0
 24 60  1  0  0  0  0
 24 61  1  0  0  0  0
 25 62  1  0  0  0  0
 25 63  1  0  0  0  0
 27 64  1  0  0  0  0
 29 65  1  0  0  0  0
 31 66  1  0  0  0  0
M  CHG  1  29   1
M  END
> <creator>
Maksym Voznyy

> <fragments>
x0104

> <real_space>
FALSE

> <SCR>
FALSE

> <BB>
FALSE

> <link>
https://covid.postera.ai/covid/submissions/69e28b36-592b-444d-b690-de445bee4fc3

> <covalent_frag>
TRUE

> <covalent_warhead>
TRUE

> <acrylamide>
FALSE

> <acrylamide_adduct>
FALSE

> <chloroacetamide>
TRUE

> <chloroacetamide_adduct>
FALSE

> <vinylsulfonamide>
FALSE

> <vinylsulfonamide_adduct>
FALSE

> <in_molport_or_mcule>
FALSE

> <in_emolecules>
FALSE

> <Hybrid2>
-3.540390

> <Mpro-x0104_dock>
-3.54039

> <Mpro-x0692_dock>
-0.826936

> <site>
active-noncovalent

> <covalent_distance_min>
8.222254

> <covalent_distance_mean>
9.819401

> <covalent_distance_stderr>
0.15744495

$$$$
VIR-GIT-7b3-2
  -OEChem-04062011563D

 39 40  0     0  0  0  0  0  0999 V2000
    7.3469   -4.5460   26.1924 C   0  0  0  0  0  0  0  0  0  0  0  0
    6.4872   -3.5631   21.2573 C   0  0  0  0  0  0  0  0  0  0  0  0
    7.2223   -4.7393   30.3957 C   0  0  0  0  0  0  0  0  0  0  0  0
    7.6622   -5.8947   29.4980 C   0  0  0  0  0  0  0  0  0  0  0  0
    6.4208   -3.7072   29.6039 C   0  0  0  0  0  0  0  0  0  0  0  0
    8.2674   -3.1952   24.3164 C   0  0  0  0  0  0  0  0  0  0  0  0
    5.7685   -3.2102   24.7839 C   0  0  0  0  0  0  0  0  0  0  0  0
    8.4048   -5.3847   28.2660 C   0  0  0  0  0  0  0  0  0  0  0  0
    7.1862   -3.2384   28.3684 C   0  0  0  0  0  0  0  0  0  0  0  0
    8.0076   -4.1194   23.1281 C   0  0  0  0  0  0  0  0  0  0  0  0
    5.5842   -4.1197   23.5683 C   0  0  0  0  0  0  0  0  0  0  0  0
    7.1749   -3.2917   25.3861 C   0  0  0  0  0  0  0  0  0  0  0  0
    7.5950   -2.7640   20.6185 C   0  0  0  0  0  0  0  0  0  0  0  0
    7.6092   -4.3835   27.5523 N   0  0  0  0  0  0  0  0  0  0  0  0
    6.6614   -3.9133   22.5956 N   0  0  0  0  0  0  0  0  0  0  0  0
    7.2491   -5.6408   25.6320 O   0  0  0  0  0  0  0  0  0  0  0  0
    5.4987   -3.8676   20.5849 O   0  0  0  0  0  0  0  0  0  0  0  0
    7.7119   -1.2560   21.5186 Cl  0  0  0  0  0  0  0  0  0  0  0  0
    6.6192   -5.1221   31.2265 H   0  0  0  0  0  0  0  0  0  0  0  0
    8.1059   -4.2591   30.8334 H   0  0  0  0  0  0  0  0  0  0  0  0
    8.3090   -6.5743   30.0641 H   0  0  0  0  0  0  0  0  0  0  0  0
    6.7844   -6.4727   29.1840 H   0  0  0  0  0  0  0  0  0  0  0  0
    5.4610   -4.1415   29.2970 H   0  0  0  0  0  0  0  0  0  0  0  0
    6.1941   -2.8484   30.2454 H   0  0  0  0  0  0  0  0  0  0  0  0
    9.2476   -3.4307   24.7482 H   0  0  0  0  0  0  0  0  0  0  0  0
    8.3202   -2.1606   23.9539 H   0  0  0  0  0  0  0  0  0  0  0  0
    5.5747   -2.1741   24.4777 H   0  0  0  0  0  0  0  0  0  0  0  0
    5.0156   -3.4636   25.5399 H   0  0  0  0  0  0  0  0  0  0  0  0
    9.3472   -4.9058   28.5574 H   0  0  0  0  0  0  0  0  0  0  0  0
    8.6543   -6.2253   27.6108 H   0  0  0  0  0  0  0  0  0  0  0  0
    6.5676   -2.5387   27.8039 H   0  0  0  0  0  0  0  0  0  0  0  0
    8.0950   -2.7007   28.6643 H   0  0  0  0  0  0  0  0  0  0  0  0
    8.7638   -3.9453   22.3560 H   0  0  0  0  0  0  0  0  0  0  0  0
    8.0867   -5.1710   23.4274 H   0  0  0  0  0  0  0  0  0  0  0  0
    5.6131   -5.1745   23.8644 H   0  0  0  0  0  0  0  0  0  0  0  0
    4.5993   -3.9412   23.1328 H   0  0  0  0  0  0  0  0  0  0  0  0
    7.3044   -2.4625   26.0934 H   0  0  0  0  0  0  0  0  0  0  0  0
    7.3323   -2.5619   19.5863 H   0  0  0  0  0  0  0  0  0  0  0  0
    8.5219   -3.3198   20.7011 H   0  0  0  0  0  0  0  0  0  0  0  0
  1 12  1  0  0  0  0
  1 14  1  0  0  0  0
  1 16  2  0  0  0  0
  2 13  1  0  0  0  0
  2 15  1  0  0  0  0
  2 17  2  0  0  0  0
  3  4  1  0  0  0  0
  3  5  1  0  0  0  0
  4  8  1  0  0  0  0
  5  9  1  0  0  0  0
  6 10  1  0  0  0  0
  6 12  1  0  0  0  0
  7 11  1  0  0  0  0
  7 12  1  0  0  0  0
  8 14  1  0  0  0  0
  9 14  1  0  0  0  0
 10 15  1  0  0  0  0
 11 15  1  0  0  0  0
 13 18  1  0  0  0  0
  3 19  1  0  0  0  0
  3 20  1  0  0  0  0
  4 21  1  0  0  0  0
  4 22  1  0  0  0  0
  5 23  1  0  0  0  0
  5 24  1  0  0  0  0
  6 25  1  0  0  0  0
  6 26  1  0  0  0  0
  7 27  1  0  0  0  0
  7 28  1  0  0  0  0
  8 29  1  0  0  0  0
  8 30  1  0  0  0  0
  9 31  1  0  0  0  0
  9 32  1  0  0  0  0
 10 33  1  0  0  0  0
 10 34  1  0  0  0  0
 11 35  1  0  0  0  0
 11 36  1  0  0  0  0
 12 37  1  0  0  0  0
 13 38  1  0  0  0  0
 13 39  1  0  0  0  0
M  END
> <creator>
Viromics, githubsubmission

> <fragments>
x1380

> <real_space>
FALSE

> <SCR>
Z291278798

> <BB>
EN300-46675

> <link>
https://covid.postera.ai/covid/submissions/7b3d3065-7119-4dff-b3fd-df4d793955e8

> <covalent_frag>
TRUE

> <covalent_warhead>
TRUE

> <acrylamide>
FALSE

> <acrylamide_adduct>
FALSE

> <chloroacetamide>
TRUE

> <chloroacetamide_adduct>
FALSE

> <vinylsulfonamide>
FALSE

> <vinylsulfonamide_adduct>
FALSE

> <in_molport_or_mcule>
FALSE

> <in_emolecules>
FALSE

> <Hybrid2>
-3.481020

> <Mpro-x1380_dock>
-3.48102

> <Mpro-x1458_dock>
-2.909359

> <site>
active-covalent

> <covalent_distance_min>
3.2890604

> <covalent_distance_mean>
3.7820938

> <covalent_distance_stderr>
0.03367203

$$$$
STU-CHA-6d5-1
  -OEChem-04062011563D

 56 58  0     0  0  0  0  0  0999 V2000
   12.3272    2.0903   23.7942 C   0  0  0  0  0  0  0  0  0  0  0  0
   12.4296    3.3846   23.2844 C   0  0  0  0  0  0  0  0  0  0  0  0
   10.2420    3.9055   24.1678 C   0  0  0  0  0  0  0  0  0  0  0  0
   11.1823    1.7036   24.4907 C   0  0  0  0  0  0  0  0  0  0  0  0
   10.1397    2.6112   24.6775 C   0  0  0  0  0  0  0  0  0  0  0  0
   11.3870    4.2922   23.4712 C   0  0  0  0  0  0  0  0  0  0  0  0
    4.3184    0.5867   22.7649 C   0  0  0  0  0  0  0  0  0  0  0  0
    6.7477    0.9821   22.5134 C   0  0  0  0  0  0  0  0  0  0  0  0
    5.9575   -0.0824   24.5907 C   0  0  0  0  0  0  0  0  0  0  0  0
   11.5133   -2.8830   22.6780 C   0  0  0  0  0  0  0  0  0  0  0  0
   12.1519   -0.9455   21.3032 C   0  0  0  0  0  0  0  0  0  0  0  0
    7.5832    1.9708   23.3135 C   0  0  0  0  0  0  0  0  0  0  0  0
    6.7831    0.8897   25.4227 C   0  0  0  0  0  0  0  0  0  0  0  0
   12.9768   -3.3018   22.6751 C   0  0  0  0  0  0  0  0  0  0  0  0
   13.5885   -1.4461   21.3579 C   0  0  0  0  0  0  0  0  0  0  0  0
   11.0946    0.3124   25.0267 C   0  0  0  0  0  0  0  0  0  0  0  0
    8.8980    2.2174   25.4220 C   0  0  0  0  0  0  0  0  0  0  0  0
    4.1973    0.4857   21.2653 C   0  0  0  0  0  0  0  0  0  0  0  0
    5.6057    0.5062   23.2941 N   0  0  0  0  0  0  0  0  0  0  0  0
   11.4390   -1.3996   22.5330 N   0  0  0  0  0  0  0  0  0  0  0  0
    9.9699   -0.4094   24.4901 N   0  0  0  0  0  0  0  0  0  0  0  0
    7.9884    1.3285   24.6214 N   0  3  0  0  0  0  0  0  0  0  0  0
    3.2984    0.7301   23.4439 O   0  0  0  0  0  0  0  0  0  0  0  0
    8.8954   -1.7337   22.5299 O   0  0  0  0  0  0  0  0  0  0  0  0
    9.8344    0.5623   22.0927 O   0  0  0  0  0  0  0  0  0  0  0  0
   13.6139   -2.8707   21.4704 O   0  0  0  0  0  0  0  0  0  0  0  0
    9.8920   -0.7108   22.7854 S   0  0  0  0  0  0  0  0  0  0  0  0
   11.5129    5.8882   22.8406 Cl  0  0  0  0  0  0  0  0  0  0  0  0
    4.2768    2.1296   20.6417 Cl  0  0  0  0  0  0  0  0  0  0  0  0
   13.1450    1.3907   23.6429 H   0  0  0  0  0  0  0  0  0  0  0  0
   13.3272    3.6712   22.7424 H   0  0  0  0  0  0  0  0  0  0  0  0
    9.4256    4.6093   24.3146 H   0  0  0  0  0  0  0  0  0  0  0  0
    6.4132    1.4542   21.5843 H   0  0  0  0  0  0  0  0  0  0  0  0
    7.3448    0.1051   22.2352 H   0  0  0  0  0  0  0  0  0  0  0  0
    6.5275   -0.9974   24.3886 H   0  0  0  0  0  0  0  0  0  0  0  0
    5.0728   -0.3762   25.1582 H   0  0  0  0  0  0  0  0  0  0  0  0
   10.9804   -3.3493   21.8414 H   0  0  0  0  0  0  0  0  0  0  0  0
   11.0447   -3.1886   23.6187 H   0  0  0  0  0  0  0  0  0  0  0  0
   12.1447    0.1478   21.2514 H   0  0  0  0  0  0  0  0  0  0  0  0
   11.6386   -1.3517   20.4240 H   0  0  0  0  0  0  0  0  0  0  0  0
    8.5025    2.2241   22.7757 H   0  0  0  0  0  0  0  0  0  0  0  0
    7.0268    2.8858   23.5457 H   0  0  0  0  0  0  0  0  0  0  0  0
    6.2133    1.7861   25.6919 H   0  0  0  0  0  0  0  0  0  0  0  0
    7.1546    0.4022   26.3298 H   0  0  0  0  0  0  0  0  0  0  0  0
   13.5152   -2.8902   23.5373 H   0  0  0  0  0  0  0  0  0  0  0  0
   13.0541   -4.3925   22.7225 H   0  0  0  0  0  0  0  0  0  0  0  0
   14.1147   -1.1741   20.4375 H   0  0  0  0  0  0  0  0  0  0  0  0
   14.1367   -1.0061   22.1995 H   0  0  0  0  0  0  0  0  0  0  0  0
   12.0008   -0.2601   24.7869 H   0  0  0  0  0  0  0  0  0  0  0  0
   10.9959    0.3095   26.1202 H   0  0  0  0  0  0  0  0  0  0  0  0
    9.1428    1.6720   26.3397 H   0  0  0  0  0  0  0  0  0  0  0  0
    8.3098    3.0974   25.7036 H   0  0  0  0  0  0  0  0  0  0  0  0
    3.2402    0.0402   21.0192 H   0  0  0  0  0  0  0  0  0  0  0  0
    5.0276   -0.0978   20.8842 H   0  0  0  0  0  0  0  0  0  0  0  0
    9.6303   -1.2035   25.0751 H   0  0  0  0  0  0  0  0  0  0  0  0
    8.5305    0.4832   24.3945 H   0  0  0  0  0  0  0  0  0  0  0  0
  1  2  2  0  0  0  0
  1  4  1  0  0  0  0
  2  6  1  0  0  0  0
  3  5  1  0  0  0  0
  3  6  2  0  0  0  0
  4  5  2  0  0  0  0
  4 16  1  0  0  0  0
  5 17  1  0  0  0  0
  6 28  1  0  0  0  0
  7 18  1  0  0  0  0
  7 19  1  0  0  0  0
  7 23  2  0  0  0  0
  8 12  1  0  0  0  0
  8 19  1  0  0  0  0
  9 13  1  0  0  0  0
  9 19  1  0  0  0  0
 10 14  1  0  0  0  0
 10 20  1  0  0  0  0
 11 15  1  0  0  0  0
 11 20  1  0  0  0  0
 12 22  1  0  0  0  0
 13 22  1  0  0  0  0
 14 26  1  0  0  0  0
 15 26  1  0  0  0  0
 16 21  1  0  0  0  0
 17 22  1  0  0  0  0
 18 29  1  0  0  0  0
 20 27  1  0  0  0  0
 21 27  1  0  0  0  0
 24 27  2  0  0  0  0
 25 27  2  0  0  0  0
  1 30  1  0  0  0  0
  2 31  1  0  0  0  0
  3 32  1  0  0  0  0
  8 33  1  0  0  0  0
  8 34  1  0  0  0  0
  9 35  1  0  0  0  0
  9 36  1  0  0  0  0
 10 37  1  0  0  0  0
 10 38  1  0  0  0  0
 11 39  1  0  0  0  0
 11 40  1  0  0  0  0
 12 41  1  0  0  0  0
 12 42  1  0  0  0  0
 13 43  1  0  0  0  0
 13 44  1  0  0  0  0
 14 45  1  0  0  0  0
 14 46  1  0  0  0  0
 15 47  1  0  0  0  0
 15 48  1  0  0  0  0
 16 49  1  0  0  0  0
 16 50  1  0  0  0  0
 17 51  1  0  0  0  0
 17 52  1  0  0  0  0
 18 53  1  0  0  0  0
 18 54  1  0  0  0  0
 21 55  1  0  0  0  0
 22 56  1  0  0  0  0
M  CHG  1  22   1
M  END
> <creator>
Stuart Ward, Charles River Laboratories

> <fragments>
x1249

> <real_space>
FALSE

> <SCR>
FALSE

> <BB>
FALSE

> <link>
https://covid.postera.ai/covid/submissions/6d5cfe2b-c732-4c87-8d39-35c58c1d871b

> <covalent_frag>
TRUE

> <covalent_warhead>
TRUE

> <acrylamide>
FALSE

> <acrylamide_adduct>
FALSE

> <chloroacetamide>
TRUE

> <chloroacetamide_adduct>
FALSE

> <vinylsulfonamide>
FALSE

> <vinylsulfonamide_adduct>
FALSE

> <in_molport_or_mcule>
FALSE

> <in_emolecules>
FALSE

> <Hybrid2>
-3.463517

> <Mpro-x1249_dock>
-3.463517

> <Mpro-x0770_dock>
-3.40561

> <site>
active-noncovalent

> <covalent_distance_min>
9.905239

> <covalent_distance_mean>
10.607738

> <covalent_distance_stderr>
0.047340397

$$$$
WAR-XCH-79d-7
  -OEChem-04062011563D

 48 50  0     0  0  0  0  0  0999 V2000
    2.0805   -1.2643   24.9196 C   0  0  0  0  0  0  0  0  0  0  0  0
    2.1397   -2.5919   24.4959 C   0  0  0  0  0  0  0  0  0  0  0  0
    3.2206   -0.6435   25.4300 C   0  0  0  0  0  0  0  0  0  0  0  0
    3.3390   -3.2989   24.5829 C   0  0  0  0  0  0  0  0  0  0  0  0
    4.4199   -1.3505   25.5170 C   0  0  0  0  0  0  0  0  0  0  0  0
    4.4791   -2.6782   25.0934 C   0  0  0  0  0  0  0  0  0  0  0  0
    6.7093   -2.3191   19.8444 C   0  0  0  0  0  0  0  0  0  0  0  0
    7.7156   -5.1462   26.8055 C   0  0  0  0  0  0  0  0  0  0  0  0
    6.9222   -5.7515   25.6558 C   0  0  0  0  0  0  0  0  0  0  0  0
    7.9775   -3.6630   26.5852 C   0  0  0  0  0  0  0  0  0  0  0  0
    5.6213   -4.9848   25.4072 C   0  0  0  0  0  0  0  0  0  0  0  0
    6.6851   -2.8836   26.3308 C   0  0  0  0  0  0  0  0  0  0  0  0
    7.3965   -1.7656   22.1558 C   0  0  0  0  0  0  0  0  0  0  0  0
    6.9690   -4.1306   21.6105 C   0  0  0  0  0  0  0  0  0  0  0  0
    6.5276   -1.8741   23.4003 C   0  0  0  0  0  0  0  0  0  0  0  0
    6.0945   -4.2753   22.8487 C   0  0  0  0  0  0  0  0  0  0  0  0
    5.8019   -3.4574   25.1898 C   0  0  0  0  0  0  0  0  0  0  0  0
    7.4619   -1.1097   19.3497 C   0  0  0  0  0  0  0  0  0  0  0  0
    6.9892   -2.7402   21.1436 N   0  0  0  0  0  0  0  0  0  0  0  0
    6.5644   -3.2996   23.9044 N   0  3  0  0  0  0  0  0  0  0  0  0
    5.8994   -2.8728   19.0964 O   0  0  0  0  0  0  0  0  0  0  0  0
    6.2529    0.0948   18.9194 Cl  0  0  0  0  0  0  0  0  0  0  0  0
    1.1470   -0.7135   24.8505 H   0  0  0  0  0  0  0  0  0  0  0  0
    1.2523   -3.0750   24.0974 H   0  0  0  0  0  0  0  0  0  0  0  0
    3.1752    0.3904   25.7589 H   0  0  0  0  0  0  0  0  0  0  0  0
    3.3757   -4.3330   24.2506 H   0  0  0  0  0  0  0  0  0  0  0  0
    5.3031   -0.8588   25.9161 H   0  0  0  0  0  0  0  0  0  0  0  0
    7.1623   -5.2834   27.7428 H   0  0  0  0  0  0  0  0  0  0  0  0
    8.6675   -5.6773   26.9176 H   0  0  0  0  0  0  0  0  0  0  0  0
    7.5335   -5.7589   24.7460 H   0  0  0  0  0  0  0  0  0  0  0  0
    6.6893   -6.7981   25.8840 H   0  0  0  0  0  0  0  0  0  0  0  0
    8.4835   -3.2478   27.4646 H   0  0  0  0  0  0  0  0  0  0  0  0
    8.6642   -3.5315   25.7408 H   0  0  0  0  0  0  0  0  0  0  0  0
    5.0970   -5.4285   24.5502 H   0  0  0  0  0  0  0  0  0  0  0  0
    4.9612   -5.1468   26.2715 H   0  0  0  0  0  0  0  0  0  0  0  0
    6.1035   -2.8789   27.2639 H   0  0  0  0  0  0  0  0  0  0  0  0
    6.9277   -1.8315   26.1303 H   0  0  0  0  0  0  0  0  0  0  0  0
    7.3408   -0.7472   21.7589 H   0  0  0  0  0  0  0  0  0  0  0  0
    8.4480   -1.9625   22.3982 H   0  0  0  0  0  0  0  0  0  0  0  0
    8.0047   -4.4134   21.8347 H   0  0  0  0  0  0  0  0  0  0  0  0
    6.6114   -4.8142   20.8386 H   0  0  0  0  0  0  0  0  0  0  0  0
    6.9160   -1.2351   24.1999 H   0  0  0  0  0  0  0  0  0  0  0  0
    5.4824   -1.6161   23.1957 H   0  0  0  0  0  0  0  0  0  0  0  0
    5.0417   -4.0591   22.6351 H   0  0  0  0  0  0  0  0  0  0  0  0
    6.1864   -5.2814   23.2705 H   0  0  0  0  0  0  0  0  0  0  0  0
    8.0379   -1.3880   18.4746 H   0  0  0  0  0  0  0  0  0  0  0  0
    8.0915   -0.7363   20.1492 H   0  0  0  0  0  0  0  0  0  0  0  0
    7.5479   -3.5254   24.1122 H   0  0  0  0  0  0  0  0  0  0  0  0
  1  2  1  0  0  0  0
  1  3  2  0  0  0  0
  2  4  2  0  0  0  0
  3  5  1  0  0  0  0
  4  6  1  0  0  0  0
  5  6  2  0  0  0  0
  6 17  1  0  0  0  0
  7 18  1  0  0  0  0
  7 19  1  0  0  0  0
  7 21  2  0  0  0  0
  8  9  1  0  0  0  0
  8 10  1  0  0  0  0
  9 11  1  0  0  0  0
 10 12  1  0  0  0  0
 11 17  1  0  0  0  0
 12 17  1  0  0  0  0
 13 15  1  0  0  0  0
 13 19  1  0  0  0  0
 14 16  1  0  0  0  0
 14 19  1  0  0  0  0
 15 20  1  0  0  0  0
 16 20  1  0  0  0  0
 17 20  1  0  0  0  0
 18 22  1  0  0  0  0
  1 23  1  0  0  0  0
  2 24  1  0  0  0  0
  3 25  1  0  0  0  0
  4 26  1  0  0  0  0
  5 27  1  0  0  0  0
  8 28  1  0  0  0  0
  8 29  1  0  0  0  0
  9 30  1  0  0  0  0
  9 31  1  0  0  0  0
 10 32  1  0  0  0  0
 10 33  1  0  0  0  0
 11 34  1  0  0  0  0
 11 35  1  0  0  0  0
 12 36  1  0  0  0  0
 12 37  1  0  0  0  0
 13 38  1  0  0  0  0
 13 39  1  0  0  0  0
 14 40  1  0  0  0  0
 14 41  1  0  0  0  0
 15 42  1  0  0  0  0
 15 43  1  0  0  0  0
 16 44  1  0  0  0  0
 16 45  1  0  0  0  0
 18 46  1  0  0  0  0
 18 47  1  0  0  0  0
 20 48  1  0  0  0  0
M  CHG  1  20   1
M  END
> <creator>
Warren Thompson, XChem - Diamond Light Source

> <fragments>
x1478

> <real_space>
FALSE

> <SCR>
FALSE

> <BB>
FALSE

> <link>
https://covid.postera.ai/covid/submissions/79d12f6e-a32e-4f5a-9965-cd14d93bc08a

> <covalent_frag>
TRUE

> <covalent_warhead>
TRUE

> <acrylamide>
FALSE

> <acrylamide_adduct>
FALSE

> <chloroacetamide>
TRUE

> <chloroacetamide_adduct>
FALSE

> <vinylsulfonamide>
FALSE

> <vinylsulfonamide_adduct>
FALSE

> <in_molport_or_mcule>
FALSE

> <in_emolecules>
FALSE

> <Hybrid2>
-3.456313

> <Mpro-x1478_dock>
-3.456313

> <Mpro-x1493_dock>
-3.162938

> <site>
active-covalent

> <covalent_distance_min>
2.9889765

> <covalent_distance_mean>
3.490636

> <covalent_distance_stderr>
0.016651105

$$$$
DAN-LON-a5f-6
  -OEChem-04062011563D

 45 47  0     1  0  0  0  0  0999 V2000
    5.8554   -2.4507   23.0343 C   0  0  0  0  0  0  0  0  0  0  0  0
    8.7653   -0.4913   22.2791 C   0  0  0  0  0  0  0  0  0  0  0  0
    9.5422   -2.1782   20.7339 C   0  0  0  0  0  0  0  0  0  0  0  0
    6.9291   -2.3332   23.9168 C   0  0  0  0  0  0  0  0  0  0  0  0
    5.8464   -3.4663   22.0781 C   0  0  0  0  0  0  0  0  0  0  0  0
    7.8492   -0.0420   21.3281 C   0  0  0  0  0  0  0  0  0  0  0  0
    8.6260   -1.7290   19.7829 C   0  0  0  0  0  0  0  0  0  0  0  0
    7.9850   -4.2467   22.8869 C   0  0  0  0  0  0  0  0  0  0  0  0
    9.6119   -1.5594   21.9820 C   0  0  0  0  0  0  0  0  0  0  0  0
    7.9939   -3.2311   23.8431 C   0  0  0  0  0  0  0  0  0  0  0  0
    7.7795   -0.6608   20.0800 C   0  0  0  0  0  0  0  0  0  0  0  0
    6.9112   -4.3643   22.0044 C   0  0  0  0  0  0  0  0  0  0  0  0
   12.4924    1.0576   23.3300 C   0  0  0  0  0  0  0  0  0  0  0  0
   11.8609   -0.4719   25.2331 C   0  0  0  0  0  0  0  0  0  0  0  0
   11.9627   -1.3212   22.9013 C   0  0  0  0  0  0  0  0  0  0  0  0
   11.1660   -1.8043   25.4748 C   0  0  0  0  0  0  0  0  0  0  0  0
   10.6078   -2.0497   23.0172 C   0  0  1  0  0  0  0  0  0  0  0  0
    9.1491   -3.1033   24.7919 C   0  0  0  0  0  0  0  0  0  0  0  0
   13.3321    1.0385   22.0758 C   0  0  0  0  0  0  0  0  0  0  0  0
   12.0829   -0.1866   23.8136 N   0  0  0  0  0  0  0  0  0  0  0  0
   10.0687   -1.9600   24.4515 N   0  3  1  0  0  0  0  0  0  0  0  0
   12.2213    2.1353   23.8644 O   0  0  0  0  0  0  0  0  0  0  0  0
    6.6492   -0.1065   18.9071 Cl  0  0  0  0  0  0  0  0  0  0  0  0
    6.9001   -5.6164   20.8238 Cl  0  0  0  0  0  0  0  0  0  0  0  0
   12.2121    1.0914   20.7192 Cl  0  0  0  0  0  0  0  0  0  0  0  0
    5.0264   -1.7512   23.0919 H   0  0  0  0  0  0  0  0  0  0  0  0
    8.8137   -0.0037   23.2493 H   0  0  0  0  0  0  0  0  0  0  0  0
   10.1980   -3.0112   20.4946 H   0  0  0  0  0  0  0  0  0  0  0  0
    6.9277   -1.5387   24.6585 H   0  0  0  0  0  0  0  0  0  0  0  0
    5.0030   -3.5458   21.3966 H   0  0  0  0  0  0  0  0  0  0  0  0
    7.1958    0.7911   21.5739 H   0  0  0  0  0  0  0  0  0  0  0  0
    8.5831   -2.2208   18.8145 H   0  0  0  0  0  0  0  0  0  0  0  0
    8.8174   -4.9447   22.8339 H   0  0  0  0  0  0  0  0  0  0  0  0
   11.2596    0.3596   25.6447 H   0  0  0  0  0  0  0  0  0  0  0  0
   12.8172   -0.4550   25.7841 H   0  0  0  0  0  0  0  0  0  0  0  0
   12.7770   -2.0454   23.0516 H   0  0  0  0  0  0  0  0  0  0  0  0
   12.1055   -0.9277   21.8787 H   0  0  0  0  0  0  0  0  0  0  0  0
   11.8524   -2.6436   25.3645 H   0  0  0  0  0  0  0  0  0  0  0  0
   10.7033   -1.8182   26.4606 H   0  0  0  0  0  0  0  0  0  0  0  0
   10.7528   -3.1501   22.8318 H   0  0  0  0  0  0  0  0  0  0  0  0
    8.8027   -2.9338   25.8170 H   0  0  0  0  0  0  0  0  0  0  0  0
    9.7625   -4.0108   24.7927 H   0  0  0  0  0  0  0  0  0  0  0  0
   13.9045    0.1183   22.0503 H   0  0  0  0  0  0  0  0  0  0  0  0
   13.9698    1.9149   22.0668 H   0  0  0  0  0  0  0  0  0  0  0  0
    9.4905   -1.0986   24.4948 H   0  0  0  0  0  0  0  0  0  0  0  0
  1  4  2  0  0  0  0
  1  5  1  0  0  0  0
  2  6  2  0  0  0  0
  2  9  1  0  0  0  0
  3  7  1  0  0  0  0
  3  9  2  0  0  0  0
  4 10  1  0  0  0  0
  5 12  2  0  0  0  0
  6 11  1  0  0  0  0
  7 11  2  0  0  0  0
  8 10  2  0  0  0  0
  8 12  1  0  0  0  0
  9 17  1  0  0  0  0
 10 18  1  0  0  0  0
 11 23  1  0  0  0  0
 12 24  1  0  0  0  0
 13 19  1  0  0  0  0
 13 20  1  0  0  0  0
 13 22  2  0  0  0  0
 14 16  1  0  0  0  0
 14 20  1  0  0  0  0
 15 17  1  0  0  0  0
 15 20  1  0  0  0  0
 16 21  1  0  0  0  0
 17 21  1  0  0  0  0
 18 21  1  0  0  0  0
 19 25  1  0  0  0  0
  1 26  1  0  0  0  0
  2 27  1  0  0  0  0
  3 28  1  0  0  0  0
  4 29  1  0  0  0  0
  5 30  1  0  0  0  0
  6 31  1  0  0  0  0
  7 32  1  0  0  0  0
  8 33  1  0  0  0  0
 14 34  1  0  0  0  0
 14 35  1  0  0  0  0
 15 36  1  0  0  0  0
 15 37  1  0  0  0  0
 16 38  1  0  0  0  0
 16 39  1  0  0  0  0
 17 40  1  0  0  0  0
 18 41  1  0  0  0  0
 18 42  1  0  0  0  0
 19 43  1  0  0  0  0
 19 44  1  0  0  0  0
 21 45  1  0  0  0  0
M  CHG  1  21   1
M  END
> <creator>
Daniel Zaidman, London Lab, Weizmann Institute of Science

> <fragments>
x0770

> <real_space>
FALSE

> <SCR>
FALSE

> <BB>
FALSE

> <link>
https://covid.postera.ai/covid/submissions/a5fc619e-a7a0-43cf-a105-697cf3dc31cf

> <covalent_frag>
TRUE

> <covalent_warhead>
TRUE

> <acrylamide>
FALSE

> <acrylamide_adduct>
FALSE

> <chloroacetamide>
TRUE

> <chloroacetamide_adduct>
FALSE

> <vinylsulfonamide>
FALSE

> <vinylsulfonamide_adduct>
FALSE

> <in_molport_or_mcule>
FALSE

> <in_emolecules>
FALSE

> <Hybrid2>
-3.445186

> <Mpro-x0770_dock>
-3.445186

> <site>
active-covalent

> <covalent_distance_min>
8.519554

> <covalent_distance_mean>
9.241642

> <covalent_distance_stderr>
0.030759966

$$$$
BEN-VAN-77c-11
  -OEChem-04062011563D

 52 54  0     1  0  0  0  0  0999 V2000
    6.7360   -6.0352   24.4716 C   0  0  0  0  0  0  0  0  0  0  0  0
    5.3497   -4.7966   22.8734 C   0  0  0  0  0  0  0  0  0  0  0  0
    5.2217   -3.7859   21.9271 C   0  0  0  0  0  0  0  0  0  0  0  0
    9.3229   -1.2080   24.4591 C   0  0  0  0  0  0  0  0  0  0  0  0
    6.7032   -0.7764   23.6027 C   0  0  0  0  0  0  0  0  0  0  0  0
    7.6328   -4.1863   23.1404 C   0  0  0  0  0  0  0  0  0  0  0  0
    6.5748   -5.0071   23.4962 C   0  0  0  0  0  0  0  0  0  0  0  0
    9.0795   -0.7404   23.1678 C   0  0  0  0  0  0  0  0  0  0  0  0
    7.7696   -0.5246   22.7396 C   0  0  0  0  0  0  0  0  0  0  0  0
    8.2565   -1.4599   25.3223 C   0  0  0  0  0  0  0  0  0  0  0  0
    6.9467   -1.2441   24.8941 C   0  0  0  0  0  0  0  0  0  0  0  0
    6.3403   -3.0196   21.6416 C   0  0  0  0  0  0  0  0  0  0  0  0
   13.3242    3.5553   25.3338 C   0  0  0  0  0  0  0  0  0  0  0  0
   12.5741    2.4514   25.3308 C   0  0  0  0  0  0  0  0  0  0  0  0
   11.5534    2.2849   24.2751 C   0  0  0  0  0  0  0  0  0  0  0  0
   12.7427    0.1737   23.5379 C   0  0  0  0  0  0  0  0  0  0  0  0
   10.7300    0.9847   22.3456 C   0  0  0  0  0  0  0  0  0  0  0  0
   12.6004   -0.9115   22.4805 C   0  0  0  0  0  0  0  0  0  0  0  0
   10.2548   -0.4750   22.2479 C   0  0  1  0  0  0  0  0  0  0  0  0
    6.9893   -0.5822   18.9190 C   0  0  0  0  0  0  0  0  0  0  0  0
    7.4842   -0.0239   21.3619 C   0  0  0  0  0  0  0  0  0  0  0  0
    7.2977   -1.1403   20.3084 C   0  0  1  0  0  0  0  0  0  0  0  0
    6.8672   -6.8718   25.2652 N   0  0  0  0  0  0  0  0  0  0  0  0
    7.5468   -3.1944   22.2258 N   0  0  0  0  0  0  0  0  0  0  0  0
   11.6773    1.1764   23.4416 N   0  0  0  0  0  0  0  0  0  0  0  0
    6.1984   -2.0256   20.7043 N   0  0  0  0  0  0  0  0  0  0  0  0
   10.6597    3.1285   24.1965 O   0  0  0  0  0  0  0  0  0  0  0  0
   11.2804   -1.4449   22.5068 O   0  0  0  0  0  0  0  0  0  0  0  0
    8.4904   -1.9080   26.5628 F   0  0  0  0  0  0  0  0  0  0  0  0
    5.9227   -1.4876   25.7227 F   0  0  0  0  0  0  0  0  0  0  0  0
    4.4866   -5.4117   23.1152 H   0  0  0  0  0  0  0  0  0  0  0  0
    4.2691   -3.6138   21.4369 H   0  0  0  0  0  0  0  0  0  0  0  0
   10.3396   -1.3796   24.8027 H   0  0  0  0  0  0  0  0  0  0  0  0
    5.6791   -0.6115   23.2788 H   0  0  0  0  0  0  0  0  0  0  0  0
    8.6149   -4.2991   23.5909 H   0  0  0  0  0  0  0  0  0  0  0  0
   14.0890    3.7342   26.0823 H   0  0  0  0  0  0  0  0  0  0  0  0
   13.1810    4.3128   24.5705 H   0  0  0  0  0  0  0  0  0  0  0  0
   12.6875    1.6738   26.0747 H   0  0  0  0  0  0  0  0  0  0  0  0
   12.6532   -0.2677   24.5407 H   0  0  0  0  0  0  0  0  0  0  0  0
   13.7333    0.6411   23.4724 H   0  0  0  0  0  0  0  0  0  0  0  0
   11.1538    1.2850   21.3786 H   0  0  0  0  0  0  0  0  0  0  0  0
    9.8814    1.6568   22.5518 H   0  0  0  0  0  0  0  0  0  0  0  0
   12.8272   -0.5287   21.4800 H   0  0  0  0  0  0  0  0  0  0  0  0
   13.2954   -1.7283   22.6919 H   0  0  0  0  0  0  0  0  0  0  0  0
    9.8625   -0.6672   21.2000 H   0  0  0  0  0  0  0  0  0  0  0  0
    6.0820    0.0327   18.9373 H   0  0  0  0  0  0  0  0  0  0  0  0
    6.8384   -1.3835   18.1869 H   0  0  0  0  0  0  0  0  0  0  0  0
    7.8033    0.0556   18.5596 H   0  0  0  0  0  0  0  0  0  0  0  0
    6.5943    0.6296   21.3634 H   0  0  0  0  0  0  0  0  0  0  0  0
    8.3156    0.6333   21.0525 H   0  0  0  0  0  0  0  0  0  0  0  0
    8.2088   -1.7464   20.2446 H   0  0  0  0  0  0  0  0  0  0  0  0
    5.3118   -1.8784   20.2574 H   0  0  0  0  0  0  0  0  0  0  0  0
  1  7  1  0  0  0  0
  1 23  3  0  0  0  0
  2  3  2  0  0  0  0
  2  7  1  0  0  0  0
  3 12  1  0  0  0  0
  4  8  1  0  0  0  0
  4 10  2  0  0  0  0
  5  9  1  0  0  0  0
  5 11  2  0  0  0  0
  6  7  2  0  0  0  0
  6 24  1  0  0  0  0
  8  9  2  0  0  0  0
  8 19  1  0  0  0  0
  9 21  1  0  0  0  0
 10 11  1  0  0  0  0
 10 29  1  0  0  0  0
 11 30  1  0  0  0  0
 12 24  2  0  0  0  0
 12 26  1  0  0  0  0
 13 14  2  0  0  0  0
 14 15  1  0  0  0  0
 15 25  1  0  0  0  0
 15 27  2  0  0  0  0
 16 18  1  0  0  0  0
 16 25  1  0  0  0  0
 17 19  1  0  0  0  0
 17 25  1  0  0  0  0
 18 28  1  0  0  0  0
 19 28  1  0  0  0  0
 20 22  1  0  0  0  0
 21 22  1  0  0  0  0
 22 26  1  0  0  0  0
  2 31  1  0  0  0  0
  3 32  1  0  0  0  0
  4 33  1  0  0  0  0
  5 34  1  0  0  0  0
  6 35  1  0  0  0  0
 13 36  1  0  0  0  0
 13 37  1  0  0  0  0
 14 38  1  0  0  0  0
 16 39  1  0  0  0  0
 16 40  1  0  0  0  0
 17 41  1  0  0  0  0
 17 42  1  0  0  0  0
 18 43  1  0  0  0  0
 18 44  1  0  0  0  0
 19 45  1  0  0  0  0
 20 46  1  0  0  0  0
 20 47  1  0  0  0  0
 20 48  1  0  0  0  0
 21 49  1  0  0  0  0
 21 50  1  0  0  0  0
 22 51  1  0  0  0  0
 26 52  1  0  0  0  0
M  END
> <creator>
Benjamin P. Brown, Vanderbilt University, Laboratory of Jens Meiler

> <fragments>
x0759

> <real_space>
FALSE

> <SCR>
FALSE

> <BB>
FALSE

> <link>
https://covid.postera.ai/covid/submissions/77cef4f8-69c7-4a42-be72-6e63eb0b6889

> <covalent_frag>
TRUE

> <covalent_warhead>
TRUE

> <acrylamide>
TRUE

> <acrylamide_adduct>
FALSE

> <chloroacetamide>
FALSE

> <chloroacetamide_adduct>
FALSE

> <vinylsulfonamide>
FALSE

> <vinylsulfonamide_adduct>
FALSE

> <in_molport_or_mcule>
FALSE

> <in_emolecules>
FALSE

> <Hybrid2>
-3.423838

> <Mpro-x0759_dock>
-3.423838

> <Mpro-x1478_dock>
-0.462098

> <site>
active-covalent

> <covalent_distance_min>
7.960715

> <covalent_distance_mean>
8.939338

> <covalent_distance_stderr>
0.0578373

$$$$
DAV-CRI-f9b-7
  -OEChem-04062011563D

 74 77  0     1  0  0  0  0  0999 V2000
   13.3543    0.0635   24.8374 C   0  0  0  0  0  0  0  0  0  0  0  0
   12.4217   -2.5689   25.6339 C   0  0  0  0  0  0  0  0  0  0  0  0
   13.7441    1.3993   24.7420 C   0  0  0  0  0  0  0  0  0  0  0  0
   12.0535   -3.9124   25.7413 C   0  0  0  0  0  0  0  0  0  0  0  0
   10.3776   -2.0579   24.4408 C   0  0  0  0  0  0  0  0  0  0  0  0
   11.0354    0.7412   24.8547 C   0  0  0  0  0  0  0  0  0  0  0  0
   11.5962   -1.6521   24.9925 C   0  0  0  0  0  0  0  0  0  0  0  0
   12.0000   -0.2656   24.8936 C   0  0  0  0  0  0  0  0  0  0  0  0
    9.9815   -3.4096   24.5353 C   0  0  0  0  0  0  0  0  0  0  0  0
   12.7795    2.4062   24.7031 C   0  0  0  0  0  0  0  0  0  0  0  0
   10.8282   -4.3131   25.1848 C   0  0  0  0  0  0  0  0  0  0  0  0
   11.4252    2.0771   24.7594 C   0  0  0  0  0  0  0  0  0  0  0  0
    8.7698   -5.2390   24.3067 C   0  0  0  0  0  0  0  0  0  0  0  0
    4.5659   -4.0728   24.6287 C   0  0  0  0  0  0  0  0  0  0  0  0
    5.7735   -0.1971   19.1075 C   0  0  0  0  0  0  0  0  0  0  0  0
    6.1667   -2.9724   20.7631 C   0  0  0  0  0  0  0  0  0  0  0  0
    7.5478   -6.3311   22.3803 C   0  0  0  0  0  0  0  0  0  0  0  0
    6.1619   -6.0342   21.8144 C   0  0  0  0  0  0  0  0  0  0  0  0
    6.2619   -5.8558   24.5542 C   0  0  0  0  0  0  0  0  0  0  0  0
    7.6275   -6.1677   23.9132 C   0  0  2  0  0  0  0  0  0  0  0  0
    5.5760   -4.7495   22.4007 C   0  0  1  0  0  0  0  0  0  0  0  0
   10.9220   -1.7985   20.8553 C   0  0  0  0  0  0  0  0  0  0  0  0
    3.7562   -3.0334   23.8920 C   0  0  0  0  0  0  0  0  0  0  0  0
    6.9374   -1.1689   19.1923 C   0  0  0  0  0  0  0  0  0  0  0  0
    7.1094   -1.7952   20.5765 C   0  0  2  0  0  0  0  0  0  0  0  0
    9.5575   -1.1530   20.6278 C   0  0  2  0  0  0  0  0  0  0  0  0
    8.8069   -3.9549   24.0378 N   0  0  0  0  0  0  0  0  0  0  0  0
    5.4681   -4.8283   23.8688 N   0  0  0  0  0  0  0  0  0  0  0  0
    5.9570    0.7544   18.1267 N   0  0  0  0  0  0  0  0  0  0  0  0
    9.3754   -0.0616   21.5795 N   0  0  0  0  0  0  0  0  0  0  0  0
    8.7687    2.2890   24.8152 N   0  0  0  0  0  0  0  0  0  0  0  0
    6.3547   -3.6064   21.9818 N   0  0  0  0  0  0  0  0  0  0  0  0
    8.5245   -2.2420   20.7347 N   0  3  0  0  0  0  0  0  0  0  0  0
   13.1678    3.6259   24.6152 O   0  5  0  0  0  0  0  0  0  0  0  0
    4.3966   -4.2180   25.8424 O   0  0  0  0  0  0  0  0  0  0  0  0
    4.7787   -0.2517   19.8245 O   0  0  0  0  0  0  0  0  0  0  0  0
    5.3374   -3.2987   19.9168 O   0  0  0  0  0  0  0  0  0  0  0  0
   10.2485    4.0847   25.9250 O   0  0  0  0  0  0  0  0  0  0  0  0
   10.1792    3.9252   23.4115 O   0  0  0  0  0  0  0  0  0  0  0  0
   10.1088   -5.8798   25.1567 S   0  0  0  0  0  0  0  0  0  0  0  0
   10.1492    3.2868   24.7156 S   0  0  0  0  0  0  0  0  0  0  0  0
    2.2992   -3.8404   23.3237 Cl  0  0  0  0  0  0  0  0  0  0  0  0
   14.1179   -0.7102   24.8668 H   0  0  0  0  0  0  0  0  0  0  0  0
   13.3707   -2.2538   26.0632 H   0  0  0  0  0  0  0  0  0  0  0  0
   14.8083    1.6267   24.6998 H   0  0  0  0  0  0  0  0  0  0  0  0
   12.7035   -4.6226   26.2435 H   0  0  0  0  0  0  0  0  0  0  0  0
    9.7286   -1.3446   23.9383 H   0  0  0  0  0  0  0  0  0  0  0  0
    9.9785    0.4856   24.8986 H   0  0  0  0  0  0  0  0  0  0  0  0
    7.8452   -7.3615   22.0982 H   0  0  0  0  0  0  0  0  0  0  0  0
    8.2966   -5.6745   21.8903 H   0  0  0  0  0  0  0  0  0  0  0  0
    6.2131   -5.9713   20.7242 H   0  0  0  0  0  0  0  0  0  0  0  0
    5.4943   -6.8689   22.0501 H   0  0  0  0  0  0  0  0  0  0  0  0
    5.6741   -6.7938   24.6424 H   0  0  0  0  0  0  0  0  0  0  0  0
    6.3941   -5.5094   25.6020 H   0  0  0  0  0  0  0  0  0  0  0  0
    7.9507   -7.1973   24.3149 H   0  0  0  0  0  0  0  0  0  0  0  0
    4.5944   -4.6027   21.9502 H   0  0  0  0  0  0  0  0  0  0  0  0
   11.0164   -2.1951   21.8728 H   0  0  0  0  0  0  0  0  0  0  0  0
   11.7294   -1.0743   20.6987 H   0  0  0  0  0  0  0  0  0  0  0  0
   11.0856   -2.6260   20.1558 H   0  0  0  0  0  0  0  0  0  0  0  0
    4.3339   -2.6708   23.0496 H   0  0  0  0  0  0  0  0  0  0  0  0
    3.4971   -2.2377   24.5807 H   0  0  0  0  0  0  0  0  0  0  0  0
    7.8545   -0.6498   18.8856 H   0  0  0  0  0  0  0  0  0  0  0  0
    6.7526   -1.9513   18.4450 H   0  0  0  0  0  0  0  0  0  0  0  0
    6.9390   -1.0671   21.3776 H   0  0  0  0  0  0  0  0  0  0  0  0
    9.5052   -0.7709   19.6020 H   0  0  0  0  0  0  0  0  0  0  0  0
    5.2582    1.4702   17.9570 H   0  0  0  0  0  0  0  0  0  0  0  0
    6.7866    0.7786   17.5422 H   0  0  0  0  0  0  0  0  0  0  0  0
   10.0873    0.6513   21.4249 H   0  0  0  0  0  0  0  0  0  0  0  0
    8.4796    0.3941   21.4116 H   0  0  0  0  0  0  0  0  0  0  0  0
    8.2326    2.2978   25.6916 H   0  0  0  0  0  0  0  0  0  0  0  0
    8.1876    2.1884   23.9741 H   0  0  0  0  0  0  0  0  0  0  0  0
    7.0713   -3.2518   22.6077 H   0  0  0  0  0  0  0  0  0  0  0  0
    8.7105   -2.9581   20.0203 H   0  0  0  0  0  0  0  0  0  0  0  0
    8.6259   -2.7150   21.6419 H   0  0  0  0  0  0  0  0  0  0  0  0
  1  3  2  0  0  0  0
  1  8  1  0  0  0  0
  2  4  2  0  0  0  0
  2  7  1  0  0  0  0
  3 10  1  0  0  0  0
  4 11  1  0  0  0  0
  5  7  2  0  0  0  0
  5  9  1  0  0  0  0
  6  8  2  0  0  0  0
  6 12  1  0  0  0  0
  7  8  1  0  0  0  0
  9 11  2  0  0  0  0
  9 27  1  0  0  0  0
 10 12  2  0  0  0  0
 10 34  1  0  0  0  0
 11 40  1  0  0  0  0
 12 41  1  0  0  0  0
 13 20  1  0  0  0  0
 13 27  2  0  0  0  0
 13 40  1  0  0  0  0
 14 23  1  0  0  0  0
 14 28  1  0  0  0  0
 14 35  2  0  0  0  0
 15 24  1  0  0  0  0
 15 29  1  0  0  0  0
 15 36  2  0  0  0  0
 16 25  1  0  0  0  0
 16 32  1  0  0  0  0
 16 37  2  0  0  0  0
 17 18  1  0  0  0  0
 17 20  1  0  0  0  0
 18 21  1  0  0  0  0
 19 20  1  0  0  0  0
 19 28  1  0  0  0  0
 21 28  1  0  0  0  0
 21 32  1  0  0  0  0
 22 26  1  0  0  0  0
 23 42  1  0  0  0  0
 24 25  1  0  0  0  0
 25 33  1  0  0  0  0
 26 30  1  0  0  0  0
 26 33  1  0  0  0  0
 31 41  1  0  0  0  0
 38 41  2  0  0  0  0
 39 41  2  0  0  0  0
  1 43  1  0  0  0  0
  2 44  1  0  0  0  0
  3 45  1  0  0  0  0
  4 46  1  0  0  0  0
  5 47  1  0  0  0  0
  6 48  1  0  0  0  0
 17 49  1  0  0  0  0
 17 50  1  0  0  0  0
 18 51  1  0  0  0  0
 18 52  1  0  0  0  0
 19 53  1  0  0  0  0
 19 54  1  0  0  0  0
 20 55  1  0  0  0  0
 21 56  1  0  0  0  0
 22 57  1  0  0  0  0
 22 58  1  0  0  0  0
 22 59  1  0  0  0  0
 23 60  1  0  0  0  0
 23 61  1  0  0  0  0
 24 62  1  0  0  0  0
 24 63  1  0  0  0  0
 25 64  1  0  0  0  0
 26 65  1  0  0  0  0
 29 66  1  0  0  0  0
 29 67  1  0  0  0  0
 30 68  1  0  0  0  0
 30 69  1  0  0  0  0
 31 70  1  0  0  0  0
 31 71  1  0  0  0  0
 32 72  1  0  0  0  0
 33 73  1  0  0  0  0
 33 74  1  0  0  0  0
M  CHG  2  33   1  34  -1
M  END
> <creator>
David Briggs, Crick Institute

> <fragments>
x0749

> <real_space>
FALSE

> <SCR>
FALSE

> <BB>
FALSE

> <link>
https://covid.postera.ai/covid/submissions/f9b12666-ae78-4cf8-8d60-dc19988e42d3

> <covalent_frag>
TRUE

> <covalent_warhead>
TRUE

> <acrylamide>
FALSE

> <acrylamide_adduct>
FALSE

> <chloroacetamide>
TRUE

> <chloroacetamide_adduct>
FALSE

> <vinylsulfonamide>
FALSE

> <vinylsulfonamide_adduct>
FALSE

> <in_molport_or_mcule>
FALSE

> <in_emolecules>
FALSE

> <Hybrid2>
-3.423652

> <Mpro-x0749_dock>
-3.423652

> <Mpro-x0981_dock>
11.026295

> <site>
active-covalent

> <covalent_distance_min>
7.082987

> <covalent_distance_mean>
8.256178

> <covalent_distance_stderr>
0.06472014

$$$$
VIR-GIT-7b3-3
  -OEChem-04062011563D

 38 38  0     0  0  0  0  0  0999 V2000
    6.7730   -4.3549   26.0073 C   0  0  0  0  0  0  0  0  0  0  0  0
    6.4699   -4.1263   20.9165 C   0  0  0  0  0  0  0  0  0  0  0  0
    7.0407   -2.7320   24.1402 C   0  0  0  0  0  0  0  0  0  0  0  0
    5.0185   -4.2703   24.2256 C   0  0  0  0  0  0  0  0  0  0  0  0
    7.6227   -3.6275   23.0480 C   0  0  0  0  0  0  0  0  0  0  0  0
    5.6555   -5.1082   23.1162 C   0  0  0  0  0  0  0  0  0  0  0  0
    6.0433   -3.4716   25.0375 C   0  0  0  0  0  0  0  0  0  0  0  0
    9.7488   -4.8566   26.1586 C   0  0  0  0  0  0  0  0  0  0  0  0
    8.4497   -5.6161   28.1788 C   0  0  0  0  0  0  0  0  0  0  0  0
    7.5615   -2.3502   27.2743 C   0  0  0  0  0  0  0  0  0  0  0  0
    7.5161   -3.2513   20.2733 C   0  0  0  0  0  0  0  0  0  0  0  0
    8.8901   -4.4261   27.3389 C   0  0  0  0  0  0  0  0  0  0  0  0
    6.5565   -4.2906   22.2984 N   0  0  0  0  0  0  0  0  0  0  0  0
    7.7042   -3.7341   26.8406 N   0  0  0  0  0  0  0  0  0  0  0  0
    6.5240   -5.5633   26.0256 O   0  0  0  0  0  0  0  0  0  0  0  0
    5.6039   -4.6488   20.2101 O   0  0  0  0  0  0  0  0  0  0  0  0
    6.8606   -1.6181   20.2479 Cl  0  0  0  0  0  0  0  0  0  0  0  0
    7.8597   -2.3166   24.7397 H   0  0  0  0  0  0  0  0  0  0  0  0
    6.5315   -1.8829   23.6664 H   0  0  0  0  0  0  0  0  0  0  0  0
    4.3059   -3.5708   23.7698 H   0  0  0  0  0  0  0  0  0  0  0  0
    4.4395   -4.9279   24.8853 H   0  0  0  0  0  0  0  0  0  0  0  0
    8.2548   -3.0308   22.3827 H   0  0  0  0  0  0  0  0  0  0  0  0
    8.2567   -4.4096   23.4816 H   0  0  0  0  0  0  0  0  0  0  0  0
    6.2531   -5.9236   23.5396 H   0  0  0  0  0  0  0  0  0  0  0  0
    4.8678   -5.5716   22.5193 H   0  0  0  0  0  0  0  0  0  0  0  0
    5.5112   -2.7346   25.6518 H   0  0  0  0  0  0  0  0  0  0  0  0
    9.2062   -5.5585   25.5171 H   0  0  0  0  0  0  0  0  0  0  0  0
   10.0486   -3.9976   25.5477 H   0  0  0  0  0  0  0  0  0  0  0  0
   10.6640   -5.3502   26.5035 H   0  0  0  0  0  0  0  0  0  0  0  0
    7.8845   -6.3318   27.5717 H   0  0  0  0  0  0  0  0  0  0  0  0
    7.8094   -5.2937   29.0064 H   0  0  0  0  0  0  0  0  0  0  0  0
    9.3095   -6.1490   28.6001 H   0  0  0  0  0  0  0  0  0  0  0  0
    6.9920   -2.3170   28.2149 H   0  0  0  0  0  0  0  0  0  0  0  0
    8.5575   -1.9113   27.4332 H   0  0  0  0  0  0  0  0  0  0  0  0
    7.0273   -1.7772   26.5021 H   0  0  0  0  0  0  0  0  0  0  0  0
    7.6905   -3.5982   19.2612 H   0  0  0  0  0  0  0  0  0  0  0  0
    8.4175   -3.2816   20.8747 H   0  0  0  0  0  0  0  0  0  0  0  0
    9.4523   -3.7253   27.9658 H   0  0  0  0  0  0  0  0  0  0  0  0
  1  7  1  0  0  0  0
  1 14  1  0  0  0  0
  1 15  2  0  0  0  0
  2 11  1  0  0  0  0
  2 13  1  0  0  0  0
  2 16  2  0  0  0  0
  3  5  1  0  0  0  0
  3  7  1  0  0  0  0
  4  6  1  0  0  0  0
  4  7  1  0  0  0  0
  5 13  1  0  0  0  0
  6 13  1  0  0  0  0
  8 12  1  0  0  0  0
  9 12  1  0  0  0  0
 10 14  1  0  0  0  0
 11 17  1  0  0  0  0
 12 14  1  0  0  0  0
  3 18  1  0  0  0  0
  3 19  1  0  0  0  0
  4 20  1  0  0  0  0
  4 21  1  0  0  0  0
  5 22  1  0  0  0  0
  5 23  1  0  0  0  0
  6 24  1  0  0  0  0
  6 25  1  0  0  0  0
  7 26  1  0  0  0  0
  8 27  1  0  0  0  0
  8 28  1  0  0  0  0
  8 29  1  0  0  0  0
  9 30  1  0  0  0  0
  9 31  1  0  0  0  0
  9 32  1  0  0  0  0
 10 33  1  0  0  0  0
 10 34  1  0  0  0  0
 10 35  1  0  0  0  0
 11 36  1  0  0  0  0
 11 37  1  0  0  0  0
 12 38  1  0  0  0  0
M  END
> <creator>
Viromics, githubsubmission

> <fragments>
x1458

> <real_space>
FALSE

> <SCR>
Z561717446

> <BB>
EN300-47990

> <link>
https://covid.postera.ai/covid/submissions/7b3d3065-7119-4dff-b3fd-df4d793955e8

> <covalent_frag>
TRUE

> <covalent_warhead>
TRUE

> <acrylamide>
FALSE

> <acrylamide_adduct>
FALSE

> <chloroacetamide>
TRUE

> <chloroacetamide_adduct>
FALSE

> <vinylsulfonamide>
FALSE

> <vinylsulfonamide_adduct>
FALSE

> <in_molport_or_mcule>
FALSE

> <in_emolecules>
FALSE

> <Hybrid2>
-3.390148

> <Mpro-x1458_dock>
-3.390148

> <Mpro-x1380_dock>
-3.078335

> <site>
active-covalent

> <covalent_distance_min>
3.028666

> <covalent_distance_mean>
3.4979036

> <covalent_distance_stderr>
0.037007198

$$$$
JAN-GHE-bf4-3
  -OEChem-04062011563D

 61 64  0     1  0  0  0  0  0999 V2000
    6.1766   -3.4442   27.6101 C   0  0  0  0  0  0  0  0  0  0  0  0
   13.8216   -0.8583   22.6786 C   0  0  0  0  0  0  0  0  0  0  0  0
    8.3837   -2.4081   27.3535 C   0  0  0  0  0  0  0  0  0  0  0  0
   13.0427    0.2624   22.9662 C   0  0  0  0  0  0  0  0  0  0  0  0
   13.2850   -1.9080   21.9328 C   0  0  0  0  0  0  0  0  0  0  0  0
    9.1678   -1.3489   26.9099 C   0  0  0  0  0  0  0  0  0  0  0  0
    6.4662   -1.2629   26.5361 C   0  0  0  0  0  0  0  0  0  0  0  0
    7.0064   -2.3720   27.1669 C   0  0  0  0  0  0  0  0  0  0  0  0
   11.7270    0.3335   22.5082 C   0  0  0  0  0  0  0  0  0  0  0  0
   11.9694   -1.8369   21.4748 C   0  0  0  0  0  0  0  0  0  0  0  0
   11.1904   -0.7161   21.7625 C   0  0  0  0  0  0  0  0  0  0  0  0
    8.5309   -0.2857   26.2905 C   0  0  0  0  0  0  0  0  0  0  0  0
    5.5331   -7.0765   19.5643 C   0  0  0  0  0  0  0  0  0  0  0  0
    5.7784   -5.9467   20.2311 C   0  0  0  0  0  0  0  0  0  0  0  0
    6.5680   -6.0110   21.4769 C   0  0  0  0  0  0  0  0  0  0  0  0
    7.5651   -4.7596   23.3663 C   0  0  0  0  0  0  0  0  0  0  0  0
    6.3486   -3.4816   21.7240 C   0  0  0  0  0  0  0  0  0  0  0  0
    9.0690   -2.7566   22.8411 C   0  0  0  0  0  0  0  0  0  0  0  0
    7.2219   -1.2061   22.5403 C   0  0  0  0  0  0  0  0  0  0  0  0
    7.8485   -3.2841   23.5936 C   0  0  1  0  0  0  0  0  0  0  0  0
    6.6799   -2.5774   22.9124 C   0  0  2  0  0  0  0  0  0  0  0  0
   10.0061    2.7461   24.5579 C   0  0  0  0  0  0  0  0  0  0  0  0
    8.9221    1.7192   24.8576 C   0  0  0  0  0  0  0  0  0  0  0  0
   11.2848    2.1154   24.0198 C   0  0  0  0  0  0  0  0  0  0  0  0
    5.5016   -4.3165   27.9707 N   0  0  0  0  0  0  0  0  0  0  0  0
    7.1955   -0.2150   26.0915 N   0  0  0  0  0  0  0  0  0  0  0  0
    6.7944   -4.8143   22.1297 N   0  0  0  0  0  0  0  0  0  0  0  0
    8.7045   -1.3611   22.4759 N   0  0  0  0  0  0  0  0  0  0  0  0
    9.3276    0.7652   25.8534 N   0  0  0  0  0  0  0  0  0  0  0  0
    6.9794   -7.1053   21.8614 O   0  0  0  0  0  0  0  0  0  0  0  0
    9.1569    0.7560   21.0764 O   0  0  0  0  0  0  0  0  0  0  0  0
    9.4346   -1.5096   20.0098 O   0  0  0  0  0  0  0  0  0  0  0  0
   10.9847    1.4378   22.8014 O   0  0  0  0  0  0  0  0  0  0  0  0
   11.4658   -2.8524   20.7594 F   0  0  0  0  0  0  0  0  0  0  0  0
    9.5254   -0.6450   21.1726 S   0  0  0  0  0  0  0  0  0  0  0  0
   14.8460   -0.9138   23.0352 H   0  0  0  0  0  0  0  0  0  0  0  0
    8.8596   -3.2544   27.8424 H   0  0  0  0  0  0  0  0  0  0  0  0
   13.4671    1.0763   23.5477 H   0  0  0  0  0  0  0  0  0  0  0  0
   13.8914   -2.7807   21.7089 H   0  0  0  0  0  0  0  0  0  0  0  0
   10.2435   -1.3692   27.0503 H   0  0  0  0  0  0  0  0  0  0  0  0
    5.3979   -1.1747   26.3599 H   0  0  0  0  0  0  0  0  0  0  0  0
    4.9594   -7.0930   18.6437 H   0  0  0  0  0  0  0  0  0  0  0  0
    5.9113   -8.0221   19.9381 H   0  0  0  0  0  0  0  0  0  0  0  0
    5.4187   -4.9847   19.8900 H   0  0  0  0  0  0  0  0  0  0  0  0
    8.4658   -5.3769   23.2919 H   0  0  0  0  0  0  0  0  0  0  0  0
    6.9283   -5.1655   24.1606 H   0  0  0  0  0  0  0  0  0  0  0  0
    5.2758   -3.4886   21.5079 H   0  0  0  0  0  0  0  0  0  0  0  0
    6.8897   -3.2049   20.8121 H   0  0  0  0  0  0  0  0  0  0  0  0
    9.9586   -2.7626   23.4775 H   0  0  0  0  0  0  0  0  0  0  0  0
    9.2779   -3.3387   21.9364 H   0  0  0  0  0  0  0  0  0  0  0  0
    6.8029   -0.8399   21.5983 H   0  0  0  0  0  0  0  0  0  0  0  0
    7.0002   -0.4766   23.3270 H   0  0  0  0  0  0  0  0  0  0  0  0
    7.9116   -3.0288   24.6572 H   0  0  0  0  0  0  0  0  0  0  0  0
    5.8081   -2.5052   23.5728 H   0  0  0  0  0  0  0  0  0  0  0  0
    9.6285    3.4669   23.8220 H   0  0  0  0  0  0  0  0  0  0  0  0
   10.2396    3.3302   25.4571 H   0  0  0  0  0  0  0  0  0  0  0  0
    8.0265    2.2185   25.2403 H   0  0  0  0  0  0  0  0  0  0  0  0
    8.6455    1.1642   23.9555 H   0  0  0  0  0  0  0  0  0  0  0  0
   12.0455    2.8746   23.8134 H   0  0  0  0  0  0  0  0  0  0  0  0
   11.6900    1.3883   24.7308 H   0  0  0  0  0  0  0  0  0  0  0  0
   10.2525    0.8594   26.2654 H   0  0  0  0  0  0  0  0  0  0  0  0
  1  8  1  0  0  0  0
  1 25  3  0  0  0  0
  2  4  2  0  0  0  0
  2  5  1  0  0  0  0
  3  6  2  0  0  0  0
  3  8  1  0  0  0  0
  4  9  1  0  0  0  0
  5 10  2  0  0  0  0
  6 12  1  0  0  0  0
  7  8  2  0  0  0  0
  7 26  1  0  0  0  0
  9 11  2  0  0  0  0
  9 33  1  0  0  0  0
 10 11  1  0  0  0  0
 10 34  1  0  0  0  0
 11 35  1  0  0  0  0
 12 26  2  0  0  0  0
 12 29  1  0  0  0  0
 13 14  2  0  0  0  0
 14 15  1  0  0  0  0
 15 27  1  0  0  0  0
 15 30  2  0  0  0  0
 16 20  1  0  0  0  0
 16 27  1  0  0  0  0
 17 21  1  0  0  0  0
 17 27  1  0  0  0  0
 18 20  1  0  0  0  0
 18 28  1  0  0  0  0
 19 21  1  0  0  0  0
 19 28  1  0  0  0  0
 20 21  1  0  0  0  0
 22 23  1  0  0  0  0
 22 24  1  0  0  0  0
 23 29  1  0  0  0  0
 24 33  1  0  0  0  0
 28 35  1  0  0  0  0
 31 35  2  0  0  0  0
 32 35  2  0  0  0  0
  2 36  1  0  0  0  0
  3 37  1  0  0  0  0
  4 38  1  0  0  0  0
  5 39  1  0  0  0  0
  6 40  1  0  0  0  0
  7 41  1  0  0  0  0
 13 42  1  0  0  0  0
 13 43  1  0  0  0  0
 14 44  1  0  0  0  0
 16 45  1  0  0  0  0
 16 46  1  0  0  0  0
 17 47  1  0  0  0  0
 17 48  1  0  0  0  0
 18 49  1  0  0  0  0
 18 50  1  0  0  0  0
 19 51  1  0  0  0  0
 19 52  1  0  0  0  0
 20 53  1  0  0  0  0
 21 54  1  0  0  0  0
 22 55  1  0  0  0  0
 22 56  1  0  0  0  0
 23 57  1  0  0  0  0
 23 58  1  0  0  0  0
 24 59  1  0  0  0  0
 24 60  1  0  0  0  0
 29 61  1  0  0  0  0
M  END
> <creator>
Jan, Ghent university

> <fragments>
x0305

> <real_space>
FALSE

> <SCR>
FALSE

> <BB>
FALSE

> <link>
https://covid.postera.ai/covid/submissions/bf40f168-4eec-438e-a3f5-b4da0b83bc9c

> <covalent_frag>
TRUE

> <covalent_warhead>
TRUE

> <acrylamide>
TRUE

> <acrylamide_adduct>
FALSE

> <chloroacetamide>
FALSE

> <chloroacetamide_adduct>
FALSE

> <vinylsulfonamide>
FALSE

> <vinylsulfonamide_adduct>
FALSE

> <in_molport_or_mcule>
FALSE

> <in_emolecules>
FALSE

> <Hybrid2>
-3.371951

> <Mpro-x0305_dock>
-3.371951

> <Mpro-x0755_dock>
-0.470992

> <Mpro-x0692_dock>
-0.019551

> <site>
active-noncovalent

> <covalent_distance_min>
3.6989918

> <covalent_distance_mean>
5.5366473

> <covalent_distance_stderr>
0.11312448

$$$$
MAK-UNK-e4a-7
  -OEChem-04062011563D

 64 66  0     0  0  0  0  0  0999 V2000
    9.6784    0.2531   25.9057 C   0  0  0  0  0  0  0  0  0  0  0  0
    8.9820   -0.7573   25.2426 C   0  0  0  0  0  0  0  0  0  0  0  0
   11.0502    0.4037   25.7028 C   0  0  0  0  0  0  0  0  0  0  0  0
   11.0293   -1.4666   24.1735 C   0  0  0  0  0  0  0  0  0  0  0  0
    9.6575   -1.6171   24.3765 C   0  0  0  0  0  0  0  0  0  0  0  0
   11.7257   -0.4562   24.8367 C   0  0  0  0  0  0  0  0  0  0  0  0
   11.7247    1.9243   22.6534 C   0  0  0  0  0  0  0  0  0  0  0  0
    6.0140   -1.8126   19.0226 C   0  0  0  0  0  0  0  0  0  0  0  0
    7.7357    3.4624   21.4885 C   0  0  0  0  0  0  0  0  0  0  0  0
    7.4519    3.9979   23.9301 C   0  0  0  0  0  0  0  0  0  0  0  0
    5.8805   -2.6994   21.3285 C   0  0  0  0  0  0  0  0  0  0  0  0
    7.1701   -0.6326   20.9563 C   0  0  0  0  0  0  0  0  0  0  0  0
    9.2449    3.5667   21.6437 C   0  0  0  0  0  0  0  0  0  0  0  0
    8.9617    4.1008   24.0798 C   0  0  0  0  0  0  0  0  0  0  0  0
    7.0293   -3.2968   22.1277 C   0  0  0  0  0  0  0  0  0  0  0  0
    8.3385   -1.1986   21.7520 C   0  0  0  0  0  0  0  0  0  0  0  0
    7.0012    4.3267   22.5090 C   0  0  0  0  0  0  0  0  0  0  0  0
    8.9074   -2.7027   23.6624 C   0  0  0  0  0  0  0  0  0  0  0  0
   13.1927   -0.2955   24.6203 C   0  0  0  0  0  0  0  0  0  0  0  0
   11.1217    3.1793   23.2400 C   0  0  0  0  0  0  0  0  0  0  0  0
   13.2175    1.7566   22.8025 C   0  0  0  0  0  0  0  0  0  0  0  0
    6.5605   -0.7543   18.0980 C   0  0  0  0  0  0  0  0  0  0  0  0
    6.3674   -1.7098   20.3673 N   0  0  0  0  0  0  0  0  0  0  0  0
    7.8121   -2.1777   22.7775 N   0  3  0  0  0  0  0  0  0  0  0  0
    9.6287    3.2073   23.0602 N   0  3  0  0  0  0  0  0  0  0  0  0
   11.0502    1.0841   22.0570 O   0  0  0  0  0  0  0  0  0  0  0  0
    5.2970   -2.7043   18.5614 O   0  0  0  0  0  0  0  0  0  0  0  0
    5.6030    4.0950   22.3822 O   0  0  0  0  0  0  0  0  0  0  0  0
   13.6117   -0.0053   22.8744 S   0  0  0  0  0  0  0  0  0  0  0  0
    5.3643    0.5358   18.0461 Cl  0  0  0  0  0  0  0  0  0  0  0  0
    9.1524    0.9227   26.5801 H   0  0  0  0  0  0  0  0  0  0  0  0
    7.9131   -0.8667   25.4065 H   0  0  0  0  0  0  0  0  0  0  0  0
   11.5849    1.1932   26.2243 H   0  0  0  0  0  0  0  0  0  0  0  0
   11.5562   -2.1360   23.4977 H   0  0  0  0  0  0  0  0  0  0  0  0
    7.4442    3.7638   20.4749 H   0  0  0  0  0  0  0  0  0  0  0  0
    7.4173    2.4161   21.5860 H   0  0  0  0  0  0  0  0  0  0  0  0
    7.1129    2.9904   24.2046 H   0  0  0  0  0  0  0  0  0  0  0  0
    6.9609    4.6757   24.6385 H   0  0  0  0  0  0  0  0  0  0  0  0
    5.3347   -3.4997   20.8190 H   0  0  0  0  0  0  0  0  0  0  0  0
    5.1689   -2.1922   21.9914 H   0  0  0  0  0  0  0  0  0  0  0  0
    6.5062   -0.0509   21.6071 H   0  0  0  0  0  0  0  0  0  0  0  0
    7.5530    0.0517   20.1973 H   0  0  0  0  0  0  0  0  0  0  0  0
    9.7493    2.8601   20.9806 H   0  0  0  0  0  0  0  0  0  0  0  0
    9.6044    4.5811   21.4506 H   0  0  0  0  0  0  0  0  0  0  0  0
    9.3188    5.1201   23.9106 H   0  0  0  0  0  0  0  0  0  0  0  0
    9.2735    3.7562   25.0687 H   0  0  0  0  0  0  0  0  0  0  0  0
    6.6499   -3.9382   22.9298 H   0  0  0  0  0  0  0  0  0  0  0  0
    7.7186   -3.8662   21.4940 H   0  0  0  0  0  0  0  0  0  0  0  0
    9.0509   -1.7316   21.1123 H   0  0  0  0  0  0  0  0  0  0  0  0
    8.8559   -0.4024   22.2970 H   0  0  0  0  0  0  0  0  0  0  0  0
    7.1865    5.3856   22.2929 H   0  0  0  0  0  0  0  0  0  0  0  0
    9.5746   -3.2898   23.0222 H   0  0  0  0  0  0  0  0  0  0  0  0
    8.4357   -3.3905   24.3725 H   0  0  0  0  0  0  0  0  0  0  0  0
   13.5868    0.5422   25.2143 H   0  0  0  0  0  0  0  0  0  0  0  0
   13.7361   -1.1893   24.9603 H   0  0  0  0  0  0  0  0  0  0  0  0
   11.3119    3.2209   24.3151 H   0  0  0  0  0  0  0  0  0  0  0  0
   11.5184    4.0644   22.7374 H   0  0  0  0  0  0  0  0  0  0  0  0
   13.5438    2.2542   23.7206 H   0  0  0  0  0  0  0  0  0  0  0  0
   13.7330    2.2287   21.9614 H   0  0  0  0  0  0  0  0  0  0  0  0
    6.6890   -1.1826   17.1105 H   0  0  0  0  0  0  0  0  0  0  0  0
    7.4936   -0.3808   18.5040 H   0  0  0  0  0  0  0  0  0  0  0  0
    7.1634   -1.6627   23.3888 H   0  0  0  0  0  0  0  0  0  0  0  0
    9.2898    2.2488   23.2306 H   0  0  0  0  0  0  0  0  0  0  0  0
    5.1666    4.6570   23.0420 H   0  0  0  0  0  0  0  0  0  0  0  0
  1  2  1  0  0  0  0
  1  3  2  0  0  0  0
  2  5  2  0  0  0  0
  3  6  1  0  0  0  0
  4  5  1  0  0  0  0
  4  6  2  0  0  0  0
  5 18  1  0  0  0  0
  6 19  1  0  0  0  0
  7 20  1  0  0  0  0
  7 21  1  0  0  0  0
  7 26  2  0  0  0  0
  8 22  1  0  0  0  0
  8 23  1  0  0  0  0
  8 27  2  0  0  0  0
  9 13  1  0  0  0  0
  9 17  1  0  0  0  0
 10 14  1  0  0  0  0
 10 17  1  0  0  0  0
 11 15  1  0  0  0  0
 11 23  1  0  0  0  0
 12 16  1  0  0  0  0
 12 23  1  0  0  0  0
 13 25  1  0  0  0  0
 14 25  1  0  0  0  0
 15 24  1  0  0  0  0
 16 24  1  0  0  0  0
 17 28  1  0  0  0  0
 18 24  1  0  0  0  0
 19 29  1  0  0  0  0
 20 25  1  0  0  0  0
 21 29  1  0  0  0  0
 22 30  1  0  0  0  0
  1 31  1  0  0  0  0
  2 32  1  0  0  0  0
  3 33  1  0  0  0  0
  4 34  1  0  0  0  0
  9 35  1  0  0  0  0
  9 36  1  0  0  0  0
 10 37  1  0  0  0  0
 10 38  1  0  0  0  0
 11 39  1  0  0  0  0
 11 40  1  0  0  0  0
 12 41  1  0  0  0  0
 12 42  1  0  0  0  0
 13 43  1  0  0  0  0
 13 44  1  0  0  0  0
 14 45  1  0  0  0  0
 14 46  1  0  0  0  0
 15 47  1  0  0  0  0
 15 48  1  0  0  0  0
 16 49  1  0  0  0  0
 16 50  1  0  0  0  0
 17 51  1  0  0  0  0
 18 52  1  0  0  0  0
 18 53  1  0  0  0  0
 19 54  1  0  0  0  0
 19 55  1  0  0  0  0
 20 56  1  0  0  0  0
 20 57  1  0  0  0  0
 21 58  1  0  0  0  0
 21 59  1  0  0  0  0
 22 60  1  0  0  0  0
 22 61  1  0  0  0  0
 24 62  1  0  0  0  0
 25 63  1  0  0  0  0
 28 64  1  0  0  0  0
M  CHG  2  24   1  25   1
M  END
> <creator>
Maksym Voznyy

> <fragments>
x0692

> <real_space>
FALSE

> <SCR>
FALSE

> <BB>
FALSE

> <link>
https://covid.postera.ai/covid/submissions/e4a48a85-91ce-4c28-86d4-edf9997dafca

> <covalent_frag>
TRUE

> <covalent_warhead>
TRUE

> <acrylamide>
FALSE

> <acrylamide_adduct>
FALSE

> <chloroacetamide>
TRUE

> <chloroacetamide_adduct>
FALSE

> <vinylsulfonamide>
FALSE

> <vinylsulfonamide_adduct>
FALSE

> <in_molport_or_mcule>
FALSE

> <in_emolecules>
FALSE

> <Hybrid2>
-3.367372

> <Mpro-x0692_dock>
-3.367372

> <Mpro-x0387_dock>
-3.104392

> <site>
active-covalent

> <covalent_distance_min>
3.1005611

> <covalent_distance_mean>
3.530323

> <covalent_distance_stderr>
0.039175104

$$$$
BEN-VAN-77c-10
  -OEChem-04062011563D

 52 54  0     1  0  0  0  0  0999 V2000
    6.7875   -6.3380   25.4372 C   0  0  0  0  0  0  0  0  0  0  0  0
    5.3115   -4.9941   24.0138 C   0  0  0  0  0  0  0  0  0  0  0  0
    9.9582   -1.9522   24.5944 C   0  0  0  0  0  0  0  0  0  0  0  0
    9.0453   -1.9970   25.6481 C   0  0  0  0  0  0  0  0  0  0  0  0
    5.1497   -4.0269   23.0281 C   0  0  0  0  0  0  0  0  0  0  0  0
    7.3088   -1.1842   24.1779 C   0  0  0  0  0  0  0  0  0  0  0  0
    7.6661   -4.7143   23.8287 C   0  0  0  0  0  0  0  0  0  0  0  0
    6.5903   -5.3501   24.4274 C   0  0  0  0  0  0  0  0  0  0  0  0
    9.5465   -1.5234   23.3326 C   0  0  0  0  0  0  0  0  0  0  0  0
    8.2218   -1.1395   23.1243 C   0  0  0  0  0  0  0  0  0  0  0  0
    7.7206   -1.6130   25.4398 C   0  0  0  0  0  0  0  0  0  0  0  0
    6.2899   -3.4502   22.4922 C   0  0  0  0  0  0  0  0  0  0  0  0
   13.6346    1.3763   25.9129 C   0  0  0  0  0  0  0  0  0  0  0  0
   13.7768    1.2321   24.5937 C   0  0  0  0  0  0  0  0  0  0  0  0
   12.5664    1.1611   23.7488 C   0  0  0  0  0  0  0  0  0  0  0  0
   13.3044   -1.1379   22.9842 C   0  0  0  0  0  0  0  0  0  0  0  0
   11.2345   -0.1053   22.1014 C   0  0  0  0  0  0  0  0  0  0  0  0
   12.8252   -2.2453   22.0568 C   0  0  0  0  0  0  0  0  0  0  0  0
   10.5573   -1.4825   22.2036 C   0  0  1  0  0  0  0  0  0  0  0  0
    6.7506   -1.2820   19.5153 C   0  0  0  0  0  0  0  0  0  0  0  0
    7.7581   -0.6751   21.7827 C   0  0  0  0  0  0  0  0  0  0  0  0
    7.2311   -1.8056   20.8689 C   0  0  1  0  0  0  0  0  0  0  0  0
    6.9481   -7.1417   26.2588 N   0  0  0  0  0  0  0  0  0  0  0  0
    7.5484   -3.7701   22.8684 N   0  0  0  0  0  0  0  0  0  0  0  0
   12.3844    0.0035   22.9966 N   0  0  0  0  0  0  0  0  0  0  0  0
    6.1139   -2.4969   21.5191 N   0  0  0  0  0  0  0  0  0  0  0  0
   11.7953    2.1212   23.7612 O   0  0  0  0  0  0  0  0  0  0  0  0
   11.4730   -2.5772   22.3551 O   0  0  0  0  0  0  0  0  0  0  0  0
    6.8436   -1.6565   26.4513 F   0  0  0  0  0  0  0  0  0  0  0  0
    4.4325   -5.4615   24.4503 H   0  0  0  0  0  0  0  0  0  0  0  0
   10.9887   -2.2523   24.7668 H   0  0  0  0  0  0  0  0  0  0  0  0
    9.3669   -2.3295   26.6305 H   0  0  0  0  0  0  0  0  0  0  0  0
    4.1553   -3.7422   22.7001 H   0  0  0  0  0  0  0  0  0  0  0  0
    6.2747   -0.8864   24.0265 H   0  0  0  0  0  0  0  0  0  0  0  0
    8.6897   -4.9469   24.1080 H   0  0  0  0  0  0  0  0  0  0  0  0
   14.4847    1.4346   26.5844 H   0  0  0  0  0  0  0  0  0  0  0  0
   12.6436    1.4398   26.3497 H   0  0  0  0  0  0  0  0  0  0  0  0
   14.7481    1.1656   24.1211 H   0  0  0  0  0  0  0  0  0  0  0  0
   13.3424   -1.5074   24.0188 H   0  0  0  0  0  0  0  0  0  0  0  0
   14.3198   -0.8250   22.7100 H   0  0  0  0  0  0  0  0  0  0  0  0
   11.5097    0.0777   21.0546 H   0  0  0  0  0  0  0  0  0  0  0  0
   10.5368    0.6941   22.3990 H   0  0  0  0  0  0  0  0  0  0  0  0
   12.9134   -1.9538   21.0050 H   0  0  0  0  0  0  0  0  0  0  0  0
   13.4309   -3.1428   22.2073 H   0  0  0  0  0  0  0  0  0  0  0  0
    9.9566   -1.6708   21.2587 H   0  0  0  0  0  0  0  0  0  0  0  0
    5.9542   -0.5399   19.6437 H   0  0  0  0  0  0  0  0  0  0  0  0
    6.3601   -2.0897   18.8860 H   0  0  0  0  0  0  0  0  0  0  0  0
    7.5633   -0.7913   18.9702 H   0  0  0  0  0  0  0  0  0  0  0  0
    6.9808    0.1017   21.8886 H   0  0  0  0  0  0  0  0  0  0  0  0
    8.5997   -0.1651   21.2824 H   0  0  0  0  0  0  0  0  0  0  0  0
    8.0241   -2.5421   20.6945 H   0  0  0  0  0  0  0  0  0  0  0  0
    5.1884   -2.2442   21.2239 H   0  0  0  0  0  0  0  0  0  0  0  0
  1  8  1  0  0  0  0
  1 23  3  0  0  0  0
  2  5  2  0  0  0  0
  2  8  1  0  0  0  0
  3  4  2  0  0  0  0
  3  9  1  0  0  0  0
  4 11  1  0  0  0  0
  5 12  1  0  0  0  0
  6 10  1  0  0  0  0
  6 11  2  0  0  0  0
  7  8  2  0  0  0  0
  7 24  1  0  0  0  0
  9 10  2  0  0  0  0
  9 19  1  0  0  0  0
 10 21  1  0  0  0  0
 11 29  1  0  0  0  0
 12 24  2  0  0  0  0
 12 26  1  0  0  0  0
 13 14  2  0  0  0  0
 14 15  1  0  0  0  0
 15 25  1  0  0  0  0
 15 27  2  0  0  0  0
 16 18  1  0  0  0  0
 16 25  1  0  0  0  0
 17 19  1  0  0  0  0
 17 25  1  0  0  0  0
 18 28  1  0  0  0  0
 19 28  1  0  0  0  0
 20 22  1  0  0  0  0
 21 22  1  0  0  0  0
 22 26  1  0  0  0  0
  2 30  1  0  0  0  0
  3 31  1  0  0  0  0
  4 32  1  0  0  0  0
  5 33  1  0  0  0  0
  6 34  1  0  0  0  0
  7 35  1  0  0  0  0
 13 36  1  0  0  0  0
 13 37  1  0  0  0  0
 14 38  1  0  0  0  0
 16 39  1  0  0  0  0
 16 40  1  0  0  0  0
 17 41  1  0  0  0  0
 17 42  1  0  0  0  0
 18 43  1  0  0  0  0
 18 44  1  0  0  0  0
 19 45  1  0  0  0  0
 20 46  1  0  0  0  0
 20 47  1  0  0  0  0
 20 48  1  0  0  0  0
 21 49  1  0  0  0  0
 21 50  1  0  0  0  0
 22 51  1  0  0  0  0
 26 52  1  0  0  0  0
M  END
> <creator>
Benjamin P. Brown, Vanderbilt University, Laboratory of Jens Meiler

> <fragments>
x0759

> <real_space>
FALSE

> <SCR>
FALSE

> <BB>
FALSE

> <link>
https://covid.postera.ai/covid/submissions/77cef4f8-69c7-4a42-be72-6e63eb0b6889

> <covalent_frag>
TRUE

> <covalent_warhead>
TRUE

> <acrylamide>
TRUE

> <acrylamide_adduct>
FALSE

> <chloroacetamide>
FALSE

> <chloroacetamide_adduct>
FALSE

> <vinylsulfonamide>
FALSE

> <vinylsulfonamide_adduct>
FALSE

> <in_molport_or_mcule>
FALSE

> <in_emolecules>
FALSE

> <Hybrid2>
-3.355216

> <Mpro-x0759_dock>
-3.355216

> <Mpro-x1478_dock>
-0.108594

> <site>
active-covalent

> <covalent_distance_min>
6.93249

> <covalent_distance_mean>
8.331517

> <covalent_distance_stderr>
0.07538538

$$$$
DAV-CRI-f47-4
  -OEChem-04062011563D

 59 63  0     1  0  0  0  0  0999 V2000
   12.7054    0.9686   23.3652 C   0  0  0  0  0  0  0  0  0  0  0  0
   12.6451   -0.3656   22.9630 C   0  0  0  0  0  0  0  0  0  0  0  0
   11.6178    1.5505   24.0166 C   0  0  0  0  0  0  0  0  0  0  0  0
   11.4973   -1.1180   23.2121 C   0  0  0  0  0  0  0  0  0  0  0  0
   10.4700    0.7981   24.2658 C   0  0  0  0  0  0  0  0  0  0  0  0
    8.6854   -5.0983   24.7159 C   0  0  0  0  0  0  0  0  0  0  0  0
    9.8523   -5.4494   25.3890 C   0  0  0  0  0  0  0  0  0  0  0  0
   10.5948   -3.1560   25.2688 C   0  0  0  0  0  0  0  0  0  0  0  0
   10.4097   -0.5362   23.8635 C   0  0  0  0  0  0  0  0  0  0  0  0
    8.4729   -3.7733   24.3036 C   0  0  0  0  0  0  0  0  0  0  0  0
    9.4401   -2.7919   24.5548 C   0  0  0  0  0  0  0  0  0  0  0  0
   10.8043   -4.4765   25.6711 C   0  0  0  0  0  0  0  0  0  0  0  0
    3.7927   -4.6985   22.5683 C   0  0  0  0  0  0  0  0  0  0  0  0
    8.1894   -1.2182   22.9410 C   0  0  0  0  0  0  0  0  0  0  0  0
    6.7230   -2.3426   21.3845 C   0  0  0  0  0  0  0  0  0  0  0  0
    3.2788   -6.1101   22.7289 C   0  0  0  0  0  0  0  0  0  0  0  0
    3.9070   -6.5664   24.0404 C   0  0  0  0  0  0  0  0  0  0  0  0
    4.0488   -5.2872   24.8406 C   0  0  0  0  0  0  0  0  0  0  0  0
    6.3926   -1.5075   25.1440 C   0  0  0  0  0  0  0  0  0  0  0  0
    3.8491   -2.3139   25.2298 C   0  0  0  0  0  0  0  0  0  0  0  0
    9.1524   -1.3594   24.1364 C   0  0  2  0  0  0  0  0  0  0  0  0
    7.1790   -3.3795   23.6394 C   0  0  1  0  0  0  0  0  0  0  0  0
    6.1502   -2.9475   24.6759 C   0  0  2  0  0  0  0  0  0  0  0  0
    4.7052   -2.9620   24.1427 C   0  0  1  0  0  0  0  0  0  0  0  0
    6.8916   -1.1419   20.4836 C   0  0  0  0  0  0  0  0  0  0  0  0
    7.3825   -2.3225   22.6254 N   0  0  0  0  0  0  0  0  0  0  0  0
    4.2362   -4.2821   23.8213 N   0  0  0  0  0  0  0  0  0  0  0  0
    3.7621   -4.0615   21.5260 O   0  0  0  0  0  0  0  0  0  0  0  0
    8.1266   -0.1414   22.3361 O   0  0  0  0  0  0  0  0  0  0  0  0
    5.9901   -3.2617   21.0044 O   0  0  0  0  0  0  0  0  0  0  0  0
    4.4381    0.2577   25.2361 O   0  0  0  0  0  0  0  0  0  0  0  0
    4.9372   -1.1159   27.3097 O   0  0  0  0  0  0  0  0  0  0  0  0
   11.9196   -4.8035   26.3373 F   0  0  0  0  0  0  0  0  0  0  0  0
    4.8481   -0.9776   25.8710 S   0  0  0  0  0  0  0  0  0  0  0  0
    5.9861   -1.4854   19.0146 Cl  0  0  0  0  0  0  0  0  0  0  0  0
   13.5997    1.5539   23.1723 H   0  0  0  0  0  0  0  0  0  0  0  0
   13.4923   -0.8192   22.4567 H   0  0  0  0  0  0  0  0  0  0  0  0
   11.6648    2.5889   24.3309 H   0  0  0  0  0  0  0  0  0  0  0  0
   11.4592   -2.1569   22.8950 H   0  0  0  0  0  0  0  0  0  0  0  0
    9.6275    1.2598   24.7738 H   0  0  0  0  0  0  0  0  0  0  0  0
    7.9349   -5.8601   24.5226 H   0  0  0  0  0  0  0  0  0  0  0  0
   10.0110   -6.4758   25.7057 H   0  0  0  0  0  0  0  0  0  0  0  0
   11.3473   -2.4145   25.5247 H   0  0  0  0  0  0  0  0  0  0  0  0
    2.1872   -6.1280   22.7730 H   0  0  0  0  0  0  0  0  0  0  0  0
    3.6318   -6.7110   21.8850 H   0  0  0  0  0  0  0  0  0  0  0  0
    3.2297   -7.2585   24.5556 H   0  0  0  0  0  0  0  0  0  0  0  0
    4.8624   -7.0763   23.8872 H   0  0  0  0  0  0  0  0  0  0  0  0
    3.1578   -5.0721   25.4360 H   0  0  0  0  0  0  0  0  0  0  0  0
    4.9358   -5.3016   25.4810 H   0  0  0  0  0  0  0  0  0  0  0  0
    7.1897   -1.4414   25.8898 H   0  0  0  0  0  0  0  0  0  0  0  0
    6.6130   -0.8366   24.3065 H   0  0  0  0  0  0  0  0  0  0  0  0
    2.9085   -1.9145   24.8437 H   0  0  0  0  0  0  0  0  0  0  0  0
    3.6537   -3.0021   26.0586 H   0  0  0  0  0  0  0  0  0  0  0  0
    8.6336   -0.8815   24.9906 H   0  0  0  0  0  0  0  0  0  0  0  0
    6.7887   -4.2627   23.1241 H   0  0  0  0  0  0  0  0  0  0  0  0
    6.2239   -3.6156   25.5442 H   0  0  0  0  0  0  0  0  0  0  0  0
    4.6433   -2.3658   23.2215 H   0  0  0  0  0  0  0  0  0  0  0  0
    7.9437   -1.0220   20.2541 H   0  0  0  0  0  0  0  0  0  0  0  0
    6.4805   -0.2715   20.9807 H   0  0  0  0  0  0  0  0  0  0  0  0
  1  2  1  0  0  0  0
  1  3  2  0  0  0  0
  2  4  2  0  0  0  0
  3  5  1  0  0  0  0
  4  9  1  0  0  0  0
  5  9  2  0  0  0  0
  6  7  2  0  0  0  0
  6 10  1  0  0  0  0
  7 12  1  0  0  0  0
  8 11  1  0  0  0  0
  8 12  2  0  0  0  0
  9 21  1  0  0  0  0
 10 11  2  0  0  0  0
 10 22  1  0  0  0  0
 11 21  1  0  0  0  0
 12 33  1  0  0  0  0
 13 16  1  0  0  0  0
 13 27  1  0  0  0  0
 13 28  2  0  0  0  0
 14 21  1  0  0  0  0
 14 26  1  0  0  0  0
 14 29  2  0  0  0  0
 15 25  1  0  0  0  0
 15 26  1  0  0  0  0
 15 30  2  0  0  0  0
 16 17  1  0  0  0  0
 17 18  1  0  0  0  0
 18 27  1  0  0  0  0
 19 23  1  0  0  0  0
 19 34  1  0  0  0  0
 20 24  1  0  0  0  0
 20 34  1  0  0  0  0
 22 23  1  0  0  0  0
 22 26  1  0  0  0  0
 23 24  1  0  0  0  0
 24 27  1  0  0  0  0
 25 35  1  0  0  0  0
 31 34  2  0  0  0  0
 32 34  2  0  0  0  0
  1 36  1  0  0  0  0
  2 37  1  0  0  0  0
  3 38  1  0  0  0  0
  4 39  1  0  0  0  0
  5 40  1  0  0  0  0
  6 41  1  0  0  0  0
  7 42  1  0  0  0  0
  8 43  1  0  0  0  0
 16 44  1  0  0  0  0
 16 45  1  0  0  0  0
 17 46  1  0  0  0  0
 17 47  1  0  0  0  0
 18 48  1  0  0  0  0
 18 49  1  0  0  0  0
 19 50  1  0  0  0  0
 19 51  1  0  0  0  0
 20 52  1  0  0  0  0
 20 53  1  0  0  0  0
 21 54  1  0  0  0  0
 22 55  1  0  0  0  0
 23 56  1  0  0  0  0
 24 57  1  0  0  0  0
 25 58  1  0  0  0  0
 25 59  1  0  0  0  0
M  END
> <creator>
David Briggs, Crick Institute

> <fragments>
x1392

> <real_space>
FALSE

> <SCR>
FALSE

> <BB>
FALSE

> <link>
https://covid.postera.ai/covid/submissions/f4772df7-f5a5-4208-a16e-3d41483cc4c7

> <covalent_frag>
TRUE

> <covalent_warhead>
TRUE

> <acrylamide>
FALSE

> <acrylamide_adduct>
FALSE

> <chloroacetamide>
TRUE

> <chloroacetamide_adduct>
FALSE

> <vinylsulfonamide>
FALSE

> <vinylsulfonamide_adduct>
FALSE

> <in_molport_or_mcule>
FALSE

> <in_emolecules>
FALSE

> <Hybrid2>
-3.306824

> <Mpro-x1392_dock>
-3.306824

> <Mpro-x1384_dock>
1.014741

> <Mpro-x1375_dock>
1.802004

> <site>
active-covalent

> <covalent_distance_min>
2.9361322

> <covalent_distance_mean>
3.3031352

> <covalent_distance_stderr>
0.024176588

$$$$
MAK-UNK-8fd-4
  -OEChem-04062011563D

 75 78  0     1  0  0  0  0  0999 V2000
   13.7996    0.3963   22.8064 C   0  0  0  0  0  0  0  0  0  0  0  0
   14.3847   -0.6685   22.1213 C   0  0  0  0  0  0  0  0  0  0  0  0
    7.5354    0.4842   28.0466 C   0  0  0  0  0  0  0  0  0  0  0  0
   12.4108    0.4845   22.9031 C   0  0  0  0  0  0  0  0  0  0  0  0
   13.5812   -1.6450   21.5328 C   0  0  0  0  0  0  0  0  0  0  0  0
    8.5407    0.4867   27.0860 C   0  0  0  0  0  0  0  0  0  0  0  0
    6.3255    1.0755   27.7206 C   0  0  0  0  0  0  0  0  0  0  0  0
    7.0639    1.6368   25.6188 C   0  0  0  0  0  0  0  0  0  0  0  0
   11.6073   -0.4920   22.3146 C   0  0  0  0  0  0  0  0  0  0  0  0
   12.1924   -1.5568   21.6295 C   0  0  0  0  0  0  0  0  0  0  0  0
    8.3085    1.0721   25.8463 C   0  0  0  0  0  0  0  0  0  0  0  0
    9.2854   -0.3001   21.3726 C   0  0  0  0  0  0  0  0  0  0  0  0
    7.8852   -0.2822   23.1552 C   0  0  0  0  0  0  0  0  0  0  0  0
   10.1317   -0.3933   22.4206 C   0  0  0  0  0  0  0  0  0  0  0  0
    7.9155   -0.2328   21.8178 C   0  0  0  0  0  0  0  0  0  0  0  0
    7.9549   -3.6395   24.1123 C   0  0  0  0  0  0  0  0  0  0  0  0
    4.0599   -6.9224   23.7786 C   0  0  0  0  0  0  0  0  0  0  0  0
    7.3862   -5.8468   23.1144 C   0  0  0  0  0  0  0  0  0  0  0  0
    5.7933   -3.8799   22.8756 C   0  0  0  0  0  0  0  0  0  0  0  0
    6.4499   -6.4215   24.1759 C   0  0  0  0  0  0  0  0  0  0  0  0
    4.8961   -4.5259   23.9321 C   0  0  0  0  0  0  0  0  0  0  0  0
    7.2553   -4.3267   22.9759 C   0  0  0  0  0  0  0  0  0  0  0  0
    9.2935   -0.4028   23.6960 C   0  0  2  0  0  0  0  0  0  0  0  0
   10.8078   -1.8381   25.1126 C   0  0  0  0  0  0  0  0  0  0  0  0
    9.8765   -3.0750   22.6174 C   0  0  0  0  0  0  0  0  0  0  0  0
    5.6516    1.2628   19.1274 C   0  0  0  0  0  0  0  0  0  0  0  0
    6.7742   -0.1213   20.8775 C   0  0  0  0  0  0  0  0  0  0  0  0
    2.6708   -6.3843   23.5450 C   0  0  0  0  0  0  0  0  0  0  0  0
    9.3987   -1.6480   24.5704 C   0  0  2  0  0  0  0  0  0  0  0  0
    6.0629    1.6538   26.5272 N   0  0  0  0  0  0  0  0  0  0  0  0
    5.0744   -5.9810   23.9473 N   0  0  0  0  0  0  0  0  0  0  0  0
    9.0343   -2.8204   23.7791 N   0  0  0  0  0  0  0  0  0  0  0  0
    6.8174    1.1030   20.0376 N   0  3  0  0  0  0  0  0  0  0  0  0
    7.5551   -3.8240   25.2649 O   0  0  0  0  0  0  0  0  0  0  0  0
    4.2363   -8.1432   23.8078 O   0  0  0  0  0  0  0  0  0  0  0  0
    9.2756    2.2219   23.7304 O   0  0  0  0  0  0  0  0  0  0  0  0
   10.8516    0.9883   25.2601 O   0  0  0  0  0  0  0  0  0  0  0  0
   11.4335   -2.5036   21.0583 F   0  0  0  0  0  0  0  0  0  0  0  0
    9.5622    1.0945   24.6000 S   0  0  0  0  0  0  0  0  0  0  0  0
    1.6190   -7.7796   23.3337 Cl  0  0  0  0  0  0  0  0  0  0  0  0
   14.4255    1.1571   23.2643 H   0  0  0  0  0  0  0  0  0  0  0  0
   15.4659   -0.7373   22.0459 H   0  0  0  0  0  0  0  0  0  0  0  0
    7.6939    0.0338   29.0197 H   0  0  0  0  0  0  0  0  0  0  0  0
   11.9701    1.3210   23.4401 H   0  0  0  0  0  0  0  0  0  0  0  0
   14.0363   -2.4743   20.9993 H   0  0  0  0  0  0  0  0  0  0  0  0
    9.5002    0.0305   27.3131 H   0  0  0  0  0  0  0  0  0  0  0  0
    5.5091    1.0999   28.4350 H   0  0  0  0  0  0  0  0  0  0  0  0
    6.8235    2.1082   24.6709 H   0  0  0  0  0  0  0  0  0  0  0  0
    9.5737   -0.2797   20.3319 H   0  0  0  0  0  0  0  0  0  0  0  0
    6.9922   -0.2494   23.7632 H   0  0  0  0  0  0  0  0  0  0  0  0
    8.4194   -6.1213   23.3589 H   0  0  0  0  0  0  0  0  0  0  0  0
    7.1536   -6.3136   22.1486 H   0  0  0  0  0  0  0  0  0  0  0  0
    5.4100   -4.1453   21.8818 H   0  0  0  0  0  0  0  0  0  0  0  0
    5.7221   -2.7889   22.9620 H   0  0  0  0  0  0  0  0  0  0  0  0
    6.5159   -7.5142   24.1703 H   0  0  0  0  0  0  0  0  0  0  0  0
    6.7421   -6.0846   25.1772 H   0  0  0  0  0  0  0  0  0  0  0  0
    5.1483   -4.1584   24.9334 H   0  0  0  0  0  0  0  0  0  0  0  0
    3.8590   -4.2423   23.7440 H   0  0  0  0  0  0  0  0  0  0  0  0
    7.7850   -4.0107   22.0684 H   0  0  0  0  0  0  0  0  0  0  0  0
   11.5313   -1.9178   24.2939 H   0  0  0  0  0  0  0  0  0  0  0  0
   10.8744   -2.7508   25.7139 H   0  0  0  0  0  0  0  0  0  0  0  0
   11.1128   -0.9931   25.7401 H   0  0  0  0  0  0  0  0  0  0  0  0
    9.4633   -2.5517   21.7425 H   0  0  0  0  0  0  0  0  0  0  0  0
   10.8949   -2.7095   22.8158 H   0  0  0  0  0  0  0  0  0  0  0  0
    9.9075   -4.1561   22.4170 H   0  0  0  0  0  0  0  0  0  0  0  0
    4.7478    1.2637   19.7394 H   0  0  0  0  0  0  0  0  0  0  0  0
    5.7683    2.2104   18.5981 H   0  0  0  0  0  0  0  0  0  0  0  0
    5.6534    0.4217   18.4314 H   0  0  0  0  0  0  0  0  0  0  0  0
    5.8264   -0.0848   21.4234 H   0  0  0  0  0  0  0  0  0  0  0  0
    6.7580   -0.9706   20.1879 H   0  0  0  0  0  0  0  0  0  0  0  0
    2.6744   -5.7811   22.6443 H   0  0  0  0  0  0  0  0  0  0  0  0
    2.3638   -5.8148   24.4148 H   0  0  0  0  0  0  0  0  0  0  0  0
    8.6939   -1.5710   25.4054 H   0  0  0  0  0  0  0  0  0  0  0  0
    7.6822    1.0997   19.4785 H   0  0  0  0  0  0  0  0  0  0  0  0
    6.8831    1.9302   20.6475 H   0  0  0  0  0  0  0  0  0  0  0  0
  1  2  1  0  0  0  0
  1  4  2  0  0  0  0
  2  5  2  0  0  0  0
  3  6  2  0  0  0  0
  3  7  1  0  0  0  0
  4  9  1  0  0  0  0
  5 10  1  0  0  0  0
  6 11  1  0  0  0  0
  7 30  2  0  0  0  0
  8 11  2  0  0  0  0
  8 30  1  0  0  0  0
  9 10  2  0  0  0  0
  9 14  1  0  0  0  0
 10 38  1  0  0  0  0
 11 39  1  0  0  0  0
 12 14  2  0  0  0  0
 12 15  1  0  0  0  0
 13 15  2  0  0  0  0
 13 23  1  0  0  0  0
 14 23  1  0  0  0  0
 15 27  1  0  0  0  0
 16 22  1  0  0  0  0
 16 32  1  0  0  0  0
 16 34  2  0  0  0  0
 17 28  1  0  0  0  0
 17 31  1  0  0  0  0
 17 35  2  0  0  0  0
 18 20  1  0  0  0  0
 18 22  1  0  0  0  0
 19 21  1  0  0  0  0
 19 22  1  0  0  0  0
 20 31  1  0  0  0  0
 21 31  1  0  0  0  0
 23 29  1  0  0  0  0
 23 39  1  0  0  0  0
 24 29  1  0  0  0  0
 25 32  1  0  0  0  0
 26 33  1  0  0  0  0
 27 33  1  0  0  0  0
 28 40  1  0  0  0  0
 29 32  1  0  0  0  0
 36 39  2  0  0  0  0
 37 39  2  0  0  0  0
  1 41  1  0  0  0  0
  2 42  1  0  0  0  0
  3 43  1  0  0  0  0
  4 44  1  0  0  0  0
  5 45  1  0  0  0  0
  6 46  1  0  0  0  0
  7 47  1  0  0  0  0
  8 48  1  0  0  0  0
 12 49  1  0  0  0  0
 13 50  1  0  0  0  0
 18 51  1  0  0  0  0
 18 52  1  0  0  0  0
 19 53  1  0  0  0  0
 19 54  1  0  0  0  0
 20 55  1  0  0  0  0
 20 56  1  0  0  0  0
 21 57  1  0  0  0  0
 21 58  1  0  0  0  0
 22 59  1  0  0  0  0
 24 60  1  0  0  0  0
 24 61  1  0  0  0  0
 24 62  1  0  0  0  0
 25 63  1  0  0  0  0
 25 64  1  0  0  0  0
 25 65  1  0  0  0  0
 26 66  1  0  0  0  0
 26 67  1  0  0  0  0
 26 68  1  0  0  0  0
 27 69  1  0  0  0  0
 27 70  1  0  0  0  0
 28 71  1  0  0  0  0
 28 72  1  0  0  0  0
 29 73  1  0  0  0  0
 33 74  1  0  0  0  0
 33 75  1  0  0  0  0
M  CHG  1  33   1
M  END
> <creator>
Maksym Voznyy

> <fragments>
x0305

> <real_space>
FALSE

> <SCR>
FALSE

> <BB>
FALSE

> <link>
https://covid.postera.ai/covid/submissions/8fdbca50-c94c-4218-91b0-3b0489774fa8

> <covalent_frag>
FALSE

> <covalent_warhead>
TRUE

> <acrylamide>
FALSE

> <acrylamide_adduct>
FALSE

> <chloroacetamide>
TRUE

> <chloroacetamide_adduct>
FALSE

> <vinylsulfonamide>
FALSE

> <vinylsulfonamide_adduct>
FALSE

> <in_molport_or_mcule>
FALSE

> <in_emolecules>
FALSE

> <Hybrid2>
-3.253440

> <Mpro-x0305_dock>
-3.25344

> <site>
active-noncovalent

> <covalent_distance_min>
7.3411155

> <covalent_distance_mean>
8.450836

> <covalent_distance_stderr>
0.07550643

$$$$
BEN-VAN-77c-12
  -OEChem-04062011563D

 52 54  0     1  0  0  0  0  0999 V2000
    7.2398   -7.0640   24.2492 C   0  0  0  0  0  0  0  0  0  0  0  0
    5.5531   -5.7331   23.0685 C   0  0  0  0  0  0  0  0  0  0  0  0
    9.6042   -2.1240   24.3967 C   0  0  0  0  0  0  0  0  0  0  0  0
    8.7155   -2.5365   25.3894 C   0  0  0  0  0  0  0  0  0  0  0  0
    5.2259   -4.6296   22.2883 C   0  0  0  0  0  0  0  0  0  0  0  0
    7.8232   -5.0252   23.0253 C   0  0  0  0  0  0  0  0  0  0  0  0
    6.8742   -5.9419   23.4483 C   0  0  0  0  0  0  0  0  0  0  0  0
    9.1212   -1.5261   23.2327 C   0  0  0  0  0  0  0  0  0  0  0  0
    7.7493   -1.3409   23.0614 C   0  0  0  0  0  0  0  0  0  0  0  0
    7.3436   -2.3513   25.2181 C   0  0  0  0  0  0  0  0  0  0  0  0
    6.8605   -1.7535   24.0541 C   0  0  0  0  0  0  0  0  0  0  0  0
    6.2487   -3.7716   21.9174 C   0  0  0  0  0  0  0  0  0  0  0  0
   13.5040    2.7395   25.1713 C   0  0  0  0  0  0  0  0  0  0  0  0
   12.8092    1.6001   25.1573 C   0  0  0  0  0  0  0  0  0  0  0  0
   11.6279    1.4951   24.2755 C   0  0  0  0  0  0  0  0  0  0  0  0
   12.7537   -0.4413   23.0932 C   0  0  0  0  0  0  0  0  0  0  0  0
   10.5338    0.3788   22.3654 C   0  0  0  0  0  0  0  0  0  0  0  0
   12.4728   -1.4039   21.9484 C   0  0  0  0  0  0  0  0  0  0  0  0
   10.1071   -1.0859   22.1687 C   0  0  1  0  0  0  0  0  0  0  0  0
    6.3265   -1.0039   19.4458 C   0  0  0  0  0  0  0  0  0  0  0  0
    7.2124   -0.7022   21.8224 C   0  0  0  0  0  0  0  0  0  0  0  0
    6.8903   -1.6990   20.6852 C   0  0  1  0  0  0  0  0  0  0  0  0
    7.5373   -7.9770   24.9009 N   0  0  0  0  0  0  0  0  0  0  0  0
    7.5435   -3.9416   22.2669 N   0  0  0  0  0  0  0  0  0  0  0  0
   11.6489    0.4996   23.3022 N   0  0  0  0  0  0  0  0  0  0  0  0
    5.9100   -2.6865   21.1463 N   0  0  0  0  0  0  0  0  0  0  0  0
   10.7014    2.2867   24.4532 O   0  0  0  0  0  0  0  0  0  0  0  0
   11.1998   -2.0155   22.1295 O   0  0  0  0  0  0  0  0  0  0  0  0
    6.4901   -2.7462   26.1716 F   0  0  0  0  0  0  0  0  0  0  0  0
    5.5404   -1.5793   23.8997 F   0  0  0  0  0  0  0  0  0  0  0  0
    4.7685   -6.4212   23.3729 H   0  0  0  0  0  0  0  0  0  0  0  0
   10.6714   -2.2722   24.5398 H   0  0  0  0  0  0  0  0  0  0  0  0
    9.0911   -3.0016   26.2960 H   0  0  0  0  0  0  0  0  0  0  0  0
    4.1973   -4.4583   21.9883 H   0  0  0  0  0  0  0  0  0  0  0  0
    8.8717   -5.1315   23.2889 H   0  0  0  0  0  0  0  0  0  0  0  0
   14.3796    2.8767   25.7970 H   0  0  0  0  0  0  0  0  0  0  0  0
   13.2003    3.5699   24.5426 H   0  0  0  0  0  0  0  0  0  0  0  0
   13.0810    0.7501   25.7694 H   0  0  0  0  0  0  0  0  0  0  0  0
   12.8575   -1.0001   24.0342 H   0  0  0  0  0  0  0  0  0  0  0  0
   13.6984    0.0895   22.9208 H   0  0  0  0  0  0  0  0  0  0  0  0
   10.7707    0.8137   21.3859 H   0  0  0  0  0  0  0  0  0  0  0  0
    9.7080    0.9702   22.7929 H   0  0  0  0  0  0  0  0  0  0  0  0
   12.5069   -0.8953   20.9793 H   0  0  0  0  0  0  0  0  0  0  0  0
   13.2260   -2.1962   21.9372 H   0  0  0  0  0  0  0  0  0  0  0  0
    9.5465   -1.1793   21.1858 H   0  0  0  0  0  0  0  0  0  0  0  0
    5.4132   -0.4493   19.6903 H   0  0  0  0  0  0  0  0  0  0  0  0
    6.0824   -1.7233   18.6560 H   0  0  0  0  0  0  0  0  0  0  0  0
    7.0417   -0.2827   19.0373 H   0  0  0  0  0  0  0  0  0  0  0  0
    6.3119   -0.1065   22.0526 H   0  0  0  0  0  0  0  0  0  0  0  0
    7.9528    0.0335   21.4631 H   0  0  0  0  0  0  0  0  0  0  0  0
    7.7992   -2.2395   20.3967 H   0  0  0  0  0  0  0  0  0  0  0  0
    4.9548   -2.5410   20.8746 H   0  0  0  0  0  0  0  0  0  0  0  0
  1  7  1  0  0  0  0
  1 23  3  0  0  0  0
  2  5  2  0  0  0  0
  2  7  1  0  0  0  0
  3  4  2  0  0  0  0
  3  8  1  0  0  0  0
  4 10  1  0  0  0  0
  5 12  1  0  0  0  0
  6  7  2  0  0  0  0
  6 24  1  0  0  0  0
  8  9  2  0  0  0  0
  8 19  1  0  0  0  0
  9 11  1  0  0  0  0
  9 21  1  0  0  0  0
 10 11  2  0  0  0  0
 10 29  1  0  0  0  0
 11 30  1  0  0  0  0
 12 24  2  0  0  0  0
 12 26  1  0  0  0  0
 13 14  2  0  0  0  0
 14 15  1  0  0  0  0
 15 25  1  0  0  0  0
 15 27  2  0  0  0  0
 16 18  1  0  0  0  0
 16 25  1  0  0  0  0
 17 19  1  0  0  0  0
 17 25  1  0  0  0  0
 18 28  1  0  0  0  0
 19 28  1  0  0  0  0
 20 22  1  0  0  0  0
 21 22  1  0  0  0  0
 22 26  1  0  0  0  0
  2 31  1  0  0  0  0
  3 32  1  0  0  0  0
  4 33  1  0  0  0  0
  5 34  1  0  0  0  0
  6 35  1  0  0  0  0
 13 36  1  0  0  0  0
 13 37  1  0  0  0  0
 14 38  1  0  0  0  0
 16 39  1  0  0  0  0
 16 40  1  0  0  0  0
 17 41  1  0  0  0  0
 17 42  1  0  0  0  0
 18 43  1  0  0  0  0
 18 44  1  0  0  0  0
 19 45  1  0  0  0  0
 20 46  1  0  0  0  0
 20 47  1  0  0  0  0
 20 48  1  0  0  0  0
 21 49  1  0  0  0  0
 21 50  1  0  0  0  0
 22 51  1  0  0  0  0
 26 52  1  0  0  0  0
M  END
> <creator>
Benjamin P. Brown, Vanderbilt University, Laboratory of Jens Meiler

> <fragments>
x0759

> <real_space>
FALSE

> <SCR>
FALSE

> <BB>
FALSE

> <link>
https://covid.postera.ai/covid/submissions/77cef4f8-69c7-4a42-be72-6e63eb0b6889

> <covalent_frag>
TRUE

> <covalent_warhead>
TRUE

> <acrylamide>
TRUE

> <acrylamide_adduct>
FALSE

> <chloroacetamide>
FALSE

> <chloroacetamide_adduct>
FALSE

> <vinylsulfonamide>
FALSE

> <vinylsulfonamide_adduct>
FALSE

> <in_molport_or_mcule>
FALSE

> <in_emolecules>
FALSE

> <Hybrid2>
-3.237170

> <Mpro-x0759_dock>
-3.23717

> <Mpro-x1478_dock>
-1.953285

> <site>
active-covalent

> <covalent_distance_min>
7.2637153

> <covalent_distance_mean>
8.452271

> <covalent_distance_stderr>
0.0595948

$$$$
WAR-XCH-bdd-25
  -OEChem-04062011563D

 56 59  0     1  0  0  0  0  0999 V2000
    6.6430   -0.4673   18.8068 C   0  0  0  0  0  0  0  0  0  0  0  0
    7.5242   -3.8924   22.6873 C   0  0  0  0  0  0  0  0  0  0  0  0
    6.4477   -1.5593   17.9766 C   0  0  0  0  0  0  0  0  0  0  0  0
    5.9191   -2.9241   19.7475 C   0  0  0  0  0  0  0  0  0  0  0  0
    7.9206   -4.6222   23.8479 C   0  0  0  0  0  0  0  0  0  0  0  0
    6.4587   -0.6472   20.1731 C   0  0  0  0  0  0  0  0  0  0  0  0
    6.0899   -1.8961   20.6607 C   0  0  0  0  0  0  0  0  0  0  0  0
    7.1786   -4.2511   24.9533 C   0  0  0  0  0  0  0  0  0  0  0  0
    6.5093   -2.9994   22.9564 C   0  0  0  0  0  0  0  0  0  0  0  0
   10.1636   -1.9879   23.6373 C   0  0  0  0  0  0  0  0  0  0  0  0
    8.9760   -5.6822   23.9161 C   0  0  0  0  0  0  0  0  0  0  0  0
    7.3579   -4.8020   26.3333 C   0  0  0  0  0  0  0  0  0  0  0  0
    9.3971   -5.9752   25.3647 C   0  0  0  0  0  0  0  0  0  0  0  0
    8.1808   -6.0995   26.2940 C   0  0  0  0  0  0  0  0  0  0  0  0
    7.8994    0.3446   24.6058 C   0  0  0  0  0  0  0  0  0  0  0  0
    9.3887    0.0616   24.7796 C   0  0  0  0  0  0  0  0  0  0  0  0
   10.2604    0.2611   22.4726 C   0  0  0  0  0  0  0  0  0  0  0  0
    7.5472    1.1411   23.3507 C   0  0  0  0  0  0  0  0  0  0  0  0
    9.1090    0.3745   21.4790 C   0  0  0  0  0  0  0  0  0  0  0  0
    6.6624    0.5183   21.0955 C   0  0  0  0  0  0  0  0  0  0  0  0
   10.7901   -2.6010   22.4098 C   0  0  0  0  0  0  0  0  0  0  0  0
    6.0892   -2.7874   18.4133 N   0  0  0  0  0  0  0  0  0  0  0  0
    9.9827   -0.6041   23.6204 N   0  0  0  0  0  0  0  0  0  0  0  0
    5.8940   -2.1263   22.0339 N   0  0  0  0  0  0  0  0  0  0  0  0
    7.7446    0.2798   22.1195 N   0  3  2  0  0  0  0  0  0  0  0  0
    9.8510   -2.7138   24.5844 O   0  0  0  0  0  0  0  0  0  0  0  0
    6.0339   -3.0413   24.6011 S   0  0  0  0  0  0  0  0  0  0  0  0
   12.5309   -2.5636   22.6631 Cl  0  0  0  0  0  0  0  0  0  0  0  0
    6.9296    0.4943   18.3946 H   0  0  0  0  0  0  0  0  0  0  0  0
    7.9669   -4.0178   21.7067 H   0  0  0  0  0  0  0  0  0  0  0  0
    6.5788   -1.4715   16.9031 H   0  0  0  0  0  0  0  0  0  0  0  0
    5.6308   -3.9211   20.0670 H   0  0  0  0  0  0  0  0  0  0  0  0
    8.6196   -6.6051   23.4445 H   0  0  0  0  0  0  0  0  0  0  0  0
    9.8493   -5.3406   23.3465 H   0  0  0  0  0  0  0  0  0  0  0  0
    7.8549   -4.0762   26.9868 H   0  0  0  0  0  0  0  0  0  0  0  0
    6.3702   -5.0132   26.7616 H   0  0  0  0  0  0  0  0  0  0  0  0
    9.9705   -6.9108   25.3989 H   0  0  0  0  0  0  0  0  0  0  0  0
   10.0610   -5.1793   25.7208 H   0  0  0  0  0  0  0  0  0  0  0  0
    8.5280   -6.3443   27.3063 H   0  0  0  0  0  0  0  0  0  0  0  0
    7.5418   -6.9278   25.9674 H   0  0  0  0  0  0  0  0  0  0  0  0
    7.3106   -0.5833   24.6642 H   0  0  0  0  0  0  0  0  0  0  0  0
    7.5789    0.9359   25.4778 H   0  0  0  0  0  0  0  0  0  0  0  0
    9.9028    0.9937   24.9558 H   0  0  0  0  0  0  0  0  0  0  0  0
    9.5327   -0.5889   25.6307 H   0  0  0  0  0  0  0  0  0  0  0  0
   11.2047   -0.0601   21.9914 H   0  0  0  0  0  0  0  0  0  0  0  0
   10.4785    1.2789   22.8481 H   0  0  0  0  0  0  0  0  0  0  0  0
    6.4863    1.3946   23.3825 H   0  0  0  0  0  0  0  0  0  0  0  0
    8.1388    2.0492   23.2344 H   0  0  0  0  0  0  0  0  0  0  0  0
    9.1474    1.3106   20.8906 H   0  0  0  0  0  0  0  0  0  0  0  0
    9.1731   -0.4661   20.7648 H   0  0  0  0  0  0  0  0  0  0  0  0
    6.9481    1.4179   20.5398 H   0  0  0  0  0  0  0  0  0  0  0  0
    5.7473    0.7467   21.6524 H   0  0  0  0  0  0  0  0  0  0  0  0
   10.5256   -2.0024   21.5464 H   0  0  0  0  0  0  0  0  0  0  0  0
   10.4481   -3.6247   22.3172 H   0  0  0  0  0  0  0  0  0  0  0  0
    5.1637   -1.5507   22.4470 H   0  0  0  0  0  0  0  0  0  0  0  0
    7.6261   -0.7066   22.4198 H   0  0  0  0  0  0  0  0  0  0  0  0
  1  3  2  0  0  0  0
  1  6  1  0  0  0  0
  2  5  1  0  0  0  0
  2  9  2  0  0  0  0
  3 22  1  0  0  0  0
  4  7  1  0  0  0  0
  4 22  2  0  0  0  0
  5  8  2  0  0  0  0
  5 11  1  0  0  0  0
  6  7  2  0  0  0  0
  6 20  1  0  0  0  0
  7 24  1  0  0  0  0
  8 12  1  0  0  0  0
  8 27  1  0  0  0  0
  9 24  1  0  0  0  0
  9 27  1  0  0  0  0
 10 21  1  0  0  0  0
 10 23  1  0  0  0  0
 10 26  2  0  0  0  0
 11 13  1  0  0  0  0
 12 14  1  0  0  0  0
 13 14  1  0  0  0  0
 15 16  1  0  0  0  0
 15 18  1  0  0  0  0
 16 23  1  0  0  0  0
 17 19  1  0  0  0  0
 17 23  1  0  0  0  0
 18 25  1  0  0  0  0
 19 25  1  0  0  0  0
 20 25  1  0  0  0  0
 21 28  1  0  0  0  0
  1 29  1  0  0  0  0
  2 30  1  0  0  0  0
  3 31  1  0  0  0  0
  4 32  1  0  0  0  0
 11 33  1  0  0  0  0
 11 34  1  0  0  0  0
 12 35  1  0  0  0  0
 12 36  1  0  0  0  0
 13 37  1  0  0  0  0
 13 38  1  0  0  0  0
 14 39  1  0  0  0  0
 14 40  1  0  0  0  0
 15 41  1  0  0  0  0
 15 42  1  0  0  0  0
 16 43  1  0  0  0  0
 16 44  1  0  0  0  0
 17 45  1  0  0  0  0
 17 46  1  0  0  0  0
 18 47  1  0  0  0  0
 18 48  1  0  0  0  0
 19 49  1  0  0  0  0
 19 50  1  0  0  0  0
 20 51  1  0  0  0  0
 20 52  1  0  0  0  0
 21 53  1  0  0  0  0
 21 54  1  0  0  0  0
 24 55  1  0  0  0  0
 25 56  1  0  0  0  0
M  CHG  1  25   1
M  END
> <creator>
Warren Thompson, XChem - Diamond Light Source

> <fragments>
x1334

> <real_space>
FALSE

> <SCR>
FALSE

> <BB>
FALSE

> <link>
https://covid.postera.ai/covid/submissions/bdd24732-f687-4f5f-b96b-e2bd62c18337

> <covalent_frag>
TRUE

> <covalent_warhead>
TRUE

> <acrylamide>
FALSE

> <acrylamide_adduct>
FALSE

> <chloroacetamide>
TRUE

> <chloroacetamide_adduct>
FALSE

> <vinylsulfonamide>
FALSE

> <vinylsulfonamide_adduct>
FALSE

> <in_molport_or_mcule>
FALSE

> <in_emolecules>
FALSE

> <Hybrid2>
-3.233390

> <Mpro-x1334_dock>
-3.23339

> <site>
active-covalent

> <covalent_distance_min>
4.1645722

> <covalent_distance_mean>
5.1474385

> <covalent_distance_stderr>
0.046726182

$$$$
MAK-UNK-e4a-23
  -OEChem-04062011563D

 45 47  0     0  0  0  0  0  0999 V2000
   11.7064   -0.1646   23.6423 C   0  0  0  0  0  0  0  0  0  0  0  0
   11.5391   -3.7026   24.3405 C   0  0  0  0  0  0  0  0  0  0  0  0
   12.3345    0.5627   22.6553 C   0  0  0  0  0  0  0  0  0  0  0  0
   11.9429   -1.7690   21.9774 C   0  0  0  0  0  0  0  0  0  0  0  0
   11.4797   -1.5154   23.2498 C   0  0  0  0  0  0  0  0  0  0  0  0
   10.8525   -2.5484   24.0230 C   0  0  0  0  0  0  0  0  0  0  0  0
    9.5582   -2.4745   24.4957 C   0  0  0  0  0  0  0  0  0  0  0  0
    9.7425   -4.5215   25.4669 C   0  0  0  0  0  0  0  0  0  0  0  0
    4.7557   -5.9797   22.8865 C   0  0  0  0  0  0  0  0  0  0  0  0
    6.8495   -7.0994   23.5818 C   0  0  0  0  0  0  0  0  0  0  0  0
    5.4455   -6.0807   25.3323 C   0  0  0  0  0  0  0  0  0  0  0  0
    8.0863   -6.4172   24.1479 C   0  0  0  0  0  0  0  0  0  0  0  0
    6.6623   -5.3842   25.9263 C   0  0  0  0  0  0  0  0  0  0  0  0
    7.3749   -1.3444   24.0697 C   0  0  0  0  0  0  0  0  0  0  0  0
    9.1233   -5.6227   26.2760 C   0  0  0  0  0  0  0  0  0  0  0  0
    3.5342   -5.1989   23.3012 C   0  0  0  0  0  0  0  0  0  0  0  0
   11.0129   -4.7130   25.0633 N   0  0  0  0  0  0  0  0  0  0  0  0
    8.9692   -3.4461   25.2233 N   0  0  0  0  0  0  0  0  0  0  0  0
    5.6389   -6.3431   23.9022 N   0  0  0  0  0  0  0  0  0  0  0  0
    8.7939   -1.3152   24.2107 N   0  0  0  0  0  0  0  0  0  0  0  0
    7.8969   -6.2073   25.6337 N   0  3  0  0  0  0  0  0  0  0  0  0
    4.9196   -6.2550   21.6951 O   0  0  0  0  0  0  0  0  0  0  0  0
   12.6481   -0.3822   21.2620 S   0  0  0  0  0  0  0  0  0  0  0  0
    4.1149   -3.7336   24.0844 Cl  0  0  0  0  0  0  0  0  0  0  0  0
   11.4254    0.2587   24.5987 H   0  0  0  0  0  0  0  0  0  0  0  0
   12.5639   -3.8646   24.0188 H   0  0  0  0  0  0  0  0  0  0  0  0
   12.6238    1.6037   22.6855 H   0  0  0  0  0  0  0  0  0  0  0  0
   11.9058   -2.6977   21.4236 H   0  0  0  0  0  0  0  0  0  0  0  0
    6.9596   -7.2157   22.4991 H   0  0  0  0  0  0  0  0  0  0  0  0
    6.7319   -8.1041   24.0058 H   0  0  0  0  0  0  0  0  0  0  0  0
    5.2785   -7.0484   25.8207 H   0  0  0  0  0  0  0  0  0  0  0  0
    4.5591   -5.4720   25.5185 H   0  0  0  0  0  0  0  0  0  0  0  0
    8.9704   -7.0497   24.0178 H   0  0  0  0  0  0  0  0  0  0  0  0
    8.2619   -5.4377   23.6891 H   0  0  0  0  0  0  0  0  0  0  0  0
    6.8136   -4.3867   25.4988 H   0  0  0  0  0  0  0  0  0  0  0  0
    6.5709   -5.3092   27.0147 H   0  0  0  0  0  0  0  0  0  0  0  0
    7.0123   -2.3724   24.2169 H   0  0  0  0  0  0  0  0  0  0  0  0
    6.9182   -0.6836   24.8212 H   0  0  0  0  0  0  0  0  0  0  0  0
    7.0995   -0.9993   23.0622 H   0  0  0  0  0  0  0  0  0  0  0  0
    9.8262   -6.4498   26.4224 H   0  0  0  0  0  0  0  0  0  0  0  0
    8.8195   -5.2639   27.2653 H   0  0  0  0  0  0  0  0  0  0  0  0
    2.9588   -5.7926   24.0022 H   0  0  0  0  0  0  0  0  0  0  0  0
    2.9616   -4.9462   22.4162 H   0  0  0  0  0  0  0  0  0  0  0  0
    9.3001   -0.4595   24.1093 H   0  0  0  0  0  0  0  0  0  0  0  0
    7.7563   -7.1337   26.0601 H   0  0  0  0  0  0  0  0  0  0  0  0
  1  3  2  0  0  0  0
  1  5  1  0  0  0  0
  2  6  1  0  0  0  0
  2 17  2  0  0  0  0
  3 23  1  0  0  0  0
  4  5  2  0  0  0  0
  4 23  1  0  0  0  0
  5  6  1  0  0  0  0
  6  7  2  0  0  0  0
  7 18  1  0  0  0  0
  7 20  1  0  0  0  0
  8 15  1  0  0  0  0
  8 17  1  0  0  0  0
  8 18  2  0  0  0  0
  9 16  1  0  0  0  0
  9 19  1  0  0  0  0
  9 22  2  0  0  0  0
 10 12  1  0  0  0  0
 10 19  1  0  0  0  0
 11 13  1  0  0  0  0
 11 19  1  0  0  0  0
 12 21  1  0  0  0  0
 13 21  1  0  0  0  0
 14 20  1  0  0  0  0
 15 21  1  0  0  0  0
 16 24  1  0  0  0  0
  1 25  1  0  0  0  0
  2 26  1  0  0  0  0
  3 27  1  0  0  0  0
  4 28  1  0  0  0  0
 10 29  1  0  0  0  0
 10 30  1  0  0  0  0
 11 31  1  0  0  0  0
 11 32  1  0  0  0  0
 12 33  1  0  0  0  0
 12 34  1  0  0  0  0
 13 35  1  0  0  0  0
 13 36  1  0  0  0  0
 14 37  1  0  0  0  0
 14 38  1  0  0  0  0
 14 39  1  0  0  0  0
 15 40  1  0  0  0  0
 15 41  1  0  0  0  0
 16 42  1  0  0  0  0
 16 43  1  0  0  0  0
 20 44  1  0  0  0  0
 21 45  1  0  0  0  0
M  CHG  1  21   1
M  END
> <creator>
Maksym Voznyy

> <fragments>
x0387

> <real_space>
FALSE

> <SCR>
FALSE

> <BB>
FALSE

> <link>
https://covid.postera.ai/covid/submissions/e4a48a85-91ce-4c28-86d4-edf9997dafca

> <covalent_frag>
TRUE

> <covalent_warhead>
TRUE

> <acrylamide>
FALSE

> <acrylamide_adduct>
FALSE

> <chloroacetamide>
TRUE

> <chloroacetamide_adduct>
FALSE

> <vinylsulfonamide>
FALSE

> <vinylsulfonamide_adduct>
FALSE

> <in_molport_or_mcule>
FALSE

> <in_emolecules>
FALSE

> <Hybrid2>
-3.230167

> <Mpro-x0387_dock>
-3.230167

> <Mpro-x0692_dock>
-2.532426

> <site>
active-noncovalent

> <covalent_distance_min>
3.2140603

> <covalent_distance_mean>
3.8701286

> <covalent_distance_stderr>
0.03407196

$$$$
WAR-XCH-bdd-20
  -OEChem-04062011563D

 54 57  0     1  0  0  0  0  0999 V2000
    5.1866   -4.5000   26.2712 C   0  0  0  0  0  0  0  0  0  0  0  0
    5.4647   -4.5230   27.6427 C   0  0  0  0  0  0  0  0  0  0  0  0
    6.1941   -4.7256   25.3353 C   0  0  0  0  0  0  0  0  0  0  0  0
    8.2991   -1.8737   25.0236 C   0  0  0  0  0  0  0  0  0  0  0  0
    7.4082   -4.8735   29.3470 C   0  0  0  0  0  0  0  0  0  0  0  0
    8.5303   -2.4808   22.7079 C   0  0  0  0  0  0  0  0  0  0  0  0
    7.6337   -0.7336   24.6024 C   0  0  0  0  0  0  0  0  0  0  0  0
    8.7404   -5.1472   29.1396 C   0  0  0  0  0  0  0  0  0  0  0  0
    6.7821   -4.7780   28.0726 C   0  0  0  0  0  0  0  0  0  0  0  0
    7.5081   -4.9806   25.7381 C   0  0  0  0  0  0  0  0  0  0  0  0
    8.7528   -2.7588   24.0520 C   0  0  0  0  0  0  0  0  0  0  0  0
    7.7714   -5.0005   27.1124 C   0  0  0  0  0  0  0  0  0  0  0  0
    7.8544   -1.3137   22.3904 C   0  0  0  0  0  0  0  0  0  0  0  0
    5.5640   -2.3779   18.1761 C   0  0  0  0  0  0  0  0  0  0  0  0
    6.6830    0.9756   19.5518 C   0  0  0  0  0  0  0  0  0  0  0  0
    7.6264    0.5430   20.6754 C   0  0  0  0  0  0  0  0  0  0  0  0
    6.5730   -0.0789   18.4573 C   0  0  0  0  0  0  0  0  0  0  0  0
    6.2969   -1.6160   20.4118 C   0  0  0  0  0  0  0  0  0  0  0  0
    7.5933   -0.9771   20.9314 C   0  0  2  0  0  0  0  0  0  0  0  0
   10.2411   -5.4962   27.1948 C   0  0  0  0  0  0  0  0  0  0  0  0
    8.5560   -5.2172   24.6779 C   0  0  0  0  0  0  0  0  0  0  0  0
    9.4753   -4.0006   24.4506 C   0  0  0  0  0  0  0  0  0  0  0  0
    5.4226   -2.0576   16.7080 C   0  0  0  0  0  0  0  0  0  0  0  0
    7.3988   -0.4297   23.3063 N   0  0  0  0  0  0  0  0  0  0  0  0
    8.9500   -5.2217   27.7886 N   0  0  0  0  0  0  0  0  0  0  0  0
    6.1255   -1.3791   18.9741 N   0  0  0  0  0  0  0  0  0  0  0  0
    5.1852   -3.4725   18.5997 O   0  0  0  0  0  0  0  0  0  0  0  0
    6.9256   -2.5523   15.9371 Cl  0  0  0  0  0  0  0  0  0  0  0  0
    4.1723   -4.3038   25.9338 H   0  0  0  0  0  0  0  0  0  0  0  0
    4.6698   -4.3455   28.3614 H   0  0  0  0  0  0  0  0  0  0  0  0
    5.9444   -4.7008   24.2768 H   0  0  0  0  0  0  0  0  0  0  0  0
    8.4564   -2.0622   26.0801 H   0  0  0  0  0  0  0  0  0  0  0  0
    6.9357   -4.7550   30.3125 H   0  0  0  0  0  0  0  0  0  0  0  0
    8.8755   -3.1578   21.9330 H   0  0  0  0  0  0  0  0  0  0  0  0
    7.2597   -0.0116   25.3210 H   0  0  0  0  0  0  0  0  0  0  0  0
    9.5513   -5.2939   29.8404 H   0  0  0  0  0  0  0  0  0  0  0  0
    5.6862    1.1792   19.9696 H   0  0  0  0  0  0  0  0  0  0  0  0
    7.0387    1.9226   19.1169 H   0  0  0  0  0  0  0  0  0  0  0  0
    8.6566    0.8639   20.4342 H   0  0  0  0  0  0  0  0  0  0  0  0
    7.3575    1.0867   21.6012 H   0  0  0  0  0  0  0  0  0  0  0  0
    5.8427    0.2337   17.6920 H   0  0  0  0  0  0  0  0  0  0  0  0
    7.5405   -0.1802   17.9413 H   0  0  0  0  0  0  0  0  0  0  0  0
    6.2872   -2.6863   20.6521 H   0  0  0  0  0  0  0  0  0  0  0  0
    5.4172   -1.1828   20.9144 H   0  0  0  0  0  0  0  0  0  0  0  0
    8.4520   -1.4370   20.3604 H   0  0  0  0  0  0  0  0  0  0  0  0
   10.3365   -6.5792   27.0807 H   0  0  0  0  0  0  0  0  0  0  0  0
   10.3067   -5.0020   26.2215 H   0  0  0  0  0  0  0  0  0  0  0  0
   11.0286   -5.1085   27.8470 H   0  0  0  0  0  0  0  0  0  0  0  0
    9.1590   -6.0838   24.9788 H   0  0  0  0  0  0  0  0  0  0  0  0
    8.0735   -5.5060   23.7353 H   0  0  0  0  0  0  0  0  0  0  0  0
   10.2046   -4.2627   23.6647 H   0  0  0  0  0  0  0  0  0  0  0  0
   10.0853   -3.8249   25.3536 H   0  0  0  0  0  0  0  0  0  0  0  0
    5.2797   -0.9891   16.5933 H   0  0  0  0  0  0  0  0  0  0  0  0
    4.5922   -2.6247   16.3027 H   0  0  0  0  0  0  0  0  0  0  0  0
  1  2  2  0  0  0  0
  1  3  1  0  0  0  0
  2  9  1  0  0  0  0
  3 10  2  0  0  0  0
  4  7  2  0  0  0  0
  4 11  1  0  0  0  0
  5  8  2  0  0  0  0
  5  9  1  0  0  0  0
  6 11  2  0  0  0  0
  6 13  1  0  0  0  0
  7 24  1  0  0  0  0
  8 25  1  0  0  0  0
  9 12  2  0  0  0  0
 10 12  1  0  0  0  0
 10 21  1  0  0  0  0
 11 22  1  0  0  0  0
 12 25  1  0  0  0  0
 13 19  1  0  0  0  0
 13 24  2  0  0  0  0
 14 23  1  0  0  0  0
 14 26  1  0  0  0  0
 14 27  2  0  0  0  0
 15 16  1  0  0  0  0
 15 17  1  0  0  0  0
 16 19  1  0  0  0  0
 17 26  1  0  0  0  0
 18 19  1  0  0  0  0
 18 26  1  0  0  0  0
 20 25  1  0  0  0  0
 21 22  1  0  0  0  0
 23 28  1  0  0  0  0
  1 29  1  0  0  0  0
  2 30  1  0  0  0  0
  3 31  1  0  0  0  0
  4 32  1  0  0  0  0
  5 33  1  0  0  0  0
  6 34  1  0  0  0  0
  7 35  1  0  0  0  0
  8 36  1  0  0  0  0
 15 37  1  0  0  0  0
 15 38  1  0  0  0  0
 16 39  1  0  0  0  0
 16 40  1  0  0  0  0
 17 41  1  0  0  0  0
 17 42  1  0  0  0  0
 18 43  1  0  0  0  0
 18 44  1  0  0  0  0
 19 45  1  0  0  0  0
 20 46  1  0  0  0  0
 20 47  1  0  0  0  0
 20 48  1  0  0  0  0
 21 49  1  0  0  0  0
 21 50  1  0  0  0  0
 22 51  1  0  0  0  0
 22 52  1  0  0  0  0
 23 53  1  0  0  0  0
 23 54  1  0  0  0  0
M  END
> <creator>
Warren Thompson, XChem - Diamond Light Source

> <fragments>
x1334

> <real_space>
FALSE

> <SCR>
FALSE

> <BB>
FALSE

> <link>
https://covid.postera.ai/covid/submissions/bdd24732-f687-4f5f-b96b-e2bd62c18337

> <covalent_frag>
TRUE

> <covalent_warhead>
TRUE

> <acrylamide>
FALSE

> <acrylamide_adduct>
FALSE

> <chloroacetamide>
TRUE

> <chloroacetamide_adduct>
FALSE

> <vinylsulfonamide>
FALSE

> <vinylsulfonamide_adduct>
FALSE

> <in_molport_or_mcule>
FALSE

> <in_emolecules>
FALSE

> <Hybrid2>
-3.216296

> <Mpro-x1334_dock>
-3.216296

> <site>
active-covalent

> <covalent_distance_min>
3.282521

> <covalent_distance_mean>
3.758589

> <covalent_distance_stderr>
0.035820674

$$$$
BEN-VAN-d2b-11
  -OEChem-04062011563D

 56 58  0     1  0  0  0  0  0999 V2000
    7.9691    0.8763   21.1452 C   0  0  0  0  0  0  0  0  0  0  0  0
    8.9009    5.1349   22.5653 C   0  0  0  0  0  0  0  0  0  0  0  0
    7.1480    3.4354   22.2677 C   0  0  0  0  0  0  0  0  0  0  0  0
    7.4982    0.0885   22.2417 C   0  0  0  0  0  0  0  0  0  0  0  0
    9.1033    4.0363   23.3714 C   0  0  0  0  0  0  0  0  0  0  0  0
    8.0879    3.0517   23.1990 C   0  0  0  0  0  0  0  0  0  0  0  0
    7.5270    0.5567   23.5507 C   0  0  0  0  0  0  0  0  0  0  0  0
    7.0569   -0.2490   24.5818 C   0  0  0  0  0  0  0  0  0  0  0  0
    6.5719   -1.5048   24.2540 C   0  0  0  0  0  0  0  0  0  0  0  0
    6.9937   -1.1826   22.0187 C   0  0  0  0  0  0  0  0  0  0  0  0
   10.7053   -2.6670   23.1884 C   0  0  0  0  0  0  0  0  0  0  0  0
   10.9336   -1.4316   23.6447 C   0  0  0  0  0  0  0  0  0  0  0  0
   10.9597   -0.2761   22.7078 C   0  0  0  0  0  0  0  0  0  0  0  0
   11.2922    2.1668   22.7516 C   0  0  0  0  0  0  0  0  0  0  0  0
   12.0220    5.6214   24.0302 C   0  0  0  0  0  0  0  0  0  0  0  0
   10.8063    5.2408   24.8805 C   0  0  0  0  0  0  0  0  0  0  0  0
   12.3046    4.4361   23.1123 C   0  0  0  0  0  0  0  0  0  0  0  0
   10.2783    3.9058   24.3277 C   0  0  2  0  0  0  0  0  0  0  0  0
   11.5460    3.2693   23.7317 C   0  0  1  0  0  0  0  0  0  0  0  0
    8.5939   -5.4851   26.1041 C   0  0  0  0  0  0  0  0  0  0  0  0
    5.5739   -3.6281   25.1034 C   0  0  0  0  0  0  0  0  0  0  0  0
    6.7171   -4.6195   24.9855 C   0  0  0  0  0  0  0  0  0  0  0  0
    8.3513    1.5157   20.2553 N   0  0  0  0  0  0  0  0  0  0  0  0
    6.5280   -1.9941   22.9945 N   0  0  0  0  0  0  0  0  0  0  0  0
    8.0389    1.8734   23.8644 N   0  0  0  0  0  0  0  0  0  0  0  0
    6.0969   -2.3174   25.3130 N   0  0  0  0  0  0  0  0  0  0  0  0
   11.2117    0.9216   23.3726 N   0  0  0  0  0  0  0  0  0  0  0  0
   10.7761   -0.4022   21.5015 O   0  0  0  0  0  0  0  0  0  0  0  0
   11.1554    2.3852   21.5508 O   0  0  0  0  0  0  0  0  0  0  0  0
    7.5039   -4.5758   26.1692 O   0  0  0  0  0  0  0  0  0  0  0  0
    7.0736    0.1785   25.8521 F   0  0  0  0  0  0  0  0  0  0  0  0
    6.9528   -1.6625   20.7642 F   0  0  0  0  0  0  0  0  0  0  0  0
    7.4915    4.9769   21.6058 S   0  0  0  0  0  0  0  0  0  0  0  0
    9.5103    6.0248   22.4904 H   0  0  0  0  0  0  0  0  0  0  0  0
    6.2741    2.8894   21.9398 H   0  0  0  0  0  0  0  0  0  0  0  0
   10.6784   -3.5343   23.8385 H   0  0  0  0  0  0  0  0  0  0  0  0
   10.5379   -2.8314   22.1291 H   0  0  0  0  0  0  0  0  0  0  0  0
   11.1025   -1.2627   24.7024 H   0  0  0  0  0  0  0  0  0  0  0  0
   11.8440    6.5475   23.4683 H   0  0  0  0  0  0  0  0  0  0  0  0
   12.8881    5.8017   24.6832 H   0  0  0  0  0  0  0  0  0  0  0  0
   11.0712    5.1680   25.9533 H   0  0  0  0  0  0  0  0  0  0  0  0
   10.0351    6.0349   24.8130 H   0  0  0  0  0  0  0  0  0  0  0  0
   11.9920    4.6513   22.0895 H   0  0  0  0  0  0  0  0  0  0  0  0
   13.3775    4.2346   23.0977 H   0  0  0  0  0  0  0  0  0  0  0  0
    9.9348    3.2839   25.1725 H   0  0  0  0  0  0  0  0  0  0  0  0
   12.1550    2.8114   24.5586 H   0  0  0  0  0  0  0  0  0  0  0  0
    9.1751   -5.4250   27.0275 H   0  0  0  0  0  0  0  0  0  0  0  0
    9.2251   -5.2379   25.2469 H   0  0  0  0  0  0  0  0  0  0  0  0
    8.2043   -6.4992   25.9869 H   0  0  0  0  0  0  0  0  0  0  0  0
    4.9661   -3.6132   24.1931 H   0  0  0  0  0  0  0  0  0  0  0  0
    4.9364   -3.8814   25.9558 H   0  0  0  0  0  0  0  0  0  0  0  0
    7.3606   -4.3509   24.1420 H   0  0  0  0  0  0  0  0  0  0  0  0
    6.3507   -5.6414   24.8438 H   0  0  0  0  0  0  0  0  0  0  0  0
    8.4484    1.8640   24.8199 H   0  0  0  0  0  0  0  0  0  0  0  0
    6.1426   -1.9271   26.2322 H   0  0  0  0  0  0  0  0  0  0  0  0
   11.3461    0.8850   24.3805 H   0  0  0  0  0  0  0  0  0  0  0  0
  1  4  1  0  0  0  0
  1 23  3  0  0  0  0
  2  5  2  0  0  0  0
  2 33  1  0  0  0  0
  3  6  2  0  0  0  0
  3 33  1  0  0  0  0
  4  7  2  0  0  0  0
  4 10  1  0  0  0  0
  5  6  1  0  0  0  0
  5 18  1  0  0  0  0
  6 25  1  0  0  0  0
  7  8  1  0  0  0  0
  7 25  1  0  0  0  0
  8  9  2  0  0  0  0
  8 31  1  0  0  0  0
  9 24  1  0  0  0  0
  9 26  1  0  0  0  0
 10 24  2  0  0  0  0
 10 32  1  0  0  0  0
 11 12  2  0  0  0  0
 12 13  1  0  0  0  0
 13 27  1  0  0  0  0
 13 28  2  0  0  0  0
 14 19  1  0  0  0  0
 14 27  1  0  0  0  0
 14 29  2  0  0  0  0
 15 16  1  0  0  0  0
 15 17  1  0  0  0  0
 16 18  1  0  0  0  0
 17 19  1  0  0  0  0
 18 19  1  0  0  0  0
 20 30  1  0  0  0  0
 21 22  1  0  0  0  0
 21 26  1  0  0  0  0
 22 30  1  0  0  0  0
  2 34  1  0  0  0  0
  3 35  1  0  0  0  0
 11 36  1  0  0  0  0
 11 37  1  0  0  0  0
 12 38  1  0  0  0  0
 15 39  1  0  0  0  0
 15 40  1  0  0  0  0
 16 41  1  0  0  0  0
 16 42  1  0  0  0  0
 17 43  1  0  0  0  0
 17 44  1  0  0  0  0
 18 45  1  0  0  0  0
 19 46  1  0  0  0  0
 20 47  1  0  0  0  0
 20 48  1  0  0  0  0
 20 49  1  0  0  0  0
 21 50  1  0  0  0  0
 21 51  1  0  0  0  0
 22 52  1  0  0  0  0
 22 53  1  0  0  0  0
 25 54  1  0  0  0  0
 26 55  1  0  0  0  0
 27 56  1  0  0  0  0
M  END
> <creator>
Benjamin P. Brown, Vanderbilt University, Laboratory of Jens Meiler

> <fragments>
x0874

> <real_space>
FALSE

> <SCR>
FALSE

> <BB>
FALSE

> <link>
https://covid.postera.ai/covid/submissions/d2b455e2-4c45-4364-9fc0-1efc54e3e367

> <covalent_frag>
FALSE

> <covalent_warhead>
TRUE

> <acrylamide>
TRUE

> <acrylamide_adduct>
FALSE

> <chloroacetamide>
FALSE

> <chloroacetamide_adduct>
FALSE

> <vinylsulfonamide>
FALSE

> <vinylsulfonamide_adduct>
FALSE

> <in_molport_or_mcule>
FALSE

> <in_emolecules>
FALSE

> <Hybrid2>
-3.166244

> <Mpro-x0874_dock>
-3.166244

> <Mpro-x0305_dock>
-0.272358

> <site>
active-noncovalent

> <covalent_distance_min>
3.5389967

> <covalent_distance_mean>
4.4505067

> <covalent_distance_stderr>
0.105662316

$$$$
TAM-UNI-d1c-1
  -OEChem-04062011563D

 56 58  0     0  0  0  0  0  0999 V2000
   11.7631    3.6078   23.2409 C   0  0  0  0  0  0  0  0  0  0  0  0
   11.8258    2.0797   25.1487 C   0  0  0  0  0  0  0  0  0  0  0  0
   11.6863    0.7982   25.6814 C   0  0  0  0  0  0  0  0  0  0  0  0
   11.2756    1.2281   22.9557 C   0  0  0  0  0  0  0  0  0  0  0  0
   11.6204    2.2947   23.7859 C   0  0  0  0  0  0  0  0  0  0  0  0
   11.3415   -0.2684   24.8513 C   0  0  0  0  0  0  0  0  0  0  0  0
   11.1362   -0.0535   23.4884 C   0  0  0  0  0  0  0  0  0  0  0  0
    6.3125   -1.7334   19.3244 C   0  0  0  0  0  0  0  0  0  0  0  0
    9.3088   -3.1765   24.9918 C   0  0  0  0  0  0  0  0  0  0  0  0
    7.3410   -2.4624   21.4533 C   0  0  0  0  0  0  0  0  0  0  0  0
    7.5477   -0.0895   20.8209 C   0  0  0  0  0  0  0  0  0  0  0  0
    7.3261   -4.6102   24.6188 C   0  0  0  0  0  0  0  0  0  0  0  0
    6.9948   -2.5131   25.8726 C   0  0  0  0  0  0  0  0  0  0  0  0
    8.8315   -2.5342   21.7510 C   0  0  0  0  0  0  0  0  0  0  0  0
    9.0421   -0.1251   21.1112 C   0  0  0  0  0  0  0  0  0  0  0  0
    6.3894   -5.2890   25.6056 C   0  0  0  0  0  0  0  0  0  0  0  0
    6.0520   -3.2858   26.7889 C   0  0  0  0  0  0  0  0  0  0  0  0
   11.1977   -1.6314   25.4446 C   0  0  0  0  0  0  0  0  0  0  0  0
   10.7639   -1.1852   22.5764 C   0  0  0  0  0  0  0  0  0  0  0  0
    6.0618   -0.6061   18.3549 C   0  0  0  0  0  0  0  0  0  0  0  0
   11.8791    4.6742   22.7981 N   0  0  0  0  0  0  0  0  0  0  0  0
    7.0518   -1.4232   20.4650 N   0  0  0  0  0  0  0  0  0  0  0  0
    7.9430   -3.4217   25.2124 N   0  0  0  0  0  0  0  0  0  0  0  0
    9.8135   -2.0248   25.5843 N   0  0  0  0  0  0  0  0  0  0  0  0
    9.3161   -1.1654   22.1742 N   0  3  0  0  0  0  0  0  0  0  0  0
    5.8662   -2.8557   19.0726 O   0  0  0  0  0  0  0  0  0  0  0  0
   10.0215   -3.9239   24.3137 O   0  0  0  0  0  0  0  0  0  0  0  0
    5.4201   -4.3533   26.0815 O   0  0  0  0  0  0  0  0  0  0  0  0
    4.5363    0.1342   18.8268 Cl  0  0  0  0  0  0  0  0  0  0  0  0
   12.0946    2.9013   25.8084 H   0  0  0  0  0  0  0  0  0  0  0  0
   11.8486    0.6404   26.7445 H   0  0  0  0  0  0  0  0  0  0  0  0
   11.1141    1.3904   21.8916 H   0  0  0  0  0  0  0  0  0  0  0  0
    6.9907   -3.4387   21.1040 H   0  0  0  0  0  0  0  0  0  0  0  0
    6.7750   -2.2201   22.3610 H   0  0  0  0  0  0  0  0  0  0  0  0
    6.9906    0.2388   21.7068 H   0  0  0  0  0  0  0  0  0  0  0  0
    7.3541    0.6407   20.0333 H   0  0  0  0  0  0  0  0  0  0  0  0
    8.0828   -5.3165   24.2648 H   0  0  0  0  0  0  0  0  0  0  0  0
    6.7617   -4.2581   23.7469 H   0  0  0  0  0  0  0  0  0  0  0  0
    6.4295   -2.0227   25.0719 H   0  0  0  0  0  0  0  0  0  0  0  0
    7.4995   -1.7451   26.4603 H   0  0  0  0  0  0  0  0  0  0  0  0
    9.0273   -3.2207   22.5811 H   0  0  0  0  0  0  0  0  0  0  0  0
    9.4118   -2.8405   20.8734 H   0  0  0  0  0  0  0  0  0  0  0  0
    9.6265   -0.3894   20.2228 H   0  0  0  0  0  0  0  0  0  0  0  0
    9.3821    0.8389   21.5032 H   0  0  0  0  0  0  0  0  0  0  0  0
    5.8499   -6.1014   25.1085 H   0  0  0  0  0  0  0  0  0  0  0  0
    6.9366   -5.7215   26.4516 H   0  0  0  0  0  0  0  0  0  0  0  0
    6.5816   -3.6852   27.6622 H   0  0  0  0  0  0  0  0  0  0  0  0
    5.2648   -2.6199   27.1566 H   0  0  0  0  0  0  0  0  0  0  0  0
   11.6957   -2.3868   24.8220 H   0  0  0  0  0  0  0  0  0  0  0  0
   11.6572   -1.6858   26.4403 H   0  0  0  0  0  0  0  0  0  0  0  0
   11.3481   -1.1559   21.6503 H   0  0  0  0  0  0  0  0  0  0  0  0
   10.9445   -2.1541   23.0544 H   0  0  0  0  0  0  0  0  0  0  0  0
    5.9834   -1.0144   17.3538 H   0  0  0  0  0  0  0  0  0  0  0  0
    6.8670    0.1147   18.4384 H   0  0  0  0  0  0  0  0  0  0  0  0
    9.1947   -1.4401   26.1321 H   0  0  0  0  0  0  0  0  0  0  0  0
    8.7831   -0.8955   23.0125 H   0  0  0  0  0  0  0  0  0  0  0  0
  1  5  1  0  0  0  0
  1 21  3  0  0  0  0
  2  3  2  0  0  0  0
  2  5  1  0  0  0  0
  3  6  1  0  0  0  0
  4  5  2  0  0  0  0
  4  7  1  0  0  0  0
  6  7  2  0  0  0  0
  6 18  1  0  0  0  0
  7 19  1  0  0  0  0
  8 20  1  0  0  0  0
  8 22  1  0  0  0  0
  8 26  2  0  0  0  0
  9 23  1  0  0  0  0
  9 24  1  0  0  0  0
  9 27  2  0  0  0  0
 10 14  1  0  0  0  0
 10 22  1  0  0  0  0
 11 15  1  0  0  0  0
 11 22  1  0  0  0  0
 12 16  1  0  0  0  0
 12 23  1  0  0  0  0
 13 17  1  0  0  0  0
 13 23  1  0  0  0  0
 14 25  1  0  0  0  0
 15 25  1  0  0  0  0
 16 28  1  0  0  0  0
 17 28  1  0  0  0  0
 18 24  1  0  0  0  0
 19 25  1  0  0  0  0
 20 29  1  0  0  0  0
  2 30  1  0  0  0  0
  3 31  1  0  0  0  0
  4 32  1  0  0  0  0
 10 33  1  0  0  0  0
 10 34  1  0  0  0  0
 11 35  1  0  0  0  0
 11 36  1  0  0  0  0
 12 37  1  0  0  0  0
 12 38  1  0  0  0  0
 13 39  1  0  0  0  0
 13 40  1  0  0  0  0
 14 41  1  0  0  0  0
 14 42  1  0  0  0  0
 15 43  1  0  0  0  0
 15 44  1  0  0  0  0
 16 45  1  0  0  0  0
 16 46  1  0  0  0  0
 17 47  1  0  0  0  0
 17 48  1  0  0  0  0
 18 49  1  0  0  0  0
 18 50  1  0  0  0  0
 19 51  1  0  0  0  0
 19 52  1  0  0  0  0
 20 53  1  0  0  0  0
 20 54  1  0  0  0  0
 24 55  1  0  0  0  0
 25 56  1  0  0  0  0
M  CHG  1  25   1
M  END
> <creator>
Tamas Szommer, University of Oxford, TDI

> <fragments>
x1392

> <real_space>
FALSE

> <SCR>
FALSE

> <BB>
FALSE

> <link>
https://covid.postera.ai/covid/submissions/d1c3dd9f-771c-474e-9133-8c7e4ace8b98

> <covalent_frag>
TRUE

> <covalent_warhead>
TRUE

> <acrylamide>
FALSE

> <acrylamide_adduct>
FALSE

> <chloroacetamide>
TRUE

> <chloroacetamide_adduct>
FALSE

> <vinylsulfonamide>
FALSE

> <vinylsulfonamide_adduct>
FALSE

> <in_molport_or_mcule>
FALSE

> <in_emolecules>
FALSE

> <Hybrid2>
-3.116615

> <Mpro-x1392_dock>
-3.116615

> <Mpro-x1382_dock>
-1.540639

> <Mpro-x0692_dock>
-0.77398

> <Mpro-x1386_dock>
-0.411944

> <site>
active-covalent

> <covalent_distance_min>
3.1051133

> <covalent_distance_mean>
3.9836578

> <covalent_distance_stderr>
0.043190073

$$$$
MAK-UNK-8fd-25
  -OEChem-04062011563D

 74 77  0     0  0  0  0  0  0999 V2000
   12.5100   -0.8102   20.9126 C   0  0  0  0  0  0  0  0  0  0  0  0
   13.4117   -1.5850   21.6422 C   0  0  0  0  0  0  0  0  0  0  0  0
    7.5182    1.1506   28.0708 C   0  0  0  0  0  0  0  0  0  0  0  0
   11.9241    0.3131   21.4963 C   0  0  0  0  0  0  0  0  0  0  0  0
   13.7274   -1.2366   22.9554 C   0  0  0  0  0  0  0  0  0  0  0  0
    8.7635    0.8894   27.5103 C   0  0  0  0  0  0  0  0  0  0  0  0
   11.6992    3.1407   23.0023 C   0  0  0  0  0  0  0  0  0  0  0  0
    6.4229    1.1989   27.2235 C   0  0  0  0  0  0  0  0  0  0  0  0
   10.4223    3.0417   24.8542 C   0  0  0  0  0  0  0  0  0  0  0  0
   12.2398    0.6615   22.8095 C   0  0  0  0  0  0  0  0  0  0  0  0
   10.9358    3.9091   23.9155 C   0  0  0  0  0  0  0  0  0  0  0  0
   13.1414   -0.1133   23.5391 C   0  0  0  0  0  0  0  0  0  0  0  0
    8.8741    0.6873   26.1391 C   0  0  0  0  0  0  0  0  0  0  0  0
   11.6288    1.8271   23.4107 C   0  0  0  0  0  0  0  0  0  0  0  0
    7.7181    0.7562   25.3783 C   0  0  0  0  0  0  0  0  0  0  0  0
    8.3041   -0.6562   23.4103 C   0  0  0  0  0  0  0  0  0  0  0  0
    5.9725   -5.1800   23.0127 C   0  0  0  0  0  0  0  0  0  0  0  0
    6.7428   -2.1274   24.6710 C   0  0  0  0  0  0  0  0  0  0  0  0
    8.8554   -3.0865   23.6318 C   0  0  0  0  0  0  0  0  0  0  0  0
    5.9458   -2.7614   23.5324 C   0  0  0  0  0  0  0  0  0  0  0  0
    7.9895   -3.7072   22.5347 C   0  0  0  0  0  0  0  0  0  0  0  0
    8.2041   -1.8669   24.2918 C   0  0  0  0  0  0  0  0  0  0  0  0
    6.1509    1.0650   22.2386 C   0  0  0  0  0  0  0  0  0  0  0  0
    8.4115    2.1766   22.2363 C   0  0  0  0  0  0  0  0  0  0  0  0
    9.1796    7.2426   23.2951 C   0  0  0  0  0  0  0  0  0  0  0  0
   10.7281    5.3693   23.8708 C   0  0  0  0  0  0  0  0  0  0  0  0
    6.7476   -6.3547   22.4712 C   0  0  0  0  0  0  0  0  0  0  0  0
    7.2813    1.6225   23.0914 C   0  0  0  0  0  0  0  0  0  0  0  0
    6.4910    1.0077   25.8869 N   0  0  0  0  0  0  0  0  0  0  0  0
   10.8499    1.7788   24.5372 N   0  0  0  0  0  0  0  0  0  0  0  0
    6.6278   -3.9494   23.0208 N   0  0  0  0  0  0  0  0  0  0  0  0
    7.8130    0.5505   23.9470 N   0  0  0  0  0  0  0  0  0  0  0  0
    9.3698    5.7747   23.3945 N   0  3  0  0  0  0  0  0  0  0  0  0
    8.8316   -0.7910   22.3034 O   0  0  0  0  0  0  0  0  0  0  0  0
    4.8201   -5.3535   23.4177 O   0  0  0  0  0  0  0  0  0  0  0  0
   11.4601    0.3472   26.4846 O   0  0  0  0  0  0  0  0  0  0  0  0
   10.3028   -0.7036   24.4773 O   0  0  0  0  0  0  0  0  0  0  0  0
   13.4555    0.2083   24.8027 F   0  0  0  0  0  0  0  0  0  0  0  0
   10.4453    0.3661   25.4467 S   0  0  0  0  0  0  0  0  0  0  0  0
    7.6243   -7.0492   23.8302 Cl  0  0  0  0  0  0  0  0  0  0  0  0
   12.2647   -1.0814   19.8899 H   0  0  0  0  0  0  0  0  0  0  0  0
   13.8683   -2.4593   21.1876 H   0  0  0  0  0  0  0  0  0  0  0  0
    7.4081    1.3121   29.1369 H   0  0  0  0  0  0  0  0  0  0  0  0
   11.2232    0.9068   20.9141 H   0  0  0  0  0  0  0  0  0  0  0  0
   14.4297   -1.8396   23.5234 H   0  0  0  0  0  0  0  0  0  0  0  0
    9.6395    0.8461   28.1518 H   0  0  0  0  0  0  0  0  0  0  0  0
   12.2410    3.5083   22.1408 H   0  0  0  0  0  0  0  0  0  0  0  0
    5.4296    1.3993   27.6114 H   0  0  0  0  0  0  0  0  0  0  0  0
    9.7917    3.2190   25.7157 H   0  0  0  0  0  0  0  0  0  0  0  0
    6.2545   -1.1941   24.9763 H   0  0  0  0  0  0  0  0  0  0  0  0
    6.7145   -2.7992   25.5385 H   0  0  0  0  0  0  0  0  0  0  0  0
    9.0429   -3.8467   24.4010 H   0  0  0  0  0  0  0  0  0  0  0  0
    9.8306   -2.8153   23.2096 H   0  0  0  0  0  0  0  0  0  0  0  0
    4.9391   -3.0099   23.8835 H   0  0  0  0  0  0  0  0  0  0  0  0
    5.8334   -2.0601   22.6974 H   0  0  0  0  0  0  0  0  0  0  0  0
    7.9108   -3.0333   21.6739 H   0  0  0  0  0  0  0  0  0  0  0  0
    8.4653   -4.6220   22.1766 H   0  0  0  0  0  0  0  0  0  0  0  0
    8.7631   -1.6166   25.2021 H   0  0  0  0  0  0  0  0  0  0  0  0
    6.5152    0.2707   21.5790 H   0  0  0  0  0  0  0  0  0  0  0  0
    5.3480    0.6518   22.8594 H   0  0  0  0  0  0  0  0  0  0  0  0
    5.7122    1.8504   21.6134 H   0  0  0  0  0  0  0  0  0  0  0  0
    8.8149    1.4010   21.5760 H   0  0  0  0  0  0  0  0  0  0  0  0
    9.2292    2.5471   22.8631 H   0  0  0  0  0  0  0  0  0  0  0  0
    8.0667    3.0014   21.6025 H   0  0  0  0  0  0  0  0  0  0  0  0
    9.9387    7.6323   22.6143 H   0  0  0  0  0  0  0  0  0  0  0  0
    8.1750    7.4240   22.9083 H   0  0  0  0  0  0  0  0  0  0  0  0
    9.2969    7.6633   24.2956 H   0  0  0  0  0  0  0  0  0  0  0  0
   10.8473    5.8417   24.8620 H   0  0  0  0  0  0  0  0  0  0  0  0
   11.4414    5.8747   23.1957 H   0  0  0  0  0  0  0  0  0  0  0  0
    7.4448   -5.9998   21.7208 H   0  0  0  0  0  0  0  0  0  0  0  0
    6.0502   -7.0800   22.0681 H   0  0  0  0  0  0  0  0  0  0  0  0
    6.8943    2.4142   23.7421 H   0  0  0  0  0  0  0  0  0  0  0  0
    8.6673    5.3799   24.0304 H   0  0  0  0  0  0  0  0  0  0  0  0
    9.2005    5.3439   22.4783 H   0  0  0  0  0  0  0  0  0  0  0  0
  1  2  1  0  0  0  0
  1  4  2  0  0  0  0
  2  5  2  0  0  0  0
  3  6  2  0  0  0  0
  3  8  1  0  0  0  0
  4 10  1  0  0  0  0
  5 12  1  0  0  0  0
  6 13  1  0  0  0  0
  7 11  1  0  0  0  0
  7 14  2  0  0  0  0
  8 29  2  0  0  0  0
  9 11  2  0  0  0  0
  9 30  1  0  0  0  0
 10 12  2  0  0  0  0
 10 14  1  0  0  0  0
 11 26  1  0  0  0  0
 12 38  1  0  0  0  0
 13 15  2  0  0  0  0
 13 39  1  0  0  0  0
 14 30  1  0  0  0  0
 15 29  1  0  0  0  0
 15 32  1  0  0  0  0
 16 22  1  0  0  0  0
 16 32  1  0  0  0  0
 16 34  2  0  0  0  0
 17 27  1  0  0  0  0
 17 31  1  0  0  0  0
 17 35  2  0  0  0  0
 18 20  1  0  0  0  0
 18 22  1  0  0  0  0
 19 21  1  0  0  0  0
 19 22  1  0  0  0  0
 20 31  1  0  0  0  0
 21 31  1  0  0  0  0
 23 28  1  0  0  0  0
 24 28  1  0  0  0  0
 25 33  1  0  0  0  0
 26 33  1  0  0  0  0
 27 40  1  0  0  0  0
 28 32  1  0  0  0  0
 30 39  1  0  0  0  0
 36 39  2  0  0  0  0
 37 39  2  0  0  0  0
  1 41  1  0  0  0  0
  2 42  1  0  0  0  0
  3 43  1  0  0  0  0
  4 44  1  0  0  0  0
  5 45  1  0  0  0  0
  6 46  1  0  0  0  0
  7 47  1  0  0  0  0
  8 48  1  0  0  0  0
  9 49  1  0  0  0  0
 18 50  1  0  0  0  0
 18 51  1  0  0  0  0
 19 52  1  0  0  0  0
 19 53  1  0  0  0  0
 20 54  1  0  0  0  0
 20 55  1  0  0  0  0
 21 56  1  0  0  0  0
 21 57  1  0  0  0  0
 22 58  1  0  0  0  0
 23 59  1  0  0  0  0
 23 60  1  0  0  0  0
 23 61  1  0  0  0  0
 24 62  1  0  0  0  0
 24 63  1  0  0  0  0
 24 64  1  0  0  0  0
 25 65  1  0  0  0  0
 25 66  1  0  0  0  0
 25 67  1  0  0  0  0
 26 68  1  0  0  0  0
 26 69  1  0  0  0  0
 27 70  1  0  0  0  0
 27 71  1  0  0  0  0
 28 72  1  0  0  0  0
 33 73  1  0  0  0  0
 33 74  1  0  0  0  0
M  CHG  1  33   1
M  END
> <creator>
Maksym Voznyy

> <fragments>
x0305

> <real_space>
FALSE

> <SCR>
FALSE

> <BB>
FALSE

> <link>
https://covid.postera.ai/covid/submissions/8fdbca50-c94c-4218-91b0-3b0489774fa8

> <covalent_frag>
FALSE

> <covalent_warhead>
TRUE

> <acrylamide>
FALSE

> <acrylamide_adduct>
FALSE

> <chloroacetamide>
TRUE

> <chloroacetamide_adduct>
FALSE

> <vinylsulfonamide>
FALSE

> <vinylsulfonamide_adduct>
FALSE

> <in_molport_or_mcule>
FALSE

> <in_emolecules>
FALSE

> <Hybrid2>
-3.104195

> <Mpro-x0305_dock>
-3.104195

> <site>
active-noncovalent

> <covalent_distance_min>
7.0016403

> <covalent_distance_mean>
7.9509172

> <covalent_distance_stderr>
0.073283084

$$$$
DAV-CRI-f9b-9
  -OEChem-04062011563D

 77 80  0     1  0  0  0  0  0999 V2000
   13.1661   -2.5817   25.8085 C   0  0  0  0  0  0  0  0  0  0  0  0
   12.3141    1.0166   24.3055 C   0  0  0  0  0  0  0  0  0  0  0  0
   10.3342    1.2025   25.6775 C   0  0  0  0  0  0  0  0  0  0  0  0
   13.0697   -3.9072   25.3776 C   0  0  0  0  0  0  0  0  0  0  0  0
   11.7862    1.9531   23.4167 C   0  0  0  0  0  0  0  0  0  0  0  0
    9.8063    2.1391   24.7888 C   0  0  0  0  0  0  0  0  0  0  0  0
   10.7666   -2.3049   25.6377 C   0  0  0  0  0  0  0  0  0  0  0  0
   11.5880    0.6412   25.4358 C   0  0  0  0  0  0  0  0  0  0  0  0
   12.0308   -1.7892   25.9375 C   0  0  0  0  0  0  0  0  0  0  0  0
   10.6411   -3.6413   25.2001 C   0  0  0  0  0  0  0  0  0  0  0  0
   11.7968   -4.4187   25.0780 C   0  0  0  0  0  0  0  0  0  0  0  0
   10.5323    2.5144   23.6584 C   0  0  0  0  0  0  0  0  0  0  0  0
    9.7176   -5.5201   24.5044 C   0  0  0  0  0  0  0  0  0  0  0  0
    5.4317   -4.8164   25.0255 C   0  0  0  0  0  0  0  0  0  0  0  0
    6.0577   -0.4420   19.7876 C   0  0  0  0  0  0  0  0  0  0  0  0
    6.7822   -3.2768   21.2147 C   0  0  0  0  0  0  0  0  0  0  0  0
    8.5460   -6.5867   22.5328 C   0  0  0  0  0  0  0  0  0  0  0  0
    7.1189   -6.3921   22.0281 C   0  0  0  0  0  0  0  0  0  0  0  0
    7.2937   -6.4064   24.7699 C   0  0  0  0  0  0  0  0  0  0  0  0
    8.6610   -6.5291   24.0711 C   0  0  2  0  0  0  0  0  0  0  0  0
    6.4279   -5.2206   22.7263 C   0  0  1  0  0  0  0  0  0  0  0  0
   11.3594   -1.5097   21.1907 C   0  0  0  0  0  0  0  0  0  0  0  0
   12.1608   -0.3766   26.4010 C   0  0  0  0  0  0  0  0  0  0  0  0
    4.4976   -3.8137   24.3922 C   0  0  0  0  0  0  0  0  0  0  0  0
    7.3150   -1.2934   19.7670 C   0  0  0  0  0  0  0  0  0  0  0  0
    7.5957   -1.9989   21.0941 C   0  0  2  0  0  0  0  0  0  0  0  0
    9.9304   -1.1607   21.5988 C   0  0  2  0  0  0  0  0  0  0  0  0
    9.4584   -4.2859   24.8679 N   0  0  0  0  0  0  0  0  0  0  0  0
    6.3785   -5.4178   24.1864 N   0  0  0  0  0  0  0  0  0  0  0  0
    5.7845    0.1173   18.5573 N   0  0  0  0  0  0  0  0  0  0  0  0
    9.8940   -0.8717   23.0289 N   0  0  0  0  0  0  0  0  0  0  0  0
    9.0276    2.6723   21.4640 N   0  0  0  0  0  0  0  0  0  0  0  0
    7.0739   -3.9762   22.3759 N   0  0  0  0  0  0  0  0  0  0  0  0
    9.0529   -2.3093   21.1802 N   0  3  0  0  0  0  0  0  0  0  0  0
    5.3190   -5.0669   26.2286 O   0  0  0  0  0  0  0  0  0  0  0  0
    5.3585   -0.2725   20.7821 O   0  0  0  0  0  0  0  0  0  0  0  0
    5.9614   -3.6230   20.3681 O   0  0  0  0  0  0  0  0  0  0  0  0
    8.9102    4.5115   23.2665 O   0  0  0  0  0  0  0  0  0  0  0  0
   10.9734    4.3197   21.8334 O   0  0  0  0  0  0  0  0  0  0  0  0
   11.3609   -5.9945   24.5307 S   0  0  0  0  0  0  0  0  0  0  0  0
    9.8723    3.6882   22.5473 S   0  0  0  0  0  0  0  0  0  0  0  0
    3.1100   -4.7213   23.8024 Cl  0  0  0  0  0  0  0  0  0  0  0  0
   14.1468   -2.1753   26.0450 H   0  0  0  0  0  0  0  0  0  0  0  0
   13.2916    0.5844   24.1088 H   0  0  0  0  0  0  0  0  0  0  0  0
    9.7612    0.9158   26.5554 H   0  0  0  0  0  0  0  0  0  0  0  0
   13.9606   -4.5199   25.2790 H   0  0  0  0  0  0  0  0  0  0  0  0
   12.3599    2.2382   22.5388 H   0  0  0  0  0  0  0  0  0  0  0  0
    8.8282    2.5698   24.9865 H   0  0  0  0  0  0  0  0  0  0  0  0
    9.8801   -1.6845   25.7396 H   0  0  0  0  0  0  0  0  0  0  0  0
    8.9351   -7.5578   22.1649 H   0  0  0  0  0  0  0  0  0  0  0  0
    9.2084   -5.8228   22.0750 H   0  0  0  0  0  0  0  0  0  0  0  0
    7.1265   -6.2443   20.9450 H   0  0  0  0  0  0  0  0  0  0  0  0
    6.5465   -7.3057   22.2167 H   0  0  0  0  0  0  0  0  0  0  0  0
    6.8059   -7.4035   24.8014 H   0  0  0  0  0  0  0  0  0  0  0  0
    7.4262   -6.1264   25.8373 H   0  0  0  0  0  0  0  0  0  0  0  0
    9.0990   -7.5471   24.3841 H   0  0  0  0  0  0  0  0  0  0  0  0
    5.4218   -5.1421   22.3145 H   0  0  0  0  0  0  0  0  0  0  0  0
   11.7343   -2.3818   21.7390 H   0  0  0  0  0  0  0  0  0  0  0  0
   12.0383   -0.6715   21.3843 H   0  0  0  0  0  0  0  0  0  0  0  0
   11.4171   -1.7359   20.1200 H   0  0  0  0  0  0  0  0  0  0  0  0
   13.2193   -0.1297   26.5943 H   0  0  0  0  0  0  0  0  0  0  0  0
   11.6779   -0.2476   27.3853 H   0  0  0  0  0  0  0  0  0  0  0  0
    5.0072   -3.3331   23.5651 H   0  0  0  0  0  0  0  0  0  0  0  0
    4.1839   -3.1015   25.1465 H   0  0  0  0  0  0  0  0  0  0  0  0
    8.1648   -0.6622   19.4768 H   0  0  0  0  0  0  0  0  0  0  0  0
    7.1840   -2.0335   18.9671 H   0  0  0  0  0  0  0  0  0  0  0  0
    7.3808   -1.3530   21.9528 H   0  0  0  0  0  0  0  0  0  0  0  0
    9.5954   -0.2865   21.0292 H   0  0  0  0  0  0  0  0  0  0  0  0
    4.9733    0.7117   18.4230 H   0  0  0  0  0  0  0  0  0  0  0  0
    6.3749   -0.0394   17.7465 H   0  0  0  0  0  0  0  0  0  0  0  0
   10.4822   -0.0642   23.2312 H   0  0  0  0  0  0  0  0  0  0  0  0
    8.9486   -0.6067   23.3014 H   0  0  0  0  0  0  0  0  0  0  0  0
    8.0008    2.6808   21.4965 H   0  0  0  0  0  0  0  0  0  0  0  0
    9.4119    2.5493   20.5193 H   0  0  0  0  0  0  0  0  0  0  0  0
    7.7723   -3.5973   23.0080 H   0  0  0  0  0  0  0  0  0  0  0  0
    9.3571   -2.6513   20.2591 H   0  0  0  0  0  0  0  0  0  0  0  0
    9.1896   -3.0929   21.8317 H   0  0  0  0  0  0  0  0  0  0  0  0
  1  4  2  0  0  0  0
  1  9  1  0  0  0  0
  2  5  2  0  0  0  0
  2  8  1  0  0  0  0
  3  6  1  0  0  0  0
  3  8  2  0  0  0  0
  4 11  1  0  0  0  0
  5 12  1  0  0  0  0
  6 12  2  0  0  0  0
  7  9  2  0  0  0  0
  7 10  1  0  0  0  0
  8 23  1  0  0  0  0
  9 23  1  0  0  0  0
 10 11  2  0  0  0  0
 10 28  1  0  0  0  0
 11 40  1  0  0  0  0
 12 41  1  0  0  0  0
 13 20  1  0  0  0  0
 13 28  2  0  0  0  0
 13 40  1  0  0  0  0
 14 24  1  0  0  0  0
 14 29  1  0  0  0  0
 14 35  2  0  0  0  0
 15 25  1  0  0  0  0
 15 30  1  0  0  0  0
 15 36  2  0  0  0  0
 16 26  1  0  0  0  0
 16 33  1  0  0  0  0
 16 37  2  0  0  0  0
 17 18  1  0  0  0  0
 17 20  1  0  0  0  0
 18 21  1  0  0  0  0
 19 20  1  0  0  0  0
 19 29  1  0  0  0  0
 21 29  1  0  0  0  0
 21 33  1  0  0  0  0
 22 27  1  0  0  0  0
 24 42  1  0  0  0  0
 25 26  1  0  0  0  0
 26 34  1  0  0  0  0
 27 31  1  0  0  0  0
 27 34  1  0  0  0  0
 32 41  1  0  0  0  0
 38 41  2  0  0  0  0
 39 41  2  0  0  0  0
  1 43  1  0  0  0  0
  2 44  1  0  0  0  0
  3 45  1  0  0  0  0
  4 46  1  0  0  0  0
  5 47  1  0  0  0  0
  6 48  1  0  0  0  0
  7 49  1  0  0  0  0
 17 50  1  0  0  0  0
 17 51  1  0  0  0  0
 18 52  1  0  0  0  0
 18 53  1  0  0  0  0
 19 54  1  0  0  0  0
 19 55  1  0  0  0  0
 20 56  1  0  0  0  0
 21 57  1  0  0  0  0
 22 58  1  0  0  0  0
 22 59  1  0  0  0  0
 22 60  1  0  0  0  0
 23 61  1  0  0  0  0
 23 62  1  0  0  0  0
 24 63  1  0  0  0  0
 24 64  1  0  0  0  0
 25 65  1  0  0  0  0
 25 66  1  0  0  0  0
 26 67  1  0  0  0  0
 27 68  1  0  0  0  0
 30 69  1  0  0  0  0
 30 70  1  0  0  0  0
 31 71  1  0  0  0  0
 31 72  1  0  0  0  0
 32 73  1  0  0  0  0
 32 74  1  0  0  0  0
 33 75  1  0  0  0  0
 34 76  1  0  0  0  0
 34 77  1  0  0  0  0
M  CHG  1  34   1
M  END
> <creator>
David Briggs, Crick Institute

> <fragments>
x0749

> <real_space>
FALSE

> <SCR>
FALSE

> <BB>
FALSE

> <link>
https://covid.postera.ai/covid/submissions/f9b12666-ae78-4cf8-8d60-dc19988e42d3

> <covalent_frag>
TRUE

> <covalent_warhead>
TRUE

> <acrylamide>
FALSE

> <acrylamide_adduct>
FALSE

> <chloroacetamide>
TRUE

> <chloroacetamide_adduct>
FALSE

> <vinylsulfonamide>
FALSE

> <vinylsulfonamide_adduct>
FALSE

> <in_molport_or_mcule>
FALSE

> <in_emolecules>
FALSE

> <Hybrid2>
-3.083346

> <Mpro-x0749_dock>
-3.083346

> <Mpro-x0161_dock>
-1.686338

> <Mpro-x0981_dock>
10.286955

> <site>
active-covalent

> <covalent_distance_min>
7.934186

> <covalent_distance_mean>
8.468864

> <covalent_distance_stderr>
0.047595892

$$$$
NIM-UNI-ed9-2
  -OEChem-04062011563D

 56 57  0     1  0  0  0  0  0999 V2000
    5.3387    3.5913   20.8386 C   0  0  0  0  0  0  0  0  0  0  0  0
    5.0210    1.2284   21.2291 C   0  0  0  0  0  0  0  0  0  0  0  0
    5.0267    3.4106   19.4912 C   0  0  0  0  0  0  0  0  0  0  0  0
    4.7090    1.0476   19.8817 C   0  0  0  0  0  0  0  0  0  0  0  0
    5.3360    2.5002   21.7076 C   0  0  0  0  0  0  0  0  0  0  0  0
    4.7118    2.1388   19.0127 C   0  0  0  0  0  0  0  0  0  0  0  0
   13.8932   -0.6111   23.6157 C   0  0  0  0  0  0  0  0  0  0  0  0
    8.3232    4.7361   23.2597 C   0  0  0  0  0  0  0  0  0  0  0  0
    7.6517    1.1575   23.0323 C   0  0  0  0  0  0  0  0  0  0  0  0
   11.6416   -0.5757   22.5910 C   0  0  0  0  0  0  0  0  0  0  0  0
   11.8643    0.1915   24.9223 C   0  0  0  0  0  0  0  0  0  0  0  0
   10.4677   -1.4649   22.9741 C   0  0  0  0  0  0  0  0  0  0  0  0
   10.6917   -0.6853   25.3404 C   0  0  0  0  0  0  0  0  0  0  0  0
    9.1499    5.5740   22.3417 C   0  0  0  0  0  0  0  0  0  0  0  0
    5.6729    2.6956   23.1657 C   0  0  0  0  0  0  0  0  0  0  0  0
   14.2951   -1.6964   22.6491 C   0  0  0  0  0  0  0  0  0  0  0  0
    7.3796   -1.2497   23.6235 C   0  0  0  0  0  0  0  0  0  0  0  0
    8.5275   -1.6370   24.5366 C   0  0  0  0  0  0  0  0  0  0  0  0
    7.1707    2.5414   23.4538 C   0  0  2  0  0  0  0  0  0  0  0  0
   12.5281   -0.3541   23.7335 N   0  0  0  0  0  0  0  0  0  0  0  0
    7.0548    0.1847   23.7886 N   0  0  0  0  0  0  0  0  0  0  0  0
    7.9653    3.5059   22.7359 N   0  0  0  0  0  0  0  0  0  0  0  0
    9.7575   -0.8582   24.1636 N   0  3  0  0  0  0  0  0  0  0  0  0
   14.7678   -0.0093   24.2442 O   0  0  0  0  0  0  0  0  0  0  0  0
    8.0269    5.1664   24.3682 O   0  0  0  0  0  0  0  0  0  0  0  0
    8.4963    0.9806   22.1569 O   0  0  0  0  0  0  0  0  0  0  0  0
    4.4061    1.9629   17.6981 O   0  0  0  0  0  0  0  0  0  0  0  0
   13.5542   -3.1849   23.2265 Cl  0  0  0  0  0  0  0  0  0  0  0  0
    5.5830    4.5857   21.2027 H   0  0  0  0  0  0  0  0  0  0  0  0
    5.0165    0.3723   21.8990 H   0  0  0  0  0  0  0  0  0  0  0  0
    5.0303    4.2647   18.8192 H   0  0  0  0  0  0  0  0  0  0  0  0
    4.4642    0.0547   19.5153 H   0  0  0  0  0  0  0  0  0  0  0  0
   12.1876   -1.0300   21.7582 H   0  0  0  0  0  0  0  0  0  0  0  0
   11.2903    0.4063   22.2515 H   0  0  0  0  0  0  0  0  0  0  0  0
   11.5193    1.2010   24.6675 H   0  0  0  0  0  0  0  0  0  0  0  0
   12.5528    0.2922   25.7630 H   0  0  0  0  0  0  0  0  0  0  0  0
    9.7428   -1.5221   22.1556 H   0  0  0  0  0  0  0  0  0  0  0  0
   10.7903   -2.4742   23.2532 H   0  0  0  0  0  0  0  0  0  0  0  0
   11.0176   -1.6812   25.6608 H   0  0  0  0  0  0  0  0  0  0  0  0
   10.1201   -0.2081   26.1430 H   0  0  0  0  0  0  0  0  0  0  0  0
    8.5356    6.2215   21.6956 H   0  0  0  0  0  0  0  0  0  0  0  0
    9.8204    6.2581   22.8863 H   0  0  0  0  0  0  0  0  0  0  0  0
    9.8037    5.0147   21.6536 H   0  0  0  0  0  0  0  0  0  0  0  0
    5.3214    3.6822   23.4971 H   0  0  0  0  0  0  0  0  0  0  0  0
    5.0928    1.9713   23.7527 H   0  0  0  0  0  0  0  0  0  0  0  0
   15.3750   -1.7911   22.6561 H   0  0  0  0  0  0  0  0  0  0  0  0
   13.9149   -1.4486   21.6647 H   0  0  0  0  0  0  0  0  0  0  0  0
    7.6254   -1.4380   22.5731 H   0  0  0  0  0  0  0  0  0  0  0  0
    6.4877   -1.8329   23.8742 H   0  0  0  0  0  0  0  0  0  0  0  0
    8.7824   -2.6950   24.4286 H   0  0  0  0  0  0  0  0  0  0  0  0
    8.3181   -1.4142   25.5872 H   0  0  0  0  0  0  0  0  0  0  0  0
    7.3880    2.6879   24.5184 H   0  0  0  0  0  0  0  0  0  0  0  0
    6.3776    0.4520   24.4746 H   0  0  0  0  0  0  0  0  0  0  0  0
    8.2789    3.2708   21.7969 H   0  0  0  0  0  0  0  0  0  0  0  0
    9.4371    0.0797   23.8856 H   0  0  0  0  0  0  0  0  0  0  0  0
    4.2113    1.0290   17.5202 H   0  0  0  0  0  0  0  0  0  0  0  0
  1  3  2  0  0  0  0
  1  5  1  0  0  0  0
  2  4  1  0  0  0  0
  2  5  2  0  0  0  0
  3  6  1  0  0  0  0
  4  6  2  0  0  0  0
  5 15  1  0  0  0  0
  6 27  1  0  0  0  0
  7 16  1  0  0  0  0
  7 20  1  0  0  0  0
  7 24  2  0  0  0  0
  8 14  1  0  0  0  0
  8 22  1  0  0  0  0
  8 25  2  0  0  0  0
  9 19  1  0  0  0  0
  9 21  1  0  0  0  0
  9 26  2  0  0  0  0
 10 12  1  0  0  0  0
 10 20  1  0  0  0  0
 11 13  1  0  0  0  0
 11 20  1  0  0  0  0
 12 23  1  0  0  0  0
 13 23  1  0  0  0  0
 15 19  1  0  0  0  0
 16 28  1  0  0  0  0
 17 18  1  0  0  0  0
 17 21  1  0  0  0  0
 18 23  1  0  0  0  0
 19 22  1  0  0  0  0
  1 29  1  0  0  0  0
  2 30  1  0  0  0  0
  3 31  1  0  0  0  0
  4 32  1  0  0  0  0
 10 33  1  0  0  0  0
 10 34  1  0  0  0  0
 11 35  1  0  0  0  0
 11 36  1  0  0  0  0
 12 37  1  0  0  0  0
 12 38  1  0  0  0  0
 13 39  1  0  0  0  0
 13 40  1  0  0  0  0
 14 41  1  0  0  0  0
 14 42  1  0  0  0  0
 14 43  1  0  0  0  0
 15 44  1  0  0  0  0
 15 45  1  0  0  0  0
 16 46  1  0  0  0  0
 16 47  1  0  0  0  0
 17 48  1  0  0  0  0
 17 49  1  0  0  0  0
 18 50  1  0  0  0  0
 18 51  1  0  0  0  0
 19 52  1  0  0  0  0
 21 53  1  0  0  0  0
 22 54  1  0  0  0  0
 23 55  1  0  0  0  0
 27 56  1  0  0  0  0
M  CHG  1  23   1
M  END
> <creator>
Nimesh Mistry, University of Leeds

> <fragments>
x0967

> <real_space>
FALSE

> <SCR>
FALSE

> <BB>
FALSE

> <link>
https://covid.postera.ai/covid/submissions/ed9fc491-dc03-4238-8d3b-b72343b7eaa7

> <covalent_frag>
TRUE

> <covalent_warhead>
TRUE

> <acrylamide>
FALSE

> <acrylamide_adduct>
FALSE

> <chloroacetamide>
TRUE

> <chloroacetamide_adduct>
FALSE

> <vinylsulfonamide>
FALSE

> <vinylsulfonamide_adduct>
FALSE

> <in_molport_or_mcule>
FALSE

> <in_emolecules>
FALSE

> <Hybrid2>
-3.080068

> <Mpro-x0967_dock>
-3.080068

> <Mpro-x0770_dock>
2.804536

> <site>
active-noncovalent

> <covalent_distance_min>
5.6396904

> <covalent_distance_mean>
6.752238

> <covalent_distance_stderr>
0.10552867

$$$$
DAV-CRI-f47-6
  -OEChem-04062011563D

 62 66  0     1  0  0  0  0  0999 V2000
   13.0413    1.1336   23.4591 C   0  0  0  0  0  0  0  0  0  0  0  0
   13.0084   -0.2021   23.0587 C   0  0  0  0  0  0  0  0  0  0  0  0
   11.9414    1.6946   24.1081 C   0  0  0  0  0  0  0  0  0  0  0  0
   11.8754   -0.9769   23.3071 C   0  0  0  0  0  0  0  0  0  0  0  0
   10.8084    0.9198   24.3566 C   0  0  0  0  0  0  0  0  0  0  0  0
    9.1413   -5.0105   24.8122 C   0  0  0  0  0  0  0  0  0  0  0  0
   10.3139   -5.3373   25.4876 C   0  0  0  0  0  0  0  0  0  0  0  0
   11.0106   -3.0297   25.3653 C   0  0  0  0  0  0  0  0  0  0  0  0
   10.7754   -0.4160   23.9561 C   0  0  0  0  0  0  0  0  0  0  0  0
    8.9030   -3.6905   24.3977 C   0  0  0  0  0  0  0  0  0  0  0  0
    9.8499   -2.6897   24.6491 C   0  0  0  0  0  0  0  0  0  0  0  0
   11.2459   -4.3452   25.7697 C   0  0  0  0  0  0  0  0  0  0  0  0
    4.2448   -4.7113   22.6567 C   0  0  0  0  0  0  0  0  0  0  0  0
    8.5706   -1.1435   23.0312 C   0  0  0  0  0  0  0  0  0  0  0  0
    7.1293   -2.2990   21.4741 C   0  0  0  0  0  0  0  0  0  0  0  0
    3.7590   -6.1327   22.8186 C   0  0  0  0  0  0  0  0  0  0  0  0
    4.3942   -6.5746   24.1316 C   0  0  0  0  0  0  0  0  0  0  0  0
    4.5091   -5.2917   24.9303 C   0  0  0  0  0  0  0  0  0  0  0  0
    6.7766   -1.4656   25.2319 C   0  0  0  0  0  0  0  0  0  0  0  0
    4.2496   -2.3225   25.3150 C   0  0  0  0  0  0  0  0  0  0  0  0
    9.5344   -1.2638   24.2283 C   0  0  2  0  0  0  0  0  0  0  0  0
    7.6025   -3.3235   23.7311 C   0  0  1  0  0  0  0  0  0  0  0  0
    6.5637   -2.9108   24.7655 C   0  0  2  0  0  0  0  0  0  0  0  0
    5.1200   -2.9548   24.2301 C   0  0  1  0  0  0  0  0  0  0  0  0
   12.4944   -4.6842   26.5124 C   0  0  0  0  0  0  0  0  0  0  0  0
    7.2753   -1.0964   20.5718 C   0  0  0  0  0  0  0  0  0  0  0  0
    7.7864   -2.2640   22.7159 N   0  0  0  0  0  0  0  0  0  0  0  0
    4.6780   -4.2845   23.9098 N   0  0  0  0  0  0  0  0  0  0  0  0
    4.2030   -4.0765   21.6136 O   0  0  0  0  0  0  0  0  0  0  0  0
    8.4872   -0.0690   22.4248 O   0  0  0  0  0  0  0  0  0  0  0  0
    6.4155   -3.2330   21.0941 O   0  0  0  0  0  0  0  0  0  0  0  0
    4.7871    0.2604   25.3187 O   0  0  0  0  0  0  0  0  0  0  0  0
    5.3103   -1.1002   27.3949 O   0  0  0  0  0  0  0  0  0  0  0  0
    5.2206   -0.9656   25.9559 S   0  0  0  0  0  0  0  0  0  0  0  0
    6.3790   -1.4598   19.1018 Cl  0  0  0  0  0  0  0  0  0  0  0  0
   13.9241    1.7364   23.2668 H   0  0  0  0  0  0  0  0  0  0  0  0
   13.8651   -0.6393   22.5543 H   0  0  0  0  0  0  0  0  0  0  0  0
   11.9671    2.7342   24.4210 H   0  0  0  0  0  0  0  0  0  0  0  0
   11.8586   -2.0167   22.9914 H   0  0  0  0  0  0  0  0  0  0  0  0
    9.9561    1.3653   24.8627 H   0  0  0  0  0  0  0  0  0  0  0  0
    8.4063   -5.7874   24.6191 H   0  0  0  0  0  0  0  0  0  0  0  0
   10.4848   -6.3636   25.8008 H   0  0  0  0  0  0  0  0  0  0  0  0
   11.7426   -2.2653   25.6168 H   0  0  0  0  0  0  0  0  0  0  0  0
    2.6679   -6.1724   22.8610 H   0  0  0  0  0  0  0  0  0  0  0  0
    4.1251   -6.7276   21.9760 H   0  0  0  0  0  0  0  0  0  0  0  0
    3.7300   -7.2794   24.6467 H   0  0  0  0  0  0  0  0  0  0  0  0
    5.3597   -7.0655   23.9805 H   0  0  0  0  0  0  0  0  0  0  0  0
    3.6132   -5.0937   25.5240 H   0  0  0  0  0  0  0  0  0  0  0  0
    5.3953   -5.2876   25.5720 H   0  0  0  0  0  0  0  0  0  0  0  0
    7.5710   -1.3826   25.9788 H   0  0  0  0  0  0  0  0  0  0  0  0
    6.9847   -0.7916   24.3939 H   0  0  0  0  0  0  0  0  0  0  0  0
    3.3017   -1.9425   24.9270 H   0  0  0  0  0  0  0  0  0  0  0  0
    4.0666   -3.0133   26.1444 H   0  0  0  0  0  0  0  0  0  0  0  0
    9.0052   -0.7949   25.0812 H   0  0  0  0  0  0  0  0  0  0  0  0
    7.2304   -4.2152   23.2168 H   0  0  0  0  0  0  0  0  0  0  0  0
    6.6493   -3.5761   25.6348 H   0  0  0  0  0  0  0  0  0  0  0  0
    5.0476   -2.3612   23.3080 H   0  0  0  0  0  0  0  0  0  0  0  0
   13.2907   -4.9656   25.8124 H   0  0  0  0  0  0  0  0  0  0  0  0
   12.8436   -3.8345   27.1133 H   0  0  0  0  0  0  0  0  0  0  0  0
   12.3307   -5.5184   27.2069 H   0  0  0  0  0  0  0  0  0  0  0  0
    8.3251   -0.9557   20.3435 H   0  0  0  0  0  0  0  0  0  0  0  0
    6.8461   -0.2336   21.0670 H   0  0  0  0  0  0  0  0  0  0  0  0
  1  2  1  0  0  0  0
  1  3  2  0  0  0  0
  2  4  2  0  0  0  0
  3  5  1  0  0  0  0
  4  9  1  0  0  0  0
  5  9  2  0  0  0  0
  6  7  2  0  0  0  0
  6 10  1  0  0  0  0
  7 12  1  0  0  0  0
  8 11  1  0  0  0  0
  8 12  2  0  0  0  0
  9 21  1  0  0  0  0
 10 11  2  0  0  0  0
 10 22  1  0  0  0  0
 11 21  1  0  0  0  0
 12 25  1  0  0  0  0
 13 16  1  0  0  0  0
 13 28  1  0  0  0  0
 13 29  2  0  0  0  0
 14 21  1  0  0  0  0
 14 27  1  0  0  0  0
 14 30  2  0  0  0  0
 15 26  1  0  0  0  0
 15 27  1  0  0  0  0
 15 31  2  0  0  0  0
 16 17  1  0  0  0  0
 17 18  1  0  0  0  0
 18 28  1  0  0  0  0
 19 23  1  0  0  0  0
 19 34  1  0  0  0  0
 20 24  1  0  0  0  0
 20 34  1  0  0  0  0
 22 23  1  0  0  0  0
 22 27  1  0  0  0  0
 23 24  1  0  0  0  0
 24 28  1  0  0  0  0
 26 35  1  0  0  0  0
 32 34  2  0  0  0  0
 33 34  2  0  0  0  0
  1 36  1  0  0  0  0
  2 37  1  0  0  0  0
  3 38  1  0  0  0  0
  4 39  1  0  0  0  0
  5 40  1  0  0  0  0
  6 41  1  0  0  0  0
  7 42  1  0  0  0  0
  8 43  1  0  0  0  0
 16 44  1  0  0  0  0
 16 45  1  0  0  0  0
 17 46  1  0  0  0  0
 17 47  1  0  0  0  0
 18 48  1  0  0  0  0
 18 49  1  0  0  0  0
 19 50  1  0  0  0  0
 19 51  1  0  0  0  0
 20 52  1  0  0  0  0
 20 53  1  0  0  0  0
 21 54  1  0  0  0  0
 22 55  1  0  0  0  0
 23 56  1  0  0  0  0
 24 57  1  0  0  0  0
 25 58  1  0  0  0  0
 25 59  1  0  0  0  0
 25 60  1  0  0  0  0
 26 61  1  0  0  0  0
 26 62  1  0  0  0  0
M  END
> <creator>
David Briggs, Crick Institute

> <fragments>
x1392

> <real_space>
FALSE

> <SCR>
FALSE

> <BB>
FALSE

> <link>
https://covid.postera.ai/covid/submissions/f4772df7-f5a5-4208-a16e-3d41483cc4c7

> <covalent_frag>
TRUE

> <covalent_warhead>
TRUE

> <acrylamide>
FALSE

> <acrylamide_adduct>
FALSE

> <chloroacetamide>
TRUE

> <chloroacetamide_adduct>
FALSE

> <vinylsulfonamide>
FALSE

> <vinylsulfonamide_adduct>
FALSE

> <in_molport_or_mcule>
FALSE

> <in_emolecules>
FALSE

> <Hybrid2>
-3.076247

> <Mpro-x1392_dock>
-3.076247

> <Mpro-x1375_dock>
1.933174

> <Mpro-x1384_dock>
2.534921

> <site>
active-covalent

> <covalent_distance_min>
2.9890683

> <covalent_distance_mean>
3.278927

> <covalent_distance_stderr>
0.0077318046

$$$$
DAV-CRI-f47-5
  -OEChem-04062011563D

 60 64  0     1  0  0  0  0  0999 V2000
   12.5806    1.0659   23.2561 C   0  0  0  0  0  0  0  0  0  0  0  0
   12.5472   -0.2703   22.8574 C   0  0  0  0  0  0  0  0  0  0  0  0
   11.4807    1.6281   23.9041 C   0  0  0  0  0  0  0  0  0  0  0  0
   11.4139   -1.0444   23.1067 C   0  0  0  0  0  0  0  0  0  0  0  0
   10.3474    0.8541   24.1533 C   0  0  0  0  0  0  0  0  0  0  0  0
    8.6780   -5.0749   24.6166 C   0  0  0  0  0  0  0  0  0  0  0  0
    9.8503   -5.4013   25.2927 C   0  0  0  0  0  0  0  0  0  0  0  0
   10.5479   -3.0941   25.1674 C   0  0  0  0  0  0  0  0  0  0  0  0
   10.3140   -0.4822   23.7546 C   0  0  0  0  0  0  0  0  0  0  0  0
    8.4402   -3.7554   24.2003 C   0  0  0  0  0  0  0  0  0  0  0  0
    9.3875   -2.7546   24.4505 C   0  0  0  0  0  0  0  0  0  0  0  0
   10.7826   -4.4091   25.5737 C   0  0  0  0  0  0  0  0  0  0  0  0
    3.7821   -4.7769   22.4595 C   0  0  0  0  0  0  0  0  0  0  0  0
    8.1091   -1.2101   22.8302 C   0  0  0  0  0  0  0  0  0  0  0  0
    6.6678   -2.3672   21.2743 C   0  0  0  0  0  0  0  0  0  0  0  0
    3.2957   -6.1978   22.6232 C   0  0  0  0  0  0  0  0  0  0  0  0
    3.9304   -6.6382   23.9369 C   0  0  0  0  0  0  0  0  0  0  0  0
    4.0457   -5.3543   24.7339 C   0  0  0  0  0  0  0  0  0  0  0  0
    6.3145   -1.5285   25.0309 C   0  0  0  0  0  0  0  0  0  0  0  0
    3.7871   -2.3845   25.1146 C   0  0  0  0  0  0  0  0  0  0  0  0
    9.0726   -1.3291   24.0277 C   0  0  2  0  0  0  0  0  0  0  0  0
    7.1400   -3.3888   23.5328 C   0  0  1  0  0  0  0  0  0  0  0  0
    6.1012   -2.9743   24.5664 C   0  0  2  0  0  0  0  0  0  0  0  0
    4.6576   -3.0185   24.0307 C   0  0  1  0  0  0  0  0  0  0  0  0
    6.8144   -1.1659   20.3704 C   0  0  0  0  0  0  0  0  0  0  0  0
    7.3246   -2.3308   22.5162 N   0  0  0  0  0  0  0  0  0  0  0  0
    4.2152   -4.3485   23.7121 N   0  0  0  0  0  0  0  0  0  0  0  0
    3.7409   -4.1434   21.4155 O   0  0  0  0  0  0  0  0  0  0  0  0
    8.0263   -0.1364   22.2223 O   0  0  0  0  0  0  0  0  0  0  0  0
    5.9537   -3.3015   20.8954 O   0  0  0  0  0  0  0  0  0  0  0  0
    4.3256    0.1982   25.1149 O   0  0  0  0  0  0  0  0  0  0  0  0
    4.8479   -1.1597   27.1931 O   0  0  0  0  0  0  0  0  0  0  0  0
   11.9216   -4.7175   26.2527 O   0  0  0  0  0  0  0  0  0  0  0  0
    4.7586   -1.0271   25.7538 S   0  0  0  0  0  0  0  0  0  0  0  0
    5.9183   -1.5311   18.9008 Cl  0  0  0  0  0  0  0  0  0  0  0  0
   13.4636    1.6681   23.0631 H   0  0  0  0  0  0  0  0  0  0  0  0
   13.4040   -0.7085   22.3538 H   0  0  0  0  0  0  0  0  0  0  0  0
   11.5068    2.6682   24.2155 H   0  0  0  0  0  0  0  0  0  0  0  0
   11.3968   -2.0846   22.7923 H   0  0  0  0  0  0  0  0  0  0  0  0
    9.4951    1.3006   24.6586 H   0  0  0  0  0  0  0  0  0  0  0  0
    7.9422   -5.8518   24.4250 H   0  0  0  0  0  0  0  0  0  0  0  0
   10.0231   -6.4259   25.6093 H   0  0  0  0  0  0  0  0  0  0  0  0
   11.2811   -2.3314   25.4201 H   0  0  0  0  0  0  0  0  0  0  0  0
    2.2046   -6.2371   22.6654 H   0  0  0  0  0  0  0  0  0  0  0  0
    3.6619   -6.7940   21.7815 H   0  0  0  0  0  0  0  0  0  0  0  0
    3.2659   -7.3421   24.4529 H   0  0  0  0  0  0  0  0  0  0  0  0
    4.8959   -7.1297   23.7868 H   0  0  0  0  0  0  0  0  0  0  0  0
    3.1496   -5.1551   25.3272 H   0  0  0  0  0  0  0  0  0  0  0  0
    4.9317   -5.3496   25.3759 H   0  0  0  0  0  0  0  0  0  0  0  0
    7.1087   -1.4448   25.7779 H   0  0  0  0  0  0  0  0  0  0  0  0
    6.5230   -0.8559   24.1920 H   0  0  0  0  0  0  0  0  0  0  0  0
    2.8395   -2.0046   24.7258 H   0  0  0  0  0  0  0  0  0  0  0  0
    3.6037   -3.0741   25.9449 H   0  0  0  0  0  0  0  0  0  0  0  0
    8.5434   -0.8590   24.8796 H   0  0  0  0  0  0  0  0  0  0  0  0
    6.7682   -4.2810   23.0192 H   0  0  0  0  0  0  0  0  0  0  0  0
    6.1862   -3.6384   25.4367 H   0  0  0  0  0  0  0  0  0  0  0  0
    4.5857   -2.4262   23.1079 H   0  0  0  0  0  0  0  0  0  0  0  0
    7.8643   -1.0260   20.1423 H   0  0  0  0  0  0  0  0  0  0  0  0
    6.3855   -0.3023   20.8644 H   0  0  0  0  0  0  0  0  0  0  0  0
   12.4680   -3.9242   26.3706 H   0  0  0  0  0  0  0  0  0  0  0  0
  1  2  1  0  0  0  0
  1  3  2  0  0  0  0
  2  4  2  0  0  0  0
  3  5  1  0  0  0  0
  4  9  1  0  0  0  0
  5  9  2  0  0  0  0
  6  7  2  0  0  0  0
  6 10  1  0  0  0  0
  7 12  1  0  0  0  0
  8 11  1  0  0  0  0
  8 12  2  0  0  0  0
  9 21  1  0  0  0  0
 10 11  2  0  0  0  0
 10 22  1  0  0  0  0
 11 21  1  0  0  0  0
 12 33  1  0  0  0  0
 13 16  1  0  0  0  0
 13 27  1  0  0  0  0
 13 28  2  0  0  0  0
 14 21  1  0  0  0  0
 14 26  1  0  0  0  0
 14 29  2  0  0  0  0
 15 25  1  0  0  0  0
 15 26  1  0  0  0  0
 15 30  2  0  0  0  0
 16 17  1  0  0  0  0
 17 18  1  0  0  0  0
 18 27  1  0  0  0  0
 19 23  1  0  0  0  0
 19 34  1  0  0  0  0
 20 24  1  0  0  0  0
 20 34  1  0  0  0  0
 22 23  1  0  0  0  0
 22 26  1  0  0  0  0
 23 24  1  0  0  0  0
 24 27  1  0  0  0  0
 25 35  1  0  0  0  0
 31 34  2  0  0  0  0
 32 34  2  0  0  0  0
  1 36  1  0  0  0  0
  2 37  1  0  0  0  0
  3 38  1  0  0  0  0
  4 39  1  0  0  0  0
  5 40  1  0  0  0  0
  6 41  1  0  0  0  0
  7 42  1  0  0  0  0
  8 43  1  0  0  0  0
 16 44  1  0  0  0  0
 16 45  1  0  0  0  0
 17 46  1  0  0  0  0
 17 47  1  0  0  0  0
 18 48  1  0  0  0  0
 18 49  1  0  0  0  0
 19 50  1  0  0  0  0
 19 51  1  0  0  0  0
 20 52  1  0  0  0  0
 20 53  1  0  0  0  0
 21 54  1  0  0  0  0
 22 55  1  0  0  0  0
 23 56  1  0  0  0  0
 24 57  1  0  0  0  0
 25 58  1  0  0  0  0
 25 59  1  0  0  0  0
 33 60  1  0  0  0  0
M  END
> <creator>
David Briggs, Crick Institute

> <fragments>
x1392

> <real_space>
FALSE

> <SCR>
FALSE

> <BB>
FALSE

> <link>
https://covid.postera.ai/covid/submissions/f4772df7-f5a5-4208-a16e-3d41483cc4c7

> <covalent_frag>
TRUE

> <covalent_warhead>
TRUE

> <acrylamide>
FALSE

> <acrylamide_adduct>
FALSE

> <chloroacetamide>
TRUE

> <chloroacetamide_adduct>
FALSE

> <vinylsulfonamide>
FALSE

> <vinylsulfonamide_adduct>
FALSE

> <in_molport_or_mcule>
FALSE

> <in_emolecules>
FALSE

> <Hybrid2>
-3.063451

> <Mpro-x1392_dock>
-3.063451

> <Mpro-x1375_dock>
1.672089

> <Mpro-x1384_dock>
2.27457

> <site>
active-covalent

$$$$
TAM-UNI-d1c-11
  -OEChem-04062011563D

 59 62  0     1  0  0  0  0  0999 V2000
    8.3030   -6.5307   25.4617 C   0  0  0  0  0  0  0  0  0  0  0  0
    8.4579   -5.4312   26.3010 C   0  0  0  0  0  0  0  0  0  0  0  0
    8.8378    0.5841   23.7044 C   0  0  0  0  0  0  0  0  0  0  0  0
    7.6851   -6.3790   24.2207 C   0  0  0  0  0  0  0  0  0  0  0  0
    7.9920   -4.1793   25.9018 C   0  0  0  0  0  0  0  0  0  0  0  0
    7.8324   -0.3192   24.0682 C   0  0  0  0  0  0  0  0  0  0  0  0
    9.1353   -2.1902   23.2278 C   0  0  0  0  0  0  0  0  0  0  0  0
   12.0071   -0.2895   22.1067 C   0  0  0  0  0  0  0  0  0  0  0  0
   10.0105    0.0976   23.0933 C   0  0  0  0  0  0  0  0  0  0  0  0
    7.9810   -1.6846   23.8326 C   0  0  0  0  0  0  0  0  0  0  0  0
    7.2169   -5.1238   23.8033 C   0  0  0  0  0  0  0  0  0  0  0  0
    7.3652   -4.0144   24.6561 C   0  0  0  0  0  0  0  0  0  0  0  0
   11.2009    0.7069   22.6068 C   0  0  0  0  0  0  0  0  0  0  0  0
   10.1320   -1.2755   22.8695 C   0  0  0  0  0  0  0  0  0  0  0  0
    6.1356   -3.1851   20.7404 C   0  0  0  0  0  0  0  0  0  0  0  0
    9.9634    4.9377   24.3934 C   0  0  0  0  0  0  0  0  0  0  0  0
    6.5574   -5.0071   22.4502 C   0  0  0  0  0  0  0  0  0  0  0  0
    5.7906   -2.7517   23.1484 C   0  0  0  0  0  0  0  0  0  0  0  0
    6.8685   -2.6426   24.2387 C   0  0  2  0  0  0  0  0  0  0  0  0
    8.8947    5.8336   23.8607 C   0  0  0  0  0  0  0  0  0  0  0  0
   11.8849   -2.7648   21.8626 C   0  0  0  0  0  0  0  0  0  0  0  0
   11.5240    2.1478   22.6307 C   0  0  0  0  0  0  0  0  0  0  0  0
    6.4527   -1.7287   20.5077 C   0  0  0  0  0  0  0  0  0  0  0  0
   12.0197    2.6824   23.9956 C   0  0  0  0  0  0  0  0  0  0  0  0
   12.3015    4.1836   24.0101 C   0  0  0  0  0  0  0  0  0  0  0  0
   11.3537   -1.4816   22.2694 N   0  0  0  0  0  0  0  0  0  0  0  0
    6.2117   -3.6339   22.0609 N   0  0  0  0  0  0  0  0  0  0  0  0
   11.1458    4.9667   23.6700 N   0  0  0  0  0  0  0  0  0  0  0  0
    5.8236   -3.8967   19.7825 O   0  0  0  0  0  0  0  0  0  0  0  0
    9.7435    4.2626   25.3921 O   0  0  0  0  0  0  0  0  0  0  0  0
    7.1631   -1.6193   18.9014 Cl  0  0  0  0  0  0  0  0  0  0  0  0
    8.6637   -7.5068   25.7727 H   0  0  0  0  0  0  0  0  0  0  0  0
    8.9400   -5.5482   27.2671 H   0  0  0  0  0  0  0  0  0  0  0  0
    8.7060    1.6457   23.8937 H   0  0  0  0  0  0  0  0  0  0  0  0
    7.5716   -7.2466   23.5751 H   0  0  0  0  0  0  0  0  0  0  0  0
    8.1182   -3.3301   26.5690 H   0  0  0  0  0  0  0  0  0  0  0  0
    6.9285    0.0597   24.5393 H   0  0  0  0  0  0  0  0  0  0  0  0
    9.2524   -3.2531   23.0413 H   0  0  0  0  0  0  0  0  0  0  0  0
   12.9880   -0.2498   21.6514 H   0  0  0  0  0  0  0  0  0  0  0  0
    7.2206   -5.4472   21.7002 H   0  0  0  0  0  0  0  0  0  0  0  0
    5.6197   -5.5756   22.4573 H   0  0  0  0  0  0  0  0  0  0  0  0
    4.8750   -3.1903   23.5669 H   0  0  0  0  0  0  0  0  0  0  0  0
    5.5224   -1.7600   22.7669 H   0  0  0  0  0  0  0  0  0  0  0  0
    6.3689   -2.1759   25.1303 H   0  0  0  0  0  0  0  0  0  0  0  0
    8.2521    5.3284   23.1219 H   0  0  0  0  0  0  0  0  0  0  0  0
    8.2104    6.1865   24.6488 H   0  0  0  0  0  0  0  0  0  0  0  0
    9.2523    6.7463   23.3577 H   0  0  0  0  0  0  0  0  0  0  0  0
   12.4494   -3.1778   22.7027 H   0  0  0  0  0  0  0  0  0  0  0  0
   11.0608   -3.4306   21.5915 H   0  0  0  0  0  0  0  0  0  0  0  0
   12.5351   -2.6279   20.9941 H   0  0  0  0  0  0  0  0  0  0  0  0
   10.6654    2.7650   22.2999 H   0  0  0  0  0  0  0  0  0  0  0  0
   12.3127    2.3643   21.8833 H   0  0  0  0  0  0  0  0  0  0  0  0
    7.1671   -1.4019   21.2542 H   0  0  0  0  0  0  0  0  0  0  0  0
    5.5318   -1.1589   20.5478 H   0  0  0  0  0  0  0  0  0  0  0  0
   12.9336    2.1462   24.2815 H   0  0  0  0  0  0  0  0  0  0  0  0
   11.2709    2.4588   24.7653 H   0  0  0  0  0  0  0  0  0  0  0  0
   13.0750    4.4228   23.2734 H   0  0  0  0  0  0  0  0  0  0  0  0
   12.6577    4.5179   24.9889 H   0  0  0  0  0  0  0  0  0  0  0  0
   11.1980    5.5756   22.8539 H   0  0  0  0  0  0  0  0  0  0  0  0
  1  2  1  0  0  0  0
  1  4  2  0  0  0  0
  2  5  2  0  0  0  0
  3  6  2  0  0  0  0
  3  9  1  0  0  0  0
  4 11  1  0  0  0  0
  5 12  1  0  0  0  0
  6 10  1  0  0  0  0
  7 10  2  0  0  0  0
  7 14  1  0  0  0  0
  8 13  2  0  0  0  0
  8 26  1  0  0  0  0
  9 13  1  0  0  0  0
  9 14  2  0  0  0  0
 10 19  1  0  0  0  0
 11 12  2  0  0  0  0
 11 17  1  0  0  0  0
 12 19  1  0  0  0  0
 13 22  1  0  0  0  0
 14 26  1  0  0  0  0
 15 23  1  0  0  0  0
 15 27  1  0  0  0  0
 15 29  2  0  0  0  0
 16 20  1  0  0  0  0
 16 28  1  0  0  0  0
 16 30  2  0  0  0  0
 17 27  1  0  0  0  0
 18 19  1  0  0  0  0
 18 27  1  0  0  0  0
 21 26  1  0  0  0  0
 22 24  1  0  0  0  0
 23 31  1  0  0  0  0
 24 25  1  0  0  0  0
 25 28  1  0  0  0  0
  1 32  1  0  0  0  0
  2 33  1  0  0  0  0
  3 34  1  0  0  0  0
  4 35  1  0  0  0  0
  5 36  1  0  0  0  0
  6 37  1  0  0  0  0
  7 38  1  0  0  0  0
  8 39  1  0  0  0  0
 17 40  1  0  0  0  0
 17 41  1  0  0  0  0
 18 42  1  0  0  0  0
 18 43  1  0  0  0  0
 19 44  1  0  0  0  0
 20 45  1  0  0  0  0
 20 46  1  0  0  0  0
 20 47  1  0  0  0  0
 21 48  1  0  0  0  0
 21 49  1  0  0  0  0
 21 50  1  0  0  0  0
 22 51  1  0  0  0  0
 22 52  1  0  0  0  0
 23 53  1  0  0  0  0
 23 54  1  0  0  0  0
 24 55  1  0  0  0  0
 24 56  1  0  0  0  0
 25 57  1  0  0  0  0
 25 58  1  0  0  0  0
 28 59  1  0  0  0  0
M  END
> <creator>
Tamas Szommer, University of Oxford, TDI

> <fragments>
x1392

> <real_space>
FALSE

> <SCR>
FALSE

> <BB>
FALSE

> <link>
https://covid.postera.ai/covid/submissions/d1c3dd9f-771c-474e-9133-8c7e4ace8b98

> <covalent_frag>
TRUE

> <covalent_warhead>
TRUE

> <acrylamide>
FALSE

> <acrylamide_adduct>
FALSE

> <chloroacetamide>
TRUE

> <chloroacetamide_adduct>
FALSE

> <vinylsulfonamide>
FALSE

> <vinylsulfonamide_adduct>
FALSE

> <in_molport_or_mcule>
FALSE

> <in_emolecules>
FALSE

> <Hybrid2>
-3.047361

> <Mpro-x1392_dock>
-3.047361

> <Mpro-x0692_dock>
-2.063571

> <Mpro-x1386_dock>
-0.570611

> <Mpro-x1382_dock>
1.423175

> <site>
active-covalent

> <covalent_distance_min>
3.266761

> <covalent_distance_mean>
4.285223

> <covalent_distance_stderr>
0.07437277

$$$$
BEN-VAN-d2b-13
  -OEChem-04062011563D

 52 54  0     1  0  0  0  0  0999 V2000
    9.7169    4.4358   23.0190 C   0  0  0  0  0  0  0  0  0  0  0  0
    7.2551    1.6461   22.7394 C   0  0  0  0  0  0  0  0  0  0  0  0
    7.5598    4.2267   21.9067 C   0  0  0  0  0  0  0  0  0  0  0  0
   10.1171   -1.0824   26.1161 C   0  0  0  0  0  0  0  0  0  0  0  0
    8.5625    3.6639   22.6798 C   0  0  0  0  0  0  0  0  0  0  0  0
   10.4243   -0.2034   25.1010 C   0  0  0  0  0  0  0  0  0  0  0  0
    8.3996    2.3486   23.1001 C   0  0  0  0  0  0  0  0  0  0  0  0
    9.3661    0.7176   24.8520 C   0  0  0  0  0  0  0  0  0  0  0  0
    6.3109    2.2992   21.9638 C   0  0  0  0  0  0  0  0  0  0  0  0
    8.2902    0.5073   25.6863 C   0  0  0  0  0  0  0  0  0  0  0  0
    7.6036   -4.8782   23.1722 C   0  0  0  0  0  0  0  0  0  0  0  0
    8.6763   -4.0946   23.3195 C   0  0  0  0  0  0  0  0  0  0  0  0
    8.7869   -2.8195   22.5608 C   0  0  0  0  0  0  0  0  0  0  0  0
   10.3457   -0.9283   22.2885 C   0  0  0  0  0  0  0  0  0  0  0  0
   13.1291    1.3999   23.1628 C   0  0  0  0  0  0  0  0  0  0  0  0
   12.5558    1.0726   24.5352 C   0  0  0  0  0  0  0  0  0  0  0  0
   12.0719    0.8891   22.2003 C   0  0  0  0  0  0  0  0  0  0  0  0
   11.7393   -0.2273   24.3476 C   0  0  2  0  0  0  0  0  0  0  0  0
   11.6610   -0.4444   22.8159 C   0  0  1  0  0  0  0  0  0  0  0  0
    4.4569    2.1025   19.3622 C   0  0  0  0  0  0  0  0  0  0  0  0
    4.1047    2.1303   20.8106 C   0  0  0  0  0  0  0  0  0  0  0  0
   10.6542    5.0623   23.2943 N   0  0  0  0  0  0  0  0  0  0  0  0
    6.4341    3.5759   21.5365 N   0  0  0  0  0  0  0  0  0  0  0  0
    9.4017    1.6894   23.9094 N   0  0  0  0  0  0  0  0  0  0  0  0
    5.1492    1.5710   21.6051 N   0  0  0  0  0  0  0  0  0  0  0  0
    9.9726   -2.1484   22.8499 N   0  0  0  0  0  0  0  0  0  0  0  0
    7.9177   -2.4381   21.7839 O   0  0  0  0  0  0  0  0  0  0  0  0
    9.6957   -0.2799   21.4728 O   0  0  0  0  0  0  0  0  0  0  0  0
    7.1652    1.2310   25.6633 F   0  0  0  0  0  0  0  0  0  0  0  0
    8.5582   -0.7959   26.7643 S   0  0  0  0  0  0  0  0  0  0  0  0
    7.1082    0.6176   23.0564 H   0  0  0  0  0  0  0  0  0  0  0  0
    7.6249    5.2494   21.5464 H   0  0  0  0  0  0  0  0  0  0  0  0
   10.7299   -1.8807   26.5115 H   0  0  0  0  0  0  0  0  0  0  0  0
    7.4858   -5.8141   23.7067 H   0  0  0  0  0  0  0  0  0  0  0  0
    6.8071   -4.5855   22.4959 H   0  0  0  0  0  0  0  0  0  0  0  0
    9.4752   -4.3836   23.9934 H   0  0  0  0  0  0  0  0  0  0  0  0
   13.3195    2.4634   23.0470 H   0  0  0  0  0  0  0  0  0  0  0  0
   14.0639    0.8612   23.0118 H   0  0  0  0  0  0  0  0  0  0  0  0
   13.3483    0.9508   25.2921 H   0  0  0  0  0  0  0  0  0  0  0  0
   11.9105    1.8966   24.8878 H   0  0  0  0  0  0  0  0  0  0  0  0
   11.2473    1.5865   22.1129 H   0  0  0  0  0  0  0  0  0  0  0  0
   12.5095    0.7393   21.2189 H   0  0  0  0  0  0  0  0  0  0  0  0
   12.3294   -1.0652   24.7942 H   0  0  0  0  0  0  0  0  0  0  0  0
   12.4137   -1.2400   22.5216 H   0  0  0  0  0  0  0  0  0  0  0  0
    4.6258    1.0628   19.0452 H   0  0  0  0  0  0  0  0  0  0  0  0
    3.6326    2.5351   18.7762 H   0  0  0  0  0  0  0  0  0  0  0  0
    5.3722    2.6896   19.1963 H   0  0  0  0  0  0  0  0  0  0  0  0
    3.9375    3.1727   21.1195 H   0  0  0  0  0  0  0  0  0  0  0  0
    3.1839    1.5492   20.9674 H   0  0  0  0  0  0  0  0  0  0  0  0
   10.3377    2.0811   23.6832 H   0  0  0  0  0  0  0  0  0  0  0  0
    5.0893    0.6309   21.9391 H   0  0  0  0  0  0  0  0  0  0  0  0
   10.6100   -2.5780   23.5165 H   0  0  0  0  0  0  0  0  0  0  0  0
  1  5  1  0  0  0  0
  1 22  3  0  0  0  0
  2  7  1  0  0  0  0
  2  9  2  0  0  0  0
  3  5  1  0  0  0  0
  3 23  2  0  0  0  0
  4  6  2  0  0  0  0
  4 30  1  0  0  0  0
  5  7  2  0  0  0  0
  6  8  1  0  0  0  0
  6 18  1  0  0  0  0
  7 24  1  0  0  0  0
  8 10  2  0  0  0  0
  8 24  1  0  0  0  0
  9 23  1  0  0  0  0
  9 25  1  0  0  0  0
 10 29  1  0  0  0  0
 10 30  1  0  0  0  0
 11 12  2  0  0  0  0
 12 13  1  0  0  0  0
 13 26  1  0  0  0  0
 13 27  2  0  0  0  0
 14 19  1  0  0  0  0
 14 26  1  0  0  0  0
 14 28  2  0  0  0  0
 15 16  1  0  0  0  0
 15 17  1  0  0  0  0
 16 18  1  0  0  0  0
 17 19  1  0  0  0  0
 18 19  1  0  0  0  0
 20 21  1  0  0  0  0
 21 25  1  0  0  0  0
  2 31  1  0  0  0  0
  3 32  1  0  0  0  0
  4 33  1  0  0  0  0
 11 34  1  0  0  0  0
 11 35  1  0  0  0  0
 12 36  1  0  0  0  0
 15 37  1  0  0  0  0
 15 38  1  0  0  0  0
 16 39  1  0  0  0  0
 16 40  1  0  0  0  0
 17 41  1  0  0  0  0
 17 42  1  0  0  0  0
 18 43  1  0  0  0  0
 19 44  1  0  0  0  0
 20 45  1  0  0  0  0
 20 46  1  0  0  0  0
 20 47  1  0  0  0  0
 21 48  1  0  0  0  0
 21 49  1  0  0  0  0
 24 50  1  0  0  0  0
 25 51  1  0  0  0  0
 26 52  1  0  0  0  0
M  END
> <creator>
Benjamin P. Brown, Vanderbilt University, Laboratory of Jens Meiler

> <fragments>
x0874

> <real_space>
FALSE

> <SCR>
FALSE

> <BB>
FALSE

> <link>
https://covid.postera.ai/covid/submissions/d2b455e2-4c45-4364-9fc0-1efc54e3e367

> <covalent_frag>
FALSE

> <covalent_warhead>
TRUE

> <acrylamide>
TRUE

> <acrylamide_adduct>
FALSE

> <chloroacetamide>
FALSE

> <chloroacetamide_adduct>
FALSE

> <vinylsulfonamide>
FALSE

> <vinylsulfonamide_adduct>
FALSE

> <in_molport_or_mcule>
FALSE

> <in_emolecules>
FALSE

> <Hybrid2>
-2.854450

> <Mpro-x0874_dock>
-2.85445

> <Mpro-x0305_dock>
-1.732832

> <site>
active-noncovalent

> <covalent_distance_min>
5.117492

> <covalent_distance_mean>
5.746029

> <covalent_distance_stderr>
0.044397615

$$$$
ANT-STE-dbb-1
  -OEChem-04062011563D

 45 47  0     0  0  0  0  0  0999 V2000
   12.6035   -1.3377   21.9452 C   0  0  0  0  0  0  0  0  0  0  0  0
   12.5857    0.5001   23.5134 C   0  0  0  0  0  0  0  0  0  0  0  0
   13.6666   -0.7456   21.2634 C   0  0  0  0  0  0  0  0  0  0  0  0
   13.6489    1.0922   22.8317 C   0  0  0  0  0  0  0  0  0  0  0  0
   10.3897   -2.4797   23.4419 C   0  0  0  0  0  0  0  0  0  0  0  0
   12.0630   -0.7148   23.0702 C   0  0  0  0  0  0  0  0  0  0  0  0
   14.1894    0.4693   21.7067 C   0  0  0  0  0  0  0  0  0  0  0  0
    9.4262   -2.6029   24.4111 C   0  0  0  0  0  0  0  0  0  0  0  0
    5.7016   -2.4188   19.9527 C   0  0  0  0  0  0  0  0  0  0  0  0
    6.4315   -4.2896   21.3979 C   0  0  0  0  0  0  0  0  0  0  0  0
    5.5846   -2.2479   22.4875 C   0  0  0  0  0  0  0  0  0  0  0  0
    7.6495   -4.2960   22.3101 C   0  0  0  0  0  0  0  0  0  0  0  0
    6.7898   -2.2246   23.4180 C   0  0  0  0  0  0  0  0  0  0  0  0
   15.7327    0.3566   19.9007 C   0  0  0  0  0  0  0  0  0  0  0  0
    8.4180   -3.6962   24.6090 C   0  0  0  0  0  0  0  0  0  0  0  0
    5.8492   -0.9266   19.7946 C   0  0  0  0  0  0  0  0  0  0  0  0
    9.4838   -1.5289   25.2554 N   0  0  0  0  0  0  0  0  0  0  0  0
   10.4619   -0.7330   24.8373 N   0  0  0  0  0  0  0  0  0  0  0  0
   11.0037   -1.3047   23.7497 N   0  0  0  0  0  0  0  0  0  0  0  0
    5.9062   -2.9344   21.2318 N   0  0  0  0  0  0  0  0  0  0  0  0
    7.2856   -3.6386   23.6226 N   0  3  0  0  0  0  0  0  0  0  0  0
    5.4155   -3.1041   18.9676 O   0  0  0  0  0  0  0  0  0  0  0  0
   15.2273    1.0472   21.0424 O   0  0  0  0  0  0  0  0  0  0  0  0
    7.4867   -0.5260   20.3006 Cl  0  0  0  0  0  0  0  0  0  0  0  0
   12.2056   -2.2847   21.5886 H   0  0  0  0  0  0  0  0  0  0  0  0
   12.1734    0.9966   24.3885 H   0  0  0  0  0  0  0  0  0  0  0  0
   14.0838   -1.2354   20.3878 H   0  0  0  0  0  0  0  0  0  0  0  0
   14.0517    2.0383   23.1827 H   0  0  0  0  0  0  0  0  0  0  0  0
   10.6738   -3.0984   22.6013 H   0  0  0  0  0  0  0  0  0  0  0  0
    6.6981   -4.7242   20.4293 H   0  0  0  0  0  0  0  0  0  0  0  0
    5.6275   -4.9050   21.8195 H   0  0  0  0  0  0  0  0  0  0  0  0
    4.7508   -2.7898   22.9500 H   0  0  0  0  0  0  0  0  0  0  0  0
    5.2451   -1.2248   22.3170 H   0  0  0  0  0  0  0  0  0  0  0  0
    7.9595   -5.3219   22.5338 H   0  0  0  0  0  0  0  0  0  0  0  0
    8.4901   -3.7419   21.8774 H   0  0  0  0  0  0  0  0  0  0  0  0
    7.6157   -1.6346   23.0052 H   0  0  0  0  0  0  0  0  0  0  0  0
    6.5107   -1.8315   24.4010 H   0  0  0  0  0  0  0  0  0  0  0  0
   16.5576    0.9258   19.4653 H   0  0  0  0  0  0  0  0  0  0  0  0
   14.9335    0.2325   19.1656 H   0  0  0  0  0  0  0  0  0  0  0  0
   16.0951   -0.6262   20.2114 H   0  0  0  0  0  0  0  0  0  0  0  0
    8.8789   -4.6840   24.5013 H   0  0  0  0  0  0  0  0  0  0  0  0
    7.9690   -3.6444   25.6067 H   0  0  0  0  0  0  0  0  0  0  0  0
    5.1297   -0.4321   20.4372 H   0  0  0  0  0  0  0  0  0  0  0  0
    5.7081   -0.6681   18.7514 H   0  0  0  0  0  0  0  0  0  0  0  0
    6.5117   -4.1788   24.0336 H   0  0  0  0  0  0  0  0  0  0  0  0
  1  3  2  0  0  0  0
  1  6  1  0  0  0  0
  2  4  1  0  0  0  0
  2  6  2  0  0  0  0
  3  7  1  0  0  0  0
  4  7  2  0  0  0  0
  5  8  2  0  0  0  0
  5 19  1  0  0  0  0
  6 19  1  0  0  0  0
  7 23  1  0  0  0  0
  8 15  1  0  0  0  0
  8 17  1  0  0  0  0
  9 16  1  0  0  0  0
  9 20  1  0  0  0  0
  9 22  2  0  0  0  0
 10 12  1  0  0  0  0
 10 20  1  0  0  0  0
 11 13  1  0  0  0  0
 11 20  1  0  0  0  0
 12 21  1  0  0  0  0
 13 21  1  0  0  0  0
 14 23  1  0  0  0  0
 15 21  1  0  0  0  0
 16 24  1  0  0  0  0
 17 18  2  0  0  0  0
 18 19  1  0  0  0  0
  1 25  1  0  0  0  0
  2 26  1  0  0  0  0
  3 27  1  0  0  0  0
  4 28  1  0  0  0  0
  5 29  1  0  0  0  0
 10 30  1  0  0  0  0
 10 31  1  0  0  0  0
 11 32  1  0  0  0  0
 11 33  1  0  0  0  0
 12 34  1  0  0  0  0
 12 35  1  0  0  0  0
 13 36  1  0  0  0  0
 13 37  1  0  0  0  0
 14 38  1  0  0  0  0
 14 39  1  0  0  0  0
 14 40  1  0  0  0  0
 15 41  1  0  0  0  0
 15 42  1  0  0  0  0
 16 43  1  0  0  0  0
 16 44  1  0  0  0  0
 21 45  1  0  0  0  0
M  CHG  1  21   1
M  END
> <creator>
Anton Hamann, Stellenbosch University

> <fragments>
x1386

> <real_space>
FALSE

> <SCR>
FALSE

> <BB>
FALSE

> <link>
https://covid.postera.ai/covid/submissions/dbb91f63-dddf-4f6e-a0f1-20477ec380fd

> <covalent_frag>
TRUE

> <covalent_warhead>
TRUE

> <acrylamide>
FALSE

> <acrylamide_adduct>
FALSE

> <chloroacetamide>
TRUE

> <chloroacetamide_adduct>
FALSE

> <vinylsulfonamide>
FALSE

> <vinylsulfonamide_adduct>
FALSE

> <in_molport_or_mcule>
FALSE

> <in_emolecules>
FALSE

> <Hybrid2>
-2.789942

> <Mpro-x1386_dock>
-2.789942

> <site>
active-covalent

> <covalent_distance_min>
5.640046

> <covalent_distance_mean>
5.8404927

> <covalent_distance_stderr>
0.045553964

$$$$
JAN-GHE-bf4-8
  -OEChem-04062011563D

 54 56  0     0  0  0  0  0  0999 V2000
    5.8709   -3.8500   20.4063 C   0  0  0  0  0  0  0  0  0  0  0  0
   10.4554    2.6915   24.9751 C   0  0  0  0  0  0  0  0  0  0  0  0
    5.3627   -2.3182   22.2518 C   0  0  0  0  0  0  0  0  0  0  0  0
   10.2319    1.4923   25.6516 C   0  0  0  0  0  0  0  0  0  0  0  0
   10.9429    2.6746   23.6682 C   0  0  0  0  0  0  0  0  0  0  0  0
    5.4709   -1.9823   23.5967 C   0  0  0  0  0  0  0  0  0  0  0  0
    6.6602   -4.2634   22.6869 C   0  0  0  0  0  0  0  0  0  0  0  0
    5.9658   -3.4788   21.7802 C   0  0  0  0  0  0  0  0  0  0  0  0
   10.4960    0.2763   25.0213 C   0  0  0  0  0  0  0  0  0  0  0  0
   11.2070    1.4586   23.0380 C   0  0  0  0  0  0  0  0  0  0  0  0
   10.9836    0.2594   23.7145 C   0  0  0  0  0  0  0  0  0  0  0  0
    6.1872   -2.8339   24.4221 C   0  0  0  0  0  0  0  0  0  0  0  0
    6.5308   -0.3029   17.6866 C   0  0  0  0  0  0  0  0  0  0  0  0
    5.7665   -0.1665   18.7722 C   0  0  0  0  0  0  0  0  0  0  0  0
    6.3197    0.5262   19.9500 C   0  0  0  0  0  0  0  0  0  0  0  0
    8.2413   -1.2078   20.1709 C   0  0  0  0  0  0  0  0  0  0  0  0
    8.1985    0.3165   21.6694 C   0  0  0  0  0  0  0  0  0  0  0  0
    9.2794   -0.6509   21.1603 C   0  0  0  0  0  0  0  0  0  0  0  0
    8.7051   -2.6296   26.2037 C   0  0  0  0  0  0  0  0  0  0  0  0
    7.2956   -2.9929   26.6519 C   0  0  0  0  0  0  0  0  0  0  0  0
    8.9367   -1.1245   26.1447 C   0  0  0  0  0  0  0  0  0  0  0  0
    5.7937   -4.1518   19.2884 N   0  0  0  0  0  0  0  0  0  0  0  0
    6.7869   -3.9698   24.0004 N   0  0  0  0  0  0  0  0  0  0  0  0
    7.4364   -0.0442   20.4884 N   0  0  0  0  0  0  0  0  0  0  0  0
    6.2869   -2.4844   25.7630 N   0  0  0  0  0  0  0  0  0  0  0  0
    9.8440   -1.6152   22.1570 N   0  0  0  0  0  0  0  0  0  0  0  0
    5.7741    1.5407   20.3769 O   0  0  0  0  0  0  0  0  0  0  0  0
   12.3325   -1.0232   21.8855 O   0  0  0  0  0  0  0  0  0  0  0  0
   11.5573   -2.2597   23.9335 O   0  0  0  0  0  0  0  0  0  0  0  0
   10.2704   -0.8825   25.7016 O   0  0  0  0  0  0  0  0  0  0  0  0
   11.6754    1.4564   21.7820 F   0  0  0  0  0  0  0  0  0  0  0  0
   11.3241   -1.2711   22.8982 S   0  0  0  0  0  0  0  0  0  0  0  0
   10.2499    3.6383   25.4658 H   0  0  0  0  0  0  0  0  0  0  0  0
    4.8056   -1.6665   21.5835 H   0  0  0  0  0  0  0  0  0  0  0  0
    9.8521    1.5129   26.6695 H   0  0  0  0  0  0  0  0  0  0  0  0
   11.1170    3.6082   23.1414 H   0  0  0  0  0  0  0  0  0  0  0  0
    5.0025   -1.0790   23.9736 H   0  0  0  0  0  0  0  0  0  0  0  0
    7.1526   -5.1823   22.3817 H   0  0  0  0  0  0  0  0  0  0  0  0
    6.1798   -0.8027   16.7899 H   0  0  0  0  0  0  0  0  0  0  0  0
    7.5411    0.0923   17.6791 H   0  0  0  0  0  0  0  0  0  0  0  0
    4.7543   -0.5467   18.8177 H   0  0  0  0  0  0  0  0  0  0  0  0
    8.5807   -1.2538   19.1332 H   0  0  0  0  0  0  0  0  0  0  0  0
    7.7568   -2.1458   20.4577 H   0  0  0  0  0  0  0  0  0  0  0  0
    7.6935    0.0313   22.5970 H   0  0  0  0  0  0  0  0  0  0  0  0
    8.4943    1.3678   21.7039 H   0  0  0  0  0  0  0  0  0  0  0  0
   10.0987   -0.1289   20.6514 H   0  0  0  0  0  0  0  0  0  0  0  0
    9.4310   -3.0739   26.8961 H   0  0  0  0  0  0  0  0  0  0  0  0
    8.9201   -3.0691   25.2215 H   0  0  0  0  0  0  0  0  0  0  0  0
    7.1781   -4.0807   26.6786 H   0  0  0  0  0  0  0  0  0  0  0  0
    7.0877   -2.6016   27.6529 H   0  0  0  0  0  0  0  0  0  0  0  0
    8.2480   -0.6442   25.4427 H   0  0  0  0  0  0  0  0  0  0  0  0
    8.8117   -0.6718   27.1335 H   0  0  0  0  0  0  0  0  0  0  0  0
    5.6018   -1.8301   26.1326 H   0  0  0  0  0  0  0  0  0  0  0  0
    9.1527   -2.1951   22.6226 H   0  0  0  0  0  0  0  0  0  0  0  0
  1  8  1  0  0  0  0
  1 22  3  0  0  0  0
  2  4  2  0  0  0  0
  2  5  1  0  0  0  0
  3  6  2  0  0  0  0
  3  8  1  0  0  0  0
  4  9  1  0  0  0  0
  5 10  2  0  0  0  0
  6 12  1  0  0  0  0
  7  8  2  0  0  0  0
  7 23  1  0  0  0  0
  9 11  2  0  0  0  0
  9 30  1  0  0  0  0
 10 11  1  0  0  0  0
 10 31  1  0  0  0  0
 11 32  1  0  0  0  0
 12 23  2  0  0  0  0
 12 25  1  0  0  0  0
 13 14  2  0  0  0  0
 14 15  1  0  0  0  0
 15 24  1  0  0  0  0
 15 27  2  0  0  0  0
 16 18  1  0  0  0  0
 16 24  1  0  0  0  0
 17 18  1  0  0  0  0
 17 24  1  0  0  0  0
 18 26  1  0  0  0  0
 19 20  1  0  0  0  0
 19 21  1  0  0  0  0
 20 25  1  0  0  0  0
 21 30  1  0  0  0  0
 26 32  1  0  0  0  0
 28 32  2  0  0  0  0
 29 32  2  0  0  0  0
  2 33  1  0  0  0  0
  3 34  1  0  0  0  0
  4 35  1  0  0  0  0
  5 36  1  0  0  0  0
  6 37  1  0  0  0  0
  7 38  1  0  0  0  0
 13 39  1  0  0  0  0
 13 40  1  0  0  0  0
 14 41  1  0  0  0  0
 16 42  1  0  0  0  0
 16 43  1  0  0  0  0
 17 44  1  0  0  0  0
 17 45  1  0  0  0  0
 18 46  1  0  0  0  0
 19 47  1  0  0  0  0
 19 48  1  0  0  0  0
 20 49  1  0  0  0  0
 20 50  1  0  0  0  0
 21 51  1  0  0  0  0
 21 52  1  0  0  0  0
 25 53  1  0  0  0  0
 26 54  1  0  0  0  0
M  END
> <creator>
Jan, Ghent university

> <fragments>
x0692

> <real_space>
FALSE

> <SCR>
FALSE

> <BB>
FALSE

> <link>
https://covid.postera.ai/covid/submissions/bf40f168-4eec-438e-a3f5-b4da0b83bc9c

> <covalent_frag>
TRUE

> <covalent_warhead>
TRUE

> <acrylamide>
TRUE

> <acrylamide_adduct>
FALSE

> <chloroacetamide>
FALSE

> <chloroacetamide_adduct>
FALSE

> <vinylsulfonamide>
FALSE

> <vinylsulfonamide_adduct>
FALSE

> <in_molport_or_mcule>
FALSE

> <in_emolecules>
FALSE

> <Hybrid2>
-2.647098

> <Mpro-x0692_dock>
-2.647098

> <Mpro-x0755_dock>
-0.860544

> <Mpro-x0305_dock>
0.911178

> <site>
active-covalent

> <covalent_distance_min>
3.70641

> <covalent_distance_mean>
4.47715

> <covalent_distance_stderr>
0.0435328

$$$$
MAK-UNK-8fd-13
  -OEChem-04062011563D

 74 77  0     1  0  0  0  0  0999 V2000
    7.0148    0.2472   20.9100 C   0  0  0  0  0  0  0  0  0  0  0  0
    9.1214    0.6719   24.6237 C   0  0  0  0  0  0  0  0  0  0  0  0
    8.0637    0.7445   25.5301 C   0  0  0  0  0  0  0  0  0  0  0  0
    7.8396   -0.4875   21.7545 C   0  0  0  0  0  0  0  0  0  0  0  0
    9.0383   -1.0569   26.8116 C   0  0  0  0  0  0  0  0  0  0  0  0
   12.4315    0.3373   23.8986 C   0  0  0  0  0  0  0  0  0  0  0  0
    7.3042    0.2420   19.5550 C   0  0  0  0  0  0  0  0  0  0  0  0
    9.1178   -1.1358   19.8566 C   0  0  0  0  0  0  0  0  0  0  0  0
   12.3960   -0.9751   22.0694 C   0  0  0  0  0  0  0  0  0  0  0  0
   10.1375   -0.2652   24.8112 C   0  0  0  0  0  0  0  0  0  0  0  0
    8.0221   -0.1199   26.6241 C   0  0  0  0  0  0  0  0  0  0  0  0
   13.1692   -0.0672   22.7588 C   0  0  0  0  0  0  0  0  0  0  0  0
   10.0960   -1.1296   25.9052 C   0  0  0  0  0  0  0  0  0  0  0  0
    8.9135   -1.1949   21.2257 C   0  0  0  0  0  0  0  0  0  0  0  0
   11.2301   -0.3358   23.8712 C   0  0  0  0  0  0  0  0  0  0  0  0
    5.8197   -2.2239   26.9857 C   0  0  0  0  0  0  0  0  0  0  0  0
    4.8880   -6.3313   24.1011 C   0  0  0  0  0  0  0  0  0  0  0  0
    4.4993   -2.9079   24.9907 C   0  0  0  0  0  0  0  0  0  0  0  0
    4.4870   -4.3387   27.0921 C   0  0  0  0  0  0  0  0  0  0  0  0
    5.4353   -3.9315   24.3504 C   0  0  0  0  0  0  0  0  0  0  0  0
    5.4093   -5.3284   26.3789 C   0  0  0  0  0  0  0  0  0  0  0  0
    4.5736   -2.9197   26.5209 C   0  0  0  0  0  0  0  0  0  0  0  0
    7.2878   -0.4399   29.0221 C   0  0  0  0  0  0  0  0  0  0  0  0
    4.5106   -0.0965   26.9064 C   0  0  0  0  0  0  0  0  0  0  0  0
   13.7622    2.3107   20.9615 C   0  0  0  0  0  0  0  0  0  0  0  0
   14.5171    0.3974   22.3787 C   0  0  0  0  0  0  0  0  0  0  0  0
    4.7655   -6.0371   22.6272 C   0  0  0  0  0  0  0  0  0  0  0  0
    6.8739   -0.0414   27.6070 C   0  0  2  0  0  0  0  0  0  0  0  0
    8.3382   -0.4330   19.0045 N   0  0  0  0  0  0  0  0  0  0  0  0
   11.2196   -1.1309   22.7550 N   0  0  0  0  0  0  0  0  0  0  0  0
    5.2238   -5.2589   24.9263 N   0  0  0  0  0  0  0  0  0  0  0  0
    5.7371   -0.8419   27.1592 N   0  0  0  0  0  0  0  0  0  0  0  0
   14.5730    1.0711   21.0448 N   0  3  0  0  0  0  0  0  0  0  0  0
    6.8395   -2.8880   27.1896 O   0  0  0  0  0  0  0  0  0  0  0  0
    4.6928   -7.4807   24.5045 O   0  0  0  0  0  0  0  0  0  0  0  0
    9.2598   -2.4827   23.4939 O   0  0  0  0  0  0  0  0  0  0  0  0
   10.5575   -3.1938   21.4243 O   0  0  0  0  0  0  0  0  0  0  0  0
   11.0651   -2.0361   26.0992 F   0  0  0  0  0  0  0  0  0  0  0  0
    9.9877   -2.1435   22.2715 S   0  0  0  0  0  0  0  0  0  0  0  0
    4.3743   -7.5619   21.8400 Cl  0  0  0  0  0  0  0  0  0  0  0  0
    6.1720    0.8063   21.3000 H   0  0  0  0  0  0  0  0  0  0  0  0
    9.1398    1.3531   23.7764 H   0  0  0  0  0  0  0  0  0  0  0  0
    7.2766    1.4778   25.3763 H   0  0  0  0  0  0  0  0  0  0  0  0
    7.6373   -0.5021   22.8219 H   0  0  0  0  0  0  0  0  0  0  0  0
    9.0142   -1.7346   27.6607 H   0  0  0  0  0  0  0  0  0  0  0  0
   12.7449    1.0437   24.6561 H   0  0  0  0  0  0  0  0  0  0  0  0
    6.6913    0.7991   18.8542 H   0  0  0  0  0  0  0  0  0  0  0  0
    9.9392   -1.6669   19.3857 H   0  0  0  0  0  0  0  0  0  0  0  0
   12.5860   -1.5193   21.1534 H   0  0  0  0  0  0  0  0  0  0  0  0
    4.7382   -1.9099   24.6036 H   0  0  0  0  0  0  0  0  0  0  0  0
    3.4695   -3.1300   24.6826 H   0  0  0  0  0  0  0  0  0  0  0  0
    3.4530   -4.6948   26.9986 H   0  0  0  0  0  0  0  0  0  0  0  0
    4.7249   -4.3331   28.1627 H   0  0  0  0  0  0  0  0  0  0  0  0
    5.2769   -3.9461   23.2674 H   0  0  0  0  0  0  0  0  0  0  0  0
    6.4839   -3.6611   24.5206 H   0  0  0  0  0  0  0  0  0  0  0  0
    6.4607   -5.0957   26.5826 H   0  0  0  0  0  0  0  0  0  0  0  0
    5.2274   -6.3321   26.7674 H   0  0  0  0  0  0  0  0  0  0  0  0
    3.7392   -2.3274   26.9167 H   0  0  0  0  0  0  0  0  0  0  0  0
    7.6679   -1.4671   29.0475 H   0  0  0  0  0  0  0  0  0  0  0  0
    8.0776    0.2234   29.3923 H   0  0  0  0  0  0  0  0  0  0  0  0
    6.4527   -0.3712   29.7282 H   0  0  0  0  0  0  0  0  0  0  0  0
    3.9127   -0.0497   27.8284 H   0  0  0  0  0  0  0  0  0  0  0  0
    4.7622    0.9236   26.5805 H   0  0  0  0  0  0  0  0  0  0  0  0
    3.9312   -0.6005   26.1189 H   0  0  0  0  0  0  0  0  0  0  0  0
   14.1183    2.9951   21.7336 H   0  0  0  0  0  0  0  0  0  0  0  0
   13.9021    2.7352   19.9655 H   0  0  0  0  0  0  0  0  0  0  0  0
   12.7183    2.0389   21.1292 H   0  0  0  0  0  0  0  0  0  0  0  0
   14.9281    1.1289   23.0970 H   0  0  0  0  0  0  0  0  0  0  0  0
   15.2467   -0.4300   22.3231 H   0  0  0  0  0  0  0  0  0  0  0  0
    5.7157   -5.6633   22.2633 H   0  0  0  0  0  0  0  0  0  0  0  0
    3.9632   -5.3238   22.4769 H   0  0  0  0  0  0  0  0  0  0  0  0
    6.5043    0.9907   27.6463 H   0  0  0  0  0  0  0  0  0  0  0  0
   14.2592    0.4069   20.3278 H   0  0  0  0  0  0  0  0  0  0  0  0
   15.5526    1.2865   20.8261 H   0  0  0  0  0  0  0  0  0  0  0  0
  1  4  2  0  0  0  0
  1  7  1  0  0  0  0
  2  3  2  0  0  0  0
  2 10  1  0  0  0  0
  3 11  1  0  0  0  0
  4 14  1  0  0  0  0
  5 11  2  0  0  0  0
  5 13  1  0  0  0  0
  6 12  1  0  0  0  0
  6 15  2  0  0  0  0
  7 29  2  0  0  0  0
  8 14  2  0  0  0  0
  8 29  1  0  0  0  0
  9 12  2  0  0  0  0
  9 30  1  0  0  0  0
 10 13  2  0  0  0  0
 10 15  1  0  0  0  0
 11 28  1  0  0  0  0
 12 26  1  0  0  0  0
 13 38  1  0  0  0  0
 14 39  1  0  0  0  0
 15 30  1  0  0  0  0
 16 22  1  0  0  0  0
 16 32  1  0  0  0  0
 16 34  2  0  0  0  0
 17 27  1  0  0  0  0
 17 31  1  0  0  0  0
 17 35  2  0  0  0  0
 18 20  1  0  0  0  0
 18 22  1  0  0  0  0
 19 21  1  0  0  0  0
 19 22  1  0  0  0  0
 20 31  1  0  0  0  0
 21 31  1  0  0  0  0
 23 28  1  0  0  0  0
 24 32  1  0  0  0  0
 25 33  1  0  0  0  0
 26 33  1  0  0  0  0
 27 40  1  0  0  0  0
 28 32  1  0  0  0  0
 30 39  1  0  0  0  0
 36 39  2  0  0  0  0
 37 39  2  0  0  0  0
  1 41  1  0  0  0  0
  2 42  1  0  0  0  0
  3 43  1  0  0  0  0
  4 44  1  0  0  0  0
  5 45  1  0  0  0  0
  6 46  1  0  0  0  0
  7 47  1  0  0  0  0
  8 48  1  0  0  0  0
  9 49  1  0  0  0  0
 18 50  1  0  0  0  0
 18 51  1  0  0  0  0
 19 52  1  0  0  0  0
 19 53  1  0  0  0  0
 20 54  1  0  0  0  0
 20 55  1  0  0  0  0
 21 56  1  0  0  0  0
 21 57  1  0  0  0  0
 22 58  1  0  0  0  0
 23 59  1  0  0  0  0
 23 60  1  0  0  0  0
 23 61  1  0  0  0  0
 24 62  1  0  0  0  0
 24 63  1  0  0  0  0
 24 64  1  0  0  0  0
 25 65  1  0  0  0  0
 25 66  1  0  0  0  0
 25 67  1  0  0  0  0
 26 68  1  0  0  0  0
 26 69  1  0  0  0  0
 27 70  1  0  0  0  0
 27 71  1  0  0  0  0
 28 72  1  0  0  0  0
 33 73  1  0  0  0  0
 33 74  1  0  0  0  0
M  CHG  1  33   1
M  END
> <creator>
Maksym Voznyy

> <fragments>
x0305

> <real_space>
FALSE

> <SCR>
FALSE

> <BB>
FALSE

> <link>
https://covid.postera.ai/covid/submissions/8fdbca50-c94c-4218-91b0-3b0489774fa8

> <covalent_frag>
FALSE

> <covalent_warhead>
TRUE

> <acrylamide>
FALSE

> <acrylamide_adduct>
FALSE

> <chloroacetamide>
TRUE

> <chloroacetamide_adduct>
FALSE

> <vinylsulfonamide>
FALSE

> <vinylsulfonamide_adduct>
FALSE

> <in_molport_or_mcule>
FALSE

> <in_emolecules>
FALSE

> <Hybrid2>
-2.646001

> <Mpro-x0305_dock>
-2.646001

> <site>
active-noncovalent

> <covalent_distance_min>
4.7146144

> <covalent_distance_mean>
6.177862

> <covalent_distance_stderr>
0.08094225

$$$$
STU-CHA-6ca-1
  -OEChem-04062011563D

 55 57  0     0  0  0  0  0  0999 V2000
    4.0957    0.2189   23.3313 C   0  0  0  0  0  0  0  0  0  0  0  0
    3.7925    0.7394   22.0732 C   0  0  0  0  0  0  0  0  0  0  0  0
    5.9483    1.8277   22.0038 C   0  0  0  0  0  0  0  0  0  0  0  0
    5.3253    0.5030   23.9257 C   0  0  0  0  0  0  0  0  0  0  0  0
    6.2516    1.3073   23.2619 C   0  0  0  0  0  0  0  0  0  0  0  0
    4.7187    1.5437   21.4094 C   0  0  0  0  0  0  0  0  0  0  0  0
   12.5550    0.5739   23.4952 C   0  0  0  0  0  0  0  0  0  0  0  0
    7.3979   -1.4970   26.2606 C   0  0  0  0  0  0  0  0  0  0  0  0
   10.6091    1.4043   24.7758 C   0  0  0  0  0  0  0  0  0  0  0  0
   10.2292    0.6118   22.4690 C   0  0  0  0  0  0  0  0  0  0  0  0
    9.1736   -3.0035   27.0991 C   0  0  0  0  0  0  0  0  0  0  0  0
    8.4115   -3.3246   24.7763 C   0  0  0  0  0  0  0  0  0  0  0  0
    9.4204    0.5935   25.2705 C   0  0  0  0  0  0  0  0  0  0  0  0
    9.0325   -0.2084   22.9321 C   0  0  0  0  0  0  0  0  0  0  0  0
    9.2082   -4.5168   27.2435 C   0  0  0  0  0  0  0  0  0  0  0  0
    8.5052   -4.8268   25.0217 C   0  0  0  0  0  0  0  0  0  0  0  0
    5.6277   -0.0645   25.2736 C   0  0  0  0  0  0  0  0  0  0  0  0
    7.5797    1.6277   23.8820 C   0  0  0  0  0  0  0  0  0  0  0  0
   13.1872    0.6484   22.1282 C   0  0  0  0  0  0  0  0  0  0  0  0
   11.1835    0.8188   23.5640 N   0  0  0  0  0  0  0  0  0  0  0  0
    8.2437   -2.5977   26.0428 N   0  0  0  0  0  0  0  0  0  0  0  0
    6.5519   -1.1743   25.2061 N   0  0  0  0  0  0  0  0  0  0  0  0
    8.4088    0.4047   24.1641 N   0  3  0  0  0  0  0  0  0  0  0  0
   13.2599    0.3035   24.4709 O   0  0  0  0  0  0  0  0  0  0  0  0
    7.4017   -0.8485   27.3122 O   0  0  0  0  0  0  0  0  0  0  0  0
    9.5169   -5.1204   25.9858 O   0  0  0  0  0  0  0  0  0  0  0  0
    4.3435    2.1869   19.8583 Cl  0  0  0  0  0  0  0  0  0  0  0  0
   13.1261   -0.9770   21.4557 Cl  0  0  0  0  0  0  0  0  0  0  0  0
    3.3670   -0.4064   23.8403 H   0  0  0  0  0  0  0  0  0  0  0  0
    2.8297    0.5107   21.6233 H   0  0  0  0  0  0  0  0  0  0  0  0
    6.6733    2.4558   21.4907 H   0  0  0  0  0  0  0  0  0  0  0  0
   10.2967    2.4387   24.5963 H   0  0  0  0  0  0  0  0  0  0  0  0
   11.4018    1.4338   25.5344 H   0  0  0  0  0  0  0  0  0  0  0  0
   10.7652    0.0915   21.6649 H   0  0  0  0  0  0  0  0  0  0  0  0
    9.8746    1.5577   22.0538 H   0  0  0  0  0  0  0  0  0  0  0  0
    8.9189   -2.5358   28.0547 H   0  0  0  0  0  0  0  0  0  0  0  0
   10.1603   -2.6328   26.7964 H   0  0  0  0  0  0  0  0  0  0  0  0
    9.3408   -2.9538   24.3290 H   0  0  0  0  0  0  0  0  0  0  0  0
    7.5930   -3.1360   24.0802 H   0  0  0  0  0  0  0  0  0  0  0  0
    9.7436   -0.4091   25.5916 H   0  0  0  0  0  0  0  0  0  0  0  0
    8.9088    1.0874   26.1132 H   0  0  0  0  0  0  0  0  0  0  0  0
    8.2525   -0.2695   22.1552 H   0  0  0  0  0  0  0  0  0  0  0  0
    9.3458   -1.2300   23.1994 H   0  0  0  0  0  0  0  0  0  0  0  0
    9.9917   -4.8056   27.9511 H   0  0  0  0  0  0  0  0  0  0  0  0
    8.2569   -4.9095   27.6217 H   0  0  0  0  0  0  0  0  0  0  0  0
    7.5456   -5.2374   25.3580 H   0  0  0  0  0  0  0  0  0  0  0  0
    8.7749   -5.3377   24.0918 H   0  0  0  0  0  0  0  0  0  0  0  0
    6.0702    0.6958   25.9310 H   0  0  0  0  0  0  0  0  0  0  0  0
    4.7172   -0.4246   25.7704 H   0  0  0  0  0  0  0  0  0  0  0  0
    8.1783    2.2692   23.2265 H   0  0  0  0  0  0  0  0  0  0  0  0
    7.4547    2.1500   24.8366 H   0  0  0  0  0  0  0  0  0  0  0  0
   14.2174    0.9687   22.2344 H   0  0  0  0  0  0  0  0  0  0  0  0
   12.6113    1.3285   21.5113 H   0  0  0  0  0  0  0  0  0  0  0  0
    6.5810   -1.7321   24.3617 H   0  0  0  0  0  0  0  0  0  0  0  0
    7.7221   -0.3186   24.5253 H   0  0  0  0  0  0  0  0  0  0  0  0
  1  2  2  0  0  0  0
  1  4  1  0  0  0  0
  2  6  1  0  0  0  0
  3  5  1  0  0  0  0
  3  6  2  0  0  0  0
  4  5  2  0  0  0  0
  4 17  1  0  0  0  0
  5 18  1  0  0  0  0
  6 27  1  0  0  0  0
  7 19  1  0  0  0  0
  7 20  1  0  0  0  0
  7 24  2  0  0  0  0
  8 21  1  0  0  0  0
  8 22  1  0  0  0  0
  8 25  2  0  0  0  0
  9 13  1  0  0  0  0
  9 20  1  0  0  0  0
 10 14  1  0  0  0  0
 10 20  1  0  0  0  0
 11 15  1  0  0  0  0
 11 21  1  0  0  0  0
 12 16  1  0  0  0  0
 12 21  1  0  0  0  0
 13 23  1  0  0  0  0
 14 23  1  0  0  0  0
 15 26  1  0  0  0  0
 16 26  1  0  0  0  0
 17 22  1  0  0  0  0
 18 23  1  0  0  0  0
 19 28  1  0  0  0  0
  1 29  1  0  0  0  0
  2 30  1  0  0  0  0
  3 31  1  0  0  0  0
  9 32  1  0  0  0  0
  9 33  1  0  0  0  0
 10 34  1  0  0  0  0
 10 35  1  0  0  0  0
 11 36  1  0  0  0  0
 11 37  1  0  0  0  0
 12 38  1  0  0  0  0
 12 39  1  0  0  0  0
 13 40  1  0  0  0  0
 13 41  1  0  0  0  0
 14 42  1  0  0  0  0
 14 43  1  0  0  0  0
 15 44  1  0  0  0  0
 15 45  1  0  0  0  0
 16 46  1  0  0  0  0
 16 47  1  0  0  0  0
 17 48  1  0  0  0  0
 17 49  1  0  0  0  0
 18 50  1  0  0  0  0
 18 51  1  0  0  0  0
 19 52  1  0  0  0  0
 19 53  1  0  0  0  0
 22 54  1  0  0  0  0
 23 55  1  0  0  0  0
M  CHG  1  23   1
M  END
> <creator>
Stuart Ward, Charles River Laboratories

> <fragments>
x1249

> <real_space>
FALSE

> <SCR>
FALSE

> <BB>
FALSE

> <link>
https://covid.postera.ai/covid/submissions/6cae54d3-723e-43c0-9a9b-76a5bb6a9e41

> <covalent_frag>
TRUE

> <covalent_warhead>
TRUE

> <acrylamide>
FALSE

> <acrylamide_adduct>
FALSE

> <chloroacetamide>
TRUE

> <chloroacetamide_adduct>
FALSE

> <vinylsulfonamide>
FALSE

> <vinylsulfonamide_adduct>
FALSE

> <in_molport_or_mcule>
FALSE

> <in_emolecules>
FALSE

> <Hybrid2>
-2.579540

> <Mpro-x1249_dock>
-2.57954

> <Mpro-x0770_dock>
1.301093

> <site>
active-noncovalent

> <covalent_distance_min>
6.2927294

> <covalent_distance_mean>
6.7305427

> <covalent_distance_stderr>
0.037287578

$$$$
MAK-UNK-8fd-21
  -OEChem-04062011563D

 74 77  0     0  0  0  0  0  0999 V2000
   14.3347   -1.8790   23.4574 C   0  0  0  0  0  0  0  0  0  0  0  0
   14.1249   -2.2921   22.1418 C   0  0  0  0  0  0  0  0  0  0  0  0
   13.7779   -0.6828   23.9100 C   0  0  0  0  0  0  0  0  0  0  0  0
   13.3584   -1.5090   21.2787 C   0  0  0  0  0  0  0  0  0  0  0  0
    7.0381    1.0408   25.6092 C   0  0  0  0  0  0  0  0  0  0  0  0
   12.6446    2.6185   23.0508 C   0  0  0  0  0  0  0  0  0  0  0  0
    6.9088    1.3128   26.9616 C   0  0  0  0  0  0  0  0  0  0  0  0
    9.1259    0.8583   27.3564 C   0  0  0  0  0  0  0  0  0  0  0  0
   11.1949    2.7231   24.7705 C   0  0  0  0  0  0  0  0  0  0  0  0
   13.0114    0.1003   23.0470 C   0  0  0  0  0  0  0  0  0  0  0  0
   11.8589    3.4931   23.8412 C   0  0  0  0  0  0  0  0  0  0  0  0
    8.2900    0.6603   25.1387 C   0  0  0  0  0  0  0  0  0  0  0  0
   12.8016   -0.3128   21.7313 C   0  0  0  0  0  0  0  0  0  0  0  0
    9.3591    0.5648   26.0226 C   0  0  0  0  0  0  0  0  0  0  0  0
   12.4366    1.3405   23.5210 C   0  0  0  0  0  0  0  0  0  0  0  0
    8.8812   -0.8970   23.2849 C   0  0  0  0  0  0  0  0  0  0  0  0
    6.2369   -5.2521   22.9684 C   0  0  0  0  0  0  0  0  0  0  0  0
    7.1399   -2.1781   24.5168 C   0  0  0  0  0  0  0  0  0  0  0  0
    9.2304   -3.3455   23.6623 C   0  0  0  0  0  0  0  0  0  0  0  0
    6.3652   -2.8132   23.3634 C   0  0  0  0  0  0  0  0  0  0  0  0
    8.3857   -3.9600   22.5453 C   0  0  0  0  0  0  0  0  0  0  0  0
    8.6367   -2.0470   24.2179 C   0  0  0  0  0  0  0  0  0  0  0  0
    6.9395    0.9111   21.8949 C   0  0  0  0  0  0  0  0  0  0  0  0
    9.2749    1.8517   21.9794 C   0  0  0  0  0  0  0  0  0  0  0  0
   10.4271    6.8975   22.8708 C   0  0  0  0  0  0  0  0  0  0  0  0
   11.7677    4.9588   23.6971 C   0  0  0  0  0  0  0  0  0  0  0  0
    6.9503   -6.5084   22.5364 C   0  0  0  0  0  0  0  0  0  0  0  0
    8.0570    1.4298   22.7882 C   0  0  0  0  0  0  0  0  0  0  0  0
    7.9240    1.2311   27.8506 N   0  0  0  0  0  0  0  0  0  0  0  0
   11.5534    1.4162   24.5661 N   0  0  0  0  0  0  0  0  0  0  0  0
    6.9831   -4.0744   22.9561 N   0  0  0  0  0  0  0  0  0  0  0  0
    8.4533    0.3701   23.7284 N   0  0  0  0  0  0  0  0  0  0  0  0
   10.4951    5.4287   23.0680 N   0  3  0  0  0  0  0  0  0  0  0  0
    9.4614   -1.1307   22.2216 O   0  0  0  0  0  0  0  0  0  0  0  0
    5.0527   -5.3179   23.3081 O   0  0  0  0  0  0  0  0  0  0  0  0
   11.8683    0.0670   26.6385 O   0  0  0  0  0  0  0  0  0  0  0  0
   10.8292   -1.0210   24.5867 O   0  0  0  0  0  0  0  0  0  0  0  0
   12.0670    0.4287   20.8892 F   0  0  0  0  0  0  0  0  0  0  0  0
   10.9587    0.0936   25.5067 S   0  0  0  0  0  0  0  0  0  0  0  0
    6.6878   -6.6660   20.8032 Cl  0  0  0  0  0  0  0  0  0  0  0  0
   14.9313   -2.4891   24.1294 H   0  0  0  0  0  0  0  0  0  0  0  0
   14.5580   -3.2237   21.7895 H   0  0  0  0  0  0  0  0  0  0  0  0
   13.9508   -0.3747   24.9385 H   0  0  0  0  0  0  0  0  0  0  0  0
   13.1946   -1.8308   20.2545 H   0  0  0  0  0  0  0  0  0  0  0  0
    6.1819    1.1261   24.9487 H   0  0  0  0  0  0  0  0  0  0  0  0
   13.2916    2.8935   22.2283 H   0  0  0  0  0  0  0  0  0  0  0  0
    5.9533    1.6137   27.3789 H   0  0  0  0  0  0  0  0  0  0  0  0
    9.9195    0.8019   28.0951 H   0  0  0  0  0  0  0  0  0  0  0  0
   10.5011    2.9968   25.5547 H   0  0  0  0  0  0  0  0  0  0  0  0
    6.7074   -1.1961   24.7435 H   0  0  0  0  0  0  0  0  0  0  0  0
    7.0088   -2.7976   25.4134 H   0  0  0  0  0  0  0  0  0  0  0  0
    9.3132   -4.0742   24.4790 H   0  0  0  0  0  0  0  0  0  0  0  0
   10.2467   -3.1702   23.2893 H   0  0  0  0  0  0  0  0  0  0  0  0
    5.3235   -2.9674   23.6624 H   0  0  0  0  0  0  0  0  0  0  0  0
    6.3566   -2.1524   22.4889 H   0  0  0  0  0  0  0  0  0  0  0  0
    8.4100   -3.3303   21.6486 H   0  0  0  0  0  0  0  0  0  0  0  0
    8.8102   -4.9255   22.2642 H   0  0  0  0  0  0  0  0  0  0  0  0
    9.1584   -1.7890   25.1480 H   0  0  0  0  0  0  0  0  0  0  0  0
    7.2802    0.0573   21.3003 H   0  0  0  0  0  0  0  0  0  0  0  0
    6.0719    0.5927   22.4837 H   0  0  0  0  0  0  0  0  0  0  0  0
    6.6001    1.6912   21.2047 H   0  0  0  0  0  0  0  0  0  0  0  0
    9.6560    1.0136   21.3857 H   0  0  0  0  0  0  0  0  0  0  0  0
   10.0801    2.1949   22.6372 H   0  0  0  0  0  0  0  0  0  0  0  0
    9.0325    2.6637   21.2846 H   0  0  0  0  0  0  0  0  0  0  0  0
   11.2744    7.1904   22.2481 H   0  0  0  0  0  0  0  0  0  0  0  0
    9.4801    7.1249   22.3776 H   0  0  0  0  0  0  0  0  0  0  0  0
   10.4809    7.3694   23.8538 H   0  0  0  0  0  0  0  0  0  0  0  0
   11.8283    5.4816   24.6682 H   0  0  0  0  0  0  0  0  0  0  0  0
   12.5779    5.3706   23.0693 H   0  0  0  0  0  0  0  0  0  0  0  0
    6.5173   -7.3550   23.0569 H   0  0  0  0  0  0  0  0  0  0  0  0
    8.0085   -6.4008   22.7446 H   0  0  0  0  0  0  0  0  0  0  0  0
    7.6941    2.2823   23.3728 H   0  0  0  0  0  0  0  0  0  0  0  0
    9.7079    5.1239   23.6520 H   0  0  0  0  0  0  0  0  0  0  0  0
   10.3809    4.9555   22.1642 H   0  0  0  0  0  0  0  0  0  0  0  0
  1  2  1  0  0  0  0
  1  3  2  0  0  0  0
  2  4  2  0  0  0  0
  3 10  1  0  0  0  0
  4 13  1  0  0  0  0
  5  7  2  0  0  0  0
  5 12  1  0  0  0  0
  6 11  1  0  0  0  0
  6 15  2  0  0  0  0
  7 29  1  0  0  0  0
  8 14  1  0  0  0  0
  8 29  2  0  0  0  0
  9 11  2  0  0  0  0
  9 30  1  0  0  0  0
 10 13  2  0  0  0  0
 10 15  1  0  0  0  0
 11 26  1  0  0  0  0
 12 14  2  0  0  0  0
 12 32  1  0  0  0  0
 13 38  1  0  0  0  0
 14 39  1  0  0  0  0
 15 30  1  0  0  0  0
 16 22  1  0  0  0  0
 16 32  1  0  0  0  0
 16 34  2  0  0  0  0
 17 27  1  0  0  0  0
 17 31  1  0  0  0  0
 17 35  2  0  0  0  0
 18 20  1  0  0  0  0
 18 22  1  0  0  0  0
 19 21  1  0  0  0  0
 19 22  1  0  0  0  0
 20 31  1  0  0  0  0
 21 31  1  0  0  0  0
 23 28  1  0  0  0  0
 24 28  1  0  0  0  0
 25 33  1  0  0  0  0
 26 33  1  0  0  0  0
 27 40  1  0  0  0  0
 28 32  1  0  0  0  0
 30 39  1  0  0  0  0
 36 39  2  0  0  0  0
 37 39  2  0  0  0  0
  1 41  1  0  0  0  0
  2 42  1  0  0  0  0
  3 43  1  0  0  0  0
  4 44  1  0  0  0  0
  5 45  1  0  0  0  0
  6 46  1  0  0  0  0
  7 47  1  0  0  0  0
  8 48  1  0  0  0  0
  9 49  1  0  0  0  0
 18 50  1  0  0  0  0
 18 51  1  0  0  0  0
 19 52  1  0  0  0  0
 19 53  1  0  0  0  0
 20 54  1  0  0  0  0
 20 55  1  0  0  0  0
 21 56  1  0  0  0  0
 21 57  1  0  0  0  0
 22 58  1  0  0  0  0
 23 59  1  0  0  0  0
 23 60  1  0  0  0  0
 23 61  1  0  0  0  0
 24 62  1  0  0  0  0
 24 63  1  0  0  0  0
 24 64  1  0  0  0  0
 25 65  1  0  0  0  0
 25 66  1  0  0  0  0
 25 67  1  0  0  0  0
 26 68  1  0  0  0  0
 26 69  1  0  0  0  0
 27 70  1  0  0  0  0
 27 71  1  0  0  0  0
 28 72  1  0  0  0  0
 33 73  1  0  0  0  0
 33 74  1  0  0  0  0
M  CHG  1  33   1
M  END
> <creator>
Maksym Voznyy

> <fragments>
x0305

> <real_space>
FALSE

> <SCR>
FALSE

> <BB>
FALSE

> <link>
https://covid.postera.ai/covid/submissions/8fdbca50-c94c-4218-91b0-3b0489774fa8

> <covalent_frag>
FALSE

> <covalent_warhead>
TRUE

> <acrylamide>
FALSE

> <acrylamide_adduct>
FALSE

> <chloroacetamide>
TRUE

> <chloroacetamide_adduct>
FALSE

> <vinylsulfonamide>
FALSE

> <vinylsulfonamide_adduct>
FALSE

> <in_molport_or_mcule>
FALSE

> <in_emolecules>
FALSE

> <Hybrid2>
-2.502165

> <Mpro-x0305_dock>
-2.502165

> <site>
active-noncovalent

> <covalent_distance_min>
3.9197245

> <covalent_distance_mean>
4.466458

> <covalent_distance_stderr>
0.025024086

$$$$
WAR-XCH-72a-6
  -OEChem-04062011563D

 56 58  0     1  0  0  0  0  0999 V2000
    8.1804    0.1148   20.9806 C   0  0  0  0  0  0  0  0  0  0  0  0
    5.7374   -2.3274   19.6106 C   0  0  0  0  0  0  0  0  0  0  0  0
    6.2941   -3.5378   20.0236 C   0  0  0  0  0  0  0  0  0  0  0  0
    6.3672   -1.1247   19.9309 C   0  0  0  0  0  0  0  0  0  0  0  0
    7.4805   -3.5455   20.7571 C   0  0  0  0  0  0  0  0  0  0  0  0
    7.5536   -1.1324   20.6644 C   0  0  0  0  0  0  0  0  0  0  0  0
    8.1103   -2.3428   21.0775 C   0  0  0  0  0  0  0  0  0  0  0  0
   13.1948    2.0722   23.8083 C   0  0  0  0  0  0  0  0  0  0  0  0
    7.0334   -2.3380   23.8500 C   0  0  0  0  0  0  0  0  0  0  0  0
    9.0140   -3.8817   24.1782 C   0  0  0  0  0  0  0  0  0  0  0  0
    6.1990   -3.2083   24.7924 C   0  0  0  0  0  0  0  0  0  0  0  0
    8.1810   -4.7501   25.1230 C   0  0  0  0  0  0  0  0  0  0  0  0
   10.4469   -0.0632   24.6461 C   0  0  0  0  0  0  0  0  0  0  0  0
   11.5185   -0.8730   22.5084 C   0  0  0  0  0  0  0  0  0  0  0  0
   11.8054    0.4755   25.0905 C   0  0  0  0  0  0  0  0  0  0  0  0
   12.8552   -0.3149   22.9963 C   0  0  0  0  0  0  0  0  0  0  0  0
    8.5194   -2.4372   24.1857 C   0  0  0  0  0  0  0  0  0  0  0  0
   10.6246   -1.2438   23.6917 C   0  0  0  0  0  0  0  0  0  0  0  0
    6.6840   -4.6585   24.8198 C   0  0  0  0  0  0  0  0  0  0  0  0
    9.3848   -2.3902   21.8677 C   0  0  0  0  0  0  0  0  0  0  0  0
   14.5122    2.1709   23.0812 C   0  0  0  0  0  0  0  0  0  0  0  0
    8.6888    1.1260   21.2368 N   0  0  0  0  0  0  0  0  0  0  0  0
   12.6438    0.7973   23.9327 N   0  0  0  0  0  0  0  0  0  0  0  0
    9.2923   -1.6591   23.1813 N   0  3  1  0  0  0  0  0  0  0  0  0
   12.6719    3.0986   24.2499 O   0  0  0  0  0  0  0  0  0  0  0  0
    6.4112   -5.2551   23.5533 O   0  0  0  0  0  0  0  0  0  0  0  0
   15.6684    1.2145   24.0013 Cl  0  0  0  0  0  0  0  0  0  0  0  0
    4.8136   -2.3216   19.0395 H   0  0  0  0  0  0  0  0  0  0  0  0
    5.8037   -4.4742   19.7741 H   0  0  0  0  0  0  0  0  0  0  0  0
    5.9198   -0.1899   19.6011 H   0  0  0  0  0  0  0  0  0  0  0  0
    7.9058   -4.4942   21.0741 H   0  0  0  0  0  0  0  0  0  0  0  0
    6.8478   -2.6255   22.8178 H   0  0  0  0  0  0  0  0  0  0  0  0
    6.7175   -1.3016   23.9621 H   0  0  0  0  0  0  0  0  0  0  0  0
   10.0504   -3.8988   24.5123 H   0  0  0  0  0  0  0  0  0  0  0  0
    8.9880   -4.2965   23.1737 H   0  0  0  0  0  0  0  0  0  0  0  0
    6.2311   -2.7913   25.8084 H   0  0  0  0  0  0  0  0  0  0  0  0
    5.1391   -3.1753   24.5036 H   0  0  0  0  0  0  0  0  0  0  0  0
    8.5081   -5.7975   25.0678 H   0  0  0  0  0  0  0  0  0  0  0  0
    8.3652   -4.4470   26.1625 H   0  0  0  0  0  0  0  0  0  0  0  0
    9.8965   -0.3992   25.5240 H   0  0  0  0  0  0  0  0  0  0  0  0
    9.8664    0.7278   24.1780 H   0  0  0  0  0  0  0  0  0  0  0  0
   11.0251   -0.1488   21.8647 H   0  0  0  0  0  0  0  0  0  0  0  0
   11.7062   -1.7664   21.9145 H   0  0  0  0  0  0  0  0  0  0  0  0
   11.6931    1.3920   25.6797 H   0  0  0  0  0  0  0  0  0  0  0  0
   12.2973   -0.2609   25.7331 H   0  0  0  0  0  0  0  0  0  0  0  0
   13.4356   -1.1216   23.4469 H   0  0  0  0  0  0  0  0  0  0  0  0
   13.4474    0.0736   22.1604 H   0  0  0  0  0  0  0  0  0  0  0  0
    8.7226   -1.9710   25.1521 H   0  0  0  0  0  0  0  0  0  0  0  0
   11.0260   -2.1100   24.2205 H   0  0  0  0  0  0  0  0  0  0  0  0
    6.1183   -5.2140   25.5777 H   0  0  0  0  0  0  0  0  0  0  0  0
    9.6676   -3.4223   22.1014 H   0  0  0  0  0  0  0  0  0  0  0  0
   10.2118   -1.9352   21.3120 H   0  0  0  0  0  0  0  0  0  0  0  0
   14.8236    3.2091   23.0572 H   0  0  0  0  0  0  0  0  0  0  0  0
   14.3960    1.7580   22.0857 H   0  0  0  0  0  0  0  0  0  0  0  0
    8.7501   -0.8001   22.9986 H   0  0  0  0  0  0  0  0  0  0  0  0
    5.4506   -5.2080   23.4254 H   0  0  0  0  0  0  0  0  0  0  0  0
  1  6  1  0  0  0  0
  1 22  3  0  0  0  0
  2  3  1  0  0  0  0
  2  4  2  0  0  0  0
  3  5  2  0  0  0  0
  4  6  1  0  0  0  0
  5  7  1  0  0  0  0
  6  7  2  0  0  0  0
  7 20  1  0  0  0  0
  8 21  1  0  0  0  0
  8 23  1  0  0  0  0
  8 25  2  0  0  0  0
  9 11  1  0  0  0  0
  9 17  1  0  0  0  0
 10 12  1  0  0  0  0
 10 17  1  0  0  0  0
 11 19  1  0  0  0  0
 12 19  1  0  0  0  0
 13 15  1  0  0  0  0
 13 18  1  0  0  0  0
 14 16  1  0  0  0  0
 14 18  1  0  0  0  0
 15 23  1  0  0  0  0
 16 23  1  0  0  0  0
 17 24  1  0  0  0  0
 18 24  1  0  0  0  0
 19 26  1  0  0  0  0
 20 24  1  0  0  0  0
 21 27  1  0  0  0  0
  2 28  1  0  0  0  0
  3 29  1  0  0  0  0
  4 30  1  0  0  0  0
  5 31  1  0  0  0  0
  9 32  1  0  0  0  0
  9 33  1  0  0  0  0
 10 34  1  0  0  0  0
 10 35  1  0  0  0  0
 11 36  1  0  0  0  0
 11 37  1  0  0  0  0
 12 38  1  0  0  0  0
 12 39  1  0  0  0  0
 13 40  1  0  0  0  0
 13 41  1  0  0  0  0
 14 42  1  0  0  0  0
 14 43  1  0  0  0  0
 15 44  1  0  0  0  0
 15 45  1  0  0  0  0
 16 46  1  0  0  0  0
 16 47  1  0  0  0  0
 17 48  1  0  0  0  0
 18 49  1  0  0  0  0
 19 50  1  0  0  0  0
 20 51  1  0  0  0  0
 20 52  1  0  0  0  0
 21 53  1  0  0  0  0
 21 54  1  0  0  0  0
 24 55  1  0  0  0  0
 26 56  1  0  0  0  0
M  CHG  1  24   1
M  END
> <creator>
Warren Thompson, XChem - Diamond Light Source

> <fragments>
x1418

> <real_space>
FALSE

> <SCR>
FALSE

> <BB>
FALSE

> <link>
https://covid.postera.ai/covid/submissions/72a8c209-a4b2-4e6c-8301-3438755f7985

> <covalent_frag>
TRUE

> <covalent_warhead>
TRUE

> <acrylamide>
FALSE

> <acrylamide_adduct>
FALSE

> <chloroacetamide>
TRUE

> <chloroacetamide_adduct>
FALSE

> <vinylsulfonamide>
FALSE

> <vinylsulfonamide_adduct>
FALSE

> <in_molport_or_mcule>
FALSE

> <in_emolecules>
FALSE

> <Hybrid2>
-2.492003

> <Mpro-x1418_dock>
-2.492003

> <Mpro-x1458_dock>
-2.177501

> <Mpro-x1493_dock>
-0.194701

> <Mpro-x1478_dock>
0.623718

> <site>
active-covalent

> <covalent_distance_min>
7.9962544

> <covalent_distance_mean>
8.538525

> <covalent_distance_stderr>
0.04276098

$$$$
DAV-CRI-f47-8
  -OEChem-04062011563D

 63 67  0     1  0  0  0  0  0999 V2000
    8.7797   -5.4306   24.6518 C   0  0  0  0  0  0  0  0  0  0  0  0
   11.3505   -0.0163   24.1198 C   0  0  0  0  0  0  0  0  0  0  0  0
   11.6370   -1.7008   22.4118 C   0  0  0  0  0  0  0  0  0  0  0  0
    9.8789   -5.8062   25.4194 C   0  0  0  0  0  0  0  0  0  0  0  0
   12.5660    0.5617   23.7537 C   0  0  0  0  0  0  0  0  0  0  0  0
   12.8525   -1.1228   22.0456 C   0  0  0  0  0  0  0  0  0  0  0  0
   10.7833   -3.5819   25.1851 C   0  0  0  0  0  0  0  0  0  0  0  0
   10.8860   -1.1476   23.4489 C   0  0  0  0  0  0  0  0  0  0  0  0
    8.6819   -4.1288   24.1353 C   0  0  0  0  0  0  0  0  0  0  0  0
    9.6979   -3.1970   24.3780 C   0  0  0  0  0  0  0  0  0  0  0  0
   10.8784   -4.8792   25.6913 C   0  0  0  0  0  0  0  0  0  0  0  0
   13.3170    0.0085   22.7166 C   0  0  0  0  0  0  0  0  0  0  0  0
    4.7984   -5.6557   24.0263 C   0  0  0  0  0  0  0  0  0  0  0  0
    8.5627   -1.5958   22.6879 C   0  0  0  0  0  0  0  0  0  0  0  0
    7.1061   -2.8383   21.0966 C   0  0  0  0  0  0  0  0  0  0  0  0
    3.9497   -6.7588   23.4387 C   0  0  0  0  0  0  0  0  0  0  0  0
    3.5066   -6.1856   22.0979 C   0  0  0  0  0  0  0  0  0  0  0  0
    3.4571   -4.6903   22.3397 C   0  0  0  0  0  0  0  0  0  0  0  0
    6.6386   -1.7505   24.7341 C   0  0  0  0  0  0  0  0  0  0  0  0
    4.0643   -2.4518   24.6440 C   0  0  0  0  0  0  0  0  0  0  0  0
    9.5552   -1.7800   23.8491 C   0  0  2  0  0  0  0  0  0  0  0  0
    7.4607   -3.7086   23.3641 C   0  0  1  0  0  0  0  0  0  0  0  0
    6.3728   -3.1967   24.2990 C   0  0  2  0  0  0  0  0  0  0  0  0
    4.9749   -3.1745   23.6524 C   0  0  1  0  0  0  0  0  0  0  0  0
   12.0482   -5.2679   26.5309 C   0  0  0  0  0  0  0  0  0  0  0  0
    7.7318   -2.1344   19.9165 C   0  0  0  0  0  0  0  0  0  0  0  0
    7.7789   -2.7075   22.3328 N   0  0  0  0  0  0  0  0  0  0  0  0
    4.4770   -4.4864   23.3410 N   0  0  0  0  0  0  0  0  0  0  0  0
    5.5742   -5.7972   24.9596 O   0  0  0  0  0  0  0  0  0  0  0  0
    8.4705   -0.4911   22.1425 O   0  0  0  0  0  0  0  0  0  0  0  0
    6.0543   -3.4634   20.9392 O   0  0  0  0  0  0  0  0  0  0  0  0
    4.7597    0.0928   24.6072 O   0  0  0  0  0  0  0  0  0  0  0  0
    5.0353   -1.2188   26.7611 O   0  0  0  0  0  0  0  0  0  0  0  0
   14.5024    0.5734   22.3586 O   0  0  0  0  0  0  0  0  0  0  0  0
    5.0656   -1.1324   25.3159 S   0  0  0  0  0  0  0  0  0  0  0  0
    6.5241   -1.0109   19.3040 Cl  0  0  0  0  0  0  0  0  0  0  0  0
    7.9907   -6.1551   24.4658 H   0  0  0  0  0  0  0  0  0  0  0  0
   10.7720    0.4213   24.9290 H   0  0  0  0  0  0  0  0  0  0  0  0
   11.2829   -2.5823   21.8835 H   0  0  0  0  0  0  0  0  0  0  0  0
    9.9395   -6.8178   25.8111 H   0  0  0  0  0  0  0  0  0  0  0  0
   12.9224    1.4432   24.2800 H   0  0  0  0  0  0  0  0  0  0  0  0
   13.4326   -1.5582   21.2368 H   0  0  0  0  0  0  0  0  0  0  0  0
   11.5655   -2.8657   25.4279 H   0  0  0  0  0  0  0  0  0  0  0  0
    4.5286   -7.6774   23.3170 H   0  0  0  0  0  0  0  0  0  0  0  0
    3.0961   -6.9362   24.1004 H   0  0  0  0  0  0  0  0  0  0  0  0
    4.2545   -6.4171   21.3296 H   0  0  0  0  0  0  0  0  0  0  0  0
    2.5455   -6.5920   21.7704 H   0  0  0  0  0  0  0  0  0  0  0  0
    3.6831   -4.1185   21.4361 H   0  0  0  0  0  0  0  0  0  0  0  0
    2.4952   -4.3748   22.7548 H   0  0  0  0  0  0  0  0  0  0  0  0
    7.3766   -1.6874   25.5386 H   0  0  0  0  0  0  0  0  0  0  0  0
    6.9524   -1.1216   23.8939 H   0  0  0  0  0  0  0  0  0  0  0  0
    3.1747   -2.0306   24.1699 H   0  0  0  0  0  0  0  0  0  0  0  0
    3.7752   -3.0994   25.4781 H   0  0  0  0  0  0  0  0  0  0  0  0
    9.1538   -1.1699   24.6829 H   0  0  0  0  0  0  0  0  0  0  0  0
    7.0704   -4.5985   22.8528 H   0  0  0  0  0  0  0  0  0  0  0  0
    6.3497   -3.8335   25.1931 H   0  0  0  0  0  0  0  0  0  0  0  0
    5.0110   -2.6121   22.7089 H   0  0  0  0  0  0  0  0  0  0  0  0
   12.8541   -5.6658   25.9021 H   0  0  0  0  0  0  0  0  0  0  0  0
   12.4375   -4.4095   27.0936 H   0  0  0  0  0  0  0  0  0  0  0  0
   11.7725   -6.0326   27.2686 H   0  0  0  0  0  0  0  0  0  0  0  0
    7.9750   -2.8701   19.1591 H   0  0  0  0  0  0  0  0  0  0  0  0
    8.6069   -1.5934   20.2558 H   0  0  0  0  0  0  0  0  0  0  0  0
   14.6871    1.3480   22.9135 H   0  0  0  0  0  0  0  0  0  0  0  0
  1  4  2  0  0  0  0
  1  9  1  0  0  0  0
  2  5  2  0  0  0  0
  2  8  1  0  0  0  0
  3  6  1  0  0  0  0
  3  8  2  0  0  0  0
  4 11  1  0  0  0  0
  5 12  1  0  0  0  0
  6 12  2  0  0  0  0
  7 10  1  0  0  0  0
  7 11  2  0  0  0  0
  8 21  1  0  0  0  0
  9 10  2  0  0  0  0
  9 22  1  0  0  0  0
 10 21  1  0  0  0  0
 11 25  1  0  0  0  0
 12 34  1  0  0  0  0
 13 16  1  0  0  0  0
 13 28  1  0  0  0  0
 13 29  2  0  0  0  0
 14 21  1  0  0  0  0
 14 27  1  0  0  0  0
 14 30  2  0  0  0  0
 15 26  1  0  0  0  0
 15 27  1  0  0  0  0
 15 31  2  0  0  0  0
 16 17  1  0  0  0  0
 17 18  1  0  0  0  0
 18 28  1  0  0  0  0
 19 23  1  0  0  0  0
 19 35  1  0  0  0  0
 20 24  1  0  0  0  0
 20 35  1  0  0  0  0
 22 23  1  0  0  0  0
 22 27  1  0  0  0  0
 23 24  1  0  0  0  0
 24 28  1  0  0  0  0
 26 36  1  0  0  0  0
 32 35  2  0  0  0  0
 33 35  2  0  0  0  0
  1 37  1  0  0  0  0
  2 38  1  0  0  0  0
  3 39  1  0  0  0  0
  4 40  1  0  0  0  0
  5 41  1  0  0  0  0
  6 42  1  0  0  0  0
  7 43  1  0  0  0  0
 16 44  1  0  0  0  0
 16 45  1  0  0  0  0
 17 46  1  0  0  0  0
 17 47  1  0  0  0  0
 18 48  1  0  0  0  0
 18 49  1  0  0  0  0
 19 50  1  0  0  0  0
 19 51  1  0  0  0  0
 20 52  1  0  0  0  0
 20 53  1  0  0  0  0
 21 54  1  0  0  0  0
 22 55  1  0  0  0  0
 23 56  1  0  0  0  0
 24 57  1  0  0  0  0
 25 58  1  0  0  0  0
 25 59  1  0  0  0  0
 25 60  1  0  0  0  0
 26 61  1  0  0  0  0
 26 62  1  0  0  0  0
 34 63  1  0  0  0  0
M  END
> <creator>
David Briggs, Crick Institute

> <fragments>
x1392

> <real_space>
FALSE

> <SCR>
FALSE

> <BB>
FALSE

> <link>
https://covid.postera.ai/covid/submissions/f4772df7-f5a5-4208-a16e-3d41483cc4c7

> <covalent_frag>
TRUE

> <covalent_warhead>
TRUE

> <acrylamide>
FALSE

> <acrylamide_adduct>
FALSE

> <chloroacetamide>
TRUE

> <chloroacetamide_adduct>
FALSE

> <vinylsulfonamide>
FALSE

> <vinylsulfonamide_adduct>
FALSE

> <in_molport_or_mcule>
FALSE

> <in_emolecules>
FALSE

> <Hybrid2>
-2.329210

> <Mpro-x1392_dock>
-2.32921

> <Mpro-x1384_dock>
2.278748

> <Mpro-x1375_dock>
2.990816

> <site>
active-covalent

$$$$
DAV-CRI-f9b-1
  -OEChem-04062011563D

 74 77  0     1  0  0  0  0  0999 V2000
   12.3072   -2.7218   25.1216 C   0  0  0  0  0  0  0  0  0  0  0  0
   13.4044   -0.2362   24.0932 C   0  0  0  0  0  0  0  0  0  0  0  0
   11.1371    0.5982   24.0771 C   0  0  0  0  0  0  0  0  0  0  0  0
   11.8498   -4.0225   25.3473 C   0  0  0  0  0  0  0  0  0  0  0  0
   13.8818    1.0570   23.8805 C   0  0  0  0  0  0  0  0  0  0  0  0
   11.6145    1.8915   23.8645 C   0  0  0  0  0  0  0  0  0  0  0  0
   10.2838   -2.1728   23.9102 C   0  0  0  0  0  0  0  0  0  0  0  0
   12.0320   -0.4656   24.1915 C   0  0  0  0  0  0  0  0  0  0  0  0
   11.5361   -1.8073   24.4126 C   0  0  0  0  0  0  0  0  0  0  0  0
    9.7978   -3.4808   24.1240 C   0  0  0  0  0  0  0  0  0  0  0  0
   10.5911   -4.3827   24.8396 C   0  0  0  0  0  0  0  0  0  0  0  0
   12.9869    2.1209   23.7662 C   0  0  0  0  0  0  0  0  0  0  0  0
    8.4604   -5.2344   24.0651 C   0  0  0  0  0  0  0  0  0  0  0  0
    4.3518   -3.7559   24.3292 C   0  0  0  0  0  0  0  0  0  0  0  0
    5.7322   -0.4543   18.4848 C   0  0  0  0  0  0  0  0  0  0  0  0
    5.9615   -3.1003   20.3675 C   0  0  0  0  0  0  0  0  0  0  0  0
    7.1357   -6.3980   22.2517 C   0  0  0  0  0  0  0  0  0  0  0  0
    5.7643   -6.0544   21.6768 C   0  0  0  0  0  0  0  0  0  0  0  0
    5.9205   -5.6523   24.3900 C   0  0  0  0  0  0  0  0  0  0  0  0
    7.2511   -6.1114   23.7641 C   0  0  2  0  0  0  0  0  0  0  0  0
    5.2771   -4.6872   22.1570 C   0  0  1  0  0  0  0  0  0  0  0  0
    9.8635   -4.4626   20.3661 C   0  0  0  0  0  0  0  0  0  0  0  0
    3.6033   -2.7288   23.5147 C   0  0  0  0  0  0  0  0  0  0  0  0
    6.8282   -1.4940   18.6404 C   0  0  0  0  0  0  0  0  0  0  0  0
    6.9794   -2.0114   20.0713 C   0  0  2  0  0  0  0  0  0  0  0  0
    8.5995   -3.9213   19.7031 C   0  0  2  0  0  0  0  0  0  0  0  0
    8.5808   -3.9833   23.6869 N   0  0  0  0  0  0  0  0  0  0  0  0
    5.1879   -4.6338   23.6274 N   0  0  0  0  0  0  0  0  0  0  0  0
    5.1064   -0.5337   17.2588 N   0  0  0  0  0  0  0  0  0  0  0  0
    8.7576   -3.9679   18.2529 N   0  0  0  0  0  0  0  0  0  0  0  0
   13.6200    3.7990   21.7944 N   0  0  0  0  0  0  0  0  0  0  0  0
    6.1254   -3.6404   21.6340 N   0  0  0  0  0  0  0  0  0  0  0  0
    8.3629   -2.5405   20.2526 N   0  3  0  0  0  0  0  0  0  0  0  0
    4.1925   -3.7858   25.5526 O   0  0  0  0  0  0  0  0  0  0  0  0
    5.4309    0.3618   19.3507 O   0  0  0  0  0  0  0  0  0  0  0  0
    5.0983   -3.4386   19.5608 O   0  0  0  0  0  0  0  0  0  0  0  0
   12.5861    4.6831   23.9841 O   0  0  0  0  0  0  0  0  0  0  0  0
   14.9513    3.8152   23.9998 O   0  0  0  0  0  0  0  0  0  0  0  0
    9.7660   -5.8924   24.9529 S   0  0  0  0  0  0  0  0  0  0  0  0
   13.5851    3.7398   23.5016 S   0  0  0  0  0  0  0  0  0  0  0  0
    2.0855   -3.4778   23.0324 Cl  0  0  0  0  0  0  0  0  0  0  0  0
   13.2823   -2.4382   25.5127 H   0  0  0  0  0  0  0  0  0  0  0  0
   14.1145   -1.0551   24.1799 H   0  0  0  0  0  0  0  0  0  0  0  0
   10.0643    0.4359   24.1512 H   0  0  0  0  0  0  0  0  0  0  0  0
   12.4577   -4.7311   25.9016 H   0  0  0  0  0  0  0  0  0  0  0  0
   14.9528    1.2250   23.8052 H   0  0  0  0  0  0  0  0  0  0  0  0
   10.9092    2.7132   23.7764 H   0  0  0  0  0  0  0  0  0  0  0  0
    9.6770   -1.4611   23.3552 H   0  0  0  0  0  0  0  0  0  0  0  0
    7.3574   -7.4667   22.0557 H   0  0  0  0  0  0  0  0  0  0  0  0
    7.9197   -5.8388   21.6997 H   0  0  0  0  0  0  0  0  0  0  0  0
    5.8022   -6.0877   20.5847 H   0  0  0  0  0  0  0  0  0  0  0  0
    5.0452   -6.8178   21.9898 H   0  0  0  0  0  0  0  0  0  0  0  0
    5.2714   -6.5364   24.5641 H   0  0  0  0  0  0  0  0  0  0  0  0
    6.0930   -5.2286   25.4030 H   0  0  0  0  0  0  0  0  0  0  0  0
    7.5096   -7.1233   24.2490 H   0  0  0  0  0  0  0  0  0  0  0  0
    4.3008   -4.5111   21.7057 H   0  0  0  0  0  0  0  0  0  0  0  0
   10.7480   -3.8788   20.0863 H   0  0  0  0  0  0  0  0  0  0  0  0
   10.0417   -5.5049   20.0782 H   0  0  0  0  0  0  0  0  0  0  0  0
    9.7753   -4.4362   21.4581 H   0  0  0  0  0  0  0  0  0  0  0  0
    4.1907   -2.4798   22.6385 H   0  0  0  0  0  0  0  0  0  0  0  0
    3.4103   -1.8616   24.1354 H   0  0  0  0  0  0  0  0  0  0  0  0
    7.7736   -1.0677   18.2811 H   0  0  0  0  0  0  0  0  0  0  0  0
    6.5783   -2.3221   17.9647 H   0  0  0  0  0  0  0  0  0  0  0  0
    6.8720   -1.2081   20.8088 H   0  0  0  0  0  0  0  0  0  0  0  0
    7.7419   -4.5313   20.0083 H   0  0  0  0  0  0  0  0  0  0  0  0
    4.3529    0.1008   17.0157 H   0  0  0  0  0  0  0  0  0  0  0  0
    5.3694   -1.2196   16.5583 H   0  0  0  0  0  0  0  0  0  0  0  0
    8.8786   -4.9341   17.9515 H   0  0  0  0  0  0  0  0  0  0  0  0
    7.9045   -3.6377   17.8041 H   0  0  0  0  0  0  0  0  0  0  0  0
   12.9209    4.3818   21.3180 H   0  0  0  0  0  0  0  0  0  0  0  0
   14.5364    3.7871   21.3303 H   0  0  0  0  0  0  0  0  0  0  0  0
    6.8745   -3.2848   22.2199 H   0  0  0  0  0  0  0  0  0  0  0  0
    8.5729   -2.5348   21.2594 H   0  0  0  0  0  0  0  0  0  0  0  0
    9.0295   -1.8872   19.8213 H   0  0  0  0  0  0  0  0  0  0  0  0
  1  4  2  0  0  0  0
  1  9  1  0  0  0  0
  2  5  2  0  0  0  0
  2  8  1  0  0  0  0
  3  6  1  0  0  0  0
  3  8  2  0  0  0  0
  4 11  1  0  0  0  0
  5 12  1  0  0  0  0
  6 12  2  0  0  0  0
  7  9  2  0  0  0  0
  7 10  1  0  0  0  0
  8  9  1  0  0  0  0
 10 11  2  0  0  0  0
 10 27  1  0  0  0  0
 11 39  1  0  0  0  0
 12 40  1  0  0  0  0
 13 20  1  0  0  0  0
 13 27  2  0  0  0  0
 13 39  1  0  0  0  0
 14 23  1  0  0  0  0
 14 28  1  0  0  0  0
 14 34  2  0  0  0  0
 15 24  1  0  0  0  0
 15 29  1  0  0  0  0
 15 35  2  0  0  0  0
 16 25  1  0  0  0  0
 16 32  1  0  0  0  0
 16 36  2  0  0  0  0
 17 18  1  0  0  0  0
 17 20  1  0  0  0  0
 18 21  1  0  0  0  0
 19 20  1  0  0  0  0
 19 28  1  0  0  0  0
 21 28  1  0  0  0  0
 21 32  1  0  0  0  0
 22 26  1  0  0  0  0
 23 41  1  0  0  0  0
 24 25  1  0  0  0  0
 25 33  1  0  0  0  0
 26 30  1  0  0  0  0
 26 33  1  0  0  0  0
 31 40  1  0  0  0  0
 37 40  2  0  0  0  0
 38 40  2  0  0  0  0
  1 42  1  0  0  0  0
  2 43  1  0  0  0  0
  3 44  1  0  0  0  0
  4 45  1  0  0  0  0
  5 46  1  0  0  0  0
  6 47  1  0  0  0  0
  7 48  1  0  0  0  0
 17 49  1  0  0  0  0
 17 50  1  0  0  0  0
 18 51  1  0  0  0  0
 18 52  1  0  0  0  0
 19 53  1  0  0  0  0
 19 54  1  0  0  0  0
 20 55  1  0  0  0  0
 21 56  1  0  0  0  0
 22 57  1  0  0  0  0
 22 58  1  0  0  0  0
 22 59  1  0  0  0  0
 23 60  1  0  0  0  0
 23 61  1  0  0  0  0
 24 62  1  0  0  0  0
 24 63  1  0  0  0  0
 25 64  1  0  0  0  0
 26 65  1  0  0  0  0
 29 66  1  0  0  0  0
 29 67  1  0  0  0  0
 30 68  1  0  0  0  0
 30 69  1  0  0  0  0
 31 70  1  0  0  0  0
 31 71  1  0  0  0  0
 32 72  1  0  0  0  0
 33 73  1  0  0  0  0
 33 74  1  0  0  0  0
M  CHG  1  33   1
M  END
> <creator>
David Briggs, Crick Institute

> <fragments>
x0749

> <real_space>
FALSE

> <SCR>
FALSE

> <BB>
FALSE

> <link>
https://covid.postera.ai/covid/submissions/f9b12666-ae78-4cf8-8d60-dc19988e42d3

> <covalent_frag>
TRUE

> <covalent_warhead>
TRUE

> <acrylamide>
FALSE

> <acrylamide_adduct>
FALSE

> <chloroacetamide>
TRUE

> <chloroacetamide_adduct>
FALSE

> <vinylsulfonamide>
FALSE

> <vinylsulfonamide_adduct>
FALSE

> <in_molport_or_mcule>
FALSE

> <in_emolecules>
FALSE

> <Hybrid2>
-2.319822

> <Mpro-x0749_dock>
-2.319822

> <Mpro-x0981_dock>
11.994981

> <site>
active-covalent

$$$$
BEN-VAN-77c-4
  -OEChem-04062011563D

 52 54  0     1  0  0  0  0  0999 V2000
    8.5948   -4.1330   26.5341 C   0  0  0  0  0  0  0  0  0  0  0  0
    8.8557   -0.0993   21.0938 C   0  0  0  0  0  0  0  0  0  0  0  0
    7.7700   -4.1288   25.4147 C   0  0  0  0  0  0  0  0  0  0  0  0
    7.6158   -0.1313   20.4558 C   0  0  0  0  0  0  0  0  0  0  0  0
    8.6897   -2.4688   21.5354 C   0  0  0  0  0  0  0  0  0  0  0  0
    9.0378   -2.9126   27.0179 C   0  0  0  0  0  0  0  0  0  0  0  0
    9.3928   -1.2681   21.6335 C   0  0  0  0  0  0  0  0  0  0  0  0
    7.4497   -2.5008   20.8975 C   0  0  0  0  0  0  0  0  0  0  0  0
    7.4184   -2.9213   24.8218 C   0  0  0  0  0  0  0  0  0  0  0  0
    6.9127   -1.3320   20.3577 C   0  0  0  0  0  0  0  0  0  0  0  0
    7.9139   -1.7551   25.3824 C   0  0  0  0  0  0  0  0  0  0  0  0
   11.9183    2.2812   26.4266 C   0  0  0  0  0  0  0  0  0  0  0  0
   11.6737    1.2498   25.6156 C   0  0  0  0  0  0  0  0  0  0  0  0
   12.7451    0.7822   24.7133 C   0  0  0  0  0  0  0  0  0  0  0  0
   13.4072   -0.2563   22.5818 C   0  0  0  0  0  0  0  0  0  0  0  0
   11.0013    0.1374   22.9647 C   0  0  0  0  0  0  0  0  0  0  0  0
   13.0447   -1.6062   21.9844 C   0  0  0  0  0  0  0  0  0  0  0  0
   10.7382   -1.2332   22.3253 C   0  0  2  0  0  0  0  0  0  0  0  0
    4.7866   -4.5376   23.8087 C   0  0  0  0  0  0  0  0  0  0  0  0
    6.6995   -3.7858   20.7950 C   0  0  0  0  0  0  0  0  0  0  0  0
    6.0383   -4.0909   23.0609 C   0  0  2  0  0  0  0  0  0  0  0  0
    8.7175   -1.7195   26.4689 N   0  0  0  0  0  0  0  0  0  0  0  0
   12.3680    0.2105   23.5008 N   0  0  0  0  0  0  0  0  0  0  0  0
    6.5972   -2.9151   23.7066 N   0  0  0  0  0  0  0  0  0  0  0  0
   13.9103    0.9312   25.0856 O   0  0  0  0  0  0  0  0  0  0  0  0
   11.7582   -1.5466   21.3695 O   0  0  0  0  0  0  0  0  0  0  0  0
    5.6213   -3.7785   21.7224 O   0  0  0  0  0  0  0  0  0  0  0  0
    5.7211   -1.3525   19.7442 F   0  0  0  0  0  0  0  0  0  0  0  0
    7.5532   -0.1977   24.7438 Cl  0  0  0  0  0  0  0  0  0  0  0  0
    8.8816   -5.0624   27.0130 H   0  0  0  0  0  0  0  0  0  0  0  0
    9.3967    0.8406   21.1646 H   0  0  0  0  0  0  0  0  0  0  0  0
    7.4083   -5.0720   25.0140 H   0  0  0  0  0  0  0  0  0  0  0  0
    7.1979    0.7780   20.0337 H   0  0  0  0  0  0  0  0  0  0  0  0
    9.1083   -3.3797   21.9570 H   0  0  0  0  0  0  0  0  0  0  0  0
    9.6819   -2.8616   27.8897 H   0  0  0  0  0  0  0  0  0  0  0  0
   11.1718    2.6697   27.1113 H   0  0  0  0  0  0  0  0  0  0  0  0
   12.8907    2.7622   26.4171 H   0  0  0  0  0  0  0  0  0  0  0  0
   10.7172    0.7441   25.5964 H   0  0  0  0  0  0  0  0  0  0  0  0
   14.3816   -0.3070   23.0771 H   0  0  0  0  0  0  0  0  0  0  0  0
   13.4740    0.4979   21.7882 H   0  0  0  0  0  0  0  0  0  0  0  0
   10.9243    0.9390   22.2191 H   0  0  0  0  0  0  0  0  0  0  0  0
   10.2503    0.3236   23.7357 H   0  0  0  0  0  0  0  0  0  0  0  0
   13.7700   -1.8778   21.2110 H   0  0  0  0  0  0  0  0  0  0  0  0
   13.0557   -2.3983   22.7424 H   0  0  0  0  0  0  0  0  0  0  0  0
   10.7263   -2.0230   23.1040 H   0  0  0  0  0  0  0  0  0  0  0  0
    4.0543   -3.7240   23.8689 H   0  0  0  0  0  0  0  0  0  0  0  0
    4.3058   -5.3935   23.3255 H   0  0  0  0  0  0  0  0  0  0  0  0
    5.0359   -4.8148   24.8388 H   0  0  0  0  0  0  0  0  0  0  0  0
    6.2928   -3.9330   19.7851 H   0  0  0  0  0  0  0  0  0  0  0  0
    7.3496   -4.6434   21.0160 H   0  0  0  0  0  0  0  0  0  0  0  0
    6.7556   -4.9184   23.0126 H   0  0  0  0  0  0  0  0  0  0  0  0
    6.4306   -2.0229   23.2536 H   0  0  0  0  0  0  0  0  0  0  0  0
  1  3  2  0  0  0  0
  1  6  1  0  0  0  0
  2  4  2  0  0  0  0
  2  7  1  0  0  0  0
  3  9  1  0  0  0  0
  4 10  1  0  0  0  0
  5  7  2  0  0  0  0
  5  8  1  0  0  0  0
  6 22  2  0  0  0  0
  7 18  1  0  0  0  0
  8 10  2  0  0  0  0
  8 20  1  0  0  0  0
  9 11  2  0  0  0  0
  9 24  1  0  0  0  0
 10 28  1  0  0  0  0
 11 22  1  0  0  0  0
 11 29  1  0  0  0  0
 12 13  2  0  0  0  0
 13 14  1  0  0  0  0
 14 23  1  0  0  0  0
 14 25  2  0  0  0  0
 15 17  1  0  0  0  0
 15 23  1  0  0  0  0
 16 18  1  0  0  0  0
 16 23  1  0  0  0  0
 17 26  1  0  0  0  0
 18 26  1  0  0  0  0
 19 21  1  0  0  0  0
 20 27  1  0  0  0  0
 21 24  1  0  0  0  0
 21 27  1  0  0  0  0
  1 30  1  0  0  0  0
  2 31  1  0  0  0  0
  3 32  1  0  0  0  0
  4 33  1  0  0  0  0
  5 34  1  0  0  0  0
  6 35  1  0  0  0  0
 12 36  1  0  0  0  0
 12 37  1  0  0  0  0
 13 38  1  0  0  0  0
 15 39  1  0  0  0  0
 15 40  1  0  0  0  0
 16 41  1  0  0  0  0
 16 42  1  0  0  0  0
 17 43  1  0  0  0  0
 17 44  1  0  0  0  0
 18 45  1  0  0  0  0
 19 46  1  0  0  0  0
 19 47  1  0  0  0  0
 19 48  1  0  0  0  0
 20 49  1  0  0  0  0
 20 50  1  0  0  0  0
 21 51  1  0  0  0  0
 24 52  1  0  0  0  0
M  END
> <creator>
Benjamin P. Brown, Vanderbilt University, Laboratory of Jens Meiler

> <fragments>
x0759

> <real_space>
FALSE

> <SCR>
FALSE

> <BB>
FALSE

> <link>
https://covid.postera.ai/covid/submissions/77cef4f8-69c7-4a42-be72-6e63eb0b6889

> <covalent_frag>
TRUE

> <covalent_warhead>
TRUE

> <acrylamide>
TRUE

> <acrylamide_adduct>
FALSE

> <chloroacetamide>
FALSE

> <chloroacetamide_adduct>
FALSE

> <vinylsulfonamide>
FALSE

> <vinylsulfonamide_adduct>
FALSE

> <in_molport_or_mcule>
FALSE

> <in_emolecules>
FALSE

> <Hybrid2>
-2.302989

> <Mpro-x0759_dock>
-2.302989

> <Mpro-x1478_dock>
0.401221

> <site>
active-covalent

> <covalent_distance_min>
8.679101

> <covalent_distance_mean>
9.385246

> <covalent_distance_stderr>
0.0510861

$$$$
DAN-LON-a5f-10
  -OEChem-04062011563D

 48 50  0     1  0  0  0  0  0999 V2000
    4.5931   -0.3700   18.3247 C   0  0  0  0  0  0  0  0  0  0  0  0
    5.9309   -0.6030   18.0061 C   0  0  0  0  0  0  0  0  0  0  0  0
    4.1919   -0.3242   19.6599 C   0  0  0  0  0  0  0  0  0  0  0  0
   12.7094    0.5070   24.4994 C   0  0  0  0  0  0  0  0  0  0  0  0
    6.8675   -0.7904   19.0226 C   0  0  0  0  0  0  0  0  0  0  0  0
    5.1285   -0.5116   20.6764 C   0  0  0  0  0  0  0  0  0  0  0  0
   11.7499   -0.4121   24.9238 C   0  0  0  0  0  0  0  0  0  0  0  0
   13.2772    0.3870   23.2309 C   0  0  0  0  0  0  0  0  0  0  0  0
   11.9259   -1.5713   22.8114 C   0  0  0  0  0  0  0  0  0  0  0  0
    6.4664   -0.7447   20.3578 C   0  0  0  0  0  0  0  0  0  0  0  0
   11.3581   -1.4513   24.0798 C   0  0  0  0  0  0  0  0  0  0  0  0
   12.8854   -0.6522   22.3869 C   0  0  0  0  0  0  0  0  0  0  0  0
    5.3302   -3.3844   22.0595 C   0  0  0  0  0  0  0  0  0  0  0  0
    6.5300   -2.4751   24.0979 C   0  0  0  0  0  0  0  0  0  0  0  0
    7.8714   -2.8123   24.7291 C   0  0  0  0  0  0  0  0  0  0  0  0
    8.9437   -2.7494   22.4879 C   0  0  0  0  0  0  0  0  0  0  0  0
    7.5992   -2.4256   21.8335 C   0  0  2  0  0  0  0  0  0  0  0  0
    7.4744   -0.9467   21.4529 C   0  0  0  0  0  0  0  0  0  0  0  0
   10.3269   -2.4402   24.5375 C   0  0  0  0  0  0  0  0  0  0  0  0
    4.1184   -3.5966   22.9322 C   0  0  0  0  0  0  0  0  0  0  0  0
    6.4636   -2.8427   22.6768 N   0  0  0  0  0  0  0  0  0  0  0  0
    8.9819   -2.2269   23.8996 N   0  3  2  0  0  0  0  0  0  0  0  0
    5.2736   -3.6933   20.8662 O   0  0  0  0  0  0  0  0  0  0  0  0
   13.5871   -0.8004   20.8225 Cl  0  0  0  0  0  0  0  0  0  0  0  0
    4.2355   -5.2341   23.5666 Cl  0  0  0  0  0  0  0  0  0  0  0  0
    3.8642   -0.2228   17.5332 H   0  0  0  0  0  0  0  0  0  0  0  0
    6.2437   -0.6376   16.9666 H   0  0  0  0  0  0  0  0  0  0  0  0
    3.1506   -0.1417   19.9084 H   0  0  0  0  0  0  0  0  0  0  0  0
   13.0143    1.3160   25.1569 H   0  0  0  0  0  0  0  0  0  0  0  0
    7.9077   -0.9716   18.7649 H   0  0  0  0  0  0  0  0  0  0  0  0
    4.8068   -0.4744   21.7138 H   0  0  0  0  0  0  0  0  0  0  0  0
   11.3129   -0.3110   25.9138 H   0  0  0  0  0  0  0  0  0  0  0  0
   14.0241    1.1104   22.9135 H   0  0  0  0  0  0  0  0  0  0  0  0
   11.6167   -2.3830   22.1569 H   0  0  0  0  0  0  0  0  0  0  0  0
    5.7439   -2.9685   24.6731 H   0  0  0  0  0  0  0  0  0  0  0  0
    6.3373   -1.3977   24.1609 H   0  0  0  0  0  0  0  0  0  0  0  0
    7.9444   -2.3767   25.7311 H   0  0  0  0  0  0  0  0  0  0  0  0
    8.0305   -3.8950   24.7895 H   0  0  0  0  0  0  0  0  0  0  0  0
    9.1100   -3.8322   22.5347 H   0  0  0  0  0  0  0  0  0  0  0  0
    9.7725   -2.2853   21.9421 H   0  0  0  0  0  0  0  0  0  0  0  0
    7.5562   -2.9936   20.8959 H   0  0  0  0  0  0  0  0  0  0  0  0
    8.4524   -0.5730   21.1389 H   0  0  0  0  0  0  0  0  0  0  0  0
    7.1907   -0.3708   22.3376 H   0  0  0  0  0  0  0  0  0  0  0  0
   10.6287   -3.4658   24.2994 H   0  0  0  0  0  0  0  0  0  0  0  0
   10.1744   -2.3801   25.6205 H   0  0  0  0  0  0  0  0  0  0  0  0
    3.2263   -3.4956   22.3248 H   0  0  0  0  0  0  0  0  0  0  0  0
    4.1410   -2.8797   23.7447 H   0  0  0  0  0  0  0  0  0  0  0  0
    8.8386   -1.2088   23.8641 H   0  0  0  0  0  0  0  0  0  0  0  0
  1  2  1  0  0  0  0
  1  3  2  0  0  0  0
  2  5  2  0  0  0  0
  3  6  1  0  0  0  0
  4  7  2  0  0  0  0
  4  8  1  0  0  0  0
  5 10  1  0  0  0  0
  6 10  2  0  0  0  0
  7 11  1  0  0  0  0
  8 12  2  0  0  0  0
  9 11  2  0  0  0  0
  9 12  1  0  0  0  0
 10 18  1  0  0  0  0
 11 19  1  0  0  0  0
 12 24  1  0  0  0  0
 13 20  1  0  0  0  0
 13 21  1  0  0  0  0
 13 23  2  0  0  0  0
 14 15  1  0  0  0  0
 14 21  1  0  0  0  0
 15 22  1  0  0  0  0
 16 17  1  0  0  0  0
 16 22  1  0  0  0  0
 17 18  1  0  0  0  0
 17 21  1  0  0  0  0
 19 22  1  0  0  0  0
 20 25  1  0  0  0  0
  1 26  1  0  0  0  0
  2 27  1  0  0  0  0
  3 28  1  0  0  0  0
  4 29  1  0  0  0  0
  5 30  1  0  0  0  0
  6 31  1  0  0  0  0
  7 32  1  0  0  0  0
  8 33  1  0  0  0  0
  9 34  1  0  0  0  0
 14 35  1  0  0  0  0
 14 36  1  0  0  0  0
 15 37  1  0  0  0  0
 15 38  1  0  0  0  0
 16 39  1  0  0  0  0
 16 40  1  0  0  0  0
 17 41  1  0  0  0  0
 18 42  1  0  0  0  0
 18 43  1  0  0  0  0
 19 44  1  0  0  0  0
 19 45  1  0  0  0  0
 20 46  1  0  0  0  0
 20 47  1  0  0  0  0
 22 48  1  0  0  0  0
M  CHG  1  22   1
M  END
> <creator>
Daniel Zaidman, London Lab, Weizmann Institute of Science

> <fragments>
x0770

> <real_space>
FALSE

> <SCR>
FALSE

> <BB>
FALSE

> <link>
https://covid.postera.ai/covid/submissions/a5fc619e-a7a0-43cf-a105-697cf3dc31cf

> <covalent_frag>
TRUE

> <covalent_warhead>
TRUE

> <acrylamide>
FALSE

> <acrylamide_adduct>
FALSE

> <chloroacetamide>
TRUE

> <chloroacetamide_adduct>
FALSE

> <vinylsulfonamide>
FALSE

> <vinylsulfonamide_adduct>
FALSE

> <in_molport_or_mcule>
FALSE

> <in_emolecules>
FALSE

> <Hybrid2>
-2.224048

> <Mpro-x0770_dock>
-2.224048

> <site>
active-covalent

> <covalent_distance_min>
2.914128

> <covalent_distance_mean>
3.3622694

> <covalent_distance_stderr>
0.016527928

$$$$
JUA-UNI-bc0-3
  -OEChem-04062011563D

 47 48  0     0  0  0  0  0  0999 V2000
   13.1890    1.7683   22.3927 C   0  0  0  0  0  0  0  0  0  0  0  0
   14.2884    1.1655   22.9632 C   0  0  0  0  0  0  0  0  0  0  0  0
   12.2976    0.8186   21.8149 C   0  0  0  0  0  0  0  0  0  0  0  0
   12.7500   -0.4739   21.9656 C   0  0  0  0  0  0  0  0  0  0  0  0
    9.5658   -2.1079   20.3609 C   0  0  0  0  0  0  0  0  0  0  0  0
    9.7191   -2.3301   21.8256 C   0  0  0  0  0  0  0  0  0  0  0  0
    8.6117   -1.0067   18.6106 C   0  0  0  0  0  0  0  0  0  0  0  0
    9.5553    0.9656   24.6007 C   0  0  0  0  0  0  0  0  0  0  0  0
    8.6863   -1.3077   25.1093 C   0  0  0  0  0  0  0  0  0  0  0  0
    8.1208    1.3816   24.3226 C   0  0  0  0  0  0  0  0  0  0  0  0
    7.2966   -0.7740   24.8055 C   0  0  0  0  0  0  0  0  0  0  0  0
    7.4284    1.0983   19.3645 C   0  0  0  0  0  0  0  0  0  0  0  0
   12.1205   -1.7579   21.5082 C   0  0  0  0  0  0  0  0  0  0  0  0
    8.2584    0.4338   18.2806 C   0  0  0  0  0  0  0  0  0  0  0  0
   11.2843   -2.3135   23.7659 C   0  0  0  0  0  0  0  0  0  0  0  0
   11.0918   -1.0027   24.5049 C   0  0  0  0  0  0  0  0  0  0  0  0
    8.7438   -1.1993   19.9701 N   0  0  0  0  0  0  0  0  0  0  0  0
   10.9938   -2.1407   22.3458 N   0  0  0  0  0  0  0  0  0  0  0  0
    9.6871   -0.5102   24.3064 N   0  3  0  0  0  0  0  0  0  0  0  0
    8.7009   -2.6501   22.4262 O   0  0  0  0  0  0  0  0  0  0  0  0
    8.7516   -1.8597   17.7369 O   0  0  0  0  0  0  0  0  0  0  0  0
    7.2143    0.6171   25.1188 O   0  0  0  0  0  0  0  0  0  0  0  0
   14.2433   -0.5386   22.8011 S   0  0  0  0  0  0  0  0  0  0  0  0
   10.7018    1.3409   20.9587 Br  0  0  0  0  0  0  0  0  0  0  0  0
   13.0408    2.8410   22.3954 H   0  0  0  0  0  0  0  0  0  0  0  0
   15.1160    1.6443   23.4674 H   0  0  0  0  0  0  0  0  0  0  0  0
   10.1839   -2.7519   19.7132 H   0  0  0  0  0  0  0  0  0  0  0  0
   10.2564    1.4978   23.9539 H   0  0  0  0  0  0  0  0  0  0  0  0
    9.8183    1.1073   25.6527 H   0  0  0  0  0  0  0  0  0  0  0  0
    8.9458   -1.1771   26.1635 H   0  0  0  0  0  0  0  0  0  0  0  0
    8.7836   -2.3553   24.8158 H   0  0  0  0  0  0  0  0  0  0  0  0
    7.9847    2.4350   24.5873 H   0  0  0  0  0  0  0  0  0  0  0  0
    7.8642    1.2735   23.2619 H   0  0  0  0  0  0  0  0  0  0  0  0
    7.0197   -0.9344   23.7566 H   0  0  0  0  0  0  0  0  0  0  0  0
    6.5587   -1.2953   25.4234 H   0  0  0  0  0  0  0  0  0  0  0  0
    6.4889    0.5595   19.5260 H   0  0  0  0  0  0  0  0  0  0  0  0
    7.9699    1.1210   20.3158 H   0  0  0  0  0  0  0  0  0  0  0  0
    7.1876    2.1280   19.0829 H   0  0  0  0  0  0  0  0  0  0  0  0
   11.7589   -1.6651   20.4782 H   0  0  0  0  0  0  0  0  0  0  0  0
   12.8450   -2.5789   21.5258 H   0  0  0  0  0  0  0  0  0  0  0  0
    9.1902    0.9927   18.1407 H   0  0  0  0  0  0  0  0  0  0  0  0
    7.7021    0.4443   17.3369 H   0  0  0  0  0  0  0  0  0  0  0  0
   12.3085   -2.6853   23.8746 H   0  0  0  0  0  0  0  0  0  0  0  0
   10.6028   -3.0721   24.1639 H   0  0  0  0  0  0  0  0  0  0  0  0
   11.7541   -0.2249   24.1146 H   0  0  0  0  0  0  0  0  0  0  0  0
   11.2416   -1.1064   25.5838 H   0  0  0  0  0  0  0  0  0  0  0  0
    9.4582   -0.6458   23.3105 H   0  0  0  0  0  0  0  0  0  0  0  0
  1  2  2  0  0  0  0
  1  3  1  0  0  0  0
  2 23  1  0  0  0  0
  3  4  2  0  0  0  0
  3 24  1  0  0  0  0
  4 13  1  0  0  0  0
  4 23  1  0  0  0  0
  5  6  1  0  0  0  0
  5 17  2  0  0  0  0
  6 18  1  0  0  0  0
  6 20  2  0  0  0  0
  7 14  1  0  0  0  0
  7 17  1  0  0  0  0
  7 21  2  0  0  0  0
  8 10  1  0  0  0  0
  8 19  1  0  0  0  0
  9 11  1  0  0  0  0
  9 19  1  0  0  0  0
 10 22  1  0  0  0  0
 11 22  1  0  0  0  0
 12 14  1  0  0  0  0
 13 18  1  0  0  0  0
 15 16  1  0  0  0  0
 15 18  1  0  0  0  0
 16 19  1  0  0  0  0
  1 25  1  0  0  0  0
  2 26  1  0  0  0  0
  5 27  1  0  0  0  0
  8 28  1  0  0  0  0
  8 29  1  0  0  0  0
  9 30  1  0  0  0  0
  9 31  1  0  0  0  0
 10 32  1  0  0  0  0
 10 33  1  0  0  0  0
 11 34  1  0  0  0  0
 11 35  1  0  0  0  0
 12 36  1  0  0  0  0
 12 37  1  0  0  0  0
 12 38  1  0  0  0  0
 13 39  1  0  0  0  0
 13 40  1  0  0  0  0
 14 41  1  0  0  0  0
 14 42  1  0  0  0  0
 15 43  1  0  0  0  0
 15 44  1  0  0  0  0
 16 45  1  0  0  0  0
 16 46  1  0  0  0  0
 19 47  1  0  0  0  0
M  CHG  1  19   1
M  END
> <creator>
Juan Salamanca Viloria, Universidad de Barcelona in collaboration with the Medicinal Chemistry Research Group, RCNS, Budapest

> <fragments>
x1382

> <real_space>
FALSE

> <SCR>
FALSE

> <BB>
FALSE

> <link>
https://covid.postera.ai/covid/submissions/bc099708-66e5-490d-b218-fa749db19489

> <covalent_frag>
TRUE

> <covalent_warhead>
TRUE

> <acrylamide>
TRUE

> <acrylamide_adduct>
FALSE

> <chloroacetamide>
FALSE

> <chloroacetamide_adduct>
FALSE

> <vinylsulfonamide>
FALSE

> <vinylsulfonamide_adduct>
FALSE

> <in_molport_or_mcule>
FALSE

> <in_emolecules>
FALSE

> <Hybrid2>
-2.198053

> <Mpro-x1382_dock>
-2.198053

> <site>
active-covalent

$$$$
WAR-XCH-79d-9
  -OEChem-04062011563D

 47 49  0     0  0  0  0  0  0999 V2000
    5.8437   -5.9708   24.6111 C   0  0  0  0  0  0  0  0  0  0  0  0
    5.4812   -4.6528   24.7939 C   0  0  0  0  0  0  0  0  0  0  0  0
    3.6723   -6.1936   24.3986 C   0  0  0  0  0  0  0  0  0  0  0  0
    7.3432   -3.1706   19.6188 C   0  0  0  0  0  0  0  0  0  0  0  0
    6.6241   -2.9442   28.0227 C   0  0  0  0  0  0  0  0  0  0  0  0
    7.4489   -4.0172   27.3196 C   0  0  0  0  0  0  0  0  0  0  0  0
    5.3285   -2.6428   27.2770 C   0  0  0  0  0  0  0  0  0  0  0  0
    7.6769   -3.6839   25.8410 C   0  0  0  0  0  0  0  0  0  0  0  0
    5.6017   -2.2867   25.8144 C   0  0  0  0  0  0  0  0  0  0  0  0
    6.1098   -2.1091   21.4824 C   0  0  0  0  0  0  0  0  0  0  0  0
    8.4240   -2.8472   21.8981 C   0  0  0  0  0  0  0  0  0  0  0  0
    5.6394   -2.7986   22.7547 C   0  0  0  0  0  0  0  0  0  0  0  0
    7.9885   -3.5467   23.1786 C   0  0  0  0  0  0  0  0  0  0  0  0
    6.3570   -3.4189   25.0646 C   0  0  0  0  0  0  0  0  0  0  0  0
    2.3424   -6.8077   24.1913 C   0  0  0  0  0  0  0  0  0  0  0  0
    8.6910   -3.1653   18.9427 C   0  0  0  0  0  0  0  0  0  0  0  0
    4.8078   -6.8559   24.3847 N   0  0  0  0  0  0  0  0  0  0  0  0
    7.3101   -2.7528   20.9484 N   0  0  0  0  0  0  0  0  0  0  0  0
    6.7808   -2.8351   23.7463 N   0  3  0  0  0  0  0  0  0  0  0  0
    6.3514   -3.5378   18.9835 O   0  0  0  0  0  0  0  0  0  0  0  0
    3.7766   -4.5036   24.6779 S   0  0  0  0  0  0  0  0  0  0  0  0
    9.2552   -1.4982   18.9571 Cl  0  0  0  0  0  0  0  0  0  0  0  0
    6.8583   -6.3462   24.6334 H   0  0  0  0  0  0  0  0  0  0  0  0
    6.3885   -3.2753   29.0425 H   0  0  0  0  0  0  0  0  0  0  0  0
    7.2167   -2.0265   28.1187 H   0  0  0  0  0  0  0  0  0  0  0  0
    8.4128   -4.1378   27.8296 H   0  0  0  0  0  0  0  0  0  0  0  0
    6.9342   -4.9830   27.3982 H   0  0  0  0  0  0  0  0  0  0  0  0
    4.6724   -3.5153   27.3212 H   0  0  0  0  0  0  0  0  0  0  0  0
    4.8019   -1.8224   27.7697 H   0  0  0  0  0  0  0  0  0  0  0  0
    8.3418   -2.8225   25.7618 H   0  0  0  0  0  0  0  0  0  0  0  0
    8.2013   -4.5243   25.3799 H   0  0  0  0  0  0  0  0  0  0  0  0
    4.6458   -2.1089   25.3221 H   0  0  0  0  0  0  0  0  0  0  0  0
    6.1628   -1.3562   25.7626 H   0  0  0  0  0  0  0  0  0  0  0  0
    5.3031   -2.1173   20.7427 H   0  0  0  0  0  0  0  0  0  0  0  0
    6.3590   -1.0593   21.6792 H   0  0  0  0  0  0  0  0  0  0  0  0
    8.7567   -1.8241   22.1117 H   0  0  0  0  0  0  0  0  0  0  0  0
    9.2774   -3.3783   21.4733 H   0  0  0  0  0  0  0  0  0  0  0  0
    4.8217   -2.2377   23.2188 H   0  0  0  0  0  0  0  0  0  0  0  0
    5.3211   -3.8307   22.5694 H   0  0  0  0  0  0  0  0  0  0  0  0
    7.7110   -4.5918   23.0013 H   0  0  0  0  0  0  0  0  0  0  0  0
    8.7802   -3.4981   23.9332 H   0  0  0  0  0  0  0  0  0  0  0  0
    1.9057   -7.1340   25.1480 H   0  0  0  0  0  0  0  0  0  0  0  0
    1.6355   -6.1063   23.7190 H   0  0  0  0  0  0  0  0  0  0  0  0
    2.3948   -7.6855   23.5267 H   0  0  0  0  0  0  0  0  0  0  0  0
    8.5733   -3.5096   17.9216 H   0  0  0  0  0  0  0  0  0  0  0  0
    9.3701   -3.7932   19.5080 H   0  0  0  0  0  0  0  0  0  0  0  0
    7.0593   -1.8598   23.9282 H   0  0  0  0  0  0  0  0  0  0  0  0
  1  2  2  0  0  0  0
  1 17  1  0  0  0  0
  2 14  1  0  0  0  0
  2 21  1  0  0  0  0
  3 15  1  0  0  0  0
  3 17  2  0  0  0  0
  3 21  1  0  0  0  0
  4 16  1  0  0  0  0
  4 18  1  0  0  0  0
  4 20  2  0  0  0  0
  5  6  1  0  0  0  0
  5  7  1  0  0  0  0
  6  8  1  0  0  0  0
  7  9  1  0  0  0  0
  8 14  1  0  0  0  0
  9 14  1  0  0  0  0
 10 12  1  0  0  0  0
 10 18  1  0  0  0  0
 11 13  1  0  0  0  0
 11 18  1  0  0  0  0
 12 19  1  0  0  0  0
 13 19  1  0  0  0  0
 14 19  1  0  0  0  0
 16 22  1  0  0  0  0
  1 23  1  0  0  0  0
  5 24  1  0  0  0  0
  5 25  1  0  0  0  0
  6 26  1  0  0  0  0
  6 27  1  0  0  0  0
  7 28  1  0  0  0  0
  7 29  1  0  0  0  0
  8 30  1  0  0  0  0
  8 31  1  0  0  0  0
  9 32  1  0  0  0  0
  9 33  1  0  0  0  0
 10 34  1  0  0  0  0
 10 35  1  0  0  0  0
 11 36  1  0  0  0  0
 11 37  1  0  0  0  0
 12 38  1  0  0  0  0
 12 39  1  0  0  0  0
 13 40  1  0  0  0  0
 13 41  1  0  0  0  0
 15 42  1  0  0  0  0
 15 43  1  0  0  0  0
 15 44  1  0  0  0  0
 16 45  1  0  0  0  0
 16 46  1  0  0  0  0
 19 47  1  0  0  0  0
M  CHG  1  19   1
M  END
> <creator>
Warren Thompson, XChem - Diamond Light Source

> <fragments>
x1478

> <real_space>
FALSE

> <SCR>
FALSE

> <BB>
FALSE

> <link>
https://covid.postera.ai/covid/submissions/79d12f6e-a32e-4f5a-9965-cd14d93bc08a

> <covalent_frag>
TRUE

> <covalent_warhead>
TRUE

> <acrylamide>
FALSE

> <acrylamide_adduct>
FALSE

> <chloroacetamide>
TRUE

> <chloroacetamide_adduct>
FALSE

> <vinylsulfonamide>
FALSE

> <vinylsulfonamide_adduct>
FALSE

> <in_molport_or_mcule>
FALSE

> <in_emolecules>
FALSE

> <Hybrid2>
-2.189257

> <Mpro-x1478_dock>
-2.189257

> <Mpro-x1493_dock>
-1.995141

> <site>
active-covalent

> <covalent_distance_min>
2.946113

> <covalent_distance_mean>
3.5023575

> <covalent_distance_stderr>
0.026866877

$$$$
MAK-UNK-c44-8
  -OEChem-04062011563D

 56 57  0     1  0  0  0  0  0999 V2000
    6.5720    5.4007   23.3267 C   0  0  0  0  0  0  0  0  0  0  0  0
    6.4970    6.2153   22.4480 C   0  0  0  0  0  0  0  0  0  0  0  0
    3.2627   -5.8817   27.3051 C   0  0  0  0  0  0  0  0  0  0  0  0
    3.9249   -5.1912   28.3201 C   0  0  0  0  0  0  0  0  0  0  0  0
    3.9687   -6.3219   26.1855 C   0  0  0  0  0  0  0  0  0  0  0  0
    5.2931   -4.9407   28.2154 C   0  0  0  0  0  0  0  0  0  0  0  0
    5.3369   -6.0714   26.0808 C   0  0  0  0  0  0  0  0  0  0  0  0
   12.0649   -0.0869   24.5248 C   0  0  0  0  0  0  0  0  0  0  0  0
   12.5049    1.0233   22.4246 C   0  0  0  0  0  0  0  0  0  0  0  0
   12.7799   -1.2011   24.0857 C   0  0  0  0  0  0  0  0  0  0  0  0
   13.2200   -0.0909   21.9854 C   0  0  0  0  0  0  0  0  0  0  0  0
    5.9991   -5.3808   27.0958 C   0  0  0  0  0  0  0  0  0  0  0  0
   11.9273    1.0253   23.6943 C   0  0  0  0  0  0  0  0  0  0  0  0
   13.3575   -1.2031   22.8160 C   0  0  0  0  0  0  0  0  0  0  0  0
    8.9131   -0.2127   23.7189 C   0  0  0  0  0  0  0  0  0  0  0  0
    8.9319    3.3838   24.3484 C   0  0  0  0  0  0  0  0  0  0  0  0
    6.6604    4.4112   24.3998 C   0  0  0  0  0  0  0  0  0  0  0  0
    7.4792   -5.1099   26.9819 C   0  0  0  0  0  0  0  0  0  0  0  0
   11.1542    2.2312   24.1695 C   0  0  0  0  0  0  0  0  0  0  0  0
    8.2058   -1.2462   24.5603 C   0  0  0  0  0  0  0  0  0  0  0  0
    7.7907   -3.7866   26.2871 C   0  0  0  0  0  0  0  0  0  0  0  0
    9.6640    2.1565   23.8173 C   0  0  1  0  0  0  0  0  0  0  0  0
    7.5762    3.3481   24.0533 N   0  0  0  0  0  0  0  0  0  0  0  0
    9.0262    0.9983   24.3908 N   0  0  0  0  0  0  0  0  0  0  0  0
    7.2378   -3.7203   24.9224 N   0  0  0  0  0  0  0  0  0  0  0  0
    9.3332   -0.4312   22.5862 O   0  0  0  0  0  0  0  0  0  0  0  0
    9.5033    4.3050   24.9278 O   0  0  0  0  0  0  0  0  0  0  0  0
    7.1993   -2.6270   22.5777 O   0  0  0  0  0  0  0  0  0  0  0  0
    9.3955   -3.3516   23.5818 O   0  0  0  0  0  0  0  0  0  0  0  0
   14.0563   -2.2900   22.3882 O   0  0  0  0  0  0  0  0  0  0  0  0
    8.0590   -2.7967   23.7398 S   0  0  0  0  0  0  0  0  0  0  0  0
    6.3786    7.5047   21.0572 Br  0  0  0  0  0  0  0  0  0  0  0  0
    2.1976   -6.0779   27.3873 H   0  0  0  0  0  0  0  0  0  0  0  0
    3.3756   -4.8493   29.1924 H   0  0  0  0  0  0  0  0  0  0  0  0
    3.4537   -6.8605   25.3955 H   0  0  0  0  0  0  0  0  0  0  0  0
    5.8007   -4.4017   29.0111 H   0  0  0  0  0  0  0  0  0  0  0  0
    5.8788   -6.4180   25.2048 H   0  0  0  0  0  0  0  0  0  0  0  0
   11.6182   -0.0941   25.5154 H   0  0  0  0  0  0  0  0  0  0  0  0
   12.4027    1.8855   21.7706 H   0  0  0  0  0  0  0  0  0  0  0  0
   12.8838   -2.0645   24.7375 H   0  0  0  0  0  0  0  0  0  0  0  0
   13.6677   -0.0862   20.9956 H   0  0  0  0  0  0  0  0  0  0  0  0
    5.6864    3.9544   24.5979 H   0  0  0  0  0  0  0  0  0  0  0  0
    7.0219    4.8697   25.3250 H   0  0  0  0  0  0  0  0  0  0  0  0
    7.9412   -5.9317   26.4203 H   0  0  0  0  0  0  0  0  0  0  0  0
    7.9380   -5.1302   27.9787 H   0  0  0  0  0  0  0  0  0  0  0  0
   11.2833    2.3489   25.2540 H   0  0  0  0  0  0  0  0  0  0  0  0
   11.6086    3.1273   23.7265 H   0  0  0  0  0  0  0  0  0  0  0  0
    8.7635   -1.4183   25.4848 H   0  0  0  0  0  0  0  0  0  0  0  0
    7.1938   -0.9064   24.7971 H   0  0  0  0  0  0  0  0  0  0  0  0
    7.3474   -2.9576   26.8478 H   0  0  0  0  0  0  0  0  0  0  0  0
    8.8693   -3.6120   26.2153 H   0  0  0  0  0  0  0  0  0  0  0  0
    9.5146    2.0907   22.7332 H   0  0  0  0  0  0  0  0  0  0  0  0
    7.2091    2.5340   23.5694 H   0  0  0  0  0  0  0  0  0  0  0  0
    8.6415    1.0706   25.3299 H   0  0  0  0  0  0  0  0  0  0  0  0
    6.2101   -3.7069   24.8888 H   0  0  0  0  0  0  0  0  0  0  0  0
   14.0635   -2.9765   23.0741 H   0  0  0  0  0  0  0  0  0  0  0  0
  1  2  3  0  0  0  0
  1 17  1  0  0  0  0
  2 32  1  0  0  0  0
  3  4  1  0  0  0  0
  3  5  2  0  0  0  0
  4  6  2  0  0  0  0
  5  7  1  0  0  0  0
  6 12  1  0  0  0  0
  7 12  2  0  0  0  0
  8 10  2  0  0  0  0
  8 13  1  0  0  0  0
  9 11  1  0  0  0  0
  9 13  2  0  0  0  0
 10 14  1  0  0  0  0
 11 14  2  0  0  0  0
 12 18  1  0  0  0  0
 13 19  1  0  0  0  0
 14 30  1  0  0  0  0
 15 20  1  0  0  0  0
 15 24  1  0  0  0  0
 15 26  2  0  0  0  0
 16 22  1  0  0  0  0
 16 23  1  0  0  0  0
 16 27  2  0  0  0  0
 17 23  1  0  0  0  0
 18 21  1  0  0  0  0
 19 22  1  0  0  0  0
 20 31  1  0  0  0  0
 21 25  1  0  0  0  0
 22 24  1  0  0  0  0
 25 31  1  0  0  0  0
 28 31  2  0  0  0  0
 29 31  2  0  0  0  0
  3 33  1  0  0  0  0
  4 34  1  0  0  0  0
  5 35  1  0  0  0  0
  6 36  1  0  0  0  0
  7 37  1  0  0  0  0
  8 38  1  0  0  0  0
  9 39  1  0  0  0  0
 10 40  1  0  0  0  0
 11 41  1  0  0  0  0
 17 42  1  0  0  0  0
 17 43  1  0  0  0  0
 18 44  1  0  0  0  0
 18 45  1  0  0  0  0
 19 46  1  0  0  0  0
 19 47  1  0  0  0  0
 20 48  1  0  0  0  0
 20 49  1  0  0  0  0
 21 50  1  0  0  0  0
 21 51  1  0  0  0  0
 22 52  1  0  0  0  0
 23 53  1  0  0  0  0
 24 54  1  0  0  0  0
 25 55  1  0  0  0  0
 30 56  1  0  0  0  0
M  END
> <creator>
Maksym Voznyy

> <fragments>
x0072

> <real_space>
FALSE

> <SCR>
FALSE

> <BB>
FALSE

> <link>
https://covid.postera.ai/covid/submissions/c44f4be0-55d2-49d8-8adb-cb0f0569aa6b

> <covalent_frag>
FALSE

> <covalent_warhead>
TRUE

> <acrylamide>
FALSE

> <acrylamide_adduct>
FALSE

> <chloroacetamide>
FALSE

> <chloroacetamide_adduct>
TRUE

> <vinylsulfonamide>
FALSE

> <vinylsulfonamide_adduct>
FALSE

> <in_molport_or_mcule>
FALSE

> <in_emolecules>
FALSE

> <Hybrid2>
-2.181119

> <Mpro-x0072_dock>
-2.181119

> <Mpro-x0967_dock>
-1.69085

> <site>
active-noncovalent

> <covalent_distance_min>
5.605107

> <covalent_distance_mean>
6.343585

> <covalent_distance_stderr>
0.030471964

$$$$
WAR-XCH-b03-18
  -OEChem-04062011563D

 42 43  0     0  0  0  0  0  0999 V2000
    2.9540   -7.1727   28.9317 C   0  0  0  0  0  0  0  0  0  0  0  0
    6.6087   -4.1127   21.1991 C   0  0  0  0  0  0  0  0  0  0  0  0
    4.1088   -7.0241   25.5420 C   0  0  0  0  0  0  0  0  0  0  0  0
    5.9616   -6.2808   27.0983 C   0  0  0  0  0  0  0  0  0  0  0  0
    3.0906   -6.5008   26.5550 C   0  0  0  0  0  0  0  0  0  0  0  0
    4.8991   -5.7755   28.0756 C   0  0  0  0  0  0  0  0  0  0  0  0
    5.0323   -5.3082   22.6829 C   0  0  0  0  0  0  0  0  0  0  0  0
    7.2805   -4.7840   23.5574 C   0  0  0  0  0  0  0  0  0  0  0  0
    4.3923   -4.7820   23.9591 C   0  0  0  0  0  0  0  0  0  0  0  0
    6.6708   -4.2527   24.8478 C   0  0  0  0  0  0  0  0  0  0  0  0
    5.4644   -6.3223   25.6513 C   0  0  0  0  0  0  0  0  0  0  0  0
    3.5883   -7.1484   30.2994 C   0  0  0  0  0  0  0  0  0  0  0  0
    7.9681   -3.4820   21.0311 C   0  0  0  0  0  0  0  0  0  0  0  0
    3.6431   -6.5180   27.9109 N   0  0  0  0  0  0  0  0  0  0  0  0
    6.3320   -4.6801   22.4429 N   0  0  0  0  0  0  0  0  0  0  0  0
    5.3432   -4.9182   25.1255 N   0  3  0  0  0  0  0  0  0  0  0  0
    1.8792   -7.7582   28.7768 O   0  0  0  0  0  0  0  0  0  0  0  0
    5.8169   -4.0981   20.2531 O   0  0  0  0  0  0  0  0  0  0  0  0
    2.4945   -8.0084   31.3774 Cl  0  0  0  0  0  0  0  0  0  0  0  0
    7.7958   -1.7878   21.4759 Cl  0  0  0  0  0  0  0  0  0  0  0  0
    4.2548   -8.0988   25.7131 H   0  0  0  0  0  0  0  0  0  0  0  0
    3.7067   -6.9266   24.5264 H   0  0  0  0  0  0  0  0  0  0  0  0
    6.8625   -5.6604   27.1764 H   0  0  0  0  0  0  0  0  0  0  0  0
    6.2591   -7.2945   27.3967 H   0  0  0  0  0  0  0  0  0  0  0  0
    2.8053   -5.4672   26.3289 H   0  0  0  0  0  0  0  0  0  0  0  0
    2.1788   -7.1038   26.4991 H   0  0  0  0  0  0  0  0  0  0  0  0
    5.2867   -5.8509   29.0933 H   0  0  0  0  0  0  0  0  0  0  0  0
    4.6758   -4.7172   27.8995 H   0  0  0  0  0  0  0  0  0  0  0  0
    5.1336   -6.3970   22.7469 H   0  0  0  0  0  0  0  0  0  0  0  0
    4.3978   -5.0938   21.8133 H   0  0  0  0  0  0  0  0  0  0  0  0
    8.1695   -4.2020   23.2827 H   0  0  0  0  0  0  0  0  0  0  0  0
    7.6112   -5.8128   23.7158 H   0  0  0  0  0  0  0  0  0  0  0  0
    4.1542   -3.7127   23.8580 H   0  0  0  0  0  0  0  0  0  0  0  0
    3.4713   -5.3305   24.2117 H   0  0  0  0  0  0  0  0  0  0  0  0
    7.3252   -4.4356   25.7146 H   0  0  0  0  0  0  0  0  0  0  0  0
    6.4809   -3.1720   24.7666 H   0  0  0  0  0  0  0  0  0  0  0  0
    6.2029   -6.8150   25.0082 H   0  0  0  0  0  0  0  0  0  0  0  0
    3.6930   -6.1181   30.6201 H   0  0  0  0  0  0  0  0  0  0  0  0
    4.5433   -7.6590   30.2531 H   0  0  0  0  0  0  0  0  0  0  0  0
    8.2684   -3.5655   19.9928 H   0  0  0  0  0  0  0  0  0  0  0  0
    8.6679   -3.9727   21.6977 H   0  0  0  0  0  0  0  0  0  0  0  0
    4.9061   -4.3589   25.9148 H   0  0  0  0  0  0  0  0  0  0  0  0
  1 12  1  0  0  0  0
  1 14  1  0  0  0  0
  1 17  2  0  0  0  0
  2 13  1  0  0  0  0
  2 15  1  0  0  0  0
  2 18  2  0  0  0  0
  3  5  1  0  0  0  0
  3 11  1  0  0  0  0
  4  6  1  0  0  0  0
  4 11  1  0  0  0  0
  5 14  1  0  0  0  0
  6 14  1  0  0  0  0
  7  9  1  0  0  0  0
  7 15  1  0  0  0  0
  8 10  1  0  0  0  0
  8 15  1  0  0  0  0
  9 16  1  0  0  0  0
 10 16  1  0  0  0  0
 11 16  1  0  0  0  0
 12 19  1  0  0  0  0
 13 20  1  0  0  0  0
  3 21  1  0  0  0  0
  3 22  1  0  0  0  0
  4 23  1  0  0  0  0
  4 24  1  0  0  0  0
  5 25  1  0  0  0  0
  5 26  1  0  0  0  0
  6 27  1  0  0  0  0
  6 28  1  0  0  0  0
  7 29  1  0  0  0  0
  7 30  1  0  0  0  0
  8 31  1  0  0  0  0
  8 32  1  0  0  0  0
  9 33  1  0  0  0  0
  9 34  1  0  0  0  0
 10 35  1  0  0  0  0
 10 36  1  0  0  0  0
 11 37  1  0  0  0  0
 12 38  1  0  0  0  0
 12 39  1  0  0  0  0
 13 40  1  0  0  0  0
 13 41  1  0  0  0  0
 16 42  1  0  0  0  0
M  CHG  1  16   1
M  END
> <creator>
Warren Thompson, XChem - Diamond Light Source

> <fragments>
x1493

> <real_space>
FALSE

> <SCR>
FALSE

> <BB>
FALSE

> <link>
https://covid.postera.ai/covid/submissions/b0339bbe-c90e-4133-a07d-b9c731b043e2

> <covalent_frag>
TRUE

> <covalent_warhead>
TRUE

> <acrylamide>
FALSE

> <acrylamide_adduct>
FALSE

> <chloroacetamide>
TRUE

> <chloroacetamide_adduct>
FALSE

> <vinylsulfonamide>
FALSE

> <vinylsulfonamide_adduct>
FALSE

> <in_molport_or_mcule>
FALSE

> <in_emolecules>
FALSE

> <Hybrid2>
-2.098330

> <Mpro-x1493_dock>
-2.09833

> <Mpro-x1478_dock>
-1.84363

> <Mpro-x1458_dock>
-0.821332

> <site>
active-covalent

> <covalent_distance_min>
8.3478365

> <covalent_distance_mean>
8.771611

> <covalent_distance_stderr>
0.042521454

$$$$
DAV-CRI-f47-1
  -OEChem-04062011563D

 63 67  0     1  0  0  0  0  0999 V2000
    8.1862   -0.8930   20.7850 C   0  0  0  0  0  0  0  0  0  0  0  0
    6.8499   -1.1806   21.0625 C   0  0  0  0  0  0  0  0  0  0  0  0
    9.2006   -1.5790   21.4531 C   0  0  0  0  0  0  0  0  0  0  0  0
    6.5278   -2.1540   22.0082 C   0  0  0  0  0  0  0  0  0  0  0  0
    8.8785   -2.5524   22.3988 C   0  0  0  0  0  0  0  0  0  0  0  0
    3.6370   -5.3233   23.5949 C   0  0  0  0  0  0  0  0  0  0  0  0
    3.7465   -6.2440   22.5529 C   0  0  0  0  0  0  0  0  0  0  0  0
    6.0698   -5.6623   22.2905 C   0  0  0  0  0  0  0  0  0  0  0  0
    7.5421   -2.8400   22.6763 C   0  0  0  0  0  0  0  0  0  0  0  0
    4.7448   -4.5620   24.0067 C   0  0  0  0  0  0  0  0  0  0  0  0
    5.9730   -4.7303   23.3387 C   0  0  0  0  0  0  0  0  0  0  0  0
    4.9635   -6.4155   21.9027 C   0  0  0  0  0  0  0  0  0  0  0  0
    2.5031   -2.1276   27.3626 C   0  0  0  0  0  0  0  0  0  0  0  0
    5.5383   -1.3598   25.7345 C   0  0  0  0  0  0  0  0  0  0  0  0
    1.9977   -0.7809   27.8247 C   0  0  0  0  0  0  0  0  0  0  0  0
    3.2759   -0.0205   28.1572 C   0  0  0  0  0  0  0  0  0  0  0  0
    4.2427   -1.1050   28.5888 C   0  0  0  0  0  0  0  0  0  0  0  0
    7.0613   -3.2935   25.1137 C   0  0  0  0  0  0  0  0  0  0  0  0
    5.1103   -5.5598   26.6143 C   0  0  0  0  0  0  0  0  0  0  0  0
    4.4675   -4.3511   28.9062 C   0  0  0  0  0  0  0  0  0  0  0  0
    7.1911   -3.9032   23.7096 C   0  0  2  0  0  0  0  0  0  0  0  0
    4.5828   -3.5709   25.1471 C   0  0  1  0  0  0  0  0  0  0  0  0
    4.2855   -4.2758   26.4640 C   0  0  2  0  0  0  0  0  0  0  0  0
    4.6308   -3.4258   27.7013 C   0  0  1  0  0  0  0  0  0  0  0  0
    5.0827   -7.3991   20.7884 C   0  0  0  0  0  0  0  0  0  0  0  0
    6.7686   -0.5299   26.0022 C   0  0  0  0  0  0  0  0  0  0  0  0
    3.8111   -2.2516   27.8251 N   0  0  0  0  0  0  0  0  0  0  0  0
    5.7453   -2.6758   25.3104 N   0  0  0  0  0  0  0  0  0  0  0  0
    1.8389   -2.9442   26.7421 O   0  0  0  0  0  0  0  0  0  0  0  0
    4.4240   -0.8546   25.8953 O   0  0  0  0  0  0  0  0  0  0  0  0
    6.4579   -6.0806   28.8182 O   0  0  0  0  0  0  0  0  0  0  0  0
    4.0804   -6.9413   28.6124 O   0  0  0  0  0  0  0  0  0  0  0  0
    5.0913   -5.9352   28.3617 S   0  0  0  0  0  0  0  0  0  0  0  0
    7.2010    0.2363   24.4778 Cl  0  0  0  0  0  0  0  0  0  0  0  0
    8.4368   -0.1360   20.0477 H   0  0  0  0  0  0  0  0  0  0  0  0
    6.0600   -0.6474   20.5417 H   0  0  0  0  0  0  0  0  0  0  0  0
   10.2411   -1.3561   21.2364 H   0  0  0  0  0  0  0  0  0  0  0  0
    5.4838   -2.3713   22.2182 H   0  0  0  0  0  0  0  0  0  0  0  0
    9.6754   -3.0817   22.9144 H   0  0  0  0  0  0  0  0  0  0  0  0
    2.6744   -5.2001   24.0858 H   0  0  0  0  0  0  0  0  0  0  0  0
    2.8751   -6.8218   22.2564 H   0  0  0  0  0  0  0  0  0  0  0  0
    7.0178   -5.7955   21.7731 H   0  0  0  0  0  0  0  0  0  0  0  0
    1.4231   -0.2860   27.0381 H   0  0  0  0  0  0  0  0  0  0  0  0
    1.3745   -0.9249   28.7128 H   0  0  0  0  0  0  0  0  0  0  0  0
    3.6531    0.4828   27.2586 H   0  0  0  0  0  0  0  0  0  0  0  0
    3.1187    0.7367   28.9306 H   0  0  0  0  0  0  0  0  0  0  0  0
    5.2793   -0.8514   28.3526 H   0  0  0  0  0  0  0  0  0  0  0  0
    4.1451   -1.3400   29.6529 H   0  0  0  0  0  0  0  0  0  0  0  0
    7.1509   -4.0832   25.8706 H   0  0  0  0  0  0  0  0  0  0  0  0
    7.8783   -2.5933   25.3032 H   0  0  0  0  0  0  0  0  0  0  0  0
    4.6818   -6.3966   26.0554 H   0  0  0  0  0  0  0  0  0  0  0  0
    6.1545   -5.4131   26.3172 H   0  0  0  0  0  0  0  0  0  0  0  0
    5.0352   -4.0142   29.7766 H   0  0  0  0  0  0  0  0  0  0  0  0
    3.4150   -4.4893   29.1739 H   0  0  0  0  0  0  0  0  0  0  0  0
    8.0728   -4.5986   23.7479 H   0  0  0  0  0  0  0  0  0  0  0  0
    3.7188   -2.9379   24.9039 H   0  0  0  0  0  0  0  0  0  0  0  0
    3.2198   -4.5380   26.4884 H   0  0  0  0  0  0  0  0  0  0  0  0
    5.6736   -3.0842   27.6384 H   0  0  0  0  0  0  0  0  0  0  0  0
    4.8562   -6.9187   19.8285 H   0  0  0  0  0  0  0  0  0  0  0  0
    6.0947   -7.8213   20.7356 H   0  0  0  0  0  0  0  0  0  0  0  0
    4.3937   -8.2429   20.9260 H   0  0  0  0  0  0  0  0  0  0  0  0
    7.5689   -1.1834   26.3304 H   0  0  0  0  0  0  0  0  0  0  0  0
    6.5295    0.2241   26.7433 H   0  0  0  0  0  0  0  0  0  0  0  0
  1  2  1  0  0  0  0
  1  3  2  0  0  0  0
  2  4  2  0  0  0  0
  3  5  1  0  0  0  0
  4  9  1  0  0  0  0
  5  9  2  0  0  0  0
  6  7  2  0  0  0  0
  6 10  1  0  0  0  0
  7 12  1  0  0  0  0
  8 11  1  0  0  0  0
  8 12  2  0  0  0  0
  9 21  1  0  0  0  0
 10 11  2  0  0  0  0
 10 22  1  0  0  0  0
 11 21  1  0  0  0  0
 12 25  1  0  0  0  0
 13 15  1  0  0  0  0
 13 27  1  0  0  0  0
 13 29  2  0  0  0  0
 14 26  1  0  0  0  0
 14 28  1  0  0  0  0
 14 30  2  0  0  0  0
 15 16  1  0  0  0  0
 16 17  1  0  0  0  0
 17 27  1  0  0  0  0
 18 21  1  0  0  0  0
 18 28  1  0  0  0  0
 19 23  1  0  0  0  0
 19 33  1  0  0  0  0
 20 24  1  0  0  0  0
 20 33  1  0  0  0  0
 22 23  1  0  0  0  0
 22 28  1  0  0  0  0
 23 24  1  0  0  0  0
 24 27  1  0  0  0  0
 26 34  1  0  0  0  0
 31 33  2  0  0  0  0
 32 33  2  0  0  0  0
  1 35  1  0  0  0  0
  2 36  1  0  0  0  0
  3 37  1  0  0  0  0
  4 38  1  0  0  0  0
  5 39  1  0  0  0  0
  6 40  1  0  0  0  0
  7 41  1  0  0  0  0
  8 42  1  0  0  0  0
 15 43  1  0  0  0  0
 15 44  1  0  0  0  0
 16 45  1  0  0  0  0
 16 46  1  0  0  0  0
 17 47  1  0  0  0  0
 17 48  1  0  0  0  0
 18 49  1  0  0  0  0
 18 50  1  0  0  0  0
 19 51  1  0  0  0  0
 19 52  1  0  0  0  0
 20 53  1  0  0  0  0
 20 54  1  0  0  0  0
 21 55  1  0  0  0  0
 22 56  1  0  0  0  0
 23 57  1  0  0  0  0
 24 58  1  0  0  0  0
 25 59  1  0  0  0  0
 25 60  1  0  0  0  0
 25 61  1  0  0  0  0
 26 62  1  0  0  0  0
 26 63  1  0  0  0  0
M  END
> <creator>
David Briggs, Crick Institute

> <fragments>
x1384

> <real_space>
FALSE

> <SCR>
FALSE

> <BB>
FALSE

> <link>
https://covid.postera.ai/covid/submissions/f4772df7-f5a5-4208-a16e-3d41483cc4c7

> <covalent_frag>
TRUE

> <covalent_warhead>
TRUE

> <acrylamide>
FALSE

> <acrylamide_adduct>
FALSE

> <chloroacetamide>
TRUE

> <chloroacetamide_adduct>
FALSE

> <vinylsulfonamide>
FALSE

> <vinylsulfonamide_adduct>
FALSE

> <in_molport_or_mcule>
FALSE

> <in_emolecules>
FALSE

> <Hybrid2>
-2.095085

> <Mpro-x1384_dock>
-2.095085

> <Mpro-x1392_dock>
-1.230386

> <Mpro-x1375_dock>
-0.909456

> <site>
active-covalent

> <covalent_distance_min>
9.220733

> <covalent_distance_mean>
10.038219

> <covalent_distance_stderr>
0.06704017

$$$$
INS-INS-abe-1
  -OEChem-04062011563D

 74 78  0     1  0  0  0  0  0999 V2000
   13.1129    0.4966   23.4065 C   0  0  0  0  0  0  0  0  0  0  0  0
   13.0137   -0.2511   22.2332 C   0  0  0  0  0  0  0  0  0  0  0  0
   12.1070    0.4197   24.3698 C   0  0  0  0  0  0  0  0  0  0  0  0
    9.7132   -4.2391   25.9154 C   0  0  0  0  0  0  0  0  0  0  0  0
   11.9084   -1.0757   22.0230 C   0  0  0  0  0  0  0  0  0  0  0  0
   11.0017   -0.4048   24.1596 C   0  0  0  0  0  0  0  0  0  0  0  0
   10.1393   -3.4299   24.8616 C   0  0  0  0  0  0  0  0  0  0  0  0
    8.3682   -4.5620   26.0418 C   0  0  0  0  0  0  0  0  0  0  0  0
    8.8495    1.2072   22.1671 C   0  0  0  0  0  0  0  0  0  0  0  0
    6.8420    1.3434   23.9451 C   0  0  0  0  0  0  0  0  0  0  0  0
   10.9024   -1.1525   22.9863 C   0  0  0  0  0  0  0  0  0  0  0  0
    9.2246   -2.9057   23.9295 C   0  0  0  0  0  0  0  0  0  0  0  0
    7.4552   -4.0926   25.1011 C   0  0  0  0  0  0  0  0  0  0  0  0
    7.8742   -3.2838   24.0304 C   0  0  0  0  0  0  0  0  0  0  0  0
    8.1616    0.0867   22.5862 C   0  0  0  0  0  0  0  0  0  0  0  0
    8.4382    2.4022   22.7212 C   0  0  0  0  0  0  0  0  0  0  0  0
    6.1682   -6.4471   23.4576 C   0  0  0  0  0  0  0  0  0  0  0  0
    6.6049   -2.2418   20.6639 C   0  0  0  0  0  0  0  0  0  0  0  0
    6.3727   -6.8892   19.7572 C   0  0  0  0  0  0  0  0  0  0  0  0
    8.8777    4.8847   22.7415 C   0  0  0  0  0  0  0  0  0  0  0  0
    6.8398   -2.8530   23.0251 C   0  0  0  0  0  0  0  0  0  0  0  0
    5.5329   -5.5628   26.3379 C   0  0  0  0  0  0  0  0  0  0  0  0
    9.6909   -2.0557   22.7565 C   0  0  1  0  0  0  0  0  0  0  0  0
    5.9336   -4.5077   25.2729 C   0  0  2  0  0  0  0  0  0  0  0  0
    8.5440   -1.2855   22.0282 C   0  0  1  0  0  0  0  0  0  0  0  0
    5.2717   -5.4535   24.2168 C   0  0  2  0  0  0  0  0  0  0  0  0
    4.4128   -6.0242   25.3819 C   0  0  0  0  0  0  0  0  0  0  0  0
    6.4883   -8.7245   21.4605 C   0  0  0  0  0  0  0  0  0  0  0  0
    6.6917   -1.0818   19.7043 C   0  0  0  0  0  0  0  0  0  0  0  0
    6.7603   -7.2548   21.1817 C   0  0  2  0  0  0  0  0  0  0  0  0
    7.1489    0.1185   23.4771 N   0  0  0  0  0  0  0  0  0  0  0  0
    7.4342    2.5073   23.6163 N   0  0  0  0  0  0  0  0  0  0  0  0
    7.3574   -2.1567   21.8441 N   0  0  0  0  0  0  0  0  0  0  0  0
    7.1269   -7.5503   18.8109 N   0  0  0  0  0  0  0  0  0  0  0  0
    9.7486    5.7727   22.1246 N   0  0  0  0  0  0  0  0  0  0  0  0
    9.1078    3.5660   22.3252 N   0  0  0  0  0  0  0  0  0  0  0  0
    6.0149   -6.4076   22.0848 N   0  0  0  0  0  0  0  0  0  0  0  0
    6.9276   -7.1765   24.0844 O   0  0  0  0  0  0  0  0  0  0  0  0
    5.8950   -3.2081   20.3694 O   0  0  0  0  0  0  0  0  0  0  0  0
    5.5073   -6.0635   19.4759 O   0  0  0  0  0  0  0  0  0  0  0  0
    8.0312    5.2682   23.5447 O   0  0  0  0  0  0  0  0  0  0  0  0
    3.2152   -5.4196   25.5618 F   0  0  0  0  0  0  0  0  0  0  0  0
    4.1765   -7.3544   25.3522 F   0  0  0  0  0  0  0  0  0  0  0  0
    8.0449   -1.4182   18.6312 Cl  0  0  0  0  0  0  0  0  0  0  0  0
   13.9743    1.1375   23.5706 H   0  0  0  0  0  0  0  0  0  0  0  0
   13.7974   -0.1922   21.4835 H   0  0  0  0  0  0  0  0  0  0  0  0
   12.1844    1.0008   25.2839 H   0  0  0  0  0  0  0  0  0  0  0  0
   10.4339   -4.6196   26.6332 H   0  0  0  0  0  0  0  0  0  0  0  0
   11.8394   -1.6545   21.1058 H   0  0  0  0  0  0  0  0  0  0  0  0
   10.2227   -0.4583   24.9156 H   0  0  0  0  0  0  0  0  0  0  0  0
   11.2009   -3.2087   24.7807 H   0  0  0  0  0  0  0  0  0  0  0  0
    8.0410   -5.1913   26.8648 H   0  0  0  0  0  0  0  0  0  0  0  0
    9.6591    1.1477   21.4493 H   0  0  0  0  0  0  0  0  0  0  0  0
    6.0322    1.3983   24.6623 H   0  0  0  0  0  0  0  0  0  0  0  0
    6.2940   -3.7384   22.6909 H   0  0  0  0  0  0  0  0  0  0  0  0
    6.1332   -2.1673   23.5039 H   0  0  0  0  0  0  0  0  0  0  0  0
    6.2858   -6.3342   26.5412 H   0  0  0  0  0  0  0  0  0  0  0  0
    5.1925   -5.1461   27.2909 H   0  0  0  0  0  0  0  0  0  0  0  0
   10.0546   -2.8120   22.0001 H   0  0  0  0  0  0  0  0  0  0  0  0
    5.3402   -3.5812   25.3876 H   0  0  0  0  0  0  0  0  0  0  0  0
    8.9359   -1.0505   20.9799 H   0  0  0  0  0  0  0  0  0  0  0  0
    4.6661   -4.8914   23.4974 H   0  0  0  0  0  0  0  0  0  0  0  0
    5.4298   -8.9610   21.3082 H   0  0  0  0  0  0  0  0  0  0  0  0
    7.0798   -9.3696   20.8025 H   0  0  0  0  0  0  0  0  0  0  0  0
    6.7415   -8.9850   22.4947 H   0  0  0  0  0  0  0  0  0  0  0  0
    6.8785   -0.1753   20.2675 H   0  0  0  0  0  0  0  0  0  0  0  0
    5.7701   -1.0274   19.1374 H   0  0  0  0  0  0  0  0  0  0  0  0
    7.8211   -7.0287   21.3368 H   0  0  0  0  0  0  0  0  0  0  0  0
    7.8570   -8.2096   19.0609 H   0  0  0  0  0  0  0  0  0  0  0  0
    6.9691   -7.3993   17.8201 H   0  0  0  0  0  0  0  0  0  0  0  0
   10.4337    5.4153   21.4671 H   0  0  0  0  0  0  0  0  0  0  0  0
    9.7189    6.7689   22.3131 H   0  0  0  0  0  0  0  0  0  0  0  0
    9.8638    3.4504   21.6453 H   0  0  0  0  0  0  0  0  0  0  0  0
    5.3464   -5.7519   21.6917 H   0  0  0  0  0  0  0  0  0  0  0  0
  1  2  1  0  0  0  0
  1  3  2  0  0  0  0
  2  5  2  0  0  0  0
  3  6  1  0  0  0  0
  4  7  1  0  0  0  0
  4  8  2  0  0  0  0
  5 11  1  0  0  0  0
  6 11  2  0  0  0  0
  7 12  2  0  0  0  0
  8 13  1  0  0  0  0
  9 15  1  0  0  0  0
  9 16  2  0  0  0  0
 10 31  1  0  0  0  0
 10 32  2  0  0  0  0
 11 23  1  0  0  0  0
 12 14  1  0  0  0  0
 12 23  1  0  0  0  0
 13 14  2  0  0  0  0
 13 24  1  0  0  0  0
 14 21  1  0  0  0  0
 15 25  1  0  0  0  0
 15 31  2  0  0  0  0
 16 32  1  0  0  0  0
 16 36  1  0  0  0  0
 17 26  1  0  0  0  0
 17 37  1  0  0  0  0
 17 38  2  0  0  0  0
 18 29  1  0  0  0  0
 18 33  1  0  0  0  0
 18 39  2  0  0  0  0
 19 30  1  0  0  0  0
 19 34  1  0  0  0  0
 19 40  2  0  0  0  0
 20 35  1  0  0  0  0
 20 36  1  0  0  0  0
 20 41  2  0  0  0  0
 21 33  1  0  0  0  0
 22 24  1  0  0  0  0
 22 27  1  0  0  0  0
 23 25  1  0  0  0  0
 24 26  1  0  0  0  0
 25 33  1  0  0  0  0
 26 27  1  0  0  0  0
 27 42  1  0  0  0  0
 27 43  1  0  0  0  0
 28 30  1  0  0  0  0
 29 44  1  0  0  0  0
 30 37  1  0  0  0  0
  1 45  1  0  0  0  0
  2 46  1  0  0  0  0
  3 47  1  0  0  0  0
  4 48  1  0  0  0  0
  5 49  1  0  0  0  0
  6 50  1  0  0  0  0
  7 51  1  0  0  0  0
  8 52  1  0  0  0  0
  9 53  1  0  0  0  0
 10 54  1  0  0  0  0
 21 55  1  0  0  0  0
 21 56  1  0  0  0  0
 22 57  1  0  0  0  0
 22 58  1  0  0  0  0
 23 59  1  0  0  0  0
 24 60  1  0  0  0  0
 25 61  1  0  0  0  0
 26 62  1  0  0  0  0
 28 63  1  0  0  0  0
 28 64  1  0  0  0  0
 28 65  1  0  0  0  0
 29 66  1  0  0  0  0
 29 67  1  0  0  0  0
 30 68  1  0  0  0  0
 34 69  1  0  0  0  0
 34 70  1  0  0  0  0
 35 71  1  0  0  0  0
 35 72  1  0  0  0  0
 36 73  1  0  0  0  0
 37 74  1  0  0  0  0
M  END
> <creator>
INSCoV_5RFT_15, Insilico Medicine Hong Kong Ltd

> <fragments>
x1392

> <real_space>
FALSE

> <SCR>
FALSE

> <BB>
FALSE

> <link>
https://covid.postera.ai/covid/submissions/abeb49e4-ebef-4664-9a2b-7e97b779f4c8

> <covalent_frag>
TRUE

> <covalent_warhead>
TRUE

> <acrylamide>
FALSE

> <acrylamide_adduct>
FALSE

> <chloroacetamide>
TRUE

> <chloroacetamide_adduct>
FALSE

> <vinylsulfonamide>
FALSE

> <vinylsulfonamide_adduct>
FALSE

> <in_molport_or_mcule>
FALSE

> <in_emolecules>
FALSE

> <Hybrid2>
-2.085247

> <Mpro-x1392_dock>
-2.085247

> <site>
active-covalent

> <covalent_distance_min>
4.8662305

> <covalent_distance_mean>
5.6181245

> <covalent_distance_stderr>
0.038608942

$$$$
INS-INS-9a4-1
  -OEChem-04062011563D

 74 78  0     1  0  0  0  0  0999 V2000
   13.1129    0.4966   23.4065 C   0  0  0  0  0  0  0  0  0  0  0  0
   13.0137   -0.2511   22.2332 C   0  0  0  0  0  0  0  0  0  0  0  0
   12.1070    0.4197   24.3698 C   0  0  0  0  0  0  0  0  0  0  0  0
    9.7132   -4.2391   25.9154 C   0  0  0  0  0  0  0  0  0  0  0  0
   11.9084   -1.0757   22.0230 C   0  0  0  0  0  0  0  0  0  0  0  0
   11.0017   -0.4048   24.1596 C   0  0  0  0  0  0  0  0  0  0  0  0
   10.1393   -3.4299   24.8616 C   0  0  0  0  0  0  0  0  0  0  0  0
    8.3682   -4.5620   26.0418 C   0  0  0  0  0  0  0  0  0  0  0  0
    8.8495    1.2072   22.1671 C   0  0  0  0  0  0  0  0  0  0  0  0
    6.8420    1.3434   23.9451 C   0  0  0  0  0  0  0  0  0  0  0  0
   10.9024   -1.1525   22.9863 C   0  0  0  0  0  0  0  0  0  0  0  0
    9.2246   -2.9057   23.9295 C   0  0  0  0  0  0  0  0  0  0  0  0
    7.4552   -4.0926   25.1011 C   0  0  0  0  0  0  0  0  0  0  0  0
    7.8742   -3.2838   24.0304 C   0  0  0  0  0  0  0  0  0  0  0  0
    8.1616    0.0867   22.5862 C   0  0  0  0  0  0  0  0  0  0  0  0
    8.4382    2.4022   22.7212 C   0  0  0  0  0  0  0  0  0  0  0  0
    6.1682   -6.4471   23.4576 C   0  0  0  0  0  0  0  0  0  0  0  0
    6.6049   -2.2418   20.6639 C   0  0  0  0  0  0  0  0  0  0  0  0
    6.3727   -6.8892   19.7572 C   0  0  0  0  0  0  0  0  0  0  0  0
    8.8777    4.8847   22.7415 C   0  0  0  0  0  0  0  0  0  0  0  0
    6.8398   -2.8530   23.0251 C   0  0  0  0  0  0  0  0  0  0  0  0
    5.5329   -5.5628   26.3379 C   0  0  0  0  0  0  0  0  0  0  0  0
    9.6909   -2.0557   22.7565 C   0  0  1  0  0  0  0  0  0  0  0  0
    5.9336   -4.5077   25.2729 C   0  0  2  0  0  0  0  0  0  0  0  0
    8.5440   -1.2855   22.0282 C   0  0  1  0  0  0  0  0  0  0  0  0
    5.2717   -5.4535   24.2168 C   0  0  2  0  0  0  0  0  0  0  0  0
    4.4128   -6.0242   25.3819 C   0  0  0  0  0  0  0  0  0  0  0  0
    6.4883   -8.7245   21.4605 C   0  0  0  0  0  0  0  0  0  0  0  0
    6.6917   -1.0818   19.7043 C   0  0  0  0  0  0  0  0  0  0  0  0
    6.7603   -7.2548   21.1817 C   0  0  2  0  0  0  0  0  0  0  0  0
    7.1489    0.1185   23.4771 N   0  0  0  0  0  0  0  0  0  0  0  0
    7.4342    2.5073   23.6163 N   0  0  0  0  0  0  0  0  0  0  0  0
    7.3574   -2.1567   21.8441 N   0  0  0  0  0  0  0  0  0  0  0  0
    7.1269   -7.5503   18.8109 N   0  0  0  0  0  0  0  0  0  0  0  0
    9.7486    5.7727   22.1246 N   0  0  0  0  0  0  0  0  0  0  0  0
    9.1078    3.5660   22.3252 N   0  0  0  0  0  0  0  0  0  0  0  0
    6.0149   -6.4076   22.0848 N   0  0  0  0  0  0  0  0  0  0  0  0
    6.9276   -7.1765   24.0844 O   0  0  0  0  0  0  0  0  0  0  0  0
    5.8950   -3.2081   20.3694 O   0  0  0  0  0  0  0  0  0  0  0  0
    5.5073   -6.0635   19.4759 O   0  0  0  0  0  0  0  0  0  0  0  0
    8.0312    5.2682   23.5447 O   0  0  0  0  0  0  0  0  0  0  0  0
    3.2152   -5.4196   25.5618 F   0  0  0  0  0  0  0  0  0  0  0  0
    4.1765   -7.3544   25.3522 F   0  0  0  0  0  0  0  0  0  0  0  0
    8.0449   -1.4182   18.6312 Cl  0  0  0  0  0  0  0  0  0  0  0  0
   13.9743    1.1375   23.5706 H   0  0  0  0  0  0  0  0  0  0  0  0
   13.7974   -0.1922   21.4835 H   0  0  0  0  0  0  0  0  0  0  0  0
   12.1844    1.0008   25.2839 H   0  0  0  0  0  0  0  0  0  0  0  0
   10.4339   -4.6196   26.6332 H   0  0  0  0  0  0  0  0  0  0  0  0
   11.8394   -1.6545   21.1058 H   0  0  0  0  0  0  0  0  0  0  0  0
   10.2227   -0.4583   24.9156 H   0  0  0  0  0  0  0  0  0  0  0  0
   11.2009   -3.2087   24.7807 H   0  0  0  0  0  0  0  0  0  0  0  0
    8.0410   -5.1913   26.8648 H   0  0  0  0  0  0  0  0  0  0  0  0
    9.6591    1.1477   21.4493 H   0  0  0  0  0  0  0  0  0  0  0  0
    6.0322    1.3983   24.6623 H   0  0  0  0  0  0  0  0  0  0  0  0
    6.2940   -3.7384   22.6909 H   0  0  0  0  0  0  0  0  0  0  0  0
    6.1332   -2.1673   23.5039 H   0  0  0  0  0  0  0  0  0  0  0  0
    6.2858   -6.3342   26.5412 H   0  0  0  0  0  0  0  0  0  0  0  0
    5.1925   -5.1461   27.2909 H   0  0  0  0  0  0  0  0  0  0  0  0
   10.0546   -2.8120   22.0001 H   0  0  0  0  0  0  0  0  0  0  0  0
    5.3402   -3.5812   25.3876 H   0  0  0  0  0  0  0  0  0  0  0  0
    8.9359   -1.0505   20.9799 H   0  0  0  0  0  0  0  0  0  0  0  0
    4.6661   -4.8914   23.4974 H   0  0  0  0  0  0  0  0  0  0  0  0
    5.4298   -8.9610   21.3082 H   0  0  0  0  0  0  0  0  0  0  0  0
    7.0798   -9.3696   20.8025 H   0  0  0  0  0  0  0  0  0  0  0  0
    6.7415   -8.9850   22.4947 H   0  0  0  0  0  0  0  0  0  0  0  0
    6.8785   -0.1753   20.2675 H   0  0  0  0  0  0  0  0  0  0  0  0
    5.7701   -1.0274   19.1374 H   0  0  0  0  0  0  0  0  0  0  0  0
    7.8211   -7.0287   21.3368 H   0  0  0  0  0  0  0  0  0  0  0  0
    7.8570   -8.2096   19.0609 H   0  0  0  0  0  0  0  0  0  0  0  0
    6.9691   -7.3993   17.8201 H   0  0  0  0  0  0  0  0  0  0  0  0
   10.4337    5.4153   21.4671 H   0  0  0  0  0  0  0  0  0  0  0  0
    9.7189    6.7689   22.3131 H   0  0  0  0  0  0  0  0  0  0  0  0
    9.8638    3.4504   21.6453 H   0  0  0  0  0  0  0  0  0  0  0  0
    5.3464   -5.7519   21.6917 H   0  0  0  0  0  0  0  0  0  0  0  0
  1  2  1  0  0  0  0
  1  3  2  0  0  0  0
  2  5  2  0  0  0  0
  3  6  1  0  0  0  0
  4  7  1  0  0  0  0
  4  8  2  0  0  0  0
  5 11  1  0  0  0  0
  6 11  2  0  0  0  0
  7 12  2  0  0  0  0
  8 13  1  0  0  0  0
  9 15  1  0  0  0  0
  9 16  2  0  0  0  0
 10 31  1  0  0  0  0
 10 32  2  0  0  0  0
 11 23  1  0  0  0  0
 12 14  1  0  0  0  0
 12 23  1  0  0  0  0
 13 14  2  0  0  0  0
 13 24  1  0  0  0  0
 14 21  1  0  0  0  0
 15 25  1  0  0  0  0
 15 31  2  0  0  0  0
 16 32  1  0  0  0  0
 16 36  1  0  0  0  0
 17 26  1  0  0  0  0
 17 37  1  0  0  0  0
 17 38  2  0  0  0  0
 18 29  1  0  0  0  0
 18 33  1  0  0  0  0
 18 39  2  0  0  0  0
 19 30  1  0  0  0  0
 19 34  1  0  0  0  0
 19 40  2  0  0  0  0
 20 35  1  0  0  0  0
 20 36  1  0  0  0  0
 20 41  2  0  0  0  0
 21 33  1  0  0  0  0
 22 24  1  0  0  0  0
 22 27  1  0  0  0  0
 23 25  1  0  0  0  0
 24 26  1  0  0  0  0
 25 33  1  0  0  0  0
 26 27  1  0  0  0  0
 27 42  1  0  0  0  0
 27 43  1  0  0  0  0
 28 30  1  0  0  0  0
 29 44  1  0  0  0  0
 30 37  1  0  0  0  0
  1 45  1  0  0  0  0
  2 46  1  0  0  0  0
  3 47  1  0  0  0  0
  4 48  1  0  0  0  0
  5 49  1  0  0  0  0
  6 50  1  0  0  0  0
  7 51  1  0  0  0  0
  8 52  1  0  0  0  0
  9 53  1  0  0  0  0
 10 54  1  0  0  0  0
 21 55  1  0  0  0  0
 21 56  1  0  0  0  0
 22 57  1  0  0  0  0
 22 58  1  0  0  0  0
 23 59  1  0  0  0  0
 24 60  1  0  0  0  0
 25 61  1  0  0  0  0
 26 62  1  0  0  0  0
 28 63  1  0  0  0  0
 28 64  1  0  0  0  0
 28 65  1  0  0  0  0
 29 66  1  0  0  0  0
 29 67  1  0  0  0  0
 30 68  1  0  0  0  0
 34 69  1  0  0  0  0
 34 70  1  0  0  0  0
 35 71  1  0  0  0  0
 35 72  1  0  0  0  0
 36 73  1  0  0  0  0
 37 74  1  0  0  0  0
M  END
> <creator>
INSCoV_5RFT_15, Insilico Medicine Hong Kong Ltd

> <fragments>
x1392

> <real_space>
FALSE

> <SCR>
FALSE

> <BB>
FALSE

> <link>
https://covid.postera.ai/covid/submissions/9a4863b0-1365-4b48-8f73-c38eaf74d32d

> <covalent_frag>
TRUE

> <covalent_warhead>
TRUE

> <acrylamide>
FALSE

> <acrylamide_adduct>
FALSE

> <chloroacetamide>
TRUE

> <chloroacetamide_adduct>
FALSE

> <vinylsulfonamide>
FALSE

> <vinylsulfonamide_adduct>
FALSE

> <in_molport_or_mcule>
FALSE

> <in_emolecules>
FALSE

> <Hybrid2>
-2.085247

> <Mpro-x1392_dock>
-2.085247

> <site>
active-covalent

> <covalent_distance_min>
3.2423563

> <covalent_distance_mean>
3.8706746

> <covalent_distance_stderr>
0.050899405

$$$$
AVI-UNI-a66-3
  -OEChem-04062011563D

 36 38  0     0  0  0  0  0  0999 V2000
   14.7052   -1.8182   22.3609 C   0  0  0  0  0  0  0  0  0  0  0  0
   13.5917   -2.0500   21.5532 C   0  0  0  0  0  0  0  0  0  0  0  0
    9.1389    0.0281   24.4083 C   0  0  0  0  0  0  0  0  0  0  0  0
    8.1545   -0.8572   24.8415 C   0  0  0  0  0  0  0  0  0  0  0  0
    8.4755   -2.1649   22.8434 C   0  0  0  0  0  0  0  0  0  0  0  0
   13.5466    0.0139   23.4058 C   0  0  0  0  0  0  0  0  0  0  0  0
    9.4687   -1.2801   22.3820 C   0  0  0  0  0  0  0  0  0  0  0  0
   14.6789   -0.7904   23.2946 C   0  0  0  0  0  0  0  0  0  0  0  0
   12.4206   -1.2820   21.6797 C   0  0  0  0  0  0  0  0  0  0  0  0
    9.7998   -0.1829   23.1885 C   0  0  0  0  0  0  0  0  0  0  0  0
   12.4203   -0.2183   22.5988 C   0  0  0  0  0  0  0  0  0  0  0  0
    7.8253   -1.9577   24.0605 C   0  0  0  0  0  0  0  0  0  0  0  0
   10.0858   -1.5346   21.0596 C   0  0  0  0  0  0  0  0  0  0  0  0
   15.8391   -0.5370   24.1341 C   0  0  0  0  0  0  0  0  0  0  0  0
    7.9385   -1.2947   19.9601 C   0  0  0  0  0  0  0  0  0  0  0  0
    7.2088   -1.7337   18.7151 C   0  0  0  0  0  0  0  0  0  0  0  0
   11.3992   -1.5762   20.8155 N   0  3  0  0  0  0  0  0  0  0  0  0
   16.9531   -1.3537   23.9629 N   0  0  0  0  0  0  0  0  0  0  0  0
    9.2447   -1.7976   20.0565 N   0  0  0  0  0  0  0  0  0  0  0  0
   15.8359    0.3661   24.9890 O   0  0  0  0  0  0  0  0  0  0  0  0
    7.4119   -0.5518   20.7872 O   0  0  0  0  0  0  0  0  0  0  0  0
   11.0777    0.9545   22.7106 S   0  0  0  0  0  0  0  0  0  0  0  0
    6.6155   -3.0609   24.5900 Cl  0  0  0  0  0  0  0  0  0  0  0  0
    8.1044   -1.1239   17.3147 Cl  0  0  0  0  0  0  0  0  0  0  0  0
   15.5862   -2.4442   22.2471 H   0  0  0  0  0  0  0  0  0  0  0  0
   13.6349   -2.8582   20.8252 H   0  0  0  0  0  0  0  0  0  0  0  0
    9.3905    0.8782   25.0387 H   0  0  0  0  0  0  0  0  0  0  0  0
    7.6589   -0.6767   25.7916 H   0  0  0  0  0  0  0  0  0  0  0  0
    8.2090   -3.0303   22.2383 H   0  0  0  0  0  0  0  0  0  0  0  0
   13.5504    0.8394   24.1161 H   0  0  0  0  0  0  0  0  0  0  0  0
    6.2036   -1.3033   18.7128 H   0  0  0  0  0  0  0  0  0  0  0  0
    7.1310   -2.8208   18.6340 H   0  0  0  0  0  0  0  0  0  0  0  0
   11.6655   -1.9593   19.9111 H   0  0  0  0  0  0  0  0  0  0  0  0
   17.7752   -1.1976   24.5360 H   0  0  0  0  0  0  0  0  0  0  0  0
   16.9609   -2.1019   23.2773 H   0  0  0  0  0  0  0  0  0  0  0  0
    9.5739   -2.4107   19.2977 H   0  0  0  0  0  0  0  0  0  0  0  0
  1  2  2  0  0  0  0
  1  8  1  0  0  0  0
  2  9  1  0  0  0  0
  3  4  2  0  0  0  0
  3 10  1  0  0  0  0
  4 12  1  0  0  0  0
  5  7  1  0  0  0  0
  5 12  2  0  0  0  0
  6  8  2  0  0  0  0
  6 11  1  0  0  0  0
  7 10  2  0  0  0  0
  7 13  1  0  0  0  0
  8 14  1  0  0  0  0
  9 11  2  0  0  0  0
  9 17  1  0  0  0  0
 10 22  1  0  0  0  0
 11 22  1  0  0  0  0
 12 23  1  0  0  0  0
 13 17  2  0  0  0  0
 13 19  1  0  0  0  0
 14 18  1  0  0  0  0
 14 20  2  0  0  0  0
 15 16  1  0  0  0  0
 15 19  1  0  0  0  0
 15 21  2  0  0  0  0
 16 24  1  0  0  0  0
  1 25  1  0  0  0  0
  2 26  1  0  0  0  0
  3 27  1  0  0  0  0
  4 28  1  0  0  0  0
  5 29  1  0  0  0  0
  6 30  1  0  0  0  0
 16 31  1  0  0  0  0
 16 32  1  0  0  0  0
 17 33  1  0  0  0  0
 18 34  1  0  0  0  0
 18 35  1  0  0  0  0
 19 36  1  0  0  0  0
M  CHG  1  17   1
M  END
> <creator>
Avinash Punekar, University of Dundee

> <fragments>
x1382

> <real_space>
FALSE

> <SCR>
FALSE

> <BB>
FALSE

> <link>
https://covid.postera.ai/covid/submissions/a66764d4-9e84-45cf-b096-f27dd30ef425

> <covalent_frag>
TRUE

> <covalent_warhead>
TRUE

> <acrylamide>
FALSE

> <acrylamide_adduct>
FALSE

> <chloroacetamide>
TRUE

> <chloroacetamide_adduct>
FALSE

> <vinylsulfonamide>
FALSE

> <vinylsulfonamide_adduct>
FALSE

> <in_molport_or_mcule>
FALSE

> <in_emolecules>
FALSE

> <Hybrid2>
-2.080060

> <Mpro-x1382_dock>
-2.08006

> <site>
active-covalent

> <covalent_distance_min>
3.047645

> <covalent_distance_mean>
3.463392

> <covalent_distance_stderr>
0.018011302

$$$$
WAR-XCH-79d-4
  -OEChem-04062011563D

 40 41  0     0  0  0  0  0  0999 V2000
    3.6636   -4.9728   25.4659 C   0  0  0  0  0  0  0  0  0  0  0  0
    3.3339   -2.5882   25.6710 C   0  0  0  0  0  0  0  0  0  0  0  0
    5.0398   -4.7947   25.6074 C   0  0  0  0  0  0  0  0  0  0  0  0
    4.7101   -2.4101   25.8125 C   0  0  0  0  0  0  0  0  0  0  0  0
    2.8106   -3.8696   25.4977 C   0  0  0  0  0  0  0  0  0  0  0  0
    5.5630   -3.5134   25.7807 C   0  0  0  0  0  0  0  0  0  0  0  0
    6.8978   -2.6068   19.4162 C   0  0  0  0  0  0  0  0  0  0  0  0
    8.3073   -1.4791   22.5622 C   0  0  0  0  0  0  0  0  0  0  0  0
    5.9678   -2.3854   22.8692 C   0  0  0  0  0  0  0  0  0  0  0  0
    8.4948   -2.4416   21.3887 C   0  0  0  0  0  0  0  0  0  0  0  0
    6.2060   -3.3189   21.6821 C   0  0  0  0  0  0  0  0  0  0  0  0
    7.2721   -1.9884   23.5717 C   0  0  0  0  0  0  0  0  0  0  0  0
    1.3392   -4.0596   25.3457 C   0  0  0  0  0  0  0  0  0  0  0  0
    7.9926   -2.0635   18.5330 C   0  0  0  0  0  0  0  0  0  0  0  0
    7.2039   -2.7612   20.7680 N   0  0  0  0  0  0  0  0  0  0  0  0
    7.8036   -3.0817   24.3525 N   0  0  0  0  0  0  0  0  0  0  0  0
    5.8034   -2.8830   18.9181 O   0  0  0  0  0  0  0  0  0  0  0  0
    7.5244   -2.0561   26.6968 O   0  0  0  0  0  0  0  0  0  0  0  0
    7.8456   -4.5390   26.4596 O   0  0  0  0  0  0  0  0  0  0  0  0
    7.3068   -3.2877   25.9622 S   0  0  0  0  0  0  0  0  0  0  0  0
    7.7999   -0.3141   18.5098 Cl  0  0  0  0  0  0  0  0  0  0  0  0
    3.2650   -5.9748   25.3310 H   0  0  0  0  0  0  0  0  0  0  0  0
    2.6770   -1.7228   25.6966 H   0  0  0  0  0  0  0  0  0  0  0  0
    5.6955   -5.6610   25.5806 H   0  0  0  0  0  0  0  0  0  0  0  0
    5.1071   -1.4074   25.9466 H   0  0  0  0  0  0  0  0  0  0  0  0
    9.2727   -1.3216   23.0576 H   0  0  0  0  0  0  0  0  0  0  0  0
    7.9835   -0.5051   22.1744 H   0  0  0  0  0  0  0  0  0  0  0  0
    5.4647   -1.4784   22.5102 H   0  0  0  0  0  0  0  0  0  0  0  0
    5.2856   -2.8687   23.5787 H   0  0  0  0  0  0  0  0  0  0  0  0
    9.1921   -2.0003   20.6741 H   0  0  0  0  0  0  0  0  0  0  0  0
    8.9391   -3.3867   21.7217 H   0  0  0  0  0  0  0  0  0  0  0  0
    6.5771   -4.2938   22.0183 H   0  0  0  0  0  0  0  0  0  0  0  0
    5.2588   -3.4968   21.1628 H   0  0  0  0  0  0  0  0  0  0  0  0
    7.0471   -1.1616   24.2786 H   0  0  0  0  0  0  0  0  0  0  0  0
    0.8701   -4.2089   26.3260 H   0  0  0  0  0  0  0  0  0  0  0  0
    0.8726   -3.1897   24.8656 H   0  0  0  0  0  0  0  0  0  0  0  0
    1.1128   -4.9295   24.7155 H   0  0  0  0  0  0  0  0  0  0  0  0
    7.8696   -2.4646   17.5334 H   0  0  0  0  0  0  0  0  0  0  0  0
    8.9530   -2.3266   18.9615 H   0  0  0  0  0  0  0  0  0  0  0  0
    8.1234   -3.8873   23.8131 H   0  0  0  0  0  0  0  0  0  0  0  0
  1  3  2  0  0  0  0
  1  5  1  0  0  0  0
  2  4  1  0  0  0  0
  2  5  2  0  0  0  0
  3  6  1  0  0  0  0
  4  6  2  0  0  0  0
  5 13  1  0  0  0  0
  6 20  1  0  0  0  0
  7 14  1  0  0  0  0
  7 15  1  0  0  0  0
  7 17  2  0  0  0  0
  8 10  1  0  0  0  0
  8 12  1  0  0  0  0
  9 11  1  0  0  0  0
  9 12  1  0  0  0  0
 10 15  1  0  0  0  0
 11 15  1  0  0  0  0
 12 16  1  0  0  0  0
 14 21  1  0  0  0  0
 16 20  1  0  0  0  0
 18 20  2  0  0  0  0
 19 20  2  0  0  0  0
  1 22  1  0  0  0  0
  2 23  1  0  0  0  0
  3 24  1  0  0  0  0
  4 25  1  0  0  0  0
  8 26  1  0  0  0  0
  8 27  1  0  0  0  0
  9 28  1  0  0  0  0
  9 29  1  0  0  0  0
 10 30  1  0  0  0  0
 10 31  1  0  0  0  0
 11 32  1  0  0  0  0
 11 33  1  0  0  0  0
 12 34  1  0  0  0  0
 13 35  1  0  0  0  0
 13 36  1  0  0  0  0
 13 37  1  0  0  0  0
 14 38  1  0  0  0  0
 14 39  1  0  0  0  0
 16 40  1  0  0  0  0
M  END
> <creator>
Warren Thompson, XChem - Diamond Light Source

> <fragments>
x1478

> <real_space>
FALSE

> <SCR>
FALSE

> <BB>
FALSE

> <link>
https://covid.postera.ai/covid/submissions/79d12f6e-a32e-4f5a-9965-cd14d93bc08a

> <covalent_frag>
TRUE

> <covalent_warhead>
TRUE

> <acrylamide>
FALSE

> <acrylamide_adduct>
FALSE

> <chloroacetamide>
TRUE

> <chloroacetamide_adduct>
FALSE

> <vinylsulfonamide>
FALSE

> <vinylsulfonamide_adduct>
FALSE

> <in_molport_or_mcule>
FALSE

> <in_emolecules>
FALSE

> <Hybrid2>
-2.043401

> <Mpro-x1478_dock>
-2.043401

> <Mpro-x1493_dock>
-1.856527

> <site>
active-covalent

> <covalent_distance_min>
2.958253

> <covalent_distance_mean>
3.3988738

> <covalent_distance_stderr>
0.015092734

$$$$
MAK-UNK-8fd-15
  -OEChem-04062011563D

 74 77  0     1  0  0  0  0  0999 V2000
    9.9646   -3.9322   25.3091 C   0  0  0  0  0  0  0  0  0  0  0  0
   14.1387    0.0700   20.4400 C   0  0  0  0  0  0  0  0  0  0  0  0
    9.5801   -2.8371   26.0827 C   0  0  0  0  0  0  0  0  0  0  0  0
   10.1502   -3.7844   23.9345 C   0  0  0  0  0  0  0  0  0  0  0  0
   13.4401    0.6735   21.4797 C   0  0  0  0  0  0  0  0  0  0  0  0
    8.2109    0.3467   22.9172 C   0  0  0  0  0  0  0  0  0  0  0  0
   14.2093   -1.3136   20.4233 C   0  0  0  0  0  0  0  0  0  0  0  0
   12.9703   -1.4894   22.3499 C   0  0  0  0  0  0  0  0  0  0  0  0
    9.8536    1.8652   22.6616 C   0  0  0  0  0  0  0  0  0  0  0  0
    9.5666   -1.4463   24.1072 C   0  0  0  0  0  0  0  0  0  0  0  0
    9.3811   -1.5942   25.4817 C   0  0  0  0  0  0  0  0  0  0  0  0
    8.5197    1.6326   22.4090 C   0  0  0  0  0  0  0  0  0  0  0  0
    9.9512   -2.5414   23.3336 C   0  0  0  0  0  0  0  0  0  0  0  0
   12.8418   -0.1139   22.4571 C   0  0  0  0  0  0  0  0  0  0  0  0
    9.3656   -0.1672   23.4650 C   0  0  0  0  0  0  0  0  0  0  0  0
    6.6599   -1.1400   25.6853 C   0  0  0  0  0  0  0  0  0  0  0  0
    4.0542   -5.2153   27.3169 C   0  0  0  0  0  0  0  0  0  0  0  0
    4.4621   -2.2637   25.3717 C   0  0  0  0  0  0  0  0  0  0  0  0
    5.3851   -1.8757   27.7085 C   0  0  0  0  0  0  0  0  0  0  0  0
    4.8569   -3.7334   25.5058 C   0  0  0  0  0  0  0  0  0  0  0  0
    5.7344   -3.3630   27.7772 C   0  0  0  0  0  0  0  0  0  0  0  0
    5.2945   -1.3467   26.2735 C   0  0  0  0  0  0  0  0  0  0  0  0
    9.5085   -0.5418   27.7770 C   0  0  0  0  0  0  0  0  0  0  0  0
    7.0149    0.8517   27.1526 C   0  0  0  0  0  0  0  0  0  0  0  0
    8.0337    1.7500   19.4113 C   0  0  0  0  0  0  0  0  0  0  0  0
    7.5859    2.5539   21.7334 C   0  0  0  0  0  0  0  0  0  0  0  0
    4.1038   -5.5743   28.7806 C   0  0  0  0  0  0  0  0  0  0  0  0
    8.9640   -0.4301   26.3545 C   0  0  2  0  0  0  0  0  0  0  0  0
   13.6411   -2.1117   21.3548 N   0  0  0  0  0  0  0  0  0  0  0  0
   10.3575    0.7646   23.3041 N   0  0  0  0  0  0  0  0  0  0  0  0
    4.8504   -4.1461   26.9086 N   0  0  0  0  0  0  0  0  0  0  0  0
    7.5119   -0.2732   26.3707 N   0  0  0  0  0  0  0  0  0  0  0  0
    7.9869    2.9083   20.3370 N   0  3  0  0  0  0  0  0  0  0  0  0
    6.9632   -1.7314   24.6457 O   0  0  0  0  0  0  0  0  0  0  0  0
    3.3274   -5.8655   26.5612 O   0  0  0  0  0  0  0  0  0  0  0  0
   11.9180   -0.3291   24.9113 O   0  0  0  0  0  0  0  0  0  0  0  0
   12.4971    1.9641   23.9738 O   0  0  0  0  0  0  0  0  0  0  0  0
   10.1341   -2.4172   22.0106 F   0  0  0  0  0  0  0  0  0  0  0  0
   11.9422    0.6199   23.7986 S   0  0  0  0  0  0  0  0  0  0  0  0
    2.9880   -6.9163   29.0082 Cl  0  0  0  0  0  0  0  0  0  0  0  0
   10.1196   -4.9001   25.7768 H   0  0  0  0  0  0  0  0  0  0  0  0
   14.6131    0.6639   19.6672 H   0  0  0  0  0  0  0  0  0  0  0  0
    9.4382   -2.9633   27.1528 H   0  0  0  0  0  0  0  0  0  0  0  0
   10.4497   -4.6369   23.3321 H   0  0  0  0  0  0  0  0  0  0  0  0
   13.3678    1.7569   21.5191 H   0  0  0  0  0  0  0  0  0  0  0  0
    7.2495   -0.1488   22.8855 H   0  0  0  0  0  0  0  0  0  0  0  0
   14.7426   -1.8329   19.6338 H   0  0  0  0  0  0  0  0  0  0  0  0
   12.5252   -2.1558   23.0822 H   0  0  0  0  0  0  0  0  0  0  0  0
   10.4808    2.7185   22.4383 H   0  0  0  0  0  0  0  0  0  0  0  0
    4.5588   -1.9592   24.3226 H   0  0  0  0  0  0  0  0  0  0  0  0
    3.4024   -2.1573   25.6370 H   0  0  0  0  0  0  0  0  0  0  0  0
    4.4181   -1.7206   28.2041 H   0  0  0  0  0  0  0  0  0  0  0  0
    6.1286   -1.3052   28.2781 H   0  0  0  0  0  0  0  0  0  0  0  0
    4.1747   -4.3518   24.9137 H   0  0  0  0  0  0  0  0  0  0  0  0
    5.8676   -3.9027   25.1167 H   0  0  0  0  0  0  0  0  0  0  0  0
    6.7611   -3.5372   27.4357 H   0  0  0  0  0  0  0  0  0  0  0  0
    5.6869   -3.6950   28.8160 H   0  0  0  0  0  0  0  0  0  0  0  0
    4.8270   -0.3543   26.2911 H   0  0  0  0  0  0  0  0  0  0  0  0
    9.1543   -1.4568   28.2643 H   0  0  0  0  0  0  0  0  0  0  0  0
   10.6041   -0.5644   27.7682 H   0  0  0  0  0  0  0  0  0  0  0  0
    9.2093    0.3096   28.3986 H   0  0  0  0  0  0  0  0  0  0  0  0
    6.8335    0.5275   28.1880 H   0  0  0  0  0  0  0  0  0  0  0  0
    7.7610    1.6600   27.1470 H   0  0  0  0  0  0  0  0  0  0  0  0
    6.0752    1.2171   26.7129 H   0  0  0  0  0  0  0  0  0  0  0  0
    7.0444    1.2889   19.4032 H   0  0  0  0  0  0  0  0  0  0  0  0
    8.3006    2.1241   18.4211 H   0  0  0  0  0  0  0  0  0  0  0  0
    8.7877    1.0543   19.7845 H   0  0  0  0  0  0  0  0  0  0  0  0
    6.5672    2.1350   21.6513 H   0  0  0  0  0  0  0  0  0  0  0  0
    7.4861    3.5164   22.2659 H   0  0  0  0  0  0  0  0  0  0  0  0
    3.7811   -4.7191   29.3634 H   0  0  0  0  0  0  0  0  0  0  0  0
    5.1122   -5.8815   29.0330 H   0  0  0  0  0  0  0  0  0  0  0  0
    9.3514    0.5005   25.9217 H   0  0  0  0  0  0  0  0  0  0  0  0
    8.9069    3.3628   20.3648 H   0  0  0  0  0  0  0  0  0  0  0  0
    7.3316    3.6106   19.9751 H   0  0  0  0  0  0  0  0  0  0  0  0
  1  3  2  0  0  0  0
  1  4  1  0  0  0  0
  2  5  2  0  0  0  0
  2  7  1  0  0  0  0
  3 11  1  0  0  0  0
  4 13  2  0  0  0  0
  5 14  1  0  0  0  0
  6 12  1  0  0  0  0
  6 15  2  0  0  0  0
  7 29  2  0  0  0  0
  8 14  2  0  0  0  0
  8 29  1  0  0  0  0
  9 12  2  0  0  0  0
  9 30  1  0  0  0  0
 10 11  2  0  0  0  0
 10 13  1  0  0  0  0
 10 15  1  0  0  0  0
 11 28  1  0  0  0  0
 12 26  1  0  0  0  0
 13 38  1  0  0  0  0
 14 39  1  0  0  0  0
 15 30  1  0  0  0  0
 16 22  1  0  0  0  0
 16 32  1  0  0  0  0
 16 34  2  0  0  0  0
 17 27  1  0  0  0  0
 17 31  1  0  0  0  0
 17 35  2  0  0  0  0
 18 20  1  0  0  0  0
 18 22  1  0  0  0  0
 19 21  1  0  0  0  0
 19 22  1  0  0  0  0
 20 31  1  0  0  0  0
 21 31  1  0  0  0  0
 23 28  1  0  0  0  0
 24 32  1  0  0  0  0
 25 33  1  0  0  0  0
 26 33  1  0  0  0  0
 27 40  1  0  0  0  0
 28 32  1  0  0  0  0
 30 39  1  0  0  0  0
 36 39  2  0  0  0  0
 37 39  2  0  0  0  0
  1 41  1  0  0  0  0
  2 42  1  0  0  0  0
  3 43  1  0  0  0  0
  4 44  1  0  0  0  0
  5 45  1  0  0  0  0
  6 46  1  0  0  0  0
  7 47  1  0  0  0  0
  8 48  1  0  0  0  0
  9 49  1  0  0  0  0
 18 50  1  0  0  0  0
 18 51  1  0  0  0  0
 19 52  1  0  0  0  0
 19 53  1  0  0  0  0
 20 54  1  0  0  0  0
 20 55  1  0  0  0  0
 21 56  1  0  0  0  0
 21 57  1  0  0  0  0
 22 58  1  0  0  0  0
 23 59  1  0  0  0  0
 23 60  1  0  0  0  0
 23 61  1  0  0  0  0
 24 62  1  0  0  0  0
 24 63  1  0  0  0  0
 24 64  1  0  0  0  0
 25 65  1  0  0  0  0
 25 66  1  0  0  0  0
 25 67  1  0  0  0  0
 26 68  1  0  0  0  0
 26 69  1  0  0  0  0
 27 70  1  0  0  0  0
 27 71  1  0  0  0  0
 28 72  1  0  0  0  0
 33 73  1  0  0  0  0
 33 74  1  0  0  0  0
M  CHG  1  33   1
M  END
> <creator>
Maksym Voznyy

> <fragments>
x0305

> <real_space>
FALSE

> <SCR>
FALSE

> <BB>
FALSE

> <link>
https://covid.postera.ai/covid/submissions/8fdbca50-c94c-4218-91b0-3b0489774fa8

> <covalent_frag>
FALSE

> <covalent_warhead>
TRUE

> <acrylamide>
FALSE

> <acrylamide_adduct>
FALSE

> <chloroacetamide>
TRUE

> <chloroacetamide_adduct>
FALSE

> <vinylsulfonamide>
FALSE

> <vinylsulfonamide_adduct>
FALSE

> <in_molport_or_mcule>
FALSE

> <in_emolecules>
FALSE

> <Hybrid2>
-1.952273

> <Mpro-x0305_dock>
-1.952273

> <site>
active-noncovalent

> <covalent_distance_min>
9.673618

> <covalent_distance_mean>
10.970919

> <covalent_distance_stderr>
0.06409642

$$$$
SIM-SYN-7db-1
  -OEChem-04062011563D

 52 54  0     1  0  0  0  0  0999 V2000
   12.5051    1.9226   24.6350 C   0  0  0  0  0  0  0  0  0  0  0  0
    8.4851   -1.9431   25.9284 C   0  0  0  0  0  0  0  0  0  0  0  0
   12.2885    0.5627   24.8573 C   0  0  0  0  0  0  0  0  0  0  0  0
   11.9299    2.5488   23.5292 C   0  0  0  0  0  0  0  0  0  0  0  0
    9.5137   -2.6130   25.2660 C   0  0  0  0  0  0  0  0  0  0  0  0
    7.2387   -1.8015   25.3184 C   0  0  0  0  0  0  0  0  0  0  0  0
   11.4968   -0.1710   23.9738 C   0  0  0  0  0  0  0  0  0  0  0  0
   11.1382    1.8151   22.6457 C   0  0  0  0  0  0  0  0  0  0  0  0
    9.2960   -3.1411   23.9935 C   0  0  0  0  0  0  0  0  0  0  0  0
    7.0210   -2.3296   24.0459 C   0  0  0  0  0  0  0  0  0  0  0  0
   10.9217    0.4552   22.8680 C   0  0  0  0  0  0  0  0  0  0  0  0
    8.0496   -2.9994   23.3834 C   0  0  0  0  0  0  0  0  0  0  0  0
   10.0785   -0.3264   21.9270 C   0  0  0  0  0  0  0  0  0  0  0  0
    5.4025   -2.0910   18.0336 C   0  0  0  0  0  0  0  0  0  0  0  0
    7.2808    0.8107   19.6697 C   0  0  0  0  0  0  0  0  0  0  0  0
    6.4223    0.1517   18.5872 C   0  0  0  0  0  0  0  0  0  0  0  0
    5.9860   -1.5340   20.3703 C   0  0  0  0  0  0  0  0  0  0  0  0
    8.1990   -0.2293   20.3108 C   0  0  2  0  0  0  0  0  0  0  0  0
    7.3693   -1.3280   20.9956 C   0  0  2  0  0  0  0  0  0  0  0  0
    7.8148   -3.5670   22.0146 C   0  0  0  0  0  0  0  0  0  0  0  0
    5.3032   -1.6084   16.6067 C   0  0  0  0  0  0  0  0  0  0  0  0
    5.9587   -1.1946   18.9489 N   0  0  0  0  0  0  0  0  0  0  0  0
    9.1111    0.3920   21.2407 N   0  0  0  0  0  0  0  0  0  0  0  0
    8.1316   -2.6079   20.9243 N   0  3  0  0  0  0  0  0  0  0  0  0
   10.2604   -1.5365   21.8219 O   0  0  0  0  0  0  0  0  0  0  0  0
    5.0087   -3.2238   18.3207 O   0  0  0  0  0  0  0  0  0  0  0  0
    6.8179   -2.0416   15.8219 Cl  0  0  0  0  0  0  0  0  0  0  0  0
   13.1215    2.4938   25.3228 H   0  0  0  0  0  0  0  0  0  0  0  0
    8.6544   -1.5332   26.9199 H   0  0  0  0  0  0  0  0  0  0  0  0
   12.7366    0.0753   25.7182 H   0  0  0  0  0  0  0  0  0  0  0  0
   12.0983    3.6077   23.3562 H   0  0  0  0  0  0  0  0  0  0  0  0
   10.4840   -2.7243   25.7413 H   0  0  0  0  0  0  0  0  0  0  0  0
    6.4373   -1.2810   25.8344 H   0  0  0  0  0  0  0  0  0  0  0  0
   11.3346   -1.2302   24.1566 H   0  0  0  0  0  0  0  0  0  0  0  0
   10.6952    2.3134   21.7873 H   0  0  0  0  0  0  0  0  0  0  0  0
   10.1034   -3.6613   23.4847 H   0  0  0  0  0  0  0  0  0  0  0  0
    6.0467   -2.2143   23.5783 H   0  0  0  0  0  0  0  0  0  0  0  0
    7.8707    1.6116   19.2213 H   0  0  0  0  0  0  0  0  0  0  0  0
    6.6261    1.2565   20.4219 H   0  0  0  0  0  0  0  0  0  0  0  0
    5.5663    0.8056   18.3499 H   0  0  0  0  0  0  0  0  0  0  0  0
    7.0008    0.0512   17.6517 H   0  0  0  0  0  0  0  0  0  0  0  0
    5.6774   -2.5937   20.4478 H   0  0  0  0  0  0  0  0  0  0  0  0
    5.2371   -0.9597   20.9399 H   0  0  0  0  0  0  0  0  0  0  0  0
    8.8236   -0.6812   19.5271 H   0  0  0  0  0  0  0  0  0  0  0  0
    7.2628   -1.1127   22.0753 H   0  0  0  0  0  0  0  0  0  0  0  0
    8.4334   -4.4544   21.8424 H   0  0  0  0  0  0  0  0  0  0  0  0
    6.7676   -3.8594   21.8819 H   0  0  0  0  0  0  0  0  0  0  0  0
    5.1792   -0.5315   16.6077 H   0  0  0  0  0  0  0  0  0  0  0  0
    4.4751   -2.1128   16.1220 H   0  0  0  0  0  0  0  0  0  0  0  0
    8.9794    1.3815   21.4277 H   0  0  0  0  0  0  0  0  0  0  0  0
    7.9503   -3.0560   20.0163 H   0  0  0  0  0  0  0  0  0  0  0  0
    9.1388   -2.3994   20.9389 H   0  0  0  0  0  0  0  0  0  0  0  0
  1  3  1  0  0  0  0
  1  4  2  0  0  0  0
  2  5  1  0  0  0  0
  2  6  2  0  0  0  0
  3  7  2  0  0  0  0
  4  8  1  0  0  0  0
  5  9  2  0  0  0  0
  6 10  1  0  0  0  0
  7 11  1  0  0  0  0
  8 11  2  0  0  0  0
  9 12  1  0  0  0  0
 10 12  2  0  0  0  0
 11 13  1  0  0  0  0
 12 20  1  0  0  0  0
 13 23  1  0  0  0  0
 13 25  2  0  0  0  0
 14 21  1  0  0  0  0
 14 22  1  0  0  0  0
 14 26  2  0  0  0  0
 15 16  1  0  0  0  0
 15 18  1  0  0  0  0
 16 22  1  0  0  0  0
 17 19  1  0  0  0  0
 17 22  1  0  0  0  0
 18 19  1  0  0  0  0
 18 23  1  0  0  0  0
 19 24  1  0  0  0  0
 20 24  1  0  0  0  0
 21 27  1  0  0  0  0
  1 28  1  0  0  0  0
  2 29  1  0  0  0  0
  3 30  1  0  0  0  0
  4 31  1  0  0  0  0
  5 32  1  0  0  0  0
  6 33  1  0  0  0  0
  7 34  1  0  0  0  0
  8 35  1  0  0  0  0
  9 36  1  0  0  0  0
 10 37  1  0  0  0  0
 15 38  1  0  0  0  0
 15 39  1  0  0  0  0
 16 40  1  0  0  0  0
 16 41  1  0  0  0  0
 17 42  1  0  0  0  0
 17 43  1  0  0  0  0
 18 44  1  0  0  0  0
 19 45  1  0  0  0  0
 20 46  1  0  0  0  0
 20 47  1  0  0  0  0
 21 48  1  0  0  0  0
 21 49  1  0  0  0  0
 23 50  1  0  0  0  0
 24 51  1  0  0  0  0
 24 52  1  0  0  0  0
M  CHG  1  24   1
M  END
> <creator>
Simon Williams, Syngenta

> <fragments>
x0692

> <real_space>
FALSE

> <SCR>
FALSE

> <BB>
FALSE

> <link>
https://covid.postera.ai/covid/submissions/7db9eb24-ae88-4a6e-a7b8-2fa5bcab2b8b

> <covalent_frag>
TRUE

> <covalent_warhead>
TRUE

> <acrylamide>
FALSE

> <acrylamide_adduct>
FALSE

> <chloroacetamide>
TRUE

> <chloroacetamide_adduct>
FALSE

> <vinylsulfonamide>
FALSE

> <vinylsulfonamide_adduct>
FALSE

> <in_molport_or_mcule>
FALSE

> <in_emolecules>
FALSE

> <Hybrid2>
-1.935841

> <Mpro-x0692_dock>
-1.935841

> <Mpro-x0397_dock>
-1.35095

> <Mpro-x1351_dock>
0.373592

> <site>
active-covalent

> <covalent_distance_min>
6.5559015

> <covalent_distance_mean>
6.9368496

> <covalent_distance_stderr>
0.020581935

$$$$
MAK-UNK-915-1
  -OEChem-04062011563D

 51 53  0     0  0  0  0  0  0999 V2000
    1.1297   -5.3404   27.0958 C   0  0  0  0  0  0  0  0  0  0  0  0
    9.2641   -1.2514   22.4978 C   0  0  0  0  0  0  0  0  0  0  0  0
    1.5355   -4.1042   27.5986 C   0  0  0  0  0  0  0  0  0  0  0  0
    8.6576   -0.7074   21.3657 C   0  0  0  0  0  0  0  0  0  0  0  0
    1.5360   -5.7433   25.8237 C   0  0  0  0  0  0  0  0  0  0  0  0
    8.6712   -2.3280   23.1575 C   0  0  0  0  0  0  0  0  0  0  0  0
    2.7538   -3.6738   25.5572 C   0  0  0  0  0  0  0  0  0  0  0  0
    6.8650   -2.3164   21.5529 C   0  0  0  0  0  0  0  0  0  0  0  0
    2.3475   -3.2709   26.8293 C   0  0  0  0  0  0  0  0  0  0  0  0
    7.4580   -1.2399   20.8932 C   0  0  0  0  0  0  0  0  0  0  0  0
    2.3481   -4.9100   25.0544 C   0  0  0  0  0  0  0  0  0  0  0  0
    7.4716   -2.8604   22.6851 C   0  0  0  0  0  0  0  0  0  0  0  0
    6.0354   -1.3667   18.8014 C   0  0  0  0  0  0  0  0  0  0  0  0
    2.7705   -1.9821   27.3533 C   0  0  0  0  0  0  0  0  0  0  0  0
    5.6848   -4.6032   23.0239 C   0  0  0  0  0  0  0  0  0  0  0  0
    5.6963   -0.3873   17.7007 C   0  0  0  0  0  0  0  0  0  0  0  0
    5.9271    0.9628   18.3496 C   0  0  0  0  0  0  0  0  0  0  0  0
    7.0483    0.6935   19.3313 C   0  0  0  0  0  0  0  0  0  0  0  0
    2.1460   -0.1876   28.7965 C   0  0  0  0  0  0  0  0  0  0  0  0
    5.4079   -5.7196   24.0059 C   0  0  0  0  0  0  0  0  0  0  0  0
    6.8386   -0.6834   19.7352 N   0  0  0  0  0  0  0  0  0  0  0  0
    6.8791   -3.9372   23.3453 N   0  0  0  0  0  0  0  0  0  0  0  0
    2.7665   -5.3269   23.7424 N   0  0  0  0  0  0  0  0  0  0  0  0
    5.6836   -2.5370   18.7716 O   0  0  0  0  0  0  0  0  0  0  0  0
    3.8353   -1.4221   27.0603 O   0  0  0  0  0  0  0  0  0  0  0  0
    4.9359   -4.3519   22.0859 O   0  0  0  0  0  0  0  0  0  0  0  0
    3.6735   -7.5157   24.7366 O   0  0  0  0  0  0  0  0  0  0  0  0
    4.0124   -7.1001   22.2754 O   0  0  0  0  0  0  0  0  0  0  0  0
    1.8434   -1.4596   28.2134 O   0  0  0  0  0  0  0  0  0  0  0  0
    3.9251   -6.5942   23.6370 S   0  0  0  0  0  0  0  0  0  0  0  0
    0.4979   -5.9896   27.6951 H   0  0  0  0  0  0  0  0  0  0  0  0
   10.1986   -0.8375   22.8651 H   0  0  0  0  0  0  0  0  0  0  0  0
    1.2125   -3.8003   28.5912 H   0  0  0  0  0  0  0  0  0  0  0  0
    9.1287    0.1320   20.8604 H   0  0  0  0  0  0  0  0  0  0  0  0
    1.2137   -6.7085   25.4412 H   0  0  0  0  0  0  0  0  0  0  0  0
    9.1529   -2.7428   24.0394 H   0  0  0  0  0  0  0  0  0  0  0  0
    3.3875   -3.0245   24.9569 H   0  0  0  0  0  0  0  0  0  0  0  0
    5.9291   -2.7315   21.1846 H   0  0  0  0  0  0  0  0  0  0  0  0
    6.3779   -0.5537   16.8606 H   0  0  0  0  0  0  0  0  0  0  0  0
    4.6612   -0.5107   17.3729 H   0  0  0  0  0  0  0  0  0  0  0  0
    6.1812    1.7378   17.6210 H   0  0  0  0  0  0  0  0  0  0  0  0
    5.0252    1.2806   18.8868 H   0  0  0  0  0  0  0  0  0  0  0  0
    8.0297    0.7647   18.8494 H   0  0  0  0  0  0  0  0  0  0  0  0
    7.0110    1.3624   20.1965 H   0  0  0  0  0  0  0  0  0  0  0  0
    1.3305    0.1139   29.4584 H   0  0  0  0  0  0  0  0  0  0  0  0
    2.2806    0.5542   28.0053 H   0  0  0  0  0  0  0  0  0  0  0  0
    3.0692   -0.2723   29.3747 H   0  0  0  0  0  0  0  0  0  0  0  0
    6.2260   -6.4450   23.9859 H   0  0  0  0  0  0  0  0  0  0  0  0
    5.3009   -5.3114   25.0148 H   0  0  0  0  0  0  0  0  0  0  0  0
    7.3743   -4.2923   24.1716 H   0  0  0  0  0  0  0  0  0  0  0  0
    2.9151   -4.5463   23.0887 H   0  0  0  0  0  0  0  0  0  0  0  0
  1  3  2  0  0  0  0
  1  5  1  0  0  0  0
  2  4  1  0  0  0  0
  2  6  2  0  0  0  0
  3  9  1  0  0  0  0
  4 10  2  0  0  0  0
  5 11  2  0  0  0  0
  6 12  1  0  0  0  0
  7  9  2  0  0  0  0
  7 11  1  0  0  0  0
  8 10  1  0  0  0  0
  8 12  2  0  0  0  0
  9 14  1  0  0  0  0
 10 21  1  0  0  0  0
 11 23  1  0  0  0  0
 12 22  1  0  0  0  0
 13 16  1  0  0  0  0
 13 21  1  0  0  0  0
 13 24  2  0  0  0  0
 14 25  2  0  0  0  0
 14 29  1  0  0  0  0
 15 20  1  0  0  0  0
 15 22  1  0  0  0  0
 15 26  2  0  0  0  0
 16 17  1  0  0  0  0
 17 18  1  0  0  0  0
 18 21  1  0  0  0  0
 19 29  1  0  0  0  0
 20 30  1  0  0  0  0
 23 30  1  0  0  0  0
 27 30  2  0  0  0  0
 28 30  2  0  0  0  0
  1 31  1  0  0  0  0
  2 32  1  0  0  0  0
  3 33  1  0  0  0  0
  4 34  1  0  0  0  0
  5 35  1  0  0  0  0
  6 36  1  0  0  0  0
  7 37  1  0  0  0  0
  8 38  1  0  0  0  0
 16 39  1  0  0  0  0
 16 40  1  0  0  0  0
 17 41  1  0  0  0  0
 17 42  1  0  0  0  0
 18 43  1  0  0  0  0
 18 44  1  0  0  0  0
 19 45  1  0  0  0  0
 19 46  1  0  0  0  0
 19 47  1  0  0  0  0
 20 48  1  0  0  0  0
 20 49  1  0  0  0  0
 22 50  1  0  0  0  0
 23 51  1  0  0  0  0
M  END
> <creator>
Maksym Voznyy

> <fragments>
x1384

> <real_space>
FALSE

> <SCR>
FALSE

> <BB>
FALSE

> <link>
https://covid.postera.ai/covid/submissions/9159f8ed-0ecf-4595-9756-c136bb7759c8

> <covalent_frag>
TRUE

> <covalent_warhead>
TRUE

> <acrylamide>
FALSE

> <acrylamide_adduct>
FALSE

> <chloroacetamide>
FALSE

> <chloroacetamide_adduct>
TRUE

> <vinylsulfonamide>
FALSE

> <vinylsulfonamide_adduct>
FALSE

> <in_molport_or_mcule>
FALSE

> <in_emolecules>
FALSE

> <Hybrid2>
-1.811847

> <Mpro-x1384_dock>
-1.811847

> <site>
active-covalent

> <covalent_distance_min>
9.306401

> <covalent_distance_mean>
9.957545

> <covalent_distance_stderr>
0.042733878

$$$$
TOB-UNK-c2a-7
  -OEChem-04062011563D

 43 46  0     1  0  0  0  0  0999 V2000
   12.0357    0.4777   24.7259 C   0  0  0  0  0  0  0  0  0  0  0  0
   10.8659   -0.2776   24.8594 C   0  0  0  0  0  0  0  0  0  0  0  0
   11.3164   -1.4762   22.7885 C   0  0  0  0  0  0  0  0  0  0  0  0
    8.5522   -2.4837   23.0938 C   0  0  0  0  0  0  0  0  0  0  0  0
   14.3364    0.1398   21.9910 C   0  0  0  0  0  0  0  0  0  0  0  0
   12.4951   -0.7264   22.6384 C   0  0  0  0  0  0  0  0  0  0  0  0
   12.8225    0.2233   23.6022 C   0  0  0  0  0  0  0  0  0  0  0  0
   10.5107   -1.2378   23.9091 C   0  0  0  0  0  0  0  0  0  0  0  0
    7.5418   -3.1048   23.7840 C   0  0  0  0  0  0  0  0  0  0  0  0
    6.4583   -0.1357   19.5230 C   0  0  0  0  0  0  0  0  0  0  0  0
    5.7070   -1.0756   18.9462 C   0  0  0  0  0  0  0  0  0  0  0  0
    4.4604   -2.1454   23.0027 C   0  0  0  0  0  0  0  0  0  0  0  0
    5.0029   -3.3343   23.7915 C   0  0  0  0  0  0  0  0  0  0  0  0
    4.4247   -2.4406   21.5093 C   0  0  0  0  0  0  0  0  0  0  0  0
    6.3222   -4.0240   21.7136 C   0  0  0  0  0  0  0  0  0  0  0  0
    6.3347   -3.8729   23.2429 C   0  0  1  0  0  0  0  0  0  0  0  0
   13.4471   -0.7641   21.6456 N   0  0  0  0  0  0  0  0  0  0  0  0
    7.7424   -2.9528   25.1279 N   0  0  0  0  0  0  0  0  0  0  0  0
    8.8563   -2.2489   25.2973 N   0  0  0  0  0  0  0  0  0  0  0  0
   14.0046    0.7617   23.1625 N   0  0  0  0  0  0  0  0  0  0  0  0
    9.3402   -1.9684   24.0765 N   0  0  0  0  0  0  0  0  0  0  0  0
    5.7920   -2.8001   21.0431 N   0  0  1  0  0  0  0  0  0  0  0  0
    5.0242   -3.5565   18.7219 O   0  0  0  0  0  0  0  0  0  0  0  0
    7.4436   -2.9816   19.0940 O   0  0  0  0  0  0  0  0  0  0  0  0
    6.0373   -2.7268   19.3494 S   0  0  0  0  0  0  0  0  0  0  0  0
   12.3136    1.2233   25.4621 H   0  0  0  0  0  0  0  0  0  0  0  0
   10.2305   -0.1026   25.7256 H   0  0  0  0  0  0  0  0  0  0  0  0
   11.0440   -2.2222   22.0474 H   0  0  0  0  0  0  0  0  0  0  0  0
    8.7640   -2.3706   22.0391 H   0  0  0  0  0  0  0  0  0  0  0  0
   15.2335    0.3909   21.4433 H   0  0  0  0  0  0  0  0  0  0  0  0
    6.2863    0.9116   19.2989 H   0  0  0  0  0  0  0  0  0  0  0  0
    7.2519   -0.3767   20.2222 H   0  0  0  0  0  0  0  0  0  0  0  0
    4.9157   -0.8325   18.2484 H   0  0  0  0  0  0  0  0  0  0  0  0
    3.4483   -1.9097   23.3557 H   0  0  0  0  0  0  0  0  0  0  0  0
    5.0814   -1.2622   23.1916 H   0  0  0  0  0  0  0  0  0  0  0  0
    5.1247   -3.0396   24.8552 H   0  0  0  0  0  0  0  0  0  0  0  0
    4.2430   -4.1426   23.8039 H   0  0  0  0  0  0  0  0  0  0  0  0
    3.7447   -3.2801   21.3291 H   0  0  0  0  0  0  0  0  0  0  0  0
    4.0584   -1.5721   20.9503 H   0  0  0  0  0  0  0  0  0  0  0  0
    7.3372   -4.2424   21.3283 H   0  0  0  0  0  0  0  0  0  0  0  0
    5.6882   -4.8880   21.4381 H   0  0  0  0  0  0  0  0  0  0  0  0
    6.4506   -4.9211   23.6750 H   0  0  0  0  0  0  0  0  0  0  0  0
   14.5359    1.4889   23.6224 H   0  0  0  0  0  0  0  0  0  0  0  0
  1  2  2  0  0  0  0
  1  7  1  0  0  0  0
  2  8  1  0  0  0  0
  3  6  1  0  0  0  0
  3  8  2  0  0  0  0
  4  9  2  0  0  0  0
  4 21  1  0  0  0  0
  5 17  2  0  0  0  0
  5 20  1  0  0  0  0
  6  7  2  0  0  0  0
  6 17  1  0  0  0  0
  7 20  1  0  0  0  0
  8 21  1  0  0  0  0
  9 16  1  0  0  0  0
  9 18  1  0  0  0  0
 10 11  2  0  0  0  0
 11 25  1  0  0  0  0
 12 13  1  0  0  0  0
 12 14  1  0  0  0  0
 13 16  1  0  0  0  0
 14 22  1  0  0  0  0
 15 16  1  0  0  0  0
 15 22  1  0  0  0  0
 18 19  2  0  0  0  0
 19 21  1  0  0  0  0
 22 25  1  0  0  0  0
 23 25  2  0  0  0  0
 24 25  2  0  0  0  0
  1 26  1  0  0  0  0
  2 27  1  0  0  0  0
  3 28  1  0  0  0  0
  4 29  1  0  0  0  0
  5 30  1  0  0  0  0
 10 31  1  0  0  0  0
 10 32  1  0  0  0  0
 11 33  1  0  0  0  0
 12 34  1  0  0  0  0
 12 35  1  0  0  0  0
 13 36  1  0  0  0  0
 13 37  1  0  0  0  0
 14 38  1  0  0  0  0
 14 39  1  0  0  0  0
 15 40  1  0  0  0  0
 15 41  1  0  0  0  0
 16 42  1  0  0  0  0
 20 43  1  0  0  0  0
M  END
> <creator>
Tobias Grabe

> <fragments>
x1386

> <real_space>
FALSE

> <SCR>
FALSE

> <BB>
FALSE

> <link>
https://covid.postera.ai/covid/submissions/c2aba166-fc0c-4b8c-b831-fecfdf920427

> <covalent_frag>
TRUE

> <covalent_warhead>
TRUE

> <acrylamide>
FALSE

> <acrylamide_adduct>
FALSE

> <chloroacetamide>
FALSE

> <chloroacetamide_adduct>
FALSE

> <vinylsulfonamide>
TRUE

> <vinylsulfonamide_adduct>
FALSE

> <in_molport_or_mcule>
FALSE

> <in_emolecules>
FALSE

> <Hybrid2>
-1.751881

> <Mpro-x1386_dock>
-1.751881

> <site>
active-covalent

> <covalent_distance_min>
6.896556

> <covalent_distance_mean>
8.0490465

> <covalent_distance_stderr>
0.074821286

$$$$
PED-UNI-b79-2
  -OEChem-04062011563D

 68 71  0     1  0  0  0  0  0999 V2000
    5.7145   -5.4510   24.4186 C   0  0  0  0  0  0  0  0  0  0  0  0
    8.0706   -4.8203   24.5954 C   0  0  0  0  0  0  0  0  0  0  0  0
    6.8008   -4.1596   22.6490 C   0  0  0  0  0  0  0  0  0  0  0  0
    9.1999   -4.1904   24.0725 C   0  0  0  0  0  0  0  0  0  0  0  0
    7.9302   -3.5297   22.1261 C   0  0  0  0  0  0  0  0  0  0  0  0
    6.3700    0.6290   26.5477 C   0  0  0  0  0  0  0  0  0  0  0  0
    7.5579    0.0612   27.0082 C   0  0  0  0  0  0  0  0  0  0  0  0
    7.6120    2.4936   25.6432 C   0  0  0  0  0  0  0  0  0  0  0  0
    6.8710   -4.8050   23.8836 C   0  0  0  0  0  0  0  0  0  0  0  0
    9.1297   -3.5451   22.8379 C   0  0  0  0  0  0  0  0  0  0  0  0
    8.7999    1.9257   26.1038 C   0  0  0  0  0  0  0  0  0  0  0  0
    6.3971    1.8452   25.8651 C   0  0  0  0  0  0  0  0  0  0  0  0
    8.7728    0.7095   26.7864 C   0  0  0  0  0  0  0  0  0  0  0  0
    5.6676   -0.5907   20.4550 C   0  0  0  0  0  0  0  0  0  0  0  0
   11.6966   -0.8068   22.5866 C   0  0  0  0  0  0  0  0  0  0  0  0
    5.5782    1.7759   21.3838 C   0  0  0  0  0  0  0  0  0  0  0  0
    4.0878    0.0199   22.2596 C   0  0  0  0  0  0  0  0  0  0  0  0
    5.9434    2.1799   22.8090 C   0  0  0  0  0  0  0  0  0  0  0  0
    4.4501    0.4154   23.6867 C   0  0  0  0  0  0  0  0  0  0  0  0
   12.9504    1.2782   23.0258 C   0  0  0  0  0  0  0  0  0  0  0  0
   11.0553    0.7459   24.5204 C   0  0  0  0  0  0  0  0  0  0  0  0
   12.5178    2.7339   23.0819 C   0  0  0  0  0  0  0  0  0  0  0  0
   10.7194    2.2404   24.5214 C   0  0  1  0  0  0  0  0  0  0  0  0
   10.0903    2.6568   25.8441 C   0  0  0  0  0  0  0  0  0  0  0  0
   10.3449   -2.8657   22.2758 C   0  0  0  0  0  0  0  0  0  0  0  0
    6.7255   -0.1293   19.4847 C   0  0  0  0  0  0  0  0  0  0  0  0
    4.7749   -5.9758   24.8530 N   0  0  0  0  0  0  0  0  0  0  0  0
    5.1654    0.3685   21.3327 N   0  0  0  0  0  0  0  0  0  0  0  0
   11.8359    0.3788   23.3298 N   0  0  0  0  0  0  0  0  0  0  0  0
    4.8039    1.8666   23.7236 N   0  0  0  0  0  0  0  0  0  0  0  0
   10.6192   -1.6111   22.9400 N   0  0  0  0  0  0  0  0  0  0  0  0
    5.3019   -1.7687   20.4338 O   0  0  0  0  0  0  0  0  0  0  0  0
   12.4768   -1.1257   21.6833 O   0  0  0  0  0  0  0  0  0  0  0  0
    3.8131    2.0476   26.1010 O   0  0  0  0  0  0  0  0  0  0  0  0
    5.1052    3.9924   25.1546 O   0  0  0  0  0  0  0  0  0  0  0  0
   11.9051    3.0188   24.3383 O   0  0  0  0  0  0  0  0  0  0  0  0
    4.9099    2.5556   25.2888 S   0  0  0  0  0  0  0  0  0  0  0  0
   10.2222   -0.0232   27.3707 Cl  0  0  0  0  0  0  0  0  0  0  0  0
    5.8827    0.3871   18.0284 Cl  0  0  0  0  0  0  0  0  0  0  0  0
    8.1415   -5.3208   25.5582 H   0  0  0  0  0  0  0  0  0  0  0  0
    5.8727   -4.1374   22.0827 H   0  0  0  0  0  0  0  0  0  0  0  0
   10.1304   -4.2082   24.6336 H   0  0  0  0  0  0  0  0  0  0  0  0
    7.8657   -3.0277   21.1643 H   0  0  0  0  0  0  0  0  0  0  0  0
    5.4290    0.1157   26.7258 H   0  0  0  0  0  0  0  0  0  0  0  0
    7.5196   -0.8870   27.5385 H   0  0  0  0  0  0  0  0  0  0  0  0
    7.6330    3.4417   25.1107 H   0  0  0  0  0  0  0  0  0  0  0  0
    4.7279    2.3685   21.0250 H   0  0  0  0  0  0  0  0  0  0  0  0
    6.4207    1.9809   20.7211 H   0  0  0  0  0  0  0  0  0  0  0  0
    3.8645   -1.0506   22.2156 H   0  0  0  0  0  0  0  0  0  0  0  0
    3.1919    0.5584   21.9277 H   0  0  0  0  0  0  0  0  0  0  0  0
    6.8444    1.6527   23.1434 H   0  0  0  0  0  0  0  0  0  0  0  0
    6.1412    3.2570   22.8343 H   0  0  0  0  0  0  0  0  0  0  0  0
    3.5865    0.2366   24.3364 H   0  0  0  0  0  0  0  0  0  0  0  0
    5.2921   -0.1822   24.0546 H   0  0  0  0  0  0  0  0  0  0  0  0
   13.3830    1.0812   22.0417 H   0  0  0  0  0  0  0  0  0  0  0  0
   13.7191    1.0820   23.7842 H   0  0  0  0  0  0  0  0  0  0  0  0
   11.6881    0.4966   25.3796 H   0  0  0  0  0  0  0  0  0  0  0  0
   10.1436    0.1473   24.5913 H   0  0  0  0  0  0  0  0  0  0  0  0
   13.3889    3.3848   22.9826 H   0  0  0  0  0  0  0  0  0  0  0  0
   11.8239    2.9764   22.2722 H   0  0  0  0  0  0  0  0  0  0  0  0
   10.0089    2.4717   23.7121 H   0  0  0  0  0  0  0  0  0  0  0  0
    9.9094    3.7381   25.8423 H   0  0  0  0  0  0  0  0  0  0  0  0
   10.7942    2.4679   26.6631 H   0  0  0  0  0  0  0  0  0  0  0  0
   11.2285   -3.5043   22.3829 H   0  0  0  0  0  0  0  0  0  0  0  0
   10.2206   -2.6589   21.2076 H   0  0  0  0  0  0  0  0  0  0  0  0
    7.3826   -0.9615   19.2591 H   0  0  0  0  0  0  0  0  0  0  0  0
    7.2618    0.7058   19.9205 H   0  0  0  0  0  0  0  0  0  0  0  0
   10.0068   -1.3086   23.6865 H   0  0  0  0  0  0  0  0  0  0  0  0
  1  9  1  0  0  0  0
  1 27  3  0  0  0  0
  2  4  2  0  0  0  0
  2  9  1  0  0  0  0
  3  5  1  0  0  0  0
  3  9  2  0  0  0  0
  4 10  1  0  0  0  0
  5 10  2  0  0  0  0
  6  7  2  0  0  0  0
  6 12  1  0  0  0  0
  7 13  1  0  0  0  0
  8 11  1  0  0  0  0
  8 12  2  0  0  0  0
 10 25  1  0  0  0  0
 11 13  2  0  0  0  0
 11 24  1  0  0  0  0
 12 37  1  0  0  0  0
 13 38  1  0  0  0  0
 14 26  1  0  0  0  0
 14 28  1  0  0  0  0
 14 32  2  0  0  0  0
 15 29  1  0  0  0  0
 15 31  1  0  0  0  0
 15 33  2  0  0  0  0
 16 18  1  0  0  0  0
 16 28  1  0  0  0  0
 17 19  1  0  0  0  0
 17 28  1  0  0  0  0
 18 30  1  0  0  0  0
 19 30  1  0  0  0  0
 20 22  1  0  0  0  0
 20 29  1  0  0  0  0
 21 23  1  0  0  0  0
 21 29  1  0  0  0  0
 22 36  1  0  0  0  0
 23 24  1  0  0  0  0
 23 36  1  0  0  0  0
 25 31  1  0  0  0  0
 26 39  1  0  0  0  0
 30 37  1  0  0  0  0
 34 37  2  0  0  0  0
 35 37  2  0  0  0  0
  2 40  1  0  0  0  0
  3 41  1  0  0  0  0
  4 42  1  0  0  0  0
  5 43  1  0  0  0  0
  6 44  1  0  0  0  0
  7 45  1  0  0  0  0
  8 46  1  0  0  0  0
 16 47  1  0  0  0  0
 16 48  1  0  0  0  0
 17 49  1  0  0  0  0
 17 50  1  0  0  0  0
 18 51  1  0  0  0  0
 18 52  1  0  0  0  0
 19 53  1  0  0  0  0
 19 54  1  0  0  0  0
 20 55  1  0  0  0  0
 20 56  1  0  0  0  0
 21 57  1  0  0  0  0
 21 58  1  0  0  0  0
 22 59  1  0  0  0  0
 22 60  1  0  0  0  0
 23 61  1  0  0  0  0
 24 62  1  0  0  0  0
 24 63  1  0  0  0  0
 25 64  1  0  0  0  0
 25 65  1  0  0  0  0
 26 66  1  0  0  0  0
 26 67  1  0  0  0  0
 31 68  1  0  0  0  0
M  END
> <creator>
Pedro Silva, Univ. Fernando Pessoa

> <fragments>
x1249

> <real_space>
FALSE

> <SCR>
FALSE

> <BB>
FALSE

> <link>
https://covid.postera.ai/covid/submissions/b79f0f51-d12e-46bf-ba60-ee717cfd90ee

> <covalent_frag>
TRUE

> <covalent_warhead>
TRUE

> <acrylamide>
FALSE

> <acrylamide_adduct>
FALSE

> <chloroacetamide>
TRUE

> <chloroacetamide_adduct>
FALSE

> <vinylsulfonamide>
FALSE

> <vinylsulfonamide_adduct>
FALSE

> <in_molport_or_mcule>
FALSE

> <in_emolecules>
FALSE

> <Hybrid2>
-1.733013

> <Mpro-x1249_dock>
-1.733013

> <Mpro-x1308_dock>
2.855429

> <site>
active-noncovalent

> <covalent_distance_min>
3.165352

> <covalent_distance_mean>
3.8238044

> <covalent_distance_stderr>
0.06139034

$$$$
BEN-VAN-77c-5
  -OEChem-04062011563D

 52 54  0     1  0  0  0  0  0999 V2000
    8.0617   -3.7613   26.4872 C   0  0  0  0  0  0  0  0  0  0  0  0
    7.3411   -3.8446   25.3010 C   0  0  0  0  0  0  0  0  0  0  0  0
    8.6759   -2.6301   21.3772 C   0  0  0  0  0  0  0  0  0  0  0  0
    8.9856   -0.3270   20.7165 C   0  0  0  0  0  0  0  0  0  0  0  0
    8.5135   -2.5134   26.8853 C   0  0  0  0  0  0  0  0  0  0  0  0
    9.4200   -1.4511   21.4189 C   0  0  0  0  0  0  0  0  0  0  0  0
    7.4974   -2.6851   20.6330 C   0  0  0  0  0  0  0  0  0  0  0  0
    7.0976   -2.6937   24.5597 C   0  0  0  0  0  0  0  0  0  0  0  0
    7.8071   -0.3819   19.9723 C   0  0  0  0  0  0  0  0  0  0  0  0
    7.0630   -1.5610   19.9306 C   0  0  0  0  0  0  0  0  0  0  0  0
    7.5924   -1.4936   25.0442 C   0  0  0  0  0  0  0  0  0  0  0  0
   11.6601    2.4904   26.0446 C   0  0  0  0  0  0  0  0  0  0  0  0
   11.4437    1.3889   25.3225 C   0  0  0  0  0  0  0  0  0  0  0  0
   12.5700    0.7923   24.5767 C   0  0  0  0  0  0  0  0  0  0  0  0
   13.3740   -0.4861   22.6327 C   0  0  0  0  0  0  0  0  0  0  0  0
   10.9633    0.0291   22.7464 C   0  0  0  0  0  0  0  0  0  0  0  0
   13.0071   -1.8778   22.1434 C   0  0  0  0  0  0  0  0  0  0  0  0
   10.6982   -1.3909   22.2269 C   0  0  2  0  0  0  0  0  0  0  0  0
    4.4976   -4.3135   23.4729 C   0  0  0  0  0  0  0  0  0  0  0  0
    6.7031   -3.9466   20.5905 C   0  0  0  0  0  0  0  0  0  0  0  0
    5.8296   -3.9910   22.8041 C   0  0  2  0  0  0  0  0  0  0  0  0
    8.2966   -1.3733   26.1919 N   0  0  0  0  0  0  0  0  0  0  0  0
   12.2783    0.1103   23.3982 N   0  0  0  0  0  0  0  0  0  0  0  0
    6.3802   -2.7748   23.3778 N   0  0  0  0  0  0  0  0  0  0  0  0
   13.7025    0.9388   25.0398 O   0  0  0  0  0  0  0  0  0  0  0  0
   11.7849   -1.8381   21.4076 O   0  0  0  0  0  0  0  0  0  0  0  0
    5.5477   -3.8052   21.4080 O   0  0  0  0  0  0  0  0  0  0  0  0
    7.3902    0.6978   19.2983 F   0  0  0  0  0  0  0  0  0  0  0  0
    5.9318   -1.6043   19.2131 F   0  0  0  0  0  0  0  0  0  0  0  0
    7.3595    0.0006   24.2217 Cl  0  0  0  0  0  0  0  0  0  0  0  0
    8.2632   -4.6452   27.0815 H   0  0  0  0  0  0  0  0  0  0  0  0
    6.9750   -4.8111   24.9649 H   0  0  0  0  0  0  0  0  0  0  0  0
    9.0138   -3.5060   21.9258 H   0  0  0  0  0  0  0  0  0  0  0  0
    9.5587    0.5962   20.7428 H   0  0  0  0  0  0  0  0  0  0  0  0
    9.0789   -2.3946   27.8038 H   0  0  0  0  0  0  0  0  0  0  0  0
   10.8732    2.9742   26.6134 H   0  0  0  0  0  0  0  0  0  0  0  0
   12.6498    2.9336   26.0778 H   0  0  0  0  0  0  0  0  0  0  0  0
   10.4713    0.9176   25.2649 H   0  0  0  0  0  0  0  0  0  0  0  0
   14.2968   -0.5187   23.2198 H   0  0  0  0  0  0  0  0  0  0  0  0
   13.5452    0.1780   21.7768 H   0  0  0  0  0  0  0  0  0  0  0  0
   10.9892    0.7505   21.9196 H   0  0  0  0  0  0  0  0  0  0  0  0
   10.1552    0.3211   23.4206 H   0  0  0  0  0  0  0  0  0  0  0  0
   13.7861   -2.2539   21.4729 H   0  0  0  0  0  0  0  0  0  0  0  0
   12.9148   -2.5860   22.9753 H   0  0  0  0  0  0  0  0  0  0  0  0
   10.5813   -2.0939   23.0768 H   0  0  0  0  0  0  0  0  0  0  0  0
    3.7996   -3.4729   23.3827 H   0  0  0  0  0  0  0  0  0  0  0  0
    4.0243   -5.1977   23.0354 H   0  0  0  0  0  0  0  0  0  0  0  0
    4.6415   -4.4907   24.5443 H   0  0  0  0  0  0  0  0  0  0  0  0
    6.3818   -4.1838   19.5671 H   0  0  0  0  0  0  0  0  0  0  0  0
    7.2920   -4.7989   20.9562 H   0  0  0  0  0  0  0  0  0  0  0  0
    6.5109   -4.8437   22.9061 H   0  0  0  0  0  0  0  0  0  0  0  0
    6.2944   -1.9293   22.8240 H   0  0  0  0  0  0  0  0  0  0  0  0
  1  2  2  0  0  0  0
  1  5  1  0  0  0  0
  2  8  1  0  0  0  0
  3  6  2  0  0  0  0
  3  7  1  0  0  0  0
  4  6  1  0  0  0  0
  4  9  2  0  0  0  0
  5 22  2  0  0  0  0
  6 18  1  0  0  0  0
  7 10  2  0  0  0  0
  7 20  1  0  0  0  0
  8 11  2  0  0  0  0
  8 24  1  0  0  0  0
  9 10  1  0  0  0  0
  9 28  1  0  0  0  0
 10 29  1  0  0  0  0
 11 22  1  0  0  0  0
 11 30  1  0  0  0  0
 12 13  2  0  0  0  0
 13 14  1  0  0  0  0
 14 23  1  0  0  0  0
 14 25  2  0  0  0  0
 15 17  1  0  0  0  0
 15 23  1  0  0  0  0
 16 18  1  0  0  0  0
 16 23  1  0  0  0  0
 17 26  1  0  0  0  0
 18 26  1  0  0  0  0
 19 21  1  0  0  0  0
 20 27  1  0  0  0  0
 21 24  1  0  0  0  0
 21 27  1  0  0  0  0
  1 31  1  0  0  0  0
  2 32  1  0  0  0  0
  3 33  1  0  0  0  0
  4 34  1  0  0  0  0
  5 35  1  0  0  0  0
 12 36  1  0  0  0  0
 12 37  1  0  0  0  0
 13 38  1  0  0  0  0
 15 39  1  0  0  0  0
 15 40  1  0  0  0  0
 16 41  1  0  0  0  0
 16 42  1  0  0  0  0
 17 43  1  0  0  0  0
 17 44  1  0  0  0  0
 18 45  1  0  0  0  0
 19 46  1  0  0  0  0
 19 47  1  0  0  0  0
 19 48  1  0  0  0  0
 20 49  1  0  0  0  0
 20 50  1  0  0  0  0
 21 51  1  0  0  0  0
 24 52  1  0  0  0  0
M  END
> <creator>
Benjamin P. Brown, Vanderbilt University, Laboratory of Jens Meiler

> <fragments>
x0759

> <real_space>
FALSE

> <SCR>
FALSE

> <BB>
FALSE

> <link>
https://covid.postera.ai/covid/submissions/77cef4f8-69c7-4a42-be72-6e63eb0b6889

> <covalent_frag>
TRUE

> <covalent_warhead>
TRUE

> <acrylamide>
TRUE

> <acrylamide_adduct>
FALSE

> <chloroacetamide>
FALSE

> <chloroacetamide_adduct>
FALSE

> <vinylsulfonamide>
FALSE

> <vinylsulfonamide_adduct>
FALSE

> <in_molport_or_mcule>
FALSE

> <in_emolecules>
FALSE

> <Hybrid2>
-1.698888

> <Mpro-x0759_dock>
-1.698888

> <Mpro-x1478_dock>
0.386682

> <site>
active-covalent

> <covalent_distance_min>
8.499125

> <covalent_distance_mean>
9.28725

> <covalent_distance_stderr>
0.06443071

$$$$
DAV-CRI-f47-3
  -OEChem-04062011563D

 61 65  0     1  0  0  0  0  0999 V2000
   12.9694   -0.0778   23.3367 C   0  0  0  0  0  0  0  0  0  0  0  0
   12.4132   -1.1045   22.5739 C   0  0  0  0  0  0  0  0  0  0  0  0
   12.2671    0.4427   24.4237 C   0  0  0  0  0  0  0  0  0  0  0  0
   11.1545   -1.6109   22.8980 C   0  0  0  0  0  0  0  0  0  0  0  0
   11.0084   -0.0636   24.7478 C   0  0  0  0  0  0  0  0  0  0  0  0
    8.1645   -5.0719   22.9007 C   0  0  0  0  0  0  0  0  0  0  0  0
    8.8323   -5.9220   23.7820 C   0  0  0  0  0  0  0  0  0  0  0  0
    9.6232   -4.0108   25.0176 C   0  0  0  0  0  0  0  0  0  0  0  0
   10.4521   -1.0904   23.9850 C   0  0  0  0  0  0  0  0  0  0  0  0
    8.2092   -3.6768   23.0681 C   0  0  0  0  0  0  0  0  0  0  0  0
    8.9554   -3.1425   24.1362 C   0  0  0  0  0  0  0  0  0  0  0  0
    9.5593   -5.3917   24.8420 C   0  0  0  0  0  0  0  0  0  0  0  0
    5.5935   -2.6016   19.2976 C   0  0  0  0  0  0  0  0  0  0  0  0
    7.8216   -0.5404   21.0977 C   0  0  0  0  0  0  0  0  0  0  0  0
    5.5501   -1.9659   17.9278 C   0  0  0  0  0  0  0  0  0  0  0  0
    5.6936   -0.4782   18.2255 C   0  0  0  0  0  0  0  0  0  0  0  0
    5.0671   -0.3192   19.5964 C   0  0  0  0  0  0  0  0  0  0  0  0
    7.9640   -0.8755   23.6099 C   0  0  0  0  0  0  0  0  0  0  0  0
    5.5039   -3.1430   23.6378 C   0  0  0  0  0  0  0  0  0  0  0  0
    3.6953   -2.0625   21.9980 C   0  0  0  0  0  0  0  0  0  0  0  0
    9.0772   -1.6428   24.3395 C   0  0  2  0  0  0  0  0  0  0  0  0
    7.4664   -2.7863   22.0860 C   0  0  1  0  0  0  0  0  0  0  0  0
    5.9591   -2.9815   22.1823 C   0  0  2  0  0  0  0  0  0  0  0  0
    5.1541   -1.7870   21.6366 C   0  0  1  0  0  0  0  0  0  0  0  0
    8.0419    0.9343   21.3228 C   0  0  0  0  0  0  0  0  0  0  0  0
    5.3182   -1.5961   20.2214 N   0  0  0  0  0  0  0  0  0  0  0  0
    7.7957   -1.3548   22.2337 N   0  0  0  0  0  0  0  0  0  0  0  0
    5.7899   -3.7892   19.5074 O   0  0  0  0  0  0  0  0  0  0  0  0
    7.6784   -0.9593   19.9458 O   0  0  0  0  0  0  0  0  0  0  0  0
    3.4835   -1.7584   24.6100 O   0  0  0  0  0  0  0  0  0  0  0  0
    3.0231   -4.0412   23.6037 O   0  0  0  0  0  0  0  0  0  0  0  0
   10.2117   -6.2191   25.7030 O   0  0  0  0  0  0  0  0  0  0  0  0
    3.7517   -2.7899   23.6297 S   0  0  0  0  0  0  0  0  0  0  0  0
    9.7830    1.1917   21.3075 Cl  0  0  0  0  0  0  0  0  0  0  0  0
   13.9501    0.3155   23.0850 H   0  0  0  0  0  0  0  0  0  0  0  0
   12.9604   -1.5106   21.7281 H   0  0  0  0  0  0  0  0  0  0  0  0
   12.7003    1.2413   25.0185 H   0  0  0  0  0  0  0  0  0  0  0  0
   10.7288   -2.4108   22.2979 H   0  0  0  0  0  0  0  0  0  0  0  0
   10.4684    0.3481   25.5964 H   0  0  0  0  0  0  0  0  0  0  0  0
    7.6072   -5.5070   22.0745 H   0  0  0  0  0  0  0  0  0  0  0  0
    8.7812   -6.9972   23.6337 H   0  0  0  0  0  0  0  0  0  0  0  0
   10.2007   -3.6041   25.8452 H   0  0  0  0  0  0  0  0  0  0  0  0
    6.3629   -2.3348   17.2977 H   0  0  0  0  0  0  0  0  0  0  0  0
    4.5836   -2.1909   17.4662 H   0  0  0  0  0  0  0  0  0  0  0  0
    6.7560   -0.2080   18.2646 H   0  0  0  0  0  0  0  0  0  0  0  0
    5.2119    0.1450   17.4667 H   0  0  0  0  0  0  0  0  0  0  0  0
    5.5284    0.4889   20.1696 H   0  0  0  0  0  0  0  0  0  0  0  0
    3.9849   -0.1690   19.5365 H   0  0  0  0  0  0  0  0  0  0  0  0
    7.0052   -1.0423   24.1172 H   0  0  0  0  0  0  0  0  0  0  0  0
    8.1500    0.2003   23.6526 H   0  0  0  0  0  0  0  0  0  0  0  0
    5.6715   -4.1555   24.0157 H   0  0  0  0  0  0  0  0  0  0  0  0
    5.9862   -2.4164   24.3008 H   0  0  0  0  0  0  0  0  0  0  0  0
    3.0883   -1.1546   22.0232 H   0  0  0  0  0  0  0  0  0  0  0  0
    3.2418   -2.7997   21.3275 H   0  0  0  0  0  0  0  0  0  0  0  0
    8.9354   -1.4374   25.4350 H   0  0  0  0  0  0  0  0  0  0  0  0
    7.7796   -3.0878   21.0776 H   0  0  0  0  0  0  0  0  0  0  0  0
    5.6868   -3.8882   21.6266 H   0  0  0  0  0  0  0  0  0  0  0  0
    5.4858   -0.8605   22.1262 H   0  0  0  0  0  0  0  0  0  0  0  0
    7.6338    1.2072   22.2893 H   0  0  0  0  0  0  0  0  0  0  0  0
    7.5767    1.4865   20.5143 H   0  0  0  0  0  0  0  0  0  0  0  0
   10.6704   -5.7021   26.3844 H   0  0  0  0  0  0  0  0  0  0  0  0
  1  2  1  0  0  0  0
  1  3  2  0  0  0  0
  2  4  2  0  0  0  0
  3  5  1  0  0  0  0
  4  9  1  0  0  0  0
  5  9  2  0  0  0  0
  6  7  2  0  0  0  0
  6 10  1  0  0  0  0
  7 12  1  0  0  0  0
  8 11  1  0  0  0  0
  8 12  2  0  0  0  0
  9 21  1  0  0  0  0
 10 11  2  0  0  0  0
 10 22  1  0  0  0  0
 11 21  1  0  0  0  0
 12 32  1  0  0  0  0
 13 15  1  0  0  0  0
 13 26  1  0  0  0  0
 13 28  2  0  0  0  0
 14 25  1  0  0  0  0
 14 27  1  0  0  0  0
 14 29  2  0  0  0  0
 15 16  1  0  0  0  0
 16 17  1  0  0  0  0
 17 26  1  0  0  0  0
 18 21  1  0  0  0  0
 18 27  1  0  0  0  0
 19 23  1  0  0  0  0
 19 33  1  0  0  0  0
 20 24  1  0  0  0  0
 20 33  1  0  0  0  0
 22 23  1  0  0  0  0
 22 27  1  0  0  0  0
 23 24  1  0  0  0  0
 24 26  1  0  0  0  0
 25 34  1  0  0  0  0
 30 33  2  0  0  0  0
 31 33  2  0  0  0  0
  1 35  1  0  0  0  0
  2 36  1  0  0  0  0
  3 37  1  0  0  0  0
  4 38  1  0  0  0  0
  5 39  1  0  0  0  0
  6 40  1  0  0  0  0
  7 41  1  0  0  0  0
  8 42  1  0  0  0  0
 15 43  1  0  0  0  0
 15 44  1  0  0  0  0
 16 45  1  0  0  0  0
 16 46  1  0  0  0  0
 17 47  1  0  0  0  0
 17 48  1  0  0  0  0
 18 49  1  0  0  0  0
 18 50  1  0  0  0  0
 19 51  1  0  0  0  0
 19 52  1  0  0  0  0
 20 53  1  0  0  0  0
 20 54  1  0  0  0  0
 21 55  1  0  0  0  0
 22 56  1  0  0  0  0
 23 57  1  0  0  0  0
 24 58  1  0  0  0  0
 25 59  1  0  0  0  0
 25 60  1  0  0  0  0
 32 61  1  0  0  0  0
M  END
> <creator>
David Briggs, Crick Institute

> <fragments>
x1392

> <real_space>
FALSE

> <SCR>
FALSE

> <BB>
FALSE

> <link>
https://covid.postera.ai/covid/submissions/f4772df7-f5a5-4208-a16e-3d41483cc4c7

> <covalent_frag>
TRUE

> <covalent_warhead>
TRUE

> <acrylamide>
FALSE

> <acrylamide_adduct>
FALSE

> <chloroacetamide>
TRUE

> <chloroacetamide_adduct>
FALSE

> <vinylsulfonamide>
FALSE

> <vinylsulfonamide_adduct>
FALSE

> <in_molport_or_mcule>
FALSE

> <in_emolecules>
FALSE

> <Hybrid2>
-1.680602

> <Mpro-x1392_dock>
-1.680602

> <Mpro-x1384_dock>
-0.47958

> <Mpro-x1375_dock>
1.682057

> <site>
active-covalent

> <covalent_distance_min>
8.3879795

> <covalent_distance_mean>
9.403325

> <covalent_distance_stderr>
0.050333172

$$$$
INS-INS-68e-1
  -OEChem-04062011563D

 70 75  0     1  0  0  0  0  0999 V2000
    9.2687   -6.8641   24.3145 C   0  0  0  0  0  0  0  0  0  0  0  0
   11.8822   -1.3635   24.7684 C   0  0  0  0  0  0  0  0  0  0  0  0
    8.5863   -6.7329   25.5239 C   0  0  0  0  0  0  0  0  0  0  0  0
    9.4363   -5.7557   23.4844 C   0  0  0  0  0  0  0  0  0  0  0  0
   11.0692   -2.4072   24.3245 C   0  0  0  0  0  0  0  0  0  0  0  0
   11.6343   -0.0638   24.3465 C   0  0  0  0  0  0  0  0  0  0  0  0
    8.2390   -4.3849   25.0732 C   0  0  0  0  0  0  0  0  0  0  0  0
    6.3219   -4.4829   27.5212 C   0  0  0  0  0  0  0  0  0  0  0  0
    5.4573   -3.4569   23.2016 C   0  0  0  0  0  0  0  0  0  0  0  0
    7.6334   -6.1312   28.2555 C   0  0  0  0  0  0  0  0  0  0  0  0
    5.6597   -1.5761   25.1073 C   0  0  0  0  0  0  0  0  0  0  0  0
    8.0715   -5.4933   25.9033 C   0  0  0  0  0  0  0  0  0  0  0  0
    7.3687   -5.3594   27.1482 C   0  0  0  0  0  0  0  0  0  0  0  0
    8.9214   -4.5161   23.8638 C   0  0  0  0  0  0  0  0  0  0  0  0
    9.9750   -2.1669   23.4729 C   0  0  0  0  0  0  0  0  0  0  0  0
   10.5867    0.1860   23.4638 C   0  0  0  0  0  0  0  0  0  0  0  0
    9.7643   -0.8584   23.0053 C   0  0  0  0  0  0  0  0  0  0  0  0
    6.5742   -2.6564   23.3286 C   0  0  0  0  0  0  0  0  0  0  0  0
    6.0214   -4.7819   28.8298 C   0  0  0  0  0  0  0  0  0  0  0  0
    4.4513   -3.2278   24.1179 C   0  0  0  0  0  0  0  0  0  0  0  0
    7.1514   -1.5694   20.3110 C   0  0  0  0  0  0  0  0  0  0  0  0
    3.0147   -5.0374   23.1091 C   0  0  0  0  0  0  0  0  0  0  0  0
    8.6891   -0.5193   22.0066 C   0  0  0  0  0  0  0  0  0  0  0  0
    9.5770    2.6673   23.9168 C   0  0  0  0  0  0  0  0  0  0  0  0
   11.5365    2.7043   23.0868 C   0  0  0  0  0  0  0  0  0  0  0  0
    9.1067   -3.3018   22.9543 C   0  0  2  0  0  0  0  0  0  0  0  0
   10.3564    1.6935   22.9846 C   0  0  0  0  0  0  0  0  0  0  0  0
    7.7430   -2.8346   22.3598 C   0  0  2  0  0  0  0  0  0  0  0  0
   10.9331    3.2082   24.4137 C   0  0  0  0  0  0  0  0  0  0  0  0
    5.0450   -4.2417   29.7864 C   0  0  0  0  0  0  0  0  0  0  0  0
    7.1919   -0.2523   19.5745 C   0  0  0  0  0  0  0  0  0  0  0  0
    6.7094   -1.7027   24.2733 N   0  0  0  0  0  0  0  0  0  0  0  0
    4.5194   -2.2923   25.0877 N   0  0  0  0  0  0  0  0  0  0  0  0
    7.9036   -1.6486   21.4940 N   0  0  0  0  0  0  0  0  0  0  0  0
    1.7631   -5.5935   23.3369 N   0  0  0  0  0  0  0  0  0  0  0  0
    3.2986   -4.0168   24.0273 N   0  0  0  0  0  0  0  0  0  0  0  0
    6.4802   -2.4966   19.8506 O   0  0  0  0  0  0  0  0  0  0  0  0
    3.7382   -5.4340   22.1992 O   0  0  0  0  0  0  0  0  0  0  0  0
    6.8164   -5.7856   29.2848 O   0  0  0  0  0  0  0  0  0  0  0  0
   11.4176    2.6191   25.5313 F   0  0  0  0  0  0  0  0  0  0  0  0
   10.9942    4.5426   24.6175 F   0  0  0  0  0  0  0  0  0  0  0  0
    5.6594   -0.1063   18.7225 Cl  0  0  0  0  0  0  0  0  0  0  0  0
    9.6707   -7.8291   24.0193 H   0  0  0  0  0  0  0  0  0  0  0  0
   12.7108   -1.5690   25.4398 H   0  0  0  0  0  0  0  0  0  0  0  0
    8.4636   -7.6068   26.1592 H   0  0  0  0  0  0  0  0  0  0  0  0
    9.9693   -5.8679   22.5439 H   0  0  0  0  0  0  0  0  0  0  0  0
   11.2994   -3.4156   24.6599 H   0  0  0  0  0  0  0  0  0  0  0  0
   12.2690    0.7456   24.6960 H   0  0  0  0  0  0  0  0  0  0  0  0
    7.8399   -3.4149   25.3626 H   0  0  0  0  0  0  0  0  0  0  0  0
    5.8445   -3.7269   26.9137 H   0  0  0  0  0  0  0  0  0  0  0  0
    5.3798   -4.2148   22.4310 H   0  0  0  0  0  0  0  0  0  0  0  0
    8.3334   -6.9274   28.4668 H   0  0  0  0  0  0  0  0  0  0  0  0
    5.7413   -0.8174   25.8759 H   0  0  0  0  0  0  0  0  0  0  0  0
    7.9712    0.1701   22.4677 H   0  0  0  0  0  0  0  0  0  0  0  0
    9.1556   -0.0125   21.1560 H   0  0  0  0  0  0  0  0  0  0  0  0
    8.9441    3.3933   23.3935 H   0  0  0  0  0  0  0  0  0  0  0  0
    8.9792    2.1851   24.7025 H   0  0  0  0  0  0  0  0  0  0  0  0
   12.5320    2.2523   23.1972 H   0  0  0  0  0  0  0  0  0  0  0  0
   11.5778    3.4430   22.2780 H   0  0  0  0  0  0  0  0  0  0  0  0
    9.6827   -3.7060   22.0723 H   0  0  0  0  0  0  0  0  0  0  0  0
    9.9276    1.6760   21.9735 H   0  0  0  0  0  0  0  0  0  0  0  0
    7.3881   -3.6845   21.6736 H   0  0  0  0  0  0  0  0  0  0  0  0
    4.0843   -4.7841   29.7323 H   0  0  0  0  0  0  0  0  0  0  0  0
    5.4012   -4.3053   30.8313 H   0  0  0  0  0  0  0  0  0  0  0  0
    4.8301   -3.1716   29.6082 H   0  0  0  0  0  0  0  0  0  0  0  0
    8.0119   -0.2726   18.8667 H   0  0  0  0  0  0  0  0  0  0  0  0
    7.2956    0.5488   20.2964 H   0  0  0  0  0  0  0  0  0  0  0  0
    1.4404   -6.3448   22.7364 H   0  0  0  0  0  0  0  0  0  0  0  0
    1.1624   -5.2692   24.0872 H   0  0  0  0  0  0  0  0  0  0  0  0
    2.5630   -3.8333   24.7146 H   0  0  0  0  0  0  0  0  0  0  0  0
  1  3  2  0  0  0  0
  1  4  1  0  0  0  0
  2  5  2  0  0  0  0
  2  6  1  0  0  0  0
  3 12  1  0  0  0  0
  4 14  2  0  0  0  0
  5 15  1  0  0  0  0
  6 16  2  0  0  0  0
  7 12  2  0  0  0  0
  7 14  1  0  0  0  0
  8 13  1  0  0  0  0
  8 19  2  0  0  0  0
  9 18  1  0  0  0  0
  9 20  2  0  0  0  0
 10 13  2  0  0  0  0
 10 39  1  0  0  0  0
 11 32  1  0  0  0  0
 11 33  2  0  0  0  0
 12 13  1  0  0  0  0
 14 26  1  0  0  0  0
 15 17  2  0  0  0  0
 15 26  1  0  0  0  0
 16 17  1  0  0  0  0
 16 27  1  0  0  0  0
 17 23  1  0  0  0  0
 18 28  1  0  0  0  0
 18 32  2  0  0  0  0
 19 30  1  0  0  0  0
 19 39  1  0  0  0  0
 20 33  1  0  0  0  0
 20 36  1  0  0  0  0
 21 31  1  0  0  0  0
 21 34  1  0  0  0  0
 21 37  2  0  0  0  0
 22 35  1  0  0  0  0
 22 36  1  0  0  0  0
 22 38  2  0  0  0  0
 23 34  1  0  0  0  0
 24 27  1  0  0  0  0
 24 29  1  0  0  0  0
 25 27  1  0  0  0  0
 25 29  1  0  0  0  0
 26 28  1  0  0  0  0
 28 34  1  0  0  0  0
 29 40  1  0  0  0  0
 29 41  1  0  0  0  0
 31 42  1  0  0  0  0
  1 43  1  0  0  0  0
  2 44  1  0  0  0  0
  3 45  1  0  0  0  0
  4 46  1  0  0  0  0
  5 47  1  0  0  0  0
  6 48  1  0  0  0  0
  7 49  1  0  0  0  0
  8 50  1  0  0  0  0
  9 51  1  0  0  0  0
 10 52  1  0  0  0  0
 11 53  1  0  0  0  0
 23 54  1  0  0  0  0
 23 55  1  0  0  0  0
 24 56  1  0  0  0  0
 24 57  1  0  0  0  0
 25 58  1  0  0  0  0
 25 59  1  0  0  0  0
 26 60  1  0  0  0  0
 27 61  1  0  0  0  0
 28 62  1  0  0  0  0
 30 63  1  0  0  0  0
 30 64  1  0  0  0  0
 30 65  1  0  0  0  0
 31 66  1  0  0  0  0
 31 67  1  0  0  0  0
 35 68  1  0  0  0  0
 35 69  1  0  0  0  0
 36 70  1  0  0  0  0
M  END
> <creator>
INSCoV_5RTF_65, Insilico Medicine Hong Kong Ltd

> <fragments>
x1392

> <real_space>
FALSE

> <SCR>
FALSE

> <BB>
FALSE

> <link>
https://covid.postera.ai/covid/submissions/68e9753a-8185-457a-9a3e-fb1878d66208

> <covalent_frag>
TRUE

> <covalent_warhead>
TRUE

> <acrylamide>
FALSE

> <acrylamide_adduct>
FALSE

> <chloroacetamide>
TRUE

> <chloroacetamide_adduct>
FALSE

> <vinylsulfonamide>
FALSE

> <vinylsulfonamide_adduct>
FALSE

> <in_molport_or_mcule>
FALSE

> <in_emolecules>
FALSE

> <Hybrid2>
-1.678821

> <Mpro-x1392_dock>
-1.678821

> <site>
active-covalent

$$$$
JUA-UNI-bc0-1
  -OEChem-04062011563D

 44 45  0     1  0  0  0  0  0999 V2000
    7.3697   -2.1294   25.8311 C   0  0  0  0  0  0  0  0  0  0  0  0
    7.1253   -0.9992   25.0510 C   0  0  0  0  0  0  0  0  0  0  0  0
    8.6587   -2.6567   25.9104 C   0  0  0  0  0  0  0  0  0  0  0  0
   13.5656   -1.3715   19.3308 C   0  0  0  0  0  0  0  0  0  0  0  0
    8.1699   -0.3964   24.3501 C   0  0  0  0  0  0  0  0  0  0  0  0
    9.7032   -2.0540   25.2095 C   0  0  0  0  0  0  0  0  0  0  0  0
   13.0702   -0.6457   20.4524 C   0  0  0  0  0  0  0  0  0  0  0  0
   14.7657   -1.9901   19.6038 C   0  0  0  0  0  0  0  0  0  0  0  0
    9.4588   -0.9238   24.4293 C   0  0  0  0  0  0  0  0  0  0  0  0
   13.9106   -0.7376   21.5402 C   0  0  0  0  0  0  0  0  0  0  0  0
    9.9245   -2.4079   21.9474 C   0  0  0  0  0  0  0  0  0  0  0  0
   11.3282   -2.3001   22.4332 C   0  0  0  0  0  0  0  0  0  0  0  0
    8.1393   -1.5397   20.8315 C   0  0  0  0  0  0  0  0  0  0  0  0
    8.5755   -0.0428   18.8394 C   0  0  0  0  0  0  0  0  0  0  0  0
   10.5835   -0.2756   23.6749 C   0  0  0  0  0  0  0  0  0  0  0  0
    7.7021   -0.3108   20.0520 C   0  0  0  0  0  0  0  0  0  0  0  0
   12.9340   -1.0182   23.8450 C   0  0  0  0  0  0  0  0  0  0  0  0
   13.7471   -0.1195   22.9098 C   0  0  2  0  0  0  0  0  0  0  0  0
    9.4411   -1.4254   21.2730 N   0  0  0  0  0  0  0  0  0  0  0  0
   11.6037   -1.2375   23.2856 N   0  0  0  0  0  0  0  0  0  0  0  0
   12.0979   -3.1666   22.0375 O   0  0  0  0  0  0  0  0  0  0  0  0
    7.3873   -2.4936   21.0192 O   0  0  0  0  0  0  0  0  0  0  0  0
   13.0932    1.1410   22.7605 O   0  0  0  0  0  0  0  0  0  0  0  0
   15.2904   -1.6954   21.2070 S   0  0  0  0  0  0  0  0  0  0  0  0
    6.5566   -2.5978   26.3779 H   0  0  0  0  0  0  0  0  0  0  0  0
    6.1220   -0.5878   24.9900 H   0  0  0  0  0  0  0  0  0  0  0  0
    8.8495   -3.5360   26.5185 H   0  0  0  0  0  0  0  0  0  0  0  0
   13.0674   -1.4375   18.3725 H   0  0  0  0  0  0  0  0  0  0  0  0
    7.9701    0.4837   23.7445 H   0  0  0  0  0  0  0  0  0  0  0  0
   10.7041   -2.4719   25.2771 H   0  0  0  0  0  0  0  0  0  0  0  0
   12.1427   -0.0873   20.4566 H   0  0  0  0  0  0  0  0  0  0  0  0
   15.3597   -2.6008   18.9385 H   0  0  0  0  0  0  0  0  0  0  0  0
    9.3998   -3.3425   22.2077 H   0  0  0  0  0  0  0  0  0  0  0  0
    9.6195    0.1099   19.1328 H   0  0  0  0  0  0  0  0  0  0  0  0
    8.5436   -0.8833   18.1385 H   0  0  0  0  0  0  0  0  0  0  0  0
    8.2337    0.8543   18.3141 H   0  0  0  0  0  0  0  0  0  0  0  0
   10.2104    0.2072   22.7651 H   0  0  0  0  0  0  0  0  0  0  0  0
   11.0670    0.4990   24.2793 H   0  0  0  0  0  0  0  0  0  0  0  0
    6.6658   -0.4593   19.7293 H   0  0  0  0  0  0  0  0  0  0  0  0
    7.7361    0.5535   20.7244 H   0  0  0  0  0  0  0  0  0  0  0  0
   12.8247   -0.5564   24.8324 H   0  0  0  0  0  0  0  0  0  0  0  0
   13.4186   -1.9917   23.9778 H   0  0  0  0  0  0  0  0  0  0  0  0
   14.7340    0.0857   23.3430 H   0  0  0  0  0  0  0  0  0  0  0  0
   13.6650    1.6804   22.1939 H   0  0  0  0  0  0  0  0  0  0  0  0
  1  2  1  0  0  0  0
  1  3  2  0  0  0  0
  2  5  2  0  0  0  0
  3  6  1  0  0  0  0
  4  7  1  0  0  0  0
  4  8  2  0  0  0  0
  5  9  1  0  0  0  0
  6  9  2  0  0  0  0
  7 10  2  0  0  0  0
  8 24  1  0  0  0  0
  9 15  1  0  0  0  0
 10 18  1  0  0  0  0
 10 24  1  0  0  0  0
 11 12  1  0  0  0  0
 11 19  2  0  0  0  0
 12 20  1  0  0  0  0
 12 21  2  0  0  0  0
 13 16  1  0  0  0  0
 13 19  1  0  0  0  0
 13 22  2  0  0  0  0
 14 16  1  0  0  0  0
 15 20  1  0  0  0  0
 17 18  1  0  0  0  0
 17 20  1  0  0  0  0
 18 23  1  0  0  0  0
  1 25  1  0  0  0  0
  2 26  1  0  0  0  0
  3 27  1  0  0  0  0
  4 28  1  0  0  0  0
  5 29  1  0  0  0  0
  6 30  1  0  0  0  0
  7 31  1  0  0  0  0
  8 32  1  0  0  0  0
 11 33  1  0  0  0  0
 14 34  1  0  0  0  0
 14 35  1  0  0  0  0
 14 36  1  0  0  0  0
 15 37  1  0  0  0  0
 15 38  1  0  0  0  0
 16 39  1  0  0  0  0
 16 40  1  0  0  0  0
 17 41  1  0  0  0  0
 17 42  1  0  0  0  0
 18 43  1  0  0  0  0
 23 44  1  0  0  0  0
M  END
> <creator>
Juan Salamanca Viloria, Universidad de Barcelona in collaboration with the Medicinal Chemistry Research Group, RCNS, Budapest

> <fragments>
x1382

> <real_space>
FALSE

> <SCR>
FALSE

> <BB>
FALSE

> <link>
https://covid.postera.ai/covid/submissions/bc099708-66e5-490d-b218-fa749db19489

> <covalent_frag>
TRUE

> <covalent_warhead>
TRUE

> <acrylamide>
TRUE

> <acrylamide_adduct>
FALSE

> <chloroacetamide>
FALSE

> <chloroacetamide_adduct>
FALSE

> <vinylsulfonamide>
FALSE

> <vinylsulfonamide_adduct>
FALSE

> <in_molport_or_mcule>
FALSE

> <in_emolecules>
FALSE

> <Hybrid2>
-1.635661

> <Mpro-x1382_dock>
-1.635661

> <site>
active-covalent

$$$$
BEN-VAN-77c-6
  -OEChem-04062011563D

 52 54  0     1  0  0  0  0  0999 V2000
    3.6452   -3.8024   27.1217 C   0  0  0  0  0  0  0  0  0  0  0  0
    3.8266   -4.3944   25.8767 C   0  0  0  0  0  0  0  0  0  0  0  0
    7.2485   -4.1812   21.1446 C   0  0  0  0  0  0  0  0  0  0  0  0
    8.1423   -3.2152   23.6044 C   0  0  0  0  0  0  0  0  0  0  0  0
    3.8861   -2.4426   27.2345 C   0  0  0  0  0  0  0  0  0  0  0  0
    7.9301   -2.9661   21.2107 C   0  0  0  0  0  0  0  0  0  0  0  0
    7.0137   -4.9134   22.3085 C   0  0  0  0  0  0  0  0  0  0  0  0
    4.2376   -3.6195   24.7979 C   0  0  0  0  0  0  0  0  0  0  0  0
    8.3770   -2.4831   22.4405 C   0  0  0  0  0  0  0  0  0  0  0  0
    7.4606   -4.4304   23.5384 C   0  0  0  0  0  0  0  0  0  0  0  0
    4.4517   -2.2678   25.0147 C   0  0  0  0  0  0  0  0  0  0  0  0
    5.3429    1.8368   19.5175 C   0  0  0  0  0  0  0  0  0  0  0  0
    6.6268    1.6821   19.1870 C   0  0  0  0  0  0  0  0  0  0  0  0
    6.9712    0.7887   18.0628 C   0  0  0  0  0  0  0  0  0  0  0  0
    7.5458   -1.4650   17.2562 C   0  0  0  0  0  0  0  0  0  0  0  0
    7.0278   -1.2053   19.6550 C   0  0  0  0  0  0  0  0  0  0  0  0
    8.6808   -2.3968   17.6489 C   0  0  0  0  0  0  0  0  0  0  0  0
    8.1824   -2.1741   19.9461 C   0  0  2  0  0  0  0  0  0  0  0  0
    2.7340   -5.8725   23.0012 C   0  0  0  0  0  0  0  0  0  0  0  0
    6.2843   -6.2122   22.2351 C   0  0  0  0  0  0  0  0  0  0  0  0
    4.2161   -5.6130   23.2491 C   0  0  2  0  0  0  0  0  0  0  0  0
    4.2861   -1.6573   26.2094 N   0  0  0  0  0  0  0  0  0  0  0  0
    7.2090   -0.5530   18.3503 N   0  0  0  0  0  0  0  0  0  0  0  0
    4.4190   -4.2074   23.5571 N   0  0  0  0  0  0  0  0  0  0  0  0
    7.0222    1.2836   16.9355 O   0  0  0  0  0  0  0  0  0  0  0  0
    8.3604   -3.0867   18.8563 O   0  0  0  0  0  0  0  0  0  0  0  0
    4.8980   -5.9648   22.0350 O   0  0  0  0  0  0  0  0  0  0  0  0
    9.0316   -1.3157   22.5135 F   0  0  0  0  0  0  0  0  0  0  0  0
    7.2384   -5.1254   24.6627 F   0  0  0  0  0  0  0  0  0  0  0  0
    4.9613   -1.2012   23.7633 Cl  0  0  0  0  0  0  0  0  0  0  0  0
    3.3250   -4.3869   27.9767 H   0  0  0  0  0  0  0  0  0  0  0  0
    3.6451   -5.4595   25.7599 H   0  0  0  0  0  0  0  0  0  0  0  0
    6.8998   -4.5580   20.1859 H   0  0  0  0  0  0  0  0  0  0  0  0
    8.4898   -2.8392   24.5621 H   0  0  0  0  0  0  0  0  0  0  0  0
    3.7575   -1.9329   28.1837 H   0  0  0  0  0  0  0  0  0  0  0  0
    5.0279    2.4790   20.3331 H   0  0  0  0  0  0  0  0  0  0  0  0
    4.5715    1.3116   18.9642 H   0  0  0  0  0  0  0  0  0  0  0  0
    7.4242    2.1889   19.7145 H   0  0  0  0  0  0  0  0  0  0  0  0
    7.8008   -0.9152   16.3451 H   0  0  0  0  0  0  0  0  0  0  0  0
    6.6382   -2.0464   17.0533 H   0  0  0  0  0  0  0  0  0  0  0  0
    6.0718   -1.7412   19.5963 H   0  0  0  0  0  0  0  0  0  0  0  0
    6.9554   -0.4790   20.4675 H   0  0  0  0  0  0  0  0  0  0  0  0
    8.8329   -3.1480   16.8676 H   0  0  0  0  0  0  0  0  0  0  0  0
    9.6243   -1.8522   17.7737 H   0  0  0  0  0  0  0  0  0  0  0  0
    9.1262   -1.6110   20.0956 H   0  0  0  0  0  0  0  0  0  0  0  0
    2.3504   -5.2253   22.2038 H   0  0  0  0  0  0  0  0  0  0  0  0
    2.5432   -6.9119   22.7176 H   0  0  0  0  0  0  0  0  0  0  0  0
    2.1510   -5.6449   23.9003 H   0  0  0  0  0  0  0  0  0  0  0  0
    6.6531   -6.8328   21.4070 H   0  0  0  0  0  0  0  0  0  0  0  0
    6.4096   -6.7905   23.1607 H   0  0  0  0  0  0  0  0  0  0  0  0
    4.5780   -6.2697   24.0487 H   0  0  0  0  0  0  0  0  0  0  0  0
    4.7983   -3.6278   22.8160 H   0  0  0  0  0  0  0  0  0  0  0  0
  1  2  2  0  0  0  0
  1  5  1  0  0  0  0
  2  8  1  0  0  0  0
  3  6  1  0  0  0  0
  3  7  2  0  0  0  0
  4  9  1  0  0  0  0
  4 10  2  0  0  0  0
  5 22  2  0  0  0  0
  6  9  2  0  0  0  0
  6 18  1  0  0  0  0
  7 10  1  0  0  0  0
  7 20  1  0  0  0  0
  8 11  2  0  0  0  0
  8 24  1  0  0  0  0
  9 28  1  0  0  0  0
 10 29  1  0  0  0  0
 11 22  1  0  0  0  0
 11 30  1  0  0  0  0
 12 13  2  0  0  0  0
 13 14  1  0  0  0  0
 14 23  1  0  0  0  0
 14 25  2  0  0  0  0
 15 17  1  0  0  0  0
 15 23  1  0  0  0  0
 16 18  1  0  0  0  0
 16 23  1  0  0  0  0
 17 26  1  0  0  0  0
 18 26  1  0  0  0  0
 19 21  1  0  0  0  0
 20 27  1  0  0  0  0
 21 24  1  0  0  0  0
 21 27  1  0  0  0  0
  1 31  1  0  0  0  0
  2 32  1  0  0  0  0
  3 33  1  0  0  0  0
  4 34  1  0  0  0  0
  5 35  1  0  0  0  0
 12 36  1  0  0  0  0
 12 37  1  0  0  0  0
 13 38  1  0  0  0  0
 15 39  1  0  0  0  0
 15 40  1  0  0  0  0
 16 41  1  0  0  0  0
 16 42  1  0  0  0  0
 17 43  1  0  0  0  0
 17 44  1  0  0  0  0
 18 45  1  0  0  0  0
 19 46  1  0  0  0  0
 19 47  1  0  0  0  0
 19 48  1  0  0  0  0
 20 49  1  0  0  0  0
 20 50  1  0  0  0  0
 21 51  1  0  0  0  0
 24 52  1  0  0  0  0
M  END
> <creator>
Benjamin P. Brown, Vanderbilt University, Laboratory of Jens Meiler

> <fragments>
x1478

> <real_space>
FALSE

> <SCR>
FALSE

> <BB>
FALSE

> <link>
https://covid.postera.ai/covid/submissions/77cef4f8-69c7-4a42-be72-6e63eb0b6889

> <covalent_frag>
TRUE

> <covalent_warhead>
TRUE

> <acrylamide>
TRUE

> <acrylamide_adduct>
FALSE

> <chloroacetamide>
FALSE

> <chloroacetamide_adduct>
FALSE

> <vinylsulfonamide>
FALSE

> <vinylsulfonamide_adduct>
FALSE

> <in_molport_or_mcule>
FALSE

> <in_emolecules>
FALSE

> <Hybrid2>
-1.539723

> <Mpro-x1478_dock>
-1.539723

> <Mpro-x0759_dock>
-0.758225

> <site>
active-covalent

> <covalent_distance_min>
2.8399787

> <covalent_distance_mean>
3.4879656

> <covalent_distance_stderr>
0.015766654

$$$$
ANT-STE-dbb-2
  -OEChem-04062011563D

 45 47  0     0  0  0  0  0  0999 V2000
   13.2404   -1.0821   21.6780 C   0  0  0  0  0  0  0  0  0  0  0  0
   12.0395   -1.4430   22.2889 C   0  0  0  0  0  0  0  0  0  0  0  0
   14.1259   -0.2256   22.3323 C   0  0  0  0  0  0  0  0  0  0  0  0
   12.6094   -0.0908   24.2082 C   0  0  0  0  0  0  0  0  0  0  0  0
    9.8472   -2.4745   23.9995 C   0  0  0  0  0  0  0  0  0  0  0  0
   11.7240   -0.9474   23.5539 C   0  0  0  0  0  0  0  0  0  0  0  0
   13.8104    0.2701   23.5973 C   0  0  0  0  0  0  0  0  0  0  0  0
    8.7513   -2.3248   24.8117 C   0  0  0  0  0  0  0  0  0  0  0  0
    5.7172   -2.8184   19.8787 C   0  0  0  0  0  0  0  0  0  0  0  0
    6.0491   -4.3917   21.7590 C   0  0  0  0  0  0  0  0  0  0  0  0
    5.2681   -2.1133   22.2806 C   0  0  0  0  0  0  0  0  0  0  0  0
    7.1222   -4.2920   22.8333 C   0  0  0  0  0  0  0  0  0  0  0  0
    6.3290   -1.9799   23.3648 C   0  0  0  0  0  0  0  0  0  0  0  0
   14.2897    1.5756   25.5265 C   0  0  0  0  0  0  0  0  0  0  0  0
    7.6212   -3.2796   25.0607 C   0  0  0  0  0  0  0  0  0  0  0  0
    6.0339   -1.4062   19.4555 C   0  0  0  0  0  0  0  0  0  0  0  0
    8.7987   -1.1047   25.4269 N   0  0  0  0  0  0  0  0  0  0  0  0
    9.8999   -0.4840   25.0184 N   0  0  0  0  0  0  0  0  0  0  0  0
   10.5271   -1.3069   24.1624 N   0  0  0  0  0  0  0  0  0  0  0  0
    5.6901   -3.0680   21.2500 N   0  0  0  0  0  0  0  0  0  0  0  0
    6.6478   -3.3509   23.9180 N   0  3  0  0  0  0  0  0  0  0  0  0
    5.5031   -3.6730   19.0151 O   0  0  0  0  0  0  0  0  0  0  0  0
   14.6746    1.1059   24.2355 O   0  0  0  0  0  0  0  0  0  0  0  0
    7.6173   -1.0237   20.1221 Cl  0  0  0  0  0  0  0  0  0  0  0  0
   13.4863   -1.4678   20.6930 H   0  0  0  0  0  0  0  0  0  0  0  0
   11.3582   -2.1110   21.7678 H   0  0  0  0  0  0  0  0  0  0  0  0
   15.0599    0.0515   21.8506 H   0  0  0  0  0  0  0  0  0  0  0  0
   12.3703    0.3003   25.1948 H   0  0  0  0  0  0  0  0  0  0  0  0
   10.1816   -3.2737   23.3516 H   0  0  0  0  0  0  0  0  0  0  0  0
    6.4023   -5.0367   20.9484 H   0  0  0  0  0  0  0  0  0  0  0  0
    5.1369   -4.8477   22.1627 H   0  0  0  0  0  0  0  0  0  0  0  0
    4.3283   -2.4870   22.7047 H   0  0  0  0  0  0  0  0  0  0  0  0
    5.0596   -1.1274   21.8616 H   0  0  0  0  0  0  0  0  0  0  0  0
    7.2940   -5.2674   23.2998 H   0  0  0  0  0  0  0  0  0  0  0  0
    8.0658   -3.9006   22.4367 H   0  0  0  0  0  0  0  0  0  0  0  0
    7.2590   -1.5483   22.9780 H   0  0  0  0  0  0  0  0  0  0  0  0
    5.9573   -1.3714   24.1956 H   0  0  0  0  0  0  0  0  0  0  0  0
   15.0676    2.2328   25.9228 H   0  0  0  0  0  0  0  0  0  0  0  0
   14.1411    0.7244   26.1956 H   0  0  0  0  0  0  0  0  0  0  0  0
   13.3548    2.1340   25.4374 H   0  0  0  0  0  0  0  0  0  0  0  0
    7.9913   -4.2977   25.2225 H   0  0  0  0  0  0  0  0  0  0  0  0
    7.0458   -2.9891   25.9464 H   0  0  0  0  0  0  0  0  0  0  0  0
    5.2854   -0.7394   19.8682 H   0  0  0  0  0  0  0  0  0  0  0  0
    6.0651   -1.3625   18.3729 H   0  0  0  0  0  0  0  0  0  0  0  0
    5.7742   -3.7379   24.3012 H   0  0  0  0  0  0  0  0  0  0  0  0
  1  2  1  0  0  0  0
  1  3  2  0  0  0  0
  2  6  2  0  0  0  0
  3  7  1  0  0  0  0
  4  6  1  0  0  0  0
  4  7  2  0  0  0  0
  5  8  2  0  0  0  0
  5 19  1  0  0  0  0
  6 19  1  0  0  0  0
  7 23  1  0  0  0  0
  8 15  1  0  0  0  0
  8 17  1  0  0  0  0
  9 16  1  0  0  0  0
  9 20  1  0  0  0  0
  9 22  2  0  0  0  0
 10 12  1  0  0  0  0
 10 20  1  0  0  0  0
 11 13  1  0  0  0  0
 11 20  1  0  0  0  0
 12 21  1  0  0  0  0
 13 21  1  0  0  0  0
 14 23  1  0  0  0  0
 15 21  1  0  0  0  0
 16 24  1  0  0  0  0
 17 18  2  0  0  0  0
 18 19  1  0  0  0  0
  1 25  1  0  0  0  0
  2 26  1  0  0  0  0
  3 27  1  0  0  0  0
  4 28  1  0  0  0  0
  5 29  1  0  0  0  0
 10 30  1  0  0  0  0
 10 31  1  0  0  0  0
 11 32  1  0  0  0  0
 11 33  1  0  0  0  0
 12 34  1  0  0  0  0
 12 35  1  0  0  0  0
 13 36  1  0  0  0  0
 13 37  1  0  0  0  0
 14 38  1  0  0  0  0
 14 39  1  0  0  0  0
 14 40  1  0  0  0  0
 15 41  1  0  0  0  0
 15 42  1  0  0  0  0
 16 43  1  0  0  0  0
 16 44  1  0  0  0  0
 21 45  1  0  0  0  0
M  CHG  1  21   1
M  END
> <creator>
Anton Hamann, Stellenbosch University

> <fragments>
x1386

> <real_space>
FALSE

> <SCR>
FALSE

> <BB>
FALSE

> <link>
https://covid.postera.ai/covid/submissions/dbb91f63-dddf-4f6e-a0f1-20477ec380fd

> <covalent_frag>
TRUE

> <covalent_warhead>
TRUE

> <acrylamide>
FALSE

> <acrylamide_adduct>
FALSE

> <chloroacetamide>
TRUE

> <chloroacetamide_adduct>
FALSE

> <vinylsulfonamide>
FALSE

> <vinylsulfonamide_adduct>
FALSE

> <in_molport_or_mcule>
FALSE

> <in_emolecules>
FALSE

> <Hybrid2>
-1.467141

> <Mpro-x1386_dock>
-1.467141

> <site>
active-covalent

> <covalent_distance_min>
3.6487942

> <covalent_distance_mean>
5.0437684

> <covalent_distance_stderr>
0.08397972

$$$$
JAN-GHE-bf4-5
  -OEChem-04062011563D

 54 57  0     0  0  0  0  0  0999 V2000
   12.1793    5.6408   24.6787 C   0  0  0  0  0  0  0  0  0  0  0  0
    7.8765   -5.8642   21.8870 C   0  0  0  0  0  0  0  0  0  0  0  0
    6.5590   -5.7023   22.3155 C   0  0  0  0  0  0  0  0  0  0  0  0
   11.0611    3.5050   24.2329 C   0  0  0  0  0  0  0  0  0  0  0  0
    8.8294   -4.8878   22.1774 C   0  0  0  0  0  0  0  0  0  0  0  0
    9.7033   -1.7101   22.2819 C   0  0  0  0  0  0  0  0  0  0  0  0
   10.2375   -2.8435   24.3476 C   0  0  0  0  0  0  0  0  0  0  0  0
   10.6814   -0.7535   22.5538 C   0  0  0  0  0  0  0  0  0  0  0  0
   11.2156   -1.8869   24.6195 C   0  0  0  0  0  0  0  0  0  0  0  0
    6.1943   -4.5639   23.0344 C   0  0  0  0  0  0  0  0  0  0  0  0
   11.1306    2.1267   24.0635 C   0  0  0  0  0  0  0  0  0  0  0  0
   13.4125    3.5274   24.5897 C   0  0  0  0  0  0  0  0  0  0  0  0
   12.2193    4.2261   24.5013 C   0  0  0  0  0  0  0  0  0  0  0  0
    9.4814   -2.7551   23.1788 C   0  0  0  0  0  0  0  0  0  0  0  0
    8.4647   -3.7494   22.8963 C   0  0  0  0  0  0  0  0  0  0  0  0
   11.4375   -0.8419   23.7226 C   0  0  0  0  0  0  0  0  0  0  0  0
    7.1472   -3.5874   23.3248 C   0  0  0  0  0  0  0  0  0  0  0  0
   12.3726    1.5220   24.1712 C   0  0  0  0  0  0  0  0  0  0  0  0
    7.0819    0.8661   17.8486 C   0  0  0  0  0  0  0  0  0  0  0  0
    6.0821   -0.0045   17.6943 C   0  0  0  0  0  0  0  0  0  0  0  0
    6.1218   -1.2742   18.4421 C   0  0  0  0  0  0  0  0  0  0  0  0
    6.1469   -0.0277   20.7210 C   0  0  0  0  0  0  0  0  0  0  0  0
    6.2581   -2.1596   20.8353 C   0  0  0  0  0  0  0  0  0  0  0  0
    5.8749   -1.0549   21.8334 C   0  0  0  0  0  0  0  0  0  0  0  0
   12.1467    6.7919   24.8231 N   0  0  0  0  0  0  0  0  0  0  0  0
   13.5194    2.1891   24.4310 N   0  0  0  0  0  0  0  0  0  0  0  0
    6.1492   -1.1481   19.8006 N   0  0  0  0  0  0  0  0  0  0  0  0
   12.4265    0.1253   23.9977 N   0  0  0  0  0  0  0  0  0  0  0  0
    6.7115   -0.9447   23.0704 N   0  0  0  0  0  0  0  0  0  0  0  0
    6.1299   -2.3426   17.8358 O   0  0  0  0  0  0  0  0  0  0  0  0
    5.2519   -2.3671   24.6397 O   0  0  0  0  0  0  0  0  0  0  0  0
    7.6518   -1.9097   25.2363 O   0  0  0  0  0  0  0  0  0  0  0  0
    6.6309   -2.1647   24.2381 S   0  0  0  0  0  0  0  0  0  0  0  0
    8.1603   -6.7511   21.3279 H   0  0  0  0  0  0  0  0  0  0  0  0
    5.8173   -6.4630   22.0900 H   0  0  0  0  0  0  0  0  0  0  0  0
   10.0983    4.0033   24.1530 H   0  0  0  0  0  0  0  0  0  0  0  0
    9.8519   -5.0303   21.8355 H   0  0  0  0  0  0  0  0  0  0  0  0
    9.1221   -1.6276   21.3666 H   0  0  0  0  0  0  0  0  0  0  0  0
   10.0762   -3.6521   25.0566 H   0  0  0  0  0  0  0  0  0  0  0  0
   10.8463    0.0568   21.8482 H   0  0  0  0  0  0  0  0  0  0  0  0
   11.7990   -1.9654   25.5334 H   0  0  0  0  0  0  0  0  0  0  0  0
    5.1645   -4.4502   23.3628 H   0  0  0  0  0  0  0  0  0  0  0  0
   10.2321    1.5562   23.8526 H   0  0  0  0  0  0  0  0  0  0  0  0
   14.3518    4.0326   24.7961 H   0  0  0  0  0  0  0  0  0  0  0  0
    7.1088    1.8163   17.3258 H   0  0  0  0  0  0  0  0  0  0  0  0
    7.9062    0.6355   18.5153 H   0  0  0  0  0  0  0  0  0  0  0  0
    5.2429    0.1897   17.0392 H   0  0  0  0  0  0  0  0  0  0  0  0
    5.3397    0.6906   20.5576 H   0  0  0  0  0  0  0  0  0  0  0  0
    7.1128    0.4843   20.7633 H   0  0  0  0  0  0  0  0  0  0  0  0
    7.2721   -2.5601   20.9244 H   0  0  0  0  0  0  0  0  0  0  0  0
    5.5339   -2.9724   20.7407 H   0  0  0  0  0  0  0  0  0  0  0  0
    4.8146   -1.0943   22.1110 H   0  0  0  0  0  0  0  0  0  0  0  0
   13.3609   -0.2627   24.0874 H   0  0  0  0  0  0  0  0  0  0  0  0
    7.5498   -0.3816   22.9649 H   0  0  0  0  0  0  0  0  0  0  0  0
  1 13  1  0  0  0  0
  1 25  3  0  0  0  0
  2  3  1  0  0  0  0
  2  5  2  0  0  0  0
  3 10  2  0  0  0  0
  4 11  2  0  0  0  0
  4 13  1  0  0  0  0
  5 15  1  0  0  0  0
  6  8  2  0  0  0  0
  6 14  1  0  0  0  0
  7  9  1  0  0  0  0
  7 14  2  0  0  0  0
  8 16  1  0  0  0  0
  9 16  2  0  0  0  0
 10 17  1  0  0  0  0
 11 18  1  0  0  0  0
 12 13  2  0  0  0  0
 12 26  1  0  0  0  0
 14 15  1  0  0  0  0
 15 17  2  0  0  0  0
 16 28  1  0  0  0  0
 17 33  1  0  0  0  0
 18 26  2  0  0  0  0
 18 28  1  0  0  0  0
 19 20  2  0  0  0  0
 20 21  1  0  0  0  0
 21 27  1  0  0  0  0
 21 30  2  0  0  0  0
 22 24  1  0  0  0  0
 22 27  1  0  0  0  0
 23 24  1  0  0  0  0
 23 27  1  0  0  0  0
 24 29  1  0  0  0  0
 29 33  1  0  0  0  0
 31 33  2  0  0  0  0
 32 33  2  0  0  0  0
  2 34  1  0  0  0  0
  3 35  1  0  0  0  0
  4 36  1  0  0  0  0
  5 37  1  0  0  0  0
  6 38  1  0  0  0  0
  7 39  1  0  0  0  0
  8 40  1  0  0  0  0
  9 41  1  0  0  0  0
 10 42  1  0  0  0  0
 11 43  1  0  0  0  0
 12 44  1  0  0  0  0
 19 45  1  0  0  0  0
 19 46  1  0  0  0  0
 20 47  1  0  0  0  0
 22 48  1  0  0  0  0
 22 49  1  0  0  0  0
 23 50  1  0  0  0  0
 23 51  1  0  0  0  0
 24 52  1  0  0  0  0
 28 53  1  0  0  0  0
 29 54  1  0  0  0  0
M  END
> <creator>
Jan, Ghent university

> <fragments>
x0692

> <real_space>
FALSE

> <SCR>
FALSE

> <BB>
FALSE

> <link>
https://covid.postera.ai/covid/submissions/bf40f168-4eec-438e-a3f5-b4da0b83bc9c

> <covalent_frag>
TRUE

> <covalent_warhead>
TRUE

> <acrylamide>
TRUE

> <acrylamide_adduct>
FALSE

> <chloroacetamide>
FALSE

> <chloroacetamide_adduct>
FALSE

> <vinylsulfonamide>
FALSE

> <vinylsulfonamide_adduct>
FALSE

> <in_molport_or_mcule>
FALSE

> <in_emolecules>
FALSE

> <Hybrid2>
-1.451895

> <Mpro-x0692_dock>
-1.451895

> <Mpro-x0305_dock>
-1.21786

> <Mpro-x0755_dock>
-1.079203

> <site>
active-covalent

> <covalent_distance_min>
3.366229

> <covalent_distance_mean>
4.374091

> <covalent_distance_stderr>
0.08519835

$$$$
GIA-UNK-a79-1
  -OEChem-04062011563D

 38 39  0     0  0  0  0  0  0999 V2000
    7.2730   -0.4179   28.1879 C   0  0  0  0  0  0  0  0  0  0  0  0
    5.9642   -0.8546   28.2096 C   0  0  0  0  0  0  0  0  0  0  0  0
    8.1491   -1.1935   27.4564 C   0  0  0  0  0  0  0  0  0  0  0  0
    6.4825   -2.6322   26.8910 C   0  0  0  0  0  0  0  0  0  0  0  0
    6.5269   -4.0956   20.8050 C   0  0  0  0  0  0  0  0  0  0  0  0
    5.6912   -5.0335   24.1614 C   0  0  0  0  0  0  0  0  0  0  0  0
    7.2949   -3.0901   24.2099 C   0  0  0  0  0  0  0  0  0  0  0  0
    6.3165   -5.4821   22.8433 C   0  0  0  0  0  0  0  0  0  0  0  0
    7.8886   -3.5776   22.8898 C   0  0  0  0  0  0  0  0  0  0  0  0
    6.6961   -4.2504   25.0122 C   0  0  0  0  0  0  0  0  0  0  0  0
    4.9436   -0.0809   28.9748 C   0  0  0  0  0  0  0  0  0  0  0  0
    9.5861   -0.8009   27.3743 C   0  0  0  0  0  0  0  0  0  0  0  0
    7.1682   -2.9056   20.1369 C   0  0  0  0  0  0  0  0  0  0  0  0
    5.5326   -1.9614   27.5701 N   0  0  0  0  0  0  0  0  0  0  0  0
    7.7867   -2.3111   26.7932 N   0  0  0  0  0  0  0  0  0  0  0  0
    6.8981   -4.3460   22.1257 N   0  0  0  0  0  0  0  0  0  0  0  0
    6.0755   -3.7723   26.2230 N   0  0  0  0  0  0  0  0  0  0  0  0
    5.7188   -4.7794   20.1713 O   0  0  0  0  0  0  0  0  0  0  0  0
    6.1043   -1.5331   20.4236 Cl  0  0  0  0  0  0  0  0  0  0  0  0
    7.5918    0.4754   28.7109 H   0  0  0  0  0  0  0  0  0  0  0  0
    4.8026   -4.4288   23.9675 H   0  0  0  0  0  0  0  0  0  0  0  0
    5.3628   -5.9156   24.7182 H   0  0  0  0  0  0  0  0  0  0  0  0
    8.0856   -2.6206   24.8013 H   0  0  0  0  0  0  0  0  0  0  0  0
    6.5399   -2.3246   24.0206 H   0  0  0  0  0  0  0  0  0  0  0  0
    7.0591   -6.2582   23.0477 H   0  0  0  0  0  0  0  0  0  0  0  0
    5.5655   -5.9351   22.1834 H   0  0  0  0  0  0  0  0  0  0  0  0
    8.1993   -2.7340   22.2650 H   0  0  0  0  0  0  0  0  0  0  0  0
    8.7787   -4.1807   23.0874 H   0  0  0  0  0  0  0  0  0  0  0  0
    7.5101   -4.9343   25.3024 H   0  0  0  0  0  0  0  0  0  0  0  0
    4.4812    0.6790   28.3334 H   0  0  0  0  0  0  0  0  0  0  0  0
    4.1538   -0.7378   29.3615 H   0  0  0  0  0  0  0  0  0  0  0  0
    5.3924    0.4210   29.8417 H   0  0  0  0  0  0  0  0  0  0  0  0
   10.1549   -1.2626   28.1904 H   0  0  0  0  0  0  0  0  0  0  0  0
   10.0300   -1.1130   26.4202 H   0  0  0  0  0  0  0  0  0  0  0  0
    9.7053    0.2884   27.4392 H   0  0  0  0  0  0  0  0  0  0  0  0
    7.2468   -3.0998   19.0734 H   0  0  0  0  0  0  0  0  0  0  0  0
    8.1363   -2.7275   20.5907 H   0  0  0  0  0  0  0  0  0  0  0  0
    5.3007   -4.3034   26.5976 H   0  0  0  0  0  0  0  0  0  0  0  0
  1  2  1  0  0  0  0
  1  3  2  0  0  0  0
  2 11  1  0  0  0  0
  2 14  2  0  0  0  0
  3 12  1  0  0  0  0
  3 15  1  0  0  0  0
  4 14  1  0  0  0  0
  4 15  2  0  0  0  0
  4 17  1  0  0  0  0
  5 13  1  0  0  0  0
  5 16  1  0  0  0  0
  5 18  2  0  0  0  0
  6  8  1  0  0  0  0
  6 10  1  0  0  0  0
  7  9  1  0  0  0  0
  7 10  1  0  0  0  0
  8 16  1  0  0  0  0
  9 16  1  0  0  0  0
 10 17  1  0  0  0  0
 13 19  1  0  0  0  0
  1 20  1  0  0  0  0
  6 21  1  0  0  0  0
  6 22  1  0  0  0  0
  7 23  1  0  0  0  0
  7 24  1  0  0  0  0
  8 25  1  0  0  0  0
  8 26  1  0  0  0  0
  9 27  1  0  0  0  0
  9 28  1  0  0  0  0
 10 29  1  0  0  0  0
 11 30  1  0  0  0  0
 11 31  1  0  0  0  0
 11 32  1  0  0  0  0
 12 33  1  0  0  0  0
 12 34  1  0  0  0  0
 12 35  1  0  0  0  0
 13 36  1  0  0  0  0
 13 37  1  0  0  0  0
 17 38  1  0  0  0  0
M  END
> <creator>
Gianfranco Lopopolo

> <fragments>
x1351

> <real_space>
FALSE

> <SCR>
FALSE

> <BB>
FALSE

> <link>
https://covid.postera.ai/covid/submissions/a79af1bc-c2a2-47a8-a5ad-5a4bd135c8b4

> <covalent_frag>
TRUE

> <covalent_warhead>
TRUE

> <acrylamide>
FALSE

> <acrylamide_adduct>
FALSE

> <chloroacetamide>
TRUE

> <chloroacetamide_adduct>
FALSE

> <vinylsulfonamide>
FALSE

> <vinylsulfonamide_adduct>
FALSE

> <in_molport_or_mcule>
FALSE

> <in_emolecules>
FALSE

> <Hybrid2>
-1.436659

> <Mpro-x1351_dock>
-1.436659

> <site>
active-covalent

> <covalent_distance_min>
3.134098

> <covalent_distance_mean>
3.5549982

> <covalent_distance_stderr>
0.01612868

$$$$
MAK-UNK-e4a-8
  -OEChem-04062011563D

 55 58  0     0  0  0  0  0  0999 V2000
   13.0662    0.0720   23.2058 C   0  0  0  0  0  0  0  0  0  0  0  0
   12.1657   -0.9930   23.2296 C   0  0  0  0  0  0  0  0  0  0  0  0
   12.6895    1.3153   23.7137 C   0  0  0  0  0  0  0  0  0  0  0  0
    5.8005    6.8262   26.9888 C   0  0  0  0  0  0  0  0  0  0  0  0
   10.5118    0.4287   24.2690 C   0  0  0  0  0  0  0  0  0  0  0  0
   11.5611    6.3501   25.6842 C   0  0  0  0  0  0  0  0  0  0  0  0
    4.8117    6.7833   26.0306 C   0  0  0  0  0  0  0  0  0  0  0  0
    7.0392    7.1237   25.0447 C   0  0  0  0  0  0  0  0  0  0  0  0
   10.8885   -0.8147   23.7611 C   0  0  0  0  0  0  0  0  0  0  0  0
    7.0909    7.0235   26.4178 C   0  0  0  0  0  0  0  0  0  0  0  0
   11.4123    1.4936   24.2452 C   0  0  0  0  0  0  0  0  0  0  0  0
   11.1162    5.0644   25.4585 C   0  0  0  0  0  0  0  0  0  0  0  0
    9.5597    6.5348   26.5619 C   0  0  0  0  0  0  0  0  0  0  0  0
   11.7946    3.9235   24.8198 C   0  0  0  0  0  0  0  0  0  0  0  0
    5.9666   -2.6465   19.9669 C   0  0  0  0  0  0  0  0  0  0  0  0
    6.3931   -2.4437   22.3955 C   0  0  0  0  0  0  0  0  0  0  0  0
    7.6502   -0.9693   20.8727 C   0  0  0  0  0  0  0  0  0  0  0  0
    7.6770   -2.8285   23.1160 C   0  0  0  0  0  0  0  0  0  0  0  0
    8.9537   -1.3307   21.5719 C   0  0  0  0  0  0  0  0  0  0  0  0
    8.3731    7.1118   27.2303 C   0  0  0  0  0  0  0  0  0  0  0  0
    9.9204   -1.9605   23.7865 C   0  0  0  0  0  0  0  0  0  0  0  0
    5.7432   -1.8061   18.7350 C   0  0  0  0  0  0  0  0  0  0  0  0
   10.6698    7.1949   26.3165 N   0  0  0  0  0  0  0  0  0  0  0  0
    6.6644   -2.0462   21.0140 N   0  0  0  0  0  0  0  0  0  0  0  0
   11.0360    2.7372   24.7537 N   0  0  0  0  0  0  0  0  0  0  0  0
    8.6617   -1.6852   23.0129 N   0  3  0  0  0  0  0  0  0  0  0  0
   12.9511    4.0210   24.4150 O   0  0  0  0  0  0  0  0  0  0  0  0
    5.5355   -3.8021   19.9948 O   0  0  0  0  0  0  0  0  0  0  0  0
    5.4399    6.9804   24.4498 S   0  0  0  0  0  0  0  0  0  0  0  0
    9.5191    4.8943   26.0598 S   0  0  0  0  0  0  0  0  0  0  0  0
    4.7888   -0.4161   19.2398 Cl  0  0  0  0  0  0  0  0  0  0  0  0
   14.0609   -0.0670   22.7923 H   0  0  0  0  0  0  0  0  0  0  0  0
   12.4681   -1.9575   22.8311 H   0  0  0  0  0  0  0  0  0  0  0  0
   13.3994    2.1382   23.6898 H   0  0  0  0  0  0  0  0  0  0  0  0
    5.6030    6.7201   28.0480 H   0  0  0  0  0  0  0  0  0  0  0  0
    9.5149    0.5655   24.6823 H   0  0  0  0  0  0  0  0  0  0  0  0
   12.5349    6.7310   25.4057 H   0  0  0  0  0  0  0  0  0  0  0  0
    3.7506    6.6450   26.1831 H   0  0  0  0  0  0  0  0  0  0  0  0
    7.8616    7.2731   24.3589 H   0  0  0  0  0  0  0  0  0  0  0  0
    5.6907   -3.2824   22.4275 H   0  0  0  0  0  0  0  0  0  0  0  0
    5.9081   -1.5950   22.8931 H   0  0  0  0  0  0  0  0  0  0  0  0
    7.2119   -0.0670   21.3164 H   0  0  0  0  0  0  0  0  0  0  0  0
    7.8576   -0.7417   19.8257 H   0  0  0  0  0  0  0  0  0  0  0  0
    7.4865   -3.0001   24.1803 H   0  0  0  0  0  0  0  0  0  0  0  0
    8.1448   -3.7166   22.6763 H   0  0  0  0  0  0  0  0  0  0  0  0
    9.4441   -2.1926   21.1058 H   0  0  0  0  0  0  0  0  0  0  0  0
    9.6378   -0.4760   21.5786 H   0  0  0  0  0  0  0  0  0  0  0  0
    8.5426    8.1744   27.4973 H   0  0  0  0  0  0  0  0  0  0  0  0
    8.1956    6.6309   28.2133 H   0  0  0  0  0  0  0  0  0  0  0  0
   10.3642   -2.8636   23.3538 H   0  0  0  0  0  0  0  0  0  0  0  0
    9.6143   -2.1972   24.8112 H   0  0  0  0  0  0  0  0  0  0  0  0
    5.1931   -2.3903   18.0061 H   0  0  0  0  0  0  0  0  0  0  0  0
    6.7038   -1.4796   18.3535 H   0  0  0  0  0  0  0  0  0  0  0  0
   10.0823    2.7960   25.1286 H   0  0  0  0  0  0  0  0  0  0  0  0
    8.2243   -0.8617   23.4490 H   0  0  0  0  0  0  0  0  0  0  0  0
  1  2  1  0  0  0  0
  1  3  2  0  0  0  0
  2  9  2  0  0  0  0
  3 11  1  0  0  0  0
  4  7  2  0  0  0  0
  4 10  1  0  0  0  0
  5  9  1  0  0  0  0
  5 11  2  0  0  0  0
  6 12  2  0  0  0  0
  6 23  1  0  0  0  0
  7 29  1  0  0  0  0
  8 10  2  0  0  0  0
  8 29  1  0  0  0  0
  9 21  1  0  0  0  0
 10 20  1  0  0  0  0
 11 25  1  0  0  0  0
 12 14  1  0  0  0  0
 12 30  1  0  0  0  0
 13 20  1  0  0  0  0
 13 23  2  0  0  0  0
 13 30  1  0  0  0  0
 14 25  1  0  0  0  0
 14 27  2  0  0  0  0
 15 22  1  0  0  0  0
 15 24  1  0  0  0  0
 15 28  2  0  0  0  0
 16 18  1  0  0  0  0
 16 24  1  0  0  0  0
 17 19  1  0  0  0  0
 17 24  1  0  0  0  0
 18 26  1  0  0  0  0
 19 26  1  0  0  0  0
 21 26  1  0  0  0  0
 22 31  1  0  0  0  0
  1 32  1  0  0  0  0
  2 33  1  0  0  0  0
  3 34  1  0  0  0  0
  4 35  1  0  0  0  0
  5 36  1  0  0  0  0
  6 37  1  0  0  0  0
  7 38  1  0  0  0  0
  8 39  1  0  0  0  0
 16 40  1  0  0  0  0
 16 41  1  0  0  0  0
 17 42  1  0  0  0  0
 17 43  1  0  0  0  0
 18 44  1  0  0  0  0
 18 45  1  0  0  0  0
 19 46  1  0  0  0  0
 19 47  1  0  0  0  0
 20 48  1  0  0  0  0
 20 49  1  0  0  0  0
 21 50  1  0  0  0  0
 21 51  1  0  0  0  0
 22 52  1  0  0  0  0
 22 53  1  0  0  0  0
 25 54  1  0  0  0  0
 26 55  1  0  0  0  0
M  CHG  1  26   1
M  END
> <creator>
Maksym Voznyy

> <fragments>
x0692

> <real_space>
FALSE

> <SCR>
FALSE

> <BB>
FALSE

> <link>
https://covid.postera.ai/covid/submissions/e4a48a85-91ce-4c28-86d4-edf9997dafca

> <covalent_frag>
TRUE

> <covalent_warhead>
TRUE

> <acrylamide>
FALSE

> <acrylamide_adduct>
FALSE

> <chloroacetamide>
TRUE

> <chloroacetamide_adduct>
FALSE

> <vinylsulfonamide>
FALSE

> <vinylsulfonamide_adduct>
FALSE

> <in_molport_or_mcule>
FALSE

> <in_emolecules>
FALSE

> <Hybrid2>
-1.424988

> <Mpro-x0692_dock>
-1.424988

> <Mpro-x0387_dock>
-0.020389

> <site>
active-covalent

> <covalent_distance_min>
3.0728447

> <covalent_distance_mean>
3.7901454

> <covalent_distance_stderr>
0.05540571

$$$$
MAK-UNK-8fd-20
  -OEChem-04062011563D

 76 79  0     1  0  0  0  0  0999 V2000
    8.0934   -2.7889   22.0081 C   0  0  0  0  0  0  0  0  0  0  0  0
    8.8527   -3.2054   20.9147 C   0  0  0  0  0  0  0  0  0  0  0  0
   13.7630    0.0423   20.9066 C   0  0  0  0  0  0  0  0  0  0  0  0
    8.1101   -1.4501   22.3994 C   0  0  0  0  0  0  0  0  0  0  0  0
    9.6288   -2.2832   20.2127 C   0  0  0  0  0  0  0  0  0  0  0  0
   12.8858    0.6174   21.8193 C   0  0  0  0  0  0  0  0  0  0  0  0
    8.0778    1.8851   21.6973 C   0  0  0  0  0  0  0  0  0  0  0  0
   13.8807   -1.3383   20.9018 C   0  0  0  0  0  0  0  0  0  0  0  0
   12.3526   -1.5640   22.6024 C   0  0  0  0  0  0  0  0  0  0  0  0
    9.5475    2.7098   23.1905 C   0  0  0  0  0  0  0  0  0  0  0  0
    8.8861   -0.5279   21.6974 C   0  0  0  0  0  0  0  0  0  0  0  0
    8.4869    3.0556   22.3825 C   0  0  0  0  0  0  0  0  0  0  0  0
    9.6455   -0.9444   20.6040 C   0  0  0  0  0  0  0  0  0  0  0  0
   12.1634   -0.1940   22.6870 C   0  0  0  0  0  0  0  0  0  0  0  0
    8.9007    0.8595   22.1076 C   0  0  0  0  0  0  0  0  0  0  0  0
   10.2979   -0.7407   24.7879 C   0  0  0  0  0  0  0  0  0  0  0  0
    8.7375   -1.4149   26.5624 C   0  0  0  0  0  0  0  0  0  0  0  0
    6.6937   -6.1132   28.0196 C   0  0  0  0  0  0  0  0  0  0  0  0
    9.2661   -3.8406   26.6730 C   0  0  0  0  0  0  0  0  0  0  0  0
    6.9976   -3.0400   25.8101 C   0  0  0  0  0  0  0  0  0  0  0  0
    8.5284   -5.1741   26.6574 C   0  0  0  0  0  0  0  0  0  0  0  0
    6.4736   -3.8007   27.0259 C   0  0  0  0  0  0  0  0  0  0  0  0
    8.5003   -2.7490   25.9134 C   0  0  0  0  0  0  0  0  0  0  0  0
    9.3515    1.2697   27.5212 C   0  0  0  0  0  0  0  0  0  0  0  0
    7.4964    1.1164   25.8239 C   0  0  0  0  0  0  0  0  0  0  0  0
    6.3890    6.1218   23.2650 C   0  0  0  0  0  0  0  0  0  0  0  0
    7.8885    4.3984   22.2551 C   0  0  0  0  0  0  0  0  0  0  0  0
    5.3145   -5.9177   28.6001 C   0  0  0  0  0  0  0  0  0  0  0  0
    8.9881    0.9552   26.0773 C   0  0  0  0  0  0  0  0  0  0  0  0
   13.1957   -2.1592   21.7291 N   0  0  0  0  0  0  0  0  0  0  0  0
    9.7900    1.3723   23.0154 N   0  0  0  0  0  0  0  0  0  0  0  0
    7.1985   -5.0563   27.2596 N   0  0  0  0  0  0  0  0  0  0  0  0
    9.3742   -0.4254   25.7752 N   0  0  0  0  0  0  0  0  0  0  0  0
    7.0366    4.7959   23.4180 N   0  3  0  0  0  0  0  0  0  0  0  0
    8.3570   -1.2421   27.7241 O   0  0  0  0  0  0  0  0  0  0  0  0
    7.2985   -7.1675   28.2284 O   0  0  0  0  0  0  0  0  0  0  0  0
   11.7449    1.3738   24.7595 O   0  0  0  0  0  0  0  0  0  0  0  0
   10.3967   -0.0701   19.9184 F   0  0  0  0  0  0  0  0  0  0  0  0
   11.0539    0.4915   23.8451 S   0  0  2  0  0  0  0  0  0  0  0  0
    5.2508   -6.8700   30.0789 Cl  0  0  0  0  0  0  0  0  0  0  0  0
    7.4889   -3.5071   22.5544 H   0  0  0  0  0  0  0  0  0  0  0  0
    8.8393   -4.2477   20.6097 H   0  0  0  0  0  0  0  0  0  0  0  0
   14.3364    0.6551   20.2207 H   0  0  0  0  0  0  0  0  0  0  0  0
    7.5125   -1.1413   23.2540 H   0  0  0  0  0  0  0  0  0  0  0  0
   10.2197   -2.6073   19.3611 H   0  0  0  0  0  0  0  0  0  0  0  0
   12.7726    1.6976   21.8463 H   0  0  0  0  0  0  0  0  0  0  0  0
    7.2700    1.8019   20.9821 H   0  0  0  0  0  0  0  0  0  0  0  0
   14.5515   -1.8359   20.2092 H   0  0  0  0  0  0  0  0  0  0  0  0
   11.8169   -2.2483   23.2530 H   0  0  0  0  0  0  0  0  0  0  0  0
   10.1449    3.3022   23.8712 H   0  0  0  0  0  0  0  0  0  0  0  0
   10.5262   -1.8000   24.6307 H   0  0  0  0  0  0  0  0  0  0  0  0
    9.4390   -3.5337   27.7093 H   0  0  0  0  0  0  0  0  0  0  0  0
   10.2491   -3.9726   26.2076 H   0  0  0  0  0  0  0  0  0  0  0  0
    6.8158   -3.6409   24.9143 H   0  0  0  0  0  0  0  0  0  0  0  0
    6.4375   -2.1086   25.6972 H   0  0  0  0  0  0  0  0  0  0  0  0
    8.4559   -5.5432   25.6263 H   0  0  0  0  0  0  0  0  0  0  0  0
    9.0801   -5.9342   27.2282 H   0  0  0  0  0  0  0  0  0  0  0  0
    6.5802   -3.1942   27.9412 H   0  0  0  0  0  0  0  0  0  0  0  0
    5.3944   -3.9714   26.9050 H   0  0  0  0  0  0  0  0  0  0  0  0
    8.9167   -2.6626   24.9045 H   0  0  0  0  0  0  0  0  0  0  0  0
    8.8049    0.6189   28.2115 H   0  0  0  0  0  0  0  0  0  0  0  0
   10.4239    1.1352   27.7022 H   0  0  0  0  0  0  0  0  0  0  0  0
    9.1043    2.3083   27.7668 H   0  0  0  0  0  0  0  0  0  0  0  0
    6.9174    0.4627   26.4855 H   0  0  0  0  0  0  0  0  0  0  0  0
    7.2465    0.8588   24.7895 H   0  0  0  0  0  0  0  0  0  0  0  0
    7.1678    2.1453   26.0083 H   0  0  0  0  0  0  0  0  0  0  0  0
    5.7823    6.0944   22.3580 H   0  0  0  0  0  0  0  0  0  0  0  0
    5.7691    6.2947   24.1468 H   0  0  0  0  0  0  0  0  0  0  0  0
    7.1782    6.8720   23.1867 H   0  0  0  0  0  0  0  0  0  0  0  0
    8.6513    5.1918   22.1623 H   0  0  0  0  0  0  0  0  0  0  0  0
    7.2370    4.4857   21.3675 H   0  0  0  0  0  0  0  0  0  0  0  0
    4.5799   -6.2818   27.8910 H   0  0  0  0  0  0  0  0  0  0  0  0
    5.1747   -4.8671   28.8274 H   0  0  0  0  0  0  0  0  0  0  0  0
    9.5458    1.6171   25.4058 H   0  0  0  0  0  0  0  0  0  0  0  0
    7.6154    4.7924   24.2657 H   0  0  0  0  0  0  0  0  0  0  0  0
    6.3175    4.0771   23.5596 H   0  0  0  0  0  0  0  0  0  0  0  0
  1  2  1  0  0  0  0
  1  4  2  0  0  0  0
  2  5  2  0  0  0  0
  3  6  2  0  0  0  0
  3  8  1  0  0  0  0
  4 11  1  0  0  0  0
  5 13  1  0  0  0  0
  6 14  1  0  0  0  0
  7 12  1  0  0  0  0
  7 15  2  0  0  0  0
  8 30  2  0  0  0  0
  9 14  2  0  0  0  0
  9 30  1  0  0  0  0
 10 12  2  0  0  0  0
 10 31  1  0  0  0  0
 11 13  2  0  0  0  0
 11 15  1  0  0  0  0
 12 27  1  0  0  0  0
 13 38  1  0  0  0  0
 14 39  1  0  0  0  0
 15 31  1  0  0  0  0
 16 33  1  0  0  0  0
 16 39  2  0  0  0  0
 17 23  1  0  0  0  0
 17 33  1  0  0  0  0
 17 35  2  0  0  0  0
 18 28  1  0  0  0  0
 18 32  1  0  0  0  0
 18 36  2  0  0  0  0
 19 21  1  0  0  0  0
 19 23  1  0  0  0  0
 20 22  1  0  0  0  0
 20 23  1  0  0  0  0
 21 32  1  0  0  0  0
 22 32  1  0  0  0  0
 24 29  1  0  0  0  0
 25 29  1  0  0  0  0
 26 34  1  0  0  0  0
 27 34  1  0  0  0  0
 28 40  1  0  0  0  0
 29 33  1  0  0  0  0
 31 39  1  0  0  0  0
 37 39  2  0  0  0  0
  1 41  1  0  0  0  0
  2 42  1  0  0  0  0
  3 43  1  0  0  0  0
  4 44  1  0  0  0  0
  5 45  1  0  0  0  0
  6 46  1  0  0  0  0
  7 47  1  0  0  0  0
  8 48  1  0  0  0  0
  9 49  1  0  0  0  0
 10 50  1  0  0  0  0
 16 51  1  0  0  0  0
 19 52  1  0  0  0  0
 19 53  1  0  0  0  0
 20 54  1  0  0  0  0
 20 55  1  0  0  0  0
 21 56  1  0  0  0  0
 21 57  1  0  0  0  0
 22 58  1  0  0  0  0
 22 59  1  0  0  0  0
 23 60  1  0  0  0  0
 24 61  1  0  0  0  0
 24 62  1  0  0  0  0
 24 63  1  0  0  0  0
 25 64  1  0  0  0  0
 25 65  1  0  0  0  0
 25 66  1  0  0  0  0
 26 67  1  0  0  0  0
 26 68  1  0  0  0  0
 26 69  1  0  0  0  0
 27 70  1  0  0  0  0
 27 71  1  0  0  0  0
 28 72  1  0  0  0  0
 28 73  1  0  0  0  0
 29 74  1  0  0  0  0
 34 75  1  0  0  0  0
 34 76  1  0  0  0  0
M  CHG  1  34   1
M  END
> <creator>
Maksym Voznyy

> <fragments>
x0305

> <real_space>
FALSE

> <SCR>
FALSE

> <BB>
FALSE

> <link>
https://covid.postera.ai/covid/submissions/8fdbca50-c94c-4218-91b0-3b0489774fa8

> <covalent_frag>
FALSE

> <covalent_warhead>
TRUE

> <acrylamide>
FALSE

> <acrylamide_adduct>
FALSE

> <chloroacetamide>
TRUE

> <chloroacetamide_adduct>
FALSE

> <vinylsulfonamide>
FALSE

> <vinylsulfonamide_adduct>
FALSE

> <in_molport_or_mcule>
FALSE

> <in_emolecules>
FALSE

> <Hybrid2>
-1.423294

> <Mpro-x0305_dock>
-1.423294

> <site>
active-noncovalent

> <covalent_distance_min>
5.1290727

> <covalent_distance_mean>
5.725889

> <covalent_distance_stderr>
0.029954769

$$$$
NIM-UNI-ed9-3
  -OEChem-04062011563D

 63 65  0     0  0  0  0  0  0999 V2000
    6.0323   -0.5122   20.3552 C   0  0  0  0  0  0  0  0  0  0  0  0
    5.6972   -0.3267   21.6964 C   0  0  0  0  0  0  0  0  0  0  0  0
    7.3252   -0.2302   19.9139 C   0  0  0  0  0  0  0  0  0  0  0  0
    6.6548    0.1410   22.5963 C   0  0  0  0  0  0  0  0  0  0  0  0
    8.2828    0.2376   20.8139 C   0  0  0  0  0  0  0  0  0  0  0  0
    6.9462    5.1605   20.8729 C   0  0  0  0  0  0  0  0  0  0  0  0
    5.6555    3.5450   22.1224 C   0  0  0  0  0  0  0  0  0  0  0  0
    6.4883    4.6030   19.6791 C   0  0  0  0  0  0  0  0  0  0  0  0
    5.1976    2.9875   20.9286 C   0  0  0  0  0  0  0  0  0  0  0  0
    6.5299    4.6314   22.0946 C   0  0  0  0  0  0  0  0  0  0  0  0
    7.9476    0.4232   22.1551 C   0  0  0  0  0  0  0  0  0  0  0  0
    5.6140    3.5166   19.7069 C   0  0  0  0  0  0  0  0  0  0  0  0
   13.8588   -1.6126   23.8176 C   0  0  0  0  0  0  0  0  0  0  0  0
   10.7257    4.8690   23.3380 C   0  0  0  0  0  0  0  0  0  0  0  0
    8.1703    3.0947   24.0771 C   0  0  0  0  0  0  0  0  0  0  0  0
   11.8921   -1.4192   22.3290 C   0  0  0  0  0  0  0  0  0  0  0  0
   12.7936    0.6447   23.3295 C   0  0  0  0  0  0  0  0  0  0  0  0
   10.4822   -1.0324   22.7511 C   0  0  0  0  0  0  0  0  0  0  0  0
   11.3961    1.0637   23.7654 C   0  0  0  0  0  0  0  0  0  0  0  0
   11.6696    5.0621   22.1977 C   0  0  0  0  0  0  0  0  0  0  0  0
    7.0247    5.2348   23.3862 C   0  0  0  0  0  0  0  0  0  0  0  0
   14.3683   -1.1539   25.1607 C   0  0  0  0  0  0  0  0  0  0  0  0
    8.9851    0.9300   23.1291 C   0  0  2  0  0  0  0  0  0  0  0  0
    8.3199    4.6013   23.9060 C   0  0  2  0  0  0  0  0  0  0  0  0
   12.8898   -0.8142   23.2117 N   0  0  0  0  0  0  0  0  0  0  0  0
    8.9727    2.3826   23.1962 N   0  0  0  0  0  0  0  0  0  0  0  0
    9.3958    4.7886   22.9645 N   0  0  0  0  0  0  0  0  0  0  0  0
   10.3816    0.4755   22.8103 N   0  3  0  0  0  0  0  0  0  0  0  0
   14.3080   -2.6506   23.3248 O   0  0  0  0  0  0  0  0  0  0  0  0
   11.1646    4.7955   24.4797 O   0  0  0  0  0  0  0  0  0  0  0  0
    7.3924    2.5938   24.8869 O   0  0  0  0  0  0  0  0  0  0  0  0
    5.1662    2.9736   18.5419 O   0  0  0  0  0  0  0  0  0  0  0  0
   12.9708   -1.0690   26.2273 Cl  0  0  0  0  0  0  0  0  0  0  0  0
    5.2870   -0.8777   19.6549 H   0  0  0  0  0  0  0  0  0  0  0  0
    4.6909   -0.5473   22.0404 H   0  0  0  0  0  0  0  0  0  0  0  0
    7.5868   -0.3756   18.8700 H   0  0  0  0  0  0  0  0  0  0  0  0
    6.3846    0.2828   23.6395 H   0  0  0  0  0  0  0  0  0  0  0  0
    9.2875    0.4549   20.4610 H   0  0  0  0  0  0  0  0  0  0  0  0
    7.6273    6.0067   20.8418 H   0  0  0  0  0  0  0  0  0  0  0  0
    5.3259    3.1261   23.0697 H   0  0  0  0  0  0  0  0  0  0  0  0
    6.8161    5.0199   18.7304 H   0  0  0  0  0  0  0  0  0  0  0  0
    4.5164    2.1417   20.9569 H   0  0  0  0  0  0  0  0  0  0  0  0
   11.9866   -2.5096   22.3260 H   0  0  0  0  0  0  0  0  0  0  0  0
   12.1010   -1.0725   21.3096 H   0  0  0  0  0  0  0  0  0  0  0  0
   13.0336    1.0668   22.3461 H   0  0  0  0  0  0  0  0  0  0  0  0
   13.5231    1.0452   24.0355 H   0  0  0  0  0  0  0  0  0  0  0  0
    9.7495   -1.3798   22.0156 H   0  0  0  0  0  0  0  0  0  0  0  0
   10.2270   -1.4262   23.7414 H   0  0  0  0  0  0  0  0  0  0  0  0
   11.1562    0.7067   24.7732 H   0  0  0  0  0  0  0  0  0  0  0  0
   11.2894    2.1525   23.7244 H   0  0  0  0  0  0  0  0  0  0  0  0
   11.8469    6.1264   21.9742 H   0  0  0  0  0  0  0  0  0  0  0  0
   12.6659    4.6372   22.4000 H   0  0  0  0  0  0  0  0  0  0  0  0
   11.3523    4.6144   21.2423 H   0  0  0  0  0  0  0  0  0  0  0  0
    7.1745    6.3112   23.2269 H   0  0  0  0  0  0  0  0  0  0  0  0
    6.2394    5.1617   24.1511 H   0  0  0  0  0  0  0  0  0  0  0  0
   14.8130   -0.1714   25.0511 H   0  0  0  0  0  0  0  0  0  0  0  0
   15.0784   -1.8825   25.5346 H   0  0  0  0  0  0  0  0  0  0  0  0
    8.7866    0.5252   24.1279 H   0  0  0  0  0  0  0  0  0  0  0  0
    8.6431    5.0676   24.8429 H   0  0  0  0  0  0  0  0  0  0  0  0
    9.5463    2.8895   22.5279 H   0  0  0  0  0  0  0  0  0  0  0  0
    9.1658    4.8653   21.9767 H   0  0  0  0  0  0  0  0  0  0  0  0
   10.5995    0.8358   21.8709 H   0  0  0  0  0  0  0  0  0  0  0  0
    5.5416    3.4485   17.7833 H   0  0  0  0  0  0  0  0  0  0  0  0
  1  2  1  0  0  0  0
  1  3  2  0  0  0  0
  2  4  2  0  0  0  0
  3  5  1  0  0  0  0
  4 11  1  0  0  0  0
  5 11  2  0  0  0  0
  6  8  2  0  0  0  0
  6 10  1  0  0  0  0
  7  9  1  0  0  0  0
  7 10  2  0  0  0  0
  8 12  1  0  0  0  0
  9 12  2  0  0  0  0
 10 21  1  0  0  0  0
 11 23  1  0  0  0  0
 12 32  1  0  0  0  0
 13 22  1  0  0  0  0
 13 25  1  0  0  0  0
 13 29  2  0  0  0  0
 14 20  1  0  0  0  0
 14 27  1  0  0  0  0
 14 30  2  0  0  0  0
 15 24  1  0  0  0  0
 15 26  1  0  0  0  0
 15 31  2  0  0  0  0
 16 18  1  0  0  0  0
 16 25  1  0  0  0  0
 17 19  1  0  0  0  0
 17 25  1  0  0  0  0
 18 28  1  0  0  0  0
 19 28  1  0  0  0  0
 21 24  1  0  0  0  0
 22 33  1  0  0  0  0
 23 26  1  0  0  0  0
 23 28  1  0  0  0  0
 24 27  1  0  0  0  0
  1 34  1  0  0  0  0
  2 35  1  0  0  0  0
  3 36  1  0  0  0  0
  4 37  1  0  0  0  0
  5 38  1  0  0  0  0
  6 39  1  0  0  0  0
  7 40  1  0  0  0  0
  8 41  1  0  0  0  0
  9 42  1  0  0  0  0
 16 43  1  0  0  0  0
 16 44  1  0  0  0  0
 17 45  1  0  0  0  0
 17 46  1  0  0  0  0
 18 47  1  0  0  0  0
 18 48  1  0  0  0  0
 19 49  1  0  0  0  0
 19 50  1  0  0  0  0
 20 51  1  0  0  0  0
 20 52  1  0  0  0  0
 20 53  1  0  0  0  0
 21 54  1  0  0  0  0
 21 55  1  0  0  0  0
 22 56  1  0  0  0  0
 22 57  1  0  0  0  0
 23 58  1  0  0  0  0
 24 59  1  0  0  0  0
 26 60  1  0  0  0  0
 27 61  1  0  0  0  0
 28 62  1  0  0  0  0
 32 63  1  0  0  0  0
M  CHG  1  28   1
M  END
> <creator>
Nimesh Mistry, University of Leeds

> <fragments>
x0967

> <real_space>
FALSE

> <SCR>
FALSE

> <BB>
FALSE

> <link>
https://covid.postera.ai/covid/submissions/ed9fc491-dc03-4238-8d3b-b72343b7eaa7

> <covalent_frag>
TRUE

> <covalent_warhead>
TRUE

> <acrylamide>
FALSE

> <acrylamide_adduct>
FALSE

> <chloroacetamide>
TRUE

> <chloroacetamide_adduct>
FALSE

> <vinylsulfonamide>
FALSE

> <vinylsulfonamide_adduct>
FALSE

> <in_molport_or_mcule>
FALSE

> <in_emolecules>
FALSE

> <Hybrid2>
-1.408819

> <Mpro-x0967_dock>
-1.408819

> <Mpro-x0770_dock>
0.676428

> <site>
active-noncovalent

$$$$
WAR-XCH-bdd-22
  -OEChem-04062011563D

 54 57  0     0  0  0  0  0  0999 V2000
    5.3759   -2.7687   21.4950 C   0  0  0  0  0  0  0  0  0  0  0  0
    5.3261   -2.1412   20.2450 C   0  0  0  0  0  0  0  0  0  0  0  0
    6.4516   -2.5594   22.3557 C   0  0  0  0  0  0  0  0  0  0  0  0
   10.6714   -1.0043   24.6211 C   0  0  0  0  0  0  0  0  0  0  0  0
    6.6542   -0.5104   18.7020 C   0  0  0  0  0  0  0  0  0  0  0  0
    9.3969   -2.5783   23.3240 C   0  0  0  0  0  0  0  0  0  0  0  0
    9.8317   -0.0117   24.1421 C   0  0  0  0  0  0  0  0  0  0  0  0
    7.8574    0.1269   18.9000 C   0  0  0  0  0  0  0  0  0  0  0  0
    6.3808   -1.2893   19.8611 C   0  0  0  0  0  0  0  0  0  0  0  0
    7.5092   -1.7188   21.9965 C   0  0  0  0  0  0  0  0  0  0  0  0
   10.4431   -2.3094   24.1994 C   0  0  0  0  0  0  0  0  0  0  0  0
    7.4458   -1.0982   20.7439 C   0  0  0  0  0  0  0  0  0  0  0  0
    8.6140   -1.5153   22.9033 C   0  0  0  0  0  0  0  0  0  0  0  0
    7.2245   -6.7714   28.6665 C   0  0  0  0  0  0  0  0  0  0  0  0
    9.8638   -4.7700   27.1816 C   0  0  0  0  0  0  0  0  0  0  0  0
    8.3448   -5.7466   25.4241 C   0  0  0  0  0  0  0  0  0  0  0  0
    8.6866   -4.7542   28.1553 C   0  0  0  0  0  0  0  0  0  0  0  0
    7.1989   -5.7089   26.4324 C   0  0  0  0  0  0  0  0  0  0  0  0
    9.3860   -4.6581   25.7257 C   0  0  0  0  0  0  0  0  0  0  0  0
    9.5799    0.2538   20.6721 C   0  0  0  0  0  0  0  0  0  0  0  0
   11.3273   -3.4280   24.6898 C   0  0  0  0  0  0  0  0  0  0  0  0
    6.8186   -8.0813   28.0394 C   0  0  0  0  0  0  0  0  0  0  0  0
   10.5639   -4.7497   24.7587 C   0  0  0  0  0  0  0  0  0  0  0  0
    8.8052   -0.2344   23.2910 N   0  0  0  0  0  0  0  0  0  0  0  0
    8.3272   -0.2340   20.1343 N   0  0  0  0  0  0  0  0  0  0  0  0
    7.7063   -5.7881   27.8032 N   0  0  0  0  0  0  0  0  0  0  0  0
    7.1138   -6.6276   29.8868 O   0  0  0  0  0  0  0  0  0  0  0  0
    5.1064   -7.9466   27.6548 Cl  0  0  0  0  0  0  0  0  0  0  0  0
    4.5650   -3.4267   21.7960 H   0  0  0  0  0  0  0  0  0  0  0  0
    4.4828   -2.3151   19.5827 H   0  0  0  0  0  0  0  0  0  0  0  0
    6.4557   -3.0654   23.3194 H   0  0  0  0  0  0  0  0  0  0  0  0
   11.4795   -0.7625   25.3031 H   0  0  0  0  0  0  0  0  0  0  0  0
    6.0384   -0.4254   17.8170 H   0  0  0  0  0  0  0  0  0  0  0  0
    9.2030   -3.5920   22.9861 H   0  0  0  0  0  0  0  0  0  0  0  0
    9.9681    1.0230   24.4394 H   0  0  0  0  0  0  0  0  0  0  0  0
    8.4133    0.8037   18.2653 H   0  0  0  0  0  0  0  0  0  0  0  0
   10.5381   -3.9376   27.4157 H   0  0  0  0  0  0  0  0  0  0  0  0
   10.4378   -5.6950   27.3214 H   0  0  0  0  0  0  0  0  0  0  0  0
    8.8164   -6.7375   25.4471 H   0  0  0  0  0  0  0  0  0  0  0  0
    7.9431   -5.6079   24.4132 H   0  0  0  0  0  0  0  0  0  0  0  0
    9.0590   -4.8721   29.1743 H   0  0  0  0  0  0  0  0  0  0  0  0
    8.1681   -3.7890   28.1107 H   0  0  0  0  0  0  0  0  0  0  0  0
    6.6399   -4.7698   26.3438 H   0  0  0  0  0  0  0  0  0  0  0  0
    6.4999   -6.5256   26.2267 H   0  0  0  0  0  0  0  0  0  0  0  0
    8.9114   -3.6770   25.5907 H   0  0  0  0  0  0  0  0  0  0  0  0
    9.3744    1.1754   21.2230 H   0  0  0  0  0  0  0  0  0  0  0  0
   10.0095   -0.5011   21.3366 H   0  0  0  0  0  0  0  0  0  0  0  0
   10.2758    0.4453   19.8505 H   0  0  0  0  0  0  0  0  0  0  0  0
   12.1958   -3.5320   24.0265 H   0  0  0  0  0  0  0  0  0  0  0  0
   11.7290   -3.1764   25.6800 H   0  0  0  0  0  0  0  0  0  0  0  0
    6.9773   -8.8785   28.7567 H   0  0  0  0  0  0  0  0  0  0  0  0
    7.3934   -8.2298   27.1325 H   0  0  0  0  0  0  0  0  0  0  0  0
   10.1866   -5.0248   23.7684 H   0  0  0  0  0  0  0  0  0  0  0  0
   11.2268   -5.5573   25.0857 H   0  0  0  0  0  0  0  0  0  0  0  0
  1  2  2  0  0  0  0
  1  3  1  0  0  0  0
  2  9  1  0  0  0  0
  3 10  2  0  0  0  0
  4  7  2  0  0  0  0
  4 11  1  0  0  0  0
  5  8  2  0  0  0  0
  5  9  1  0  0  0  0
  6 11  2  0  0  0  0
  6 13  1  0  0  0  0
  7 24  1  0  0  0  0
  8 25  1  0  0  0  0
  9 12  2  0  0  0  0
 10 12  1  0  0  0  0
 10 13  1  0  0  0  0
 11 21  1  0  0  0  0
 12 25  1  0  0  0  0
 13 24  2  0  0  0  0
 14 22  1  0  0  0  0
 14 26  1  0  0  0  0
 14 27  2  0  0  0  0
 15 17  1  0  0  0  0
 15 19  1  0  0  0  0
 16 18  1  0  0  0  0
 16 19  1  0  0  0  0
 17 26  1  0  0  0  0
 18 26  1  0  0  0  0
 19 23  1  0  0  0  0
 20 25  1  0  0  0  0
 21 23  1  0  0  0  0
 22 28  1  0  0  0  0
  1 29  1  0  0  0  0
  2 30  1  0  0  0  0
  3 31  1  0  0  0  0
  4 32  1  0  0  0  0
  5 33  1  0  0  0  0
  6 34  1  0  0  0  0
  7 35  1  0  0  0  0
  8 36  1  0  0  0  0
 15 37  1  0  0  0  0
 15 38  1  0  0  0  0
 16 39  1  0  0  0  0
 16 40  1  0  0  0  0
 17 41  1  0  0  0  0
 17 42  1  0  0  0  0
 18 43  1  0  0  0  0
 18 44  1  0  0  0  0
 19 45  1  0  0  0  0
 20 46  1  0  0  0  0
 20 47  1  0  0  0  0
 20 48  1  0  0  0  0
 21 49  1  0  0  0  0
 21 50  1  0  0  0  0
 22 51  1  0  0  0  0
 22 52  1  0  0  0  0
 23 53  1  0  0  0  0
 23 54  1  0  0  0  0
M  END
> <creator>
Warren Thompson, XChem - Diamond Light Source

> <fragments>
x1334

> <real_space>
FALSE

> <SCR>
FALSE

> <BB>
FALSE

> <link>
https://covid.postera.ai/covid/submissions/bdd24732-f687-4f5f-b96b-e2bd62c18337

> <covalent_frag>
TRUE

> <covalent_warhead>
TRUE

> <acrylamide>
FALSE

> <acrylamide_adduct>
FALSE

> <chloroacetamide>
TRUE

> <chloroacetamide_adduct>
FALSE

> <vinylsulfonamide>
FALSE

> <vinylsulfonamide_adduct>
FALSE

> <in_molport_or_mcule>
FALSE

> <in_emolecules>
FALSE

> <Hybrid2>
-1.368689

> <Mpro-x1334_dock>
-1.368689

> <site>
active-covalent

> <covalent_distance_min>
6.16662

> <covalent_distance_mean>
7.0502872

> <covalent_distance_stderr>
0.09827968

$$$$
WAR-XCH-bdd-16
  -OEChem-04062011563D

 45 48  0     1  0  0  0  0  0999 V2000
   12.7123   -1.9798   22.1134 C   0  0  0  0  0  0  0  0  0  0  0  0
   13.3261   -2.7490   23.0957 C   0  0  0  0  0  0  0  0  0  0  0  0
    6.3202   -5.2963   26.8804 C   0  0  0  0  0  0  0  0  0  0  0  0
   11.3238   -1.9580   22.0264 C   0  0  0  0  0  0  0  0  0  0  0  0
    7.0444   -4.5236   25.9795 C   0  0  0  0  0  0  0  0  0  0  0  0
   12.5507   -3.4943   23.9888 C   0  0  0  0  0  0  0  0  0  0  0  0
    6.9071   -6.4572   27.3576 C   0  0  0  0  0  0  0  0  0  0  0  0
    8.8132   -6.1069   26.1238 C   0  0  0  0  0  0  0  0  0  0  0  0
   10.5511   -2.7102   22.9282 C   0  0  0  0  0  0  0  0  0  0  0  0
    8.3155   -4.9297   25.5887 C   0  0  0  0  0  0  0  0  0  0  0  0
   11.1594   -3.4909   23.9247 C   0  0  0  0  0  0  0  0  0  0  0  0
    9.1597   -2.7321   22.8956 C   0  0  0  0  0  0  0  0  0  0  0  0
    9.0898   -4.1515   24.6571 C   0  0  0  0  0  0  0  0  0  0  0  0
    5.9258   -2.2737   19.2166 C   0  0  0  0  0  0  0  0  0  0  0  0
    7.2941    0.2798   21.3010 C   0  0  0  0  0  0  0  0  0  0  0  0
    8.0964   -0.4961   22.3470 C   0  0  0  0  0  0  0  0  0  0  0  0
    6.0247   -0.4712   20.9091 C   0  0  0  0  0  0  0  0  0  0  0  0
    7.0726   -2.6390   21.4593 C   0  0  0  0  0  0  0  0  0  0  0  0
    8.3772   -1.9323   21.8667 C   0  0  2  0  0  0  0  0  0  0  0  0
    5.8142   -1.2269   18.1370 C   0  0  0  0  0  0  0  0  0  0  0  0
    8.1394   -6.8839   27.0012 N   0  0  0  0  0  0  0  0  0  0  0  0
   10.4301   -4.2139   24.7924 N   0  0  0  0  0  0  0  0  0  0  0  0
    8.3993   -3.4444   23.7483 N   0  0  0  0  0  0  0  0  0  0  0  0
    6.3386   -1.8333   20.4735 N   0  0  0  0  0  0  0  0  0  0  0  0
    5.6516   -3.4465   18.9495 O   0  0  0  0  0  0  0  0  0  0  0  0
    6.1864   -2.0302   16.6157 Cl  0  0  0  0  0  0  0  0  0  0  0  0
   13.3127   -1.4006   21.4185 H   0  0  0  0  0  0  0  0  0  0  0  0
   14.4095   -2.7714   23.1702 H   0  0  0  0  0  0  0  0  0  0  0  0
    5.3279   -4.9995   27.2002 H   0  0  0  0  0  0  0  0  0  0  0  0
   10.8633   -1.3503   21.2514 H   0  0  0  0  0  0  0  0  0  0  0  0
    6.6058   -3.6081   25.5903 H   0  0  0  0  0  0  0  0  0  0  0  0
   13.0558   -4.0885   24.7479 H   0  0  0  0  0  0  0  0  0  0  0  0
    6.3832   -7.0951   28.0622 H   0  0  0  0  0  0  0  0  0  0  0  0
    9.7994   -6.4783   25.8601 H   0  0  0  0  0  0  0  0  0  0  0  0
    7.0307    1.2663   21.6988 H   0  0  0  0  0  0  0  0  0  0  0  0
    7.9128    0.4467   20.4106 H   0  0  0  0  0  0  0  0  0  0  0  0
    9.0382    0.0276   22.5520 H   0  0  0  0  0  0  0  0  0  0  0  0
    7.5356   -0.5157   23.2911 H   0  0  0  0  0  0  0  0  0  0  0  0
    5.3448   -0.5496   21.7659 H   0  0  0  0  0  0  0  0  0  0  0  0
    5.4974    0.0789   20.1234 H   0  0  0  0  0  0  0  0  0  0  0  0
    7.2938   -3.6408   21.0835 H   0  0  0  0  0  0  0  0  0  0  0  0
    6.4098   -2.7672   22.3251 H   0  0  0  0  0  0  0  0  0  0  0  0
    9.0325   -1.8723   20.9601 H   0  0  0  0  0  0  0  0  0  0  0  0
    6.5380   -0.4433   18.3306 H   0  0  0  0  0  0  0  0  0  0  0  0
    4.7990   -0.8473   18.1188 H   0  0  0  0  0  0  0  0  0  0  0  0
  1  2  1  0  0  0  0
  1  4  2  0  0  0  0
  2  6  2  0  0  0  0
  3  5  2  0  0  0  0
  3  7  1  0  0  0  0
  4  9  1  0  0  0  0
  5 10  1  0  0  0  0
  6 11  1  0  0  0  0
  7 21  2  0  0  0  0
  8 10  2  0  0  0  0
  8 21  1  0  0  0  0
  9 11  1  0  0  0  0
  9 12  2  0  0  0  0
 10 13  1  0  0  0  0
 11 22  2  0  0  0  0
 12 19  1  0  0  0  0
 12 23  1  0  0  0  0
 13 22  1  0  0  0  0
 13 23  2  0  0  0  0
 14 20  1  0  0  0  0
 14 24  1  0  0  0  0
 14 25  2  0  0  0  0
 15 16  1  0  0  0  0
 15 17  1  0  0  0  0
 16 19  1  0  0  0  0
 17 24  1  0  0  0  0
 18 19  1  0  0  0  0
 18 24  1  0  0  0  0
 20 26  1  0  0  0  0
  1 27  1  0  0  0  0
  2 28  1  0  0  0  0
  3 29  1  0  0  0  0
  4 30  1  0  0  0  0
  5 31  1  0  0  0  0
  6 32  1  0  0  0  0
  7 33  1  0  0  0  0
  8 34  1  0  0  0  0
 15 35  1  0  0  0  0
 15 36  1  0  0  0  0
 16 37  1  0  0  0  0
 16 38  1  0  0  0  0
 17 39  1  0  0  0  0
 17 40  1  0  0  0  0
 18 41  1  0  0  0  0
 18 42  1  0  0  0  0
 19 43  1  0  0  0  0
 20 44  1  0  0  0  0
 20 45  1  0  0  0  0
M  END
> <creator>
Warren Thompson, XChem - Diamond Light Source

> <fragments>
x1334

> <real_space>
FALSE

> <SCR>
FALSE

> <BB>
FALSE

> <link>
https://covid.postera.ai/covid/submissions/bdd24732-f687-4f5f-b96b-e2bd62c18337

> <covalent_frag>
TRUE

> <covalent_warhead>
TRUE

> <acrylamide>
FALSE

> <acrylamide_adduct>
FALSE

> <chloroacetamide>
TRUE

> <chloroacetamide_adduct>
FALSE

> <vinylsulfonamide>
FALSE

> <vinylsulfonamide_adduct>
FALSE

> <in_molport_or_mcule>
FALSE

> <in_emolecules>
FALSE

> <Hybrid2>
-1.345714

> <Mpro-x1334_dock>
-1.345714

> <site>
active-covalent

> <covalent_distance_min>
3.0099287

> <covalent_distance_mean>
3.6188319

> <covalent_distance_stderr>
0.037734605

$$$$
MAK-UNK-8fd-19
  -OEChem-04062011563D

 75 78  0     1  0  0  0  0  0999 V2000
    6.1807   -0.8464   21.7374 C   0  0  0  0  0  0  0  0  0  0  0  0
    6.2181   -0.5737   20.3700 C   0  0  0  0  0  0  0  0  0  0  0  0
   12.2352   -1.5945   20.0929 C   0  0  0  0  0  0  0  0  0  0  0  0
    7.2758   -0.5309   22.5417 C   0  0  0  0  0  0  0  0  0  0  0  0
    7.3506    0.0145   19.8068 C   0  0  0  0  0  0  0  0  0  0  0  0
   11.2857   -1.7613   21.0949 C   0  0  0  0  0  0  0  0  0  0  0  0
   13.5566   -1.4243   20.4735 C   0  0  0  0  0  0  0  0  0  0  0  0
   13.0272   -1.5758   22.7040 C   0  0  0  0  0  0  0  0  0  0  0  0
    8.4084    0.0572   21.9786 C   0  0  0  0  0  0  0  0  0  0  0  0
    8.4458    0.3299   20.6111 C   0  0  0  0  0  0  0  0  0  0  0  0
   11.6810   -1.7529   22.4279 C   0  0  0  0  0  0  0  0  0  0  0  0
   10.4345    1.4018   22.6304 C   0  0  0  0  0  0  0  0  0  0  0  0
   11.2030    0.4347   24.5374 C   0  0  0  0  0  0  0  0  0  0  0  0
    9.5664    0.3896   22.8358 C   0  0  0  0  0  0  0  0  0  0  0  0
   11.4387    1.4281   23.6685 C   0  0  0  0  0  0  0  0  0  0  0  0
    8.4721   -1.3316   25.8034 C   0  0  0  0  0  0  0  0  0  0  0  0
    5.6847   -4.2979   28.8841 C   0  0  0  0  0  0  0  0  0  0  0  0
    6.1070   -1.7121   26.4763 C   0  0  0  0  0  0  0  0  0  0  0  0
    7.9324   -1.5397   28.2375 C   0  0  0  0  0  0  0  0  0  0  0  0
    6.0986   -3.2241   26.6940 C   0  0  0  0  0  0  0  0  0  0  0  0
    7.8537   -3.0568   28.4140 C   0  0  0  0  0  0  0  0  0  0  0  0
    7.4428   -1.0697   26.8639 C   0  0  0  0  0  0  0  0  0  0  0  0
    9.9781   -0.3255   24.1085 C   0  0  2  0  0  0  0  0  0  0  0  0
    8.8883    1.4490   26.9104 C   0  0  0  0  0  0  0  0  0  0  0  0
    7.0683    1.2677   25.1782 C   0  0  0  0  0  0  0  0  0  0  0  0
   13.1237    4.8570   23.7276 C   0  0  0  0  0  0  0  0  0  0  0  0
   12.5310    2.4308   23.6959 C   0  0  0  0  0  0  0  0  0  0  0  0
    4.3607   -4.7235   28.3012 C   0  0  0  0  0  0  0  0  0  0  0  0
    8.5593    1.1448   25.4561 C   0  0  0  0  0  0  0  0  0  0  0  0
   13.9785   -1.4106   21.7578 N   0  0  0  0  0  0  0  0  0  0  0  0
    6.5226   -3.5545   28.0539 N   0  0  0  0  0  0  0  0  0  0  0  0
    8.9882   -0.2159   25.1431 N   0  0  0  0  0  0  0  0  0  0  0  0
   12.0450    3.8330   23.7568 N   0  3  0  0  0  0  0  0  0  0  0  0
    8.8098   -2.4945   25.5664 O   0  0  0  0  0  0  0  0  0  0  0  0
    5.9647   -4.6192   30.0419 O   0  0  0  0  0  0  0  0  0  0  0  0
    9.3810   -2.7005   23.1674 O   0  0  0  0  0  0  0  0  0  0  0  0
   11.2085   -2.4888   24.8883 O   0  0  0  0  0  0  0  0  0  0  0  0
    9.5273    0.8950   20.0548 F   0  0  0  0  0  0  0  0  0  0  0  0
   10.5013   -1.9622   23.7307 S   0  0  0  0  0  0  0  0  0  0  0  0
    3.5422   -5.6636   29.5438 Cl  0  0  0  0  0  0  0  0  0  0  0  0
    5.2988   -1.3049   22.1757 H   0  0  0  0  0  0  0  0  0  0  0  0
    5.3656   -0.8193   19.7436 H   0  0  0  0  0  0  0  0  0  0  0  0
   11.9501   -1.5976   19.0472 H   0  0  0  0  0  0  0  0  0  0  0  0
    7.2313   -0.7504   23.6057 H   0  0  0  0  0  0  0  0  0  0  0  0
    7.3802    0.2271   18.7422 H   0  0  0  0  0  0  0  0  0  0  0  0
   10.2416   -1.8969   20.8267 H   0  0  0  0  0  0  0  0  0  0  0  0
   14.3356   -1.2901   19.7302 H   0  0  0  0  0  0  0  0  0  0  0  0
   13.3960   -1.5603   23.7249 H   0  0  0  0  0  0  0  0  0  0  0  0
   10.4038    2.1053   21.8117 H   0  0  0  0  0  0  0  0  0  0  0  0
   11.7958    0.2174   25.4149 H   0  0  0  0  0  0  0  0  0  0  0  0
    5.8695   -1.4980   25.4273 H   0  0  0  0  0  0  0  0  0  0  0  0
    5.3079   -1.2640   27.0808 H   0  0  0  0  0  0  0  0  0  0  0  0
    7.3176   -1.0653   29.0132 H   0  0  0  0  0  0  0  0  0  0  0  0
    8.9651   -1.2113   28.4062 H   0  0  0  0  0  0  0  0  0  0  0  0
    5.0979   -3.6183   26.4905 H   0  0  0  0  0  0  0  0  0  0  0  0
    6.7892   -3.7214   26.0031 H   0  0  0  0  0  0  0  0  0  0  0  0
    8.5755   -3.5617   27.7619 H   0  0  0  0  0  0  0  0  0  0  0  0
    8.1229   -3.3129   29.4404 H   0  0  0  0  0  0  0  0  0  0  0  0
    7.3138    0.0196   26.8880 H   0  0  0  0  0  0  0  0  0  0  0  0
    8.3483    0.7735   27.5819 H   0  0  0  0  0  0  0  0  0  0  0  0
    9.9607    1.3421   27.1087 H   0  0  0  0  0  0  0  0  0  0  0  0
    8.6075    2.4767   27.1656 H   0  0  0  0  0  0  0  0  0  0  0  0
    6.4965    0.5888   25.8204 H   0  0  0  0  0  0  0  0  0  0  0  0
    6.8440    1.0178   24.1361 H   0  0  0  0  0  0  0  0  0  0  0  0
    6.7075    2.2843   25.3707 H   0  0  0  0  0  0  0  0  0  0  0  0
   13.7045    4.7042   22.8161 H   0  0  0  0  0  0  0  0  0  0  0  0
   12.6507    5.8408   23.7315 H   0  0  0  0  0  0  0  0  0  0  0  0
   13.7428    4.7156   24.6156 H   0  0  0  0  0  0  0  0  0  0  0  0
   13.1442    2.3582   22.7925 H   0  0  0  0  0  0  0  0  0  0  0  0
   13.1673    2.2841   24.5737 H   0  0  0  0  0  0  0  0  0  0  0  0
    4.5429   -5.3395   27.4280 H   0  0  0  0  0  0  0  0  0  0  0  0
    3.7818   -3.8390   28.0614 H   0  0  0  0  0  0  0  0  0  0  0  0
    9.1098    1.8315   24.8037 H   0  0  0  0  0  0  0  0  0  0  0  0
   11.4842    3.9602   24.6111 H   0  0  0  0  0  0  0  0  0  0  0  0
   11.3998    4.0024   22.9722 H   0  0  0  0  0  0  0  0  0  0  0  0
  1  2  1  0  0  0  0
  1  4  2  0  0  0  0
  2  5  2  0  0  0  0
  3  6  2  0  0  0  0
  3  7  1  0  0  0  0
  4  9  1  0  0  0  0
  5 10  1  0  0  0  0
  6 11  1  0  0  0  0
  7 30  2  0  0  0  0
  8 11  2  0  0  0  0
  8 30  1  0  0  0  0
  9 10  2  0  0  0  0
  9 14  1  0  0  0  0
 10 38  1  0  0  0  0
 11 39  1  0  0  0  0
 12 14  2  0  0  0  0
 12 15  1  0  0  0  0
 13 15  2  0  0  0  0
 13 23  1  0  0  0  0
 14 23  1  0  0  0  0
 15 27  1  0  0  0  0
 16 22  1  0  0  0  0
 16 32  1  0  0  0  0
 16 34  2  0  0  0  0
 17 28  1  0  0  0  0
 17 31  1  0  0  0  0
 17 35  2  0  0  0  0
 18 20  1  0  0  0  0
 18 22  1  0  0  0  0
 19 21  1  0  0  0  0
 19 22  1  0  0  0  0
 20 31  1  0  0  0  0
 21 31  1  0  0  0  0
 23 32  1  0  0  0  0
 23 39  1  0  0  0  0
 24 29  1  0  0  0  0
 25 29  1  0  0  0  0
 26 33  1  0  0  0  0
 27 33  1  0  0  0  0
 28 40  1  0  0  0  0
 29 32  1  0  0  0  0
 36 39  2  0  0  0  0
 37 39  2  0  0  0  0
  1 41  1  0  0  0  0
  2 42  1  0  0  0  0
  3 43  1  0  0  0  0
  4 44  1  0  0  0  0
  5 45  1  0  0  0  0
  6 46  1  0  0  0  0
  7 47  1  0  0  0  0
  8 48  1  0  0  0  0
 12 49  1  0  0  0  0
 13 50  1  0  0  0  0
 18 51  1  0  0  0  0
 18 52  1  0  0  0  0
 19 53  1  0  0  0  0
 19 54  1  0  0  0  0
 20 55  1  0  0  0  0
 20 56  1  0  0  0  0
 21 57  1  0  0  0  0
 21 58  1  0  0  0  0
 22 59  1  0  0  0  0
 24 60  1  0  0  0  0
 24 61  1  0  0  0  0
 24 62  1  0  0  0  0
 25 63  1  0  0  0  0
 25 64  1  0  0  0  0
 25 65  1  0  0  0  0
 26 66  1  0  0  0  0
 26 67  1  0  0  0  0
 26 68  1  0  0  0  0
 27 69  1  0  0  0  0
 27 70  1  0  0  0  0
 28 71  1  0  0  0  0
 28 72  1  0  0  0  0
 29 73  1  0  0  0  0
 33 74  1  0  0  0  0
 33 75  1  0  0  0  0
M  CHG  1  33   1
M  END
> <creator>
Maksym Voznyy

> <fragments>
x0305

> <real_space>
FALSE

> <SCR>
FALSE

> <BB>
FALSE

> <link>
https://covid.postera.ai/covid/submissions/8fdbca50-c94c-4218-91b0-3b0489774fa8

> <covalent_frag>
FALSE

> <covalent_warhead>
TRUE

> <acrylamide>
FALSE

> <acrylamide_adduct>
FALSE

> <chloroacetamide>
TRUE

> <chloroacetamide_adduct>
FALSE

> <vinylsulfonamide>
FALSE

> <vinylsulfonamide_adduct>
FALSE

> <in_molport_or_mcule>
FALSE

> <in_emolecules>
FALSE

> <Hybrid2>
-1.215507

> <Mpro-x0305_dock>
-1.215507

> <site>
active-noncovalent

> <covalent_distance_min>
9.71799

> <covalent_distance_mean>
10.381753

> <covalent_distance_stderr>
0.06658951

$$$$
WAR-XCH-b03-19
  -OEChem-04062011563D

 45 48  0     0  0  0  0  0  0999 V2000
    7.1203   -6.3661   26.9566 C   0  0  0  0  0  0  0  0  0  0  0  0
    7.1724   -5.8012   28.2260 C   0  0  0  0  0  0  0  0  0  0  0  0
    8.6094    2.0555   25.7554 C   0  0  0  0  0  0  0  0  0  0  0  0
    7.2151   -5.5466   25.8361 C   0  0  0  0  0  0  0  0  0  0  0  0
    8.4818    0.6855   25.5551 C   0  0  0  0  0  0  0  0  0  0  0  0
    7.3195   -4.4187   28.3725 C   0  0  0  0  0  0  0  0  0  0  0  0
    8.0358    2.6009   26.8927 C   0  0  0  0  0  0  0  0  0  0  0  0
    7.2574    0.5549   27.5899 C   0  0  0  0  0  0  0  0  0  0  0  0
    7.3629   -4.1573   25.9918 C   0  0  0  0  0  0  0  0  0  0  0  0
    7.7943   -0.0863   26.4851 C   0  0  0  0  0  0  0  0  0  0  0  0
    7.4170   -3.5750   27.2687 C   0  0  0  0  0  0  0  0  0  0  0  0
    7.4636   -3.2826   24.9137 C   0  0  0  0  0  0  0  0  0  0  0  0
    7.6448   -1.5070   26.3055 C   0  0  0  0  0  0  0  0  0  0  0  0
    5.9914   -2.3701   19.5912 C   0  0  0  0  0  0  0  0  0  0  0  0
    8.3066   -2.9594   22.5241 C   0  0  0  0  0  0  0  0  0  0  0  0
    5.9760   -3.9259   22.9642 C   0  0  0  0  0  0  0  0  0  0  0  0
    7.5096   -2.0509   21.5895 C   0  0  0  0  0  0  0  0  0  0  0  0
    5.9455   -3.9977   21.4425 C   0  0  0  0  0  0  0  0  0  0  0  0
    7.4188   -3.7810   23.4839 C   0  0  0  0  0  0  0  0  0  0  0  0
    5.9824   -0.8836   19.3324 C   0  0  0  0  0  0  0  0  0  0  0  0
    7.3607    1.8833   27.8184 N   0  0  0  0  0  0  0  0  0  0  0  0
    7.5583   -2.2476   27.4292 N   0  0  0  0  0  0  0  0  0  0  0  0
    7.6055   -1.9496   25.0384 N   0  0  0  0  0  0  0  0  0  0  0  0
    6.4842   -2.7803   20.8316 N   0  0  0  0  0  0  0  0  0  0  0  0
    5.5782   -3.1417   18.7221 O   0  0  0  0  0  0  0  0  0  0  0  0
    4.9359   -0.1662   20.5522 Cl  0  0  0  0  0  0  0  0  0  0  0  0
    7.0056   -7.4395   26.8406 H   0  0  0  0  0  0  0  0  0  0  0  0
    7.0989   -6.4340   29.1058 H   0  0  0  0  0  0  0  0  0  0  0  0
    9.1415    2.6773   25.0447 H   0  0  0  0  0  0  0  0  0  0  0  0
    7.1722   -6.0078   24.8526 H   0  0  0  0  0  0  0  0  0  0  0  0
    8.9228    0.2334   24.6703 H   0  0  0  0  0  0  0  0  0  0  0  0
    7.3569   -4.0017   29.3771 H   0  0  0  0  0  0  0  0  0  0  0  0
    8.1070    3.6649   27.0948 H   0  0  0  0  0  0  0  0  0  0  0  0
    6.7102    0.0090   28.3531 H   0  0  0  0  0  0  0  0  0  0  0  0
    8.9321   -3.6441   21.9206 H   0  0  0  0  0  0  0  0  0  0  0  0
    9.0233   -2.3449   23.1035 H   0  0  0  0  0  0  0  0  0  0  0  0
    5.3634   -3.0785   23.3017 H   0  0  0  0  0  0  0  0  0  0  0  0
    5.5157   -4.8295   23.3840 H   0  0  0  0  0  0  0  0  0  0  0  0
    7.0758   -1.2253   22.1725 H   0  0  0  0  0  0  0  0  0  0  0  0
    8.1818   -1.5810   20.8501 H   0  0  0  0  0  0  0  0  0  0  0  0
    6.5558   -4.8402   21.0838 H   0  0  0  0  0  0  0  0  0  0  0  0
    4.9175   -4.1816   21.1015 H   0  0  0  0  0  0  0  0  0  0  0  0
    7.8602   -4.8327   23.5267 H   0  0  0  0  0  0  0  0  0  0  0  0
    5.5794   -0.7016   18.3426 H   0  0  0  0  0  0  0  0  0  0  0  0
    6.9918   -0.5027   19.4369 H   0  0  0  0  0  0  0  0  0  0  0  0
  1  2  1  0  0  0  0
  1  4  2  0  0  0  0
  2  6  2  0  0  0  0
  3  5  2  0  0  0  0
  3  7  1  0  0  0  0
  4  9  1  0  0  0  0
  5 10  1  0  0  0  0
  6 11  1  0  0  0  0
  7 21  2  0  0  0  0
  8 10  2  0  0  0  0
  8 21  1  0  0  0  0
  9 11  1  0  0  0  0
  9 12  2  0  0  0  0
 10 13  1  0  0  0  0
 11 22  2  0  0  0  0
 12 19  1  0  0  0  0
 12 23  1  0  0  0  0
 13 22  1  0  0  0  0
 13 23  2  0  0  0  0
 14 20  1  0  0  0  0
 14 24  1  0  0  0  0
 14 25  2  0  0  0  0
 15 17  1  0  0  0  0
 15 19  1  0  0  0  0
 16 18  1  0  0  0  0
 16 19  1  0  0  0  0
 17 24  1  0  0  0  0
 18 24  1  0  0  0  0
 20 26  1  0  0  0  0
  1 27  1  0  0  0  0
  2 28  1  0  0  0  0
  3 29  1  0  0  0  0
  4 30  1  0  0  0  0
  5 31  1  0  0  0  0
  6 32  1  0  0  0  0
  7 33  1  0  0  0  0
  8 34  1  0  0  0  0
 15 35  1  0  0  0  0
 15 36  1  0  0  0  0
 16 37  1  0  0  0  0
 16 38  1  0  0  0  0
 17 39  1  0  0  0  0
 17 40  1  0  0  0  0
 18 41  1  0  0  0  0
 18 42  1  0  0  0  0
 19 43  1  0  0  0  0
 20 44  1  0  0  0  0
 20 45  1  0  0  0  0
M  END
> <creator>
Warren Thompson, XChem - Diamond Light Source

> <fragments>
x1458

> <real_space>
FALSE

> <SCR>
FALSE

> <BB>
FALSE

> <link>
https://covid.postera.ai/covid/submissions/b0339bbe-c90e-4133-a07d-b9c731b043e2

> <covalent_frag>
TRUE

> <covalent_warhead>
TRUE

> <acrylamide>
FALSE

> <acrylamide_adduct>
FALSE

> <chloroacetamide>
TRUE

> <chloroacetamide_adduct>
FALSE

> <vinylsulfonamide>
FALSE

> <vinylsulfonamide_adduct>
FALSE

> <in_molport_or_mcule>
FALSE

> <in_emolecules>
FALSE

> <Hybrid2>
-0.831118

> <Mpro-x1458_dock>
-0.831118

> <Mpro-x1478_dock>
-0.556787

> <Mpro-x1493_dock>
0.883702

> <site>
active-covalent

> <covalent_distance_min>
3.1137896

> <covalent_distance_mean>
3.5983236

> <covalent_distance_stderr>
0.022356912

$$$$
WAR-XCH-bdd-26
  -OEChem-04062011563D

 53 56  0     0  0  0  0  0  0999 V2000
    7.0750   -0.3742   18.9744 C   0  0  0  0  0  0  0  0  0  0  0  0
    5.9796   -3.4144   24.0649 C   0  0  0  0  0  0  0  0  0  0  0  0
    6.4424   -1.1068   17.9829 C   0  0  0  0  0  0  0  0  0  0  0  0
    5.4102   -2.4657   19.5211 C   0  0  0  0  0  0  0  0  0  0  0  0
    6.8255   -4.3975   24.6603 C   0  0  0  0  0  0  0  0  0  0  0  0
    6.8416   -0.7323   20.2975 C   0  0  0  0  0  0  0  0  0  0  0  0
    5.9946   -1.7970   20.5846 C   0  0  0  0  0  0  0  0  0  0  0  0
    7.8171   -4.8034   23.7873 C   0  0  0  0  0  0  0  0  0  0  0  0
    6.3559   -3.1192   22.7721 C   0  0  0  0  0  0  0  0  0  0  0  0
   11.9718   -1.3905   24.3515 C   0  0  0  0  0  0  0  0  0  0  0  0
    6.7196   -4.9383   26.0526 C   0  0  0  0  0  0  0  0  0  0  0  0
    8.8534   -5.8412   24.0860 C   0  0  0  0  0  0  0  0  0  0  0  0
    7.5337   -6.2301   26.2260 C   0  0  0  0  0  0  0  0  0  0  0  0
    8.9296   -6.1086   25.5976 C   0  0  0  0  0  0  0  0  0  0  0  0
    9.4440   -1.1391   24.4731 C   0  0  0  0  0  0  0  0  0  0  0  0
   10.5260   -2.0526   22.4560 C   0  0  0  0  0  0  0  0  0  0  0  0
    8.6175   -0.1873   23.6190 C   0  0  0  0  0  0  0  0  0  0  0  0
    9.7174   -1.1141   21.5724 C   0  0  0  0  0  0  0  0  0  0  0  0
    7.5127    0.0443   21.3917 C   0  0  0  0  0  0  0  0  0  0  0  0
   12.0546   -0.8635   25.7618 C   0  0  0  0  0  0  0  0  0  0  0  0
    5.6130   -2.1470   18.2231 N   0  0  0  0  0  0  0  0  0  0  0  0
   10.6966   -1.4950   23.7978 N   0  0  0  0  0  0  0  0  0  0  0  0
    5.7300   -2.1967   21.9065 N   0  0  0  0  0  0  0  0  0  0  0  0
    8.4038   -0.8041   22.2548 N   0  3  0  0  0  0  0  0  0  0  0  0
   13.0103   -1.6973   23.7606 O   0  0  0  0  0  0  0  0  0  0  0  0
    7.7247   -4.0218   22.2778 S   0  0  0  0  0  0  0  0  0  0  0  0
   11.9164   -2.2563   26.8290 Cl  0  0  0  0  0  0  0  0  0  0  0  0
    7.7293    0.4518   18.7170 H   0  0  0  0  0  0  0  0  0  0  0  0
    5.1364   -2.9519   24.5634 H   0  0  0  0  0  0  0  0  0  0  0  0
    6.5913   -0.8679   16.9350 H   0  0  0  0  0  0  0  0  0  0  0  0
    4.7392   -3.3044   19.6815 H   0  0  0  0  0  0  0  0  0  0  0  0
    7.0600   -4.1907   26.7782 H   0  0  0  0  0  0  0  0  0  0  0  0
    5.6633   -5.1437   26.2665 H   0  0  0  0  0  0  0  0  0  0  0  0
    8.6363   -6.7785   23.5616 H   0  0  0  0  0  0  0  0  0  0  0  0
    9.8277   -5.4808   23.7332 H   0  0  0  0  0  0  0  0  0  0  0  0
    7.6411   -6.4564   27.2949 H   0  0  0  0  0  0  0  0  0  0  0  0
    6.9908   -7.0680   25.7740 H   0  0  0  0  0  0  0  0  0  0  0  0
    9.4849   -7.0384   25.7778 H   0  0  0  0  0  0  0  0  0  0  0  0
    9.4913   -5.3027   26.0835 H   0  0  0  0  0  0  0  0  0  0  0  0
    9.6454   -0.6785   25.4440 H   0  0  0  0  0  0  0  0  0  0  0  0
    8.8962   -2.0695   24.6595 H   0  0  0  0  0  0  0  0  0  0  0  0
   10.0119   -3.0165   22.5659 H   0  0  0  0  0  0  0  0  0  0  0  0
   11.4848   -2.2585   21.9741 H   0  0  0  0  0  0  0  0  0  0  0  0
    7.6295   -0.0283   24.0639 H   0  0  0  0  0  0  0  0  0  0  0  0
    9.1180    0.7777   23.4779 H   0  0  0  0  0  0  0  0  0  0  0  0
   10.2371   -0.1660   21.3963 H   0  0  0  0  0  0  0  0  0  0  0  0
    9.4830   -1.5907   20.6154 H   0  0  0  0  0  0  0  0  0  0  0  0
    8.1397    0.8438   20.9826 H   0  0  0  0  0  0  0  0  0  0  0  0
    6.7761    0.5058   22.0582 H   0  0  0  0  0  0  0  0  0  0  0  0
   11.2292   -0.1814   25.9312 H   0  0  0  0  0  0  0  0  0  0  0  0
   13.0156   -0.3816   25.9010 H   0  0  0  0  0  0  0  0  0  0  0  0
    4.9281   -1.7301   22.3242 H   0  0  0  0  0  0  0  0  0  0  0  0
    7.9119   -1.6975   22.3942 H   0  0  0  0  0  0  0  0  0  0  0  0
  1  3  2  0  0  0  0
  1  6  1  0  0  0  0
  2  5  1  0  0  0  0
  2  9  2  0  0  0  0
  3 21  1  0  0  0  0
  4  7  1  0  0  0  0
  4 21  2  0  0  0  0
  5  8  2  0  0  0  0
  5 11  1  0  0  0  0
  6  7  2  0  0  0  0
  6 19  1  0  0  0  0
  7 23  1  0  0  0  0
  8 12  1  0  0  0  0
  8 26  1  0  0  0  0
  9 23  1  0  0  0  0
  9 26  1  0  0  0  0
 10 20  1  0  0  0  0
 10 22  1  0  0  0  0
 10 25  2  0  0  0  0
 11 13  1  0  0  0  0
 12 14  1  0  0  0  0
 13 14  1  0  0  0  0
 15 17  1  0  0  0  0
 15 22  1  0  0  0  0
 16 18  1  0  0  0  0
 16 22  1  0  0  0  0
 17 24  1  0  0  0  0
 18 24  1  0  0  0  0
 19 24  1  0  0  0  0
 20 27  1  0  0  0  0
  1 28  1  0  0  0  0
  2 29  1  0  0  0  0
  3 30  1  0  0  0  0
  4 31  1  0  0  0  0
 11 32  1  0  0  0  0
 11 33  1  0  0  0  0
 12 34  1  0  0  0  0
 12 35  1  0  0  0  0
 13 36  1  0  0  0  0
 13 37  1  0  0  0  0
 14 38  1  0  0  0  0
 14 39  1  0  0  0  0
 15 40  1  0  0  0  0
 15 41  1  0  0  0  0
 16 42  1  0  0  0  0
 16 43  1  0  0  0  0
 17 44  1  0  0  0  0
 17 45  1  0  0  0  0
 18 46  1  0  0  0  0
 18 47  1  0  0  0  0
 19 48  1  0  0  0  0
 19 49  1  0  0  0  0
 20 50  1  0  0  0  0
 20 51  1  0  0  0  0
 23 52  1  0  0  0  0
 24 53  1  0  0  0  0
M  CHG  1  24   1
M  END
> <creator>
Warren Thompson, XChem - Diamond Light Source

> <fragments>
x1334

> <real_space>
FALSE

> <SCR>
FALSE

> <BB>
FALSE

> <link>
https://covid.postera.ai/covid/submissions/bdd24732-f687-4f5f-b96b-e2bd62c18337

> <covalent_frag>
TRUE

> <covalent_warhead>
TRUE

> <acrylamide>
FALSE

> <acrylamide_adduct>
FALSE

> <chloroacetamide>
TRUE

> <chloroacetamide_adduct>
FALSE

> <vinylsulfonamide>
FALSE

> <vinylsulfonamide_adduct>
FALSE

> <in_molport_or_mcule>
FALSE

> <in_emolecules>
FALSE

> <Hybrid2>
-0.827863

> <Mpro-x1334_dock>
-0.827863

> <site>
active-covalent

> <covalent_distance_min>
6.7313523

> <covalent_distance_mean>
8.115368

> <covalent_distance_stderr>
0.08333759

$$$$
MAK-UNK-8fd-11
  -OEChem-04062011563D

 77 80  0     1  0  0  0  0  0999 V2000
    6.0859   -1.1204   27.8553 C   0  0  0  0  0  0  0  0  0  0  0  0
    6.8009   -0.1079   28.4949 C   0  0  0  0  0  0  0  0  0  0  0  0
    7.9822   -6.7319   25.0605 C   0  0  0  0  0  0  0  0  0  0  0  0
    6.3727   -1.4463   26.5296 C   0  0  0  0  0  0  0  0  0  0  0  0
    7.8028    0.5788   27.8090 C   0  0  0  0  0  0  0  0  0  0  0  0
    8.7129   -5.5947   24.7344 C   0  0  0  0  0  0  0  0  0  0  0  0
    7.0925   -0.6054   23.3209 C   0  0  0  0  0  0  0  0  0  0  0  0
    7.1541   -6.6747   26.1699 C   0  0  0  0  0  0  0  0  0  0  0  0
    7.7391   -4.4961   26.6055 C   0  0  0  0  0  0  0  0  0  0  0  0
    8.5975   -2.1761   22.7397 C   0  0  0  0  0  0  0  0  0  0  0  0
    7.3745   -0.7596   25.8437 C   0  0  0  0  0  0  0  0  0  0  0  0
    8.0896    0.2529   26.4834 C   0  0  0  0  0  0  0  0  0  0  0  0
    7.6907   -1.2757   22.2255 C   0  0  0  0  0  0  0  0  0  0  0  0
    8.5948   -4.4513   25.5166 C   0  0  0  0  0  0  0  0  0  0  0  0
    7.6521   -1.1164   24.4712 C   0  0  0  0  0  0  0  0  0  0  0  0
   10.9616    2.4621   24.1338 C   0  0  0  0  0  0  0  0  0  0  0  0
   13.1990   -1.2882   21.4902 C   0  0  0  0  0  0  0  0  0  0  0  0
   13.0449    1.9938   22.8564 C   0  0  0  0  0  0  0  0  0  0  0  0
   10.7778    1.3677   21.8914 C   0  0  0  0  0  0  0  0  0  0  0  0
   13.2675    0.5175   23.1799 C   0  0  0  0  0  0  0  0  0  0  0  0
   11.0793   -0.0932   22.2283 C   0  0  0  0  0  0  0  0  0  0  0  0
   11.5597    2.3574   22.7611 C   0  0  0  0  0  0  0  0  0  0  0  0
    8.7701    3.4601   26.3904 C   0  0  0  0  0  0  0  0  0  0  0  0
    9.0090    3.7201   23.2113 C   0  0  0  0  0  0  0  0  0  0  0  0
    5.8273   -1.4597   18.8976 C   0  0  0  0  0  0  0  0  0  0  0  0
    9.1808    1.0183   25.7739 C   0  0  0  0  0  0  0  0  0  0  0  0
    7.3974   -1.0520   20.7968 C   0  0  0  0  0  0  0  0  0  0  0  0
   12.4243   -2.5281   21.1208 C   0  0  0  0  0  0  0  0  0  0  0  0
    8.7387    2.4084   25.2813 C   0  0  2  0  0  0  0  0  0  0  0  0
    7.0132   -5.5822   26.9536 N   0  0  0  0  0  0  0  0  0  0  0  0
    8.5658   -2.0702   24.1057 N   0  0  0  0  0  0  0  0  0  0  0  0
   12.5251   -0.3343   22.2517 N   0  0  0  0  0  0  0  0  0  0  0  0
    9.6228    2.8488   24.2052 N   0  0  0  0  0  0  0  0  0  0  0  0
    6.0961   -1.6347   20.3460 N   0  3  0  0  0  0  0  0  0  0  0  0
   11.6626    2.2079   25.1168 O   0  0  0  0  0  0  0  0  0  0  0  0
   14.3671   -1.1720   21.1106 O   0  0  0  0  0  0  0  0  0  0  0  0
    9.6397   -2.1858   26.3524 O   0  0  0  0  0  0  0  0  0  0  0  0
   10.6989   -3.4228   24.3976 O   0  0  0  0  0  0  0  0  0  0  0  0
    9.5108   -2.9815   25.1320 S   0  0  0  0  0  0  0  0  0  0  0  0
   11.6055   -2.1769   19.6029 Cl  0  0  0  0  0  0  0  0  0  0  0  0
    5.3058   -1.6548   28.3895 H   0  0  0  0  0  0  0  0  0  0  0  0
    6.5775    0.1457   29.5271 H   0  0  0  0  0  0  0  0  0  0  0  0
    8.0585   -7.6345   24.4652 H   0  0  0  0  0  0  0  0  0  0  0  0
    5.8056   -2.2383   26.0461 H   0  0  0  0  0  0  0  0  0  0  0  0
    8.3538    1.3660   28.3168 H   0  0  0  0  0  0  0  0  0  0  0  0
    9.3707   -5.6099   23.8699 H   0  0  0  0  0  0  0  0  0  0  0  0
    6.3353    0.1662   23.2733 H   0  0  0  0  0  0  0  0  0  0  0  0
    6.5631   -7.5349   26.4666 H   0  0  0  0  0  0  0  0  0  0  0  0
    7.6051   -3.6351   27.2530 H   0  0  0  0  0  0  0  0  0  0  0  0
    9.2582   -2.8782   22.2482 H   0  0  0  0  0  0  0  0  0  0  0  0
   13.5413    2.6081   23.6174 H   0  0  0  0  0  0  0  0  0  0  0  0
   13.5294    2.2221   21.8983 H   0  0  0  0  0  0  0  0  0  0  0  0
   11.0336    1.5436   20.8386 H   0  0  0  0  0  0  0  0  0  0  0  0
    9.6998    1.5441   21.9896 H   0  0  0  0  0  0  0  0  0  0  0  0
   14.3381    0.2920   23.1457 H   0  0  0  0  0  0  0  0  0  0  0  0
   12.9196    0.2835   24.1928 H   0  0  0  0  0  0  0  0  0  0  0  0
   10.6920   -0.3510   23.2206 H   0  0  0  0  0  0  0  0  0  0  0  0
   10.5679   -0.7393   21.5124 H   0  0  0  0  0  0  0  0  0  0  0  0
   11.4717    3.3595   22.3232 H   0  0  0  0  0  0  0  0  0  0  0  0
    9.7741    3.5424   26.8226 H   0  0  0  0  0  0  0  0  0  0  0  0
    8.0741    3.2133   27.2000 H   0  0  0  0  0  0  0  0  0  0  0  0
    8.5034    4.4493   26.0047 H   0  0  0  0  0  0  0  0  0  0  0  0
    8.5849    3.1102   22.4000 H   0  0  0  0  0  0  0  0  0  0  0  0
    8.2090    4.3088   23.6839 H   0  0  0  0  0  0  0  0  0  0  0  0
    9.7699    4.3995   22.7996 H   0  0  0  0  0  0  0  0  0  0  0  0
    6.6476   -1.9241   18.3472 H   0  0  0  0  0  0  0  0  0  0  0  0
    4.8773   -1.9483   18.6726 H   0  0  0  0  0  0  0  0  0  0  0  0
    5.7754   -0.3884   18.6944 H   0  0  0  0  0  0  0  0  0  0  0  0
   10.0564    1.1109   26.4305 H   0  0  0  0  0  0  0  0  0  0  0  0
    9.5142    0.4068   24.9239 H   0  0  0  0  0  0  0  0  0  0  0  0
    7.3454    0.0212   20.5410 H   0  0  0  0  0  0  0  0  0  0  0  0
    8.1642   -1.4941   20.1361 H   0  0  0  0  0  0  0  0  0  0  0  0
   11.6965   -2.7322   21.8978 H   0  0  0  0  0  0  0  0  0  0  0  0
   13.1188   -3.3497   20.9879 H   0  0  0  0  0  0  0  0  0  0  0  0
    7.7204    2.3590   24.8786 H   0  0  0  0  0  0  0  0  0  0  0  0
    5.3383   -1.2062   20.8899 H   0  0  0  0  0  0  0  0  0  0  0  0
    6.0854   -2.6345   20.5787 H   0  0  0  0  0  0  0  0  0  0  0  0
  1  2  1  0  0  0  0
  1  4  2  0  0  0  0
  2  5  2  0  0  0  0
  3  6  2  0  0  0  0
  3  8  1  0  0  0  0
  4 11  1  0  0  0  0
  5 12  1  0  0  0  0
  6 14  1  0  0  0  0
  7 13  1  0  0  0  0
  7 15  2  0  0  0  0
  8 30  2  0  0  0  0
  9 14  2  0  0  0  0
  9 30  1  0  0  0  0
 10 13  2  0  0  0  0
 10 31  1  0  0  0  0
 11 12  2  0  0  0  0
 11 15  1  0  0  0  0
 12 26  1  0  0  0  0
 13 27  1  0  0  0  0
 14 39  1  0  0  0  0
 15 31  1  0  0  0  0
 16 22  1  0  0  0  0
 16 33  1  0  0  0  0
 16 35  2  0  0  0  0
 17 28  1  0  0  0  0
 17 32  1  0  0  0  0
 17 36  2  0  0  0  0
 18 20  1  0  0  0  0
 18 22  1  0  0  0  0
 19 21  1  0  0  0  0
 19 22  1  0  0  0  0
 20 32  1  0  0  0  0
 21 32  1  0  0  0  0
 23 29  1  0  0  0  0
 24 33  1  0  0  0  0
 25 34  1  0  0  0  0
 26 29  1  0  0  0  0
 27 34  1  0  0  0  0
 28 40  1  0  0  0  0
 29 33  1  0  0  0  0
 31 39  1  0  0  0  0
 37 39  2  0  0  0  0
 38 39  2  0  0  0  0
  1 41  1  0  0  0  0
  2 42  1  0  0  0  0
  3 43  1  0  0  0  0
  4 44  1  0  0  0  0
  5 45  1  0  0  0  0
  6 46  1  0  0  0  0
  7 47  1  0  0  0  0
  8 48  1  0  0  0  0
  9 49  1  0  0  0  0
 10 50  1  0  0  0  0
 18 51  1  0  0  0  0
 18 52  1  0  0  0  0
 19 53  1  0  0  0  0
 19 54  1  0  0  0  0
 20 55  1  0  0  0  0
 20 56  1  0  0  0  0
 21 57  1  0  0  0  0
 21 58  1  0  0  0  0
 22 59  1  0  0  0  0
 23 60  1  0  0  0  0
 23 61  1  0  0  0  0
 23 62  1  0  0  0  0
 24 63  1  0  0  0  0
 24 64  1  0  0  0  0
 24 65  1  0  0  0  0
 25 66  1  0  0  0  0
 25 67  1  0  0  0  0
 25 68  1  0  0  0  0
 26 69  1  0  0  0  0
 26 70  1  0  0  0  0
 27 71  1  0  0  0  0
 27 72  1  0  0  0  0
 28 73  1  0  0  0  0
 28 74  1  0  0  0  0
 29 75  1  0  0  0  0
 34 76  1  0  0  0  0
 34 77  1  0  0  0  0
M  CHG  1  34   1
M  END
> <creator>
Maksym Voznyy

> <fragments>
x0305

> <real_space>
FALSE

> <SCR>
FALSE

> <BB>
FALSE

> <link>
https://covid.postera.ai/covid/submissions/8fdbca50-c94c-4218-91b0-3b0489774fa8

> <covalent_frag>
FALSE

> <covalent_warhead>
TRUE

> <acrylamide>
FALSE

> <acrylamide_adduct>
FALSE

> <chloroacetamide>
TRUE

> <chloroacetamide_adduct>
FALSE

> <vinylsulfonamide>
FALSE

> <vinylsulfonamide_adduct>
FALSE

> <in_molport_or_mcule>
FALSE

> <in_emolecules>
FALSE

> <Hybrid2>
-0.753580

> <Mpro-x0305_dock>
-0.75358

> <site>
active-noncovalent

$$$$
JAN-GHE-bf4-6
  -OEChem-04062011563D

 54 57  0     0  0  0  0  0  0999 V2000
   12.7845    6.0873   24.2738 C   0  0  0  0  0  0  0  0  0  0  0  0
    7.7802   -5.4705   24.0368 C   0  0  0  0  0  0  0  0  0  0  0  0
    6.4848   -5.1276   23.6497 C   0  0  0  0  0  0  0  0  0  0  0  0
   11.5387    3.9789   24.1588 C   0  0  0  0  0  0  0  0  0  0  0  0
    8.7925   -4.5111   24.0124 C   0  0  0  0  0  0  0  0  0  0  0  0
   10.3643   -2.0758   22.4404 C   0  0  0  0  0  0  0  0  0  0  0  0
    9.8454   -1.4678   24.7204 C   0  0  0  0  0  0  0  0  0  0  0  0
   11.4005   -1.1422   22.4273 C   0  0  0  0  0  0  0  0  0  0  0  0
   10.8817   -0.5343   24.7073 C   0  0  0  0  0  0  0  0  0  0  0  0
    6.2017   -3.8253   23.2379 C   0  0  0  0  0  0  0  0  0  0  0  0
   11.5269    2.6006   23.9758 C   0  0  0  0  0  0  0  0  0  0  0  0
   13.8955    3.9487   23.8408 C   0  0  0  0  0  0  0  0  0  0  0  0
   12.7414    4.6733   24.0915 C   0  0  0  0  0  0  0  0  0  0  0  0
    9.5866   -2.2385   23.5870 C   0  0  0  0  0  0  0  0  0  0  0  0
    8.5094   -3.2089   23.6007 C   0  0  0  0  0  0  0  0  0  0  0  0
   11.6593   -0.3715   23.5607 C   0  0  0  0  0  0  0  0  0  0  0  0
    7.2140   -2.8659   23.2134 C   0  0  0  0  0  0  0  0  0  0  0  0
   12.7354    1.9688   23.7301 C   0  0  0  0  0  0  0  0  0  0  0  0
    2.9271   -0.1335   16.5008 C   0  0  0  0  0  0  0  0  0  0  0  0
    3.6027   -0.3341   17.6363 C   0  0  0  0  0  0  0  0  0  0  0  0
    5.0792   -0.5115   17.6125 C   0  0  0  0  0  0  0  0  0  0  0  0
    7.3483   -2.0961   20.0305 C   0  0  0  0  0  0  0  0  0  0  0  0
    7.5833   -0.0092   20.2376 C   0  0  0  0  0  0  0  0  0  0  0  0
    7.0124   -0.9010   19.1221 C   0  0  0  0  0  0  0  0  0  0  0  0
   12.8196    7.2377   24.4223 N   0  0  0  0  0  0  0  0  0  0  0  0
   13.9236    2.6096   23.6577 N   0  0  0  0  0  0  0  0  0  0  0  0
    7.6085   -1.1731   21.1855 N   0  0  0  0  0  0  0  0  0  0  0  0
   12.7071    0.5725   23.5476 N   0  0  0  0  0  0  0  0  0  0  0  0
    5.5874   -0.7055   18.8806 N   0  0  0  0  0  0  0  0  0  0  0  0
    5.7312   -0.4801   16.5737 O   0  0  0  0  0  0  0  0  0  0  0  0
    5.3639   -1.1953   22.4653 O   0  0  0  0  0  0  0  0  0  0  0  0
    7.4227   -0.2998   23.6085 O   0  0  0  0  0  0  0  0  0  0  0  0
    6.8002   -1.2305   22.6824 S   0  0  0  0  0  0  0  0  0  0  0  0
    8.0002   -6.4845   24.3581 H   0  0  0  0  0  0  0  0  0  0  0  0
    5.6965   -5.8744   23.6695 H   0  0  0  0  0  0  0  0  0  0  0  0
   10.6035    4.4981   24.3527 H   0  0  0  0  0  0  0  0  0  0  0  0
    9.7968   -4.7960   24.3175 H   0  0  0  0  0  0  0  0  0  0  0  0
   10.1750   -2.6692   21.5491 H   0  0  0  0  0  0  0  0  0  0  0  0
    9.2480   -1.5830   25.6217 H   0  0  0  0  0  0  0  0  0  0  0  0
   12.0005   -1.0233   21.5286 H   0  0  0  0  0  0  0  0  0  0  0  0
   11.0745    0.0611   25.5961 H   0  0  0  0  0  0  0  0  0  0  0  0
    5.1881   -3.5711   22.9393 H   0  0  0  0  0  0  0  0  0  0  0  0
   10.5928    2.0508   24.0255 H   0  0  0  0  0  0  0  0  0  0  0  0
   14.8660    4.4323   23.7755 H   0  0  0  0  0  0  0  0  0  0  0  0
    1.8499   -0.0060   16.5261 H   0  0  0  0  0  0  0  0  0  0  0  0
    3.4124   -0.0898   15.5319 H   0  0  0  0  0  0  0  0  0  0  0  0
    3.0787   -0.3705   18.5852 H   0  0  0  0  0  0  0  0  0  0  0  0
    6.5178   -2.7880   20.2396 H   0  0  0  0  0  0  0  0  0  0  0  0
    8.2362   -2.6764   19.7456 H   0  0  0  0  0  0  0  0  0  0  0  0
    8.5833    0.4052   20.0515 H   0  0  0  0  0  0  0  0  0  0  0  0
    6.9215    0.7946   20.5956 H   0  0  0  0  0  0  0  0  0  0  0  0
    7.5885   -0.8720   18.1927 H   0  0  0  0  0  0  0  0  0  0  0  0
   13.6202    0.1641   23.3711 H   0  0  0  0  0  0  0  0  0  0  0  0
    4.9810   -0.6861   19.6906 H   0  0  0  0  0  0  0  0  0  0  0  0
  1 13  1  0  0  0  0
  1 25  3  0  0  0  0
  2  3  1  0  0  0  0
  2  5  2  0  0  0  0
  3 10  2  0  0  0  0
  4 11  2  0  0  0  0
  4 13  1  0  0  0  0
  5 15  1  0  0  0  0
  6  8  2  0  0  0  0
  6 14  1  0  0  0  0
  7  9  1  0  0  0  0
  7 14  2  0  0  0  0
  8 16  1  0  0  0  0
  9 16  2  0  0  0  0
 10 17  1  0  0  0  0
 11 18  1  0  0  0  0
 12 13  2  0  0  0  0
 12 26  1  0  0  0  0
 14 15  1  0  0  0  0
 15 17  2  0  0  0  0
 16 28  1  0  0  0  0
 17 33  1  0  0  0  0
 18 26  2  0  0  0  0
 18 28  1  0  0  0  0
 19 20  2  0  0  0  0
 20 21  1  0  0  0  0
 21 29  1  0  0  0  0
 21 30  2  0  0  0  0
 22 24  1  0  0  0  0
 22 27  1  0  0  0  0
 23 24  1  0  0  0  0
 23 27  1  0  0  0  0
 24 29  1  0  0  0  0
 27 33  1  0  0  0  0
 31 33  2  0  0  0  0
 32 33  2  0  0  0  0
  2 34  1  0  0  0  0
  3 35  1  0  0  0  0
  4 36  1  0  0  0  0
  5 37  1  0  0  0  0
  6 38  1  0  0  0  0
  7 39  1  0  0  0  0
  8 40  1  0  0  0  0
  9 41  1  0  0  0  0
 10 42  1  0  0  0  0
 11 43  1  0  0  0  0
 12 44  1  0  0  0  0
 19 45  1  0  0  0  0
 19 46  1  0  0  0  0
 20 47  1  0  0  0  0
 22 48  1  0  0  0  0
 22 49  1  0  0  0  0
 23 50  1  0  0  0  0
 23 51  1  0  0  0  0
 24 52  1  0  0  0  0
 28 53  1  0  0  0  0
 29 54  1  0  0  0  0
M  END
> <creator>
Jan, Ghent university

> <fragments>
x0692

> <real_space>
FALSE

> <SCR>
FALSE

> <BB>
FALSE

> <link>
https://covid.postera.ai/covid/submissions/bf40f168-4eec-438e-a3f5-b4da0b83bc9c

> <covalent_frag>
TRUE

> <covalent_warhead>
TRUE

> <acrylamide>
TRUE

> <acrylamide_adduct>
FALSE

> <chloroacetamide>
FALSE

> <chloroacetamide_adduct>
FALSE

> <vinylsulfonamide>
FALSE

> <vinylsulfonamide_adduct>
FALSE

> <in_molport_or_mcule>
FALSE

> <in_emolecules>
FALSE

> <Hybrid2>
-0.717830

> <Mpro-x0692_dock>
-0.71783

> <Mpro-x0305_dock>
0.975237

> <Mpro-x0755_dock>
5.170476

> <site>
active-covalent

> <covalent_distance_min>
6.8181286

> <covalent_distance_mean>
7.385705

> <covalent_distance_stderr>
0.032783844

$$$$
TOB-UNK-c2a-5
  -OEChem-04062011563D

 46 49  0     0  0  0  0  0  0999 V2000
   13.4313   -0.7704   22.1746 C   0  0  0  0  0  0  0  0  0  0  0  0
   12.2741   -1.4598   22.5515 C   0  0  0  0  0  0  0  0  0  0  0  0
   11.8778    0.0701   24.4036 C   0  0  0  0  0  0  0  0  0  0  0  0
    9.8711   -2.8622   23.3630 C   0  0  0  0  0  0  0  0  0  0  0  0
   14.6768    2.1336   23.8786 C   0  0  0  0  0  0  0  0  0  0  0  0
   13.0377    0.7745   24.0392 C   0  0  0  0  0  0  0  0  0  0  0  0
   13.7788    0.3407   22.9437 C   0  0  0  0  0  0  0  0  0  0  0  0
   11.5096   -1.0488   23.6459 C   0  0  0  0  0  0  0  0  0  0  0  0
    8.7467   -3.1671   24.0883 C   0  0  0  0  0  0  0  0  0  0  0  0
    6.2941    0.8001   19.0889 C   0  0  0  0  0  0  0  0  0  0  0  0
    5.7877   -0.4333   19.1416 C   0  0  0  0  0  0  0  0  0  0  0  0
    5.3295   -2.4906   21.5534 C   0  0  0  0  0  0  0  0  0  0  0  0
    6.4542   -4.2958   20.2984 C   0  0  0  0  0  0  0  0  0  0  0  0
    6.3333   -2.6295   22.6864 C   0  0  0  0  0  0  0  0  0  0  0  0
    7.4735   -4.4599   21.4142 C   0  0  0  0  0  0  0  0  0  0  0  0
    7.7658   -4.2843   23.8873 C   0  0  0  0  0  0  0  0  0  0  0  0
   13.6106    1.8893   24.6071 N   0  0  0  0  0  0  0  0  0  0  0  0
    8.5979   -2.2659   25.1058 N   0  0  0  0  0  0  0  0  0  0  0  0
    9.6037   -1.4008   25.0352 N   0  0  0  0  0  0  0  0  0  0  0  0
   14.8211    1.2283   22.8643 N   0  0  0  0  0  0  0  0  0  0  0  0
   10.3658   -1.7599   23.9895 N   0  0  0  0  0  0  0  0  0  0  0  0
    5.9400   -2.8997   20.2592 N   0  0  0  0  0  0  0  0  0  0  0  0
    6.8403   -4.0536   22.7259 N   0  3  0  0  0  0  0  0  0  0  0  0
    7.2654   -2.3088   18.1566 O   0  0  0  0  0  0  0  0  0  0  0  0
    7.9084   -1.2708   20.3548 O   0  0  0  0  0  0  0  0  0  0  0  0
    6.8851   -1.7397   19.4375 S   0  0  0  0  0  0  0  0  0  0  0  0
   14.0263   -1.0872   21.3255 H   0  0  0  0  0  0  0  0  0  0  0  0
   11.9763   -2.3312   21.9712 H   0  0  0  0  0  0  0  0  0  0  0  0
   11.2858    0.3933   25.2552 H   0  0  0  0  0  0  0  0  0  0  0  0
   10.3354   -3.3144   22.4970 H   0  0  0  0  0  0  0  0  0  0  0  0
   15.3788    2.9410   24.0300 H   0  0  0  0  0  0  0  0  0  0  0  0
    5.6429    1.6481   18.9055 H   0  0  0  0  0  0  0  0  0  0  0  0
    7.3519    0.9983   19.2242 H   0  0  0  0  0  0  0  0  0  0  0  0
    4.7314   -0.6286   19.0060 H   0  0  0  0  0  0  0  0  0  0  0  0
    4.4315   -3.0958   21.7507 H   0  0  0  0  0  0  0  0  0  0  0  0
    5.0151   -1.4388   21.4889 H   0  0  0  0  0  0  0  0  0  0  0  0
    6.9409   -4.5301   19.3405 H   0  0  0  0  0  0  0  0  0  0  0  0
    5.6166   -4.9984   20.4267 H   0  0  0  0  0  0  0  0  0  0  0  0
    7.2013   -1.9752   22.5484 H   0  0  0  0  0  0  0  0  0  0  0  0
    5.8619   -2.4209   23.6519 H   0  0  0  0  0  0  0  0  0  0  0  0
    7.7831   -5.5055   21.5082 H   0  0  0  0  0  0  0  0  0  0  0  0
    8.3534   -3.8246   21.2631 H   0  0  0  0  0  0  0  0  0  0  0  0
    8.2794   -5.2327   23.6966 H   0  0  0  0  0  0  0  0  0  0  0  0
    7.1334   -4.4192   24.7715 H   0  0  0  0  0  0  0  0  0  0  0  0
   15.5640    1.2154   22.1782 H   0  0  0  0  0  0  0  0  0  0  0  0
    6.0253   -4.6663   22.8770 H   0  0  0  0  0  0  0  0  0  0  0  0
  1  2  2  0  0  0  0
  1  7  1  0  0  0  0
  2  8  1  0  0  0  0
  3  6  1  0  0  0  0
  3  8  2  0  0  0  0
  4  9  2  0  0  0  0
  4 21  1  0  0  0  0
  5 17  2  0  0  0  0
  5 20  1  0  0  0  0
  6  7  2  0  0  0  0
  6 17  1  0  0  0  0
  7 20  1  0  0  0  0
  8 21  1  0  0  0  0
  9 16  1  0  0  0  0
  9 18  1  0  0  0  0
 10 11  2  0  0  0  0
 11 26  1  0  0  0  0
 12 14  1  0  0  0  0
 12 22  1  0  0  0  0
 13 15  1  0  0  0  0
 13 22  1  0  0  0  0
 14 23  1  0  0  0  0
 15 23  1  0  0  0  0
 16 23  1  0  0  0  0
 18 19  2  0  0  0  0
 19 21  1  0  0  0  0
 22 26  1  0  0  0  0
 24 26  2  0  0  0  0
 25 26  2  0  0  0  0
  1 27  1  0  0  0  0
  2 28  1  0  0  0  0
  3 29  1  0  0  0  0
  4 30  1  0  0  0  0
  5 31  1  0  0  0  0
 10 32  1  0  0  0  0
 10 33  1  0  0  0  0
 11 34  1  0  0  0  0
 12 35  1  0  0  0  0
 12 36  1  0  0  0  0
 13 37  1  0  0  0  0
 13 38  1  0  0  0  0
 14 39  1  0  0  0  0
 14 40  1  0  0  0  0
 15 41  1  0  0  0  0
 15 42  1  0  0  0  0
 16 43  1  0  0  0  0
 16 44  1  0  0  0  0
 20 45  1  0  0  0  0
 23 46  1  0  0  0  0
M  CHG  1  23   1
M  END
> <creator>
Tobias Grabe

> <fragments>
x1386

> <real_space>
FALSE

> <SCR>
FALSE

> <BB>
FALSE

> <link>
https://covid.postera.ai/covid/submissions/c2aba166-fc0c-4b8c-b831-fecfdf920427

> <covalent_frag>
TRUE

> <covalent_warhead>
TRUE

> <acrylamide>
FALSE

> <acrylamide_adduct>
FALSE

> <chloroacetamide>
FALSE

> <chloroacetamide_adduct>
FALSE

> <vinylsulfonamide>
TRUE

> <vinylsulfonamide_adduct>
FALSE

> <in_molport_or_mcule>
FALSE

> <in_emolecules>
FALSE

> <Hybrid2>
-0.714680

> <Mpro-x1386_dock>
-0.71468

> <site>
active-covalent

> <covalent_distance_min>
6.4834175

> <covalent_distance_mean>
7.7240963

> <covalent_distance_stderr>
0.05217248

$$$$
MAK-UNK-702-9
  -OEChem-04062011563D

 71 76  0     1  0  0  0  0  0999 V2000
    5.9507   -4.1869   29.5613 C   0  0  0  0  0  0  0  0  0  0  0  0
    6.3735    0.1279   17.8136 C   0  0  0  0  0  0  0  0  0  0  0  0
    6.1623   -3.5005   28.3657 C   0  0  0  0  0  0  0  0  0  0  0  0
    6.5423   -5.4338   29.7638 C   0  0  0  0  0  0  0  0  0  0  0  0
    5.1322   -0.2076   18.3540 C   0  0  0  0  0  0  0  0  0  0  0  0
    5.0748    1.6778   23.8671 C   0  0  0  0  0  0  0  0  0  0  0  0
    7.5219    0.0474   18.6013 C   0  0  0  0  0  0  0  0  0  0  0  0
    6.9654   -4.0609   27.3724 C   0  0  0  0  0  0  0  0  0  0  0  0
    7.3455   -5.9942   28.7706 C   0  0  0  0  0  0  0  0  0  0  0  0
   10.4023   -4.3397   26.3614 C   0  0  0  0  0  0  0  0  0  0  0  0
   11.1870   -3.4036   25.6894 C   0  0  0  0  0  0  0  0  0  0  0  0
    5.0392   -0.6235   19.6822 C   0  0  0  0  0  0  0  0  0  0  0  0
    5.9476    1.7111   22.7853 C   0  0  0  0  0  0  0  0  0  0  0  0
    9.7404   -3.5762   23.7657 C   0  0  0  0  0  0  0  0  0  0  0  0
    9.4732   -1.5194   20.9154 C   0  0  0  0  0  0  0  0  0  0  0  0
    5.5799    1.9943   25.1179 C   0  0  0  0  0  0  0  0  0  0  0  0
    7.6863    2.3550   24.2747 C   0  0  0  0  0  0  0  0  0  0  0  0
   10.2387    0.2011   22.1498 C   0  0  0  0  0  0  0  0  0  0  0  0
    7.4289   -0.3685   19.9294 C   0  0  0  0  0  0  0  0  0  0  0  0
    7.5570   -5.3078   27.5749 C   0  0  0  0  0  0  0  0  0  0  0  0
    9.2773   -4.9061   25.7406 C   0  0  0  0  0  0  0  0  0  0  0  0
    8.9381   -4.5149   24.4321 C   0  0  0  0  0  0  0  0  0  0  0  0
   10.4955   -1.1076   21.8055 C   0  0  0  0  0  0  0  0  0  0  0  0
   10.8572   -3.0233   24.3918 C   0  0  0  0  0  0  0  0  0  0  0  0
    6.1875   -0.7040   20.4699 C   0  0  0  0  0  0  0  0  0  0  0  0
    7.2800    2.0552   22.9844 C   0  0  0  0  0  0  0  0  0  0  0  0
    8.6228   -0.4497   20.7426 C   0  0  0  0  0  0  0  0  0  0  0  0
    5.5294   -6.1526   24.3510 C   0  0  0  0  0  0  0  0  0  0  0  0
    7.7373   -5.0839   23.7155 C   0  0  0  0  0  0  0  0  0  0  0  0
    7.6126   -6.7841   25.5199 C   0  0  0  0  0  0  0  0  0  0  0  0
    8.4341   -5.9205   26.4905 C   0  0  2  0  0  0  0  0  0  0  0  0
   11.6471   -1.9425   22.2862 C   0  0  0  0  0  0  0  0  0  0  0  0
    4.8960   -5.3782   23.2218 C   0  0  0  0  0  0  0  0  0  0  0  0
    6.8677    2.3333   25.3504 N   0  0  0  0  0  0  0  0  0  0  0  0
    9.0981    0.5907   21.4975 N   0  0  0  0  0  0  0  0  0  0  0  0
    6.9003   -5.9646   24.5406 N   0  0  0  0  0  0  0  0  0  0  0  0
   11.6521   -2.0785   23.7098 N   0  0  0  0  0  0  0  0  0  0  0  0
    4.8279   -6.8927   25.0449 O   0  0  0  0  0  0  0  0  0  0  0  0
    7.6651    2.3061   20.3938 O   0  0  0  0  0  0  0  0  0  0  0  0
    9.4747    3.0504   22.0199 O   0  0  0  0  0  0  0  0  0  0  0  0
    6.0813   -1.1058   21.7451 F   0  0  0  0  0  0  0  0  0  0  0  0
    8.4232    2.1086   21.6288 S   0  0  0  0  0  0  0  0  0  0  0  0
    4.3316   -3.8593   23.9083 Cl  0  0  0  0  0  0  0  0  0  0  0  0
    5.3264   -3.7498   30.3351 H   0  0  0  0  0  0  0  0  0  0  0  0
    6.4457    0.4513   16.7792 H   0  0  0  0  0  0  0  0  0  0  0  0
    5.7026   -2.5291   28.2083 H   0  0  0  0  0  0  0  0  0  0  0  0
    6.3787   -5.9680   30.6950 H   0  0  0  0  0  0  0  0  0  0  0  0
    4.2381   -0.1455   17.7406 H   0  0  0  0  0  0  0  0  0  0  0  0
    4.0321    1.4124   23.7355 H   0  0  0  0  0  0  0  0  0  0  0  0
    8.4821    0.3124   18.1650 H   0  0  0  0  0  0  0  0  0  0  0  0
    7.1246   -3.5189   26.4439 H   0  0  0  0  0  0  0  0  0  0  0  0
    7.8022   -6.9662   28.9371 H   0  0  0  0  0  0  0  0  0  0  0  0
   10.6730   -4.6281   27.3742 H   0  0  0  0  0  0  0  0  0  0  0  0
   12.0535   -2.9777   26.1886 H   0  0  0  0  0  0  0  0  0  0  0  0
    4.0727   -0.8852   20.1030 H   0  0  0  0  0  0  0  0  0  0  0  0
    5.5800    1.4676   21.7923 H   0  0  0  0  0  0  0  0  0  0  0  0
    9.4856   -3.2761   22.7511 H   0  0  0  0  0  0  0  0  0  0  0  0
    9.3705   -2.4918   20.4520 H   0  0  0  0  0  0  0  0  0  0  0  0
    4.9401    1.9830   25.9942 H   0  0  0  0  0  0  0  0  0  0  0  0
    8.7135    2.6306   24.4925 H   0  0  0  0  0  0  0  0  0  0  0  0
   10.7710    0.8821   22.8010 H   0  0  0  0  0  0  0  0  0  0  0  0
    7.1350   -4.2551   23.3326 H   0  0  0  0  0  0  0  0  0  0  0  0
    8.0781   -5.6846   22.8638 H   0  0  0  0  0  0  0  0  0  0  0  0
    8.2783   -7.4434   24.9473 H   0  0  0  0  0  0  0  0  0  0  0  0
    6.9188   -7.4314   26.0683 H   0  0  0  0  0  0  0  0  0  0  0  0
    9.1354   -6.6208   27.0195 H   0  0  0  0  0  0  0  0  0  0  0  0
   11.6036   -2.9471   21.8515 H   0  0  0  0  0  0  0  0  0  0  0  0
   12.6039   -1.5006   21.9888 H   0  0  0  0  0  0  0  0  0  0  0  0
    4.0583   -5.9460   22.8340 H   0  0  0  0  0  0  0  0  0  0  0  0
    5.6460   -5.1886   22.4629 H   0  0  0  0  0  0  0  0  0  0  0  0
   12.2385   -1.4892   24.2701 H   0  0  0  0  0  0  0  0  0  0  0  0
  1  3  1  0  0  0  0
  1  4  2  0  0  0  0
  2  5  1  0  0  0  0
  2  7  2  0  0  0  0
  3  8  2  0  0  0  0
  4  9  1  0  0  0  0
  5 12  2  0  0  0  0
  6 13  2  0  0  0  0
  6 16  1  0  0  0  0
  7 19  1  0  0  0  0
  8 20  1  0  0  0  0
  9 20  2  0  0  0  0
 10 11  2  0  0  0  0
 10 21  1  0  0  0  0
 11 24  1  0  0  0  0
 12 25  1  0  0  0  0
 13 26  1  0  0  0  0
 14 22  1  0  0  0  0
 14 24  2  0  0  0  0
 15 23  1  0  0  0  0
 15 27  2  0  0  0  0
 16 34  2  0  0  0  0
 17 26  2  0  0  0  0
 17 34  1  0  0  0  0
 18 23  2  0  0  0  0
 18 35  1  0  0  0  0
 19 25  2  0  0  0  0
 19 27  1  0  0  0  0
 20 31  1  0  0  0  0
 21 22  2  0  0  0  0
 21 31  1  0  0  0  0
 22 29  1  0  0  0  0
 23 32  1  0  0  0  0
 24 37  1  0  0  0  0
 25 41  1  0  0  0  0
 26 42  1  0  0  0  0
 27 35  1  0  0  0  0
 28 33  1  0  0  0  0
 28 36  1  0  0  0  0
 28 38  2  0  0  0  0
 29 36  1  0  0  0  0
 30 31  1  0  0  0  0
 30 36  1  0  0  0  0
 32 37  1  0  0  0  0
 33 43  1  0  0  0  0
 35 42  1  0  0  0  0
 39 42  2  0  0  0  0
 40 42  2  0  0  0  0
  1 44  1  0  0  0  0
  2 45  1  0  0  0  0
  3 46  1  0  0  0  0
  4 47  1  0  0  0  0
  5 48  1  0  0  0  0
  6 49  1  0  0  0  0
  7 50  1  0  0  0  0
  8 51  1  0  0  0  0
  9 52  1  0  0  0  0
 10 53  1  0  0  0  0
 11 54  1  0  0  0  0
 12 55  1  0  0  0  0
 13 56  1  0  0  0  0
 14 57  1  0  0  0  0
 15 58  1  0  0  0  0
 16 59  1  0  0  0  0
 17 60  1  0  0  0  0
 18 61  1  0  0  0  0
 29 62  1  0  0  0  0
 29 63  1  0  0  0  0
 30 64  1  0  0  0  0
 30 65  1  0  0  0  0
 31 66  1  0  0  0  0
 32 67  1  0  0  0  0
 32 68  1  0  0  0  0
 33 69  1  0  0  0  0
 33 70  1  0  0  0  0
 37 71  1  0  0  0  0
M  END
> <creator>
Maksym Voznyy

> <fragments>
x0387

> <real_space>
FALSE

> <SCR>
FALSE

> <BB>
FALSE

> <link>
https://covid.postera.ai/covid/submissions/702fb7d3-1941-4d37-9e1c-6a10ebd67f09

> <covalent_frag>
FALSE

> <covalent_warhead>
TRUE

> <acrylamide>
FALSE

> <acrylamide_adduct>
FALSE

> <chloroacetamide>
TRUE

> <chloroacetamide_adduct>
FALSE

> <vinylsulfonamide>
FALSE

> <vinylsulfonamide_adduct>
FALSE

> <in_molport_or_mcule>
FALSE

> <in_emolecules>
FALSE

> <Hybrid2>
-0.669664

> <Mpro-x0387_dock>
-0.669664

> <site>
active-noncovalent

> <covalent_distance_min>
3.4746387

> <covalent_distance_mean>
4.5011554

> <covalent_distance_stderr>
0.09990222

$$$$
MAK-UNK-702-11
  -OEChem-04062011563D

 71 76  0     1  0  0  0  0  0999 V2000
    5.2791   -2.6649   21.8966 C   0  0  0  0  0  0  0  0  0  0  0  0
    6.2200   -6.5667   26.1505 C   0  0  0  0  0  0  0  0  0  0  0  0
    5.6286   -1.7586   22.8976 C   0  0  0  0  0  0  0  0  0  0  0  0
    5.8934   -2.5941   20.6462 C   0  0  0  0  0  0  0  0  0  0  0  0
    5.2284   -5.7431   26.6834 C   0  0  0  0  0  0  0  0  0  0  0  0
   10.8206    1.1573   24.5111 C   0  0  0  0  0  0  0  0  0  0  0  0
   10.0782   -0.5154   29.2808 C   0  0  0  0  0  0  0  0  0  0  0  0
    7.3807   -6.0058   25.6176 C   0  0  0  0  0  0  0  0  0  0  0  0
    6.5923   -0.7815   22.6483 C   0  0  0  0  0  0  0  0  0  0  0  0
    6.8571   -1.6170   20.3969 C   0  0  0  0  0  0  0  0  0  0  0  0
    9.8332    2.0762   24.1565 C   0  0  0  0  0  0  0  0  0  0  0  0
   10.9770   -0.0143   23.7763 C   0  0  0  0  0  0  0  0  0  0  0  0
    5.3975   -4.3585   26.6834 C   0  0  0  0  0  0  0  0  0  0  0  0
   10.5030   -1.6448   28.5900 C   0  0  0  0  0  0  0  0  0  0  0  0
    8.9984   -3.6439   23.7677 C   0  0  0  0  0  0  0  0  0  0  0  0
    8.7461   -0.4475   29.6560 C   0  0  0  0  0  0  0  0  0  0  0  0
    8.2851   -2.4938   28.7188 C   0  0  0  0  0  0  0  0  0  0  0  0
   10.8496   -3.2554   24.9892 C   0  0  0  0  0  0  0  0  0  0  0  0
    7.5497   -4.6212   25.6176 C   0  0  0  0  0  0  0  0  0  0  0  0
    7.2066   -0.7106   21.3979 C   0  0  0  0  0  0  0  0  0  0  0  0
    8.9882    1.8321   23.0633 C   0  0  0  0  0  0  0  0  0  0  0  0
    9.1529    0.6519   22.3148 C   0  0  0  0  0  0  0  0  0  0  0  0
   10.3235   -3.1448   23.7211 C   0  0  0  0  0  0  0  0  0  0  0  0
   10.1485   -0.2670   22.6839 C   0  0  0  0  0  0  0  0  0  0  0  0
    6.5581   -3.7975   26.1505 C   0  0  0  0  0  0  0  0  0  0  0  0
    9.5956   -2.6575   28.2995 C   0  0  0  0  0  0  0  0  0  0  0  0
    8.7550   -4.0441   25.0631 C   0  0  0  0  0  0  0  0  0  0  0  0
    5.7079    2.8896   21.5045 C   0  0  0  0  0  0  0  0  0  0  0  0
    7.9316    2.8540   22.7188 C   0  0  0  0  0  0  0  0  0  0  0  0
    7.6278    1.6445   20.5725 C   0  0  0  0  0  0  0  0  0  0  0  0
    8.2589    0.3563   21.1249 C   0  0  2  0  0  0  0  0  0  0  0  0
   11.0262   -2.5964   22.5130 C   0  0  0  0  0  0  0  0  0  0  0  0
    5.1708    2.9901   20.0983 C   0  0  0  0  0  0  0  0  0  0  0  0
    7.8354   -1.4111   29.3918 N   0  0  0  0  0  0  0  0  0  0  0  0
    9.8871   -3.8030   25.7968 N   0  0  0  0  0  0  0  0  0  0  0  0
    7.0266    2.4486   21.6355 N   0  0  0  0  0  0  0  0  0  0  0  0
   10.3436   -1.4694   21.9636 N   0  0  0  0  0  0  0  0  0  0  0  0
    4.9824    3.1999   22.4525 O   0  0  0  0  0  0  0  0  0  0  0  0
   11.5421   -4.2830   27.5982 O   0  0  0  0  0  0  0  0  0  0  0  0
    9.1681   -5.1716   27.8154 O   0  0  0  0  0  0  0  0  0  0  0  0
    6.7055   -2.4645   26.1582 F   0  0  0  0  0  0  0  0  0  0  0  0
   10.1004   -4.1133   27.4200 S   0  0  0  0  0  0  0  0  0  0  0  0
    4.4817    1.4181   19.7098 Cl  0  0  0  0  0  0  0  0  0  0  0  0
    4.5297   -3.4265   22.0913 H   0  0  0  0  0  0  0  0  0  0  0  0
    6.0883   -7.6449   26.1509 H   0  0  0  0  0  0  0  0  0  0  0  0
    5.1513   -1.8142   23.8716 H   0  0  0  0  0  0  0  0  0  0  0  0
    5.6223   -3.3003   19.8670 H   0  0  0  0  0  0  0  0  0  0  0  0
    4.3249   -6.1799   27.0988 H   0  0  0  0  0  0  0  0  0  0  0  0
   11.4668    1.3560   25.3612 H   0  0  0  0  0  0  0  0  0  0  0  0
   10.7679    0.2864   29.5181 H   0  0  0  0  0  0  0  0  0  0  0  0
    8.1443   -6.6616   25.2060 H   0  0  0  0  0  0  0  0  0  0  0  0
    6.8582   -0.0794   23.4342 H   0  0  0  0  0  0  0  0  0  0  0  0
    7.3303   -1.5693   19.4197 H   0  0  0  0  0  0  0  0  0  0  0  0
    9.7218    2.9865   24.7407 H   0  0  0  0  0  0  0  0  0  0  0  0
   11.7492   -0.7237   24.0630 H   0  0  0  0  0  0  0  0  0  0  0  0
    4.6257   -3.7172   27.0987 H   0  0  0  0  0  0  0  0  0  0  0  0
   11.5419   -1.7260   28.2828 H   0  0  0  0  0  0  0  0  0  0  0  0
    8.2993   -3.7041   22.9440 H   0  0  0  0  0  0  0  0  0  0  0  0
    8.3647    0.4124   30.1967 H   0  0  0  0  0  0  0  0  0  0  0  0
    7.5315   -3.2500   28.5215 H   0  0  0  0  0  0  0  0  0  0  0  0
   11.8234   -2.9906   25.3801 H   0  0  0  0  0  0  0  0  0  0  0  0
    7.3533    3.0759   23.6202 H   0  0  0  0  0  0  0  0  0  0  0  0
    8.4206    3.7778   22.3872 H   0  0  0  0  0  0  0  0  0  0  0  0
    8.3995    2.2719   20.1070 H   0  0  0  0  0  0  0  0  0  0  0  0
    6.8931    1.4136   19.7926 H   0  0  0  0  0  0  0  0  0  0  0  0
    8.9016   -0.0438   20.2924 H   0  0  0  0  0  0  0  0  0  0  0  0
   12.0444   -2.2827   22.7679 H   0  0  0  0  0  0  0  0  0  0  0  0
   11.1068   -3.3548   21.7272 H   0  0  0  0  0  0  0  0  0  0  0  0
    5.9902    3.2144   19.4255 H   0  0  0  0  0  0  0  0  0  0  0  0
    4.4008    3.7519   20.0710 H   0  0  0  0  0  0  0  0  0  0  0  0
    9.9779   -1.5004   21.0329 H   0  0  0  0  0  0  0  0  0  0  0  0
  1  3  1  0  0  0  0
  1  4  2  0  0  0  0
  2  5  1  0  0  0  0
  2  8  2  0  0  0  0
  3  9  2  0  0  0  0
  4 10  1  0  0  0  0
  5 13  2  0  0  0  0
  6 11  2  0  0  0  0
  6 12  1  0  0  0  0
  7 14  2  0  0  0  0
  7 16  1  0  0  0  0
  8 19  1  0  0  0  0
  9 20  1  0  0  0  0
 10 20  2  0  0  0  0
 11 21  1  0  0  0  0
 12 24  2  0  0  0  0
 13 25  1  0  0  0  0
 14 26  1  0  0  0  0
 15 23  1  0  0  0  0
 15 27  2  0  0  0  0
 16 34  2  0  0  0  0
 17 26  2  0  0  0  0
 17 34  1  0  0  0  0
 18 23  2  0  0  0  0
 18 35  1  0  0  0  0
 19 25  2  0  0  0  0
 19 27  1  0  0  0  0
 20 31  1  0  0  0  0
 21 22  2  0  0  0  0
 21 29  1  0  0  0  0
 22 24  1  0  0  0  0
 22 31  1  0  0  0  0
 23 32  1  0  0  0  0
 24 37  1  0  0  0  0
 25 41  1  0  0  0  0
 26 42  1  0  0  0  0
 27 35  1  0  0  0  0
 28 33  1  0  0  0  0
 28 36  1  0  0  0  0
 28 38  2  0  0  0  0
 29 36  1  0  0  0  0
 30 31  1  0  0  0  0
 30 36  1  0  0  0  0
 32 37  1  0  0  0  0
 33 43  1  0  0  0  0
 35 42  1  0  0  0  0
 39 42  2  0  0  0  0
 40 42  2  0  0  0  0
  1 44  1  0  0  0  0
  2 45  1  0  0  0  0
  3 46  1  0  0  0  0
  4 47  1  0  0  0  0
  5 48  1  0  0  0  0
  6 49  1  0  0  0  0
  7 50  1  0  0  0  0
  8 51  1  0  0  0  0
  9 52  1  0  0  0  0
 10 53  1  0  0  0  0
 11 54  1  0  0  0  0
 12 55  1  0  0  0  0
 13 56  1  0  0  0  0
 14 57  1  0  0  0  0
 15 58  1  0  0  0  0
 16 59  1  0  0  0  0
 17 60  1  0  0  0  0
 18 61  1  0  0  0  0
 29 62  1  0  0  0  0
 29 63  1  0  0  0  0
 30 64  1  0  0  0  0
 30 65  1  0  0  0  0
 31 66  1  0  0  0  0
 32 67  1  0  0  0  0
 32 68  1  0  0  0  0
 33 69  1  0  0  0  0
 33 70  1  0  0  0  0
 37 71  1  0  0  0  0
M  END
> <creator>
Maksym Voznyy

> <fragments>
x0387

> <real_space>
FALSE

> <SCR>
FALSE

> <BB>
FALSE

> <link>
https://covid.postera.ai/covid/submissions/702fb7d3-1941-4d37-9e1c-6a10ebd67f09

> <covalent_frag>
FALSE

> <covalent_warhead>
TRUE

> <acrylamide>
FALSE

> <acrylamide_adduct>
FALSE

> <chloroacetamide>
TRUE

> <chloroacetamide_adduct>
FALSE

> <vinylsulfonamide>
FALSE

> <vinylsulfonamide_adduct>
FALSE

> <in_molport_or_mcule>
FALSE

> <in_emolecules>
FALSE

> <Hybrid2>
-0.525374

> <Mpro-x0387_dock>
-0.525374

> <site>
active-noncovalent

> <covalent_distance_min>
6.999794

> <covalent_distance_mean>
8.071104

> <covalent_distance_stderr>
0.10385957

$$$$
JAN-GHE-bf4-7
  -OEChem-04062011563D

 54 56  0     0  0  0  0  0  0999 V2000
    4.6899   -3.2368   27.5494 C   0  0  0  0  0  0  0  0  0  0  0  0
   14.4297    0.9393   23.2062 C   0  0  0  0  0  0  0  0  0  0  0  0
    6.7036   -2.1148   28.3841 C   0  0  0  0  0  0  0  0  0  0  0  0
   13.1158    1.3374   23.4526 C   0  0  0  0  0  0  0  0  0  0  0  0
   14.6819   -0.2627   22.5449 C   0  0  0  0  0  0  0  0  0  0  0  0
    7.6828   -1.1390   28.2344 C   0  0  0  0  0  0  0  0  0  0  0  0
    5.7332   -1.3806   26.3406 C   0  0  0  0  0  0  0  0  0  0  0  0
    5.7067   -2.2445   27.4236 C   0  0  0  0  0  0  0  0  0  0  0  0
   12.0541    0.5336   23.0377 C   0  0  0  0  0  0  0  0  0  0  0  0
   13.6202   -1.0665   22.1300 C   0  0  0  0  0  0  0  0  0  0  0  0
   12.3062   -0.6684   22.3764 C   0  0  0  0  0  0  0  0  0  0  0  0
    7.6209   -0.3248   27.1151 C   0  0  0  0  0  0  0  0  0  0  0  0
    8.1944   -6.5277   27.9610 C   0  0  0  0  0  0  0  0  0  0  0  0
    7.9777   -5.4961   27.1394 C   0  0  0  0  0  0  0  0  0  0  0  0
    8.8375   -5.2934   25.9428 C   0  0  0  0  0  0  0  0  0  0  0  0
   10.5495   -3.1938   24.2250 C   0  0  0  0  0  0  0  0  0  0  0  0
    8.7588   -2.3708   23.4948 C   0  0  0  0  0  0  0  0  0  0  0  0
    9.1388   -3.7697   24.0104 C   0  0  0  0  0  0  0  0  0  0  0  0
    8.9562    1.5609   24.7211 C   0  0  0  0  0  0  0  0  0  0  0  0
    8.4769    1.8089   26.1452 C   0  0  0  0  0  0  0  0  0  0  0  0
   10.4176    1.1339   24.6555 C   0  0  0  0  0  0  0  0  0  0  0  0
    3.8626   -4.0442   27.6519 N   0  0  0  0  0  0  0  0  0  0  0  0
    6.6679   -0.4207   26.1610 N   0  0  0  0  0  0  0  0  0  0  0  0
   10.2151   -2.0305   23.3318 N   0  0  0  0  0  0  0  0  0  0  0  0
    8.6058    0.6457   26.9800 N   0  0  0  0  0  0  0  0  0  0  0  0
    8.4542   -4.1784   25.2258 N   0  0  0  0  0  0  0  0  0  0  0  0
    9.7625   -6.0476   25.6591 O   0  0  0  0  0  0  0  0  0  0  0  0
   10.0987   -0.8878   21.0155 O   0  0  0  0  0  0  0  0  0  0  0  0
   11.5543   -2.9230   21.3105 O   0  0  0  0  0  0  0  0  0  0  0  0
   10.7789    0.9424   23.2893 O   0  0  0  0  0  0  0  0  0  0  0  0
   13.8762   -2.2193   21.4956 F   0  0  0  0  0  0  0  0  0  0  0  0
   10.9740   -1.7015   21.8420 S   0  0  0  0  0  0  0  0  0  0  0  0
   15.2565    1.5651   23.5294 H   0  0  0  0  0  0  0  0  0  0  0  0
    6.7302   -2.7667   29.2537 H   0  0  0  0  0  0  0  0  0  0  0  0
   12.9267    2.2750   23.9683 H   0  0  0  0  0  0  0  0  0  0  0  0
   15.7048   -0.5729   22.3530 H   0  0  0  0  0  0  0  0  0  0  0  0
    8.4651   -1.0315   28.9785 H   0  0  0  0  0  0  0  0  0  0  0  0
    4.9835   -1.4311   25.5561 H   0  0  0  0  0  0  0  0  0  0  0  0
    7.5636   -6.6685   28.8326 H   0  0  0  0  0  0  0  0  0  0  0  0
    8.9870   -7.2493   27.7966 H   0  0  0  0  0  0  0  0  0  0  0  0
    7.1731   -4.7970   27.3399 H   0  0  0  0  0  0  0  0  0  0  0  0
   10.7838   -2.8680   25.2472 H   0  0  0  0  0  0  0  0  0  0  0  0
   11.3752   -3.7992   23.8357 H   0  0  0  0  0  0  0  0  0  0  0  0
    8.2122   -2.3454   22.5459 H   0  0  0  0  0  0  0  0  0  0  0  0
    8.2653   -1.7101   24.2200 H   0  0  0  0  0  0  0  0  0  0  0  0
    9.0959   -4.5496   23.2376 H   0  0  0  0  0  0  0  0  0  0  0  0
    8.3371    0.7804   24.2614 H   0  0  0  0  0  0  0  0  0  0  0  0
    8.8120    2.4585   24.1065 H   0  0  0  0  0  0  0  0  0  0  0  0
    9.0713    2.6019   26.6094 H   0  0  0  0  0  0  0  0  0  0  0  0
    7.4263    2.1160   26.1591 H   0  0  0  0  0  0  0  0  0  0  0  0
   11.0742    1.8990   25.0814 H   0  0  0  0  0  0  0  0  0  0  0  0
   10.5729    0.1920   25.1912 H   0  0  0  0  0  0  0  0  0  0  0  0
    9.4678    0.5199   27.5045 H   0  0  0  0  0  0  0  0  0  0  0  0
    7.6565   -3.6260   25.5135 H   0  0  0  0  0  0  0  0  0  0  0  0
  1  8  1  0  0  0  0
  1 22  3  0  0  0  0
  2  4  2  0  0  0  0
  2  5  1  0  0  0  0
  3  6  2  0  0  0  0
  3  8  1  0  0  0  0
  4  9  1  0  0  0  0
  5 10  2  0  0  0  0
  6 12  1  0  0  0  0
  7  8  2  0  0  0  0
  7 23  1  0  0  0  0
  9 11  2  0  0  0  0
  9 30  1  0  0  0  0
 10 11  1  0  0  0  0
 10 31  1  0  0  0  0
 11 32  1  0  0  0  0
 12 23  2  0  0  0  0
 12 25  1  0  0  0  0
 13 14  2  0  0  0  0
 14 15  1  0  0  0  0
 15 26  1  0  0  0  0
 15 27  2  0  0  0  0
 16 18  1  0  0  0  0
 16 24  1  0  0  0  0
 17 18  1  0  0  0  0
 17 24  1  0  0  0  0
 18 26  1  0  0  0  0
 19 20  1  0  0  0  0
 19 21  1  0  0  0  0
 20 25  1  0  0  0  0
 21 30  1  0  0  0  0
 24 32  1  0  0  0  0
 28 32  2  0  0  0  0
 29 32  2  0  0  0  0
  2 33  1  0  0  0  0
  3 34  1  0  0  0  0
  4 35  1  0  0  0  0
  5 36  1  0  0  0  0
  6 37  1  0  0  0  0
  7 38  1  0  0  0  0
 13 39  1  0  0  0  0
 13 40  1  0  0  0  0
 14 41  1  0  0  0  0
 16 42  1  0  0  0  0
 16 43  1  0  0  0  0
 17 44  1  0  0  0  0
 17 45  1  0  0  0  0
 18 46  1  0  0  0  0
 19 47  1  0  0  0  0
 19 48  1  0  0  0  0
 20 49  1  0  0  0  0
 20 50  1  0  0  0  0
 21 51  1  0  0  0  0
 21 52  1  0  0  0  0
 25 53  1  0  0  0  0
 26 54  1  0  0  0  0
M  END
> <creator>
Jan, Ghent university

> <fragments>
x0305

> <real_space>
FALSE

> <SCR>
FALSE

> <BB>
FALSE

> <link>
https://covid.postera.ai/covid/submissions/bf40f168-4eec-438e-a3f5-b4da0b83bc9c

> <covalent_frag>
TRUE

> <covalent_warhead>
TRUE

> <acrylamide>
TRUE

> <acrylamide_adduct>
FALSE

> <chloroacetamide>
FALSE

> <chloroacetamide_adduct>
FALSE

> <vinylsulfonamide>
FALSE

> <vinylsulfonamide_adduct>
FALSE

> <in_molport_or_mcule>
FALSE

> <in_emolecules>
FALSE

> <Hybrid2>
-0.409975

> <Mpro-x0305_dock>
-0.409975

> <Mpro-x0692_dock>
0.801429

> <Mpro-x0755_dock>
1.054902

> <site>
active-noncovalent

> <covalent_distance_min>
9.70817

> <covalent_distance_mean>
10.464115

> <covalent_distance_stderr>
0.045711126

$$$$
MAK-UNK-8fd-30
  -OEChem-04062011563D

 74 77  0     0  0  0  0  0  0999 V2000
    4.6464    0.7534   25.6036 C   0  0  0  0  0  0  0  0  0  0  0  0
    9.2463   -0.4093   22.2266 C   0  0  0  0  0  0  0  0  0  0  0  0
    7.9499   -0.8189   22.5384 C   0  0  0  0  0  0  0  0  0  0  0  0
    5.9807    0.4038   25.7793 C   0  0  0  0  0  0  0  0  0  0  0  0
   10.0692   -1.4945   24.2222 C   0  0  0  0  0  0  0  0  0  0  0  0
    8.5429   -4.0444   25.8844 C   0  0  0  0  0  0  0  0  0  0  0  0
    3.7989    0.6464   26.6945 C   0  0  0  0  0  0  0  0  0  0  0  0
    5.4935   -0.1075   28.0503 C   0  0  0  0  0  0  0  0  0  0  0  0
    8.0686   -3.1088   27.8768 C   0  0  0  0  0  0  0  0  0  0  0  0
    8.7728   -1.9040   24.5341 C   0  0  0  0  0  0  0  0  0  0  0  0
    8.2495   -4.3183   27.2431 C   0  0  0  0  0  0  0  0  0  0  0  0
   10.3060   -0.7471   23.0685 C   0  0  0  0  0  0  0  0  0  0  0  0
    7.7132   -1.5662   23.6922 C   0  0  0  0  0  0  0  0  0  0  0  0
    6.4204   -0.0360   27.0229 C   0  0  0  0  0  0  0  0  0  0  0  0
    8.5325   -2.6758   25.7292 C   0  0  0  0  0  0  0  0  0  0  0  0
   12.3905    0.5043   23.6161 C   0  0  0  0  0  0  0  0  0  0  0  0
   12.5911    5.6003   23.8402 C   0  0  0  0  0  0  0  0  0  0  0  0
   12.5442    2.3471   25.2811 C   0  0  0  0  0  0  0  0  0  0  0  0
   10.8504    2.4629   23.3888 C   0  0  0  0  0  0  0  0  0  0  0  0
   13.3968    3.3632   24.5233 C   0  0  0  0  0  0  0  0  0  0  0  0
   11.7478    3.4907   22.6982 C   0  0  0  0  0  0  0  0  0  0  0  0
   11.6146    1.5541   24.3570 C   0  0  0  0  0  0  0  0  0  0  0  0
   13.4872   -1.6643   21.8652 C   0  0  0  0  0  0  0  0  0  0  0  0
   12.5497    0.2760   20.5605 C   0  0  0  0  0  0  0  0  0  0  0  0
    6.7390   -7.2664   29.1427 C   0  0  0  0  0  0  0  0  0  0  0  0
    8.1547   -5.6526   27.8660 C   0  0  0  0  0  0  0  0  0  0  0  0
   11.6963    6.4059   22.9324 C   0  0  0  0  0  0  0  0  0  0  0  0
   12.2381   -0.8700   21.5119 C   0  0  0  0  0  0  0  0  0  0  0  0
    4.1894    0.2234   27.9177 N   0  0  0  0  0  0  0  0  0  0  0  0
    8.2433   -2.1173   26.9469 N   0  0  0  0  0  0  0  0  0  0  0  0
   12.5601    4.2157   23.6798 N   0  0  0  0  0  0  0  0  0  0  0  0
   11.6523   -0.3202   22.7441 N   0  0  0  0  0  0  0  0  0  0  0  0
    6.8175   -5.9483   28.4665 N   0  3  0  0  0  0  0  0  0  0  0  0
   13.6103    0.4564   23.7939 O   0  0  0  0  0  0  0  0  0  0  0  0
   13.2943    6.1859   24.6678 O   0  0  0  0  0  0  0  0  0  0  0  0
    8.9345    0.1826   26.2784 O   0  0  0  0  0  0  0  0  0  0  0  0
    8.3729   -0.2934   28.7137 O   0  0  0  0  0  0  0  0  0  0  0  0
    6.4612   -1.9526   23.9782 F   0  0  0  0  0  0  0  0  0  0  0  0
    8.1150   -0.4908   27.2854 S   0  0  0  0  0  0  0  0  0  0  0  0
   10.1421    6.5406   23.7473 Cl  0  0  0  0  0  0  0  0  0  0  0  0
    4.2814    1.0988   24.6432 H   0  0  0  0  0  0  0  0  0  0  0  0
    9.4191    0.1732   21.3252 H   0  0  0  0  0  0  0  0  0  0  0  0
    7.1248   -0.5561   21.8831 H   0  0  0  0  0  0  0  0  0  0  0  0
    6.6688    0.4775   24.9418 H   0  0  0  0  0  0  0  0  0  0  0  0
   10.8990   -1.7551   24.8769 H   0  0  0  0  0  0  0  0  0  0  0  0
    8.7399   -4.7690   25.1053 H   0  0  0  0  0  0  0  0  0  0  0  0
    2.7490    0.9068   26.6096 H   0  0  0  0  0  0  0  0  0  0  0  0
    5.7770   -0.4432   29.0430 H   0  0  0  0  0  0  0  0  0  0  0  0
    7.8317   -2.8746   28.9065 H   0  0  0  0  0  0  0  0  0  0  0  0
   13.2022    1.6678   25.8365 H   0  0  0  0  0  0  0  0  0  0  0  0
   11.9374    2.8800   26.0244 H   0  0  0  0  0  0  0  0  0  0  0  0
   10.0713    2.9981   23.9469 H   0  0  0  0  0  0  0  0  0  0  0  0
   10.3390    1.8625   22.6268 H   0  0  0  0  0  0  0  0  0  0  0  0
   13.9722    3.9630   25.2357 H   0  0  0  0  0  0  0  0  0  0  0  0
   14.1172    2.8576   23.8697 H   0  0  0  0  0  0  0  0  0  0  0  0
   12.4399    2.9989   22.0052 H   0  0  0  0  0  0  0  0  0  0  0  0
   11.1291    4.1637   22.1016 H   0  0  0  0  0  0  0  0  0  0  0  0
   10.8911    1.0065   24.9739 H   0  0  0  0  0  0  0  0  0  0  0  0
   14.2420   -1.0192   22.3264 H   0  0  0  0  0  0  0  0  0  0  0  0
   13.2599   -2.4772   22.5639 H   0  0  0  0  0  0  0  0  0  0  0  0
   13.9278   -2.1145   20.9689 H   0  0  0  0  0  0  0  0  0  0  0  0
   13.2890    0.9549   20.9994 H   0  0  0  0  0  0  0  0  0  0  0  0
   11.6472    0.8551   20.3389 H   0  0  0  0  0  0  0  0  0  0  0  0
   12.9611   -0.0905   19.6133 H   0  0  0  0  0  0  0  0  0  0  0  0
    7.5038   -7.2885   29.9211 H   0  0  0  0  0  0  0  0  0  0  0  0
    5.7396   -7.3631   29.5712 H   0  0  0  0  0  0  0  0  0  0  0  0
    6.9206   -8.0382   28.3922 H   0  0  0  0  0  0  0  0  0  0  0  0
    8.3420   -6.4679   27.1448 H   0  0  0  0  0  0  0  0  0  0  0  0
    8.8832   -5.7866   28.6854 H   0  0  0  0  0  0  0  0  0  0  0  0
   11.5797    5.8763   21.9937 H   0  0  0  0  0  0  0  0  0  0  0  0
   12.1304    7.3893   22.7934 H   0  0  0  0  0  0  0  0  0  0  0  0
   11.4981   -1.5345   21.0527 H   0  0  0  0  0  0  0  0  0  0  0  0
    6.1072   -5.8990   27.7270 H   0  0  0  0  0  0  0  0  0  0  0  0
    6.5859   -5.2051   29.1356 H   0  0  0  0  0  0  0  0  0  0  0  0
  1  4  2  0  0  0  0
  1  7  1  0  0  0  0
  2  3  2  0  0  0  0
  2 12  1  0  0  0  0
  3 13  1  0  0  0  0
  4 14  1  0  0  0  0
  5 10  1  0  0  0  0
  5 12  2  0  0  0  0
  6 11  1  0  0  0  0
  6 15  2  0  0  0  0
  7 29  2  0  0  0  0
  8 14  2  0  0  0  0
  8 29  1  0  0  0  0
  9 11  2  0  0  0  0
  9 30  1  0  0  0  0
 10 13  2  0  0  0  0
 10 15  1  0  0  0  0
 11 26  1  0  0  0  0
 12 32  1  0  0  0  0
 13 38  1  0  0  0  0
 14 39  1  0  0  0  0
 15 30  1  0  0  0  0
 16 22  1  0  0  0  0
 16 32  1  0  0  0  0
 16 34  2  0  0  0  0
 17 27  1  0  0  0  0
 17 31  1  0  0  0  0
 17 35  2  0  0  0  0
 18 20  1  0  0  0  0
 18 22  1  0  0  0  0
 19 21  1  0  0  0  0
 19 22  1  0  0  0  0
 20 31  1  0  0  0  0
 21 31  1  0  0  0  0
 23 28  1  0  0  0  0
 24 28  1  0  0  0  0
 25 33  1  0  0  0  0
 26 33  1  0  0  0  0
 27 40  1  0  0  0  0
 28 32  1  0  0  0  0
 30 39  1  0  0  0  0
 36 39  2  0  0  0  0
 37 39  2  0  0  0  0
  1 41  1  0  0  0  0
  2 42  1  0  0  0  0
  3 43  1  0  0  0  0
  4 44  1  0  0  0  0
  5 45  1  0  0  0  0
  6 46  1  0  0  0  0
  7 47  1  0  0  0  0
  8 48  1  0  0  0  0
  9 49  1  0  0  0  0
 18 50  1  0  0  0  0
 18 51  1  0  0  0  0
 19 52  1  0  0  0  0
 19 53  1  0  0  0  0
 20 54  1  0  0  0  0
 20 55  1  0  0  0  0
 21 56  1  0  0  0  0
 21 57  1  0  0  0  0
 22 58  1  0  0  0  0
 23 59  1  0  0  0  0
 23 60  1  0  0  0  0
 23 61  1  0  0  0  0
 24 62  1  0  0  0  0
 24 63  1  0  0  0  0
 24 64  1  0  0  0  0
 25 65  1  0  0  0  0
 25 66  1  0  0  0  0
 25 67  1  0  0  0  0
 26 68  1  0  0  0  0
 26 69  1  0  0  0  0
 27 70  1  0  0  0  0
 27 71  1  0  0  0  0
 28 72  1  0  0  0  0
 33 73  1  0  0  0  0
 33 74  1  0  0  0  0
M  CHG  1  33   1
M  END
> <creator>
Maksym Voznyy

> <fragments>
x0305

> <real_space>
FALSE

> <SCR>
FALSE

> <BB>
FALSE

> <link>
https://covid.postera.ai/covid/submissions/8fdbca50-c94c-4218-91b0-3b0489774fa8

> <covalent_frag>
FALSE

> <covalent_warhead>
TRUE

> <acrylamide>
FALSE

> <acrylamide_adduct>
FALSE

> <chloroacetamide>
TRUE

> <chloroacetamide_adduct>
FALSE

> <vinylsulfonamide>
FALSE

> <vinylsulfonamide_adduct>
FALSE

> <in_molport_or_mcule>
FALSE

> <in_emolecules>
FALSE

> <Hybrid2>
-0.370065

> <Mpro-x0305_dock>
-0.370065

> <site>
active-noncovalent

> <covalent_distance_min>
10.625736

> <covalent_distance_mean>
11.488822

> <covalent_distance_stderr>
0.04882044

$$$$
WAR-XCH-bdd-32
  -OEChem-04062011563D

 58 61  0     1  0  0  0  0  0999 V2000
    9.1233   -3.4847   23.9321 C   0  0  0  0  0  0  0  0  0  0  0  0
    8.8547   -4.4265   24.9703 C   0  0  0  0  0  0  0  0  0  0  0  0
    8.1379   -3.8484   26.0008 C   0  0  0  0  0  0  0  0  0  0  0  0
    8.5988   -2.2408   24.2102 C   0  0  0  0  0  0  0  0  0  0  0  0
    5.9170   -2.2487   18.8545 C   0  0  0  0  0  0  0  0  0  0  0  0
    9.2899   -5.8587   25.0083 C   0  0  0  0  0  0  0  0  0  0  0  0
    7.6705   -4.5633   27.2298 C   0  0  0  0  0  0  0  0  0  0  0  0
    8.5154   -6.6617   26.0652 C   0  0  0  0  0  0  0  0  0  0  0  0
    8.4145   -5.8982   27.3939 C   0  0  0  0  0  0  0  0  0  0  0  0
    9.4388    0.9306   24.5300 C   0  0  0  0  0  0  0  0  0  0  0  0
   11.0583   -0.9317   23.9799 C   0  0  0  0  0  0  0  0  0  0  0  0
   10.6115    1.8895   24.7375 C   0  0  0  0  0  0  0  0  0  0  0  0
   12.2316    0.0266   24.1892 C   0  0  0  0  0  0  0  0  0  0  0  0
    8.3307   -0.7122   21.0125 C   0  0  0  0  0  0  0  0  0  0  0  0
    6.5887   -1.8850   22.4057 C   0  0  0  0  0  0  0  0  0  0  0  0
    7.2758   -0.4847   19.9330 C   0  0  0  0  0  0  0  0  0  0  0  0
    5.5678   -1.6342   21.2977 C   0  0  0  0  0  0  0  0  0  0  0  0
    9.7927   -0.1874   23.5469 C   0  0  0  0  0  0  0  0  0  0  0  0
    7.6891   -0.8184   22.3995 C   0  0  0  0  0  0  0  0  0  0  0  0
   11.8867    1.1575   25.1578 C   0  0  0  0  0  0  0  0  0  0  0  0
    6.1053   -1.5565   17.5281 C   0  0  0  0  0  0  0  0  0  0  0  0
    6.2330   -1.5107   19.9948 N   0  0  0  0  0  0  0  0  0  0  0  0
    8.6862   -1.1022   23.4020 N   0  0  3  0  0  0  0  0  0  0  0  0
    5.4994   -3.4094   18.8745 O   0  0  0  0  0  0  0  0  0  0  0  0
   11.7200    0.6073   26.4627 O   0  0  0  0  0  0  0  0  0  0  0  0
    7.7868   -2.2068   25.7175 S   0  0  0  0  0  0  0  0  0  0  0  0
    5.0342   -0.1599   17.5323 Cl  0  0  0  0  0  0  0  0  0  0  0  0
    9.6769   -3.7129   23.0293 H   0  0  0  0  0  0  0  0  0  0  0  0
    9.1562   -6.3234   24.0248 H   0  0  0  0  0  0  0  0  0  0  0  0
   10.3614   -5.8906   25.2418 H   0  0  0  0  0  0  0  0  0  0  0  0
    7.8224   -3.9502   28.1252 H   0  0  0  0  0  0  0  0  0  0  0  0
    6.5946   -4.7580   27.1388 H   0  0  0  0  0  0  0  0  0  0  0  0
    7.5033   -6.8741   25.6969 H   0  0  0  0  0  0  0  0  0  0  0  0
    9.0080   -7.6275   26.2244 H   0  0  0  0  0  0  0  0  0  0  0  0
    9.4265   -5.7094   27.7753 H   0  0  0  0  0  0  0  0  0  0  0  0
    7.9015   -6.5130   28.1422 H   0  0  0  0  0  0  0  0  0  0  0  0
    9.1248    0.5130   25.4894 H   0  0  0  0  0  0  0  0  0  0  0  0
    8.5886    1.4937   24.1345 H   0  0  0  0  0  0  0  0  0  0  0  0
   11.3282   -1.6497   23.2015 H   0  0  0  0  0  0  0  0  0  0  0  0
   10.8768   -1.5031   24.8918 H   0  0  0  0  0  0  0  0  0  0  0  0
   10.8008    2.4480   23.8106 H   0  0  0  0  0  0  0  0  0  0  0  0
   10.3563    2.6543   25.4840 H   0  0  0  0  0  0  0  0  0  0  0  0
   13.1082   -0.5238   24.5582 H   0  0  0  0  0  0  0  0  0  0  0  0
   12.5415    0.4494   23.2242 H   0  0  0  0  0  0  0  0  0  0  0  0
    8.9069   -1.6127   20.7888 H   0  0  0  0  0  0  0  0  0  0  0  0
    9.0325    0.1265   21.0069 H   0  0  0  0  0  0  0  0  0  0  0  0
    6.0762   -1.8606   23.3710 H   0  0  0  0  0  0  0  0  0  0  0  0
    7.0203   -2.8821   22.2980 H   0  0  0  0  0  0  0  0  0  0  0  0
    6.8638    0.5220   20.0448 H   0  0  0  0  0  0  0  0  0  0  0  0
    7.7198   -0.5305   18.9304 H   0  0  0  0  0  0  0  0  0  0  0  0
    4.8581   -2.4645   21.2240 H   0  0  0  0  0  0  0  0  0  0  0  0
    4.9916   -0.7335   21.5257 H   0  0  0  0  0  0  0  0  0  0  0  0
    9.9801    0.2724   22.5621 H   0  0  0  0  0  0  0  0  0  0  0  0
    7.2361    0.1556   22.6461 H   0  0  0  0  0  0  0  0  0  0  0  0
   12.7219    1.8695   25.2022 H   0  0  0  0  0  0  0  0  0  0  0  0
    5.8251   -2.2381   16.7331 H   0  0  0  0  0  0  0  0  0  0  0  0
    7.1368   -1.2345   17.4432 H   0  0  0  0  0  0  0  0  0  0  0  0
   12.5506    0.1563   26.6822 H   0  0  0  0  0  0  0  0  0  0  0  0
  1  2  1  0  0  0  0
  1  4  2  0  0  0  0
  2  3  2  0  0  0  0
  2  6  1  0  0  0  0
  3  7  1  0  0  0  0
  3 26  1  0  0  0  0
  4 23  1  0  0  0  0
  4 26  1  0  0  0  0
  5 21  1  0  0  0  0
  5 22  1  0  0  0  0
  5 24  2  0  0  0  0
  6  8  1  0  0  0  0
  7  9  1  0  0  0  0
  8  9  1  0  0  0  0
 10 12  1  0  0  0  0
 10 18  1  0  0  0  0
 11 13  1  0  0  0  0
 11 18  1  0  0  0  0
 12 20  1  0  0  0  0
 13 20  1  0  0  0  0
 14 16  1  0  0  0  0
 14 19  1  0  0  0  0
 15 17  1  0  0  0  0
 15 19  1  0  0  0  0
 16 22  1  0  0  0  0
 17 22  1  0  0  0  0
 18 23  1  0  0  0  0
 19 23  1  0  0  0  0
 20 25  1  0  0  0  0
 21 27  1  0  0  0  0
  1 28  1  0  0  0  0
  6 29  1  0  0  0  0
  6 30  1  0  0  0  0
  7 31  1  0  0  0  0
  7 32  1  0  0  0  0
  8 33  1  0  0  0  0
  8 34  1  0  0  0  0
  9 35  1  0  0  0  0
  9 36  1  0  0  0  0
 10 37  1  0  0  0  0
 10 38  1  0  0  0  0
 11 39  1  0  0  0  0
 11 40  1  0  0  0  0
 12 41  1  0  0  0  0
 12 42  1  0  0  0  0
 13 43  1  0  0  0  0
 13 44  1  0  0  0  0
 14 45  1  0  0  0  0
 14 46  1  0  0  0  0
 15 47  1  0  0  0  0
 15 48  1  0  0  0  0
 16 49  1  0  0  0  0
 16 50  1  0  0  0  0
 17 51  1  0  0  0  0
 17 52  1  0  0  0  0
 18 53  1  0  0  0  0
 19 54  1  0  0  0  0
 20 55  1  0  0  0  0
 21 56  1  0  0  0  0
 21 57  1  0  0  0  0
 25 58  1  0  0  0  0
M  END
> <creator>
Warren Thompson, XChem - Diamond Light Source

> <fragments>
x1334

> <real_space>
FALSE

> <SCR>
FALSE

> <BB>
FALSE

> <link>
https://covid.postera.ai/covid/submissions/bdd24732-f687-4f5f-b96b-e2bd62c18337

> <covalent_frag>
TRUE

> <covalent_warhead>
TRUE

> <acrylamide>
FALSE

> <acrylamide_adduct>
FALSE

> <chloroacetamide>
TRUE

> <chloroacetamide_adduct>
FALSE

> <vinylsulfonamide>
FALSE

> <vinylsulfonamide_adduct>
FALSE

> <in_molport_or_mcule>
FALSE

> <in_emolecules>
FALSE

> <Hybrid2>
-0.314765

> <Mpro-x1334_dock>
-0.314765

> <site>
active-covalent

> <covalent_distance_min>
3.7157104

> <covalent_distance_mean>
4.691681

> <covalent_distance_stderr>
0.058983855

$$$$
FAR-UNI-956-1
  -OEChem-04062011563D

 74 78  0     1  0  0  0  0  0999 V2000
    6.9589   -2.2483   18.4206 C   0  0  0  0  0  0  0  0  0  0  0  0
    6.1189    0.0057   18.6466 C   0  0  0  0  0  0  0  0  0  0  0  0
   10.8024    0.4813   21.6335 C   0  0  0  0  0  0  0  0  0  0  0  0
   10.2154    0.0617   23.9393 C   0  0  0  0  0  0  0  0  0  0  0  0
    7.4798   -2.1837   19.7129 C   0  0  0  0  0  0  0  0  0  0  0  0
    6.6397    0.0703   19.9389 C   0  0  0  0  0  0  0  0  0  0  0  0
   12.1554    0.4301   21.9686 C   0  0  0  0  0  0  0  0  0  0  0  0
   11.5684    0.0104   24.2744 C   0  0  0  0  0  0  0  0  0  0  0  0
    6.2785   -1.1535   17.8874 C   0  0  0  0  0  0  0  0  0  0  0  0
    9.8323    0.2971   22.6188 C   0  0  0  0  0  0  0  0  0  0  0  0
    7.3202   -1.0244   20.4721 C   0  0  0  0  0  0  0  0  0  0  0  0
   12.5384    0.1946   23.2890 C   0  0  0  0  0  0  0  0  0  0  0  0
    6.8636   -5.3720   21.3043 C   0  0  0  0  0  0  0  0  0  0  0  0
    7.9796   -2.1098   22.6165 C   0  0  0  0  0  0  0  0  0  0  0  0
    7.5112    0.8231   23.4259 C   0  0  0  0  0  0  0  0  0  0  0  0
    7.4649   -6.4846   22.1819 C   0  0  0  0  0  0  0  0  0  0  0  0
    8.5695    4.7854   25.7214 C   0  0  0  0  0  0  0  0  0  0  0  0
    8.6100    3.2897   26.0234 C   0  0  0  0  0  0  0  0  0  0  0  0
    7.9744    5.0729   24.3456 C   0  0  0  0  0  0  0  0  0  0  0  0
    7.2341    2.6440   25.8539 C   0  0  0  0  0  0  0  0  0  0  0  0
    6.5997    4.4233   24.1803 C   0  0  0  0  0  0  0  0  0  0  0  0
    6.8717   -3.1404   22.4837 C   0  0  2  0  0  0  0  0  0  0  0  0
    6.6131    2.9179   24.4776 C   0  0  0  0  0  0  0  0  0  0  0  0
    8.0040   -5.3481   23.0642 C   0  0  1  0  0  0  0  0  0  0  0  0
    6.1374   -3.4405   23.8071 C   0  0  0  0  0  0  0  0  0  0  0  0
    5.7216   -1.2227   16.5056 C   0  0  0  0  0  0  0  0  0  0  0  0
    6.0793   -2.2610   24.7849 C   0  0  0  0  0  0  0  0  0  0  0  0
    4.6966   -3.9135   23.5337 C   0  0  0  0  0  0  0  0  0  0  0  0
    8.3666    0.3520   22.2559 C   0  0  2  0  0  0  0  0  0  0  0  0
    7.4338   -4.4156   22.0867 N   0  0  0  0  0  0  0  0  0  0  0  0
    7.3530    2.2020   23.4361 N   0  0  0  0  0  0  0  0  0  0  0  0
    7.8610   -0.9571   21.8149 N   0  0  0  0  0  0  0  0  0  0  0  0
    6.0989   -5.3221   20.3680 O   0  0  0  0  0  0  0  0  0  0  0  0
    8.8798   -2.3327   23.4300 O   0  0  0  0  0  0  0  0  0  0  0  0
    7.0583    0.0550   24.2724 O   0  0  0  0  0  0  0  0  0  0  0  0
    8.0722   -4.2860   25.4750 O   0  0  0  0  0  0  0  0  0  0  0  0
    6.2081   -5.8869   24.9546 O   0  0  0  0  0  0  0  0  0  0  0  0
   13.8587    0.1434   23.6156 O   0  0  0  0  0  0  0  0  0  0  0  0
    7.1134   -4.8349   24.5333 S   0  0  0  0  0  0  0  0  0  0  0  0
    7.0899   -3.1547   17.8354 H   0  0  0  0  0  0  0  0  0  0  0  0
    5.5907    0.8636   18.2387 H   0  0  0  0  0  0  0  0  0  0  0  0
   10.5130    0.6653   20.6024 H   0  0  0  0  0  0  0  0  0  0  0  0
    9.4664   -0.0828   24.7136 H   0  0  0  0  0  0  0  0  0  0  0  0
    8.0080   -3.0430   20.1186 H   0  0  0  0  0  0  0  0  0  0  0  0
    6.5105    0.9790   20.5214 H   0  0  0  0  0  0  0  0  0  0  0  0
   12.9064    0.5740   21.1964 H   0  0  0  0  0  0  0  0  0  0  0  0
   11.8603   -0.1737   25.3045 H   0  0  0  0  0  0  0  0  0  0  0  0
    6.7226   -7.1455   22.6350 H   0  0  0  0  0  0  0  0  0  0  0  0
    8.2293   -7.0775   21.6720 H   0  0  0  0  0  0  0  0  0  0  0  0
    7.9832    5.3010   26.4917 H   0  0  0  0  0  0  0  0  0  0  0  0
    9.5874    5.1943   25.7704 H   0  0  0  0  0  0  0  0  0  0  0  0
    9.3305    2.7990   25.3601 H   0  0  0  0  0  0  0  0  0  0  0  0
    8.9611    3.1336   27.0504 H   0  0  0  0  0  0  0  0  0  0  0  0
    7.8837    6.1567   24.2060 H   0  0  0  0  0  0  0  0  0  0  0  0
    8.6511    4.7048   23.5668 H   0  0  0  0  0  0  0  0  0  0  0  0
    7.3278    1.5556   26.0119 H   0  0  0  0  0  0  0  0  0  0  0  0
    6.5649    3.0146   26.6483 H   0  0  0  0  0  0  0  0  0  0  0  0
    5.8818    4.9313   24.8457 H   0  0  0  0  0  0  0  0  0  0  0  0
    6.2432    4.5978   23.1503 H   0  0  0  0  0  0  0  0  0  0  0  0
    6.1562   -2.7777   21.7138 H   0  0  0  0  0  0  0  0  0  0  0  0
    5.5984    2.5289   24.4487 H   0  0  0  0  0  0  0  0  0  0  0  0
    9.0912   -5.2713   23.1510 H   0  0  0  0  0  0  0  0  0  0  0  0
    4.6947   -1.6075   16.5264 H   0  0  0  0  0  0  0  0  0  0  0  0
    5.7129   -0.2336   16.0295 H   0  0  0  0  0  0  0  0  0  0  0  0
    6.3259   -1.8781   15.8649 H   0  0  0  0  0  0  0  0  0  0  0  0
    5.5473   -2.5597   25.6847 H   0  0  0  0  0  0  0  0  0  0  0  0
    5.5601   -1.4272   24.3192 H   0  0  0  0  0  0  0  0  0  0  0  0
    7.0891   -1.9557   25.0476 H   0  0  0  0  0  0  0  0  0  0  0  0
    4.2028   -4.1174   24.4777 H   0  0  0  0  0  0  0  0  0  0  0  0
    4.7254   -4.8161   22.9330 H   0  0  0  0  0  0  0  0  0  0  0  0
    4.1608   -3.1355   23.0006 H   0  0  0  0  0  0  0  0  0  0  0  0
    8.2067    1.0257   21.4054 H   0  0  0  0  0  0  0  0  0  0  0  0
    7.7665    2.7560   22.6919 H   0  0  0  0  0  0  0  0  0  0  0  0
   14.4060    0.2884   22.8274 H   0  0  0  0  0  0  0  0  0  0  0  0
  1  5  2  0  0  0  0
  1  9  1  0  0  0  0
  2  6  1  0  0  0  0
  2  9  2  0  0  0  0
  3  7  2  0  0  0  0
  3 10  1  0  0  0  0
  4  8  1  0  0  0  0
  4 10  2  0  0  0  0
  5 11  1  0  0  0  0
  6 11  2  0  0  0  0
  7 12  1  0  0  0  0
  8 12  2  0  0  0  0
  9 26  1  0  0  0  0
 10 29  1  0  0  0  0
 11 32  1  0  0  0  0
 12 38  1  0  0  0  0
 13 16  1  0  0  0  0
 13 30  1  0  0  0  0
 13 33  2  0  0  0  0
 14 22  1  0  0  0  0
 14 32  1  0  0  0  0
 14 34  2  0  0  0  0
 15 29  1  0  0  0  0
 15 31  1  0  0  0  0
 15 35  2  0  0  0  0
 16 24  1  0  0  0  0
 17 18  1  0  0  0  0
 17 19  1  0  0  0  0
 18 20  1  0  0  0  0
 19 21  1  0  0  0  0
 20 23  1  0  0  0  0
 21 23  1  0  0  0  0
 22 25  1  0  0  0  0
 22 30  1  0  0  0  0
 23 31  1  0  0  0  0
 24 30  1  0  0  0  0
 24 39  1  0  0  0  0
 25 27  1  0  0  0  0
 25 28  1  0  0  0  0
 25 39  1  0  0  0  0
 29 32  1  0  0  0  0
 36 39  2  0  0  0  0
 37 39  2  0  0  0  0
  1 40  1  0  0  0  0
  2 41  1  0  0  0  0
  3 42  1  0  0  0  0
  4 43  1  0  0  0  0
  5 44  1  0  0  0  0
  6 45  1  0  0  0  0
  7 46  1  0  0  0  0
  8 47  1  0  0  0  0
 16 48  1  0  0  0  0
 16 49  1  0  0  0  0
 17 50  1  0  0  0  0
 17 51  1  0  0  0  0
 18 52  1  0  0  0  0
 18 53  1  0  0  0  0
 19 54  1  0  0  0  0
 19 55  1  0  0  0  0
 20 56  1  0  0  0  0
 20 57  1  0  0  0  0
 21 58  1  0  0  0  0
 21 59  1  0  0  0  0
 22 60  1  0  0  0  0
 23 61  1  0  0  0  0
 24 62  1  0  0  0  0
 26 63  1  0  0  0  0
 26 64  1  0  0  0  0
 26 65  1  0  0  0  0
 27 66  1  0  0  0  0
 27 67  1  0  0  0  0
 27 68  1  0  0  0  0
 28 69  1  0  0  0  0
 28 70  1  0  0  0  0
 28 71  1  0  0  0  0
 29 72  1  0  0  0  0
 31 73  1  0  0  0  0
 38 74  1  0  0  0  0
M  END
> <creator>
FARAZ MOHAMMADALI SHAIKH, University of Macau

> <fragments>
x0759

> <real_space>
FALSE

> <SCR>
FALSE

> <BB>
FALSE

> <link>
https://covid.postera.ai/covid/submissions/9564ba6c-4fb2-4138-ae1e-3b340ce9e064

> <covalent_frag>
TRUE

> <covalent_warhead>
TRUE

> <acrylamide>
FALSE

> <acrylamide_adduct>
TRUE

> <chloroacetamide>
FALSE

> <chloroacetamide_adduct>
FALSE

> <vinylsulfonamide>
FALSE

> <vinylsulfonamide_adduct>
FALSE

> <in_molport_or_mcule>
FALSE

> <in_emolecules>
FALSE

> <Hybrid2>
-0.313162

> <Mpro-x0759_dock>
-0.313162

> <Mpro-x0749_dock>
0.070749

> <site>
active-covalent

$$$$
MAK-UNK-8fd-2
  -OEChem-04062011563D

 74 77  0     1  0  0  0  0  0999 V2000
   12.6339    0.2289   19.1929 C   0  0  0  0  0  0  0  0  0  0  0  0
   13.7062   -0.6585   19.1022 C   0  0  0  0  0  0  0  0  0  0  0  0
    6.3553   -0.6504   20.9427 C   0  0  0  0  0  0  0  0  0  0  0  0
   11.9675    0.3959   20.4069 C   0  0  0  0  0  0  0  0  0  0  0  0
   14.1122   -1.3789   20.2255 C   0  0  0  0  0  0  0  0  0  0  0  0
    7.3207   -1.2385   21.7524 C   0  0  0  0  0  0  0  0  0  0  0  0
   11.9447    0.7497   23.7969 C   0  0  0  0  0  0  0  0  0  0  0  0
    6.7400   -0.2198   19.6831 C   0  0  0  0  0  0  0  0  0  0  0  0
    8.9058   -0.9132   20.0095 C   0  0  0  0  0  0  0  0  0  0  0  0
   10.1665   -0.4916   24.4025 C   0  0  0  0  0  0  0  0  0  0  0  0
   12.3735   -0.3246   21.5302 C   0  0  0  0  0  0  0  0  0  0  0  0
   10.9879    0.5327   24.8189 C   0  0  0  0  0  0  0  0  0  0  0  0
   13.4459   -1.2120   21.4395 C   0  0  0  0  0  0  0  0  0  0  0  0
    8.6227   -1.3761   21.2844 C   0  0  0  0  0  0  0  0  0  0  0  0
   11.6787   -0.1485   22.7870 C   0  0  0  0  0  0  0  0  0  0  0  0
    7.5227   -0.0742   26.0462 C   0  0  0  0  0  0  0  0  0  0  0  0
    3.9509   -3.7171   25.8696 C   0  0  0  0  0  0  0  0  0  0  0  0
    5.4760   -0.8145   27.2521 C   0  0  0  0  0  0  0  0  0  0  0  0
    7.2724   -2.4973   26.6164 C   0  0  0  0  0  0  0  0  0  0  0  0
    4.6276   -1.3486   26.0994 C   0  0  0  0  0  0  0  0  0  0  0  0
    6.3592   -2.9923   25.4940 C   0  0  0  0  0  0  0  0  0  0  0  0
    6.9740   -1.0557   27.0405 C   0  0  0  0  0  0  0  0  0  0  0  0
   10.5427    3.5726   25.0695 C   0  0  0  0  0  0  0  0  0  0  0  0
    7.5960    3.4237   25.7052 C   0  0  0  0  0  0  0  0  0  0  0  0
    7.8820    1.4814   27.9690 C   0  0  0  0  0  0  0  0  0  0  0  0
   10.8859    1.2850   26.1253 C   0  0  0  0  0  0  0  0  0  0  0  0
    4.3698   -5.1351   25.5734 C   0  0  0  0  0  0  0  0  0  0  0  0
    9.9794    2.5367   26.0561 C   0  0  2  0  0  0  0  0  0  0  0  0
    8.5086    2.1986   25.6949 C   0  0  1  0  0  0  0  0  0  0  0  0
    7.9948   -0.3365   19.1939 N   0  0  0  0  0  0  0  0  0  0  0  0
   10.5956   -0.8977   23.1659 N   0  0  0  0  0  0  0  0  0  0  0  0
    4.9515   -2.7473   25.8220 N   0  0  0  0  0  0  0  0  0  0  0  0
    7.9538    1.1532   26.5510 N   0  0  0  0  0  0  0  0  0  0  0  0
    7.5679   -0.3872   24.8535 O   0  0  0  0  0  0  0  0  0  0  0  0
    2.7699   -3.4809   26.1372 O   0  0  0  0  0  0  0  0  0  0  0  0
    9.2332   -2.9824   23.2768 O   0  0  0  0  0  0  0  0  0  0  0  0
   10.8747   -2.6648   21.3591 O   0  0  0  0  0  0  0  0  0  0  0  0
   13.8485   -1.9120   22.5103 F   0  0  0  0  0  0  0  0  0  0  0  0
    9.8815   -2.1211   22.2884 S   0  0  0  0  0  0  0  0  0  0  0  0
    2.9285   -6.1314   25.7404 Cl  0  0  0  0  0  0  0  0  0  0  0  0
   12.3182    0.7901   18.3182 H   0  0  0  0  0  0  0  0  0  0  0  0
   14.2254   -0.7881   18.1571 H   0  0  0  0  0  0  0  0  0  0  0  0
    5.3341   -0.5327   21.2866 H   0  0  0  0  0  0  0  0  0  0  0  0
   11.1335    1.0916   20.4611 H   0  0  0  0  0  0  0  0  0  0  0  0
   14.9474   -2.0695   20.1551 H   0  0  0  0  0  0  0  0  0  0  0  0
    7.0484   -1.5857   22.7452 H   0  0  0  0  0  0  0  0  0  0  0  0
   12.7409    1.4825   23.7997 H   0  0  0  0  0  0  0  0  0  0  0  0
    6.0247    0.2455   19.0130 H   0  0  0  0  0  0  0  0  0  0  0  0
    9.9037   -0.9930   19.5894 H   0  0  0  0  0  0  0  0  0  0  0  0
    9.3174   -0.9611   24.8820 H   0  0  0  0  0  0  0  0  0  0  0  0
    5.2751    0.2559   27.3812 H   0  0  0  0  0  0  0  0  0  0  0  0
    5.1631   -1.3106   28.1799 H   0  0  0  0  0  0  0  0  0  0  0  0
    7.1453   -3.1550   27.4860 H   0  0  0  0  0  0  0  0  0  0  0  0
    8.3174   -2.5916   26.2974 H   0  0  0  0  0  0  0  0  0  0  0  0
    3.5662   -1.2342   26.3416 H   0  0  0  0  0  0  0  0  0  0  0  0
    4.8135   -0.7785   25.1817 H   0  0  0  0  0  0  0  0  0  0  0  0
    6.5707   -2.4619   24.5586 H   0  0  0  0  0  0  0  0  0  0  0  0
    6.5586   -4.0495   25.3092 H   0  0  0  0  0  0  0  0  0  0  0  0
    7.4987   -0.8478   27.9814 H   0  0  0  0  0  0  0  0  0  0  0  0
   10.5923    3.1736   24.0509 H   0  0  0  0  0  0  0  0  0  0  0  0
    9.9185    4.4725   25.0519 H   0  0  0  0  0  0  0  0  0  0  0  0
   11.5511    3.8864   25.3580 H   0  0  0  0  0  0  0  0  0  0  0  0
    7.5779    3.8756   26.7035 H   0  0  0  0  0  0  0  0  0  0  0  0
    7.9390    4.1993   25.0130 H   0  0  0  0  0  0  0  0  0  0  0  0
    6.5690    3.1513   25.4416 H   0  0  0  0  0  0  0  0  0  0  0  0
    8.8142    1.1733   28.4649 H   0  0  0  0  0  0  0  0  0  0  0  0
    7.7450    2.5664   28.0877 H   0  0  0  0  0  0  0  0  0  0  0  0
    7.0321    0.9525   28.4251 H   0  0  0  0  0  0  0  0  0  0  0  0
   10.5314    0.6072   26.9125 H   0  0  0  0  0  0  0  0  0  0  0  0
   11.9061    1.5639   26.4136 H   0  0  0  0  0  0  0  0  0  0  0  0
    5.1180   -5.4389   26.2965 H   0  0  0  0  0  0  0  0  0  0  0  0
    4.7421   -5.1863   24.5567 H   0  0  0  0  0  0  0  0  0  0  0  0
    9.9650    3.0169   27.0441 H   0  0  0  0  0  0  0  0  0  0  0  0
    8.4886    1.7892   24.6770 H   0  0  0  0  0  0  0  0  0  0  0  0
  1  2  1  0  0  0  0
  1  4  2  0  0  0  0
  2  5  2  0  0  0  0
  3  6  2  0  0  0  0
  3  8  1  0  0  0  0
  4 11  1  0  0  0  0
  5 13  1  0  0  0  0
  6 14  1  0  0  0  0
  7 12  1  0  0  0  0
  7 15  2  0  0  0  0
  8 30  2  0  0  0  0
  9 14  2  0  0  0  0
  9 30  1  0  0  0  0
 10 12  2  0  0  0  0
 10 31  1  0  0  0  0
 11 13  2  0  0  0  0
 11 15  1  0  0  0  0
 12 26  1  0  0  0  0
 13 38  1  0  0  0  0
 14 39  1  0  0  0  0
 15 31  1  0  0  0  0
 16 22  1  0  0  0  0
 16 33  1  0  0  0  0
 16 34  2  0  0  0  0
 17 27  1  0  0  0  0
 17 32  1  0  0  0  0
 17 35  2  0  0  0  0
 18 20  1  0  0  0  0
 18 22  1  0  0  0  0
 19 21  1  0  0  0  0
 19 22  1  0  0  0  0
 20 32  1  0  0  0  0
 21 32  1  0  0  0  0
 23 28  1  0  0  0  0
 24 29  1  0  0  0  0
 25 33  1  0  0  0  0
 26 28  1  0  0  0  0
 27 40  1  0  0  0  0
 28 29  1  0  0  0  0
 29 33  1  0  0  0  0
 31 39  1  0  0  0  0
 36 39  2  0  0  0  0
 37 39  2  0  0  0  0
  1 41  1  0  0  0  0
  2 42  1  0  0  0  0
  3 43  1  0  0  0  0
  4 44  1  0  0  0  0
  5 45  1  0  0  0  0
  6 46  1  0  0  0  0
  7 47  1  0  0  0  0
  8 48  1  0  0  0  0
  9 49  1  0  0  0  0
 10 50  1  0  0  0  0
 18 51  1  0  0  0  0
 18 52  1  0  0  0  0
 19 53  1  0  0  0  0
 19 54  1  0  0  0  0
 20 55  1  0  0  0  0
 20 56  1  0  0  0  0
 21 57  1  0  0  0  0
 21 58  1  0  0  0  0
 22 59  1  0  0  0  0
 23 60  1  0  0  0  0
 23 61  1  0  0  0  0
 23 62  1  0  0  0  0
 24 63  1  0  0  0  0
 24 64  1  0  0  0  0
 24 65  1  0  0  0  0
 25 66  1  0  0  0  0
 25 67  1  0  0  0  0
 25 68  1  0  0  0  0
 26 69  1  0  0  0  0
 26 70  1  0  0  0  0
 27 71  1  0  0  0  0
 27 72  1  0  0  0  0
 28 73  1  0  0  0  0
 29 74  1  0  0  0  0
M  END
> <creator>
Maksym Voznyy

> <fragments>
x0305

> <real_space>
FALSE

> <SCR>
FALSE

> <BB>
FALSE

> <link>
https://covid.postera.ai/covid/submissions/8fdbca50-c94c-4218-91b0-3b0489774fa8

> <covalent_frag>
FALSE

> <covalent_warhead>
TRUE

> <acrylamide>
FALSE

> <acrylamide_adduct>
FALSE

> <chloroacetamide>
TRUE

> <chloroacetamide_adduct>
FALSE

> <vinylsulfonamide>
FALSE

> <vinylsulfonamide_adduct>
FALSE

> <in_molport_or_mcule>
FALSE

> <in_emolecules>
FALSE

> <Hybrid2>
-0.236167

> <Mpro-x0305_dock>
-0.236167

> <site>
active-noncovalent

> <covalent_distance_min>
6.914778

> <covalent_distance_mean>
7.55471

> <covalent_distance_stderr>
0.07797075

$$$$
MAK-UNK-8fd-27
  -OEChem-04062011563D

 74 77  0     0  0  0  0  0  0999 V2000
    8.8239   -1.2128   22.0322 C   0  0  0  0  0  0  0  0  0  0  0  0
    5.9178    0.6814   25.2955 C   0  0  0  0  0  0  0  0  0  0  0  0
    8.5540   -1.9602   23.1786 C   0  0  0  0  0  0  0  0  0  0  0  0
   10.1440   -0.9605   21.6589 C   0  0  0  0  0  0  0  0  0  0  0  0
    7.2010    0.1553   25.3950 C   0  0  0  0  0  0  0  0  0  0  0  0
    9.1569   -4.5900   25.2552 C   0  0  0  0  0  0  0  0  0  0  0  0
    5.1148    0.6503   26.4242 C   0  0  0  0  0  0  0  0  0  0  0  0
    6.7560   -0.3618   27.6733 C   0  0  0  0  0  0  0  0  0  0  0  0
    8.9025   -3.6658   27.2927 C   0  0  0  0  0  0  0  0  0  0  0  0
    9.6042   -2.4551   23.9518 C   0  0  0  0  0  0  0  0  0  0  0  0
    8.8930   -4.8674   26.6192 C   0  0  0  0  0  0  0  0  0  0  0  0
   11.1942   -1.4555   22.4320 C   0  0  0  0  0  0  0  0  0  0  0  0
   10.9243   -2.2028   23.5784 C   0  0  0  0  0  0  0  0  0  0  0  0
    7.6359   -0.3782   26.6031 C   0  0  0  0  0  0  0  0  0  0  0  0
    9.3198   -3.2273   25.1367 C   0  0  0  0  0  0  0  0  0  0  0  0
   13.2497   -0.0478   22.4997 C   0  0  0  0  0  0  0  0  0  0  0  0
   12.2045    5.0500   24.1595 C   0  0  0  0  0  0  0  0  0  0  0  0
   13.3529    1.6613   24.2827 C   0  0  0  0  0  0  0  0  0  0  0  0
   11.7752    1.9420   22.3362 C   0  0  0  0  0  0  0  0  0  0  0  0
   12.5963    2.7634   25.0195 C   0  0  0  0  0  0  0  0  0  0  0  0
   11.0505    3.0390   23.1134 C   0  0  0  0  0  0  0  0  0  0  0  0
   12.4434    0.9414   23.2831 C   0  0  0  0  0  0  0  0  0  0  0  0
   14.4404   -2.7465   21.9797 C   0  0  0  0  0  0  0  0  0  0  0  0
   13.6161   -1.6132   19.8864 C   0  0  0  0  0  0  0  0  0  0  0  0
    6.1688   -6.1748   26.9437 C   0  0  0  0  0  0  0  0  0  0  0  0
    8.6521   -6.1974   27.2110 C   0  0  0  0  0  0  0  0  0  0  0  0
   11.5101    5.9266   23.1482 C   0  0  0  0  0  0  0  0  0  0  0  0
   13.2274   -2.2200   21.2266 C   0  0  0  0  0  0  0  0  0  0  0  0
    5.5022    0.1404   27.6148 N   0  0  0  0  0  0  0  0  0  0  0  0
    9.1632   -2.6759   26.3815 N   0  0  0  0  0  0  0  0  0  0  0  0
   11.9567    3.6804   24.0740 N   0  0  0  0  0  0  0  0  0  0  0  0
   12.5642   -1.1902   22.0412 N   0  0  0  0  0  0  0  0  0  0  0  0
    7.3167   -6.3358   27.8696 N   0  3  0  0  0  0  0  0  0  0  0  0
   14.4352    0.2167   22.2841 O   0  0  0  0  0  0  0  0  0  0  0  0
   12.9461    5.5685   24.9981 O   0  0  0  0  0  0  0  0  0  0  0  0
   10.1198   -0.4652   25.7397 O   0  0  0  0  0  0  0  0  0  0  0  0
    9.6134   -0.9429   28.1868 O   0  0  0  0  0  0  0  0  0  0  0  0
   11.9382   -2.6767   24.3197 F   0  0  0  0  0  0  0  0  0  0  0  0
    9.2661   -1.0583   26.7685 S   0  0  0  0  0  0  0  0  0  0  0  0
   11.9742    7.5842   23.5155 Cl  0  0  0  0  0  0  0  0  0  0  0  0
    8.0064   -0.8272   21.4301 H   0  0  0  0  0  0  0  0  0  0  0  0
    5.5575    1.1025   24.3639 H   0  0  0  0  0  0  0  0  0  0  0  0
    7.5195   -2.1481   23.4555 H   0  0  0  0  0  0  0  0  0  0  0  0
   10.3425   -0.3762   20.7639 H   0  0  0  0  0  0  0  0  0  0  0  0
    7.8535    0.1659   24.5264 H   0  0  0  0  0  0  0  0  0  0  0  0
    9.2205   -5.3083   24.4485 H   0  0  0  0  0  0  0  0  0  0  0  0
    4.1056    1.0480   26.3988 H   0  0  0  0  0  0  0  0  0  0  0  0
    7.0384   -0.7637   28.6415 H   0  0  0  0  0  0  0  0  0  0  0  0
    8.7463   -3.4363   28.3387 H   0  0  0  0  0  0  0  0  0  0  0  0
   14.2158    2.0927   23.7745 H   0  0  0  0  0  0  0  0  0  0  0  0
   13.7242    0.9385   25.0116 H   0  0  0  0  0  0  0  0  0  0  0  0
   11.0505    1.4135   21.7166 H   0  0  0  0  0  0  0  0  0  0  0  0
   12.5135    2.3942   21.6760 H   0  0  0  0  0  0  0  0  0  0  0  0
   11.8546    2.3155   25.6895 H   0  0  0  0  0  0  0  0  0  0  0  0
   13.2774    3.3559   25.6425 H   0  0  0  0  0  0  0  0  0  0  0  0
   10.6901    3.8226   22.4376 H   0  0  0  0  0  0  0  0  0  0  0  0
   10.1722    2.6142   23.6019 H   0  0  0  0  0  0  0  0  0  0  0  0
   11.6923    0.3816   23.8130 H   0  0  0  0  0  0  0  0  0  0  0  0
   15.1688   -1.9477   22.1530 H   0  0  0  0  0  0  0  0  0  0  0  0
   14.1567   -3.1665   22.9513 H   0  0  0  0  0  0  0  0  0  0  0  0
   14.9366   -3.5403   21.4106 H   0  0  0  0  0  0  0  0  0  0  0  0
   14.3309   -0.7944   20.0236 H   0  0  0  0  0  0  0  0  0  0  0  0
   12.7375   -1.2131   19.3699 H   0  0  0  0  0  0  0  0  0  0  0  0
   14.0877   -2.3554   19.2325 H   0  0  0  0  0  0  0  0  0  0  0  0
    6.2684   -6.9230   26.1552 H   0  0  0  0  0  0  0  0  0  0  0  0
    5.2528   -6.3285   27.5173 H   0  0  0  0  0  0  0  0  0  0  0  0
    6.2100   -5.1642   26.5331 H   0  0  0  0  0  0  0  0  0  0  0  0
    8.6969   -7.0063   26.4602 H   0  0  0  0  0  0  0  0  0  0  0  0
    9.3936   -6.4518   27.9891 H   0  0  0  0  0  0  0  0  0  0  0  0
   10.4382    5.8074   23.2570 H   0  0  0  0  0  0  0  0  0  0  0  0
   11.8509    5.6557   22.1556 H   0  0  0  0  0  0  0  0  0  0  0  0
   12.5135   -3.0350   21.0647 H   0  0  0  0  0  0  0  0  0  0  0  0
    7.2491   -5.6428   28.6239 H   0  0  0  0  0  0  0  0  0  0  0  0
    7.2668   -7.2562   28.3214 H   0  0  0  0  0  0  0  0  0  0  0  0
  1  3  2  0  0  0  0
  1  4  1  0  0  0  0
  2  5  2  0  0  0  0
  2  7  1  0  0  0  0
  3 10  1  0  0  0  0
  4 12  2  0  0  0  0
  5 14  1  0  0  0  0
  6 11  1  0  0  0  0
  6 15  2  0  0  0  0
  7 29  2  0  0  0  0
  8 14  2  0  0  0  0
  8 29  1  0  0  0  0
  9 11  2  0  0  0  0
  9 30  1  0  0  0  0
 10 13  2  0  0  0  0
 10 15  1  0  0  0  0
 11 26  1  0  0  0  0
 12 13  1  0  0  0  0
 12 32  1  0  0  0  0
 13 38  1  0  0  0  0
 14 39  1  0  0  0  0
 15 30  1  0  0  0  0
 16 22  1  0  0  0  0
 16 32  1  0  0  0  0
 16 34  2  0  0  0  0
 17 27  1  0  0  0  0
 17 31  1  0  0  0  0
 17 35  2  0  0  0  0
 18 20  1  0  0  0  0
 18 22  1  0  0  0  0
 19 21  1  0  0  0  0
 19 22  1  0  0  0  0
 20 31  1  0  0  0  0
 21 31  1  0  0  0  0
 23 28  1  0  0  0  0
 24 28  1  0  0  0  0
 25 33  1  0  0  0  0
 26 33  1  0  0  0  0
 27 40  1  0  0  0  0
 28 32  1  0  0  0  0
 30 39  1  0  0  0  0
 36 39  2  0  0  0  0
 37 39  2  0  0  0  0
  1 41  1  0  0  0  0
  2 42  1  0  0  0  0
  3 43  1  0  0  0  0
  4 44  1  0  0  0  0
  5 45  1  0  0  0  0
  6 46  1  0  0  0  0
  7 47  1  0  0  0  0
  8 48  1  0  0  0  0
  9 49  1  0  0  0  0
 18 50  1  0  0  0  0
 18 51  1  0  0  0  0
 19 52  1  0  0  0  0
 19 53  1  0  0  0  0
 20 54  1  0  0  0  0
 20 55  1  0  0  0  0
 21 56  1  0  0  0  0
 21 57  1  0  0  0  0
 22 58  1  0  0  0  0
 23 59  1  0  0  0  0
 23 60  1  0  0  0  0
 23 61  1  0  0  0  0
 24 62  1  0  0  0  0
 24 63  1  0  0  0  0
 24 64  1  0  0  0  0
 25 65  1  0  0  0  0
 25 66  1  0  0  0  0
 25 67  1  0  0  0  0
 26 68  1  0  0  0  0
 26 69  1  0  0  0  0
 27 70  1  0  0  0  0
 27 71  1  0  0  0  0
 28 72  1  0  0  0  0
 33 73  1  0  0  0  0
 33 74  1  0  0  0  0
M  CHG  1  33   1
M  END
> <creator>
Maksym Voznyy

> <fragments>
x0305

> <real_space>
FALSE

> <SCR>
FALSE

> <BB>
FALSE

> <link>
https://covid.postera.ai/covid/submissions/8fdbca50-c94c-4218-91b0-3b0489774fa8

> <covalent_frag>
FALSE

> <covalent_warhead>
TRUE

> <acrylamide>
FALSE

> <acrylamide_adduct>
FALSE

> <chloroacetamide>
TRUE

> <chloroacetamide_adduct>
FALSE

> <vinylsulfonamide>
FALSE

> <vinylsulfonamide_adduct>
FALSE

> <in_molport_or_mcule>
FALSE

> <in_emolecules>
FALSE

> <Hybrid2>
-0.202656

> <Mpro-x0305_dock>
-0.202656

> <site>
active-noncovalent

> <covalent_distance_min>
10.666473

> <covalent_distance_mean>
11.149717

> <covalent_distance_stderr>
0.053181347

$$$$
MAK-UNK-8fd-6
  -OEChem-04062011563D

 74 77  0     1  0  0  0  0  0999 V2000
   13.7341   -0.5150   19.4988 C   0  0  0  0  0  0  0  0  0  0  0  0
   14.1094   -1.5633   20.3390 C   0  0  0  0  0  0  0  0  0  0  0  0
   13.2129    0.6602   20.0400 C   0  0  0  0  0  0  0  0  0  0  0  0
   13.9635   -1.4363   21.7203 C   0  0  0  0  0  0  0  0  0  0  0  0
   10.4417   -1.4657   24.9379 C   0  0  0  0  0  0  0  0  0  0  0  0
   13.1971    3.1427   22.3754 C   0  0  0  0  0  0  0  0  0  0  0  0
   10.8310   -2.5901   24.2279 C   0  0  0  0  0  0  0  0  0  0  0  0
   10.6555   -1.4915   22.2178 C   0  0  0  0  0  0  0  0  0  0  0  0
   10.9965    3.4606   22.7311 C   0  0  0  0  0  0  0  0  0  0  0  0
   13.0670    0.7872   21.4213 C   0  0  0  0  0  0  0  0  0  0  0  0
   10.1513   -0.3109   24.2199 C   0  0  0  0  0  0  0  0  0  0  0  0
   12.2299    4.0618   22.8518 C   0  0  0  0  0  0  0  0  0  0  0  0
   13.4423   -0.2611   22.2616 C   0  0  0  0  0  0  0  0  0  0  0  0
   10.2577   -0.3157   22.8336 C   0  0  0  0  0  0  0  0  0  0  0  0
   12.5252    2.0079   21.9778 C   0  0  0  0  0  0  0  0  0  0  0  0
    7.7788   -0.5005   25.6297 C   0  0  0  0  0  0  0  0  0  0  0  0
    4.7467   -4.4125   26.8796 C   0  0  0  0  0  0  0  0  0  0  0  0
    5.4670   -0.9571   26.4289 C   0  0  0  0  0  0  0  0  0  0  0  0
    7.4549   -2.1039   27.5227 C   0  0  0  0  0  0  0  0  0  0  0  0
    5.1578   -2.2703   25.7123 C   0  0  0  0  0  0  0  0  0  0  0  0
    7.0722   -3.3881   26.7858 C   0  0  0  0  0  0  0  0  0  0  0  0
    6.9412   -0.8384   26.8285 C   0  0  0  0  0  0  0  0  0  0  0  0
   10.7907    1.4156   25.9527 C   0  0  0  0  0  0  0  0  0  0  0  0
    7.9355    1.8777   26.3815 C   0  0  0  0  0  0  0  0  0  0  0  0
   12.2571    6.9872   25.3060 C   0  0  0  0  0  0  0  0  0  0  0  0
   12.4935    5.4140   23.3804 C   0  0  0  0  0  0  0  0  0  0  0  0
    5.3208   -5.5522   27.6829 C   0  0  0  0  0  0  0  0  0  0  0  0
    9.7239    0.9301   24.9734 C   0  0  2  0  0  0  0  0  0  0  0  0
   10.9458   -2.6329   22.8816 N   0  0  0  0  0  0  0  0  0  0  0  0
   11.1882    2.2125   22.1984 N   0  0  0  0  0  0  0  0  0  0  0  0
    5.6362   -3.4114   26.4917 N   0  0  0  0  0  0  0  0  0  0  0  0
    8.4521    0.7212   25.6609 N   0  0  0  0  0  0  0  0  0  0  0  0
   12.0442    5.6116   24.7930 N   0  3  0  0  0  0  0  0  0  0  0  0
    7.8346   -1.2986   24.6902 O   0  0  0  0  0  0  0  0  0  0  0  0
    3.5433   -4.4129   26.6078 O   0  0  0  0  0  0  0  0  0  0  0  0
   10.0910    0.8042   20.4585 O   0  0  0  0  0  0  0  0  0  0  0  0
    8.7021    1.7136   22.3865 O   0  0  0  0  0  0  0  0  0  0  0  0
   13.3084   -0.1546   23.5918 F   0  0  0  0  0  0  0  0  0  0  0  0
    9.9097    1.0961   21.8699 S   0  0  0  0  0  0  0  0  0  0  0  0
    3.9807   -6.6303   28.0566 Cl  0  0  0  0  0  0  0  0  0  0  0  0
   13.8482   -0.6140   18.4232 H   0  0  0  0  0  0  0  0  0  0  0  0
   14.5157   -2.4781   19.9176 H   0  0  0  0  0  0  0  0  0  0  0  0
   12.9251    1.4682   19.3714 H   0  0  0  0  0  0  0  0  0  0  0  0
   14.2561   -2.2523   22.3746 H   0  0  0  0  0  0  0  0  0  0  0  0
   10.3683   -1.4954   26.0197 H   0  0  0  0  0  0  0  0  0  0  0  0
   14.2674    3.2945   22.3287 H   0  0  0  0  0  0  0  0  0  0  0  0
   11.0680   -3.5163   24.7410 H   0  0  0  0  0  0  0  0  0  0  0  0
   10.7570   -1.5577   21.1389 H   0  0  0  0  0  0  0  0  0  0  0  0
   10.0051    3.8169   22.9788 H   0  0  0  0  0  0  0  0  0  0  0  0
    5.1764   -0.1183   25.7849 H   0  0  0  0  0  0  0  0  0  0  0  0
    4.8471   -0.8936   27.3324 H   0  0  0  0  0  0  0  0  0  0  0  0
    7.0369   -2.1451   28.5369 H   0  0  0  0  0  0  0  0  0  0  0  0
    8.5455   -2.0628   27.6306 H   0  0  0  0  0  0  0  0  0  0  0  0
    4.0807   -2.3448   25.5319 H   0  0  0  0  0  0  0  0  0  0  0  0
    5.6531   -2.3073   24.7351 H   0  0  0  0  0  0  0  0  0  0  0  0
    7.6000   -3.4584   25.8279 H   0  0  0  0  0  0  0  0  0  0  0  0
    7.3823   -4.2491   27.3808 H   0  0  0  0  0  0  0  0  0  0  0  0
    7.0510    0.0108   27.5145 H   0  0  0  0  0  0  0  0  0  0  0  0
   11.0219    0.6463   26.6976 H   0  0  0  0  0  0  0  0  0  0  0  0
   11.7166    1.6620   25.4207 H   0  0  0  0  0  0  0  0  0  0  0  0
   10.4763    2.3194   26.4866 H   0  0  0  0  0  0  0  0  0  0  0  0
    8.3150    1.8666   27.4140 H   0  0  0  0  0  0  0  0  0  0  0  0
    8.2652    2.7995   25.8798 H   0  0  0  0  0  0  0  0  0  0  0  0
    6.8362    1.8404   26.3946 H   0  0  0  0  0  0  0  0  0  0  0  0
   11.7199    7.6750   24.6503 H   0  0  0  0  0  0  0  0  0  0  0  0
   11.8653    7.0286   26.3240 H   0  0  0  0  0  0  0  0  0  0  0  0
   13.3301    7.1874   25.2899 H   0  0  0  0  0  0  0  0  0  0  0  0
   13.5688    5.6660   23.3740 H   0  0  0  0  0  0  0  0  0  0  0  0
   11.9846    6.2006   22.7953 H   0  0  0  0  0  0  0  0  0  0  0  0
    5.7472   -5.1574   28.5980 H   0  0  0  0  0  0  0  0  0  0  0  0
    6.0585   -6.0700   27.0807 H   0  0  0  0  0  0  0  0  0  0  0  0
    9.5366    1.7392   24.2568 H   0  0  0  0  0  0  0  0  0  0  0  0
   12.5396    4.9413   25.3921 H   0  0  0  0  0  0  0  0  0  0  0  0
   11.0482    5.3715   24.8578 H   0  0  0  0  0  0  0  0  0  0  0  0
  1  2  1  0  0  0  0
  1  3  2  0  0  0  0
  2  4  2  0  0  0  0
  3 10  1  0  0  0  0
  4 13  1  0  0  0  0
  5  7  2  0  0  0  0
  5 11  1  0  0  0  0
  6 12  1  0  0  0  0
  6 15  2  0  0  0  0
  7 29  1  0  0  0  0
  8 14  1  0  0  0  0
  8 29  2  0  0  0  0
  9 12  2  0  0  0  0
  9 30  1  0  0  0  0
 10 13  2  0  0  0  0
 10 15  1  0  0  0  0
 11 14  2  0  0  0  0
 11 28  1  0  0  0  0
 12 26  1  0  0  0  0
 13 38  1  0  0  0  0
 14 39  1  0  0  0  0
 15 30  1  0  0  0  0
 16 22  1  0  0  0  0
 16 32  1  0  0  0  0
 16 34  2  0  0  0  0
 17 27  1  0  0  0  0
 17 31  1  0  0  0  0
 17 35  2  0  0  0  0
 18 20  1  0  0  0  0
 18 22  1  0  0  0  0
 19 21  1  0  0  0  0
 19 22  1  0  0  0  0
 20 31  1  0  0  0  0
 21 31  1  0  0  0  0
 23 28  1  0  0  0  0
 24 32  1  0  0  0  0
 25 33  1  0  0  0  0
 26 33  1  0  0  0  0
 27 40  1  0  0  0  0
 28 32  1  0  0  0  0
 30 39  1  0  0  0  0
 36 39  2  0  0  0  0
 37 39  2  0  0  0  0
  1 41  1  0  0  0  0
  2 42  1  0  0  0  0
  3 43  1  0  0  0  0
  4 44  1  0  0  0  0
  5 45  1  0  0  0  0
  6 46  1  0  0  0  0
  7 47  1  0  0  0  0
  8 48  1  0  0  0  0
  9 49  1  0  0  0  0
 18 50  1  0  0  0  0
 18 51  1  0  0  0  0
 19 52  1  0  0  0  0
 19 53  1  0  0  0  0
 20 54  1  0  0  0  0
 20 55  1  0  0  0  0
 21 56  1  0  0  0  0
 21 57  1  0  0  0  0
 22 58  1  0  0  0  0
 23 59  1  0  0  0  0
 23 60  1  0  0  0  0
 23 61  1  0  0  0  0
 24 62  1  0  0  0  0
 24 63  1  0  0  0  0
 24 64  1  0  0  0  0
 25 65  1  0  0  0  0
 25 66  1  0  0  0  0
 25 67  1  0  0  0  0
 26 68  1  0  0  0  0
 26 69  1  0  0  0  0
 27 70  1  0  0  0  0
 27 71  1  0  0  0  0
 28 72  1  0  0  0  0
 33 73  1  0  0  0  0
 33 74  1  0  0  0  0
M  CHG  1  33   1
M  END
> <creator>
Maksym Voznyy

> <fragments>
x0305

> <real_space>
FALSE

> <SCR>
FALSE

> <BB>
FALSE

> <link>
https://covid.postera.ai/covid/submissions/8fdbca50-c94c-4218-91b0-3b0489774fa8

> <covalent_frag>
FALSE

> <covalent_warhead>
TRUE

> <acrylamide>
FALSE

> <acrylamide_adduct>
FALSE

> <chloroacetamide>
TRUE

> <chloroacetamide_adduct>
FALSE

> <vinylsulfonamide>
FALSE

> <vinylsulfonamide_adduct>
FALSE

> <in_molport_or_mcule>
FALSE

> <in_emolecules>
FALSE

> <Hybrid2>
-0.173815

> <Mpro-x0305_dock>
-0.173815

> <site>
active-noncovalent

> <covalent_distance_min>
10.914884

> <covalent_distance_mean>
11.713291

> <covalent_distance_stderr>
0.05105082

$$$$
MAK-UNK-8fd-8
  -OEChem-04062011563D

 74 77  0     1  0  0  0  0  0999 V2000
    3.7374    0.4401   26.3315 C   0  0  0  0  0  0  0  0  0  0  0  0
    4.0961    0.9583   25.0872 C   0  0  0  0  0  0  0  0  0  0  0  0
    4.4741   -0.6040   26.8909 C   0  0  0  0  0  0  0  0  0  0  0  0
    5.1915    0.4324   24.4022 C   0  0  0  0  0  0  0  0  0  0  0  0
   10.5942   -0.5008   27.0418 C   0  0  0  0  0  0  0  0  0  0  0  0
   11.5252   -0.1618   26.0662 C   0  0  0  0  0  0  0  0  0  0  0  0
    6.1363   -3.5701   26.6528 C   0  0  0  0  0  0  0  0  0  0  0  0
    8.9315    0.6347   25.7758 C   0  0  0  0  0  0  0  0  0  0  0  0
    7.9122   -3.2399   27.9971 C   0  0  0  0  0  0  0  0  0  0  0  0
    5.5695   -1.1298   26.2059 C   0  0  0  0  0  0  0  0  0  0  0  0
    7.1374   -4.2196   27.4165 C   0  0  0  0  0  0  0  0  0  0  0  0
    5.9282   -0.6117   24.9615 C   0  0  0  0  0  0  0  0  0  0  0  0
    9.2706   -0.0988   26.9013 C   0  0  0  0  0  0  0  0  0  0  0  0
    6.3301   -2.2132   26.7899 C   0  0  0  0  0  0  0  0  0  0  0  0
   11.0851    0.5744   24.9780 C   0  0  0  0  0  0  0  0  0  0  0  0
   11.1439   -0.5308   22.1173 C   0  0  0  0  0  0  0  0  0  0  0  0
    8.1015   -4.5544   22.9011 C   0  0  0  0  0  0  0  0  0  0  0  0
   11.2468   -2.8902   22.9008 C   0  0  0  0  0  0  0  0  0  0  0  0
    9.9693   -2.2932   20.7854 C   0  0  0  0  0  0  0  0  0  0  0  0
    9.9065   -3.0236   23.6217 C   0  0  0  0  0  0  0  0  0  0  0  0
    8.6667   -2.4639   21.5683 C   0  0  0  0  0  0  0  0  0  0  0  0
   11.1688   -1.9667   21.6809 C   0  0  0  0  0  0  0  0  0  0  0  0
   11.7095    2.2864   23.2255 C   0  0  0  0  0  0  0  0  0  0  0  0
   13.5477   -0.6692   22.7871 C   0  0  0  0  0  0  0  0  0  0  0  0
    5.8878   -5.9298   29.5959 C   0  0  0  0  0  0  0  0  0  0  0  0
    7.3179   -5.6766   27.5638 C   0  0  0  0  0  0  0  0  0  0  0  0
    7.0319   -4.8684   21.8856 C   0  0  0  0  0  0  0  0  0  0  0  0
   12.0710    0.9634   23.8975 C   0  0  2  0  0  0  0  0  0  0  0  0
    9.8078    0.9830   24.8071 N   0  0  0  0  0  0  0  0  0  0  0  0
    7.4124   -2.0243   27.6090 N   0  0  0  0  0  0  0  0  0  0  0  0
    8.8484   -3.3972   22.6841 N   0  0  0  0  0  0  0  0  0  0  0  0
   12.2125   -0.0966   22.9025 N   0  0  0  0  0  0  0  0  0  0  0  0
    7.2150   -6.1612   28.9748 N   0  3  0  0  0  0  0  0  0  0  0  0
   10.2019    0.1872   21.7713 O   0  0  0  0  0  0  0  0  0  0  0  0
    8.2680   -5.3170   23.8565 O   0  0  0  0  0  0  0  0  0  0  0  0
    8.7141   -0.8289   29.3671 O   0  0  0  0  0  0  0  0  0  0  0  0
    6.9870    0.4509   28.0062 O   0  0  0  0  0  0  0  0  0  0  0  0
    6.9788   -1.1061   24.2903 F   0  0  0  0  0  0  0  0  0  0  0  0
    8.0768   -0.5048   28.1012 S   0  0  0  0  0  0  0  0  0  0  0  0
    5.5506   -4.1149   22.4650 Cl  0  0  0  0  0  0  0  0  0  0  0  0
    2.8846    0.8500   26.8649 H   0  0  0  0  0  0  0  0  0  0  0  0
    3.5228    1.7716   24.6519 H   0  0  0  0  0  0  0  0  0  0  0  0
    4.1816   -0.9968   27.8618 H   0  0  0  0  0  0  0  0  0  0  0  0
    5.4711    0.8361   23.4335 H   0  0  0  0  0  0  0  0  0  0  0  0
   10.9104   -1.0766   27.9073 H   0  0  0  0  0  0  0  0  0  0  0  0
   12.5610   -0.4687   26.1647 H   0  0  0  0  0  0  0  0  0  0  0  0
    5.3591   -4.0432   26.0673 H   0  0  0  0  0  0  0  0  0  0  0  0
    7.9144    0.9770   25.6117 H   0  0  0  0  0  0  0  0  0  0  0  0
    8.7726   -3.3084   28.6500 H   0  0  0  0  0  0  0  0  0  0  0  0
   12.0016   -2.5266   23.6084 H   0  0  0  0  0  0  0  0  0  0  0  0
   11.5720   -3.8860   22.5732 H   0  0  0  0  0  0  0  0  0  0  0  0
   10.1760   -3.2251   20.2436 H   0  0  0  0  0  0  0  0  0  0  0  0
    9.8344   -1.5101   20.0296 H   0  0  0  0  0  0  0  0  0  0  0  0
    9.9944   -3.7615   24.4255 H   0  0  0  0  0  0  0  0  0  0  0  0
    9.6166   -2.0733   24.0849 H   0  0  0  0  0  0  0  0  0  0  0  0
    8.3420   -1.5081   21.9954 H   0  0  0  0  0  0  0  0  0  0  0  0
    7.8785   -2.7888   20.8868 H   0  0  0  0  0  0  0  0  0  0  0  0
   12.0894   -2.0816   21.0951 H   0  0  0  0  0  0  0  0  0  0  0  0
   10.7196    2.2346   22.7592 H   0  0  0  0  0  0  0  0  0  0  0  0
   11.6964    3.0993   23.9603 H   0  0  0  0  0  0  0  0  0  0  0  0
   12.4336    2.5644   22.4513 H   0  0  0  0  0  0  0  0  0  0  0  0
   14.1252   -0.1064   22.0390 H   0  0  0  0  0  0  0  0  0  0  0  0
   14.0561   -0.6128   23.7609 H   0  0  0  0  0  0  0  0  0  0  0  0
   13.4697   -1.7210   22.4745 H   0  0  0  0  0  0  0  0  0  0  0  0
    5.1389   -6.4311   28.9801 H   0  0  0  0  0  0  0  0  0  0  0  0
    5.9126   -6.3495   30.6034 H   0  0  0  0  0  0  0  0  0  0  0  0
    5.7153   -4.8522   29.6237 H   0  0  0  0  0  0  0  0  0  0  0  0
    6.5653   -6.2533   26.9973 H   0  0  0  0  0  0  0  0  0  0  0  0
    8.3062   -6.0160   27.2058 H   0  0  0  0  0  0  0  0  0  0  0  0
    6.9053   -5.9436   21.8296 H   0  0  0  0  0  0  0  0  0  0  0  0
    7.3178   -4.4421   20.9309 H   0  0  0  0  0  0  0  0  0  0  0  0
   13.0667    1.0773   24.3434 H   0  0  0  0  0  0  0  0  0  0  0  0
    7.9411   -5.6996   29.5345 H   0  0  0  0  0  0  0  0  0  0  0  0
    7.4329   -7.1642   28.9946 H   0  0  0  0  0  0  0  0  0  0  0  0
  1  2  1  0  0  0  0
  1  3  2  0  0  0  0
  2  4  2  0  0  0  0
  3 10  1  0  0  0  0
  4 12  1  0  0  0  0
  5  6  2  0  0  0  0
  5 13  1  0  0  0  0
  6 15  1  0  0  0  0
  7 11  1  0  0  0  0
  7 14  2  0  0  0  0
  8 13  2  0  0  0  0
  8 29  1  0  0  0  0
  9 11  2  0  0  0  0
  9 30  1  0  0  0  0
 10 12  2  0  0  0  0
 10 14  1  0  0  0  0
 11 26  1  0  0  0  0
 12 38  1  0  0  0  0
 13 39  1  0  0  0  0
 14 30  1  0  0  0  0
 15 28  1  0  0  0  0
 15 29  2  0  0  0  0
 16 22  1  0  0  0  0
 16 32  1  0  0  0  0
 16 34  2  0  0  0  0
 17 27  1  0  0  0  0
 17 31  1  0  0  0  0
 17 35  2  0  0  0  0
 18 20  1  0  0  0  0
 18 22  1  0  0  0  0
 19 21  1  0  0  0  0
 19 22  1  0  0  0  0
 20 31  1  0  0  0  0
 21 31  1  0  0  0  0
 23 28  1  0  0  0  0
 24 32  1  0  0  0  0
 25 33  1  0  0  0  0
 26 33  1  0  0  0  0
 27 40  1  0  0  0  0
 28 32  1  0  0  0  0
 30 39  1  0  0  0  0
 36 39  2  0  0  0  0
 37 39  2  0  0  0  0
  1 41  1  0  0  0  0
  2 42  1  0  0  0  0
  3 43  1  0  0  0  0
  4 44  1  0  0  0  0
  5 45  1  0  0  0  0
  6 46  1  0  0  0  0
  7 47  1  0  0  0  0
  8 48  1  0  0  0  0
  9 49  1  0  0  0  0
 18 50  1  0  0  0  0
 18 51  1  0  0  0  0
 19 52  1  0  0  0  0
 19 53  1  0  0  0  0
 20 54  1  0  0  0  0
 20 55  1  0  0  0  0
 21 56  1  0  0  0  0
 21 57  1  0  0  0  0
 22 58  1  0  0  0  0
 23 59  1  0  0  0  0
 23 60  1  0  0  0  0
 23 61  1  0  0  0  0
 24 62  1  0  0  0  0
 24 63  1  0  0  0  0
 24 64  1  0  0  0  0
 25 65  1  0  0  0  0
 25 66  1  0  0  0  0
 25 67  1  0  0  0  0
 26 68  1  0  0  0  0
 26 69  1  0  0  0  0
 27 70  1  0  0  0  0
 27 71  1  0  0  0  0
 28 72  1  0  0  0  0
 33 73  1  0  0  0  0
 33 74  1  0  0  0  0
M  CHG  1  33   1
M  END
> <creator>
Maksym Voznyy

> <fragments>
x0305

> <real_space>
FALSE

> <SCR>
FALSE

> <BB>
FALSE

> <link>
https://covid.postera.ai/covid/submissions/8fdbca50-c94c-4218-91b0-3b0489774fa8

> <covalent_frag>
FALSE

> <covalent_warhead>
TRUE

> <acrylamide>
FALSE

> <acrylamide_adduct>
FALSE

> <chloroacetamide>
TRUE

> <chloroacetamide_adduct>
FALSE

> <vinylsulfonamide>
FALSE

> <vinylsulfonamide_adduct>
FALSE

> <in_molport_or_mcule>
FALSE

> <in_emolecules>
FALSE

> <Hybrid2>
-0.056872

> <Mpro-x0305_dock>
-0.056872

> <site>
active-noncovalent

> <covalent_distance_min>
4.497823

> <covalent_distance_mean>
5.390909

> <covalent_distance_stderr>
0.05191065

$$$$
MAK-UNK-8fd-39
  -OEChem-04062011563D

 76 79  0     1  0  0  0  0  0999 V2000
   12.2951    1.8576   23.6792 C   0  0  0  0  0  0  0  0  0  0  0  0
   13.5639    1.7976   23.1029 C   0  0  0  0  0  0  0  0  0  0  0  0
    6.3183    0.5640   21.2587 C   0  0  0  0  0  0  0  0  0  0  0  0
   11.4939    0.7165   23.7220 C   0  0  0  0  0  0  0  0  0  0  0  0
   14.0316    0.5967   22.5694 C   0  0  0  0  0  0  0  0  0  0  0  0
    7.3197   -0.3611   20.9854 C   0  0  0  0  0  0  0  0  0  0  0  0
   11.0522   -2.6266   24.2181 C   0  0  0  0  0  0  0  0  0  0  0  0
    6.6987    1.8157   21.7151 C   0  0  0  0  0  0  0  0  0  0  0  0
    8.9280    1.2664   21.6341 C   0  0  0  0  0  0  0  0  0  0  0  0
    9.6052   -3.1731   22.5818 C   0  0  0  0  0  0  0  0  0  0  0  0
   11.9616   -0.4844   23.1885 C   0  0  0  0  0  0  0  0  0  0  0  0
   10.0897   -3.5806   23.8052 C   0  0  0  0  0  0  0  0  0  0  0  0
   13.2304   -0.5444   22.6122 C   0  0  0  0  0  0  0  0  0  0  0  0
    8.6521   -0.0111   21.1741 C   0  0  0  0  0  0  0  0  0  0  0  0
   11.1265   -1.6650   23.2346 C   0  0  0  0  0  0  0  0  0  0  0  0
    7.8798   -4.3227   25.9174 C   0  0  0  0  0  0  0  0  0  0  0  0
    8.6162    1.2270   26.1133 C   0  0  0  0  0  0  0  0  0  0  0  0
    6.6558   -1.8272   26.0366 C   0  0  0  0  0  0  0  0  0  0  0  0
    8.3570   -1.8676   27.8952 C   0  0  0  0  0  0  0  0  0  0  0  0
    6.5877   -0.3063   26.1651 C   0  0  0  0  0  0  0  0  0  0  0  0
    8.2527   -0.3470   27.9871 C   0  0  0  0  0  0  0  0  0  0  0  0
    7.0518   -2.4830   27.3683 C   0  0  0  0  0  0  0  0  0  0  0  0
    4.3513   -6.4335   26.5275 C   0  0  0  0  0  0  0  0  0  0  0  0
    6.7241   -6.8812   27.2648 C   0  0  0  0  0  0  0  0  0  0  0  0
    5.2263   -4.6604   28.5897 C   0  0  0  0  0  0  0  0  0  0  0  0
    9.6729   -4.8110   24.5612 C   0  0  0  0  0  0  0  0  0  0  0  0
    8.1061    1.7949   24.8129 C   0  0  0  0  0  0  0  0  0  0  0  0
    7.1893   -3.9953   27.2095 C   0  0  1  0  0  0  0  0  0  0  0  0
    5.7883   -5.9374   26.5268 C   0  0  0  0  0  0  0  0  0  0  0  0
    7.9823    2.1921   21.9105 N   0  0  0  0  0  0  0  0  0  0  0  0
    9.1565   -4.4853   25.8870 N   0  0  0  0  0  0  0  0  0  0  0  0
   10.2424   -2.0074   22.2450 N   0  0  0  0  0  0  0  0  0  0  0  0
    7.8444    0.2271   26.7040 N   0  0  0  0  0  0  0  0  0  0  0  0
    5.8302   -4.5921   27.2087 N   0  3  1  0  0  0  0  0  0  0  0  0
    9.6704    1.6586   26.5870 O   0  0  0  0  0  0  0  0  0  0  0  0
    9.4610   -2.1559   19.8825 O   0  0  0  0  0  0  0  0  0  0  0  0
   11.1424   -0.3597   20.5303 O   0  0  0  0  0  0  0  0  0  0  0  0
   13.6946   -1.6914   22.0950 F   0  0  0  0  0  0  0  0  0  0  0  0
    9.9572   -1.1644   20.8362 S   0  0  0  0  0  0  0  0  0  0  0  0
    7.0415    3.1328   25.2307 Cl  0  0  0  0  0  0  0  0  0  0  0  0
   11.9314    2.7927   24.0949 H   0  0  0  0  0  0  0  0  0  0  0  0
   14.1880    2.6859   23.0701 H   0  0  0  0  0  0  0  0  0  0  0  0
    5.2730    0.3132   21.1190 H   0  0  0  0  0  0  0  0  0  0  0  0
   10.5072    0.7798   24.1747 H   0  0  0  0  0  0  0  0  0  0  0  0
   15.0197    0.5498   22.1211 H   0  0  0  0  0  0  0  0  0  0  0  0
    7.0516   -1.3508   20.6262 H   0  0  0  0  0  0  0  0  0  0  0  0
   11.6278   -2.6417   25.1342 H   0  0  0  0  0  0  0  0  0  0  0  0
    5.9558    2.5731   21.9427 H   0  0  0  0  0  0  0  0  0  0  0  0
    9.9484    1.5975   21.8005 H   0  0  0  0  0  0  0  0  0  0  0  0
    8.8640   -3.6144   21.9283 H   0  0  0  0  0  0  0  0  0  0  0  0
    7.2481   -4.4164   25.0152 H   0  0  0  0  0  0  0  0  0  0  0  0
    5.6798   -2.2068   25.7119 H   0  0  0  0  0  0  0  0  0  0  0  0
    7.3783   -2.0931   25.2543 H   0  0  0  0  0  0  0  0  0  0  0  0
    9.1937   -2.1351   27.2370 H   0  0  0  0  0  0  0  0  0  0  0  0
    8.5877   -2.2759   28.8864 H   0  0  0  0  0  0  0  0  0  0  0  0
    6.3407    0.1275   25.1947 H   0  0  0  0  0  0  0  0  0  0  0  0
    5.7901   -0.0179   26.8602 H   0  0  0  0  0  0  0  0  0  0  0  0
    7.4997   -0.0579   28.7297 H   0  0  0  0  0  0  0  0  0  0  0  0
    9.2106    0.0691   28.3142 H   0  0  0  0  0  0  0  0  0  0  0  0
    6.2566   -2.2895   28.1005 H   0  0  0  0  0  0  0  0  0  0  0  0
    4.0009   -6.5966   27.5520 H   0  0  0  0  0  0  0  0  0  0  0  0
    3.6767   -5.7134   26.0511 H   0  0  0  0  0  0  0  0  0  0  0  0
    4.2641   -7.3836   25.9892 H   0  0  0  0  0  0  0  0  0  0  0  0
    6.3759   -7.0448   28.2901 H   0  0  0  0  0  0  0  0  0  0  0  0
    7.7426   -6.4809   27.3147 H   0  0  0  0  0  0  0  0  0  0  0  0
    6.7693   -7.8564   26.7681 H   0  0  0  0  0  0  0  0  0  0  0  0
    5.8575   -5.3104   29.1984 H   0  0  0  0  0  0  0  0  0  0  0  0
    5.2012   -3.6467   28.9940 H   0  0  0  0  0  0  0  0  0  0  0  0
    4.2188   -5.0698   28.4938 H   0  0  0  0  0  0  0  0  0  0  0  0
    8.9100   -5.3598   23.9967 H   0  0  0  0  0  0  0  0  0  0  0  0
   10.5243   -5.4928   24.6673 H   0  0  0  0  0  0  0  0  0  0  0  0
    7.5498    1.0267   24.2880 H   0  0  0  0  0  0  0  0  0  0  0  0
    8.9477    2.1558   24.2329 H   0  0  0  0  0  0  0  0  0  0  0  0
    7.7256   -4.4243   28.0579 H   0  0  0  0  0  0  0  0  0  0  0  0
    6.1375   -5.7747   25.5020 H   0  0  0  0  0  0  0  0  0  0  0  0
    5.2134   -3.9720   26.6567 H   0  0  0  0  0  0  0  0  0  0  0  0
  1  2  1  0  0  0  0
  1  4  2  0  0  0  0
  2  5  2  0  0  0  0
  3  6  2  0  0  0  0
  3  8  1  0  0  0  0
  4 11  1  0  0  0  0
  5 13  1  0  0  0  0
  6 14  1  0  0  0  0
  7 12  1  0  0  0  0
  7 15  2  0  0  0  0
  8 30  2  0  0  0  0
  9 14  2  0  0  0  0
  9 30  1  0  0  0  0
 10 12  2  0  0  0  0
 10 32  1  0  0  0  0
 11 13  2  0  0  0  0
 11 15  1  0  0  0  0
 12 26  1  0  0  0  0
 13 38  1  0  0  0  0
 14 39  1  0  0  0  0
 15 32  1  0  0  0  0
 16 28  1  0  0  0  0
 16 31  2  0  0  0  0
 17 27  1  0  0  0  0
 17 33  1  0  0  0  0
 17 35  2  0  0  0  0
 18 20  1  0  0  0  0
 18 22  1  0  0  0  0
 19 21  1  0  0  0  0
 19 22  1  0  0  0  0
 20 33  1  0  0  0  0
 21 33  1  0  0  0  0
 22 28  1  0  0  0  0
 23 29  1  0  0  0  0
 24 29  1  0  0  0  0
 25 34  1  0  0  0  0
 26 31  1  0  0  0  0
 27 40  1  0  0  0  0
 28 34  1  0  0  0  0
 29 34  1  0  0  0  0
 32 39  1  0  0  0  0
 36 39  2  0  0  0  0
 37 39  2  0  0  0  0
  1 41  1  0  0  0  0
  2 42  1  0  0  0  0
  3 43  1  0  0  0  0
  4 44  1  0  0  0  0
  5 45  1  0  0  0  0
  6 46  1  0  0  0  0
  7 47  1  0  0  0  0
  8 48  1  0  0  0  0
  9 49  1  0  0  0  0
 10 50  1  0  0  0  0
 16 51  1  0  0  0  0
 18 52  1  0  0  0  0
 18 53  1  0  0  0  0
 19 54  1  0  0  0  0
 19 55  1  0  0  0  0
 20 56  1  0  0  0  0
 20 57  1  0  0  0  0
 21 58  1  0  0  0  0
 21 59  1  0  0  0  0
 22 60  1  0  0  0  0
 23 61  1  0  0  0  0
 23 62  1  0  0  0  0
 23 63  1  0  0  0  0
 24 64  1  0  0  0  0
 24 65  1  0  0  0  0
 24 66  1  0  0  0  0
 25 67  1  0  0  0  0
 25 68  1  0  0  0  0
 25 69  1  0  0  0  0
 26 70  1  0  0  0  0
 26 71  1  0  0  0  0
 27 72  1  0  0  0  0
 27 73  1  0  0  0  0
 28 74  1  0  0  0  0
 29 75  1  0  0  0  0
 34 76  1  0  0  0  0
M  CHG  1  34   1
M  END
> <creator>
Maksym Voznyy

> <fragments>
x0305

> <real_space>
FALSE

> <SCR>
FALSE

> <BB>
FALSE

> <link>
https://covid.postera.ai/covid/submissions/8fdbca50-c94c-4218-91b0-3b0489774fa8

> <covalent_frag>
FALSE

> <covalent_warhead>
TRUE

> <acrylamide>
FALSE

> <acrylamide_adduct>
FALSE

> <chloroacetamide>
TRUE

> <chloroacetamide_adduct>
FALSE

> <vinylsulfonamide>
FALSE

> <vinylsulfonamide_adduct>
FALSE

> <in_molport_or_mcule>
FALSE

> <in_emolecules>
FALSE

> <Hybrid2>
-0.024756

> <Mpro-x0305_dock>
-0.024756

> <site>
active-noncovalent

> <covalent_distance_min>
10.076428

> <covalent_distance_mean>
11.33152

> <covalent_distance_stderr>
0.06227997

$$$$
INS-INS-8db-1
  -OEChem-04062011563D

 64 68  0     1  0  0  0  0  0999 V2000
    8.4111   -2.0053   21.1353 C   0  0  0  0  0  0  0  0  0  0  0  0
    7.5299   -4.4630   26.5036 C   0  0  0  0  0  0  0  0  0  0  0  0
    7.2794   -1.4806   20.5103 C   0  0  0  0  0  0  0  0  0  0  0  0
    6.5971   -3.4270   26.4568 C   0  0  0  0  0  0  0  0  0  0  0  0
   12.0825   -6.1623   25.4135 C   0  0  0  0  0  0  0  0  0  0  0  0
    9.4494   -3.7029   22.5644 C   0  0  0  0  0  0  0  0  0  0  0  0
    5.9365   -3.2516   21.4526 C   0  0  0  0  0  0  0  0  0  0  0  0
    8.1065   -5.4738   23.5069 C   0  0  0  0  0  0  0  0  0  0  0  0
    9.3166   -2.8688   26.1821 C   0  0  0  0  0  0  0  0  0  0  0  0
   12.5647   -6.2772   24.1284 C   0  0  0  0  0  0  0  0  0  0  0  0
    8.3209   -3.1610   21.9280 C   0  0  0  0  0  0  0  0  0  0  0  0
    7.0651   -3.7935   22.0891 C   0  0  0  0  0  0  0  0  0  0  0  0
    9.3414   -4.8519   23.3485 C   0  0  0  0  0  0  0  0  0  0  0  0
    8.8897   -4.1839   26.3664 C   0  0  0  0  0  0  0  0  0  0  0  0
   10.7832   -5.6040   25.3295 C   0  0  0  0  0  0  0  0  0  0  0  0
    6.0446   -2.1026   20.6687 C   0  0  0  0  0  0  0  0  0  0  0  0
    7.0241   -2.1119   26.2726 C   0  0  0  0  0  0  0  0  0  0  0  0
    6.9748   -4.9492   22.8819 C   0  0  0  0  0  0  0  0  0  0  0  0
    8.3838   -1.8328   26.1353 C   0  0  0  0  0  0  0  0  0  0  0  0
   10.5108   -5.3948   23.9955 C   0  0  0  0  0  0  0  0  0  0  0  0
    9.8949   -5.3015   26.4166 C   0  0  0  0  0  0  0  0  0  0  0  0
    5.0512   -6.1454   21.9536 C   0  0  0  0  0  0  0  0  0  0  0  0
    3.8829   -5.2376   24.6249 C   0  0  0  0  0  0  0  0  0  0  0  0
    3.3924   -5.7644   25.9685 C   0  0  0  0  0  0  0  0  0  0  0  0
    5.0736   -7.3702   24.6608 C   0  0  0  0  0  0  0  0  0  0  0  0
    5.2552   -5.8761   24.3962 C   0  0  1  0  0  0  0  0  0  0  0  0
    4.8363   -1.5397   19.9993 C   0  0  0  0  0  0  0  0  0  0  0  0
    5.9925   -1.0311   26.2278 C   0  0  0  0  0  0  0  0  0  0  0  0
    5.8863   -6.4592   20.7248 C   0  0  0  0  0  0  0  0  0  0  0  0
   11.6008   -5.8080   23.2747 N   0  0  0  0  0  0  0  0  0  0  0  0
    5.7591   -5.6164   23.0766 N   0  0  0  0  0  0  0  0  0  0  0  0
    9.9205   -5.9683   27.4728 O   0  0  0  0  0  0  0  0  0  0  0  0
    3.8324   -6.3354   21.9389 O   0  0  0  0  0  0  0  0  0  0  0  0
    4.6783   -7.6726   27.2520 O   0  0  0  0  0  0  0  0  0  0  0  0
    2.8222   -8.3198   25.6480 O   0  0  0  0  0  0  0  0  0  0  0  0
    3.9289   -7.4676   26.0300 S   0  0  0  0  0  0  0  0  0  0  0  0
    8.9482   -0.2175   25.9073 Cl  0  0  0  0  0  0  0  0  0  0  0  0
    7.1094   -7.6865   21.1158 Cl  0  0  0  0  0  0  0  0  0  0  0  0
    9.3662   -1.5028   20.9968 H   0  0  0  0  0  0  0  0  0  0  0  0
    7.1861   -5.4842   26.6471 H   0  0  0  0  0  0  0  0  0  0  0  0
    7.3723   -0.5848   19.9020 H   0  0  0  0  0  0  0  0  0  0  0  0
    5.5402   -3.6558   26.5644 H   0  0  0  0  0  0  0  0  0  0  0  0
   12.6140   -6.4508   26.3101 H   0  0  0  0  0  0  0  0  0  0  0  0
   10.4191   -3.2207   22.4444 H   0  0  0  0  0  0  0  0  0  0  0  0
    4.9571   -3.7145   21.5571 H   0  0  0  0  0  0  0  0  0  0  0  0
    8.0202   -6.3704   24.1186 H   0  0  0  0  0  0  0  0  0  0  0  0
   10.3786   -2.6569   26.0756 H   0  0  0  0  0  0  0  0  0  0  0  0
   13.5047   -6.6499   23.7465 H   0  0  0  0  0  0  0  0  0  0  0  0
    3.1766   -5.4578   23.8226 H   0  0  0  0  0  0  0  0  0  0  0  0
    3.9977   -4.1507   24.6792 H   0  0  0  0  0  0  0  0  0  0  0  0
    3.8150   -5.2144   26.8118 H   0  0  0  0  0  0  0  0  0  0  0  0
    2.3002   -5.7528   26.0260 H   0  0  0  0  0  0  0  0  0  0  0  0
    4.6814   -7.9234   23.8064 H   0  0  0  0  0  0  0  0  0  0  0  0
    6.0146   -7.8184   24.9897 H   0  0  0  0  0  0  0  0  0  0  0  0
    5.9921   -5.4604   25.1111 H   0  0  0  0  0  0  0  0  0  0  0  0
    4.7141   -1.9776   19.0011 H   0  0  0  0  0  0  0  0  0  0  0  0
    3.9280   -1.7417   20.5815 H   0  0  0  0  0  0  0  0  0  0  0  0
    4.9106   -0.4495   19.8945 H   0  0  0  0  0  0  0  0  0  0  0  0
    5.8097   -0.6402   27.2349 H   0  0  0  0  0  0  0  0  0  0  0  0
    6.3144   -0.2041   25.5837 H   0  0  0  0  0  0  0  0  0  0  0  0
    5.0459   -1.4052   25.8196 H   0  0  0  0  0  0  0  0  0  0  0  0
    5.2467   -6.8556   19.9322 H   0  0  0  0  0  0  0  0  0  0  0  0
    6.4281   -5.5755   20.3797 H   0  0  0  0  0  0  0  0  0  0  0  0
   11.6860   -5.7740   22.2678 H   0  0  0  0  0  0  0  0  0  0  0  0
  1  3  2  0  0  0  0
  1 11  1  0  0  0  0
  2  4  2  0  0  0  0
  2 14  1  0  0  0  0
  3 16  1  0  0  0  0
  4 17  1  0  0  0  0
  5 10  2  0  0  0  0
  5 15  1  0  0  0  0
  6 11  1  0  0  0  0
  6 13  2  0  0  0  0
  7 12  1  0  0  0  0
  7 16  2  0  0  0  0
  8 13  1  0  0  0  0
  8 18  2  0  0  0  0
  9 14  2  0  0  0  0
  9 19  1  0  0  0  0
 10 30  1  0  0  0  0
 11 12  2  0  0  0  0
 12 18  1  0  0  0  0
 13 20  1  0  0  0  0
 14 21  1  0  0  0  0
 15 20  2  0  0  0  0
 15 21  1  0  0  0  0
 16 27  1  0  0  0  0
 17 19  2  0  0  0  0
 17 28  1  0  0  0  0
 18 31  1  0  0  0  0
 19 37  1  0  0  0  0
 20 30  1  0  0  0  0
 21 32  2  0  0  0  0
 22 29  1  0  0  0  0
 22 31  1  0  0  0  0
 22 33  2  0  0  0  0
 23 24  1  0  0  0  0
 23 26  1  0  0  0  0
 24 36  1  0  0  0  0
 25 26  1  0  0  0  0
 25 36  1  0  0  0  0
 26 31  1  0  0  0  0
 29 38  1  0  0  0  0
 34 36  2  0  0  0  0
 35 36  2  0  0  0  0
  1 39  1  0  0  0  0
  2 40  1  0  0  0  0
  3 41  1  0  0  0  0
  4 42  1  0  0  0  0
  5 43  1  0  0  0  0
  6 44  1  0  0  0  0
  7 45  1  0  0  0  0
  8 46  1  0  0  0  0
  9 47  1  0  0  0  0
 10 48  1  0  0  0  0
 23 49  1  0  0  0  0
 23 50  1  0  0  0  0
 24 51  1  0  0  0  0
 24 52  1  0  0  0  0
 25 53  1  0  0  0  0
 25 54  1  0  0  0  0
 26 55  1  0  0  0  0
 27 56  1  0  0  0  0
 27 57  1  0  0  0  0
 27 58  1  0  0  0  0
 28 59  1  0  0  0  0
 28 60  1  0  0  0  0
 28 61  1  0  0  0  0
 29 62  1  0  0  0  0
 29 63  1  0  0  0  0
 30 64  1  0  0  0  0
M  END
> <creator>
INSCoV_5RFG_5377, Insilico Medicine Hong Kong Ltd

> <fragments>
x1311

> <real_space>
FALSE

> <SCR>
FALSE

> <BB>
FALSE

> <link>
https://covid.postera.ai/covid/submissions/8dbfb37c-f23e-4e6f-b7fc-97bd453ac7f0

> <covalent_frag>
TRUE

> <covalent_warhead>
TRUE

> <acrylamide>
FALSE

> <acrylamide_adduct>
FALSE

> <chloroacetamide>
TRUE

> <chloroacetamide_adduct>
FALSE

> <vinylsulfonamide>
FALSE

> <vinylsulfonamide_adduct>
FALSE

> <in_molport_or_mcule>
FALSE

> <in_emolecules>
FALSE

> <Hybrid2>
-0.011295

> <Mpro-x1311_dock>
-0.011295

> <site>
active-covalent

> <covalent_distance_min>
2.954845

> <covalent_distance_mean>
3.4884691

> <covalent_distance_stderr>
0.05020786

$$$$
MAK-UNK-e05-8
  -OEChem-04062011563D

 50 53  0     0  0  0  0  0  0999 V2000
    5.4276   -2.2599   27.9246 C   0  0  0  0  0  0  0  0  0  0  0  0
    5.4078   -3.6136   27.6022 C   0  0  0  0  0  0  0  0  0  0  0  0
    1.3763   -1.5799   25.3176 C   0  0  0  0  0  0  0  0  0  0  0  0
    4.4320   -1.4117   27.4392 C   0  0  0  0  0  0  0  0  0  0  0  0
    4.3923   -4.1243   26.7934 C   0  0  0  0  0  0  0  0  0  0  0  0
    2.3918   -1.0692   26.1265 C   0  0  0  0  0  0  0  0  0  0  0  0
    1.3565   -2.9336   24.9952 C   0  0  0  0  0  0  0  0  0  0  0  0
    4.2780   -6.7968   24.6506 C   0  0  0  0  0  0  0  0  0  0  0  0
    5.3032   -6.9726   23.6768 C   0  0  0  0  0  0  0  0  0  0  0  0
    3.4021   -1.9085   26.6238 C   0  0  0  0  0  0  0  0  0  0  0  0
    3.3820   -3.2851   26.2960 C   0  0  0  0  0  0  0  0  0  0  0  0
    2.3522   -3.7819   25.4805 C   0  0  0  0  0  0  0  0  0  0  0  0
    3.4423   -5.7471   24.3385 C   0  0  0  0  0  0  0  0  0  0  0  0
    5.2119   -6.0505   22.6573 C   0  0  0  0  0  0  0  0  0  0  0  0
    8.4618   -1.9915   25.0006 C   0  0  0  0  0  0  0  0  0  0  0  0
    7.9431   -4.3350   24.2015 C   0  0  0  0  0  0  0  0  0  0  0  0
    7.9521   -2.4133   22.6218 C   0  0  0  0  0  0  0  0  0  0  0  0
    8.1857   -5.1386   22.9306 C   0  0  0  0  0  0  0  0  0  0  0  0
    6.9079   -3.2380   21.8822 C   0  0  0  0  0  0  0  0  0  0  0  0
    2.2698   -5.2491   25.0896 C   0  0  0  0  0  0  0  0  0  0  0  0
    8.6189   -2.5667   26.3865 C   0  0  0  0  0  0  0  0  0  0  0  0
    8.1374   -2.8966   23.9900 N   0  0  0  0  0  0  0  0  0  0  0  0
    7.3203   -4.6671   21.8126 N   0  0  0  0  0  0  0  0  0  0  0  0
    8.6247   -0.7824   24.8201 O   0  0  0  0  0  0  0  0  0  0  0  0
    6.8280   -7.0008   20.8522 O   0  0  0  0  0  0  0  0  0  0  0  0
    5.3244   -5.0722   20.2459 O   0  0  0  0  0  0  0  0  0  0  0  0
    3.8946   -4.9786   22.8766 S   0  0  0  0  0  0  0  0  0  0  0  0
    6.1654   -5.7624   21.2000 S   0  0  0  0  0  0  0  0  0  0  0  0
    9.0575   -1.2276   27.4411 Cl  0  0  0  0  0  0  0  0  0  0  0  0
    6.2186   -1.8630   28.5543 H   0  0  0  0  0  0  0  0  0  0  0  0
    6.1834   -4.2733   27.9806 H   0  0  0  0  0  0  0  0  0  0  0  0
    0.6010   -0.9199   24.9393 H   0  0  0  0  0  0  0  0  0  0  0  0
    4.4673   -0.3569   27.7040 H   0  0  0  0  0  0  0  0  0  0  0  0
    4.4115   -5.1872   26.5640 H   0  0  0  0  0  0  0  0  0  0  0  0
    2.3874   -0.0078   26.3656 H   0  0  0  0  0  0  0  0  0  0  0  0
    0.5601   -3.3194   24.3641 H   0  0  0  0  0  0  0  0  0  0  0  0
    4.1628   -7.4118   25.5341 H   0  0  0  0  0  0  0  0  0  0  0  0
    6.0679   -7.7371   23.7232 H   0  0  0  0  0  0  0  0  0  0  0  0
    6.9031   -4.4656   24.5442 H   0  0  0  0  0  0  0  0  0  0  0  0
    8.5860   -4.7209   25.0033 H   0  0  0  0  0  0  0  0  0  0  0  0
    8.8993   -2.4296   22.0697 H   0  0  0  0  0  0  0  0  0  0  0  0
    7.6341   -1.3641   22.6927 H   0  0  0  0  0  0  0  0  0  0  0  0
    9.2478   -5.0766   22.6297 H   0  0  0  0  0  0  0  0  0  0  0  0
    7.9658   -6.2015   23.1344 H   0  0  0  0  0  0  0  0  0  0  0  0
    5.9490   -3.1622   22.4188 H   0  0  0  0  0  0  0  0  0  0  0  0
    6.7523   -2.8450   20.8638 H   0  0  0  0  0  0  0  0  0  0  0  0
    2.1025   -5.8446   26.0097 H   0  0  0  0  0  0  0  0  0  0  0  0
    1.3334   -5.4040   24.5165 H   0  0  0  0  0  0  0  0  0  0  0  0
    9.4126   -3.3050   26.3728 H   0  0  0  0  0  0  0  0  0  0  0  0
    7.6725   -2.9927   26.6995 H   0  0  0  0  0  0  0  0  0  0  0  0
  1  2  1  0  0  0  0
  1  4  2  0  0  0  0
  2  5  2  0  0  0  0
  3  6  1  0  0  0  0
  3  7  2  0  0  0  0
  4 10  1  0  0  0  0
  5 11  1  0  0  0  0
  6 10  2  0  0  0  0
  7 12  1  0  0  0  0
  8  9  1  0  0  0  0
  8 13  2  0  0  0  0
  9 14  2  0  0  0  0
 10 11  1  0  0  0  0
 11 12  2  0  0  0  0
 12 20  1  0  0  0  0
 13 20  1  0  0  0  0
 13 27  1  0  0  0  0
 14 27  1  0  0  0  0
 14 28  1  0  0  0  0
 15 21  1  0  0  0  0
 15 22  1  0  0  0  0
 15 24  2  0  0  0  0
 16 18  1  0  0  0  0
 16 22  1  0  0  0  0
 17 19  1  0  0  0  0
 17 22  1  0  0  0  0
 18 23  1  0  0  0  0
 19 23  1  0  0  0  0
 21 29  1  0  0  0  0
 23 28  1  0  0  0  0
 25 28  2  0  0  0  0
 26 28  2  0  0  0  0
  1 30  1  0  0  0  0
  2 31  1  0  0  0  0
  3 32  1  0  0  0  0
  4 33  1  0  0  0  0
  5 34  1  0  0  0  0
  6 35  1  0  0  0  0
  7 36  1  0  0  0  0
  8 37  1  0  0  0  0
  9 38  1  0  0  0  0
 16 39  1  0  0  0  0
 16 40  1  0  0  0  0
 17 41  1  0  0  0  0
 17 42  1  0  0  0  0
 18 43  1  0  0  0  0
 18 44  1  0  0  0  0
 19 45  1  0  0  0  0
 19 46  1  0  0  0  0
 20 47  1  0  0  0  0
 20 48  1  0  0  0  0
 21 49  1  0  0  0  0
 21 50  1  0  0  0  0
M  END
> <creator>
Maksym Voznyy

> <fragments>
x1402

> <real_space>
FALSE

> <SCR>
FALSE

> <BB>
FALSE

> <link>
https://covid.postera.ai/covid/submissions/e05327b2-2d9c-4e6b-94d5-b60afa9814ed

> <covalent_frag>
TRUE

> <covalent_warhead>
TRUE

> <acrylamide>
FALSE

> <acrylamide_adduct>
FALSE

> <chloroacetamide>
TRUE

> <chloroacetamide_adduct>
FALSE

> <vinylsulfonamide>
FALSE

> <vinylsulfonamide_adduct>
FALSE

> <in_molport_or_mcule>
FALSE

> <in_emolecules>
FALSE

> <Hybrid2>
0.017614

> <Mpro-x1402_dock>
0.017614

> <site>
active-covalent

> <covalent_distance_min>
7.1438103

> <covalent_distance_mean>
7.735773

> <covalent_distance_stderr>
0.05480659

$$$$
GIA-UNK-d2d-9
  -OEChem-04062011563D

 41 42  0     1  0  0  0  0  0999 V2000
   -1.1227    3.4736   24.4802 C   0  0  0  0  0  0  0  0  0  0  0  0
   -0.8206    2.5176   23.5106 C   0  0  0  0  0  0  0  0  0  0  0  0
   -0.1204    3.9517   25.3244 C   0  0  0  0  0  0  0  0  0  0  0  0
    0.4837    2.0394   23.3851 C   0  0  0  0  0  0  0  0  0  0  0  0
    1.1839    3.4735   25.1990 C   0  0  0  0  0  0  0  0  0  0  0  0
    1.4860    2.5174   24.2293 C   0  0  0  0  0  0  0  0  0  0  0  0
    2.8596    2.0138   24.0972 C   0  0  0  0  0  0  0  0  0  0  0  0
    5.2004    1.1266   22.2502 C   0  0  0  0  0  0  0  0  0  0  0  0
    7.6870   -0.0067   20.3901 C   0  0  0  0  0  0  0  0  0  0  0  0
    4.5909    4.1230   21.5687 C   0  0  0  0  0  0  0  0  0  0  0  0
    5.7384    3.5645   22.4071 C   0  0  0  0  0  0  0  0  0  0  0  0
    3.3711    3.8830   22.4454 C   0  0  0  0  0  0  0  0  0  0  0  0
    5.1152    2.3585   23.1005 C   0  0  1  0  0  0  0  0  0  0  0  0
    6.0083   -1.8125   21.0092 C   0  0  0  0  0  0  0  0  0  0  0  0
    6.3428    0.1534   22.4568 C   0  0  0  0  0  0  0  0  0  0  0  0
    7.5439   -0.3437   18.9194 C   0  0  0  0  0  0  0  0  0  0  0  0
    3.7040    2.6958   23.2319 N   0  0  0  0  0  0  0  0  0  0  0  0
    6.7063   -0.5400   21.2581 N   0  0  0  0  0  0  0  0  0  0  0  0
    3.1585    1.0166   24.7502 O   0  0  0  0  0  0  0  0  0  0  0  0
    4.3497    0.9033   21.3853 O   0  0  0  0  0  0  0  0  0  0  0  0
    8.6135    0.6968   20.8005 O   0  0  0  0  0  0  0  0  0  0  0  0
    6.0113    0.2789   18.2763 Cl  0  0  0  0  0  0  0  0  0  0  0  0
   -2.1383    3.8458   24.5779 H   0  0  0  0  0  0  0  0  0  0  0  0
   -1.6012    2.1453   22.8535 H   0  0  0  0  0  0  0  0  0  0  0  0
   -0.3556    4.6963   26.0792 H   0  0  0  0  0  0  0  0  0  0  0  0
    0.7081    1.2944   22.6260 H   0  0  0  0  0  0  0  0  0  0  0  0
    1.9569    3.8531   25.8623 H   0  0  0  0  0  0  0  0  0  0  0  0
    4.7302    5.1811   21.3296 H   0  0  0  0  0  0  0  0  0  0  0  0
    4.4992    3.5672   20.6284 H   0  0  0  0  0  0  0  0  0  0  0  0
    6.6035    3.3129   21.7858 H   0  0  0  0  0  0  0  0  0  0  0  0
    6.0478    4.3067   23.1527 H   0  0  0  0  0  0  0  0  0  0  0  0
    3.2098    4.7143   23.1407 H   0  0  0  0  0  0  0  0  0  0  0  0
    2.4583    3.7210   21.8647 H   0  0  0  0  0  0  0  0  0  0  0  0
    5.5604    2.1434   24.0760 H   0  0  0  0  0  0  0  0  0  0  0  0
    6.5724   -2.6370   21.4697 H   0  0  0  0  0  0  0  0  0  0  0  0
    4.9999   -1.7691   21.4467 H   0  0  0  0  0  0  0  0  0  0  0  0
    5.9306   -1.9821   19.9252 H   0  0  0  0  0  0  0  0  0  0  0  0
    6.0470   -0.5936   23.1981 H   0  0  0  0  0  0  0  0  0  0  0  0
    7.2218    0.7025   22.8043 H   0  0  0  0  0  0  0  0  0  0  0  0
    8.3516    0.1185   18.3464 H   0  0  0  0  0  0  0  0  0  0  0  0
    7.5427   -1.4277   18.7801 H   0  0  0  0  0  0  0  0  0  0  0  0
  1  2  1  0  0  0  0
  1  3  2  0  0  0  0
  2  4  2  0  0  0  0
  3  5  1  0  0  0  0
  4  6  1  0  0  0  0
  5  6  2  0  0  0  0
  6  7  1  0  0  0  0
  7 17  1  0  0  0  0
  7 19  2  0  0  0  0
  8 13  1  0  0  0  0
  8 15  1  0  0  0  0
  8 20  2  0  0  0  0
  9 16  1  0  0  0  0
  9 18  1  0  0  0  0
  9 21  2  0  0  0  0
 10 11  1  0  0  0  0
 10 12  1  0  0  0  0
 11 13  1  0  0  0  0
 12 17  1  0  0  0  0
 13 17  1  0  0  0  0
 14 18  1  0  0  0  0
 15 18  1  0  0  0  0
 16 22  1  0  0  0  0
  1 23  1  0  0  0  0
  2 24  1  0  0  0  0
  3 25  1  0  0  0  0
  4 26  1  0  0  0  0
  5 27  1  0  0  0  0
 10 28  1  0  0  0  0
 10 29  1  0  0  0  0
 11 30  1  0  0  0  0
 11 31  1  0  0  0  0
 12 32  1  0  0  0  0
 12 33  1  0  0  0  0
 13 34  1  0  0  0  0
 14 35  1  0  0  0  0
 14 36  1  0  0  0  0
 14 37  1  0  0  0  0
 15 38  1  0  0  0  0
 15 39  1  0  0  0  0
 16 40  1  0  0  0  0
 16 41  1  0  0  0  0
M  END
> <creator>
Gianfranco Lopopolo

> <fragments>
x0540

> <real_space>
FALSE

> <SCR>
FALSE

> <BB>
FALSE

> <link>
https://covid.postera.ai/covid/submissions/d2defdc3-6611-4e76-b6eb-273d365b95ae

> <covalent_frag>
FALSE

> <covalent_warhead>
TRUE

> <acrylamide>
FALSE

> <acrylamide_adduct>
FALSE

> <chloroacetamide>
TRUE

> <chloroacetamide_adduct>
FALSE

> <vinylsulfonamide>
FALSE

> <vinylsulfonamide_adduct>
FALSE

> <in_molport_or_mcule>
FALSE

> <in_emolecules>
FALSE

> <Hybrid2>
0.028600

> <Mpro-x0540_dock>
0.0286

> <site>
active-noncovalent

> <covalent_distance_min>
3.8838768

> <covalent_distance_mean>
5.6437044

> <covalent_distance_stderr>
0.13268515

$$$$
PED-UNI-b79-1
  -OEChem-04062011563D

 69 72  0     1  0  0  0  0  0999 V2000
    8.7580   -4.7269   23.6159 C   0  0  0  0  0  0  0  0  0  0  0  0
    8.4413   -4.1409   21.2935 C   0  0  0  0  0  0  0  0  0  0  0  0
    7.4677   -5.2550   23.6586 C   0  0  0  0  0  0  0  0  0  0  0  0
    7.1510   -4.6691   21.3362 C   0  0  0  0  0  0  0  0  0  0  0  0
    5.5981    0.2081   26.2805 C   0  0  0  0  0  0  0  0  0  0  0  0
    6.6769   -0.5774   26.6863 C   0  0  0  0  0  0  0  0  0  0  0  0
    7.1165    1.9980   25.7081 C   0  0  0  0  0  0  0  0  0  0  0  0
    9.2448   -4.1698   22.4333 C   0  0  0  0  0  0  0  0  0  0  0  0
    8.1954    1.2126   26.1140 C   0  0  0  0  0  0  0  0  0  0  0  0
    6.6642   -5.2262   22.5188 C   0  0  0  0  0  0  0  0  0  0  0  0
    5.8178    1.4958   25.7913 C   0  0  0  0  0  0  0  0  0  0  0  0
    7.9756   -0.0751   26.6032 C   0  0  0  0  0  0  0  0  0  0  0  0
    5.0553   -0.0017   20.0544 C   0  0  0  0  0  0  0  0  0  0  0  0
   11.6234   -1.3410   22.6605 C   0  0  0  0  0  0  0  0  0  0  0  0
    5.2270    2.1938   21.3280 C   0  0  0  0  0  0  0  0  0  0  0  0
    3.4782    0.5482   21.8808 C   0  0  0  0  0  0  0  0  0  0  0  0
    5.5683    2.3318   22.8086 C   0  0  0  0  0  0  0  0  0  0  0  0
    3.8154    0.6780   23.3619 C   0  0  0  0  0  0  0  0  0  0  0  0
   12.5175    0.9280   23.0659 C   0  0  0  0  0  0  0  0  0  0  0  0
   10.8050    0.0761   24.6312 C   0  0  0  0  0  0  0  0  0  0  0  0
   11.8441    2.2876   23.1514 C   0  0  0  0  0  0  0  0  0  0  0  0
   10.2178    1.4906   24.6580 C   0  0  1  0  0  0  0  0  0  0  0  0
    9.5814    1.7912   26.0083 C   0  0  0  0  0  0  0  0  0  0  0  0
   10.6336   -3.6012   22.3875 C   0  0  0  0  0  0  0  0  0  0  0  0
    6.2124    0.4481   19.1987 C   0  0  0  0  0  0  0  0  0  0  0  0
    4.6379    0.8784   21.0513 N   0  0  0  0  0  0  0  0  0  0  0  0
   11.5875   -0.1500   23.4071 N   0  0  0  0  0  0  0  0  0  0  0  0
    4.3525    2.0464   23.6293 N   0  0  0  0  0  0  0  0  0  0  0  0
   10.7155   -2.3189   23.0503 N   0  0  0  0  0  0  0  0  0  0  0  0
    5.3506   -5.7635   22.5624 N   0  0  0  0  0  0  0  0  0  0  0  0
    4.5411   -1.1031   19.8437 O   0  0  0  0  0  0  0  0  0  0  0  0
   12.4090   -1.5200   21.7239 O   0  0  0  0  0  0  0  0  0  0  0  0
    4.9319   -6.2596   23.6362 O   0  0  0  0  0  0  0  0  0  0  0  0
    4.6441   -5.7273   21.5260 O   0  0  0  0  0  0  0  0  0  0  0  0
    3.2735    2.0115   25.9747 O   0  0  0  0  0  0  0  0  0  0  0  0
    4.8541    3.8794   25.3746 O   0  0  0  0  0  0  0  0  0  0  0  0
   11.2437    2.4615   24.4337 O   0  0  0  0  0  0  0  0  0  0  0  0
    4.4670    2.4785   25.2834 S   0  0  0  0  0  0  0  0  0  0  0  0
    9.2857   -1.0758   27.1145 Cl  0  0  0  0  0  0  0  0  0  0  0  0
    6.5396   -0.8592   18.0664 Cl  0  0  0  0  0  0  0  0  0  0  0  0
    9.3769   -4.7536   24.5088 H   0  0  0  0  0  0  0  0  0  0  0  0
    8.8120   -3.7091   20.3676 H   0  0  0  0  0  0  0  0  0  0  0  0
    7.1005   -5.6861   24.5868 H   0  0  0  0  0  0  0  0  0  0  0  0
    6.5351   -4.6403   20.4407 H   0  0  0  0  0  0  0  0  0  0  0  0
    4.5905   -0.1928   26.3494 H   0  0  0  0  0  0  0  0  0  0  0  0
    6.4887   -1.5787   27.0653 H   0  0  0  0  0  0  0  0  0  0  0  0
    7.2877    3.0019   25.3264 H   0  0  0  0  0  0  0  0  0  0  0  0
    4.4804    2.9427   21.0369 H   0  0  0  0  0  0  0  0  0  0  0  0
    6.1217    2.3767   20.7305 H   0  0  0  0  0  0  0  0  0  0  0  0
    3.1201   -0.4639   21.6681 H   0  0  0  0  0  0  0  0  0  0  0  0
    2.6780    1.2464   21.6066 H   0  0  0  0  0  0  0  0  0  0  0  0
    6.3748    1.6437   23.0870 H   0  0  0  0  0  0  0  0  0  0  0  0
    5.9029    3.3565   23.0029 H   0  0  0  0  0  0  0  0  0  0  0  0
    2.9038    0.5255   23.9498 H   0  0  0  0  0  0  0  0  0  0  0  0
    4.5527   -0.0759   23.6610 H   0  0  0  0  0  0  0  0  0  0  0  0
   12.9368    0.8094   22.0636 H   0  0  0  0  0  0  0  0  0  0  0  0
   13.3390    0.8659   23.7911 H   0  0  0  0  0  0  0  0  0  0  0  0
   11.5060   -0.0618   25.4621 H   0  0  0  0  0  0  0  0  0  0  0  0
   10.0134   -0.6704   24.7339 H   0  0  0  0  0  0  0  0  0  0  0  0
   12.5857    3.0786   23.0224 H   0  0  0  0  0  0  0  0  0  0  0  0
   11.0863    2.4082   22.3723 H   0  0  0  0  0  0  0  0  0  0  0  0
    9.4455    1.5973   23.8798 H   0  0  0  0  0  0  0  0  0  0  0  0
    9.5430    2.8755   26.1648 H   0  0  0  0  0  0  0  0  0  0  0  0
   10.2120    1.3906   26.8107 H   0  0  0  0  0  0  0  0  0  0  0  0
   11.3442   -4.2783   22.8739 H   0  0  0  0  0  0  0  0  0  0  0  0
   10.9688   -3.4658   21.3538 H   0  0  0  0  0  0  0  0  0  0  0  0
    7.0750    0.6151   19.8336 H   0  0  0  0  0  0  0  0  0  0  0  0
    5.9241    1.3436   18.6603 H   0  0  0  0  0  0  0  0  0  0  0  0
   10.0915   -2.1270   23.8233 H   0  0  0  0  0  0  0  0  0  0  0  0
  1  3  2  0  0  0  0
  1  8  1  0  0  0  0
  2  4  1  0  0  0  0
  2  8  2  0  0  0  0
  3 10  1  0  0  0  0
  4 10  2  0  0  0  0
  5  6  2  0  0  0  0
  5 11  1  0  0  0  0
  6 12  1  0  0  0  0
  7  9  1  0  0  0  0
  7 11  2  0  0  0  0
  8 24  1  0  0  0  0
  9 12  2  0  0  0  0
  9 23  1  0  0  0  0
 10 30  1  0  0  0  0
 11 38  1  0  0  0  0
 12 39  1  0  0  0  0
 13 25  1  0  0  0  0
 13 26  1  0  0  0  0
 13 31  2  0  0  0  0
 14 27  1  0  0  0  0
 14 29  1  0  0  0  0
 14 32  2  0  0  0  0
 15 17  1  0  0  0  0
 15 26  1  0  0  0  0
 16 18  1  0  0  0  0
 16 26  1  0  0  0  0
 17 28  1  0  0  0  0
 18 28  1  0  0  0  0
 19 21  1  0  0  0  0
 19 27  1  0  0  0  0
 20 22  1  0  0  0  0
 20 27  1  0  0  0  0
 21 37  1  0  0  0  0
 22 23  1  0  0  0  0
 22 37  1  0  0  0  0
 24 29  1  0  0  0  0
 25 40  1  0  0  0  0
 28 38  1  0  0  0  0
 30 33  2  0  0  0  0
 30 34  2  0  0  0  0
 35 38  2  0  0  0  0
 36 38  2  0  0  0  0
  1 41  1  0  0  0  0
  2 42  1  0  0  0  0
  3 43  1  0  0  0  0
  4 44  1  0  0  0  0
  5 45  1  0  0  0  0
  6 46  1  0  0  0  0
  7 47  1  0  0  0  0
 15 48  1  0  0  0  0
 15 49  1  0  0  0  0
 16 50  1  0  0  0  0
 16 51  1  0  0  0  0
 17 52  1  0  0  0  0
 17 53  1  0  0  0  0
 18 54  1  0  0  0  0
 18 55  1  0  0  0  0
 19 56  1  0  0  0  0
 19 57  1  0  0  0  0
 20 58  1  0  0  0  0
 20 59  1  0  0  0  0
 21 60  1  0  0  0  0
 21 61  1  0  0  0  0
 22 62  1  0  0  0  0
 23 63  1  0  0  0  0
 23 64  1  0  0  0  0
 24 65  1  0  0  0  0
 24 66  1  0  0  0  0
 25 67  1  0  0  0  0
 25 68  1  0  0  0  0
 29 69  1  0  0  0  0
M  END
> <creator>
Pedro Silva, Univ. Fernando Pessoa

> <fragments>
x1249

> <real_space>
FALSE

> <SCR>
FALSE

> <BB>
FALSE

> <link>
https://covid.postera.ai/covid/submissions/b79f0f51-d12e-46bf-ba60-ee717cfd90ee

> <covalent_frag>
TRUE

> <covalent_warhead>
TRUE

> <acrylamide>
FALSE

> <acrylamide_adduct>
FALSE

> <chloroacetamide>
TRUE

> <chloroacetamide_adduct>
FALSE

> <vinylsulfonamide>
FALSE

> <vinylsulfonamide_adduct>
FALSE

> <in_molport_or_mcule>
FALSE

> <in_emolecules>
FALSE

> <Hybrid2>
0.091272

> <Mpro-x1249_dock>
0.091272

> <Mpro-x1308_dock>
3.920595

> <site>
active-noncovalent

> <covalent_distance_min>
3.3390794

> <covalent_distance_mean>
4.4018154

> <covalent_distance_stderr>
0.064315416

$$$$
MAK-UNK-8fd-26
  -OEChem-04062011563D

 77 80  0     0  0  0  0  0  0999 V2000
   12.2038    0.2470   26.3183 C   0  0  0  0  0  0  0  0  0  0  0  0
   11.4399    1.3017   26.8179 C   0  0  0  0  0  0  0  0  0  0  0  0
   13.4031   -1.7865   20.2091 C   0  0  0  0  0  0  0  0  0  0  0  0
   11.6041   -0.7381   25.5336 C   0  0  0  0  0  0  0  0  0  0  0  0
   10.0762    1.3713   26.5331 C   0  0  0  0  0  0  0  0  0  0  0  0
   12.0781   -1.5062   20.5242 C   0  0  0  0  0  0  0  0  0  0  0  0
    9.0741   -2.8902   24.8344 C   0  0  0  0  0  0  0  0  0  0  0  0
   14.3869   -1.3111   21.0611 C   0  0  0  0  0  0  0  0  0  0  0  0
   12.8381   -0.3400   22.4526 C   0  0  0  0  0  0  0  0  0  0  0  0
    8.9424   -2.7625   22.5903 C   0  0  0  0  0  0  0  0  0  0  0  0
   10.2404   -0.6685   25.2487 C   0  0  0  0  0  0  0  0  0  0  0  0
    9.4764    0.3862   25.7484 C   0  0  0  0  0  0  0  0  0  0  0  0
    8.6306   -3.5613   23.6682 C   0  0  0  0  0  0  0  0  0  0  0  0
   11.7817   -0.7696   21.6657 C   0  0  0  0  0  0  0  0  0  0  0  0
    9.6433   -1.7016   24.4336 C   0  0  0  0  0  0  0  0  0  0  0  0
    7.0610    2.5275   26.5682 C   0  0  0  0  0  0  0  0  0  0  0  0
    5.5607    6.7477   24.1190 C   0  0  0  0  0  0  0  0  0  0  0  0
    6.5755    3.3403   24.2671 C   0  0  0  0  0  0  0  0  0  0  0  0
    8.0130    4.7243   25.8422 C   0  0  0  0  0  0  0  0  0  0  0  0
    5.4264    4.3118   24.5304 C   0  0  0  0  0  0  0  0  0  0  0  0
    6.8236    5.6646   26.0419 C   0  0  0  0  0  0  0  0  0  0  0  0
    7.5972    3.3150   25.4083 C   0  0  0  0  0  0  0  0  0  0  0  0
    7.8901    0.1770   28.6913 C   0  0  0  0  0  0  0  0  0  0  0  0
    6.5052   -1.0979   27.0171 C   0  0  0  0  0  0  0  0  0  0  0  0
    5.8041   -6.1089   23.3491 C   0  0  0  0  0  0  0  0  0  0  0  0
    8.0064    0.4950   25.4632 C   0  0  0  0  0  0  0  0  0  0  0  0
    7.9587   -4.8739   23.6161 C   0  0  0  0  0  0  0  0  0  0  0  0
    6.1342    8.0774   24.5392 C   0  0  0  0  0  0  0  0  0  0  0  0
    6.8204    0.2665   27.6126 C   0  0  0  0  0  0  0  0  0  0  0  0
   14.1377   -0.5926   22.1787 N   0  0  0  0  0  0  0  0  0  0  0  0
    9.5574   -1.6345   23.0675 N   0  0  0  0  0  0  0  0  0  0  0  0
    5.9372    5.6381   24.8745 N   0  0  0  0  0  0  0  0  0  0  0  0
    7.2874    1.1508   26.5480 N   0  0  0  0  0  0  0  0  0  0  0  0
    6.4903   -4.7936   23.3450 N   0  3  0  0  0  0  0  0  0  0  0  0
    6.4573    3.1172   27.4684 O   0  0  0  0  0  0  0  0  0  0  0  0
    4.8025    6.6984   23.1469 O   0  0  0  0  0  0  0  0  0  0  0  0
   10.1043    0.7950   22.9545 O   0  0  0  0  0  0  0  0  0  0  0  0
    9.3442   -0.4125   20.8480 O   0  0  0  0  0  0  0  0  0  0  0  0
   10.1036   -0.3923   22.1004 S   0  0  0  0  0  0  0  0  0  0  0  0
    7.6634    8.2584   23.6867 Cl  0  0  0  0  0  0  0  0  0  0  0  0
   13.2656    0.1929   26.5404 H   0  0  0  0  0  0  0  0  0  0  0  0
   11.9070    2.0685   27.4289 H   0  0  0  0  0  0  0  0  0  0  0  0
   13.6577   -2.3588   19.3244 H   0  0  0  0  0  0  0  0  0  0  0  0
   12.2144   -1.5534   25.1522 H   0  0  0  0  0  0  0  0  0  0  0  0
    9.4901    2.1973   26.9275 H   0  0  0  0  0  0  0  0  0  0  0  0
   11.2850   -1.8659   19.8746 H   0  0  0  0  0  0  0  0  0  0  0  0
    8.9869   -3.2385   25.8552 H   0  0  0  0  0  0  0  0  0  0  0  0
   15.4357   -1.5026   20.8598 H   0  0  0  0  0  0  0  0  0  0  0  0
   12.6695    0.2385   23.3556 H   0  0  0  0  0  0  0  0  0  0  0  0
    8.7776   -2.9037   21.5300 H   0  0  0  0  0  0  0  0  0  0  0  0
    6.1668    2.3369   24.0970 H   0  0  0  0  0  0  0  0  0  0  0  0
    7.0837    3.6375   23.3408 H   0  0  0  0  0  0  0  0  0  0  0  0
    8.6706    5.1511   25.0739 H   0  0  0  0  0  0  0  0  0  0  0  0
    8.5962    4.6804   26.7700 H   0  0  0  0  0  0  0  0  0  0  0  0
    4.7776    4.3597   23.6500 H   0  0  0  0  0  0  0  0  0  0  0  0
    4.8094    3.9681   25.3688 H   0  0  0  0  0  0  0  0  0  0  0  0
    6.2269    5.3575   26.9085 H   0  0  0  0  0  0  0  0  0  0  0  0
    7.1925    6.6699   26.2533 H   0  0  0  0  0  0  0  0  0  0  0  0
    8.4881    2.7720   25.0690 H   0  0  0  0  0  0  0  0  0  0  0  0
    8.8133   -0.2538   28.2901 H   0  0  0  0  0  0  0  0  0  0  0  0
    8.1254    1.1643   29.1042 H   0  0  0  0  0  0  0  0  0  0  0  0
    7.5537   -0.4548   29.5207 H   0  0  0  0  0  0  0  0  0  0  0  0
    7.4052   -1.5510   26.5870 H   0  0  0  0  0  0  0  0  0  0  0  0
    5.7558   -1.0132   26.2234 H   0  0  0  0  0  0  0  0  0  0  0  0
    6.1209   -1.7874   27.7771 H   0  0  0  0  0  0  0  0  0  0  0  0
    5.9726   -6.5704   24.3238 H   0  0  0  0  0  0  0  0  0  0  0  0
    4.7407   -5.9316   23.1772 H   0  0  0  0  0  0  0  0  0  0  0  0
    6.2356   -6.7133   22.5489 H   0  0  0  0  0  0  0  0  0  0  0  0
    7.8324    1.0699   24.5471 H   0  0  0  0  0  0  0  0  0  0  0  0
    7.5604   -0.4943   25.3159 H   0  0  0  0  0  0  0  0  0  0  0  0
    8.3703   -5.5262   22.8255 H   0  0  0  0  0  0  0  0  0  0  0  0
    8.0544   -5.4330   24.5639 H   0  0  0  0  0  0  0  0  0  0  0  0
    6.3042    8.0643   25.6097 H   0  0  0  0  0  0  0  0  0  0  0  0
    5.4488    8.8642   24.2457 H   0  0  0  0  0  0  0  0  0  0  0  0
    5.9075    0.6995   28.0359 H   0  0  0  0  0  0  0  0  0  0  0  0
    6.3484   -4.3353   22.4375 H   0  0  0  0  0  0  0  0  0  0  0  0
    6.0596   -4.1797   24.0460 H   0  0  0  0  0  0  0  0  0  0  0  0
  1  2  1  0  0  0  0
  1  4  2  0  0  0  0
  2  5  2  0  0  0  0
  3  6  2  0  0  0  0
  3  8  1  0  0  0  0
  4 11  1  0  0  0  0
  5 12  1  0  0  0  0
  6 14  1  0  0  0  0
  7 13  1  0  0  0  0
  7 15  2  0  0  0  0
  8 30  2  0  0  0  0
  9 14  2  0  0  0  0
  9 30  1  0  0  0  0
 10 13  2  0  0  0  0
 10 31  1  0  0  0  0
 11 12  2  0  0  0  0
 11 15  1  0  0  0  0
 12 26  1  0  0  0  0
 13 27  1  0  0  0  0
 14 39  1  0  0  0  0
 15 31  1  0  0  0  0
 16 22  1  0  0  0  0
 16 33  1  0  0  0  0
 16 35  2  0  0  0  0
 17 28  1  0  0  0  0
 17 32  1  0  0  0  0
 17 36  2  0  0  0  0
 18 20  1  0  0  0  0
 18 22  1  0  0  0  0
 19 21  1  0  0  0  0
 19 22  1  0  0  0  0
 20 32  1  0  0  0  0
 21 32  1  0  0  0  0
 23 29  1  0  0  0  0
 24 29  1  0  0  0  0
 25 34  1  0  0  0  0
 26 33  1  0  0  0  0
 27 34  1  0  0  0  0
 28 40  1  0  0  0  0
 29 33  1  0  0  0  0
 31 39  1  0  0  0  0
 37 39  2  0  0  0  0
 38 39  2  0  0  0  0
  1 41  1  0  0  0  0
  2 42  1  0  0  0  0
  3 43  1  0  0  0  0
  4 44  1  0  0  0  0
  5 45  1  0  0  0  0
  6 46  1  0  0  0  0
  7 47  1  0  0  0  0
  8 48  1  0  0  0  0
  9 49  1  0  0  0  0
 10 50  1  0  0  0  0
 18 51  1  0  0  0  0
 18 52  1  0  0  0  0
 19 53  1  0  0  0  0
 19 54  1  0  0  0  0
 20 55  1  0  0  0  0
 20 56  1  0  0  0  0
 21 57  1  0  0  0  0
 21 58  1  0  0  0  0
 22 59  1  0  0  0  0
 23 60  1  0  0  0  0
 23 61  1  0  0  0  0
 23 62  1  0  0  0  0
 24 63  1  0  0  0  0
 24 64  1  0  0  0  0
 24 65  1  0  0  0  0
 25 66  1  0  0  0  0
 25 67  1  0  0  0  0
 25 68  1  0  0  0  0
 26 69  1  0  0  0  0
 26 70  1  0  0  0  0
 27 71  1  0  0  0  0
 27 72  1  0  0  0  0
 28 73  1  0  0  0  0
 28 74  1  0  0  0  0
 29 75  1  0  0  0  0
 34 76  1  0  0  0  0
 34 77  1  0  0  0  0
M  CHG  1  34   1
M  END
> <creator>
Maksym Voznyy

> <fragments>
x0305

> <real_space>
FALSE

> <SCR>
FALSE

> <BB>
FALSE

> <link>
https://covid.postera.ai/covid/submissions/8fdbca50-c94c-4218-91b0-3b0489774fa8

> <covalent_frag>
FALSE

> <covalent_warhead>
TRUE

> <acrylamide>
FALSE

> <acrylamide_adduct>
FALSE

> <chloroacetamide>
TRUE

> <chloroacetamide_adduct>
FALSE

> <vinylsulfonamide>
FALSE

> <vinylsulfonamide_adduct>
FALSE

> <in_molport_or_mcule>
FALSE

> <in_emolecules>
FALSE

> <Hybrid2>
0.106145

> <Mpro-x0305_dock>
0.106145

> <site>
active-noncovalent

> <covalent_distance_min>
11.613047

> <covalent_distance_mean>
12.828982

> <covalent_distance_stderr>
0.12028417

$$$$
MAK-UNK-702-10
  -OEChem-04062011563D

 71 76  0     1  0  0  0  0  0999 V2000
    8.7084    0.9438   22.9307 C   0  0  0  0  0  0  0  0  0  0  0  0
    8.4292   -0.7325   28.4458 C   0  0  0  0  0  0  0  0  0  0  0  0
    8.8844    0.0566   21.8689 C   0  0  0  0  0  0  0  0  0  0  0  0
    7.4480    1.0999   23.5076 C   0  0  0  0  0  0  0  0  0  0  0  0
    8.6325   -1.2728   29.7155 C   0  0  0  0  0  0  0  0  0  0  0  0
   11.6635   -1.5314   22.7751 C   0  0  0  0  0  0  0  0  0  0  0  0
    8.2141   -1.5754   27.3554 C   0  0  0  0  0  0  0  0  0  0  0  0
    7.7999   -0.6744   21.3837 C   0  0  0  0  0  0  0  0  0  0  0  0
    6.3636    0.3689   23.0225 C   0  0  0  0  0  0  0  0  0  0  0  0
    6.1315   -4.3761   19.2724 C   0  0  0  0  0  0  0  0  0  0  0  0
    6.3796   -5.3430   20.2462 C   0  0  0  0  0  0  0  0  0  0  0  0
    8.6209   -2.6560   29.8950 C   0  0  0  0  0  0  0  0  0  0  0  0
   11.3744   -2.6821   23.5002 C   0  0  0  0  0  0  0  0  0  0  0  0
    5.9665   -3.7084   21.9716 C   0  0  0  0  0  0  0  0  0  0  0  0
    6.7868   -4.3127   25.9105 C   0  0  0  0  0  0  0  0  0  0  0  0
   11.5584   -0.3121   23.4247 C   0  0  0  0  0  0  0  0  0  0  0  0
   10.9195   -1.3135   25.3912 C   0  0  0  0  0  0  0  0  0  0  0  0
    8.4560   -5.1098   24.6266 C   0  0  0  0  0  0  0  0  0  0  0  0
    8.2025   -2.9587   27.5348 C   0  0  0  0  0  0  0  0  0  0  0  0
    6.5395   -0.5182   21.9605 C   0  0  0  0  0  0  0  0  0  0  0  0
    5.8020   -3.0617   19.6367 C   0  0  0  0  0  0  0  0  0  0  0  0
    5.7111   -2.7267   21.0004 C   0  0  0  0  0  0  0  0  0  0  0  0
    7.0881   -5.1230   24.7881 C   0  0  0  0  0  0  0  0  0  0  0  0
    6.2988   -5.0089   21.5950 C   0  0  0  0  0  0  0  0  0  0  0  0
    8.4058   -3.4990   28.8046 C   0  0  0  0  0  0  0  0  0  0  0  0
   10.9945   -2.5797   24.8338 C   0  0  0  0  0  0  0  0  0  0  0  0
    7.9798   -3.8288   26.4006 C   0  0  0  0  0  0  0  0  0  0  0  0
    5.6212    0.4726   18.3007 C   0  0  0  0  0  0  0  0  0  0  0  0
    5.5450   -2.0482   18.5477 C   0  0  0  0  0  0  0  0  0  0  0  0
    4.6220   -0.5627   20.3094 C   0  0  0  0  0  0  0  0  0  0  0  0
    5.3548   -1.3160   21.4311 C   0  0  2  0  0  0  0  0  0  0  0  0
    6.1000   -5.8608   23.9317 C   0  0  0  0  0  0  0  0  0  0  0  0
    5.3143    1.7895   18.9695 C   0  0  0  0  0  0  0  0  0  0  0  0
   11.1926   -0.1729   24.7187 N   0  0  0  0  0  0  0  0  0  0  0  0
    8.9875   -4.3197   25.6122 N   0  0  0  0  0  0  0  0  0  0  0  0
    5.3258   -0.6795   19.0330 N   0  0  0  0  0  0  0  0  0  0  0  0
    6.5514   -5.9857   22.5803 N   0  0  0  0  0  0  0  0  0  0  0  0
    6.0997    0.4686   17.1639 O   0  0  0  0  0  0  0  0  0  0  0  0
   11.2901   -5.1712   25.1795 O   0  0  0  0  0  0  0  0  0  0  0  0
   10.8730   -3.6662   27.1880 O   0  0  0  0  0  0  0  0  0  0  0  0
    8.3974   -4.8267   28.9937 F   0  0  0  0  0  0  0  0  0  0  0  0
   10.6179   -4.0252   25.7910 S   0  0  0  0  0  0  0  0  0  0  0  0
    5.8140    3.0510   17.8489 Cl  0  0  0  0  0  0  0  0  0  0  0  0
    9.5532    1.5118   23.3092 H   0  0  0  0  0  0  0  0  0  0  0  0
    8.4379    0.3446   28.3064 H   0  0  0  0  0  0  0  0  0  0  0  0
    9.8659   -0.0659   21.4203 H   0  0  0  0  0  0  0  0  0  0  0  0
    7.3109    1.7897   24.3350 H   0  0  0  0  0  0  0  0  0  0  0  0
    8.7994   -0.6165   30.5646 H   0  0  0  0  0  0  0  0  0  0  0  0
   11.9616   -1.5872   21.7345 H   0  0  0  0  0  0  0  0  0  0  0  0
    8.0572   -1.1386   26.3720 H   0  0  0  0  0  0  0  0  0  0  0  0
    7.9464   -1.3631   20.5559 H   0  0  0  0  0  0  0  0  0  0  0  0
    5.3852    0.4971   23.4780 H   0  0  0  0  0  0  0  0  0  0  0  0
    6.1993   -4.6515   18.2226 H   0  0  0  0  0  0  0  0  0  0  0  0
    6.6359   -6.3541   19.9402 H   0  0  0  0  0  0  0  0  0  0  0  0
    8.7787   -3.0768   30.8836 H   0  0  0  0  0  0  0  0  0  0  0  0
   11.4481   -3.6526   23.0173 H   0  0  0  0  0  0  0  0  0  0  0  0
    5.9020   -3.4518   23.0272 H   0  0  0  0  0  0  0  0  0  0  0  0
    5.8050   -4.1062   26.3157 H   0  0  0  0  0  0  0  0  0  0  0  0
   11.7730    0.6150   22.9034 H   0  0  0  0  0  0  0  0  0  0  0  0
   10.6289   -1.1700   26.4273 H   0  0  0  0  0  0  0  0  0  0  0  0
    9.0898   -5.5946   23.8955 H   0  0  0  0  0  0  0  0  0  0  0  0
    6.3891   -2.0621   17.8525 H   0  0  0  0  0  0  0  0  0  0  0  0
    4.6404   -2.3333   17.9973 H   0  0  0  0  0  0  0  0  0  0  0  0
    3.6246   -0.9952   20.1546 H   0  0  0  0  0  0  0  0  0  0  0  0
    4.4739    0.4888   20.5805 H   0  0  0  0  0  0  0  0  0  0  0  0
    4.6284   -1.3940   22.2848 H   0  0  0  0  0  0  0  0  0  0  0  0
    5.9263   -6.8689   24.3238 H   0  0  0  0  0  0  0  0  0  0  0  0
    5.1332   -5.3470   23.9156 H   0  0  0  0  0  0  0  0  0  0  0  0
    5.8864    1.8583   19.8873 H   0  0  0  0  0  0  0  0  0  0  0  0
    4.2473    1.8512   19.1487 H   0  0  0  0  0  0  0  0  0  0  0  0
    7.0732   -6.7933   22.2964 H   0  0  0  0  0  0  0  0  0  0  0  0
  1  3  1  0  0  0  0
  1  4  2  0  0  0  0
  2  5  1  0  0  0  0
  2  7  2  0  0  0  0
  3  8  2  0  0  0  0
  4  9  1  0  0  0  0
  5 12  2  0  0  0  0
  6 13  2  0  0  0  0
  6 16  1  0  0  0  0
  7 19  1  0  0  0  0
  8 20  1  0  0  0  0
  9 20  2  0  0  0  0
 10 11  2  0  0  0  0
 10 21  1  0  0  0  0
 11 24  1  0  0  0  0
 12 25  1  0  0  0  0
 13 26  1  0  0  0  0
 14 22  1  0  0  0  0
 14 24  2  0  0  0  0
 15 23  1  0  0  0  0
 15 27  2  0  0  0  0
 16 34  2  0  0  0  0
 17 26  2  0  0  0  0
 17 34  1  0  0  0  0
 18 23  2  0  0  0  0
 18 35  1  0  0  0  0
 19 25  2  0  0  0  0
 19 27  1  0  0  0  0
 20 31  1  0  0  0  0
 21 22  2  0  0  0  0
 21 29  1  0  0  0  0
 22 31  1  0  0  0  0
 23 32  1  0  0  0  0
 24 37  1  0  0  0  0
 25 41  1  0  0  0  0
 26 42  1  0  0  0  0
 27 35  1  0  0  0  0
 28 33  1  0  0  0  0
 28 36  1  0  0  0  0
 28 38  2  0  0  0  0
 29 36  1  0  0  0  0
 30 31  1  0  0  0  0
 30 36  1  0  0  0  0
 32 37  1  0  0  0  0
 33 43  1  0  0  0  0
 35 42  1  0  0  0  0
 39 42  2  0  0  0  0
 40 42  2  0  0  0  0
  1 44  1  0  0  0  0
  2 45  1  0  0  0  0
  3 46  1  0  0  0  0
  4 47  1  0  0  0  0
  5 48  1  0  0  0  0
  6 49  1  0  0  0  0
  7 50  1  0  0  0  0
  8 51  1  0  0  0  0
  9 52  1  0  0  0  0
 10 53  1  0  0  0  0
 11 54  1  0  0  0  0
 12 55  1  0  0  0  0
 13 56  1  0  0  0  0
 14 57  1  0  0  0  0
 15 58  1  0  0  0  0
 16 59  1  0  0  0  0
 17 60  1  0  0  0  0
 18 61  1  0  0  0  0
 29 62  1  0  0  0  0
 29 63  1  0  0  0  0
 30 64  1  0  0  0  0
 30 65  1  0  0  0  0
 31 66  1  0  0  0  0
 32 67  1  0  0  0  0
 32 68  1  0  0  0  0
 33 69  1  0  0  0  0
 33 70  1  0  0  0  0
 37 71  1  0  0  0  0
M  END
> <creator>
Maksym Voznyy

> <fragments>
x0387

> <real_space>
FALSE

> <SCR>
FALSE

> <BB>
FALSE

> <link>
https://covid.postera.ai/covid/submissions/702fb7d3-1941-4d37-9e1c-6a10ebd67f09

> <covalent_frag>
FALSE

> <covalent_warhead>
TRUE

> <acrylamide>
FALSE

> <acrylamide_adduct>
FALSE

> <chloroacetamide>
TRUE

> <chloroacetamide_adduct>
FALSE

> <vinylsulfonamide>
FALSE

> <vinylsulfonamide_adduct>
FALSE

> <in_molport_or_mcule>
FALSE

> <in_emolecules>
FALSE

> <Hybrid2>
0.205776

> <Mpro-x0387_dock>
0.205776

> <site>
active-noncovalent

> <covalent_distance_min>
6.688508

> <covalent_distance_mean>
7.1968684

> <covalent_distance_stderr>
0.027784633

$$$$
MAK-UNK-8fd-1
  -OEChem-04062011563D

 74 77  0     1  0  0  0  0  0999 V2000
   10.0913   -5.2047   24.2077 C   0  0  0  0  0  0  0  0  0  0  0  0
   10.5844   -4.8747   22.9453 C   0  0  0  0  0  0  0  0  0  0  0  0
    5.7986   -6.4991   25.8228 C   0  0  0  0  0  0  0  0  0  0  0  0
    9.3563   -4.2691   24.9358 C   0  0  0  0  0  0  0  0  0  0  0  0
   10.3426   -3.6091   22.4111 C   0  0  0  0  0  0  0  0  0  0  0  0
    6.2089   -5.4117   25.0596 C   0  0  0  0  0  0  0  0  0  0  0  0
    8.8086   -1.0987   26.0611 C   0  0  0  0  0  0  0  0  0  0  0  0
    4.6564   -6.3562   26.5940 C   0  0  0  0  0  0  0  0  0  0  0  0
    4.3470   -4.1899   25.8943 C   0  0  0  0  0  0  0  0  0  0  0  0
    6.5690   -0.9141   25.9195 C   0  0  0  0  0  0  0  0  0  0  0  0
    9.1145   -3.0035   24.4016 C   0  0  0  0  0  0  0  0  0  0  0  0
    7.6804   -0.3888   26.5409 C   0  0  0  0  0  0  0  0  0  0  0  0
    9.6076   -2.6735   23.1392 C   0  0  0  0  0  0  0  0  0  0  0  0
    5.4748   -4.2313   25.0905 C   0  0  0  0  0  0  0  0  0  0  0  0
    8.3523   -2.0362   25.1610 C   0  0  0  0  0  0  0  0  0  0  0  0
   10.4688    2.5536   23.8647 C   0  0  0  0  0  0  0  0  0  0  0  0
   12.8114   -1.3959   21.6346 C   0  0  0  0  0  0  0  0  0  0  0  0
   12.3302    0.9518   24.2651 C   0  0  0  0  0  0  0  0  0  0  0  0
   12.1087    2.1301   22.0233 C   0  0  0  0  0  0  0  0  0  0  0  0
   11.7820   -0.3129   23.6065 C   0  0  0  0  0  0  0  0  0  0  0  0
   11.5846    0.8220   21.4294 C   0  0  0  0  0  0  0  0  0  0  0  0
   11.8971    2.2285   23.5375 C   0  0  0  0  0  0  0  0  0  0  0  0
    8.2483    4.6110   24.4040 C   0  0  0  0  0  0  0  0  0  0  0  0
   11.3378    3.7913   25.8544 C   0  0  0  0  0  0  0  0  0  0  0  0
    7.6921    0.7292   27.5414 C   0  0  0  0  0  0  0  0  0  0  0  0
   13.0934   -1.3353   20.1545 C   0  0  0  0  0  0  0  0  0  0  0  0
    8.0688    2.4846   25.8049 C   0  0  0  0  0  0  0  0  0  0  0  0
    8.9082    3.7092   25.4427 C   0  0  1  0  0  0  0  0  0  0  0  0
    3.9174   -5.2256   26.6496 N   0  0  0  0  0  0  0  0  0  0  0  0
    6.9895   -1.9146   25.0826 N   0  0  0  0  0  0  0  0  0  0  0  0
   12.0943   -0.3308   22.1781 N   0  0  0  0  0  0  0  0  0  0  0  0
   10.2479    3.3211   25.0089 N   0  0  0  0  0  0  0  0  0  0  0  0
    8.4982    1.8995   27.0988 N   0  3  0  0  0  0  0  0  0  0  0  0
    9.5724    2.1382   23.1255 O   0  0  0  0  0  0  0  0  0  0  0  0
   13.2188   -2.3607   22.2868 O   0  0  0  0  0  0  0  0  0  0  0  0
    6.7873   -3.2900   23.0134 O   0  0  0  0  0  0  0  0  0  0  0  0
    4.7476   -2.0475   23.8904 O   0  0  0  0  0  0  0  0  0  0  0  0
    9.3837   -1.4610   22.6115 F   0  0  0  0  0  0  0  0  0  0  0  0
    5.9670   -2.8228   24.1305 S   0  0  0  0  0  0  0  0  0  0  0  0
   14.0307   -2.7721   19.7611 Cl  0  0  0  0  0  0  0  0  0  0  0  0
   10.2793   -6.1904   24.6233 H   0  0  0  0  0  0  0  0  0  0  0  0
   11.1562   -5.6034   22.3782 H   0  0  0  0  0  0  0  0  0  0  0  0
    6.3553   -7.4292   25.8143 H   0  0  0  0  0  0  0  0  0  0  0  0
    8.9788   -4.5418   25.9185 H   0  0  0  0  0  0  0  0  0  0  0  0
   10.7261   -3.3523   21.4280 H   0  0  0  0  0  0  0  0  0  0  0  0
    7.1010   -5.4943   24.4450 H   0  0  0  0  0  0  0  0  0  0  0  0
    9.8412   -0.9414   26.3435 H   0  0  0  0  0  0  0  0  0  0  0  0
    4.2945   -7.1749   27.2072 H   0  0  0  0  0  0  0  0  0  0  0  0
    3.7337   -3.2965   25.9595 H   0  0  0  0  0  0  0  0  0  0  0  0
    5.5206   -0.6590   26.0038 H   0  0  0  0  0  0  0  0  0  0  0  0
   12.0083    0.9806   25.3131 H   0  0  0  0  0  0  0  0  0  0  0  0
   13.4266    0.8999   24.2708 H   0  0  0  0  0  0  0  0  0  0  0  0
   13.1831    2.2046   21.8109 H   0  0  0  0  0  0  0  0  0  0  0  0
   11.6259    2.9741   21.5159 H   0  0  0  0  0  0  0  0  0  0  0  0
   12.1937   -1.1950   24.1072 H   0  0  0  0  0  0  0  0  0  0  0  0
   10.6915   -0.3633   23.7065 H   0  0  0  0  0  0  0  0  0  0  0  0
   10.4905    0.7830   21.4804 H   0  0  0  0  0  0  0  0  0  0  0  0
   11.8529    0.7750   20.3724 H   0  0  0  0  0  0  0  0  0  0  0  0
   12.4874    3.0691   23.9234 H   0  0  0  0  0  0  0  0  0  0  0  0
    8.0797    4.0710   23.4670 H   0  0  0  0  0  0  0  0  0  0  0  0
    7.2776    4.9663   24.7679 H   0  0  0  0  0  0  0  0  0  0  0  0
    8.8530    5.4981   24.1889 H   0  0  0  0  0  0  0  0  0  0  0  0
   11.6793    4.7751   25.5000 H   0  0  0  0  0  0  0  0  0  0  0  0
   10.9850    3.8780   26.8927 H   0  0  0  0  0  0  0  0  0  0  0  0
   12.1718    3.0756   25.8091 H   0  0  0  0  0  0  0  0  0  0  0  0
    6.6793    1.0994   27.7334 H   0  0  0  0  0  0  0  0  0  0  0  0
    8.1139    0.4001   28.4972 H   0  0  0  0  0  0  0  0  0  0  0  0
   13.6726   -0.4436   19.9434 H   0  0  0  0  0  0  0  0  0  0  0  0
   12.1522   -1.3458   19.6169 H   0  0  0  0  0  0  0  0  0  0  0  0
    8.1640    1.6932   25.0552 H   0  0  0  0  0  0  0  0  0  0  0  0
    7.0117    2.7447   25.9202 H   0  0  0  0  0  0  0  0  0  0  0  0
    9.0532    4.2975   26.3568 H   0  0  0  0  0  0  0  0  0  0  0  0
    8.4629    2.6255   27.8290 H   0  0  0  0  0  0  0  0  0  0  0  0
    9.4876    1.6190   27.0341 H   0  0  0  0  0  0  0  0  0  0  0  0
  1  2  1  0  0  0  0
  1  4  2  0  0  0  0
  2  5  2  0  0  0  0
  3  6  2  0  0  0  0
  3  8  1  0  0  0  0
  4 11  1  0  0  0  0
  5 13  1  0  0  0  0
  6 14  1  0  0  0  0
  7 12  1  0  0  0  0
  7 15  2  0  0  0  0
  8 29  2  0  0  0  0
  9 14  2  0  0  0  0
  9 29  1  0  0  0  0
 10 12  2  0  0  0  0
 10 30  1  0  0  0  0
 11 13  2  0  0  0  0
 11 15  1  0  0  0  0
 12 25  1  0  0  0  0
 13 38  1  0  0  0  0
 14 39  1  0  0  0  0
 15 30  1  0  0  0  0
 16 22  1  0  0  0  0
 16 32  1  0  0  0  0
 16 34  2  0  0  0  0
 17 26  1  0  0  0  0
 17 31  1  0  0  0  0
 17 35  2  0  0  0  0
 18 20  1  0  0  0  0
 18 22  1  0  0  0  0
 19 21  1  0  0  0  0
 19 22  1  0  0  0  0
 20 31  1  0  0  0  0
 21 31  1  0  0  0  0
 23 28  1  0  0  0  0
 24 32  1  0  0  0  0
 25 33  1  0  0  0  0
 26 40  1  0  0  0  0
 27 28  1  0  0  0  0
 27 33  1  0  0  0  0
 28 32  1  0  0  0  0
 30 39  1  0  0  0  0
 36 39  2  0  0  0  0
 37 39  2  0  0  0  0
  1 41  1  0  0  0  0
  2 42  1  0  0  0  0
  3 43  1  0  0  0  0
  4 44  1  0  0  0  0
  5 45  1  0  0  0  0
  6 46  1  0  0  0  0
  7 47  1  0  0  0  0
  8 48  1  0  0  0  0
  9 49  1  0  0  0  0
 10 50  1  0  0  0  0
 18 51  1  0  0  0  0
 18 52  1  0  0  0  0
 19 53  1  0  0  0  0
 19 54  1  0  0  0  0
 20 55  1  0  0  0  0
 20 56  1  0  0  0  0
 21 57  1  0  0  0  0
 21 58  1  0  0  0  0
 22 59  1  0  0  0  0
 23 60  1  0  0  0  0
 23 61  1  0  0  0  0
 23 62  1  0  0  0  0
 24 63  1  0  0  0  0
 24 64  1  0  0  0  0
 24 65  1  0  0  0  0
 25 66  1  0  0  0  0
 25 67  1  0  0  0  0
 26 68  1  0  0  0  0
 26 69  1  0  0  0  0
 27 70  1  0  0  0  0
 27 71  1  0  0  0  0
 28 72  1  0  0  0  0
 33 73  1  0  0  0  0
 33 74  1  0  0  0  0
M  CHG  1  33   1
M  END
> <creator>
Maksym Voznyy

> <fragments>
x0305

> <real_space>
FALSE

> <SCR>
FALSE

> <BB>
FALSE

> <link>
https://covid.postera.ai/covid/submissions/8fdbca50-c94c-4218-91b0-3b0489774fa8

> <covalent_frag>
FALSE

> <covalent_warhead>
TRUE

> <acrylamide>
FALSE

> <acrylamide_adduct>
FALSE

> <chloroacetamide>
TRUE

> <chloroacetamide_adduct>
FALSE

> <vinylsulfonamide>
FALSE

> <vinylsulfonamide_adduct>
FALSE

> <in_molport_or_mcule>
FALSE

> <in_emolecules>
FALSE

> <Hybrid2>
0.267145

> <Mpro-x0305_dock>
0.267145

> <site>
active-noncovalent

> <covalent_distance_min>
5.1968503

> <covalent_distance_mean>
5.610857

> <covalent_distance_stderr>
0.028563475

$$$$
GIA-UNK-d2d-8
  -OEChem-04062011563D

 44 45  0     1  0  0  0  0  0999 V2000
    4.3999    0.9711   21.8165 C   0  0  0  0  0  0  0  0  0  0  0  0
    2.0907    1.7185   23.9105 C   0  0  0  0  0  0  0  0  0  0  0  0
    6.7880    0.1713   19.6565 C   0  0  0  0  0  0  0  0  0  0  0  0
   -1.9680    3.1338   24.3346 C   0  0  0  0  0  0  0  0  0  0  0  0
   -1.6417    2.2337   23.1466 C   0  0  0  0  0  0  0  0  0  0  0  0
   -0.8328    4.1102   24.6271 C   0  0  0  0  0  0  0  0  0  0  0  0
    4.8453    3.9373   22.7955 C   0  0  0  0  0  0  0  0  0  0  0  0
    5.5772    2.6557   23.1843 C   0  0  0  0  0  0  0  0  0  0  0  0
   -0.3145    1.5051   23.3399 C   0  0  0  0  0  0  0  0  0  0  0  0
    0.4965    3.3861   24.8236 C   0  0  0  0  0  0  0  0  0  0  0  0
    3.4968    3.7878   23.4821 C   0  0  0  0  0  0  0  0  0  0  0  0
    4.4722    1.6050   23.1927 C   0  0  1  0  0  0  0  0  0  0  0  0
    0.8277    2.4795   23.6361 C   0  0  0  0  0  0  0  0  0  0  0  0
    5.2167   -0.2701   21.5216 C   0  0  0  0  0  0  0  0  0  0  0  0
    6.9941   -0.0719   18.1833 C   0  0  0  0  0  0  0  0  0  0  0  0
    3.2626    2.3478   23.5262 N   0  0  0  0  0  0  0  0  0  0  0  0
    5.6026   -0.3681   20.1463 N   0  0  0  0  0  0  0  0  0  0  0  0
    3.6840    1.4604   20.9391 O   0  0  0  0  0  0  0  0  0  0  0  0
    2.0455    0.6057   24.4376 O   0  0  0  0  0  0  0  0  0  0  0  0
    7.6147    0.7773   20.3359 O   0  0  0  0  0  0  0  0  0  0  0  0
    6.2695    1.2816   17.3013 Cl  0  0  0  0  0  0  0  0  0  0  0  0
   -2.8886    3.6936   24.1276 H   0  0  0  0  0  0  0  0  0  0  0  0
   -2.1615    2.5181   25.2205 H   0  0  0  0  0  0  0  0  0  0  0  0
   -2.4473    1.5030   23.0125 H   0  0  0  0  0  0  0  0  0  0  0  0
   -1.6019    2.8336   22.2315 H   0  0  0  0  0  0  0  0  0  0  0  0
   -0.7413    4.8215   23.7982 H   0  0  0  0  0  0  0  0  0  0  0  0
   -1.0757    4.6986   25.5197 H   0  0  0  0  0  0  0  0  0  0  0  0
    5.3818    4.8334   23.1199 H   0  0  0  0  0  0  0  0  0  0  0  0
    4.7156    3.9890   21.7082 H   0  0  0  0  0  0  0  0  0  0  0  0
    6.3898    2.4304   22.4869 H   0  0  0  0  0  0  0  0  0  0  0  0
    6.0002    2.7630   24.1904 H   0  0  0  0  0  0  0  0  0  0  0  0
   -0.4157    0.7742   24.1400 H   0  0  0  0  0  0  0  0  0  0  0  0
   -0.0765    0.9648   22.4236 H   0  0  0  0  0  0  0  0  0  0  0  0
    1.2901    4.1284   24.9248 H   0  0  0  0  0  0  0  0  0  0  0  0
    0.4621    2.8104   25.7487 H   0  0  0  0  0  0  0  0  0  0  0  0
    3.5313    4.1561   24.5132 H   0  0  0  0  0  0  0  0  0  0  0  0
    2.6927    4.2996   22.9465 H   0  0  0  0  0  0  0  0  0  0  0  0
    4.6771    0.8070   23.9274 H   0  0  0  0  0  0  0  0  0  0  0  0
    1.0194    3.0865   22.7644 H   0  0  0  0  0  0  0  0  0  0  0  0
    4.6235   -1.1553   21.7658 H   0  0  0  0  0  0  0  0  0  0  0  0
    6.1289   -0.2493   22.1235 H   0  0  0  0  0  0  0  0  0  0  0  0
    8.0506   -0.1407   17.9128 H   0  0  0  0  0  0  0  0  0  0  0  0
    6.4904   -0.9984   17.8941 H   0  0  0  0  0  0  0  0  0  0  0  0
    4.9817   -0.8544   19.4974 H   0  0  0  0  0  0  0  0  0  0  0  0
  1 12  1  0  0  0  0
  1 14  1  0  0  0  0
  1 18  2  0  0  0  0
  2 13  1  0  0  0  0
  2 16  1  0  0  0  0
  2 19  2  0  0  0  0
  3 15  1  0  0  0  0
  3 17  1  0  0  0  0
  3 20  2  0  0  0  0
  4  5  1  0  0  0  0
  4  6  1  0  0  0  0
  5  9  1  0  0  0  0
  6 10  1  0  0  0  0
  7  8  1  0  0  0  0
  7 11  1  0  0  0  0
  8 12  1  0  0  0  0
  9 13  1  0  0  0  0
 10 13  1  0  0  0  0
 11 16  1  0  0  0  0
 12 16  1  0  0  0  0
 14 17  1  0  0  0  0
 15 21  1  0  0  0  0
  4 22  1  0  0  0  0
  4 23  1  0  0  0  0
  5 24  1  0  0  0  0
  5 25  1  0  0  0  0
  6 26  1  0  0  0  0
  6 27  1  0  0  0  0
  7 28  1  0  0  0  0
  7 29  1  0  0  0  0
  8 30  1  0  0  0  0
  8 31  1  0  0  0  0
  9 32  1  0  0  0  0
  9 33  1  0  0  0  0
 10 34  1  0  0  0  0
 10 35  1  0  0  0  0
 11 36  1  0  0  0  0
 11 37  1  0  0  0  0
 12 38  1  0  0  0  0
 13 39  1  0  0  0  0
 14 40  1  0  0  0  0
 14 41  1  0  0  0  0
 15 42  1  0  0  0  0
 15 43  1  0  0  0  0
 17 44  1  0  0  0  0
M  END
> <creator>
Gianfranco Lopopolo

> <fragments>
x0540

> <real_space>
FALSE

> <SCR>
FALSE

> <BB>
FALSE

> <link>
https://covid.postera.ai/covid/submissions/d2defdc3-6611-4e76-b6eb-273d365b95ae

> <covalent_frag>
FALSE

> <covalent_warhead>
TRUE

> <acrylamide>
FALSE

> <acrylamide_adduct>
FALSE

> <chloroacetamide>
TRUE

> <chloroacetamide_adduct>
FALSE

> <vinylsulfonamide>
FALSE

> <vinylsulfonamide_adduct>
FALSE

> <in_molport_or_mcule>
FALSE

> <in_emolecules>
FALSE

> <Hybrid2>
0.300617

> <Mpro-x0540_dock>
0.300617

> <site>
active-noncovalent

> <covalent_distance_min>
4.4844637

> <covalent_distance_mean>
5.290753

> <covalent_distance_stderr>
0.07203995

$$$$
MAK-UNK-8fd-31
  -OEChem-04062011563D

 74 77  0     0  0  0  0  0  0999 V2000
    9.4866   -2.4828   20.4792 C   0  0  0  0  0  0  0  0  0  0  0  0
    6.4833   -6.4700   27.5202 C   0  0  0  0  0  0  0  0  0  0  0  0
   10.5460   -2.1428   21.3203 C   0  0  0  0  0  0  0  0  0  0  0  0
    8.1943   -2.5893   20.9933 C   0  0  0  0  0  0  0  0  0  0  0  0
    7.6057   -5.7440   27.1375 C   0  0  0  0  0  0  0  0  0  0  0  0
    8.4237   -0.5951   25.2142 C   0  0  0  0  0  0  0  0  0  0  0  0
    5.5162   -6.7227   26.5608 C   0  0  0  0  0  0  0  0  0  0  0  0
    6.7022   -5.6043   24.9419 C   0  0  0  0  0  0  0  0  0  0  0  0
    8.4923   -2.2204   26.7709 C   0  0  0  0  0  0  0  0  0  0  0  0
    9.0209   -2.0158   23.1899 C   0  0  0  0  0  0  0  0  0  0  0  0
    8.2591   -0.8746   26.5932 C   0  0  0  0  0  0  0  0  0  0  0  0
   10.3132   -1.9093   22.6757 C   0  0  0  0  0  0  0  0  0  0  0  0
    7.9615   -2.3558   22.3487 C   0  0  0  0  0  0  0  0  0  0  0  0
    7.7249   -5.2990   25.8256 C   0  0  0  0  0  0  0  0  0  0  0  0
    8.7523   -1.7787   24.5909 C   0  0  0  0  0  0  0  0  0  0  0  0
   11.4706   -0.3349   24.2227 C   0  0  0  0  0  0  0  0  0  0  0  0
   12.4866    4.8870   23.9373 C   0  0  0  0  0  0  0  0  0  0  0  0
   10.3065    1.8377   24.5432 C   0  0  0  0  0  0  0  0  0  0  0  0
   11.9491    1.4824   22.6165 C   0  0  0  0  0  0  0  0  0  0  0  0
   11.3235    2.8949   24.9679 C   0  0  0  0  0  0  0  0  0  0  0  0
   11.7862    2.9942   22.5135 C   0  0  0  0  0  0  0  0  0  0  0  0
   10.8828    0.8525   23.5199 C   0  0  0  0  0  0  0  0  0  0  0  0
   12.5839   -2.9535   25.1581 C   0  0  0  0  0  0  0  0  0  0  0  0
   13.7959   -2.0273   23.1533 C   0  0  0  0  0  0  0  0  0  0  0  0
   10.2365    0.2886   28.5178 C   0  0  0  0  0  0  0  0  0  0  0  0
    7.9037    0.0959   27.6464 C   0  0  0  0  0  0  0  0  0  0  0  0
   13.1789    5.1796   25.2461 C   0  0  0  0  0  0  0  0  0  0  0  0
   12.4815   -2.5779   23.6869 C   0  0  0  0  0  0  0  0  0  0  0  0
    5.5970   -6.3070   25.2769 N   0  0  0  0  0  0  0  0  0  0  0  0
    8.7909   -2.7599   25.5469 N   0  0  0  0  0  0  0  0  0  0  0  0
   11.8787    3.6347   23.8273 N   0  0  0  0  0  0  0  0  0  0  0  0
   11.4354   -1.5569   23.5221 N   0  0  0  0  0  0  0  0  0  0  0  0
    9.0262    1.0017   28.0408 N   0  3  0  0  0  0  0  0  0  0  0  0
   11.9675   -0.1571   25.3377 O   0  0  0  0  0  0  0  0  0  0  0  0
   12.4817    5.7404   23.0470 O   0  0  0  0  0  0  0  0  0  0  0  0
   10.2514   -4.6700   26.2049 O   0  0  0  0  0  0  0  0  0  0  0  0
    9.2686   -4.6007   23.8592 O   0  0  0  0  0  0  0  0  0  0  0  0
    6.7121   -2.4617   22.8252 F   0  0  0  0  0  0  0  0  0  0  0  0
    9.1421   -4.3701   25.3002 S   0  0  0  0  0  0  0  0  0  0  0  0
   12.4114    6.6168   25.9116 Cl  0  0  0  0  0  0  0  0  0  0  0  0
    9.6676   -2.6641   19.4238 H   0  0  0  0  0  0  0  0  0  0  0  0
    6.3691   -6.8269   28.5373 H   0  0  0  0  0  0  0  0  0  0  0  0
   11.5484   -2.0626   20.9077 H   0  0  0  0  0  0  0  0  0  0  0  0
    7.3699   -2.8537   20.3377 H   0  0  0  0  0  0  0  0  0  0  0  0
    8.3808   -5.5304   27.8683 H   0  0  0  0  0  0  0  0  0  0  0  0
    8.3140    0.3666   24.7304 H   0  0  0  0  0  0  0  0  0  0  0  0
    4.6217   -7.2847   26.8086 H   0  0  0  0  0  0  0  0  0  0  0  0
    6.7388   -5.2844   23.9052 H   0  0  0  0  0  0  0  0  0  0  0  0
    8.4700   -2.8339   27.6622 H   0  0  0  0  0  0  0  0  0  0  0  0
    9.9504    1.3026   25.4305 H   0  0  0  0  0  0  0  0  0  0  0  0
    9.4373    2.3403   24.1023 H   0  0  0  0  0  0  0  0  0  0  0  0
   11.8638    1.0495   21.6162 H   0  0  0  0  0  0  0  0  0  0  0  0
   12.9486    1.2496   22.9899 H   0  0  0  0  0  0  0  0  0  0  0  0
   10.8550    3.5877   25.6857 H   0  0  0  0  0  0  0  0  0  0  0  0
   12.1722    2.4306   25.4985 H   0  0  0  0  0  0  0  0  0  0  0  0
   12.5767    3.4303   21.8857 H   0  0  0  0  0  0  0  0  0  0  0  0
   10.8379    3.2212   22.0145 H   0  0  0  0  0  0  0  0  0  0  0  0
   10.0771    0.4603   22.9007 H   0  0  0  0  0  0  0  0  0  0  0  0
   12.8741   -2.0877   25.7623 H   0  0  0  0  0  0  0  0  0  0  0  0
   11.6301   -3.3329   25.5414 H   0  0  0  0  0  0  0  0  0  0  0  0
   13.3339   -3.7380   25.3076 H   0  0  0  0  0  0  0  0  0  0  0  0
   14.1073   -1.1451   23.7234 H   0  0  0  0  0  0  0  0  0  0  0  0
   13.6982   -1.7348   22.1027 H   0  0  0  0  0  0  0  0  0  0  0  0
   14.6000   -2.7679   23.2280 H   0  0  0  0  0  0  0  0  0  0  0  0
   10.5668   -0.3792   27.7201 H   0  0  0  0  0  0  0  0  0  0  0  0
   10.9982    1.0373   28.7437 H   0  0  0  0  0  0  0  0  0  0  0  0
    9.9620   -0.2742   29.4121 H   0  0  0  0  0  0  0  0  0  0  0  0
    7.0779    0.7633   27.3421 H   0  0  0  0  0  0  0  0  0  0  0  0
    7.5793   -0.3972   28.5801 H   0  0  0  0  0  0  0  0  0  0  0  0
   14.2279    5.3734   25.0532 H   0  0  0  0  0  0  0  0  0  0  0  0
   13.0369    4.3382   25.9145 H   0  0  0  0  0  0  0  0  0  0  0  0
   12.1906   -3.4578   23.1028 H   0  0  0  0  0  0  0  0  0  0  0  0
    8.6923    1.6389   28.7731 H   0  0  0  0  0  0  0  0  0  0  0  0
    9.2701    1.5920   27.2372 H   0  0  0  0  0  0  0  0  0  0  0  0
  1  3  2  0  0  0  0
  1  4  1  0  0  0  0
  2  5  2  0  0  0  0
  2  7  1  0  0  0  0
  3 12  1  0  0  0  0
  4 13  2  0  0  0  0
  5 14  1  0  0  0  0
  6 11  1  0  0  0  0
  6 15  2  0  0  0  0
  7 29  2  0  0  0  0
  8 14  2  0  0  0  0
  8 29  1  0  0  0  0
  9 11  2  0  0  0  0
  9 30  1  0  0  0  0
 10 12  2  0  0  0  0
 10 13  1  0  0  0  0
 10 15  1  0  0  0  0
 11 26  1  0  0  0  0
 12 32  1  0  0  0  0
 13 38  1  0  0  0  0
 14 39  1  0  0  0  0
 15 30  1  0  0  0  0
 16 22  1  0  0  0  0
 16 32  1  0  0  0  0
 16 34  2  0  0  0  0
 17 27  1  0  0  0  0
 17 31  1  0  0  0  0
 17 35  2  0  0  0  0
 18 20  1  0  0  0  0
 18 22  1  0  0  0  0
 19 21  1  0  0  0  0
 19 22  1  0  0  0  0
 20 31  1  0  0  0  0
 21 31  1  0  0  0  0
 23 28  1  0  0  0  0
 24 28  1  0  0  0  0
 25 33  1  0  0  0  0
 26 33  1  0  0  0  0
 27 40  1  0  0  0  0
 28 32  1  0  0  0  0
 30 39  1  0  0  0  0
 36 39  2  0  0  0  0
 37 39  2  0  0  0  0
  1 41  1  0  0  0  0
  2 42  1  0  0  0  0
  3 43  1  0  0  0  0
  4 44  1  0  0  0  0
  5 45  1  0  0  0  0
  6 46  1  0  0  0  0
  7 47  1  0  0  0  0
  8 48  1  0  0  0  0
  9 49  1  0  0  0  0
 18 50  1  0  0  0  0
 18 51  1  0  0  0  0
 19 52  1  0  0  0  0
 19 53  1  0  0  0  0
 20 54  1  0  0  0  0
 20 55  1  0  0  0  0
 21 56  1  0  0  0  0
 21 57  1  0  0  0  0
 22 58  1  0  0  0  0
 23 59  1  0  0  0  0
 23 60  1  0  0  0  0
 23 61  1  0  0  0  0
 24 62  1  0  0  0  0
 24 63  1  0  0  0  0
 24 64  1  0  0  0  0
 25 65  1  0  0  0  0
 25 66  1  0  0  0  0
 25 67  1  0  0  0  0
 26 68  1  0  0  0  0
 26 69  1  0  0  0  0
 27 70  1  0  0  0  0
 27 71  1  0  0  0  0
 28 72  1  0  0  0  0
 33 73  1  0  0  0  0
 33 74  1  0  0  0  0
M  CHG  1  33   1
M  END
> <creator>
Maksym Voznyy

> <fragments>
x0305

> <real_space>
FALSE

> <SCR>
FALSE

> <BB>
FALSE

> <link>
https://covid.postera.ai/covid/submissions/8fdbca50-c94c-4218-91b0-3b0489774fa8

> <covalent_frag>
FALSE

> <covalent_warhead>
TRUE

> <acrylamide>
FALSE

> <acrylamide_adduct>
FALSE

> <chloroacetamide>
TRUE

> <chloroacetamide_adduct>
FALSE

> <vinylsulfonamide>
FALSE

> <vinylsulfonamide_adduct>
FALSE

> <in_molport_or_mcule>
FALSE

> <in_emolecules>
FALSE

> <Hybrid2>
0.410786

> <Mpro-x0305_dock>
0.410786

> <site>
active-noncovalent

> <covalent_distance_min>
10.995717

> <covalent_distance_mean>
12.000612

> <covalent_distance_stderr>
0.0738429

$$$$
DAV-CRI-f9b-5
  -OEChem-04062011563D

 74 77  0     1  0  0  0  0  0999 V2000
   12.3325   -2.9149   25.3901 C   0  0  0  0  0  0  0  0  0  0  0  0
   12.0997   -0.1637   22.9700 C   0  0  0  0  0  0  0  0  0  0  0  0
   11.8766   -4.2165   25.6142 C   0  0  0  0  0  0  0  0  0  0  0  0
   12.5719    1.1322   22.7620 C   0  0  0  0  0  0  0  0  0  0  0  0
   10.6405   -2.5668   23.6933 C   0  0  0  0  0  0  0  0  0  0  0  0
   12.8024   -0.0493   25.2787 C   0  0  0  0  0  0  0  0  0  0  0  0
   11.7240   -2.0991   24.4426 C   0  0  0  0  0  0  0  0  0  0  0  0
   12.2148   -0.7544   24.2284 C   0  0  0  0  0  0  0  0  0  0  0  0
   10.1599   -3.8780   23.8998 C   0  0  0  0  0  0  0  0  0  0  0  0
   13.2747    1.2466   25.0707 C   0  0  0  0  0  0  0  0  0  0  0  0
   10.7879   -4.6797   24.8578 C   0  0  0  0  0  0  0  0  0  0  0  0
   13.1595    1.8373   23.8123 C   0  0  0  0  0  0  0  0  0  0  0  0
    8.9325   -5.6981   23.6807 C   0  0  0  0  0  0  0  0  0  0  0  0
    4.6868   -5.1654   24.5897 C   0  0  0  0  0  0  0  0  0  0  0  0
    7.6726   -1.7610   18.6813 C   0  0  0  0  0  0  0  0  0  0  0  0
    5.7469   -3.0729   20.9547 C   0  0  0  0  0  0  0  0  0  0  0  0
    7.6360   -6.4985   21.6619 C   0  0  0  0  0  0  0  0  0  0  0  0
    6.1746   -6.2643   21.2893 C   0  0  0  0  0  0  0  0  0  0  0  0
    6.5434   -6.6637   23.9824 C   0  0  0  0  0  0  0  0  0  0  0  0
    7.8591   -6.6573   23.1811 C   0  0  2  0  0  0  0  0  0  0  0  0
    5.5220   -5.2184   22.1936 C   0  0  1  0  0  0  0  0  0  0  0  0
    7.8733    0.2258   23.8995 C   0  0  0  0  0  0  0  0  0  0  0  0
    3.6993   -4.1029   24.1719 C   0  0  0  0  0  0  0  0  0  0  0  0
    7.8422   -1.9212   20.1819 C   0  0  0  0  0  0  0  0  0  0  0  0
    6.5358   -1.7740   20.9625 C   0  0  2  0  0  0  0  0  0  0  0  0
    7.1423    0.0882   22.5664 C   0  0  2  0  0  0  0  0  0  0  0  0
    9.0994   -4.4752   23.2341 N   0  0  0  0  0  0  0  0  0  0  0  0
    5.5783   -5.6217   23.6104 N   0  0  0  0  0  0  0  0  0  0  0  0
    8.8491   -1.9780   17.9959 N   0  0  0  0  0  0  0  0  0  0  0  0
    5.9555    0.9376   22.5771 N   0  0  0  0  0  0  0  0  0  0  0  0
   13.3137    3.5999   21.8188 N   0  0  0  0  0  0  0  0  0  0  0  0
    6.1279   -3.9236   21.9812 N   0  0  0  0  0  0  0  0  0  0  0  0
    6.8509   -1.3744   22.3654 N   0  3  0  0  0  0  0  0  0  0  0  0
   13.8103    1.8717   26.0550 O   0  5  0  0  0  0  0  0  0  0  0  0
    4.6624   -5.5865   25.7495 O   0  0  0  0  0  0  0  0  0  0  0  0
    6.6104   -1.4762   18.1360 O   0  0  0  0  0  0  0  0  0  0  0  0
    4.8720   -3.3126   20.1256 O   0  0  0  0  0  0  0  0  0  0  0  0
   12.9197    4.3933   24.2397 O   0  0  0  0  0  0  0  0  0  0  0  0
   15.1749    3.4730   23.5955 O   0  0  0  0  0  0  0  0  0  0  0  0
   10.0087   -6.2171   24.9048 S   0  0  0  0  0  0  0  0  0  0  0  0
   13.7281    3.4655   23.4685 S   0  0  0  0  0  0  0  0  0  0  0  0
    2.2834   -4.9466   23.5550 Cl  0  0  0  0  0  0  0  0  0  0  0  0
   13.1762   -2.5518   25.9734 H   0  0  0  0  0  0  0  0  0  0  0  0
   11.6441   -0.7005   22.1412 H   0  0  0  0  0  0  0  0  0  0  0  0
   12.3570   -4.8477   26.3555 H   0  0  0  0  0  0  0  0  0  0  0  0
   12.4750    1.5805   21.7767 H   0  0  0  0  0  0  0  0  0  0  0  0
   10.1612   -1.9325   22.9513 H   0  0  0  0  0  0  0  0  0  0  0  0
   12.8861   -0.5228   26.2575 H   0  0  0  0  0  0  0  0  0  0  0  0
    8.0086   -7.3992   21.1332 H   0  0  0  0  0  0  0  0  0  0  0  0
    8.2558   -5.6637   21.2738 H   0  0  0  0  0  0  0  0  0  0  0  0
    6.1038   -5.9641   20.2405 H   0  0  0  0  0  0  0  0  0  0  0  0
    5.6271   -7.2072   21.3842 H   0  0  0  0  0  0  0  0  0  0  0  0
    6.0700   -7.6652   23.9044 H   0  0  0  0  0  0  0  0  0  0  0  0
    6.7482   -6.5352   25.0672 H   0  0  0  0  0  0  0  0  0  0  0  0
    8.3292   -7.7000   23.3145 H   0  0  0  0  0  0  0  0  0  0  0  0
    4.4885   -5.1034   21.8672 H   0  0  0  0  0  0  0  0  0  0  0  0
    7.2353   -0.0659   24.7418 H   0  0  0  0  0  0  0  0  0  0  0  0
    8.1981    1.2595   24.0637 H   0  0  0  0  0  0  0  0  0  0  0  0
    8.7690   -0.4052   23.9223 H   0  0  0  0  0  0  0  0  0  0  0  0
    4.1437   -3.4992   23.3891 H   0  0  0  0  0  0  0  0  0  0  0  0
    3.4320   -3.5116   25.0400 H   0  0  0  0  0  0  0  0  0  0  0  0
    8.5868   -1.1953   20.5331 H   0  0  0  0  0  0  0  0  0  0  0  0
    8.2703   -2.9181   20.3482 H   0  0  0  0  0  0  0  0  0  0  0  0
    5.9091   -0.9698   20.5608 H   0  0  0  0  0  0  0  0  0  0  0  0
    7.8133    0.3887   21.7538 H   0  0  0  0  0  0  0  0  0  0  0  0
    8.8848   -1.9045   16.9845 H   0  0  0  0  0  0  0  0  0  0  0  0
    9.7160   -2.2164   18.4671 H   0  0  0  0  0  0  0  0  0  0  0  0
    6.2321    1.9130   22.6818 H   0  0  0  0  0  0  0  0  0  0  0  0
    5.4805    0.8747   21.6778 H   0  0  0  0  0  0  0  0  0  0  0  0
   12.5353    4.2220   21.5687 H   0  0  0  0  0  0  0  0  0  0  0  0
   14.0760    3.5914   21.1302 H   0  0  0  0  0  0  0  0  0  0  0  0
    6.8651   -3.6236   22.6116 H   0  0  0  0  0  0  0  0  0  0  0  0
    7.6600   -1.9280   22.6765 H   0  0  0  0  0  0  0  0  0  0  0  0
    6.0695   -1.6493   22.9745 H   0  0  0  0  0  0  0  0  0  0  0  0
  1  3  2  0  0  0  0
  1  7  1  0  0  0  0
  2  4  2  0  0  0  0
  2  8  1  0  0  0  0
  3 11  1  0  0  0  0
  4 12  1  0  0  0  0
  5  7  2  0  0  0  0
  5  9  1  0  0  0  0
  6  8  2  0  0  0  0
  6 10  1  0  0  0  0
  7  8  1  0  0  0  0
  9 11  2  0  0  0  0
  9 27  1  0  0  0  0
 10 12  2  0  0  0  0
 10 34  1  0  0  0  0
 11 40  1  0  0  0  0
 12 41  1  0  0  0  0
 13 20  1  0  0  0  0
 13 27  2  0  0  0  0
 13 40  1  0  0  0  0
 14 23  1  0  0  0  0
 14 28  1  0  0  0  0
 14 35  2  0  0  0  0
 15 24  1  0  0  0  0
 15 29  1  0  0  0  0
 15 36  2  0  0  0  0
 16 25  1  0  0  0  0
 16 32  1  0  0  0  0
 16 37  2  0  0  0  0
 17 18  1  0  0  0  0
 17 20  1  0  0  0  0
 18 21  1  0  0  0  0
 19 20  1  0  0  0  0
 19 28  1  0  0  0  0
 21 28  1  0  0  0  0
 21 32  1  0  0  0  0
 22 26  1  0  0  0  0
 23 42  1  0  0  0  0
 24 25  1  0  0  0  0
 25 33  1  0  0  0  0
 26 30  1  0  0  0  0
 26 33  1  0  0  0  0
 31 41  1  0  0  0  0
 38 41  2  0  0  0  0
 39 41  2  0  0  0  0
  1 43  1  0  0  0  0
  2 44  1  0  0  0  0
  3 45  1  0  0  0  0
  4 46  1  0  0  0  0
  5 47  1  0  0  0  0
  6 48  1  0  0  0  0
 17 49  1  0  0  0  0
 17 50  1  0  0  0  0
 18 51  1  0  0  0  0
 18 52  1  0  0  0  0
 19 53  1  0  0  0  0
 19 54  1  0  0  0  0
 20 55  1  0  0  0  0
 21 56  1  0  0  0  0
 22 57  1  0  0  0  0
 22 58  1  0  0  0  0
 22 59  1  0  0  0  0
 23 60  1  0  0  0  0
 23 61  1  0  0  0  0
 24 62  1  0  0  0  0
 24 63  1  0  0  0  0
 25 64  1  0  0  0  0
 26 65  1  0  0  0  0
 29 66  1  0  0  0  0
 29 67  1  0  0  0  0
 30 68  1  0  0  0  0
 30 69  1  0  0  0  0
 31 70  1  0  0  0  0
 31 71  1  0  0  0  0
 32 72  1  0  0  0  0
 33 73  1  0  0  0  0
 33 74  1  0  0  0  0
M  CHG  2  33   1  34  -1
M  END
> <creator>
David Briggs, Crick Institute

> <fragments>
x0749

> <real_space>
FALSE

> <SCR>
FALSE

> <BB>
FALSE

> <link>
https://covid.postera.ai/covid/submissions/f9b12666-ae78-4cf8-8d60-dc19988e42d3

> <covalent_frag>
TRUE

> <covalent_warhead>
TRUE

> <acrylamide>
FALSE

> <acrylamide_adduct>
FALSE

> <chloroacetamide>
TRUE

> <chloroacetamide_adduct>
FALSE

> <vinylsulfonamide>
FALSE

> <vinylsulfonamide_adduct>
FALSE

> <in_molport_or_mcule>
FALSE

> <in_emolecules>
FALSE

> <Hybrid2>
0.436184

> <Mpro-x0749_dock>
0.436184

> <Mpro-x0981_dock>
10.773214

> <site>
active-covalent

> <covalent_distance_min>
6.9295616

> <covalent_distance_mean>
7.657088

> <covalent_distance_stderr>
0.025351997

$$$$
MAK-UNK-8fd-40
  -OEChem-04062011563D

 75 78  0     1  0  0  0  0  0999 V2000
   13.5007   -1.1941   20.8168 C   0  0  0  0  0  0  0  0  0  0  0  0
   14.7708   -0.7249   21.1517 C   0  0  0  0  0  0  0  0  0  0  0  0
    8.4397    5.4092   23.7188 C   0  0  0  0  0  0  0  0  0  0  0  0
   12.4172   -0.9331   21.6556 C   0  0  0  0  0  0  0  0  0  0  0  0
   14.9575    0.0052   22.3255 C   0  0  0  0  0  0  0  0  0  0  0  0
    8.8881    4.2405   23.1137 C   0  0  0  0  0  0  0  0  0  0  0  0
   11.0044   -0.6897   24.7479 C   0  0  0  0  0  0  0  0  0  0  0  0
    9.3622    6.1753   24.4130 C   0  0  0  0  0  0  0  0  0  0  0  0
   11.0690    4.7134   23.9360 C   0  0  0  0  0  0  0  0  0  0  0  0
    9.7029    1.1363   24.5440 C   0  0  0  0  0  0  0  0  0  0  0  0
   12.6038   -0.2031   22.8294 C   0  0  0  0  0  0  0  0  0  0  0  0
    9.8820   -0.0115   25.2841 C   0  0  0  0  0  0  0  0  0  0  0  0
   13.8740    0.2661   23.1644 C   0  0  0  0  0  0  0  0  0  0  0  0
   10.2265    3.8787   23.2196 C   0  0  0  0  0  0  0  0  0  0  0  0
   11.4770    0.0644   23.6965 C   0  0  0  0  0  0  0  0  0  0  0  0
    6.4654   -0.6744   27.7883 C   0  0  0  0  0  0  0  0  0  0  0  0
    4.4275   -5.2372   26.7459 C   0  0  0  0  0  0  0  0  0  0  0  0
    4.5009   -2.0799   28.3854 C   0  0  0  0  0  0  0  0  0  0  0  0
    6.8378   -3.0806   28.3635 C   0  0  0  0  0  0  0  0  0  0  0  0
    4.2298   -2.7914   27.0610 C   0  0  0  0  0  0  0  0  0  0  0  0
    6.4871   -3.7769   27.0479 C   0  0  0  0  0  0  0  0  0  0  0  0
    5.9934   -1.8289   28.6233 C   0  0  0  0  0  0  0  0  0  0  0  0
    6.1922    2.4107   28.1378 C   0  0  0  0  0  0  0  0  0  0  0  0
    6.1264    1.1360   30.2830 C   0  0  0  0  0  0  0  0  0  0  0  0
    8.4855   -0.6083   29.2662 C   0  0  0  0  0  0  0  0  0  0  0  0
    9.0423   -0.4595   26.4438 C   0  0  0  0  0  0  0  0  0  0  0  0
    5.3370   -6.4355   26.6421 C   0  0  0  0  0  0  0  0  0  0  0  0
    6.9940    1.4830   29.0628 C   0  0  0  0  0  0  0  0  0  0  0  0
    7.5813    0.2275   28.3497 C   0  0  2  0  0  0  0  0  0  0  0  0
   10.6700    5.8564   24.5377 N   0  0  0  0  0  0  0  0  0  0  0  0
   10.6784    1.1721   23.5820 N   0  0  0  0  0  0  0  0  0  0  0  0
    5.0420   -4.0020   26.9471 N   0  0  0  0  0  0  0  0  0  0  0  0
    8.4523    0.6657   27.2009 N   0  3  0  0  0  0  0  0  0  0  0  0
    5.9527   -0.4639   26.6865 O   0  0  0  0  0  0  0  0  0  0  0  0
    3.2076   -5.3967   26.6528 O   0  0  0  0  0  0  0  0  0  0  0  0
    9.9376    2.0359   21.3640 O   0  0  0  0  0  0  0  0  0  0  0  0
   12.2625    2.6188   22.2172 O   0  0  0  0  0  0  0  0  0  0  0  0
   14.0700    0.9696   24.2892 F   0  0  0  0  0  0  0  0  0  0  0  0
   10.8356    2.3951   22.4611 S   0  0  0  0  0  0  0  0  0  0  0  0
    4.2977   -7.8399   26.4296 Cl  0  0  0  0  0  0  0  0  0  0  0  0
   13.3555   -1.7622   19.9025 H   0  0  0  0  0  0  0  0  0  0  0  0
   15.6144   -0.9276   20.4983 H   0  0  0  0  0  0  0  0  0  0  0  0
    7.4009    5.7110   23.6494 H   0  0  0  0  0  0  0  0  0  0  0  0
   11.4334   -1.3058   21.3803 H   0  0  0  0  0  0  0  0  0  0  0  0
   15.9463    0.3709   22.5861 H   0  0  0  0  0  0  0  0  0  0  0  0
    8.1876    3.6194   22.5625 H   0  0  0  0  0  0  0  0  0  0  0  0
   11.4207   -1.6270   25.0930 H   0  0  0  0  0  0  0  0  0  0  0  0
    9.0628    7.0960   24.9030 H   0  0  0  0  0  0  0  0  0  0  0  0
   12.1236    4.4839   24.0534 H   0  0  0  0  0  0  0  0  0  0  0  0
    8.9661    1.9250   24.6232 H   0  0  0  0  0  0  0  0  0  0  0  0
    3.9429   -1.1369   28.4095 H   0  0  0  0  0  0  0  0  0  0  0  0
    4.1165   -2.6994   29.2050 H   0  0  0  0  0  0  0  0  0  0  0  0
    6.6741   -3.7859   29.1877 H   0  0  0  0  0  0  0  0  0  0  0  0
    7.9048   -2.8302   28.3654 H   0  0  0  0  0  0  0  0  0  0  0  0
    3.1638   -3.0276   26.9832 H   0  0  0  0  0  0  0  0  0  0  0  0
    4.4809   -2.1445   26.2123 H   0  0  0  0  0  0  0  0  0  0  0  0
    6.7790   -3.1586   26.1913 H   0  0  0  0  0  0  0  0  0  0  0  0
    7.0528   -4.7074   26.9725 H   0  0  0  0  0  0  0  0  0  0  0  0
    6.1357   -1.5139   29.6639 H   0  0  0  0  0  0  0  0  0  0  0  0
    5.3215    1.9068   27.7072 H   0  0  0  0  0  0  0  0  0  0  0  0
    5.8248    3.2802   28.6949 H   0  0  0  0  0  0  0  0  0  0  0  0
    6.8096    2.7949   27.3207 H   0  0  0  0  0  0  0  0  0  0  0  0
    5.2616    0.5363   29.9772 H   0  0  0  0  0  0  0  0  0  0  0  0
    5.7380    2.0352   30.7705 H   0  0  0  0  0  0  0  0  0  0  0  0
    6.6812    0.5541   31.0257 H   0  0  0  0  0  0  0  0  0  0  0  0
    9.2949    0.0007   29.6867 H   0  0  0  0  0  0  0  0  0  0  0  0
    7.9335   -1.0416   30.1075 H   0  0  0  0  0  0  0  0  0  0  0  0
    8.9520   -1.4337   28.7170 H   0  0  0  0  0  0  0  0  0  0  0  0
    8.2080   -1.0858   26.1101 H   0  0  0  0  0  0  0  0  0  0  0  0
    9.6332   -1.0435   27.1577 H   0  0  0  0  0  0  0  0  0  0  0  0
    5.9035   -6.5274   27.5617 H   0  0  0  0  0  0  0  0  0  0  0  0
    5.9805   -6.3142   25.7782 H   0  0  0  0  0  0  0  0  0  0  0  0
    7.8360    2.0798   29.4376 H   0  0  0  0  0  0  0  0  0  0  0  0
    9.1928    1.2643   27.5747 H   0  0  0  0  0  0  0  0  0  0  0  0
    7.8876    1.2496   26.5792 H   0  0  0  0  0  0  0  0  0  0  0  0
  1  2  1  0  0  0  0
  1  4  2  0  0  0  0
  2  5  2  0  0  0  0
  3  6  2  0  0  0  0
  3  8  1  0  0  0  0
  4 11  1  0  0  0  0
  5 13  1  0  0  0  0
  6 14  1  0  0  0  0
  7 12  1  0  0  0  0
  7 15  2  0  0  0  0
  8 30  2  0  0  0  0
  9 14  2  0  0  0  0
  9 30  1  0  0  0  0
 10 12  2  0  0  0  0
 10 31  1  0  0  0  0
 11 13  2  0  0  0  0
 11 15  1  0  0  0  0
 12 26  1  0  0  0  0
 13 38  1  0  0  0  0
 14 39  1  0  0  0  0
 15 31  1  0  0  0  0
 16 22  1  0  0  0  0
 16 29  1  0  0  0  0
 16 34  2  0  0  0  0
 17 27  1  0  0  0  0
 17 32  1  0  0  0  0
 17 35  2  0  0  0  0
 18 20  1  0  0  0  0
 18 22  1  0  0  0  0
 19 21  1  0  0  0  0
 19 22  1  0  0  0  0
 20 32  1  0  0  0  0
 21 32  1  0  0  0  0
 23 28  1  0  0  0  0
 24 28  1  0  0  0  0
 25 29  1  0  0  0  0
 26 33  1  0  0  0  0
 27 40  1  0  0  0  0
 28 29  1  0  0  0  0
 29 33  1  0  0  0  0
 31 39  1  0  0  0  0
 36 39  2  0  0  0  0
 37 39  2  0  0  0  0
  1 41  1  0  0  0  0
  2 42  1  0  0  0  0
  3 43  1  0  0  0  0
  4 44  1  0  0  0  0
  5 45  1  0  0  0  0
  6 46  1  0  0  0  0
  7 47  1  0  0  0  0
  8 48  1  0  0  0  0
  9 49  1  0  0  0  0
 10 50  1  0  0  0  0
 18 51  1  0  0  0  0
 18 52  1  0  0  0  0
 19 53  1  0  0  0  0
 19 54  1  0  0  0  0
 20 55  1  0  0  0  0
 20 56  1  0  0  0  0
 21 57  1  0  0  0  0
 21 58  1  0  0  0  0
 22 59  1  0  0  0  0
 23 60  1  0  0  0  0
 23 61  1  0  0  0  0
 23 62  1  0  0  0  0
 24 63  1  0  0  0  0
 24 64  1  0  0  0  0
 24 65  1  0  0  0  0
 25 66  1  0  0  0  0
 25 67  1  0  0  0  0
 25 68  1  0  0  0  0
 26 69  1  0  0  0  0
 26 70  1  0  0  0  0
 27 71  1  0  0  0  0
 27 72  1  0  0  0  0
 28 73  1  0  0  0  0
 33 74  1  0  0  0  0
 33 75  1  0  0  0  0
M  CHG  1  33   1
M  END
> <creator>
Maksym Voznyy

> <fragments>
x0305

> <real_space>
FALSE

> <SCR>
FALSE

> <BB>
FALSE

> <link>
https://covid.postera.ai/covid/submissions/8fdbca50-c94c-4218-91b0-3b0489774fa8

> <covalent_frag>
FALSE

> <covalent_warhead>
TRUE

> <acrylamide>
FALSE

> <acrylamide_adduct>
FALSE

> <chloroacetamide>
TRUE

> <chloroacetamide_adduct>
FALSE

> <vinylsulfonamide>
FALSE

> <vinylsulfonamide_adduct>
FALSE

> <in_molport_or_mcule>
FALSE

> <in_emolecules>
FALSE

> <Hybrid2>
0.491287

> <Mpro-x0305_dock>
0.491287

> <site>
active-noncovalent

> <covalent_distance_min>
10.303468

> <covalent_distance_mean>
11.896247

> <covalent_distance_stderr>
0.18464006

$$$$
MAK-UNK-8fd-36
  -OEChem-04062011563D

 74 77  0     1  0  0  0  0  0999 V2000
   14.0934   -1.9871   21.0576 C   0  0  0  0  0  0  0  0  0  0  0  0
   14.8801   -1.4033   22.0505 C   0  0  0  0  0  0  0  0  0  0  0  0
   11.9217    3.1669   24.1385 C   0  0  0  0  0  0  0  0  0  0  0  0
   12.7084   -2.0494   21.2119 C   0  0  0  0  0  0  0  0  0  0  0  0
   14.2820   -0.8820   23.1977 C   0  0  0  0  0  0  0  0  0  0  0  0
   11.7501    2.2036   23.1506 C   0  0  0  0  0  0  0  0  0  0  0  0
    9.9183   -2.5924   23.0929 C   0  0  0  0  0  0  0  0  0  0  0  0
   10.8170    3.9138   24.5148 C   0  0  0  0  0  0  0  0  0  0  0  0
    9.4559    2.8173   23.0238 C   0  0  0  0  0  0  0  0  0  0  0  0
    8.5266   -0.9750   22.3739 C   0  0  0  0  0  0  0  0  0  0  0  0
   12.1103   -1.5281   22.3591 C   0  0  0  0  0  0  0  0  0  0  0  0
    8.5601   -2.1995   23.0038 C   0  0  0  0  0  0  0  0  0  0  0  0
   12.8971   -0.9444   23.3520 C   0  0  0  0  0  0  0  0  0  0  0  0
   10.4968    2.0192   22.5774 C   0  0  0  0  0  0  0  0  0  0  0  0
   10.6735   -1.5959   22.5149 C   0  0  0  0  0  0  0  0  0  0  0  0
    6.8651   -5.2810   28.1879 C   0  0  0  0  0  0  0  0  0  0  0  0
    7.8557    0.0517   26.7525 C   0  0  0  0  0  0  0  0  0  0  0  0
    6.3551   -2.8675   28.4083 C   0  0  0  0  0  0  0  0  0  0  0  0
    7.8557   -3.6917   26.5789 C   0  0  0  0  0  0  0  0  0  0  0  0
    6.2136   -1.5362   27.6804 C   0  0  0  0  0  0  0  0  0  0  0  0
    6.6294   -4.0088   27.4333 C   0  0  1  0  0  0  0  0  0  0  0  0
    7.7649   -2.3306   25.8849 C   0  0  2  0  0  0  0  0  0  0  0  0
    6.3924   -7.0610   30.5834 C   0  0  0  0  0  0  0  0  0  0  0  0
    6.7025   -8.2883   28.4054 C   0  0  0  0  0  0  0  0  0  0  0  0
    4.4004   -5.6714   28.0512 C   0  0  0  0  0  0  0  0  0  0  0  0
    7.3755   -2.9733   23.5027 C   0  0  0  0  0  0  0  0  0  0  0  0
    9.0315    0.2941   25.8388 C   0  0  0  0  0  0  0  0  0  0  0  0
    5.8289   -7.3241   29.1945 C   0  0  0  0  0  0  0  0  0  0  0  0
    9.5841    3.7633   23.9810 N   0  0  0  0  0  0  0  0  0  0  0  0
    9.8170   -0.6177   22.0816 N   0  0  0  0  0  0  0  0  0  0  0  0
    7.3517   -1.2532   26.7977 N   0  0  0  0  0  0  0  0  0  0  0  0
    5.7419   -6.0607   28.4664 N   0  0  0  0  0  0  0  0  0  0  0  0
    6.7985   -2.4132   24.7512 N   0  3  0  0  0  0  0  0  0  0  0  0
    8.0149   -5.5778   28.5229 O   0  0  0  0  0  0  0  0  0  0  0  0
    7.4037    0.9919   27.4117 O   0  0  0  0  0  0  0  0  0  0  0  0
    9.0639    1.1857   20.5342 O   0  0  0  0  0  0  0  0  0  0  0  0
   11.5377    0.6060   20.6650 O   0  0  0  0  0  0  0  0  0  0  0  0
   12.3373   -0.4385   24.4608 F   0  0  0  0  0  0  0  0  0  0  0  0
   10.2392    0.8001   21.3145 S   0  0  0  0  0  0  0  0  0  0  0  0
   10.4803    0.0457   26.8065 Cl  0  0  0  0  0  0  0  0  0  0  0  0
   14.5593   -2.3926   20.1642 H   0  0  0  0  0  0  0  0  0  0  0  0
   15.9584   -1.3543   21.9301 H   0  0  0  0  0  0  0  0  0  0  0  0
   12.8895    3.3281   24.5993 H   0  0  0  0  0  0  0  0  0  0  0  0
   12.1091   -2.5077   20.4287 H   0  0  0  0  0  0  0  0  0  0  0  0
   14.8945   -0.4271   23.9706 H   0  0  0  0  0  0  0  0  0  0  0  0
   12.5983    1.6026   22.8349 H   0  0  0  0  0  0  0  0  0  0  0  0
   10.3016   -3.5043   23.5314 H   0  0  0  0  0  0  0  0  0  0  0  0
   10.8982    4.6778   25.2810 H   0  0  0  0  0  0  0  0  0  0  0  0
    8.4551    2.7197   22.6144 H   0  0  0  0  0  0  0  0  0  0  0  0
    7.6955   -0.3331   22.1121 H   0  0  0  0  0  0  0  0  0  0  0  0
    7.1645   -2.7945   29.1470 H   0  0  0  0  0  0  0  0  0  0  0  0
    5.4397   -3.0728   28.9766 H   0  0  0  0  0  0  0  0  0  0  0  0
    8.7537   -3.6953   27.2126 H   0  0  0  0  0  0  0  0  0  0  0  0
    8.0163   -4.4886   25.8411 H   0  0  0  0  0  0  0  0  0  0  0  0
    5.3117   -1.5374   27.0569 H   0  0  0  0  0  0  0  0  0  0  0  0
    6.0895   -0.7333   28.4147 H   0  0  0  0  0  0  0  0  0  0  0  0
    5.7556   -4.1691   26.7908 H   0  0  0  0  0  0  0  0  0  0  0  0
    8.7275   -2.1097   25.4196 H   0  0  0  0  0  0  0  0  0  0  0  0
    7.4049   -6.6489   30.5219 H   0  0  0  0  0  0  0  0  0  0  0  0
    5.7688   -6.3528   31.1405 H   0  0  0  0  0  0  0  0  0  0  0  0
    6.4383   -7.9877   31.1660 H   0  0  0  0  0  0  0  0  0  0  0  0
    7.7210   -7.8972   28.3064 H   0  0  0  0  0  0  0  0  0  0  0  0
    6.3002   -8.4448   27.3992 H   0  0  0  0  0  0  0  0  0  0  0  0
    6.7713   -9.2633   28.9009 H   0  0  0  0  0  0  0  0  0  0  0  0
    4.1923   -6.0803   27.0514 H   0  0  0  0  0  0  0  0  0  0  0  0
    3.6657   -6.0658   28.7686 H   0  0  0  0  0  0  0  0  0  0  0  0
    4.3302   -4.5741   28.0203 H   0  0  0  0  0  0  0  0  0  0  0  0
    6.5694   -2.9849   22.7613 H   0  0  0  0  0  0  0  0  0  0  0  0
    7.6448   -4.0127   23.7193 H   0  0  0  0  0  0  0  0  0  0  0  0
    8.9931    1.3165   25.4812 H   0  0  0  0  0  0  0  0  0  0  0  0
    8.9982   -0.4229   25.0267 H   0  0  0  0  0  0  0  0  0  0  0  0
    4.8172   -7.7353   29.2805 H   0  0  0  0  0  0  0  0  0  0  0  0
    5.9946   -2.9841   25.0407 H   0  0  0  0  0  0  0  0  0  0  0  0
    6.4262   -1.4740   24.5630 H   0  0  0  0  0  0  0  0  0  0  0  0
  1  2  1  0  0  0  0
  1  4  2  0  0  0  0
  2  5  2  0  0  0  0
  3  6  2  0  0  0  0
  3  8  1  0  0  0  0
  4 11  1  0  0  0  0
  5 13  1  0  0  0  0
  6 14  1  0  0  0  0
  7 12  1  0  0  0  0
  7 15  2  0  0  0  0
  8 29  2  0  0  0  0
  9 14  2  0  0  0  0
  9 29  1  0  0  0  0
 10 12  2  0  0  0  0
 10 30  1  0  0  0  0
 11 13  2  0  0  0  0
 11 15  1  0  0  0  0
 12 26  1  0  0  0  0
 13 38  1  0  0  0  0
 14 39  1  0  0  0  0
 15 30  1  0  0  0  0
 16 21  1  0  0  0  0
 16 32  1  0  0  0  0
 16 34  2  0  0  0  0
 17 27  1  0  0  0  0
 17 31  1  0  0  0  0
 17 35  2  0  0  0  0
 18 20  1  0  0  0  0
 18 21  1  0  0  0  0
 19 21  1  0  0  0  0
 19 22  1  0  0  0  0
 20 31  1  0  0  0  0
 22 31  1  0  0  0  0
 22 33  1  0  0  0  0
 23 28  1  0  0  0  0
 24 28  1  0  0  0  0
 25 32  1  0  0  0  0
 26 33  1  0  0  0  0
 27 40  1  0  0  0  0
 28 32  1  0  0  0  0
 30 39  1  0  0  0  0
 36 39  2  0  0  0  0
 37 39  2  0  0  0  0
  1 41  1  0  0  0  0
  2 42  1  0  0  0  0
  3 43  1  0  0  0  0
  4 44  1  0  0  0  0
  5 45  1  0  0  0  0
  6 46  1  0  0  0  0
  7 47  1  0  0  0  0
  8 48  1  0  0  0  0
  9 49  1  0  0  0  0
 10 50  1  0  0  0  0
 18 51  1  0  0  0  0
 18 52  1  0  0  0  0
 19 53  1  0  0  0  0
 19 54  1  0  0  0  0
 20 55  1  0  0  0  0
 20 56  1  0  0  0  0
 21 57  1  0  0  0  0
 22 58  1  0  0  0  0
 23 59  1  0  0  0  0
 23 60  1  0  0  0  0
 23 61  1  0  0  0  0
 24 62  1  0  0  0  0
 24 63  1  0  0  0  0
 24 64  1  0  0  0  0
 25 65  1  0  0  0  0
 25 66  1  0  0  0  0
 25 67  1  0  0  0  0
 26 68  1  0  0  0  0
 26 69  1  0  0  0  0
 27 70  1  0  0  0  0
 27 71  1  0  0  0  0
 28 72  1  0  0  0  0
 33 73  1  0  0  0  0
 33 74  1  0  0  0  0
M  CHG  1  33   1
M  END
> <creator>
Maksym Voznyy

> <fragments>
x0305

> <real_space>
FALSE

> <SCR>
FALSE

> <BB>
FALSE

> <link>
https://covid.postera.ai/covid/submissions/8fdbca50-c94c-4218-91b0-3b0489774fa8

> <covalent_frag>
FALSE

> <covalent_warhead>
TRUE

> <acrylamide>
FALSE

> <acrylamide_adduct>
FALSE

> <chloroacetamide>
TRUE

> <chloroacetamide_adduct>
FALSE

> <vinylsulfonamide>
FALSE

> <vinylsulfonamide_adduct>
FALSE

> <in_molport_or_mcule>
FALSE

> <in_emolecules>
FALSE

> <Hybrid2>
0.688050

> <Mpro-x0305_dock>
0.68805

> <site>
active-noncovalent

> <covalent_distance_min>
9.73175

> <covalent_distance_mean>
10.519235

> <covalent_distance_stderr>
0.04730136

$$$$
MAK-UNK-8fd-16
  -OEChem-04062011563D

 74 77  0     0  0  0  0  0  0999 V2000
   12.0214   -3.0294   21.6964 C   0  0  0  0  0  0  0  0  0  0  0  0
   13.2902   -2.6605   21.2498 C   0  0  0  0  0  0  0  0  0  0  0  0
    6.1328   -0.1846   21.0077 C   0  0  0  0  0  0  0  0  0  0  0  0
   11.2941   -2.1691   22.5191 C   0  0  0  0  0  0  0  0  0  0  0  0
   13.8320   -1.4314   21.6260 C   0  0  0  0  0  0  0  0  0  0  0  0
    7.1897    0.6420   21.3725 C   0  0  0  0  0  0  0  0  0  0  0  0
   11.0681    0.0160   25.1252 C   0  0  0  0  0  0  0  0  0  0  0  0
    6.4349   -1.4387   20.5020 C   0  0  0  0  0  0  0  0  0  0  0  0
    8.6942   -1.0757   20.7074 C   0  0  0  0  0  0  0  0  0  0  0  0
    9.6529    1.5757   24.3288 C   0  0  0  0  0  0  0  0  0  0  0  0
   11.8359   -0.9401   22.8953 C   0  0  0  0  0  0  0  0  0  0  0  0
   10.1666    1.0456   25.4917 C   0  0  0  0  0  0  0  0  0  0  0  0
   13.1048   -0.5711   22.4488 C   0  0  0  0  0  0  0  0  0  0  0  0
    8.4979    0.1955   21.2226 C   0  0  0  0  0  0  0  0  0  0  0  0
   11.0780   -0.0516   23.7494 C   0  0  0  0  0  0  0  0  0  0  0  0
    6.7922   -1.9603   27.4373 C   0  0  0  0  0  0  0  0  0  0  0  0
    6.5788   -5.8136   24.0957 C   0  0  0  0  0  0  0  0  0  0  0  0
    8.1997   -3.8101   26.5495 C   0  0  0  0  0  0  0  0  0  0  0  0
    6.8900   -2.3166   24.9629 C   0  0  0  0  0  0  0  0  0  0  0  0
    7.1524   -4.8986   26.3216 C   0  0  0  0  0  0  0  0  0  0  0  0
    5.8926   -3.4596   24.7695 C   0  0  0  0  0  0  0  0  0  0  0  0
    7.6517   -2.4033   26.2894 C   0  0  0  0  0  0  0  0  0  0  0  0
    4.9988    0.9629   28.2364 C   0  0  0  0  0  0  0  0  0  0  0  0
    6.9233    0.6174   29.8248 C   0  0  0  0  0  0  0  0  0  0  0  0
    9.8319    1.4796   26.8883 C   0  0  0  0  0  0  0  0  0  0  0  0
    6.5935   -5.4477   22.6329 C   0  0  0  0  0  0  0  0  0  0  0  0
    7.5938    0.3599   26.9621 C   0  0  0  0  0  0  0  0  0  0  0  0
    5.9929   -0.0349   28.8126 C   0  0  0  0  0  0  0  0  0  0  0  0
    7.6929   -1.9073   20.3419 N   0  0  0  0  0  0  0  0  0  0  0  0
   10.2143    0.9013   23.2761 N   0  0  0  0  0  0  0  0  0  0  0  0
    6.5350   -4.7564   25.0037 N   0  0  0  0  0  0  0  0  0  0  0  0
    6.7924   -0.5937   27.7278 N   0  0  0  0  0  0  0  0  0  0  0  0
    8.9365    0.5267   27.5956 N   0  3  0  0  0  0  0  0  0  0  0  0
    6.1329   -2.8002   28.0554 O   0  0  0  0  0  0  0  0  0  0  0  0
    6.6074   -7.0037   24.4196 O   0  0  0  0  0  0  0  0  0  0  0  0
   11.0477    0.7751   20.9301 O   0  0  0  0  0  0  0  0  0  0  0  0
    9.4000    2.6041   21.5724 O   0  0  0  0  0  0  0  0  0  0  0  0
   13.6396    0.6071   22.8014 F   0  0  0  0  0  0  0  0  0  0  0  0
    9.8721    1.2214   21.6769 S   0  0  0  0  0  0  0  0  0  0  0  0
    8.0132   -4.4384   22.3804 Cl  0  0  0  0  0  0  0  0  0  0  0  0
   11.5996   -3.9863   21.4030 H   0  0  0  0  0  0  0  0  0  0  0  0
   13.8562   -3.3300   20.6088 H   0  0  0  0  0  0  0  0  0  0  0  0
    5.1050    0.1424   21.1157 H   0  0  0  0  0  0  0  0  0  0  0  0
   10.3063   -2.4714   22.8588 H   0  0  0  0  0  0  0  0  0  0  0  0
   14.8197   -1.1439   21.2780 H   0  0  0  0  0  0  0  0  0  0  0  0
    6.9834    1.6310   21.7720 H   0  0  0  0  0  0  0  0  0  0  0  0
   11.6462   -0.6076   25.7944 H   0  0  0  0  0  0  0  0  0  0  0  0
    5.6465   -2.1215   20.2027 H   0  0  0  0  0  0  0  0  0  0  0  0
    9.6922   -1.4794   20.5674 H   0  0  0  0  0  0  0  0  0  0  0  0
    8.9389    2.3726   24.1659 H   0  0  0  0  0  0  0  0  0  0  0  0
    8.5831   -3.8881   27.5740 H   0  0  0  0  0  0  0  0  0  0  0  0
    9.0488   -3.9912   25.8779 H   0  0  0  0  0  0  0  0  0  0  0  0
    7.6134   -2.3407   24.1377 H   0  0  0  0  0  0  0  0  0  0  0  0
    6.3587   -1.3599   24.8910 H   0  0  0  0  0  0  0  0  0  0  0  0
    7.6175   -5.8836   26.4306 H   0  0  0  0  0  0  0  0  0  0  0  0
    6.3532   -4.8335   27.0691 H   0  0  0  0  0  0  0  0  0  0  0  0
    5.0632   -3.3760   25.4811 H   0  0  0  0  0  0  0  0  0  0  0  0
    5.4587   -3.3920   23.7702 H   0  0  0  0  0  0  0  0  0  0  0  0
    8.4928   -1.6994   26.2611 H   0  0  0  0  0  0  0  0  0  0  0  0
    5.5187    1.7954   27.7512 H   0  0  0  0  0  0  0  0  0  0  0  0
    4.3431    0.4917   27.4956 H   0  0  0  0  0  0  0  0  0  0  0  0
    4.3606    1.3753   29.0255 H   0  0  0  0  0  0  0  0  0  0  0  0
    7.4765    1.4446   29.3668 H   0  0  0  0  0  0  0  0  0  0  0  0
    7.6506   -0.1056   30.2084 H   0  0  0  0  0  0  0  0  0  0  0  0
    6.3663    1.0254   30.6757 H   0  0  0  0  0  0  0  0  0  0  0  0
   10.7352    1.5757   27.5003 H   0  0  0  0  0  0  0  0  0  0  0  0
    9.3231    2.4496   26.8898 H   0  0  0  0  0  0  0  0  0  0  0  0
    5.6938   -4.8891   22.4013 H   0  0  0  0  0  0  0  0  0  0  0  0
    6.6720   -6.3547   22.0447 H   0  0  0  0  0  0  0  0  0  0  0  0
    7.1012    1.3379   26.9506 H   0  0  0  0  0  0  0  0  0  0  0  0
    7.7564    0.0206   25.9367 H   0  0  0  0  0  0  0  0  0  0  0  0
    5.4513   -0.8576   29.2922 H   0  0  0  0  0  0  0  0  0  0  0  0
    9.3974   -0.3911   27.6536 H   0  0  0  0  0  0  0  0  0  0  0  0
    8.8145    0.8393   28.5680 H   0  0  0  0  0  0  0  0  0  0  0  0
  1  2  1  0  0  0  0
  1  4  2  0  0  0  0
  2  5  2  0  0  0  0
  3  6  2  0  0  0  0
  3  8  1  0  0  0  0
  4 11  1  0  0  0  0
  5 13  1  0  0  0  0
  6 14  1  0  0  0  0
  7 12  1  0  0  0  0
  7 15  2  0  0  0  0
  8 29  2  0  0  0  0
  9 14  2  0  0  0  0
  9 29  1  0  0  0  0
 10 12  2  0  0  0  0
 10 30  1  0  0  0  0
 11 13  2  0  0  0  0
 11 15  1  0  0  0  0
 12 25  1  0  0  0  0
 13 38  1  0  0  0  0
 14 39  1  0  0  0  0
 15 30  1  0  0  0  0
 16 22  1  0  0  0  0
 16 32  1  0  0  0  0
 16 34  2  0  0  0  0
 17 26  1  0  0  0  0
 17 31  1  0  0  0  0
 17 35  2  0  0  0  0
 18 20  1  0  0  0  0
 18 22  1  0  0  0  0
 19 21  1  0  0  0  0
 19 22  1  0  0  0  0
 20 31  1  0  0  0  0
 21 31  1  0  0  0  0
 23 28  1  0  0  0  0
 24 28  1  0  0  0  0
 25 33  1  0  0  0  0
 26 40  1  0  0  0  0
 27 32  1  0  0  0  0
 27 33  1  0  0  0  0
 28 32  1  0  0  0  0
 30 39  1  0  0  0  0
 36 39  2  0  0  0  0
 37 39  2  0  0  0  0
  1 41  1  0  0  0  0
  2 42  1  0  0  0  0
  3 43  1  0  0  0  0
  4 44  1  0  0  0  0
  5 45  1  0  0  0  0
  6 46  1  0  0  0  0
  7 47  1  0  0  0  0
  8 48  1  0  0  0  0
  9 49  1  0  0  0  0
 10 50  1  0  0  0  0
 18 51  1  0  0  0  0
 18 52  1  0  0  0  0
 19 53  1  0  0  0  0
 19 54  1  0  0  0  0
 20 55  1  0  0  0  0
 20 56  1  0  0  0  0
 21 57  1  0  0  0  0
 21 58  1  0  0  0  0
 22 59  1  0  0  0  0
 23 60  1  0  0  0  0
 23 61  1  0  0  0  0
 23 62  1  0  0  0  0
 24 63  1  0  0  0  0
 24 64  1  0  0  0  0
 24 65  1  0  0  0  0
 25 66  1  0  0  0  0
 25 67  1  0  0  0  0
 26 68  1  0  0  0  0
 26 69  1  0  0  0  0
 27 70  1  0  0  0  0
 27 71  1  0  0  0  0
 28 72  1  0  0  0  0
 33 73  1  0  0  0  0
 33 74  1  0  0  0  0
M  CHG  1  33   1
M  END
> <creator>
Maksym Voznyy

> <fragments>
x0305

> <real_space>
FALSE

> <SCR>
FALSE

> <BB>
FALSE

> <link>
https://covid.postera.ai/covid/submissions/8fdbca50-c94c-4218-91b0-3b0489774fa8

> <covalent_frag>
FALSE

> <covalent_warhead>
TRUE

> <acrylamide>
FALSE

> <acrylamide_adduct>
FALSE

> <chloroacetamide>
TRUE

> <chloroacetamide_adduct>
FALSE

> <vinylsulfonamide>
FALSE

> <vinylsulfonamide_adduct>
FALSE

> <in_molport_or_mcule>
FALSE

> <in_emolecules>
FALSE

> <Hybrid2>
0.689232

> <Mpro-x0305_dock>
0.689232

> <site>
active-noncovalent

> <covalent_distance_min>
3.394093

> <covalent_distance_mean>
4.144868

> <covalent_distance_stderr>
0.074773215

$$$$
GIA-UNK-d2d-7
  -OEChem-04062011563D

 38 39  0     1  0  0  0  0  0999 V2000
   -1.0385    4.6537   24.5701 C   0  0  0  0  0  0  0  0  0  0  0  0
   -1.0461    3.7346   23.5209 C   0  0  0  0  0  0  0  0  0  0  0  0
    0.0553    4.7176   25.4334 C   0  0  0  0  0  0  0  0  0  0  0  0
    0.0400    2.8793   23.3351 C   0  0  0  0  0  0  0  0  0  0  0  0
    1.1413    3.8623   25.2476 C   0  0  0  0  0  0  0  0  0  0  0  0
    1.1337    2.9431   24.1984 C   0  0  0  0  0  0  0  0  0  0  0  0
    2.2774    2.0423   24.0027 C   0  0  0  0  0  0  0  0  0  0  0  0
    4.2334    0.6135   22.0507 C   0  0  0  0  0  0  0  0  0  0  0  0
    6.8248   -0.0424   19.7066 C   0  0  0  0  0  0  0  0  0  0  0  0
    4.6142    3.6938   21.6255 C   0  0  0  0  0  0  0  0  0  0  0  0
    5.5164    2.7329   22.3964 C   0  0  0  0  0  0  0  0  0  0  0  0
    3.3726    3.7820   22.5001 C   0  0  0  0  0  0  0  0  0  0  0  0
    4.5355    1.7342   22.9997 C   0  0  1  0  0  0  0  0  0  0  0  0
    5.3330   -0.3528   21.6611 C   0  0  0  0  0  0  0  0  0  0  0  0
    6.8642   -0.1475   18.2034 C   0  0  0  0  0  0  0  0  0  0  0  0
    3.3033    2.4899   23.1818 N   0  0  0  0  0  0  0  0  0  0  0  0
    5.5869   -0.3676   20.2522 N   0  0  0  0  0  0  0  0  0  0  0  0
    2.2376    0.9515   24.5674 O   0  0  0  0  0  0  0  0  0  0  0  0
    3.0992    0.4760   21.5858 O   0  0  0  0  0  0  0  0  0  0  0  0
    7.8136    0.2857   20.3600 O   0  0  0  0  0  0  0  0  0  0  0  0
    6.4015    1.4255   17.5352 Cl  0  0  0  0  0  0  0  0  0  0  0  0
   -1.8841    5.3196   24.7147 H   0  0  0  0  0  0  0  0  0  0  0  0
   -1.8979    3.6849   22.8489 H   0  0  0  0  0  0  0  0  0  0  0  0
    0.0613    5.4334   26.2501 H   0  0  0  0  0  0  0  0  0  0  0  0
    0.0236    2.1669   22.5143 H   0  0  0  0  0  0  0  0  0  0  0  0
    1.9882    3.9208   25.9266 H   0  0  0  0  0  0  0  0  0  0  0  0
    5.0848    4.6689   21.4711 H   0  0  0  0  0  0  0  0  0  0  0  0
    4.3601    3.2754   20.6448 H   0  0  0  0  0  0  0  0  0  0  0  0
    6.2629    2.2719   21.7423 H   0  0  0  0  0  0  0  0  0  0  0  0
    6.0380    3.2744   23.1946 H   0  0  0  0  0  0  0  0  0  0  0  0
    3.4768    4.5612   23.2634 H   0  0  0  0  0  0  0  0  0  0  0  0
    2.4615    3.9665   21.9236 H   0  0  0  0  0  0  0  0  0  0  0  0
    4.8795    1.3093   23.9469 H   0  0  0  0  0  0  0  0  0  0  0  0
    5.0431   -1.3639   21.9588 H   0  0  0  0  0  0  0  0  0  0  0  0
    6.2591   -0.0623   22.1640 H   0  0  0  0  0  0  0  0  0  0  0  0
    7.8558   -0.4100   17.8266 H   0  0  0  0  0  0  0  0  0  0  0  0
    6.1453   -0.9023   17.8730 H   0  0  0  0  0  0  0  0  0  0  0  0
    4.8273   -0.6278   19.6210 H   0  0  0  0  0  0  0  0  0  0  0  0
  1  2  1  0  0  0  0
  1  3  2  0  0  0  0
  2  4  2  0  0  0  0
  3  5  1  0  0  0  0
  4  6  1  0  0  0  0
  5  6  2  0  0  0  0
  6  7  1  0  0  0  0
  7 16  1  0  0  0  0
  7 18  2  0  0  0  0
  8 13  1  0  0  0  0
  8 14  1  0  0  0  0
  8 19  2  0  0  0  0
  9 15  1  0  0  0  0
  9 17  1  0  0  0  0
  9 20  2  0  0  0  0
 10 11  1  0  0  0  0
 10 12  1  0  0  0  0
 11 13  1  0  0  0  0
 12 16  1  0  0  0  0
 13 16  1  0  0  0  0
 14 17  1  0  0  0  0
 15 21  1  0  0  0  0
  1 22  1  0  0  0  0
  2 23  1  0  0  0  0
  3 24  1  0  0  0  0
  4 25  1  0  0  0  0
  5 26  1  0  0  0  0
 10 27  1  0  0  0  0
 10 28  1  0  0  0  0
 11 29  1  0  0  0  0
 11 30  1  0  0  0  0
 12 31  1  0  0  0  0
 12 32  1  0  0  0  0
 13 33  1  0  0  0  0
 14 34  1  0  0  0  0
 14 35  1  0  0  0  0
 15 36  1  0  0  0  0
 15 37  1  0  0  0  0
 17 38  1  0  0  0  0
M  END
> <creator>
Gianfranco Lopopolo

> <fragments>
x0540

> <real_space>
FALSE

> <SCR>
FALSE

> <BB>
FALSE

> <link>
https://covid.postera.ai/covid/submissions/d2defdc3-6611-4e76-b6eb-273d365b95ae

> <covalent_frag>
FALSE

> <covalent_warhead>
TRUE

> <acrylamide>
FALSE

> <acrylamide_adduct>
FALSE

> <chloroacetamide>
TRUE

> <chloroacetamide_adduct>
FALSE

> <vinylsulfonamide>
FALSE

> <vinylsulfonamide_adduct>
FALSE

> <in_molport_or_mcule>
FALSE

> <in_emolecules>
FALSE

> <Hybrid2>
0.716351

> <Mpro-x0540_dock>
0.716351

> <site>
active-noncovalent

> <covalent_distance_min>
3.6625376

> <covalent_distance_mean>
4.5118604

> <covalent_distance_stderr>
0.045294493

$$$$
MAK-UNK-8fd-7
  -OEChem-04062011563D

 74 77  0     1  0  0  0  0  0999 V2000
   13.7467   -1.5522   21.9815 C   0  0  0  0  0  0  0  0  0  0  0  0
   14.3209   -0.5888   22.8108 C   0  0  0  0  0  0  0  0  0  0  0  0
   12.3889   -1.4836   21.6690 C   0  0  0  0  0  0  0  0  0  0  0  0
   13.5376    0.4431   23.3276 C   0  0  0  0  0  0  0  0  0  0  0  0
    8.1478   -0.5188   25.9770 C   0  0  0  0  0  0  0  0  0  0  0  0
    9.5901    0.2589   20.8042 C   0  0  0  0  0  0  0  0  0  0  0  0
    9.2997    0.9716   27.4291 C   0  0  0  0  0  0  0  0  0  0  0  0
   10.4953   -0.1664   25.8311 C   0  0  0  0  0  0  0  0  0  0  0  0
    7.9942   -0.7435   22.0364 C   0  0  0  0  0  0  0  0  0  0  0  0
   11.6056   -0.4517   22.1858 C   0  0  0  0  0  0  0  0  0  0  0  0
    8.1084    0.3857   27.0323 C   0  0  0  0  0  0  0  0  0  0  0  0
    8.1961    0.0321   20.9161 C   0  0  0  0  0  0  0  0  0  0  0  0
   12.1798    0.5117   23.0151 C   0  0  0  0  0  0  0  0  0  0  0  0
    9.3601   -0.8058   25.3595 C   0  0  0  0  0  0  0  0  0  0  0  0
   10.1976   -0.3853   21.8594 C   0  0  0  0  0  0  0  0  0  0  0  0
    6.0890   -1.6440   28.1324 C   0  0  0  0  0  0  0  0  0  0  0  0
    6.0697   -6.7119   27.5190 C   0  0  0  0  0  0  0  0  0  0  0  0
    5.2060   -3.3869   26.5915 C   0  0  0  0  0  0  0  0  0  0  0  0
    4.9673   -3.6563   29.1082 C   0  0  0  0  0  0  0  0  0  0  0  0
    6.3325   -4.4179   26.6307 C   0  0  0  0  0  0  0  0  0  0  0  0
    6.0898   -4.6940   29.0662 C   0  0  0  0  0  0  0  0  0  0  0  0
    5.0149   -2.6735   27.9338 C   0  0  0  0  0  0  0  0  0  0  0  0
    7.0040    1.0991   29.1918 C   0  0  0  0  0  0  0  0  0  0  0  0
    4.6153   -0.0501   26.8938 C   0  0  0  0  0  0  0  0  0  0  0  0
    5.0555    1.8695   19.7576 C   0  0  0  0  0  0  0  0  0  0  0  0
    7.1518    0.5337   20.0023 C   0  0  0  0  0  0  0  0  0  0  0  0
    5.8821   -7.5920   28.7290 C   0  0  0  0  0  0  0  0  0  0  0  0
    6.8052    0.7188   27.7260 C   0  0  2  0  0  0  0  0  0  0  0  0
   10.4964    0.7179   26.8537 N   0  0  0  0  0  0  0  0  0  0  0  0
    9.2179   -0.9914   22.6016 N   0  0  0  0  0  0  0  0  0  0  0  0
    6.1530   -5.3397   27.7516 N   0  0  0  0  0  0  0  0  0  0  0  0
    5.8453   -0.3755   27.6046 N   0  0  0  0  0  0  0  0  0  0  0  0
    6.1374    1.4113   20.6633 N   0  3  0  0  0  0  0  0  0  0  0  0
    7.1170   -1.9561   28.7393 O   0  0  0  0  0  0  0  0  0  0  0  0
    6.1379   -7.2301   26.4015 O   0  0  0  0  0  0  0  0  0  0  0  0
   10.8036   -2.4310   23.8771 O   0  0  0  0  0  0  0  0  0  0  0  0
    8.3003   -2.8199   24.1114 O   0  0  0  0  0  0  0  0  0  0  0  0
   11.4403    1.5102   23.5200 F   0  0  0  0  0  0  0  0  0  0  0  0
    9.4473   -1.9318   24.0352 S   0  0  0  0  0  0  0  0  0  0  0  0
    7.4922   -8.0451   29.2768 Cl  0  0  0  0  0  0  0  0  0  0  0  0
   14.3569   -2.3553   21.5789 H   0  0  0  0  0  0  0  0  0  0  0  0
   15.3782   -0.6419   23.0537 H   0  0  0  0  0  0  0  0  0  0  0  0
   11.9564   -2.2423   21.0211 H   0  0  0  0  0  0  0  0  0  0  0  0
   13.9847    1.1935   23.9730 H   0  0  0  0  0  0  0  0  0  0  0  0
    7.2336   -0.9987   25.6369 H   0  0  0  0  0  0  0  0  0  0  0  0
   10.0939    0.8308   20.0361 H   0  0  0  0  0  0  0  0  0  0  0  0
    9.3310    1.6849   28.2469 H   0  0  0  0  0  0  0  0  0  0  0  0
   11.4699   -0.3501   25.3897 H   0  0  0  0  0  0  0  0  0  0  0  0
    7.0859   -1.1367   22.4741 H   0  0  0  0  0  0  0  0  0  0  0  0
    5.4113   -2.6591   25.7972 H   0  0  0  0  0  0  0  0  0  0  0  0
    4.2713   -3.8955   26.3225 H   0  0  0  0  0  0  0  0  0  0  0  0
    4.0041   -4.1824   29.0899 H   0  0  0  0  0  0  0  0  0  0  0  0
    5.0145   -3.1140   30.0603 H   0  0  0  0  0  0  0  0  0  0  0  0
    6.3663   -4.9604   25.6805 H   0  0  0  0  0  0  0  0  0  0  0  0
    7.3049   -3.9283   26.7586 H   0  0  0  0  0  0  0  0  0  0  0  0
    7.0628   -4.2211   29.2417 H   0  0  0  0  0  0  0  0  0  0  0  0
    5.9406   -5.4166   29.8706 H   0  0  0  0  0  0  0  0  0  0  0  0
    4.0716   -2.1141   27.9021 H   0  0  0  0  0  0  0  0  0  0  0  0
    7.4708    0.2814   29.7518 H   0  0  0  0  0  0  0  0  0  0  0  0
    7.6503    1.9801   29.2755 H   0  0  0  0  0  0  0  0  0  0  0  0
    6.0565    1.3474   29.6831 H   0  0  0  0  0  0  0  0  0  0  0  0
    3.8650    0.3191   27.6084 H   0  0  0  0  0  0  0  0  0  0  0  0
    4.8205    0.7274   26.1433 H   0  0  0  0  0  0  0  0  0  0  0  0
    4.2321   -0.9513   26.3928 H   0  0  0  0  0  0  0  0  0  0  0  0
    4.5646    0.9842   19.3492 H   0  0  0  0  0  0  0  0  0  0  0  0
    4.3583    2.4687   20.3463 H   0  0  0  0  0  0  0  0  0  0  0  0
    5.5130    2.4650   18.9653 H   0  0  0  0  0  0  0  0  0  0  0  0
    7.5697    1.1354   19.1757 H   0  0  0  0  0  0  0  0  0  0  0  0
    6.5755   -0.2837   19.5336 H   0  0  0  0  0  0  0  0  0  0  0  0
    5.3257   -8.4756   28.4379 H   0  0  0  0  0  0  0  0  0  0  0  0
    5.3721   -7.0257   29.4997 H   0  0  0  0  0  0  0  0  0  0  0  0
    6.3369    1.5725   27.2209 H   0  0  0  0  0  0  0  0  0  0  0  0
    6.6180    2.2254   21.0633 H   0  0  0  0  0  0  0  0  0  0  0  0
    5.7290    0.9024   21.4558 H   0  0  0  0  0  0  0  0  0  0  0  0
  1  2  1  0  0  0  0
  1  3  2  0  0  0  0
  2  4  2  0  0  0  0
  3 10  1  0  0  0  0
  4 13  1  0  0  0  0
  5 11  1  0  0  0  0
  5 14  2  0  0  0  0
  6 12  1  0  0  0  0
  6 15  2  0  0  0  0
  7 11  2  0  0  0  0
  7 29  1  0  0  0  0
  8 14  1  0  0  0  0
  8 29  2  0  0  0  0
  9 12  2  0  0  0  0
  9 30  1  0  0  0  0
 10 13  2  0  0  0  0
 10 15  1  0  0  0  0
 11 28  1  0  0  0  0
 12 26  1  0  0  0  0
 13 38  1  0  0  0  0
 14 39  1  0  0  0  0
 15 30  1  0  0  0  0
 16 22  1  0  0  0  0
 16 32  1  0  0  0  0
 16 34  2  0  0  0  0
 17 27  1  0  0  0  0
 17 31  1  0  0  0  0
 17 35  2  0  0  0  0
 18 20  1  0  0  0  0
 18 22  1  0  0  0  0
 19 21  1  0  0  0  0
 19 22  1  0  0  0  0
 20 31  1  0  0  0  0
 21 31  1  0  0  0  0
 23 28  1  0  0  0  0
 24 32  1  0  0  0  0
 25 33  1  0  0  0  0
 26 33  1  0  0  0  0
 27 40  1  0  0  0  0
 28 32  1  0  0  0  0
 30 39  1  0  0  0  0
 36 39  2  0  0  0  0
 37 39  2  0  0  0  0
  1 41  1  0  0  0  0
  2 42  1  0  0  0  0
  3 43  1  0  0  0  0
  4 44  1  0  0  0  0
  5 45  1  0  0  0  0
  6 46  1  0  0  0  0
  7 47  1  0  0  0  0
  8 48  1  0  0  0  0
  9 49  1  0  0  0  0
 18 50  1  0  0  0  0
 18 51  1  0  0  0  0
 19 52  1  0  0  0  0
 19 53  1  0  0  0  0
 20 54  1  0  0  0  0
 20 55  1  0  0  0  0
 21 56  1  0  0  0  0
 21 57  1  0  0  0  0
 22 58  1  0  0  0  0
 23 59  1  0  0  0  0
 23 60  1  0  0  0  0
 23 61  1  0  0  0  0
 24 62  1  0  0  0  0
 24 63  1  0  0  0  0
 24 64  1  0  0  0  0
 25 65  1  0  0  0  0
 25 66  1  0  0  0  0
 25 67  1  0  0  0  0
 26 68  1  0  0  0  0
 26 69  1  0  0  0  0
 27 70  1  0  0  0  0
 27 71  1  0  0  0  0
 28 72  1  0  0  0  0
 33 73  1  0  0  0  0
 33 74  1  0  0  0  0
M  CHG  1  33   1
M  END
> <creator>
Maksym Voznyy

> <fragments>
x0305

> <real_space>
FALSE

> <SCR>
FALSE

> <BB>
FALSE

> <link>
https://covid.postera.ai/covid/submissions/8fdbca50-c94c-4218-91b0-3b0489774fa8

> <covalent_frag>
FALSE

> <covalent_warhead>
TRUE

> <acrylamide>
FALSE

> <acrylamide_adduct>
FALSE

> <chloroacetamide>
TRUE

> <chloroacetamide_adduct>
FALSE

> <vinylsulfonamide>
FALSE

> <vinylsulfonamide_adduct>
FALSE

> <in_molport_or_mcule>
FALSE

> <in_emolecules>
FALSE

> <Hybrid2>
0.717149

> <Mpro-x0305_dock>
0.717149

> <site>
active-noncovalent

> <covalent_distance_min>
9.976438

> <covalent_distance_mean>
11.118757

> <covalent_distance_stderr>
0.057446986

$$$$
MAK-UNK-702-5
  -OEChem-04062011563D

 72 77  0     1  0  0  0  0  0999 V2000
    6.1498    0.1042   18.0890 C   0  0  0  0  0  0  0  0  0  0  0  0
    9.0081   -5.8335   29.7322 C   0  0  0  0  0  0  0  0  0  0  0  0
    6.8753    1.2897   17.9720 C   0  0  0  0  0  0  0  0  0  0  0  0
    6.0633   -0.5418   19.3223 C   0  0  0  0  0  0  0  0  0  0  0  0
    5.4236    2.2189   24.1952 C   0  0  0  0  0  0  0  0  0  0  0  0
    5.8190    1.3058   25.1671 C   0  0  0  0  0  0  0  0  0  0  0  0
    7.6275   -5.7753   29.9221 C   0  0  0  0  0  0  0  0  0  0  0  0
    5.1501   -5.7871   24.6482 C   0  0  0  0  0  0  0  0  0  0  0  0
    9.5961   -5.1430   28.6723 C   0  0  0  0  0  0  0  0  0  0  0  0
    7.5145    1.8293   19.0882 C   0  0  0  0  0  0  0  0  0  0  0  0
    6.7025   -0.0022   20.4385 C   0  0  0  0  0  0  0  0  0  0  0  0
    6.1779    2.3672   23.0327 C   0  0  0  0  0  0  0  0  0  0  0  0
    6.9705    0.5421   24.9783 C   0  0  0  0  0  0  0  0  0  0  0  0
    6.8348   -5.0267   29.0521 C   0  0  0  0  0  0  0  0  0  0  0  0
    6.4354   -5.8624   25.1730 C   0  0  0  0  0  0  0  0  0  0  0  0
    9.9062   -2.3929   26.6828 C   0  0  0  0  0  0  0  0  0  0  0  0
    5.0167   -5.5205   23.2951 C   0  0  0  0  0  0  0  0  0  0  0  0
    7.2925   -5.4101   23.0012 C   0  0  0  0  0  0  0  0  0  0  0  0
   10.2107   -3.3001   24.6446 C   0  0  0  0  0  0  0  0  0  0  0  0
    8.8034   -4.3945   27.8023 C   0  0  0  0  0  0  0  0  0  0  0  0
    7.4282    1.1833   20.3215 C   0  0  0  0  0  0  0  0  0  0  0  0
    7.3405    1.6042   22.8298 C   0  0  0  0  0  0  0  0  0  0  0  0
    7.7443    0.6815   23.8139 C   0  0  0  0  0  0  0  0  0  0  0  0
   10.4080   -2.1522   25.3799 C   0  0  0  0  0  0  0  0  0  0  0  0
    7.4227   -4.3363   27.9922 C   0  0  0  0  0  0  0  0  0  0  0  0
    7.5326   -5.6714   24.3405 C   0  0  0  0  0  0  0  0  0  0  0  0
    9.4178   -3.6807   26.7040 C   0  0  0  0  0  0  0  0  0  0  0  0
   10.2038   -1.1481   21.6399 C   0  0  0  0  0  0  0  0  0  0  0  0
    9.5600    1.2361   21.6766 C   0  0  0  0  0  0  0  0  0  0  0  0
    8.1263    1.7719   21.5410 C   0  0  1  0  0  0  0  0  0  0  0  0
    8.9921   -0.1632   23.6509 C   0  0  1  0  0  0  0  0  0  0  0  0
   11.0380   -0.8819   24.8898 C   0  0  0  0  0  0  0  0  0  0  0  0
   11.3739   -0.8005   20.7533 C   0  0  0  0  0  0  0  0  0  0  0  0
    6.0585   -5.3293   22.4550 N   0  0  0  0  0  0  0  0  0  0  0  0
    9.6085   -4.2226   25.4598 N   0  0  0  0  0  0  0  0  0  0  0  0
    9.5808   -0.0869   22.3027 N   0  0  0  0  0  0  0  0  0  0  0  0
   10.0527    0.1983   24.6446 N   0  3  0  0  0  0  0  0  0  0  0  0
    9.8640   -2.3290   21.7515 O   0  0  0  0  0  0  0  0  0  0  0  0
    9.1715   -6.5640   26.1953 O   0  0  0  0  0  0  0  0  0  0  0  0
   10.0371   -6.1363   23.8414 O   0  0  0  0  0  0  0  0  0  0  0  0
    6.6467   -3.6210   27.1646 F   0  0  0  0  0  0  0  0  0  0  0  0
    9.1875   -5.7599   24.9738 S   0  0  0  0  0  0  0  0  0  0  0  0
   12.5652   -0.0109   21.7799 Cl  0  0  0  0  0  0  0  0  0  0  0  0
    5.6510   -0.3151   17.2201 H   0  0  0  0  0  0  0  0  0  0  0  0
    9.6253   -6.4160   30.4100 H   0  0  0  0  0  0  0  0  0  0  0  0
    6.9418    1.7934   17.0120 H   0  0  0  0  0  0  0  0  0  0  0  0
    5.4976   -1.4642   19.4140 H   0  0  0  0  0  0  0  0  0  0  0  0
    4.5269    2.8141   24.3405 H   0  0  0  0  0  0  0  0  0  0  0  0
    5.2318    1.1874   26.0731 H   0  0  0  0  0  0  0  0  0  0  0  0
    7.1698   -6.3124   30.7477 H   0  0  0  0  0  0  0  0  0  0  0  0
    4.2801   -5.9326   25.2783 H   0  0  0  0  0  0  0  0  0  0  0  0
   10.6738   -5.1985   28.5379 H   0  0  0  0  0  0  0  0  0  0  0  0
    8.0778    2.7533   18.9875 H   0  0  0  0  0  0  0  0  0  0  0  0
    6.6298   -0.5124   21.3953 H   0  0  0  0  0  0  0  0  0  0  0  0
    5.8535    3.0825   22.2805 H   0  0  0  0  0  0  0  0  0  0  0  0
    7.2629   -0.1677   25.7485 H   0  0  0  0  0  0  0  0  0  0  0  0
    5.7599   -4.9810   29.2001 H   0  0  0  0  0  0  0  0  0  0  0  0
    6.5712   -6.0701   26.2308 H   0  0  0  0  0  0  0  0  0  0  0  0
    9.9025   -1.7000   27.5139 H   0  0  0  0  0  0  0  0  0  0  0  0
    4.0356   -5.4515   22.8369 H   0  0  0  0  0  0  0  0  0  0  0  0
    8.1084   -5.2524   22.3025 H   0  0  0  0  0  0  0  0  0  0  0  0
   10.4486   -3.5341   23.6151 H   0  0  0  0  0  0  0  0  0  0  0  0
   10.0625    1.2186   20.7029 H   0  0  0  0  0  0  0  0  0  0  0  0
   10.1477    1.9013   22.3220 H   0  0  0  0  0  0  0  0  0  0  0  0
    8.2185    2.8742   21.3417 H   0  0  0  0  0  0  0  0  0  0  0  0
    8.7293   -1.2008   23.8750 H   0  0  0  0  0  0  0  0  0  0  0  0
   11.7586   -0.4913   25.6164 H   0  0  0  0  0  0  0  0  0  0  0  0
   11.5699   -1.0427   23.9459 H   0  0  0  0  0  0  0  0  0  0  0  0
   11.0377   -0.1193   19.9805 H   0  0  0  0  0  0  0  0  0  0  0  0
   11.7844   -1.7145   20.3407 H   0  0  0  0  0  0  0  0  0  0  0  0
   10.5377    1.0388   24.3126 H   0  0  0  0  0  0  0  0  0  0  0  0
    9.5981    0.4576   25.5268 H   0  0  0  0  0  0  0  0  0  0  0  0
  1  3  1  0  0  0  0
  1  4  2  0  0  0  0
  2  7  1  0  0  0  0
  2  9  2  0  0  0  0
  3 10  2  0  0  0  0
  4 11  1  0  0  0  0
  5  6  1  0  0  0  0
  5 12  2  0  0  0  0
  6 13  2  0  0  0  0
  7 14  2  0  0  0  0
  8 15  2  0  0  0  0
  8 17  1  0  0  0  0
  9 20  1  0  0  0  0
 10 21  1  0  0  0  0
 11 21  2  0  0  0  0
 12 22  1  0  0  0  0
 13 23  1  0  0  0  0
 14 25  1  0  0  0  0
 15 26  1  0  0  0  0
 16 24  1  0  0  0  0
 16 27  2  0  0  0  0
 17 34  2  0  0  0  0
 18 26  2  0  0  0  0
 18 34  1  0  0  0  0
 19 24  2  0  0  0  0
 19 35  1  0  0  0  0
 20 25  2  0  0  0  0
 20 27  1  0  0  0  0
 21 30  1  0  0  0  0
 22 23  2  0  0  0  0
 22 30  1  0  0  0  0
 23 31  1  0  0  0  0
 24 32  1  0  0  0  0
 25 41  1  0  0  0  0
 26 42  1  0  0  0  0
 27 35  1  0  0  0  0
 28 33  1  0  0  0  0
 28 36  1  0  0  0  0
 28 38  2  0  0  0  0
 29 30  1  0  0  0  0
 29 36  1  0  0  0  0
 31 36  1  0  0  0  0
 31 37  1  0  0  0  0
 32 37  1  0  0  0  0
 33 43  1  0  0  0  0
 35 42  1  0  0  0  0
 39 42  2  0  0  0  0
 40 42  2  0  0  0  0
  1 44  1  0  0  0  0
  2 45  1  0  0  0  0
  3 46  1  0  0  0  0
  4 47  1  0  0  0  0
  5 48  1  0  0  0  0
  6 49  1  0  0  0  0
  7 50  1  0  0  0  0
  8 51  1  0  0  0  0
  9 52  1  0  0  0  0
 10 53  1  0  0  0  0
 11 54  1  0  0  0  0
 12 55  1  0  0  0  0
 13 56  1  0  0  0  0
 14 57  1  0  0  0  0
 15 58  1  0  0  0  0
 16 59  1  0  0  0  0
 17 60  1  0  0  0  0
 18 61  1  0  0  0  0
 19 62  1  0  0  0  0
 29 63  1  0  0  0  0
 29 64  1  0  0  0  0
 30 65  1  0  0  0  0
 31 66  1  0  0  0  0
 32 67  1  0  0  0  0
 32 68  1  0  0  0  0
 33 69  1  0  0  0  0
 33 70  1  0  0  0  0
 37 71  1  0  0  0  0
 37 72  1  0  0  0  0
M  CHG  1  37   1
M  END
> <creator>
Maksym Voznyy

> <fragments>
x0387

> <real_space>
FALSE

> <SCR>
FALSE

> <BB>
FALSE

> <link>
https://covid.postera.ai/covid/submissions/702fb7d3-1941-4d37-9e1c-6a10ebd67f09

> <covalent_frag>
FALSE

> <covalent_warhead>
TRUE

> <acrylamide>
FALSE

> <acrylamide_adduct>
FALSE

> <chloroacetamide>
TRUE

> <chloroacetamide_adduct>
FALSE

> <vinylsulfonamide>
FALSE

> <vinylsulfonamide_adduct>
FALSE

> <in_molport_or_mcule>
FALSE

> <in_emolecules>
FALSE

> <Hybrid2>
0.776862

> <Mpro-x0387_dock>
0.776862

> <site>
active-noncovalent

> <covalent_distance_min>
3.5348964

> <covalent_distance_mean>
4.7933173

> <covalent_distance_stderr>
0.07864636

$$$$
MAK-UNK-8fd-14
  -OEChem-04062011563D

 74 77  0     1  0  0  0  0  0999 V2000
    8.9202    0.9099   29.2066 C   0  0  0  0  0  0  0  0  0  0  0  0
   10.6084   -1.6629   21.2735 C   0  0  0  0  0  0  0  0  0  0  0  0
    9.2848   -2.1031   21.2693 C   0  0  0  0  0  0  0  0  0  0  0  0
    9.0110    0.4089   27.9127 C   0  0  0  0  0  0  0  0  0  0  0  0
   10.7723   -2.1780   23.6282 C   0  0  0  0  0  0  0  0  0  0  0  0
    8.8297   -4.4023   25.3246 C   0  0  0  0  0  0  0  0  0  0  0  0
    7.6686    0.9523   29.7993 C   0  0  0  0  0  0  0  0  0  0  0  0
    6.6592    0.0557   27.9404 C   0  0  0  0  0  0  0  0  0  0  0  0
    7.7399   -3.0792   26.7846 C   0  0  0  0  0  0  0  0  0  0  0  0
    9.4488   -2.6182   23.6241 C   0  0  0  0  0  0  0  0  0  0  0  0
   11.3522   -1.7004   22.4530 C   0  0  0  0  0  0  0  0  0  0  0  0
    8.1258   -4.3811   26.5539 C   0  0  0  0  0  0  0  0  0  0  0  0
    8.7050   -2.5807   22.4446 C   0  0  0  0  0  0  0  0  0  0  0  0
    7.8635   -0.0284   27.2604 C   0  0  0  0  0  0  0  0  0  0  0  0
    8.8526   -3.1125   24.8416 C   0  0  0  0  0  0  0  0  0  0  0  0
   12.4013    0.8338   23.8261 C   0  0  0  0  0  0  0  0  0  0  0  0
    9.6745    4.8737   25.9753 C   0  0  0  0  0  0  0  0  0  0  0  0
   11.3270    3.0024   23.2618 C   0  0  0  0  0  0  0  0  0  0  0  0
   12.7758    2.7723   25.3546 C   0  0  0  0  0  0  0  0  0  0  0  0
   10.9719    4.3161   23.9481 C   0  0  0  0  0  0  0  0  0  0  0  0
   11.4672    3.0959   26.0718 C   0  0  0  0  0  0  0  0  0  0  0  0
   12.5460    2.3272   23.9046 C   0  0  0  0  0  0  0  0  0  0  0  0
   13.6471   -1.9615   23.4811 C   0  0  0  0  0  0  0  0  0  0  0  0
   13.4674    0.9749   21.5701 C   0  0  0  0  0  0  0  0  0  0  0  0
    8.4722   -6.7774   29.5067 C   0  0  0  0  0  0  0  0  0  0  0  0
    7.8549   -5.5393   27.4271 C   0  0  0  0  0  0  0  0  0  0  0  0
    9.4358    4.6119   27.4423 C   0  0  0  0  0  0  0  0  0  0  0  0
   12.7886   -1.2237   22.4558 C   0  0  2  0  0  0  0  0  0  0  0  0
    6.5317    0.5366   29.1974 N   0  0  0  0  0  0  0  0  0  0  0  0
    8.1874   -2.3167   25.7374 N   0  0  0  0  0  0  0  0  0  0  0  0
   10.6768    4.1144   25.3684 N   0  0  0  0  0  0  0  0  0  0  0  0
   12.8676    0.2201   22.6630 N   0  0  0  0  0  0  0  0  0  0  0  0
    8.7041   -5.5835   28.6573 N   0  3  0  0  0  0  0  0  0  0  0  0
   11.8884    0.2283   24.7711 O   0  0  0  0  0  0  0  0  0  0  0  0
    8.9999    5.7247   25.3909 O   0  0  0  0  0  0  0  0  0  0  0  0
    6.6209   -0.5253   24.9951 O   0  0  0  0  0  0  0  0  0  0  0  0
    9.1247   -0.0737   24.9922 O   0  0  0  0  0  0  0  0  0  0  0  0
    7.4310   -2.9992   22.4240 F   0  0  0  0  0  0  0  0  0  0  0  0
    7.9397   -0.6739   25.6096 S   0  0  0  0  0  0  0  0  0  0  0  0
   10.5176    5.6815   28.3274 Cl  0  0  0  0  0  0  0  0  0  0  0  0
    9.8013    1.2565   29.7344 H   0  0  0  0  0  0  0  0  0  0  0  0
   11.0519   -1.2933   20.3528 H   0  0  0  0  0  0  0  0  0  0  0  0
    8.7063   -2.0748   20.3508 H   0  0  0  0  0  0  0  0  0  0  0  0
    9.9793    0.3635   27.4222 H   0  0  0  0  0  0  0  0  0  0  0  0
   11.3582   -2.2048   24.5450 H   0  0  0  0  0  0  0  0  0  0  0  0
    9.2709   -5.2662   24.8454 H   0  0  0  0  0  0  0  0  0  0  0  0
    7.5442    1.3343   30.8072 H   0  0  0  0  0  0  0  0  0  0  0  0
    5.7299   -0.2701   27.4835 H   0  0  0  0  0  0  0  0  0  0  0  0
    7.1874   -2.6362   27.6031 H   0  0  0  0  0  0  0  0  0  0  0  0
   10.4617    2.3328   23.2900 H   0  0  0  0  0  0  0  0  0  0  0  0
   11.5473    3.2006   22.2070 H   0  0  0  0  0  0  0  0  0  0  0  0
   13.4062    3.6663   25.3531 H   0  0  0  0  0  0  0  0  0  0  0  0
   13.3103    1.9974   25.9094 H   0  0  0  0  0  0  0  0  0  0  0  0
   11.7936    5.0325   23.8206 H   0  0  0  0  0  0  0  0  0  0  0  0
   10.0817    4.7696   23.4900 H   0  0  0  0  0  0  0  0  0  0  0  0
   10.8331    2.1966   26.1509 H   0  0  0  0  0  0  0  0  0  0  0  0
   11.6891    3.3965   27.1056 H   0  0  0  0  0  0  0  0  0  0  0  0
   13.4354    2.5672   23.3130 H   0  0  0  0  0  0  0  0  0  0  0  0
   13.2566   -1.8233   24.4953 H   0  0  0  0  0  0  0  0  0  0  0  0
   13.6625   -3.0361   23.2669 H   0  0  0  0  0  0  0  0  0  0  0  0
   14.6871   -1.6163   23.4696 H   0  0  0  0  0  0  0  0  0  0  0  0
   14.5531    1.0516   21.7293 H   0  0  0  0  0  0  0  0  0  0  0  0
   13.2720    0.4596   20.6181 H   0  0  0  0  0  0  0  0  0  0  0  0
   13.0295    1.9835   21.5376 H   0  0  0  0  0  0  0  0  0  0  0  0
    8.6626   -7.6628   28.8974 H   0  0  0  0  0  0  0  0  0  0  0  0
    9.1624   -6.7260   30.3510 H   0  0  0  0  0  0  0  0  0  0  0  0
    7.4348   -6.7500   29.8456 H   0  0  0  0  0  0  0  0  0  0  0  0
    6.8110   -5.5596   27.7874 H   0  0  0  0  0  0  0  0  0  0  0  0
    8.0273   -6.5020   26.9139 H   0  0  0  0  0  0  0  0  0  0  0  0
    9.6764    3.5772   27.6583 H   0  0  0  0  0  0  0  0  0  0  0  0
    8.4043    4.8474   27.6778 H   0  0  0  0  0  0  0  0  0  0  0  0
   13.2276   -1.3990   21.4659 H   0  0  0  0  0  0  0  0  0  0  0  0
    8.5319   -4.7332   29.2059 H   0  0  0  0  0  0  0  0  0  0  0  0
    9.6910   -5.5482   28.3769 H   0  0  0  0  0  0  0  0  0  0  0  0
  1  4  2  0  0  0  0
  1  7  1  0  0  0  0
  2  3  2  0  0  0  0
  2 11  1  0  0  0  0
  3 13  1  0  0  0  0
  4 14  1  0  0  0  0
  5 10  1  0  0  0  0
  5 11  2  0  0  0  0
  6 12  1  0  0  0  0
  6 15  2  0  0  0  0
  7 29  2  0  0  0  0
  8 14  2  0  0  0  0
  8 29  1  0  0  0  0
  9 12  2  0  0  0  0
  9 30  1  0  0  0  0
 10 13  2  0  0  0  0
 10 15  1  0  0  0  0
 11 28  1  0  0  0  0
 12 26  1  0  0  0  0
 13 38  1  0  0  0  0
 14 39  1  0  0  0  0
 15 30  1  0  0  0  0
 16 22  1  0  0  0  0
 16 32  1  0  0  0  0
 16 34  2  0  0  0  0
 17 27  1  0  0  0  0
 17 31  1  0  0  0  0
 17 35  2  0  0  0  0
 18 20  1  0  0  0  0
 18 22  1  0  0  0  0
 19 21  1  0  0  0  0
 19 22  1  0  0  0  0
 20 31  1  0  0  0  0
 21 31  1  0  0  0  0
 23 28  1  0  0  0  0
 24 32  1  0  0  0  0
 25 33  1  0  0  0  0
 26 33  1  0  0  0  0
 27 40  1  0  0  0  0
 28 32  1  0  0  0  0
 30 39  1  0  0  0  0
 36 39  2  0  0  0  0
 37 39  2  0  0  0  0
  1 41  1  0  0  0  0
  2 42  1  0  0  0  0
  3 43  1  0  0  0  0
  4 44  1  0  0  0  0
  5 45  1  0  0  0  0
  6 46  1  0  0  0  0
  7 47  1  0  0  0  0
  8 48  1  0  0  0  0
  9 49  1  0  0  0  0
 18 50  1  0  0  0  0
 18 51  1  0  0  0  0
 19 52  1  0  0  0  0
 19 53  1  0  0  0  0
 20 54  1  0  0  0  0
 20 55  1  0  0  0  0
 21 56  1  0  0  0  0
 21 57  1  0  0  0  0
 22 58  1  0  0  0  0
 23 59  1  0  0  0  0
 23 60  1  0  0  0  0
 23 61  1  0  0  0  0
 24 62  1  0  0  0  0
 24 63  1  0  0  0  0
 24 64  1  0  0  0  0
 25 65  1  0  0  0  0
 25 66  1  0  0  0  0
 25 67  1  0  0  0  0
 26 68  1  0  0  0  0
 26 69  1  0  0  0  0
 27 70  1  0  0  0  0
 27 71  1  0  0  0  0
 28 72  1  0  0  0  0
 33 73  1  0  0  0  0
 33 74  1  0  0  0  0
M  CHG  1  33   1
M  END
> <creator>
Maksym Voznyy

> <fragments>
x0305

> <real_space>
FALSE

> <SCR>
FALSE

> <BB>
FALSE

> <link>
https://covid.postera.ai/covid/submissions/8fdbca50-c94c-4218-91b0-3b0489774fa8

> <covalent_frag>
FALSE

> <covalent_warhead>
TRUE

> <acrylamide>
FALSE

> <acrylamide_adduct>
FALSE

> <chloroacetamide>
TRUE

> <chloroacetamide_adduct>
FALSE

> <vinylsulfonamide>
FALSE

> <vinylsulfonamide_adduct>
FALSE

> <in_molport_or_mcule>
FALSE

> <in_emolecules>
FALSE

> <Hybrid2>
0.793131

> <Mpro-x0305_dock>
0.793131

> <site>
active-noncovalent

> <covalent_distance_min>
11.936661

> <covalent_distance_mean>
13.439232

> <covalent_distance_stderr>
0.06449894

$$$$
MAK-UNK-8fd-9
  -OEChem-04062011563D

 75 78  0     1  0  0  0  0  0999 V2000
    6.2731    1.8831   28.6589 C   0  0  0  0  0  0  0  0  0  0  0  0
    6.1702    2.8755   27.6842 C   0  0  0  0  0  0  0  0  0  0  0  0
   10.7159    2.3303   24.1683 C   0  0  0  0  0  0  0  0  0  0  0  0
    6.7598    0.6205   28.3201 C   0  0  0  0  0  0  0  0  0  0  0  0
   11.7145    1.7349   23.3976 C   0  0  0  0  0  0  0  0  0  0  0  0
    6.5539    2.6053   26.3706 C   0  0  0  0  0  0  0  0  0  0  0  0
   10.2748    1.7109   25.3377 C   0  0  0  0  0  0  0  0  0  0  0  0
   11.8308   -0.0995   24.9657 C   0  0  0  0  0  0  0  0  0  0  0  0
    6.9441   -2.0643   26.2284 C   0  0  0  0  0  0  0  0  0  0  0  0
    9.1264   -2.6093   26.3302 C   0  0  0  0  0  0  0  0  0  0  0  0
    7.1434    0.3503   27.0066 C   0  0  0  0  0  0  0  0  0  0  0  0
   12.2719    0.5200   23.7963 C   0  0  0  0  0  0  0  0  0  0  0  0
    7.8802   -3.1071   26.0197 C   0  0  0  0  0  0  0  0  0  0  0  0
    7.0405    1.3427   26.0318 C   0  0  0  0  0  0  0  0  0  0  0  0
   10.8322    0.4960   25.7364 C   0  0  0  0  0  0  0  0  0  0  0  0
    7.6469   -0.9610   26.6599 C   0  0  0  0  0  0  0  0  0  0  0  0
   11.8940   -0.7277   21.0198 C   0  0  0  0  0  0  0  0  0  0  0  0
    6.7986   -1.0226   21.1161 C   0  0  0  0  0  0  0  0  0  0  0  0
   10.0737   -2.2296   21.8084 C   0  0  0  0  0  0  0  0  0  0  0  0
   10.0068   -1.2510   19.4629 C   0  0  0  0  0  0  0  0  0  0  0  0
    9.0062   -1.2156   22.2160 C   0  0  0  0  0  0  0  0  0  0  0  0
    8.9266   -0.2790   19.9394 C   0  0  0  0  0  0  0  0  0  0  0  0
   10.8943   -1.7659   20.6007 C   0  0  0  0  0  0  0  0  0  0  0  0
   14.2144    0.9007   22.2235 C   0  0  0  0  0  0  0  0  0  0  0  0
   13.2401   -2.4693   22.2034 C   0  0  0  0  0  0  0  0  0  0  0  0
    5.8864   -6.0135   24.5503 C   0  0  0  0  0  0  0  0  0  0  0  0
    7.5776   -4.4747   25.5556 C   0  0  0  0  0  0  0  0  0  0  0  0
    6.0214   -0.6146   19.8900 C   0  0  0  0  0  0  0  0  0  0  0  0
   13.3554   -0.1254   22.9596 C   0  0  2  0  0  0  0  0  0  0  0  0
    8.9725   -1.3038   26.7178 N   0  0  0  0  0  0  0  0  0  0  0  0
    8.1804   -0.8425   21.0684 N   0  0  0  0  0  0  0  0  0  0  0  0
   12.7942   -1.0939   22.0211 N   0  0  0  0  0  0  0  0  0  0  0  0
    6.2123   -4.6268   24.9648 N   0  3  0  0  0  0  0  0  0  0  0  0
   11.8774    0.3789   20.4741 O   0  0  0  0  0  0  0  0  0  0  0  0
    6.1942   -1.4889   22.0853 O   0  0  0  0  0  0  0  0  0  0  0  0
   11.2717   -1.2246   27.6778 O   0  0  0  0  0  0  0  0  0  0  0  0
    9.6930    0.7342   28.0565 O   0  0  0  0  0  0  0  0  0  0  0  0
    7.4053    1.0989   24.7644 F   0  0  0  0  0  0  0  0  0  0  0  0
   10.2787   -0.2794   27.1993 S   0  0  0  0  0  0  0  0  0  0  0  0
    5.5502    1.0644   20.1279 Cl  0  0  0  0  0  0  0  0  0  0  0  0
    5.9747    2.0938   29.6818 H   0  0  0  0  0  0  0  0  0  0  0  0
    5.7918    3.8587   27.9481 H   0  0  0  0  0  0  0  0  0  0  0  0
   10.2823    3.2766   23.8583 H   0  0  0  0  0  0  0  0  0  0  0  0
    6.8339   -0.1423   29.0916 H   0  0  0  0  0  0  0  0  0  0  0  0
   12.0526    2.2253   22.4886 H   0  0  0  0  0  0  0  0  0  0  0  0
    6.4742    3.3781   25.6117 H   0  0  0  0  0  0  0  0  0  0  0  0
    9.4958    2.1836   25.9299 H   0  0  0  0  0  0  0  0  0  0  0  0
   12.2664   -1.0464   25.2755 H   0  0  0  0  0  0  0  0  0  0  0  0
    5.8736   -2.1153   26.0796 H   0  0  0  0  0  0  0  0  0  0  0  0
   10.1034   -3.0744   26.3067 H   0  0  0  0  0  0  0  0  0  0  0  0
   10.7301   -2.4253   22.6648 H   0  0  0  0  0  0  0  0  0  0  0  0
    9.5822   -3.1794   21.5613 H   0  0  0  0  0  0  0  0  0  0  0  0
    9.5181   -2.1075   18.9807 H   0  0  0  0  0  0  0  0  0  0  0  0
   10.6180   -0.7611   18.6954 H   0  0  0  0  0  0  0  0  0  0  0  0
    8.3917   -1.6333   23.0199 H   0  0  0  0  0  0  0  0  0  0  0  0
    9.4665   -0.2991   22.6032 H   0  0  0  0  0  0  0  0  0  0  0  0
    9.3739    0.6605   20.2836 H   0  0  0  0  0  0  0  0  0  0  0  0
    8.2739   -0.0289   19.1010 H   0  0  0  0  0  0  0  0  0  0  0  0
   11.4854   -2.6136   20.2324 H   0  0  0  0  0  0  0  0  0  0  0  0
   13.6059    1.5145   21.5504 H   0  0  0  0  0  0  0  0  0  0  0  0
   14.7102    1.5688   22.9368 H   0  0  0  0  0  0  0  0  0  0  0  0
   15.0016    0.4248   21.6279 H   0  0  0  0  0  0  0  0  0  0  0  0
   14.1432   -2.6455   21.6006 H   0  0  0  0  0  0  0  0  0  0  0  0
   13.4685   -2.6429   23.2653 H   0  0  0  0  0  0  0  0  0  0  0  0
   12.4448   -3.1581   21.8820 H   0  0  0  0  0  0  0  0  0  0  0  0
    5.9800   -6.6552   25.4283 H   0  0  0  0  0  0  0  0  0  0  0  0
    4.8635   -6.0165   24.1690 H   0  0  0  0  0  0  0  0  0  0  0  0
    6.5957   -6.3054   23.7735 H   0  0  0  0  0  0  0  0  0  0  0  0
    8.2781   -4.8183   24.7738 H   0  0  0  0  0  0  0  0  0  0  0  0
    7.6313   -5.2170   26.3717 H   0  0  0  0  0  0  0  0  0  0  0  0
    5.1401   -1.2405   19.8082 H   0  0  0  0  0  0  0  0  0  0  0  0
    6.6642   -0.7015   19.0215 H   0  0  0  0  0  0  0  0  0  0  0  0
   14.0173   -0.7059   23.6140 H   0  0  0  0  0  0  0  0  0  0  0  0
    6.1322   -3.9991   24.1566 H   0  0  0  0  0  0  0  0  0  0  0  0
    5.5198   -4.3016   25.6493 H   0  0  0  0  0  0  0  0  0  0  0  0
  1  2  1  0  0  0  0
  1  4  2  0  0  0  0
  2  6  2  0  0  0  0
  3  5  1  0  0  0  0
  3  7  2  0  0  0  0
  4 11  1  0  0  0  0
  5 12  2  0  0  0  0
  6 14  1  0  0  0  0
  7 15  1  0  0  0  0
  8 12  1  0  0  0  0
  8 15  2  0  0  0  0
  9 13  1  0  0  0  0
  9 16  2  0  0  0  0
 10 13  2  0  0  0  0
 10 30  1  0  0  0  0
 11 14  2  0  0  0  0
 11 16  1  0  0  0  0
 12 29  1  0  0  0  0
 13 27  1  0  0  0  0
 14 38  1  0  0  0  0
 15 39  1  0  0  0  0
 16 30  1  0  0  0  0
 17 23  1  0  0  0  0
 17 32  1  0  0  0  0
 17 34  2  0  0  0  0
 18 28  1  0  0  0  0
 18 31  1  0  0  0  0
 18 35  2  0  0  0  0
 19 21  1  0  0  0  0
 19 23  1  0  0  0  0
 20 22  1  0  0  0  0
 20 23  1  0  0  0  0
 21 31  1  0  0  0  0
 22 31  1  0  0  0  0
 24 29  1  0  0  0  0
 25 32  1  0  0  0  0
 26 33  1  0  0  0  0
 27 33  1  0  0  0  0
 28 40  1  0  0  0  0
 29 32  1  0  0  0  0
 30 39  1  0  0  0  0
 36 39  2  0  0  0  0
 37 39  2  0  0  0  0
  1 41  1  0  0  0  0
  2 42  1  0  0  0  0
  3 43  1  0  0  0  0
  4 44  1  0  0  0  0
  5 45  1  0  0  0  0
  6 46  1  0  0  0  0
  7 47  1  0  0  0  0
  8 48  1  0  0  0  0
  9 49  1  0  0  0  0
 10 50  1  0  0  0  0
 19 51  1  0  0  0  0
 19 52  1  0  0  0  0
 20 53  1  0  0  0  0
 20 54  1  0  0  0  0
 21 55  1  0  0  0  0
 21 56  1  0  0  0  0
 22 57  1  0  0  0  0
 22 58  1  0  0  0  0
 23 59  1  0  0  0  0
 24 60  1  0  0  0  0
 24 61  1  0  0  0  0
 24 62  1  0  0  0  0
 25 63  1  0  0  0  0
 25 64  1  0  0  0  0
 25 65  1  0  0  0  0
 26 66  1  0  0  0  0
 26 67  1  0  0  0  0
 26 68  1  0  0  0  0
 27 69  1  0  0  0  0
 27 70  1  0  0  0  0
 28 71  1  0  0  0  0
 28 72  1  0  0  0  0
 29 73  1  0  0  0  0
 33 74  1  0  0  0  0
 33 75  1  0  0  0  0
M  CHG  1  33   1
M  END
> <creator>
Maksym Voznyy

> <fragments>
x0305

> <real_space>
FALSE

> <SCR>
FALSE

> <BB>
FALSE

> <link>
https://covid.postera.ai/covid/submissions/8fdbca50-c94c-4218-91b0-3b0489774fa8

> <covalent_frag>
FALSE

> <covalent_warhead>
TRUE

> <acrylamide>
FALSE

> <acrylamide_adduct>
FALSE

> <chloroacetamide>
TRUE

> <chloroacetamide_adduct>
FALSE

> <vinylsulfonamide>
FALSE

> <vinylsulfonamide_adduct>
FALSE

> <in_molport_or_mcule>
FALSE

> <in_emolecules>
FALSE

> <Hybrid2>
0.831258

> <Mpro-x0305_dock>
0.831258

> <site>
active-noncovalent

> <covalent_distance_min>
5.3395534

> <covalent_distance_mean>
6.4501905

> <covalent_distance_stderr>
0.03839754

$$$$
MAK-UNK-8fd-18
  -OEChem-04062011563D

 74 77  0     1  0  0  0  0  0999 V2000
    8.1891   -6.2800   23.3590 C   0  0  0  0  0  0  0  0  0  0  0  0
    7.4776   -6.2105   22.1613 C   0  0  0  0  0  0  0  0  0  0  0  0
   13.9056   -0.6477   22.6068 C   0  0  0  0  0  0  0  0  0  0  0  0
    8.5419   -5.1088   24.0296 C   0  0  0  0  0  0  0  0  0  0  0  0
    7.1190   -4.9699   21.6341 C   0  0  0  0  0  0  0  0  0  0  0  0
   12.7346   -1.3941   22.5369 C   0  0  0  0  0  0  0  0  0  0  0  0
    8.2072   -2.2603   25.4747 C   0  0  0  0  0  0  0  0  0  0  0  0
   13.8221    0.7141   22.3653 C   0  0  0  0  0  0  0  0  0  0  0  0
   11.5555    0.6023   22.0075 C   0  0  0  0  0  0  0  0  0  0  0  0
    9.5077   -0.6638   24.5638 C   0  0  0  0  0  0  0  0  0  0  0  0
    8.1832   -3.8682   23.5024 C   0  0  0  0  0  0  0  0  0  0  0  0
    8.8119   -0.9998   25.7041 C   0  0  0  0  0  0  0  0  0  0  0  0
    7.4718   -3.7988   22.3046 C   0  0  0  0  0  0  0  0  0  0  0  0
   11.5328   -0.7648   22.2320 C   0  0  0  0  0  0  0  0  0  0  0  0
    8.5521   -2.6563   24.2012 C   0  0  0  0  0  0  0  0  0  0  0  0
    7.4945    1.7492   25.9760 C   0  0  0  0  0  0  0  0  0  0  0  0
    6.6700    6.6425   24.7779 C   0  0  0  0  0  0  0  0  0  0  0  0
    6.5359    3.8280   26.9511 C   0  0  0  0  0  0  0  0  0  0  0  0
    5.9161    3.1105   24.5923 C   0  0  0  0  0  0  0  0  0  0  0  0
    7.4485    4.8911   26.3424 C   0  0  0  0  0  0  0  0  0  0  0  0
    6.8345    4.2097   24.0565 C   0  0  0  0  0  0  0  0  0  0  0  0
    6.2934    2.6489   26.0036 C   0  0  0  0  0  0  0  0  0  0  0  0
    7.2257    0.7624   29.3664 C   0  0  0  0  0  0  0  0  0  0  0  0
    5.8734   -0.7534   27.8765 C   0  0  0  0  0  0  0  0  0  0  0  0
   11.2040   -0.2755   27.4700 C   0  0  0  0  0  0  0  0  0  0  0  0
    6.8519    7.1215   23.3597 C   0  0  0  0  0  0  0  0  0  0  0  0
    8.7122   -0.1700   26.9735 C   0  0  2  0  0  0  0  0  0  0  0  0
    6.5466    0.6043   28.0137 C   0  0  0  0  0  0  0  0  0  0  0  0
   12.6731    1.3607   22.0664 N   0  0  0  0  0  0  0  0  0  0  0  0
    9.3430   -1.6782   23.6571 N   0  0  0  0  0  0  0  0  0  0  0  0
    6.9604    5.3016   25.0265 N   0  0  0  0  0  0  0  0  0  0  0  0
    7.5496    0.7463   26.9535 N   0  0  0  0  0  0  0  0  0  0  0  0
    9.9824    0.5692   27.3466 N   0  3  0  0  0  0  0  0  0  0  0  0
    8.3595    1.9284   25.1148 O   0  0  0  0  0  0  0  0  0  0  0  0
    6.2796    7.4372   25.6371 O   0  0  0  0  0  0  0  0  0  0  0  0
    9.0825   -0.9416   21.2899 O   0  0  0  0  0  0  0  0  0  0  0  0
   10.3976   -3.0588   21.8006 O   0  0  0  0  0  0  0  0  0  0  0  0
    7.1193   -2.6138   21.7846 F   0  0  0  0  0  0  0  0  0  0  0  0
   10.0184   -1.6838   22.1338 S   0  0  0  0  0  0  0  0  0  0  0  0
    7.2484    8.8337   23.4533 Cl  0  0  0  0  0  0  0  0  0  0  0  0
    8.4679   -7.2461   23.7696 H   0  0  0  0  0  0  0  0  0  0  0  0
    7.2024   -7.1224   21.6395 H   0  0  0  0  0  0  0  0  0  0  0  0
   14.8538   -1.1170   22.8428 H   0  0  0  0  0  0  0  0  0  0  0  0
    9.0965   -5.1799   24.9623 H   0  0  0  0  0  0  0  0  0  0  0  0
    6.5646   -4.9158   20.7018 H   0  0  0  0  0  0  0  0  0  0  0  0
   12.7693   -2.4642   22.7214 H   0  0  0  0  0  0  0  0  0  0  0  0
    7.5875   -2.8169   26.1653 H   0  0  0  0  0  0  0  0  0  0  0  0
   14.7068    1.3408   22.4076 H   0  0  0  0  0  0  0  0  0  0  0  0
   10.6492    1.1489   21.7656 H   0  0  0  0  0  0  0  0  0  0  0  0
   10.1027    0.2083   24.3256 H   0  0  0  0  0  0  0  0  0  0  0  0
    6.9710    3.4774   27.8948 H   0  0  0  0  0  0  0  0  0  0  0  0
    5.5715    4.2902   27.1983 H   0  0  0  0  0  0  0  0  0  0  0  0
    4.8870    3.4921   24.6085 H   0  0  0  0  0  0  0  0  0  0  0  0
    5.9287    2.2616   23.8981 H   0  0  0  0  0  0  0  0  0  0  0  0
    7.5145    5.7489   27.0193 H   0  0  0  0  0  0  0  0  0  0  0  0
    8.4653    4.5033   26.2110 H   0  0  0  0  0  0  0  0  0  0  0  0
    7.8426    3.8196   23.8755 H   0  0  0  0  0  0  0  0  0  0  0  0
    6.4538    4.5581   23.0947 H   0  0  0  0  0  0  0  0  0  0  0  0
    5.4758    2.0381   26.4065 H   0  0  0  0  0  0  0  0  0  0  0  0
    7.9762   -0.0198   29.5197 H   0  0  0  0  0  0  0  0  0  0  0  0
    7.7234    1.7348   29.4529 H   0  0  0  0  0  0  0  0  0  0  0  0
    6.4939    0.6940   30.1788 H   0  0  0  0  0  0  0  0  0  0  0  0
    6.6011   -1.5623   28.0044 H   0  0  0  0  0  0  0  0  0  0  0  0
    5.4148   -0.8632   26.8883 H   0  0  0  0  0  0  0  0  0  0  0  0
    5.0922   -0.8912   28.6324 H   0  0  0  0  0  0  0  0  0  0  0  0
   11.0085   -1.0368   28.2274 H   0  0  0  0  0  0  0  0  0  0  0  0
   11.3954   -0.7305   26.4963 H   0  0  0  0  0  0  0  0  0  0  0  0
   12.0297    0.3729   27.7693 H   0  0  0  0  0  0  0  0  0  0  0  0
    5.9217    6.9837   22.8203 H   0  0  0  0  0  0  0  0  0  0  0  0
    7.6701    6.5739   22.9062 H   0  0  0  0  0  0  0  0  0  0  0  0
    8.5928   -0.8859   27.7958 H   0  0  0  0  0  0  0  0  0  0  0  0
    5.8011    1.3961   27.8823 H   0  0  0  0  0  0  0  0  0  0  0  0
   10.1646    1.2881   26.6324 H   0  0  0  0  0  0  0  0  0  0  0  0
    9.8447    1.0824   28.2268 H   0  0  0  0  0  0  0  0  0  0  0  0
  1  2  1  0  0  0  0
  1  4  2  0  0  0  0
  2  5  2  0  0  0  0
  3  6  2  0  0  0  0
  3  8  1  0  0  0  0
  4 11  1  0  0  0  0
  5 13  1  0  0  0  0
  6 14  1  0  0  0  0
  7 12  1  0  0  0  0
  7 15  2  0  0  0  0
  8 29  2  0  0  0  0
  9 14  2  0  0  0  0
  9 29  1  0  0  0  0
 10 12  2  0  0  0  0
 10 30  1  0  0  0  0
 11 13  2  0  0  0  0
 11 15  1  0  0  0  0
 12 27  1  0  0  0  0
 13 38  1  0  0  0  0
 14 39  1  0  0  0  0
 15 30  1  0  0  0  0
 16 22  1  0  0  0  0
 16 32  1  0  0  0  0
 16 34  2  0  0  0  0
 17 26  1  0  0  0  0
 17 31  1  0  0  0  0
 17 35  2  0  0  0  0
 18 20  1  0  0  0  0
 18 22  1  0  0  0  0
 19 21  1  0  0  0  0
 19 22  1  0  0  0  0
 20 31  1  0  0  0  0
 21 31  1  0  0  0  0
 23 28  1  0  0  0  0
 24 28  1  0  0  0  0
 25 33  1  0  0  0  0
 26 40  1  0  0  0  0
 27 32  1  0  0  0  0
 27 33  1  0  0  0  0
 28 32  1  0  0  0  0
 30 39  1  0  0  0  0
 36 39  2  0  0  0  0
 37 39  2  0  0  0  0
  1 41  1  0  0  0  0
  2 42  1  0  0  0  0
  3 43  1  0  0  0  0
  4 44  1  0  0  0  0
  5 45  1  0  0  0  0
  6 46  1  0  0  0  0
  7 47  1  0  0  0  0
  8 48  1  0  0  0  0
  9 49  1  0  0  0  0
 10 50  1  0  0  0  0
 18 51  1  0  0  0  0
 18 52  1  0  0  0  0
 19 53  1  0  0  0  0
 19 54  1  0  0  0  0
 20 55  1  0  0  0  0
 20 56  1  0  0  0  0
 21 57  1  0  0  0  0
 21 58  1  0  0  0  0
 22 59  1  0  0  0  0
 23 60  1  0  0  0  0
 23 61  1  0  0  0  0
 23 62  1  0  0  0  0
 24 63  1  0  0  0  0
 24 64  1  0  0  0  0
 24 65  1  0  0  0  0
 25 66  1  0  0  0  0
 25 67  1  0  0  0  0
 25 68  1  0  0  0  0
 26 69  1  0  0  0  0
 26 70  1  0  0  0  0
 27 71  1  0  0  0  0
 28 72  1  0  0  0  0
 33 73  1  0  0  0  0
 33 74  1  0  0  0  0
M  CHG  1  33   1
M  END
> <creator>
Maksym Voznyy

> <fragments>
x0305

> <real_space>
FALSE

> <SCR>
FALSE

> <BB>
FALSE

> <link>
https://covid.postera.ai/covid/submissions/8fdbca50-c94c-4218-91b0-3b0489774fa8

> <covalent_frag>
FALSE

> <covalent_warhead>
TRUE

> <acrylamide>
FALSE

> <acrylamide_adduct>
FALSE

> <chloroacetamide>
TRUE

> <chloroacetamide_adduct>
FALSE

> <vinylsulfonamide>
FALSE

> <vinylsulfonamide_adduct>
FALSE

> <in_molport_or_mcule>
FALSE

> <in_emolecules>
FALSE

> <Hybrid2>
0.848668

> <Mpro-x0305_dock>
0.848668

> <site>
active-noncovalent

> <covalent_distance_min>
10.553257

> <covalent_distance_mean>
11.714482

> <covalent_distance_stderr>
0.09575532

$$$$
MAK-UNK-8fd-5
  -OEChem-04062011563D

 76 79  0     1  0  0  0  0  0999 V2000
   13.6623   -2.5634   23.9183 C   0  0  0  0  0  0  0  0  0  0  0  0
   13.5419   -3.0521   22.6175 C   0  0  0  0  0  0  0  0  0  0  0  0
    7.0171   -0.9037   21.4023 C   0  0  0  0  0  0  0  0  0  0  0  0
   13.2847   -1.2523   24.2085 C   0  0  0  0  0  0  0  0  0  0  0  0
   13.0440   -2.2298   21.6068 C   0  0  0  0  0  0  0  0  0  0  0  0
    7.7362   -0.7867   22.5865 C   0  0  0  0  0  0  0  0  0  0  0  0
   13.1652    2.0721   23.4660 C   0  0  0  0  0  0  0  0  0  0  0  0
    7.4483   -0.1731   20.3068 C   0  0  0  0  0  0  0  0  0  0  0  0
    9.1982    0.7335   21.4875 C   0  0  0  0  0  0  0  0  0  0  0  0
   11.0835    2.6384   24.1105 C   0  0  0  0  0  0  0  0  0  0  0  0
   12.7867   -0.4300   23.1978 C   0  0  0  0  0  0  0  0  0  0  0  0
   12.3342    3.1534   23.8498 C   0  0  0  0  0  0  0  0  0  0  0  0
   12.6664   -0.9187   21.8970 C   0  0  0  0  0  0  0  0  0  0  0  0
    8.8488    0.0456   22.6383 C   0  0  0  0  0  0  0  0  0  0  0  0
   12.3971    0.9294   23.5037 C   0  0  0  0  0  0  0  0  0  0  0  0
    8.7425    0.8414   25.3887 C   0  0  0  0  0  0  0  0  0  0  0  0
    8.0909   -1.0147   27.6039 C   0  0  0  0  0  0  0  0  0  0  0  0
    5.4729   -5.3819   27.2387 C   0  0  0  0  0  0  0  0  0  0  0  0
    5.7525   -1.8618   27.6774 C   0  0  0  0  0  0  0  0  0  0  0  0
    7.5846   -3.0306   28.9965 C   0  0  0  0  0  0  0  0  0  0  0  0
    5.8159   -3.0008   26.6614 C   0  0  0  0  0  0  0  0  0  0  0  0
    7.5778   -4.1440   27.9482 C   0  0  0  0  0  0  0  0  0  0  0  0
    7.0608   -1.6958   28.4570 C   0  0  0  0  0  0  0  0  0  0  0  0
   10.4785    0.8311   27.1719 C   0  0  0  0  0  0  0  0  0  0  0  0
    7.1467    1.1527   28.4142 C   0  0  0  0  0  0  0  0  0  0  0  0
   12.1356    6.8557   24.7637 C   0  0  0  0  0  0  0  0  0  0  0  0
   12.7331    4.5703   23.9521 C   0  0  0  0  0  0  0  0  0  0  0  0
    6.0111   -6.6139   27.9218 C   0  0  0  0  0  0  0  0  0  0  0  0
    9.0394    1.1690   26.8341 C   0  0  2  0  0  0  0  0  0  0  0  0
    8.5241    0.6454   20.3189 N   0  0  0  0  0  0  0  0  0  0  0  0
   11.1334    1.2857   23.8965 N   0  0  0  0  0  0  0  0  0  0  0  0
    6.2677   -4.2379   27.2969 N   0  0  0  0  0  0  0  0  0  0  0  0
    8.0916    0.3806   27.6175 N   0  0  0  0  0  0  0  0  0  0  0  0
   11.7637    5.4206   24.7093 N   0  3  0  0  0  0  0  0  0  0  0  0
    8.8744   -1.7015   26.9428 O   0  0  0  0  0  0  0  0  0  0  0  0
    4.3780   -5.4363   26.6728 O   0  0  0  0  0  0  0  0  0  0  0  0
   10.2099   -1.0754   24.5856 O   0  0  0  0  0  0  0  0  0  0  0  0
   12.1893   -0.1409   20.9141 F   0  0  0  0  0  0  0  0  0  0  0  0
    9.7740    0.2174   24.1039 S   0  0  2  0  0  0  0  0  0  0  0  0
    4.6166   -7.5204   28.4974 Cl  0  0  0  0  0  0  0  0  0  0  0  0
   14.0497   -3.2040   24.7053 H   0  0  0  0  0  0  0  0  0  0  0  0
   13.8355   -4.0731   22.3916 H   0  0  0  0  0  0  0  0  0  0  0  0
    6.1465   -1.5464   21.3387 H   0  0  0  0  0  0  0  0  0  0  0  0
   13.3847   -0.8863   25.2277 H   0  0  0  0  0  0  0  0  0  0  0  0
   12.9498   -2.6105   20.5940 H   0  0  0  0  0  0  0  0  0  0  0  0
    7.4217   -1.3475   23.4622 H   0  0  0  0  0  0  0  0  0  0  0  0
   14.2108    2.1240   23.1924 H   0  0  0  0  0  0  0  0  0  0  0  0
    6.9218   -0.2295   19.3597 H   0  0  0  0  0  0  0  0  0  0  0  0
   10.0566    1.3978   21.4664 H   0  0  0  0  0  0  0  0  0  0  0  0
   10.1685    3.1211   24.4284 H   0  0  0  0  0  0  0  0  0  0  0  0
    7.6890    0.9939   25.0873 H   0  0  0  0  0  0  0  0  0  0  0  0
    5.4953   -0.9304   27.1586 H   0  0  0  0  0  0  0  0  0  0  0  0
    4.9393   -2.0656   28.3859 H   0  0  0  0  0  0  0  0  0  0  0  0
    6.9560   -3.3418   29.8409 H   0  0  0  0  0  0  0  0  0  0  0  0
    8.6026   -2.9103   29.3864 H   0  0  0  0  0  0  0  0  0  0  0  0
    4.8326   -3.1356   26.1997 H   0  0  0  0  0  0  0  0  0  0  0  0
    6.5221   -2.7664   25.8564 H   0  0  0  0  0  0  0  0  0  0  0  0
    8.3158   -3.9431   27.1632 H   0  0  0  0  0  0  0  0  0  0  0  0
    7.8683   -5.0839   28.4211 H   0  0  0  0  0  0  0  0  0  0  0  0
    6.8819   -1.0186   29.3015 H   0  0  0  0  0  0  0  0  0  0  0  0
   10.6818   -0.2296   26.9897 H   0  0  0  0  0  0  0  0  0  0  0  0
   11.1708    1.4239   26.5645 H   0  0  0  0  0  0  0  0  0  0  0  0
   10.7031    1.0347   28.2253 H   0  0  0  0  0  0  0  0  0  0  0  0
    7.5732    1.3392   29.4108 H   0  0  0  0  0  0  0  0  0  0  0  0
    6.9458    2.1127   27.9160 H   0  0  0  0  0  0  0  0  0  0  0  0
    6.2076    0.5893   28.5169 H   0  0  0  0  0  0  0  0  0  0  0  0
   12.2182    7.2183   23.7374 H   0  0  0  0  0  0  0  0  0  0  0  0
   11.3487    7.3845   25.3048 H   0  0  0  0  0  0  0  0  0  0  0  0
   13.0913    6.9336   25.2855 H   0  0  0  0  0  0  0  0  0  0  0  0
   13.7027    4.6983   24.4654 H   0  0  0  0  0  0  0  0  0  0  0  0
   12.8375    5.0500   22.9627 H   0  0  0  0  0  0  0  0  0  0  0  0
    6.6289   -6.3099   28.7591 H   0  0  0  0  0  0  0  0  0  0  0  0
    6.5654   -7.2021   27.1996 H   0  0  0  0  0  0  0  0  0  0  0  0
    8.8349    2.2279   27.0156 H   0  0  0  0  0  0  0  0  0  0  0  0
   11.6786    5.0516   25.6634 H   0  0  0  0  0  0  0  0  0  0  0  0
   10.8360    5.3225   24.2809 H   0  0  0  0  0  0  0  0  0  0  0  0
  1  2  1  0  0  0  0
  1  4  2  0  0  0  0
  2  5  2  0  0  0  0
  3  6  2  0  0  0  0
  3  8  1  0  0  0  0
  4 11  1  0  0  0  0
  5 13  1  0  0  0  0
  6 14  1  0  0  0  0
  7 12  1  0  0  0  0
  7 15  2  0  0  0  0
  8 30  2  0  0  0  0
  9 14  2  0  0  0  0
  9 30  1  0  0  0  0
 10 12  2  0  0  0  0
 10 31  1  0  0  0  0
 11 13  2  0  0  0  0
 11 15  1  0  0  0  0
 12 27  1  0  0  0  0
 13 38  1  0  0  0  0
 14 39  1  0  0  0  0
 15 31  1  0  0  0  0
 16 29  1  0  0  0  0
 16 39  2  0  0  0  0
 17 23  1  0  0  0  0
 17 33  1  0  0  0  0
 17 35  2  0  0  0  0
 18 28  1  0  0  0  0
 18 32  1  0  0  0  0
 18 36  2  0  0  0  0
 19 21  1  0  0  0  0
 19 23  1  0  0  0  0
 20 22  1  0  0  0  0
 20 23  1  0  0  0  0
 21 32  1  0  0  0  0
 22 32  1  0  0  0  0
 24 29  1  0  0  0  0
 25 33  1  0  0  0  0
 26 34  1  0  0  0  0
 27 34  1  0  0  0  0
 28 40  1  0  0  0  0
 29 33  1  0  0  0  0
 31 39  1  0  0  0  0
 37 39  2  0  0  0  0
  1 41  1  0  0  0  0
  2 42  1  0  0  0  0
  3 43  1  0  0  0  0
  4 44  1  0  0  0  0
  5 45  1  0  0  0  0
  6 46  1  0  0  0  0
  7 47  1  0  0  0  0
  8 48  1  0  0  0  0
  9 49  1  0  0  0  0
 10 50  1  0  0  0  0
 16 51  1  0  0  0  0
 19 52  1  0  0  0  0
 19 53  1  0  0  0  0
 20 54  1  0  0  0  0
 20 55  1  0  0  0  0
 21 56  1  0  0  0  0
 21 57  1  0  0  0  0
 22 58  1  0  0  0  0
 22 59  1  0  0  0  0
 23 60  1  0  0  0  0
 24 61  1  0  0  0  0
 24 62  1  0  0  0  0
 24 63  1  0  0  0  0
 25 64  1  0  0  0  0
 25 65  1  0  0  0  0
 25 66  1  0  0  0  0
 26 67  1  0  0  0  0
 26 68  1  0  0  0  0
 26 69  1  0  0  0  0
 27 70  1  0  0  0  0
 27 71  1  0  0  0  0
 28 72  1  0  0  0  0
 28 73  1  0  0  0  0
 29 74  1  0  0  0  0
 34 75  1  0  0  0  0
 34 76  1  0  0  0  0
M  CHG  1  34   1
M  END
> <creator>
Maksym Voznyy

> <fragments>
x0305

> <real_space>
FALSE

> <SCR>
FALSE

> <BB>
FALSE

> <link>
https://covid.postera.ai/covid/submissions/8fdbca50-c94c-4218-91b0-3b0489774fa8

> <covalent_frag>
FALSE

> <covalent_warhead>
TRUE

> <acrylamide>
FALSE

> <acrylamide_adduct>
FALSE

> <chloroacetamide>
TRUE

> <chloroacetamide_adduct>
FALSE

> <vinylsulfonamide>
FALSE

> <vinylsulfonamide_adduct>
FALSE

> <in_molport_or_mcule>
FALSE

> <in_emolecules>
FALSE

> <Hybrid2>
0.916315

> <Mpro-x0305_dock>
0.916315

> <site>
active-noncovalent

> <covalent_distance_min>
8.767566

> <covalent_distance_mean>
10.677055

> <covalent_distance_stderr>
0.20866582

$$$$
MAK-UNK-8fd-29
  -OEChem-04062011563D

 74 77  0     0  0  0  0  0  0999 V2000
    6.1456    2.8099   26.8052 C   0  0  0  0  0  0  0  0  0  0  0  0
    9.9145   -3.0441   25.2795 C   0  0  0  0  0  0  0  0  0  0  0  0
   10.8789   -2.8890   24.2838 C   0  0  0  0  0  0  0  0  0  0  0  0
    6.7456    1.7331   27.4484 C   0  0  0  0  0  0  0  0  0  0  0  0
    6.7079   -3.5755   26.2930 C   0  0  0  0  0  0  0  0  0  0  0  0
    9.3474   -1.5178   23.0142 C   0  0  0  0  0  0  0  0  0  0  0  0
    6.5261    3.0800   25.5006 C   0  0  0  0  0  0  0  0  0  0  0  0
    8.0053    1.3224   25.4734 C   0  0  0  0  0  0  0  0  0  0  0  0
    6.5153   -2.1746   28.0453 C   0  0  0  0  0  0  0  0  0  0  0  0
    8.6666   -2.4362   25.1426 C   0  0  0  0  0  0  0  0  0  0  0  0
    5.9757   -3.3067   27.4757 C   0  0  0  0  0  0  0  0  0  0  0  0
   10.5954   -2.1258   23.1511 C   0  0  0  0  0  0  0  0  0  0  0  0
    8.3831   -1.6730   24.0100 C   0  0  0  0  0  0  0  0  0  0  0  0
    7.6943    0.9700   26.7768 C   0  0  0  0  0  0  0  0  0  0  0  0
    7.6729   -2.5995   26.1760 C   0  0  0  0  0  0  0  0  0  0  0  0
   12.5219   -0.9029   22.1491 C   0  0  0  0  0  0  0  0  0  0  0  0
   13.2047    4.3943   23.3623 C   0  0  0  0  0  0  0  0  0  0  0  0
   13.6650    0.7314   23.6322 C   0  0  0  0  0  0  0  0  0  0  0  0
   11.3176    1.1731   22.7222 C   0  0  0  0  0  0  0  0  0  0  0  0
   13.9250    2.0691   22.9457 C   0  0  0  0  0  0  0  0  0  0  0  0
   11.5105    2.5193   23.4119 C   0  0  0  0  0  0  0  0  0  0  0  0
   12.3173    0.1250   23.2219 C   0  0  0  0  0  0  0  0  0  0  0  0
   13.0322   -3.6736   21.1324 C   0  0  0  0  0  0  0  0  0  0  0  0
   11.3703   -2.4004   19.7313 C   0  0  0  0  0  0  0  0  0  0  0  0
    4.0680   -5.7766   29.6761 C   0  0  0  0  0  0  0  0  0  0  0  0
    4.8435   -4.0933   28.0016 C   0  0  0  0  0  0  0  0  0  0  0  0
   12.0667    5.3383   23.6645 C   0  0  0  0  0  0  0  0  0  0  0  0
   11.6591   -3.0187   21.0914 C   0  0  0  0  0  0  0  0  0  0  0  0
    7.4437    2.3614   24.8156 N   0  0  0  0  0  0  0  0  0  0  0  0
    7.5466   -1.7536   27.2468 N   0  0  0  0  0  0  0  0  0  0  0  0
   12.8719    3.0435   23.2433 N   0  0  0  0  0  0  0  0  0  0  0  0
   11.5971   -1.9653   22.1164 N   0  0  0  0  0  0  0  0  0  0  0  0
    5.1911   -4.9426   29.1823 N   0  3  0  0  0  0  0  0  0  0  0  0
   13.4539   -0.7336   21.3589 O   0  0  0  0  0  0  0  0  0  0  0  0
   14.3474    4.8399   23.2325 O   0  0  0  0  0  0  0  0  0  0  0  0
    9.7579   -0.6580   26.8947 O   0  0  0  0  0  0  0  0  0  0  0  0
    8.4311   -0.1421   29.0034 O   0  0  0  0  0  0  0  0  0  0  0  0
    7.1880   -1.0822   23.8636 F   0  0  0  0  0  0  0  0  0  0  0  0
    8.4813   -0.4112   27.5644 S   0  0  0  0  0  0  0  0  0  0  0  0
   11.4463    5.8921   22.1133 Cl  0  0  0  0  0  0  0  0  0  0  0  0
    5.4037    3.4186   27.3091 H   0  0  0  0  0  0  0  0  0  0  0  0
   10.1511   -3.6418   26.1569 H   0  0  0  0  0  0  0  0  0  0  0  0
   11.8481   -3.3674   24.4009 H   0  0  0  0  0  0  0  0  0  0  0  0
    6.4674    1.4972   28.4718 H   0  0  0  0  0  0  0  0  0  0  0  0
    6.5466   -4.3931   25.6028 H   0  0  0  0  0  0  0  0  0  0  0  0
    9.1154   -0.9213   22.1356 H   0  0  0  0  0  0  0  0  0  0  0  0
    6.0878    3.9090   24.9547 H   0  0  0  0  0  0  0  0  0  0  0  0
    8.7378    0.7646   24.8981 H   0  0  0  0  0  0  0  0  0  0  0  0
    6.2516   -1.6383   28.9475 H   0  0  0  0  0  0  0  0  0  0  0  0
   14.4813    0.0406   23.3993 H   0  0  0  0  0  0  0  0  0  0  0  0
   13.6704    0.8829   24.7172 H   0  0  0  0  0  0  0  0  0  0  0  0
   10.3034    0.8169   22.9226 H   0  0  0  0  0  0  0  0  0  0  0  0
   11.4111    1.3028   21.6417 H   0  0  0  0  0  0  0  0  0  0  0  0
   14.9073    2.4544   23.2510 H   0  0  0  0  0  0  0  0  0  0  0  0
   13.9596    1.9480   21.8531 H   0  0  0  0  0  0  0  0  0  0  0  0
   10.8231    3.2742   22.9951 H   0  0  0  0  0  0  0  0  0  0  0  0
   11.2415    2.4224   24.4727 H   0  0  0  0  0  0  0  0  0  0  0  0
   11.8860   -0.4081   24.0651 H   0  0  0  0  0  0  0  0  0  0  0  0
   13.8179   -2.9468   20.9021 H   0  0  0  0  0  0  0  0  0  0  0  0
   13.2418   -4.1019   22.1190 H   0  0  0  0  0  0  0  0  0  0  0  0
   13.0970   -4.4864   20.4006 H   0  0  0  0  0  0  0  0  0  0  0  0
   12.1280   -1.6513   19.4766 H   0  0  0  0  0  0  0  0  0  0  0  0
   10.3922   -1.9084   19.7265 H   0  0  0  0  0  0  0  0  0  0  0  0
   11.3758   -3.1566   18.9384 H   0  0  0  0  0  0  0  0  0  0  0  0
    3.7361   -6.4113   28.8524 H   0  0  0  0  0  0  0  0  0  0  0  0
    4.4385   -6.3766   30.5095 H   0  0  0  0  0  0  0  0  0  0  0  0
    3.2705   -5.1051   30.0000 H   0  0  0  0  0  0  0  0  0  0  0  0
    4.0055   -3.4547   28.3331 H   0  0  0  0  0  0  0  0  0  0  0  0
    4.4288   -4.7878   27.2495 H   0  0  0  0  0  0  0  0  0  0  0  0
   12.4484    6.1780   24.2339 H   0  0  0  0  0  0  0  0  0  0  0  0
   11.2960    4.7986   24.2026 H   0  0  0  0  0  0  0  0  0  0  0  0
   10.8901   -3.7632   21.3244 H   0  0  0  0  0  0  0  0  0  0  0  0
    5.5246   -4.3335   29.9383 H   0  0  0  0  0  0  0  0  0  0  0  0
    5.9824   -5.5465   28.9313 H   0  0  0  0  0  0  0  0  0  0  0  0
  1  4  2  0  0  0  0
  1  7  1  0  0  0  0
  2  3  2  0  0  0  0
  2 10  1  0  0  0  0
  3 12  1  0  0  0  0
  4 14  1  0  0  0  0
  5 11  1  0  0  0  0
  5 15  2  0  0  0  0
  6 12  2  0  0  0  0
  6 13  1  0  0  0  0
  7 29  2  0  0  0  0
  8 14  2  0  0  0  0
  8 29  1  0  0  0  0
  9 11  2  0  0  0  0
  9 30  1  0  0  0  0
 10 13  2  0  0  0  0
 10 15  1  0  0  0  0
 11 26  1  0  0  0  0
 12 32  1  0  0  0  0
 13 38  1  0  0  0  0
 14 39  1  0  0  0  0
 15 30  1  0  0  0  0
 16 22  1  0  0  0  0
 16 32  1  0  0  0  0
 16 34  2  0  0  0  0
 17 27  1  0  0  0  0
 17 31  1  0  0  0  0
 17 35  2  0  0  0  0
 18 20  1  0  0  0  0
 18 22  1  0  0  0  0
 19 21  1  0  0  0  0
 19 22  1  0  0  0  0
 20 31  1  0  0  0  0
 21 31  1  0  0  0  0
 23 28  1  0  0  0  0
 24 28  1  0  0  0  0
 25 33  1  0  0  0  0
 26 33  1  0  0  0  0
 27 40  1  0  0  0  0
 28 32  1  0  0  0  0
 30 39  1  0  0  0  0
 36 39  2  0  0  0  0
 37 39  2  0  0  0  0
  1 41  1  0  0  0  0
  2 42  1  0  0  0  0
  3 43  1  0  0  0  0
  4 44  1  0  0  0  0
  5 45  1  0  0  0  0
  6 46  1  0  0  0  0
  7 47  1  0  0  0  0
  8 48  1  0  0  0  0
  9 49  1  0  0  0  0
 18 50  1  0  0  0  0
 18 51  1  0  0  0  0
 19 52  1  0  0  0  0
 19 53  1  0  0  0  0
 20 54  1  0  0  0  0
 20 55  1  0  0  0  0
 21 56  1  0  0  0  0
 21 57  1  0  0  0  0
 22 58  1  0  0  0  0
 23 59  1  0  0  0  0
 23 60  1  0  0  0  0
 23 61  1  0  0  0  0
 24 62  1  0  0  0  0
 24 63  1  0  0  0  0
 24 64  1  0  0  0  0
 25 65  1  0  0  0  0
 25 66  1  0  0  0  0
 25 67  1  0  0  0  0
 26 68  1  0  0  0  0
 26 69  1  0  0  0  0
 27 70  1  0  0  0  0
 27 71  1  0  0  0  0
 28 72  1  0  0  0  0
 33 73  1  0  0  0  0
 33 74  1  0  0  0  0
M  CHG  1  33   1
M  END
> <creator>
Maksym Voznyy

> <fragments>
x0305

> <real_space>
FALSE

> <SCR>
FALSE

> <BB>
FALSE

> <link>
https://covid.postera.ai/covid/submissions/8fdbca50-c94c-4218-91b0-3b0489774fa8

> <covalent_frag>
FALSE

> <covalent_warhead>
TRUE

> <acrylamide>
FALSE

> <acrylamide_adduct>
FALSE

> <chloroacetamide>
TRUE

> <chloroacetamide_adduct>
FALSE

> <vinylsulfonamide>
FALSE

> <vinylsulfonamide_adduct>
FALSE

> <in_molport_or_mcule>
FALSE

> <in_emolecules>
FALSE

> <Hybrid2>
1.097454

> <Mpro-x0305_dock>
1.097454

> <site>
active-noncovalent

> <covalent_distance_min>
11.889367

> <covalent_distance_mean>
12.662061

> <covalent_distance_stderr>
0.045524262

$$$$
MAK-UNK-8fd-28
  -OEChem-04062011563D

 74 77  0     0  0  0  0  0  0999 V2000
    6.1456    2.8099   26.8052 C   0  0  0  0  0  0  0  0  0  0  0  0
    9.9145   -3.0441   25.2795 C   0  0  0  0  0  0  0  0  0  0  0  0
   10.8789   -2.8890   24.2838 C   0  0  0  0  0  0  0  0  0  0  0  0
    6.7456    1.7331   27.4484 C   0  0  0  0  0  0  0  0  0  0  0  0
    6.7079   -3.5755   26.2930 C   0  0  0  0  0  0  0  0  0  0  0  0
    9.3474   -1.5178   23.0142 C   0  0  0  0  0  0  0  0  0  0  0  0
    6.5261    3.0800   25.5006 C   0  0  0  0  0  0  0  0  0  0  0  0
    8.0053    1.3224   25.4734 C   0  0  0  0  0  0  0  0  0  0  0  0
    6.5153   -2.1746   28.0453 C   0  0  0  0  0  0  0  0  0  0  0  0
    8.6666   -2.4362   25.1426 C   0  0  0  0  0  0  0  0  0  0  0  0
    5.9757   -3.3067   27.4757 C   0  0  0  0  0  0  0  0  0  0  0  0
   10.5954   -2.1258   23.1511 C   0  0  0  0  0  0  0  0  0  0  0  0
    8.3831   -1.6730   24.0100 C   0  0  0  0  0  0  0  0  0  0  0  0
    7.6943    0.9700   26.7768 C   0  0  0  0  0  0  0  0  0  0  0  0
    7.6729   -2.5995   26.1760 C   0  0  0  0  0  0  0  0  0  0  0  0
   12.5219   -0.9029   22.1491 C   0  0  0  0  0  0  0  0  0  0  0  0
   13.2047    4.3943   23.3623 C   0  0  0  0  0  0  0  0  0  0  0  0
   13.6650    0.7314   23.6322 C   0  0  0  0  0  0  0  0  0  0  0  0
   11.3176    1.1731   22.7222 C   0  0  0  0  0  0  0  0  0  0  0  0
   13.9250    2.0691   22.9457 C   0  0  0  0  0  0  0  0  0  0  0  0
   11.5105    2.5193   23.4119 C   0  0  0  0  0  0  0  0  0  0  0  0
   12.3173    0.1250   23.2219 C   0  0  0  0  0  0  0  0  0  0  0  0
   13.0322   -3.6736   21.1324 C   0  0  0  0  0  0  0  0  0  0  0  0
   11.3703   -2.4004   19.7313 C   0  0  0  0  0  0  0  0  0  0  0  0
    4.0680   -5.7766   29.6761 C   0  0  0  0  0  0  0  0  0  0  0  0
    4.8435   -4.0933   28.0016 C   0  0  0  0  0  0  0  0  0  0  0  0
   12.0667    5.3383   23.6645 C   0  0  0  0  0  0  0  0  0  0  0  0
   11.6591   -3.0187   21.0914 C   0  0  0  0  0  0  0  0  0  0  0  0
    7.4437    2.3614   24.8156 N   0  0  0  0  0  0  0  0  0  0  0  0
    7.5466   -1.7536   27.2468 N   0  0  0  0  0  0  0  0  0  0  0  0
   12.8719    3.0435   23.2433 N   0  0  0  0  0  0  0  0  0  0  0  0
   11.5971   -1.9653   22.1164 N   0  0  0  0  0  0  0  0  0  0  0  0
    5.1911   -4.9426   29.1823 N   0  3  0  0  0  0  0  0  0  0  0  0
   13.4539   -0.7336   21.3589 O   0  0  0  0  0  0  0  0  0  0  0  0
   14.3474    4.8399   23.2325 O   0  0  0  0  0  0  0  0  0  0  0  0
    9.7579   -0.6580   26.8947 O   0  0  0  0  0  0  0  0  0  0  0  0
    8.4311   -0.1421   29.0034 O   0  0  0  0  0  0  0  0  0  0  0  0
    7.1880   -1.0822   23.8636 F   0  0  0  0  0  0  0  0  0  0  0  0
    8.4813   -0.4112   27.5644 S   0  0  0  0  0  0  0  0  0  0  0  0
   11.4463    5.8921   22.1133 Cl  0  0  0  0  0  0  0  0  0  0  0  0
    5.4037    3.4186   27.3091 H   0  0  0  0  0  0  0  0  0  0  0  0
   10.1511   -3.6418   26.1569 H   0  0  0  0  0  0  0  0  0  0  0  0
   11.8481   -3.3674   24.4009 H   0  0  0  0  0  0  0  0  0  0  0  0
    6.4674    1.4972   28.4718 H   0  0  0  0  0  0  0  0  0  0  0  0
    6.5466   -4.3931   25.6028 H   0  0  0  0  0  0  0  0  0  0  0  0
    9.1154   -0.9213   22.1356 H   0  0  0  0  0  0  0  0  0  0  0  0
    6.0878    3.9090   24.9547 H   0  0  0  0  0  0  0  0  0  0  0  0
    8.7378    0.7646   24.8981 H   0  0  0  0  0  0  0  0  0  0  0  0
    6.2516   -1.6383   28.9475 H   0  0  0  0  0  0  0  0  0  0  0  0
   14.4813    0.0406   23.3993 H   0  0  0  0  0  0  0  0  0  0  0  0
   13.6704    0.8829   24.7172 H   0  0  0  0  0  0  0  0  0  0  0  0
   10.3034    0.8169   22.9226 H   0  0  0  0  0  0  0  0  0  0  0  0
   11.4111    1.3028   21.6417 H   0  0  0  0  0  0  0  0  0  0  0  0
   14.9073    2.4544   23.2510 H   0  0  0  0  0  0  0  0  0  0  0  0
   13.9596    1.9480   21.8531 H   0  0  0  0  0  0  0  0  0  0  0  0
   10.8231    3.2742   22.9951 H   0  0  0  0  0  0  0  0  0  0  0  0
   11.2415    2.4224   24.4727 H   0  0  0  0  0  0  0  0  0  0  0  0
   11.8860   -0.4081   24.0651 H   0  0  0  0  0  0  0  0  0  0  0  0
   13.8179   -2.9468   20.9021 H   0  0  0  0  0  0  0  0  0  0  0  0
   13.2418   -4.1019   22.1190 H   0  0  0  0  0  0  0  0  0  0  0  0
   13.0970   -4.4864   20.4006 H   0  0  0  0  0  0  0  0  0  0  0  0
   12.1280   -1.6513   19.4766 H   0  0  0  0  0  0  0  0  0  0  0  0
   10.3922   -1.9084   19.7265 H   0  0  0  0  0  0  0  0  0  0  0  0
   11.3758   -3.1566   18.9384 H   0  0  0  0  0  0  0  0  0  0  0  0
    3.7361   -6.4113   28.8524 H   0  0  0  0  0  0  0  0  0  0  0  0
    4.4385   -6.3766   30.5095 H   0  0  0  0  0  0  0  0  0  0  0  0
    3.2705   -5.1051   30.0000 H   0  0  0  0  0  0  0  0  0  0  0  0
    4.0055   -3.4547   28.3331 H   0  0  0  0  0  0  0  0  0  0  0  0
    4.4288   -4.7878   27.2495 H   0  0  0  0  0  0  0  0  0  0  0  0
   12.4484    6.1780   24.2339 H   0  0  0  0  0  0  0  0  0  0  0  0
   11.2960    4.7986   24.2026 H   0  0  0  0  0  0  0  0  0  0  0  0
   10.8901   -3.7632   21.3244 H   0  0  0  0  0  0  0  0  0  0  0  0
    5.5246   -4.3335   29.9383 H   0  0  0  0  0  0  0  0  0  0  0  0
    5.9824   -5.5465   28.9313 H   0  0  0  0  0  0  0  0  0  0  0  0
  1  4  2  0  0  0  0
  1  7  1  0  0  0  0
  2  3  2  0  0  0  0
  2 10  1  0  0  0  0
  3 12  1  0  0  0  0
  4 14  1  0  0  0  0
  5 11  1  0  0  0  0
  5 15  2  0  0  0  0
  6 12  2  0  0  0  0
  6 13  1  0  0  0  0
  7 29  2  0  0  0  0
  8 14  2  0  0  0  0
  8 29  1  0  0  0  0
  9 11  2  0  0  0  0
  9 30  1  0  0  0  0
 10 13  2  0  0  0  0
 10 15  1  0  0  0  0
 11 26  1  0  0  0  0
 12 32  1  0  0  0  0
 13 38  1  0  0  0  0
 14 39  1  0  0  0  0
 15 30  1  0  0  0  0
 16 22  1  0  0  0  0
 16 32  1  0  0  0  0
 16 34  2  0  0  0  0
 17 27  1  0  0  0  0
 17 31  1  0  0  0  0
 17 35  2  0  0  0  0
 18 20  1  0  0  0  0
 18 22  1  0  0  0  0
 19 21  1  0  0  0  0
 19 22  1  0  0  0  0
 20 31  1  0  0  0  0
 21 31  1  0  0  0  0
 23 28  1  0  0  0  0
 24 28  1  0  0  0  0
 25 33  1  0  0  0  0
 26 33  1  0  0  0  0
 27 40  1  0  0  0  0
 28 32  1  0  0  0  0
 30 39  1  0  0  0  0
 36 39  2  0  0  0  0
 37 39  2  0  0  0  0
  1 41  1  0  0  0  0
  2 42  1  0  0  0  0
  3 43  1  0  0  0  0
  4 44  1  0  0  0  0
  5 45  1  0  0  0  0
  6 46  1  0  0  0  0
  7 47  1  0  0  0  0
  8 48  1  0  0  0  0
  9 49  1  0  0  0  0
 18 50  1  0  0  0  0
 18 51  1  0  0  0  0
 19 52  1  0  0  0  0
 19 53  1  0  0  0  0
 20 54  1  0  0  0  0
 20 55  1  0  0  0  0
 21 56  1  0  0  0  0
 21 57  1  0  0  0  0
 22 58  1  0  0  0  0
 23 59  1  0  0  0  0
 23 60  1  0  0  0  0
 23 61  1  0  0  0  0
 24 62  1  0  0  0  0
 24 63  1  0  0  0  0
 24 64  1  0  0  0  0
 25 65  1  0  0  0  0
 25 66  1  0  0  0  0
 25 67  1  0  0  0  0
 26 68  1  0  0  0  0
 26 69  1  0  0  0  0
 27 70  1  0  0  0  0
 27 71  1  0  0  0  0
 28 72  1  0  0  0  0
 33 73  1  0  0  0  0
 33 74  1  0  0  0  0
M  CHG  1  33   1
M  END
> <creator>
Maksym Voznyy

> <fragments>
x0305

> <real_space>
FALSE

> <SCR>
FALSE

> <BB>
FALSE

> <link>
https://covid.postera.ai/covid/submissions/8fdbca50-c94c-4218-91b0-3b0489774fa8

> <covalent_frag>
FALSE

> <covalent_warhead>
TRUE

> <acrylamide>
FALSE

> <acrylamide_adduct>
FALSE

> <chloroacetamide>
TRUE

> <chloroacetamide_adduct>
FALSE

> <vinylsulfonamide>
FALSE

> <vinylsulfonamide_adduct>
FALSE

> <in_molport_or_mcule>
FALSE

> <in_emolecules>
FALSE

> <Hybrid2>
1.097454

> <Mpro-x0305_dock>
1.097454

> <site>
active-noncovalent

> <covalent_distance_min>
10.90755

> <covalent_distance_mean>
11.266652

> <covalent_distance_stderr>
0.062731825

$$$$
MAK-UNK-8fd-10
  -OEChem-04062011563D

 74 77  0     1  0  0  0  0  0999 V2000
   13.3599   -2.0521   20.3177 C   0  0  0  0  0  0  0  0  0  0  0  0
   13.4835   -3.1326   21.1911 C   0  0  0  0  0  0  0  0  0  0  0  0
   10.0265   -3.5111   23.6558 C   0  0  0  0  0  0  0  0  0  0  0  0
   13.0417   -0.7876   20.8132 C   0  0  0  0  0  0  0  0  0  0  0  0
   13.2888   -2.9486   22.5600 C   0  0  0  0  0  0  0  0  0  0  0  0
   10.0098   -2.3714   22.8594 C   0  0  0  0  0  0  0  0  0  0  0  0
   13.3679    1.7067   23.1132 C   0  0  0  0  0  0  0  0  0  0  0  0
    9.8375   -3.3524   25.0192 C   0  0  0  0  0  0  0  0  0  0  0  0
   11.2511    2.4411   23.3363 C   0  0  0  0  0  0  0  0  0  0  0  0
   12.8469   -0.6036   22.1821 C   0  0  0  0  0  0  0  0  0  0  0  0
   12.5675    2.8021   23.5212 C   0  0  0  0  0  0  0  0  0  0  0  0
   12.9705   -1.6842   23.0555 C   0  0  0  0  0  0  0  0  0  0  0  0
    9.8073   -1.1255   23.4426 C   0  0  0  0  0  0  0  0  0  0  0  0
   12.5163    0.7097   22.6911 C   0  0  0  0  0  0  0  0  0  0  0  0
    9.6278   -1.0736   24.8155 C   0  0  0  0  0  0  0  0  0  0  0  0
    7.1864   -0.7664   26.0793 C   0  0  0  0  0  0  0  0  0  0  0  0
    3.4009   -3.9941   27.2247 C   0  0  0  0  0  0  0  0  0  0  0  0
    4.7885   -0.7529   26.7436 C   0  0  0  0  0  0  0  0  0  0  0  0
    6.4572   -2.2161   27.9835 C   0  0  0  0  0  0  0  0  0  0  0  0
    4.2767   -2.0076   26.0383 C   0  0  0  0  0  0  0  0  0  0  0  0
    5.8801   -3.4293   27.2527 C   0  0  0  0  0  0  0  0  0  0  0  0
    6.2333   -0.9004   27.2311 C   0  0  0  0  0  0  0  0  0  0  0  0
   10.4841    0.5585   26.5461 C   0  0  0  0  0  0  0  0  0  0  0  0
    7.7489    1.5637   26.7869 C   0  0  0  0  0  0  0  0  0  0  0  0
   13.2604    5.2344   21.8360 C   0  0  0  0  0  0  0  0  0  0  0  0
   13.0528    4.0923   24.0476 C   0  0  0  0  0  0  0  0  0  0  0  0
    3.7018   -5.1940   28.0869 C   0  0  0  0  0  0  0  0  0  0  0  0
    9.4017    0.2501   25.5136 C   0  0  2  0  0  0  0  0  0  0  0  0
    9.6378   -2.1588   25.6217 N   0  0  0  0  0  0  0  0  0  0  0  0
   11.2321    1.1673   22.8310 N   0  0  0  0  0  0  0  0  0  0  0  0
    4.4848   -3.1917   26.8707 N   0  0  0  0  0  0  0  0  0  0  0  0
    8.0765    0.3072   26.1253 N   0  0  0  0  0  0  0  0  0  0  0  0
   13.9325    4.8424   23.0991 N   0  3  0  0  0  0  0  0  0  0  0  0
    7.1429   -1.5915   25.1629 O   0  0  0  0  0  0  0  0  0  0  0  0
    2.2367   -3.7770   26.8789 O   0  0  0  0  0  0  0  0  0  0  0  0
    9.9852   -0.0496   21.0481 O   0  0  0  0  0  0  0  0  0  0  0  0
    8.6900    1.1490   22.8807 O   0  0  0  0  0  0  0  0  0  0  0  0
   12.7865   -1.5238   24.3743 F   0  0  0  0  0  0  0  0  0  0  0  0
    9.7855    0.3043   22.4424 S   0  0  0  0  0  0  0  0  0  0  0  0
    3.5980   -4.6520   29.7582 Cl  0  0  0  0  0  0  0  0  0  0  0  0
   13.5120   -2.1954   19.2518 H   0  0  0  0  0  0  0  0  0  0  0  0
   13.7318   -4.1170   20.8053 H   0  0  0  0  0  0  0  0  0  0  0  0
   10.1831   -4.4929   23.2243 H   0  0  0  0  0  0  0  0  0  0  0  0
   12.9490    0.0445   20.1192 H   0  0  0  0  0  0  0  0  0  0  0  0
   13.3854   -3.7898   23.2401 H   0  0  0  0  0  0  0  0  0  0  0  0
   10.1550   -2.4657   21.7867 H   0  0  0  0  0  0  0  0  0  0  0  0
   14.4485    1.6532   23.1269 H   0  0  0  0  0  0  0  0  0  0  0  0
    9.8426   -4.2101   25.6837 H   0  0  0  0  0  0  0  0  0  0  0  0
   10.3329    2.9832   23.5215 H   0  0  0  0  0  0  0  0  0  0  0  0
    4.6993    0.1037   26.0645 H   0  0  0  0  0  0  0  0  0  0  0  0
    4.1416   -0.5437   27.6053 H   0  0  0  0  0  0  0  0  0  0  0  0
    5.9822   -2.1442   28.9704 H   0  0  0  0  0  0  0  0  0  0  0  0
    7.5279   -2.3774   28.1578 H   0  0  0  0  0  0  0  0  0  0  0  0
    3.2170   -1.8840   25.7931 H   0  0  0  0  0  0  0  0  0  0  0  0
    4.8106   -2.1697   25.0946 H   0  0  0  0  0  0  0  0  0  0  0  0
    6.4385   -3.6295   26.3311 H   0  0  0  0  0  0  0  0  0  0  0  0
    5.9870   -4.3129   27.8845 H   0  0  0  0  0  0  0  0  0  0  0  0
    6.4632   -0.0647   27.9037 H   0  0  0  0  0  0  0  0  0  0  0  0
   10.5224   -0.2153   27.3207 H   0  0  0  0  0  0  0  0  0  0  0  0
   11.4685    0.6084   26.0673 H   0  0  0  0  0  0  0  0  0  0  0  0
   10.3172    1.5226   27.0396 H   0  0  0  0  0  0  0  0  0  0  0  0
    8.0601    1.5157   27.8409 H   0  0  0  0  0  0  0  0  0  0  0  0
    8.2754    2.3897   26.2865 H   0  0  0  0  0  0  0  0  0  0  0  0
    6.6635    1.7343   26.7327 H   0  0  0  0  0  0  0  0  0  0  0  0
   12.3940    5.8458   22.0946 H   0  0  0  0  0  0  0  0  0  0  0  0
   13.9767    5.8013   21.2383 H   0  0  0  0  0  0  0  0  0  0  0  0
   12.9563    4.3206   21.3219 H   0  0  0  0  0  0  0  0  0  0  0  0
   12.2272    4.7832   24.2947 H   0  0  0  0  0  0  0  0  0  0  0  0
   13.6472    3.9727   24.9708 H   0  0  0  0  0  0  0  0  0  0  0  0
    4.7058   -5.5401   27.8695 H   0  0  0  0  0  0  0  0  0  0  0  0
    2.9577   -5.9588   27.8966 H   0  0  0  0  0  0  0  0  0  0  0  0
    9.4124    1.0556   24.7691 H   0  0  0  0  0  0  0  0  0  0  0  0
   14.7537    4.2646   22.8860 H   0  0  0  0  0  0  0  0  0  0  0  0
   14.2877    5.6807   23.5733 H   0  0  0  0  0  0  0  0  0  0  0  0
  1  2  1  0  0  0  0
  1  4  2  0  0  0  0
  2  5  2  0  0  0  0
  3  6  2  0  0  0  0
  3  8  1  0  0  0  0
  4 10  1  0  0  0  0
  5 12  1  0  0  0  0
  6 13  1  0  0  0  0
  7 11  1  0  0  0  0
  7 14  2  0  0  0  0
  8 29  2  0  0  0  0
  9 11  2  0  0  0  0
  9 30  1  0  0  0  0
 10 12  2  0  0  0  0
 10 14  1  0  0  0  0
 11 26  1  0  0  0  0
 12 38  1  0  0  0  0
 13 15  2  0  0  0  0
 13 39  1  0  0  0  0
 14 30  1  0  0  0  0
 15 28  1  0  0  0  0
 15 29  1  0  0  0  0
 16 22  1  0  0  0  0
 16 32  1  0  0  0  0
 16 34  2  0  0  0  0
 17 27  1  0  0  0  0
 17 31  1  0  0  0  0
 17 35  2  0  0  0  0
 18 20  1  0  0  0  0
 18 22  1  0  0  0  0
 19 21  1  0  0  0  0
 19 22  1  0  0  0  0
 20 31  1  0  0  0  0
 21 31  1  0  0  0  0
 23 28  1  0  0  0  0
 24 32  1  0  0  0  0
 25 33  1  0  0  0  0
 26 33  1  0  0  0  0
 27 40  1  0  0  0  0
 28 32  1  0  0  0  0
 30 39  1  0  0  0  0
 36 39  2  0  0  0  0
 37 39  2  0  0  0  0
  1 41  1  0  0  0  0
  2 42  1  0  0  0  0
  3 43  1  0  0  0  0
  4 44  1  0  0  0  0
  5 45  1  0  0  0  0
  6 46  1  0  0  0  0
  7 47  1  0  0  0  0
  8 48  1  0  0  0  0
  9 49  1  0  0  0  0
 18 50  1  0  0  0  0
 18 51  1  0  0  0  0
 19 52  1  0  0  0  0
 19 53  1  0  0  0  0
 20 54  1  0  0  0  0
 20 55  1  0  0  0  0
 21 56  1  0  0  0  0
 21 57  1  0  0  0  0
 22 58  1  0  0  0  0
 23 59  1  0  0  0  0
 23 60  1  0  0  0  0
 23 61  1  0  0  0  0
 24 62  1  0  0  0  0
 24 63  1  0  0  0  0
 24 64  1  0  0  0  0
 25 65  1  0  0  0  0
 25 66  1  0  0  0  0
 25 67  1  0  0  0  0
 26 68  1  0  0  0  0
 26 69  1  0  0  0  0
 27 70  1  0  0  0  0
 27 71  1  0  0  0  0
 28 72  1  0  0  0  0
 33 73  1  0  0  0  0
 33 74  1  0  0  0  0
M  CHG  1  33   1
M  END
> <creator>
Maksym Voznyy

> <fragments>
x0305

> <real_space>
FALSE

> <SCR>
FALSE

> <BB>
FALSE

> <link>
https://covid.postera.ai/covid/submissions/8fdbca50-c94c-4218-91b0-3b0489774fa8

> <covalent_frag>
FALSE

> <covalent_warhead>
TRUE

> <acrylamide>
FALSE

> <acrylamide_adduct>
FALSE

> <chloroacetamide>
TRUE

> <chloroacetamide_adduct>
FALSE

> <vinylsulfonamide>
FALSE

> <vinylsulfonamide_adduct>
FALSE

> <in_molport_or_mcule>
FALSE

> <in_emolecules>
FALSE

> <Hybrid2>
1.316514

> <Mpro-x0305_dock>
1.316514

> <site>
active-noncovalent

> <covalent_distance_min>
8.284362

> <covalent_distance_mean>
9.010014

> <covalent_distance_stderr>
0.092899166

$$$$
MAK-UNK-8fd-12
  -OEChem-04062011563D

 74 77  0     1  0  0  0  0  0999 V2000
    9.3499   -3.6909   25.4700 C   0  0  0  0  0  0  0  0  0  0  0  0
   11.8755    2.1510   24.9771 C   0  0  0  0  0  0  0  0  0  0  0  0
    9.5704   -3.3592   24.1333 C   0  0  0  0  0  0  0  0  0  0  0  0
    8.9721   -2.7039   26.3804 C   0  0  0  0  0  0  0  0  0  0  0  0
   11.8065    0.8360   24.5308 C   0  0  0  0  0  0  0  0  0  0  0  0
    8.7431   -1.6956   21.2802 C   0  0  0  0  0  0  0  0  0  0  0  0
   12.4914    3.0828   24.1572 C   0  0  0  0  0  0  0  0  0  0  0  0
   12.9424    1.5035   22.5507 C   0  0  0  0  0  0  0  0  0  0  0  0
   10.7542   -1.0681   20.4855 C   0  0  0  0  0  0  0  0  0  0  0  0
    9.4134   -2.0404   23.7069 C   0  0  0  0  0  0  0  0  0  0  0  0
    8.8151   -1.3851   25.9541 C   0  0  0  0  0  0  0  0  0  0  0  0
    9.4462   -1.2942   20.1176 C   0  0  0  0  0  0  0  0  0  0  0  0
    9.0357   -1.0534   24.6173 C   0  0  0  0  0  0  0  0  0  0  0  0
   12.3479    0.4977   23.2955 C   0  0  0  0  0  0  0  0  0  0  0  0
    9.6428   -1.7025   22.3232 C   0  0  0  0  0  0  0  0  0  0  0  0
    6.0661   -1.1350   27.2915 C   0  0  0  0  0  0  0  0  0  0  0  0
    3.5286   -4.2881   24.1804 C   0  0  0  0  0  0  0  0  0  0  0  0
    4.8700   -1.1259   25.1096 C   0  0  0  0  0  0  0  0  0  0  0  0
    3.8245   -2.2363   27.1435 C   0  0  0  0  0  0  0  0  0  0  0  0
    5.2097   -2.5170   24.5776 C   0  0  0  0  0  0  0  0  0  0  0  0
    4.1804   -3.5950   26.5385 C   0  0  0  0  0  0  0  0  0  0  0  0
    4.7173   -1.1004   26.6337 C   0  0  0  0  0  0  0  0  0  0  0  0
    8.9067   -0.6082   28.3583 C   0  0  0  0  0  0  0  0  0  0  0  0
    6.5107    1.2112   26.5539 C   0  0  0  0  0  0  0  0  0  0  0  0
    8.1892    1.2413   19.0097 C   0  0  0  0  0  0  0  0  0  0  0  0
    8.8828   -1.1454   18.7620 C   0  0  0  0  0  0  0  0  0  0  0  0
    2.5685   -5.2855   24.7781 C   0  0  0  0  0  0  0  0  0  0  0  0
    8.4054   -0.3172   26.9452 C   0  0  2  0  0  0  0  0  0  0  0  0
   13.0285    2.7919   22.9512 N   0  0  0  0  0  0  0  0  0  0  0  0
   10.8620   -1.3191   21.8285 N   0  0  0  0  0  0  0  0  0  0  0  0
    4.2592   -3.5096   25.0771 N   0  0  0  0  0  0  0  0  0  0  0  0
    6.9581   -0.1198   26.9438 N   0  0  0  0  0  0  0  0  0  0  0  0
    7.7769   -0.1429   18.6711 N   0  3  0  0  0  0  0  0  0  0  0  0
    6.3222   -2.0380   28.0923 O   0  0  0  0  0  0  0  0  0  0  0  0
    3.6234   -4.2035   22.9532 O   0  0  0  0  0  0  0  0  0  0  0  0
   13.3521   -1.3510   21.7155 O   0  0  0  0  0  0  0  0  0  0  0  0
   12.1921   -2.0273   23.8765 O   0  0  0  0  0  0  0  0  0  0  0  0
    8.8836    0.2175   24.2134 F   0  0  0  0  0  0  0  0  0  0  0  0
   12.2790   -1.1693   22.6924 S   0  0  0  0  0  0  0  0  0  0  0  0
    3.4578   -6.7933   24.9610 Cl  0  0  0  0  0  0  0  0  0  0  0  0
    9.4708   -4.7181   25.8016 H   0  0  0  0  0  0  0  0  0  0  0  0
   11.4604    2.4377   25.9365 H   0  0  0  0  0  0  0  0  0  0  0  0
    9.8636   -4.1403   23.4357 H   0  0  0  0  0  0  0  0  0  0  0  0
    8.8027   -2.9725   27.4198 H   0  0  0  0  0  0  0  0  0  0  0  0
   11.3295    0.0833   25.1522 H   0  0  0  0  0  0  0  0  0  0  0  0
    7.6939   -1.9518   21.3468 H   0  0  0  0  0  0  0  0  0  0  0  0
   12.5710    4.1218   24.4595 H   0  0  0  0  0  0  0  0  0  0  0  0
   13.3821    1.3007   21.5791 H   0  0  0  0  0  0  0  0  0  0  0  0
   11.6108   -0.7510   19.9051 H   0  0  0  0  0  0  0  0  0  0  0  0
    5.6456   -0.4191   24.7908 H   0  0  0  0  0  0  0  0  0  0  0  0
    3.9295   -0.7930   24.6520 H   0  0  0  0  0  0  0  0  0  0  0  0
    2.7810   -2.0050   26.8936 H   0  0  0  0  0  0  0  0  0  0  0  0
    3.8814   -2.3036   28.2367 H   0  0  0  0  0  0  0  0  0  0  0  0
    5.2168   -2.4994   23.4831 H   0  0  0  0  0  0  0  0  0  0  0  0
    6.2102   -2.8253   24.9029 H   0  0  0  0  0  0  0  0  0  0  0  0
    5.1589   -3.9352   26.8961 H   0  0  0  0  0  0  0  0  0  0  0  0
    3.4495   -4.3363   26.8666 H   0  0  0  0  0  0  0  0  0  0  0  0
    4.2709   -0.1415   26.9251 H   0  0  0  0  0  0  0  0  0  0  0  0
    8.5145   -1.5622   28.7274 H   0  0  0  0  0  0  0  0  0  0  0  0
   10.0011   -0.6624   28.3738 H   0  0  0  0  0  0  0  0  0  0  0  0
    8.6133    0.1746   29.0667 H   0  0  0  0  0  0  0  0  0  0  0  0
    6.4384    1.8503   27.4462 H   0  0  0  0  0  0  0  0  0  0  0  0
    7.2320    1.6480   25.8476 H   0  0  0  0  0  0  0  0  0  0  0  0
    5.5239    1.1400   26.0731 H   0  0  0  0  0  0  0  0  0  0  0  0
    8.9974    1.5241   18.3327 H   0  0  0  0  0  0  0  0  0  0  0  0
    7.3214    1.8903   18.8778 H   0  0  0  0  0  0  0  0  0  0  0  0
    8.5276    1.2447   20.0477 H   0  0  0  0  0  0  0  0  0  0  0  0
    9.6388   -0.8194   18.0257 H   0  0  0  0  0  0  0  0  0  0  0  0
    8.4585   -2.0897   18.3772 H   0  0  0  0  0  0  0  0  0  0  0  0
    1.7367   -5.4243   24.0969 H   0  0  0  0  0  0  0  0  0  0  0  0
    2.2447   -4.9242   25.7473 H   0  0  0  0  0  0  0  0  0  0  0  0
    8.8295    0.6450   26.6328 H   0  0  0  0  0  0  0  0  0  0  0  0
    7.0155   -0.4363   19.2940 H   0  0  0  0  0  0  0  0  0  0  0  0
    7.3921   -0.1633   17.7196 H   0  0  0  0  0  0  0  0  0  0  0  0
  1  3  2  0  0  0  0
  1  4  1  0  0  0  0
  2  5  2  0  0  0  0
  2  7  1  0  0  0  0
  3 10  1  0  0  0  0
  4 11  2  0  0  0  0
  5 14  1  0  0  0  0
  6 12  1  0  0  0  0
  6 15  2  0  0  0  0
  7 29  2  0  0  0  0
  8 14  2  0  0  0  0
  8 29  1  0  0  0  0
  9 12  2  0  0  0  0
  9 30  1  0  0  0  0
 10 13  2  0  0  0  0
 10 15  1  0  0  0  0
 11 13  1  0  0  0  0
 11 28  1  0  0  0  0
 12 26  1  0  0  0  0
 13 38  1  0  0  0  0
 14 39  1  0  0  0  0
 15 30  1  0  0  0  0
 16 22  1  0  0  0  0
 16 32  1  0  0  0  0
 16 34  2  0  0  0  0
 17 27  1  0  0  0  0
 17 31  1  0  0  0  0
 17 35  2  0  0  0  0
 18 20  1  0  0  0  0
 18 22  1  0  0  0  0
 19 21  1  0  0  0  0
 19 22  1  0  0  0  0
 20 31  1  0  0  0  0
 21 31  1  0  0  0  0
 23 28  1  0  0  0  0
 24 32  1  0  0  0  0
 25 33  1  0  0  0  0
 26 33  1  0  0  0  0
 27 40  1  0  0  0  0
 28 32  1  0  0  0  0
 30 39  1  0  0  0  0
 36 39  2  0  0  0  0
 37 39  2  0  0  0  0
  1 41  1  0  0  0  0
  2 42  1  0  0  0  0
  3 43  1  0  0  0  0
  4 44  1  0  0  0  0
  5 45  1  0  0  0  0
  6 46  1  0  0  0  0
  7 47  1  0  0  0  0
  8 48  1  0  0  0  0
  9 49  1  0  0  0  0
 18 50  1  0  0  0  0
 18 51  1  0  0  0  0
 19 52  1  0  0  0  0
 19 53  1  0  0  0  0
 20 54  1  0  0  0  0
 20 55  1  0  0  0  0
 21 56  1  0  0  0  0
 21 57  1  0  0  0  0
 22 58  1  0  0  0  0
 23 59  1  0  0  0  0
 23 60  1  0  0  0  0
 23 61  1  0  0  0  0
 24 62  1  0  0  0  0
 24 63  1  0  0  0  0
 24 64  1  0  0  0  0
 25 65  1  0  0  0  0
 25 66  1  0  0  0  0
 25 67  1  0  0  0  0
 26 68  1  0  0  0  0
 26 69  1  0  0  0  0
 27 70  1  0  0  0  0
 27 71  1  0  0  0  0
 28 72  1  0  0  0  0
 33 73  1  0  0  0  0
 33 74  1  0  0  0  0
M  CHG  1  33   1
M  END
> <creator>
Maksym Voznyy

> <fragments>
x0305

> <real_space>
FALSE

> <SCR>
FALSE

> <BB>
FALSE

> <link>
https://covid.postera.ai/covid/submissions/8fdbca50-c94c-4218-91b0-3b0489774fa8

> <covalent_frag>
FALSE

> <covalent_warhead>
TRUE

> <acrylamide>
FALSE

> <acrylamide_adduct>
FALSE

> <chloroacetamide>
TRUE

> <chloroacetamide_adduct>
FALSE

> <vinylsulfonamide>
FALSE

> <vinylsulfonamide_adduct>
FALSE

> <in_molport_or_mcule>
FALSE

> <in_emolecules>
FALSE

> <Hybrid2>
1.335625

> <Mpro-x0305_dock>
1.335625

> <site>
active-noncovalent

> <covalent_distance_min>
4.1807957

> <covalent_distance_mean>
5.642197

> <covalent_distance_stderr>
0.06402706

$$$$
MAK-UNK-702-14
  -OEChem-04062011563D

 71 76  0     1  0  0  0  0  0999 V2000
    9.7985   -7.3242   27.4214 C   0  0  0  0  0  0  0  0  0  0  0  0
   10.9318    1.1963   22.9675 C   0  0  0  0  0  0  0  0  0  0  0  0
   11.0284   -0.1892   22.8764 C   0  0  0  0  0  0  0  0  0  0  0  0
   10.9600   -6.8104   26.8449 C   0  0  0  0  0  0  0  0  0  0  0  0
   10.8054   -1.0223   27.4977 C   0  0  0  0  0  0  0  0  0  0  0  0
    8.5944   -6.6302   27.3015 C   0  0  0  0  0  0  0  0  0  0  0  0
    9.9230    1.8715   22.2809 C   0  0  0  0  0  0  0  0  0  0  0  0
   10.1184   -0.9009   22.0961 C   0  0  0  0  0  0  0  0  0  0  0  0
    6.5841   -3.0051   20.9095 C   0  0  0  0  0  0  0  0  0  0  0  0
    6.6431   -1.2746   22.5945 C   0  0  0  0  0  0  0  0  0  0  0  0
    5.6398   -3.7045   21.6609 C   0  0  0  0  0  0  0  0  0  0  0  0
    5.6988   -1.9741   23.3459 C   0  0  0  0  0  0  0  0  0  0  0  0
   10.9176   -5.6025   26.1486 C   0  0  0  0  0  0  0  0  0  0  0  0
   10.0193   -2.1119   27.8555 C   0  0  0  0  0  0  0  0  0  0  0  0
    6.3412   -4.8130   25.5020 C   0  0  0  0  0  0  0  0  0  0  0  0
   10.2452    0.2413   27.5946 C   0  0  0  0  0  0  0  0  0  0  0  0
    8.2488   -0.6043   28.3546 C   0  0  0  0  0  0  0  0  0  0  0  0
    5.6590   -3.2709   26.9941 C   0  0  0  0  0  0  0  0  0  0  0  0
    8.5520   -5.4223   26.6052 C   0  0  0  0  0  0  0  0  0  0  0  0
    7.0858   -1.7901   21.3763 C   0  0  0  0  0  0  0  0  0  0  0  0
    8.9965    1.1676   21.4967 C   0  0  0  0  0  0  0  0  0  0  0  0
    9.1003   -0.2322   21.3974 C   0  0  0  0  0  0  0  0  0  0  0  0
    5.3025   -3.9053   25.8246 C   0  0  0  0  0  0  0  0  0  0  0  0
    5.1971   -3.1891   22.8791 C   0  0  0  0  0  0  0  0  0  0  0  0
    9.7136   -4.9084   26.0287 C   0  0  0  0  0  0  0  0  0  0  0  0
    8.7154   -1.9075   28.2931 C   0  0  0  0  0  0  0  0  0  0  0  0
    7.3009   -4.7058   26.4843 C   0  0  0  0  0  0  0  0  0  0  0  0
    5.6101    1.4781   19.8401 C   0  0  0  0  0  0  0  0  0  0  0  0
    7.9197    1.9408   20.7742 C   0  0  0  0  0  0  0  0  0  0  0  0
    7.4498   -0.1350   19.4965 C   0  0  0  0  0  0  0  0  0  0  0  0
    8.1174   -1.0257   20.5566 C   0  0  2  0  0  0  0  0  0  0  0  0
    4.0445   -3.6757   25.0378 C   0  0  0  0  0  0  0  0  0  0  0  0
    5.1959    2.8367   20.3486 C   0  0  0  0  0  0  0  0  0  0  0  0
    8.9827    0.4792   28.0153 N   0  0  0  0  0  0  0  0  0  0  0  0
    6.8754   -3.7657   27.3861 N   0  0  0  0  0  0  0  0  0  0  0  0
    6.9337    1.1024   20.0801 N   0  0  0  0  0  0  0  0  0  0  0  0
    4.2410   -3.8950   23.6382 N   0  0  0  0  0  0  0  0  0  0  0  0
    4.7833    0.7727   19.2570 O   0  0  0  0  0  0  0  0  0  0  0  0
    8.5420   -4.3962   29.1295 O   0  0  0  0  0  0  0  0  0  0  0  0
    6.7012   -2.7368   29.7048 O   0  0  0  0  0  0  0  0  0  0  0  0
    9.6894   -3.7485   25.3560 F   0  0  0  0  0  0  0  0  0  0  0  0
    7.6822   -3.2728   28.7583 S   0  0  0  0  0  0  0  0  0  0  0  0
    4.5622    2.5941   21.9723 Cl  0  0  0  0  0  0  0  0  0  0  0  0
    9.8317   -8.2650   27.9631 H   0  0  0  0  0  0  0  0  0  0  0  0
   11.6416    1.7518   23.5734 H   0  0  0  0  0  0  0  0  0  0  0  0
   11.8130   -0.7159   23.4117 H   0  0  0  0  0  0  0  0  0  0  0  0
   11.8974   -7.3510   26.9377 H   0  0  0  0  0  0  0  0  0  0  0  0
   11.8244   -1.1578   27.1538 H   0  0  0  0  0  0  0  0  0  0  0  0
    7.6978   -7.0442   27.7567 H   0  0  0  0  0  0  0  0  0  0  0  0
    9.8592    2.9540   22.3618 H   0  0  0  0  0  0  0  0  0  0  0  0
   10.2077   -1.9827   22.0330 H   0  0  0  0  0  0  0  0  0  0  0  0
    6.9241   -3.4145   19.9621 H   0  0  0  0  0  0  0  0  0  0  0  0
    7.0296   -0.3297   22.9669 H   0  0  0  0  0  0  0  0  0  0  0  0
    5.2565   -4.6511   21.2887 H   0  0  0  0  0  0  0  0  0  0  0  0
    5.3615   -1.5634   24.2940 H   0  0  0  0  0  0  0  0  0  0  0  0
   11.8218   -5.2026   25.6993 H   0  0  0  0  0  0  0  0  0  0  0  0
   10.4315   -3.1150   27.7899 H   0  0  0  0  0  0  0  0  0  0  0  0
    6.3826   -5.4723   24.6450 H   0  0  0  0  0  0  0  0  0  0  0  0
   10.8168    1.1240   27.3273 H   0  0  0  0  0  0  0  0  0  0  0  0
    7.2400   -0.3819   28.6883 H   0  0  0  0  0  0  0  0  0  0  0  0
    5.1496   -2.5133   27.5753 H   0  0  0  0  0  0  0  0  0  0  0  0
    7.4116    2.5874   21.4952 H   0  0  0  0  0  0  0  0  0  0  0  0
    8.3844    2.5750   20.0098 H   0  0  0  0  0  0  0  0  0  0  0  0
    8.1856    0.1629   18.7378 H   0  0  0  0  0  0  0  0  0  0  0  0
    6.6572   -0.6819   18.9733 H   0  0  0  0  0  0  0  0  0  0  0  0
    8.7015   -1.8026   19.9930 H   0  0  0  0  0  0  0  0  0  0  0  0
    3.2492   -4.3488   25.3763 H   0  0  0  0  0  0  0  0  0  0  0  0
    3.6808   -2.6511   25.1683 H   0  0  0  0  0  0  0  0  0  0  0  0
    4.4216    3.2320   19.7015 H   0  0  0  0  0  0  0  0  0  0  0  0
    6.0676    3.4796   20.3806 H   0  0  0  0  0  0  0  0  0  0  0  0
    3.6881   -4.5761   23.1528 H   0  0  0  0  0  0  0  0  0  0  0  0
  1  4  1  0  0  0  0
  1  6  2  0  0  0  0
  2  3  1  0  0  0  0
  2  7  2  0  0  0  0
  3  8  2  0  0  0  0
  4 13  2  0  0  0  0
  5 14  2  0  0  0  0
  5 16  1  0  0  0  0
  6 19  1  0  0  0  0
  7 21  1  0  0  0  0
  8 22  1  0  0  0  0
  9 11  2  0  0  0  0
  9 20  1  0  0  0  0
 10 12  1  0  0  0  0
 10 20  2  0  0  0  0
 11 24  1  0  0  0  0
 12 24  2  0  0  0  0
 13 25  1  0  0  0  0
 14 26  1  0  0  0  0
 15 23  1  0  0  0  0
 15 27  2  0  0  0  0
 16 34  2  0  0  0  0
 17 26  2  0  0  0  0
 17 34  1  0  0  0  0
 18 23  2  0  0  0  0
 18 35  1  0  0  0  0
 19 25  2  0  0  0  0
 19 27  1  0  0  0  0
 20 31  1  0  0  0  0
 21 22  2  0  0  0  0
 21 29  1  0  0  0  0
 22 31  1  0  0  0  0
 23 32  1  0  0  0  0
 24 37  1  0  0  0  0
 25 41  1  0  0  0  0
 26 42  1  0  0  0  0
 27 35  1  0  0  0  0
 28 33  1  0  0  0  0
 28 36  1  0  0  0  0
 28 38  2  0  0  0  0
 29 36  1  0  0  0  0
 30 31  1  0  0  0  0
 30 36  1  0  0  0  0
 32 37  1  0  0  0  0
 33 43  1  0  0  0  0
 35 42  1  0  0  0  0
 39 42  2  0  0  0  0
 40 42  2  0  0  0  0
  1 44  1  0  0  0  0
  2 45  1  0  0  0  0
  3 46  1  0  0  0  0
  4 47  1  0  0  0  0
  5 48  1  0  0  0  0
  6 49  1  0  0  0  0
  7 50  1  0  0  0  0
  8 51  1  0  0  0  0
  9 52  1  0  0  0  0
 10 53  1  0  0  0  0
 11 54  1  0  0  0  0
 12 55  1  0  0  0  0
 13 56  1  0  0  0  0
 14 57  1  0  0  0  0
 15 58  1  0  0  0  0
 16 59  1  0  0  0  0
 17 60  1  0  0  0  0
 18 61  1  0  0  0  0
 29 62  1  0  0  0  0
 29 63  1  0  0  0  0
 30 64  1  0  0  0  0
 30 65  1  0  0  0  0
 31 66  1  0  0  0  0
 32 67  1  0  0  0  0
 32 68  1  0  0  0  0
 33 69  1  0  0  0  0
 33 70  1  0  0  0  0
 37 71  1  0  0  0  0
M  END
> <creator>
Maksym Voznyy

> <fragments>
x0387

> <real_space>
FALSE

> <SCR>
FALSE

> <BB>
FALSE

> <link>
https://covid.postera.ai/covid/submissions/702fb7d3-1941-4d37-9e1c-6a10ebd67f09

> <covalent_frag>
FALSE

> <covalent_warhead>
TRUE

> <acrylamide>
FALSE

> <acrylamide_adduct>
FALSE

> <chloroacetamide>
TRUE

> <chloroacetamide_adduct>
FALSE

> <vinylsulfonamide>
FALSE

> <vinylsulfonamide_adduct>
FALSE

> <in_molport_or_mcule>
FALSE

> <in_emolecules>
FALSE

> <Hybrid2>
1.682573

> <Mpro-x0387_dock>
1.682573

> <site>
active-noncovalent

> <covalent_distance_min>
8.421667

> <covalent_distance_mean>
8.959159

> <covalent_distance_stderr>
0.033861216

$$$$
JON-UIO-cc9-8
  -OEChem-04062011563D

 50 52  0     1  0  0  0  0  0999 V2000
    6.6504   -0.6217   19.3822 C   0  0  0  0  0  0  0  0  0  0  0  0
   10.7383   -2.5806   22.0955 C   0  0  0  0  0  0  0  0  0  0  0  0
    8.2862    0.1004   17.8010 C   0  0  0  0  0  0  0  0  0  0  0  0
   10.3731   -0.7598   19.5155 C   0  0  0  0  0  0  0  0  0  0  0  0
   13.1041   -0.5674   24.3248 C   0  0  0  0  0  0  0  0  0  0  0  0
   14.4297   -0.3090   21.9050 C   0  0  0  0  0  0  0  0  0  0  0  0
    8.0104   -0.4330   19.0039 C   0  0  0  0  0  0  0  0  0  0  0  0
    9.0886   -0.7951   19.9068 C   0  0  0  0  0  0  0  0  0  0  0  0
   12.6230    0.3461   23.4738 C   0  0  0  0  0  0  0  0  0  0  0  0
    8.8532   -1.2401   21.2960 C   0  0  0  0  0  0  0  0  0  0  0  0
    8.0827   -0.8808   23.4318 C   0  0  0  0  0  0  0  0  0  0  0  0
   10.3924    0.4115   24.4223 C   0  0  0  0  0  0  0  0  0  0  0  0
    9.6854    0.3482   17.3141 C   0  0  0  0  0  0  0  0  0  0  0  0
   10.7860   -0.3417   18.1335 C   0  0  0  0  0  0  0  0  0  0  0  0
   14.3808   -1.2974   24.0711 C   0  0  0  0  0  0  0  0  0  0  0  0
    9.3235   -2.6379   21.6802 C   0  0  2  0  0  0  0  0  0  0  0  0
   13.3491    0.7037   22.2148 C   0  0  1  0  0  0  0  0  0  0  0  0
    8.4310   -3.2087   22.7931 C   0  0  1  0  0  0  0  0  0  0  0  0
    9.1951    1.3268   24.5330 C   0  0  0  0  0  0  0  0  0  0  0  0
   13.9898    2.0882   22.2860 C   0  0  0  0  0  0  0  0  0  0  0  0
    5.5425   -0.7754   19.6901 N   0  0  0  0  0  0  0  0  0  0  0  0
   11.8508   -2.5356   22.4221 N   0  0  0  0  0  0  0  0  0  0  0  0
   14.9064   -1.1915   22.7099 N   0  0  0  0  0  0  0  0  0  0  0  0
    8.2900   -0.4348   22.1481 N   0  0  0  0  0  0  0  0  0  0  0  0
    8.1427   -2.1224   23.7598 N   0  3  0  0  0  0  0  0  0  0  0  0
   11.4421    0.9835   23.7185 N   0  0  0  0  0  0  0  0  0  0  0  0
   10.3864   -0.7190   24.9076 O   0  0  0  0  0  0  0  0  0  0  0  0
    7.2979   -3.8305   22.1873 O   0  0  0  0  0  0  0  0  0  0  0  0
   13.0256    3.0001   22.5285 F   0  0  0  0  0  0  0  0  0  0  0  0
   14.5319    2.3774   21.0852 F   0  0  0  0  0  0  0  0  0  0  0  0
    7.7011    0.3227   24.6523 S   0  0  0  0  0  0  0  0  0  0  0  0
    7.4819    0.3921   17.1291 H   0  0  0  0  0  0  0  0  0  0  0  0
   11.1743   -1.0530   20.1893 H   0  0  0  0  0  0  0  0  0  0  0  0
   12.5674   -0.8077   25.2388 H   0  0  0  0  0  0  0  0  0  0  0  0
   14.8555   -0.2626   20.8876 H   0  0  0  0  0  0  0  0  0  0  0  0
    9.7663    0.0247   16.2694 H   0  0  0  0  0  0  0  0  0  0  0  0
    9.8574    1.4319   17.3156 H   0  0  0  0  0  0  0  0  0  0  0  0
   11.6502    0.3297   18.2025 H   0  0  0  0  0  0  0  0  0  0  0  0
   11.1306   -1.2357   17.5988 H   0  0  0  0  0  0  0  0  0  0  0  0
   15.1430   -0.9534   24.7787 H   0  0  0  0  0  0  0  0  0  0  0  0
   14.2097   -2.3602   24.2764 H   0  0  0  0  0  0  0  0  0  0  0  0
    9.2510   -3.2814   20.7938 H   0  0  0  0  0  0  0  0  0  0  0  0
   12.6526    0.6740   21.3671 H   0  0  0  0  0  0  0  0  0  0  0  0
    8.9647   -3.9856   23.3527 H   0  0  0  0  0  0  0  0  0  0  0  0
    9.1169    1.9987   23.6735 H   0  0  0  0  0  0  0  0  0  0  0  0
    9.3032    1.9384   25.4338 H   0  0  0  0  0  0  0  0  0  0  0  0
   14.7504    2.1370   23.0591 H   0  0  0  0  0  0  0  0  0  0  0  0
    7.9596   -2.3711   24.7356 H   0  0  0  0  0  0  0  0  0  0  0  0
   11.3249    1.9295   23.3660 H   0  0  0  0  0  0  0  0  0  0  0  0
    6.7568   -4.1792   22.9118 H   0  0  0  0  0  0  0  0  0  0  0  0
  1  7  1  0  0  0  0
  1 21  3  0  0  0  0
  2 16  1  0  0  0  0
  2 22  3  0  0  0  0
  3  7  2  0  0  0  0
  3 13  1  0  0  0  0
  4  8  2  0  0  0  0
  4 14  1  0  0  0  0
  5  9  2  0  0  0  0
  5 15  1  0  0  0  0
  6 17  1  0  0  0  0
  6 23  2  0  0  0  0
  7  8  1  0  0  0  0
  8 10  1  0  0  0  0
  9 17  1  0  0  0  0
  9 26  1  0  0  0  0
 10 16  1  0  0  0  0
 10 24  2  0  0  0  0
 11 24  1  0  0  0  0
 11 25  2  0  0  0  0
 11 31  1  0  0  0  0
 12 19  1  0  0  0  0
 12 26  1  0  0  0  0
 12 27  2  0  0  0  0
 13 14  1  0  0  0  0
 15 23  1  0  0  0  0
 16 18  1  0  0  0  0
 17 20  1  0  0  0  0
 18 25  1  0  0  0  0
 18 28  1  0  0  0  0
 19 31  1  0  0  0  0
 20 29  1  0  0  0  0
 20 30  1  0  0  0  0
  3 32  1  0  0  0  0
  4 33  1  0  0  0  0
  5 34  1  0  0  0  0
  6 35  1  0  0  0  0
 13 36  1  0  0  0  0
 13 37  1  0  0  0  0
 14 38  1  0  0  0  0
 14 39  1  0  0  0  0
 15 40  1  0  0  0  0
 15 41  1  0  0  0  0
 16 42  1  0  0  0  0
 17 43  1  0  0  0  0
 18 44  1  0  0  0  0
 19 45  1  0  0  0  0
 19 46  1  0  0  0  0
 20 47  1  0  0  0  0
 25 48  1  0  0  0  0
 26 49  1  0  0  0  0
 28 50  1  0  0  0  0
M  CHG  1  25   1
M  END
> <creator>
Jonas Verhellen, UiO

> <fragments>
x1382

> <real_space>
FALSE

> <SCR>
FALSE

> <BB>
FALSE

> <link>
https://covid.postera.ai/covid/submissions/cc955e79-689e-4e60-a3ac-90c5e9f039f1

> <covalent_frag>
TRUE

> <covalent_warhead>
TRUE

> <acrylamide>
FALSE

> <acrylamide_adduct>
FALSE

> <chloroacetamide>
FALSE

> <chloroacetamide_adduct>
TRUE

> <vinylsulfonamide>
FALSE

> <vinylsulfonamide_adduct>
FALSE

> <in_molport_or_mcule>
FALSE

> <in_emolecules>
FALSE

> <Hybrid2>
1.878609

> <Mpro-x1382_dock>
1.878609

> <site>
active-covalent

$$$$
MAK-UNK-8fd-38
  -OEChem-04062011563D

 74 77  0     0  0  0  0  0  0999 V2000
   13.0456    0.3089   19.7449 C   0  0  0  0  0  0  0  0  0  0  0  0
   14.0642   -0.6401   19.8300 C   0  0  0  0  0  0  0  0  0  0  0  0
   11.4294    5.2356   23.4074 C   0  0  0  0  0  0  0  0  0  0  0  0
   12.0985    0.4088   20.7641 C   0  0  0  0  0  0  0  0  0  0  0  0
   14.1358   -1.4893   20.9343 C   0  0  0  0  0  0  0  0  0  0  0  0
   11.9280    3.9418   23.3042 C   0  0  0  0  0  0  0  0  0  0  0  0
    9.9770   -0.9851   23.0387 C   0  0  0  0  0  0  0  0  0  0  0  0
   11.0117    5.6722   24.6543 C   0  0  0  0  0  0  0  0  0  0  0  0
   11.5500    3.6661   25.6360 C   0  0  0  0  0  0  0  0  0  0  0  0
   10.2316    0.3596   24.8267 C   0  0  0  0  0  0  0  0  0  0  0  0
   12.1701   -0.4403   21.8684 C   0  0  0  0  0  0  0  0  0  0  0  0
    9.3740   -0.5468   24.2435 C   0  0  0  0  0  0  0  0  0  0  0  0
   13.1887   -1.3894   21.9535 C   0  0  0  0  0  0  0  0  0  0  0  0
   11.9927    3.1354   24.4351 C   0  0  0  0  0  0  0  0  0  0  0  0
   11.1850   -0.3333   22.9226 C   0  0  0  0  0  0  0  0  0  0  0  0
    6.1082   -1.2100   26.9646 C   0  0  0  0  0  0  0  0  0  0  0  0
    4.8879   -6.1192   26.7385 C   0  0  0  0  0  0  0  0  0  0  0  0
    6.0978   -3.0819   25.2971 C   0  0  0  0  0  0  0  0  0  0  0  0
    7.1379   -3.4097   27.5873 C   0  0  0  0  0  0  0  0  0  0  0  0
    4.8606   -3.8343   25.7904 C   0  0  0  0  0  0  0  0  0  0  0  0
    5.8724   -4.1546   28.0192 C   0  0  0  0  0  0  0  0  0  0  0  0
    6.8540   -2.4135   26.4540 C   0  0  0  0  0  0  0  0  0  0  0  0
    7.4906    2.0174   26.6557 C   0  0  0  0  0  0  0  0  0  0  0  0
    6.3037    1.7479   28.8613 C   0  0  0  0  0  0  0  0  0  0  0  0
    8.1569   -0.4186   28.1573 C   0  0  0  0  0  0  0  0  0  0  0  0
    8.0461   -0.9874   24.7853 C   0  0  0  0  0  0  0  0  0  0  0  0
    5.2846   -7.0159   27.8840 C   0  0  0  0  0  0  0  0  0  0  0  0
    6.4598    1.2208   27.4424 C   0  0  0  0  0  0  0  0  0  0  0  0
   11.0593    4.9181   25.7752 N   0  0  0  0  0  0  0  0  0  0  0  0
   11.3293    0.4813   24.0152 N   0  0  0  0  0  0  0  0  0  0  0  0
    5.2105   -4.7683   26.8618 N   0  0  0  0  0  0  0  0  0  0  0  0
    6.8785   -0.1773   27.5005 N   0  0  0  0  0  0  0  0  0  0  0  0
    8.1670   -1.9261   25.9273 N   0  3  0  0  0  0  0  0  0  0  0  0
    4.8767   -1.1884   26.8893 O   0  0  0  0  0  0  0  0  0  0  0  0
    4.3103   -6.6070   25.7636 O   0  0  0  0  0  0  0  0  0  0  0  0
   13.4955    1.3827   23.1731 O   0  0  0  0  0  0  0  0  0  0  0  0
   13.1266    1.1604   25.6806 O   0  0  0  0  0  0  0  0  0  0  0  0
   13.2715   -2.2131   23.0087 F   0  0  0  0  0  0  0  0  0  0  0  0
   12.6227    1.4795   24.3427 S   0  0  0  0  0  0  0  0  0  0  0  0
    3.9442   -6.9991   29.0246 Cl  0  0  0  0  0  0  0  0  0  0  0  0
   12.9903    0.9703   18.8851 H   0  0  0  0  0  0  0  0  0  0  0  0
   14.8019   -0.7176   19.0367 H   0  0  0  0  0  0  0  0  0  0  0  0
   11.3695    5.8820   22.5392 H   0  0  0  0  0  0  0  0  0  0  0  0
   11.3106    1.1540   20.6828 H   0  0  0  0  0  0  0  0  0  0  0  0
   14.9291   -2.2280   21.0009 H   0  0  0  0  0  0  0  0  0  0  0  0
   12.2630    3.5718   22.3392 H   0  0  0  0  0  0  0  0  0  0  0  0
    9.5719   -1.6989   22.3337 H   0  0  0  0  0  0  0  0  0  0  0  0
   10.6148    6.6732   24.7879 H   0  0  0  0  0  0  0  0  0  0  0  0
   11.5759    3.0850   26.5527 H   0  0  0  0  0  0  0  0  0  0  0  0
   10.1509    0.9237   25.7468 H   0  0  0  0  0  0  0  0  0  0  0  0
    6.7526   -3.7974   24.7816 H   0  0  0  0  0  0  0  0  0  0  0  0
    5.7874   -2.3385   24.5522 H   0  0  0  0  0  0  0  0  0  0  0  0
    7.5624   -2.8969   28.4596 H   0  0  0  0  0  0  0  0  0  0  0  0
    7.8786   -4.1520   27.2606 H   0  0  0  0  0  0  0  0  0  0  0  0
    4.1148   -3.1382   26.1918 H   0  0  0  0  0  0  0  0  0  0  0  0
    4.3933   -4.3603   24.9518 H   0  0  0  0  0  0  0  0  0  0  0  0
    6.1322   -4.8922   28.7806 H   0  0  0  0  0  0  0  0  0  0  0  0
    5.1532   -3.4644   28.4756 H   0  0  0  0  0  0  0  0  0  0  0  0
    8.4665    1.9888   27.1511 H   0  0  0  0  0  0  0  0  0  0  0  0
    7.6114    1.6228   25.6406 H   0  0  0  0  0  0  0  0  0  0  0  0
    7.1860    3.0660   26.5668 H   0  0  0  0  0  0  0  0  0  0  0  0
    7.2599    1.7148   29.3951 H   0  0  0  0  0  0  0  0  0  0  0  0
    5.5810    1.1472   29.4231 H   0  0  0  0  0  0  0  0  0  0  0  0
    5.9599    2.7883   28.8665 H   0  0  0  0  0  0  0  0  0  0  0  0
    8.9663   -0.3713   27.4140 H   0  0  0  0  0  0  0  0  0  0  0  0
    8.3227    0.3474   28.9291 H   0  0  0  0  0  0  0  0  0  0  0  0
    8.1465   -1.4142   28.6250 H   0  0  0  0  0  0  0  0  0  0  0  0
    7.4605   -0.1330   25.1412 H   0  0  0  0  0  0  0  0  0  0  0  0
    7.4561   -1.4999   24.0179 H   0  0  0  0  0  0  0  0  0  0  0  0
    6.1764   -6.6147   28.3519 H   0  0  0  0  0  0  0  0  0  0  0  0
    5.4399   -8.0201   27.5067 H   0  0  0  0  0  0  0  0  0  0  0  0
    5.4930    1.2634   26.9290 H   0  0  0  0  0  0  0  0  0  0  0  0
    8.6792   -1.4725   26.6923 H   0  0  0  0  0  0  0  0  0  0  0  0
    8.7295   -2.7376   25.6473 H   0  0  0  0  0  0  0  0  0  0  0  0
  1  2  1  0  0  0  0
  1  4  2  0  0  0  0
  2  5  2  0  0  0  0
  3  6  2  0  0  0  0
  3  8  1  0  0  0  0
  4 11  1  0  0  0  0
  5 13  1  0  0  0  0
  6 14  1  0  0  0  0
  7 12  1  0  0  0  0
  7 15  2  0  0  0  0
  8 29  2  0  0  0  0
  9 14  2  0  0  0  0
  9 29  1  0  0  0  0
 10 12  2  0  0  0  0
 10 30  1  0  0  0  0
 11 13  2  0  0  0  0
 11 15  1  0  0  0  0
 12 26  1  0  0  0  0
 13 38  1  0  0  0  0
 14 39  1  0  0  0  0
 15 30  1  0  0  0  0
 16 22  1  0  0  0  0
 16 32  1  0  0  0  0
 16 34  2  0  0  0  0
 17 27  1  0  0  0  0
 17 31  1  0  0  0  0
 17 35  2  0  0  0  0
 18 20  1  0  0  0  0
 18 22  1  0  0  0  0
 19 21  1  0  0  0  0
 19 22  1  0  0  0  0
 20 31  1  0  0  0  0
 21 31  1  0  0  0  0
 22 33  1  0  0  0  0
 23 28  1  0  0  0  0
 24 28  1  0  0  0  0
 25 32  1  0  0  0  0
 26 33  1  0  0  0  0
 27 40  1  0  0  0  0
 28 32  1  0  0  0  0
 30 39  1  0  0  0  0
 36 39  2  0  0  0  0
 37 39  2  0  0  0  0
  1 41  1  0  0  0  0
  2 42  1  0  0  0  0
  3 43  1  0  0  0  0
  4 44  1  0  0  0  0
  5 45  1  0  0  0  0
  6 46  1  0  0  0  0
  7 47  1  0  0  0  0
  8 48  1  0  0  0  0
  9 49  1  0  0  0  0
 10 50  1  0  0  0  0
 18 51  1  0  0  0  0
 18 52  1  0  0  0  0
 19 53  1  0  0  0  0
 19 54  1  0  0  0  0
 20 55  1  0  0  0  0
 20 56  1  0  0  0  0
 21 57  1  0  0  0  0
 21 58  1  0  0  0  0
 23 59  1  0  0  0  0
 23 60  1  0  0  0  0
 23 61  1  0  0  0  0
 24 62  1  0  0  0  0
 24 63  1  0  0  0  0
 24 64  1  0  0  0  0
 25 65  1  0  0  0  0
 25 66  1  0  0  0  0
 25 67  1  0  0  0  0
 26 68  1  0  0  0  0
 26 69  1  0  0  0  0
 27 70  1  0  0  0  0
 27 71  1  0  0  0  0
 28 72  1  0  0  0  0
 33 73  1  0  0  0  0
 33 74  1  0  0  0  0
M  CHG  1  33   1
M  END
> <creator>
Maksym Voznyy

> <fragments>
x0305

> <real_space>
FALSE

> <SCR>
FALSE

> <BB>
FALSE

> <link>
https://covid.postera.ai/covid/submissions/8fdbca50-c94c-4218-91b0-3b0489774fa8

> <covalent_frag>
FALSE

> <covalent_warhead>
TRUE

> <acrylamide>
FALSE

> <acrylamide_adduct>
FALSE

> <chloroacetamide>
TRUE

> <chloroacetamide_adduct>
FALSE

> <vinylsulfonamide>
FALSE

> <vinylsulfonamide_adduct>
FALSE

> <in_molport_or_mcule>
FALSE

> <in_emolecules>
FALSE

> <Hybrid2>
2.017221

> <Mpro-x0305_dock>
2.017221

> <site>
active-noncovalent

> <covalent_distance_min>
8.872144

> <covalent_distance_mean>
10.792535

> <covalent_distance_stderr>
0.17529517

$$$$
MAK-UNK-8fd-37
  -OEChem-04062011563D

 74 77  0     1  0  0  0  0  0999 V2000
    3.6115   -1.1383   25.3000 C   0  0  0  0  0  0  0  0  0  0  0  0
    3.1074   -2.0023   26.2721 C   0  0  0  0  0  0  0  0  0  0  0  0
    5.4153    3.2716   25.4412 C   0  0  0  0  0  0  0  0  0  0  0  0
    4.9899   -0.9898   25.1460 C   0  0  0  0  0  0  0  0  0  0  0  0
    3.9817   -2.7178   27.0902 C   0  0  0  0  0  0  0  0  0  0  0  0
    5.7343    2.1196   26.1514 C   0  0  0  0  0  0  0  0  0  0  0  0
    8.1490   -2.2601   24.9906 C   0  0  0  0  0  0  0  0  0  0  0  0
    6.4071    4.2242   25.2714 C   0  0  0  0  0  0  0  0  0  0  0  0
    7.9371    2.9689   26.4381 C   0  0  0  0  0  0  0  0  0  0  0  0
    9.3493   -0.7135   26.1028 C   0  0  0  0  0  0  0  0  0  0  0  0
    5.8642   -1.7053   25.9641 C   0  0  0  0  0  0  0  0  0  0  0  0
    9.4498   -1.7325   25.1815 C   0  0  0  0  0  0  0  0  0  0  0  0
    5.3601   -2.5693   26.9363 C   0  0  0  0  0  0  0  0  0  0  0  0
    7.0170    1.9576   26.6628 C   0  0  0  0  0  0  0  0  0  0  0  0
    7.2930   -1.5474   25.8010 C   0  0  0  0  0  0  0  0  0  0  0  0
   11.2923    2.5477   23.5338 C   0  0  0  0  0  0  0  0  0  0  0  0
   13.3774   -1.3546   20.9875 C   0  0  0  0  0  0  0  0  0  0  0  0
   13.4330    1.3072   23.3753 C   0  0  0  0  0  0  0  0  0  0  0  0
   13.4705    0.9446   21.8914 C   0  0  0  0  0  0  0  0  0  0  0  0
   11.3347   -0.2836   22.0580 C   0  0  0  0  0  0  0  0  0  0  0  0
   12.0125    1.2974   23.9528 C   0  0  2  0  0  0  0  0  0  0  0  0
   11.2050    0.0582   23.5454 C   0  0  2  0  0  0  0  0  0  0  0  0
   10.0333    5.2757   23.2125 C   0  0  0  0  0  0  0  0  0  0  0  0
   12.5165    5.2070   22.7942 C   0  0  0  0  0  0  0  0  0  0  0  0
   11.7038    3.5640   25.7797 C   0  0  0  0  0  0  0  0  0  0  0  0
   10.7063   -2.1969   24.5057 C   0  0  0  0  0  0  0  0  0  0  0  0
   12.5098   -2.2587   20.1486 C   0  0  0  0  0  0  0  0  0  0  0  0
   11.4068    5.0308   23.8203 C   0  0  0  0  0  0  0  0  0  0  0  0
    7.6642    4.1021   25.7533 N   0  0  0  0  0  0  0  0  0  0  0  0
    8.0336   -0.6097   26.4722 N   0  0  0  0  0  0  0  0  0  0  0  0
   12.7383   -0.2939   21.6292 N   0  0  0  0  0  0  0  0  0  0  0  0
   11.4611    3.6693   24.3466 N   0  0  0  0  0  0  0  0  0  0  0  0
   11.7063   -1.1134   24.3285 N   0  3  0  0  0  0  0  0  0  0  0  0
   10.5988    2.5297   22.5134 O   0  0  0  0  0  0  0  0  0  0  0  0
   14.5861   -1.5873   21.0710 O   0  0  0  0  0  0  0  0  0  0  0  0
    8.6018    0.8239   28.4308 O   0  0  0  0  0  0  0  0  0  0  0  0
    6.2165   -0.0148   28.1482 O   0  0  0  0  0  0  0  0  0  0  0  0
    6.1873   -3.2645   27.7307 F   0  0  0  0  0  0  0  0  0  0  0  0
    7.4612    0.5016   27.5740 S   0  0  0  0  0  0  0  0  0  0  0  0
   11.9714   -3.5609   21.2033 Cl  0  0  0  0  0  0  0  0  0  0  0  0
    2.9305   -0.5815   24.6628 H   0  0  0  0  0  0  0  0  0  0  0  0
    2.0342   -2.1183   26.3917 H   0  0  0  0  0  0  0  0  0  0  0  0
    4.4219    3.4193   25.0335 H   0  0  0  0  0  0  0  0  0  0  0  0
    5.3670   -0.3123   24.3835 H   0  0  0  0  0  0  0  0  0  0  0  0
    3.5893   -3.3909   27.8468 H   0  0  0  0  0  0  0  0  0  0  0  0
    4.9770    1.3550   26.3006 H   0  0  0  0  0  0  0  0  0  0  0  0
    7.8693   -3.0725   24.3328 H   0  0  0  0  0  0  0  0  0  0  0  0
    6.2091    5.1406   24.7251 H   0  0  0  0  0  0  0  0  0  0  0  0
    8.9538    2.8995   26.8124 H   0  0  0  0  0  0  0  0  0  0  0  0
   10.1015   -0.0583   26.5224 H   0  0  0  0  0  0  0  0  0  0  0  0
   14.0686    0.6049   23.9382 H   0  0  0  0  0  0  0  0  0  0  0  0
   13.8924    2.3004   23.5158 H   0  0  0  0  0  0  0  0  0  0  0  0
   13.0654    1.7731   21.3000 H   0  0  0  0  0  0  0  0  0  0  0  0
   14.5061    0.7880   21.5637 H   0  0  0  0  0  0  0  0  0  0  0  0
   10.9374   -1.2902   21.8524 H   0  0  0  0  0  0  0  0  0  0  0  0
   10.7351    0.4162   21.4638 H   0  0  0  0  0  0  0  0  0  0  0  0
   12.0862    1.3375   25.0661 H   0  0  0  0  0  0  0  0  0  0  0  0
   10.1495    0.1616   23.8236 H   0  0  0  0  0  0  0  0  0  0  0  0
    9.8502    4.5942   22.3754 H   0  0  0  0  0  0  0  0  0  0  0  0
    9.2372    5.1305   23.9514 H   0  0  0  0  0  0  0  0  0  0  0  0
    9.9514    6.3021   22.8383 H   0  0  0  0  0  0  0  0  0  0  0  0
   12.3760    4.5240   21.9492 H   0  0  0  0  0  0  0  0  0  0  0  0
   13.4953    4.9993   23.2388 H   0  0  0  0  0  0  0  0  0  0  0  0
   12.5332    6.2268   22.3936 H   0  0  0  0  0  0  0  0  0  0  0  0
   12.7866    3.5106   25.9658 H   0  0  0  0  0  0  0  0  0  0  0  0
   11.2877    4.4465   26.2878 H   0  0  0  0  0  0  0  0  0  0  0  0
   11.2200    2.6555   26.1676 H   0  0  0  0  0  0  0  0  0  0  0  0
   11.1977   -2.9871   25.0834 H   0  0  0  0  0  0  0  0  0  0  0  0
   10.4944   -2.5957   23.5078 H   0  0  0  0  0  0  0  0  0  0  0  0
   13.1035   -2.6599   19.3352 H   0  0  0  0  0  0  0  0  0  0  0  0
   11.6572   -1.6936   19.7897 H   0  0  0  0  0  0  0  0  0  0  0  0
   11.5679    5.7226   24.6543 H   0  0  0  0  0  0  0  0  0  0  0  0
   12.5400   -1.4927   23.8624 H   0  0  0  0  0  0  0  0  0  0  0  0
   12.0213   -0.7866   25.2507 H   0  0  0  0  0  0  0  0  0  0  0  0
  1  2  1  0  0  0  0
  1  4  2  0  0  0  0
  2  5  2  0  0  0  0
  3  6  2  0  0  0  0
  3  8  1  0  0  0  0
  4 11  1  0  0  0  0
  5 13  1  0  0  0  0
  6 14  1  0  0  0  0
  7 12  1  0  0  0  0
  7 15  2  0  0  0  0
  8 29  2  0  0  0  0
  9 14  2  0  0  0  0
  9 29  1  0  0  0  0
 10 12  2  0  0  0  0
 10 30  1  0  0  0  0
 11 13  2  0  0  0  0
 11 15  1  0  0  0  0
 12 26  1  0  0  0  0
 13 38  1  0  0  0  0
 14 39  1  0  0  0  0
 15 30  1  0  0  0  0
 16 21  1  0  0  0  0
 16 32  1  0  0  0  0
 16 34  2  0  0  0  0
 17 27  1  0  0  0  0
 17 31  1  0  0  0  0
 17 35  2  0  0  0  0
 18 19  1  0  0  0  0
 18 21  1  0  0  0  0
 19 31  1  0  0  0  0
 20 22  1  0  0  0  0
 20 31  1  0  0  0  0
 21 22  1  0  0  0  0
 22 33  1  0  0  0  0
 23 28  1  0  0  0  0
 24 28  1  0  0  0  0
 25 32  1  0  0  0  0
 26 33  1  0  0  0  0
 27 40  1  0  0  0  0
 28 32  1  0  0  0  0
 30 39  1  0  0  0  0
 36 39  2  0  0  0  0
 37 39  2  0  0  0  0
  1 41  1  0  0  0  0
  2 42  1  0  0  0  0
  3 43  1  0  0  0  0
  4 44  1  0  0  0  0
  5 45  1  0  0  0  0
  6 46  1  0  0  0  0
  7 47  1  0  0  0  0
  8 48  1  0  0  0  0
  9 49  1  0  0  0  0
 10 50  1  0  0  0  0
 18 51  1  0  0  0  0
 18 52  1  0  0  0  0
 19 53  1  0  0  0  0
 19 54  1  0  0  0  0
 20 55  1  0  0  0  0
 20 56  1  0  0  0  0
 21 57  1  0  0  0  0
 22 58  1  0  0  0  0
 23 59  1  0  0  0  0
 23 60  1  0  0  0  0
 23 61  1  0  0  0  0
 24 62  1  0  0  0  0
 24 63  1  0  0  0  0
 24 64  1  0  0  0  0
 25 65  1  0  0  0  0
 25 66  1  0  0  0  0
 25 67  1  0  0  0  0
 26 68  1  0  0  0  0
 26 69  1  0  0  0  0
 27 70  1  0  0  0  0
 27 71  1  0  0  0  0
 28 72  1  0  0  0  0
 33 73  1  0  0  0  0
 33 74  1  0  0  0  0
M  CHG  1  33   1
M  END
> <creator>
Maksym Voznyy

> <fragments>
x0305

> <real_space>
FALSE

> <SCR>
FALSE

> <BB>
FALSE

> <link>
https://covid.postera.ai/covid/submissions/8fdbca50-c94c-4218-91b0-3b0489774fa8

> <covalent_frag>
FALSE

> <covalent_warhead>
TRUE

> <acrylamide>
FALSE

> <acrylamide_adduct>
FALSE

> <chloroacetamide>
TRUE

> <chloroacetamide_adduct>
FALSE

> <vinylsulfonamide>
FALSE

> <vinylsulfonamide_adduct>
FALSE

> <in_molport_or_mcule>
FALSE

> <in_emolecules>
FALSE

> <Hybrid2>
2.352189

> <Mpro-x0305_dock>
2.352189

> <site>
active-noncovalent

> <covalent_distance_min>
5.8031025

> <covalent_distance_mean>
6.9639225

> <covalent_distance_stderr>
0.040865935

$$$$
MAK-UNK-8fd-22
  -OEChem-04062011563D

 74 77  0     0  0  0  0  0  0999 V2000
   10.3613   -2.2703   20.6693 C   0  0  0  0  0  0  0  0  0  0  0  0
   11.4491   -3.0941   20.3804 C   0  0  0  0  0  0  0  0  0  0  0  0
   10.5480   -1.1021   21.4085 C   0  0  0  0  0  0  0  0  0  0  0  0
   12.7237   -2.7500   20.8307 C   0  0  0  0  0  0  0  0  0  0  0  0
   12.2962    1.7228   22.1708 C   0  0  0  0  0  0  0  0  0  0  0  0
    9.2237   -0.1330   26.2402 C   0  0  0  0  0  0  0  0  0  0  0  0
    7.1374   -0.9495   25.4418 C   0  0  0  0  0  0  0  0  0  0  0  0
    9.0645   -1.5911   24.3681 C   0  0  0  0  0  0  0  0  0  0  0  0
   12.1534    1.7907   24.4169 C   0  0  0  0  0  0  0  0  0  0  0  0
   11.8226   -0.7580   21.8588 C   0  0  0  0  0  0  0  0  0  0  0  0
   12.3861    2.5683   23.3041 C   0  0  0  0  0  0  0  0  0  0  0  0
    7.8387   -0.1784   26.3547 C   0  0  0  0  0  0  0  0  0  0  0  0
   12.9104   -1.5819   21.5699 C   0  0  0  0  0  0  0  0  0  0  0  0
    9.8561   -0.8500   25.2306 C   0  0  0  0  0  0  0  0  0  0  0  0
   12.0110    0.4543   22.6257 C   0  0  0  0  0  0  0  0  0  0  0  0
    6.7101    1.8812   27.1887 C   0  0  0  0  0  0  0  0  0  0  0  0
    5.9159    6.4580   25.0716 C   0  0  0  0  0  0  0  0  0  0  0  0
    5.8863    2.8997   25.0732 C   0  0  0  0  0  0  0  0  0  0  0  0
    8.0340    3.7322   26.1491 C   0  0  0  0  0  0  0  0  0  0  0  0
    5.1878    4.1529   25.5979 C   0  0  0  0  0  0  0  0  0  0  0  0
    7.2722    4.9700   26.6248 C   0  0  0  0  0  0  0  0  0  0  0  0
    7.1224    2.5267   25.8979 C   0  0  0  0  0  0  0  0  0  0  0  0
    5.3437   -0.2100   28.8413 C   0  0  0  0  0  0  0  0  0  0  0  0
    7.5637    0.5037   29.7942 C   0  0  0  0  0  0  0  0  0  0  0  0
   11.7594    6.3305   23.4902 C   0  0  0  0  0  0  0  0  0  0  0  0
   12.6758    4.0151   23.2955 C   0  0  0  0  0  0  0  0  0  0  0  0
    6.9452    7.5418   25.2705 C   0  0  0  0  0  0  0  0  0  0  0  0
    6.8509   -0.1757   28.6341 C   0  0  0  0  0  0  0  0  0  0  0  0
    7.7166   -1.6595   24.4478 N   0  0  0  0  0  0  0  0  0  0  0  0
   11.9262    0.5075   23.9925 N   0  0  0  0  0  0  0  0  0  0  0  0
    6.1382    5.2550   25.7405 N   0  0  0  0  0  0  0  0  0  0  0  0
    7.1503    0.5587   27.3952 N   0  0  0  0  0  0  0  0  0  0  0  0
   11.4802    4.8749   23.5551 N   0  3  0  0  0  0  0  0  0  0  0  0
    6.0502    2.5541   27.9847 O   0  0  0  0  0  0  0  0  0  0  0  0
    4.9452    6.6753   24.3418 O   0  0  0  0  0  0  0  0  0  0  0  0
   12.2195   -0.3999   26.2957 O   0  0  0  0  0  0  0  0  0  0  0  0
   11.9997   -2.0104   24.3384 O   0  0  0  0  0  0  0  0  0  0  0  0
   14.1421   -1.2649   21.9954 F   0  0  0  0  0  0  0  0  0  0  0  0
   11.5874   -0.8155   25.0541 S   0  0  0  0  0  0  0  0  0  0  0  0
    6.4303    8.9112   24.2920 Cl  0  0  0  0  0  0  0  0  0  0  0  0
    9.3690   -2.5383   20.3182 H   0  0  0  0  0  0  0  0  0  0  0  0
   11.3039   -4.0034   19.8044 H   0  0  0  0  0  0  0  0  0  0  0  0
    9.6897   -0.4706   21.6253 H   0  0  0  0  0  0  0  0  0  0  0  0
   13.5708   -3.3911   20.6054 H   0  0  0  0  0  0  0  0  0  0  0  0
   12.4261    2.0105   21.1359 H   0  0  0  0  0  0  0  0  0  0  0  0
    9.8106    0.4620   26.9359 H   0  0  0  0  0  0  0  0  0  0  0  0
    6.0547   -1.0244   25.4792 H   0  0  0  0  0  0  0  0  0  0  0  0
    9.5014   -2.1726   23.5621 H   0  0  0  0  0  0  0  0  0  0  0  0
   12.1307    2.0443   25.4688 H   0  0  0  0  0  0  0  0  0  0  0  0
    5.1712    2.0684   25.0581 H   0  0  0  0  0  0  0  0  0  0  0  0
    6.1916    3.0750   24.0336 H   0  0  0  0  0  0  0  0  0  0  0  0
    8.5567    3.9805   25.2164 H   0  0  0  0  0  0  0  0  0  0  0  0
    8.8049    3.4790   26.8870 H   0  0  0  0  0  0  0  0  0  0  0  0
    4.3705    4.4269   24.9231 H   0  0  0  0  0  0  0  0  0  0  0  0
    4.7456    3.9688   26.5840 H   0  0  0  0  0  0  0  0  0  0  0  0
    6.8668    4.8138   27.6310 H   0  0  0  0  0  0  0  0  0  0  0  0
    7.9625    5.8129   26.6902 H   0  0  0  0  0  0  0  0  0  0  0  0
    7.6894    1.7618   25.3528 H   0  0  0  0  0  0  0  0  0  0  0  0
    4.9428    0.8022   28.9564 H   0  0  0  0  0  0  0  0  0  0  0  0
    4.8343   -0.6847   27.9951 H   0  0  0  0  0  0  0  0  0  0  0  0
    5.0880   -0.7804   29.7410 H   0  0  0  0  0  0  0  0  0  0  0  0
    7.2007    1.5289   29.9260 H   0  0  0  0  0  0  0  0  0  0  0  0
    8.6434    0.5466   29.6172 H   0  0  0  0  0  0  0  0  0  0  0  0
    7.3932   -0.0293   30.7363 H   0  0  0  0  0  0  0  0  0  0  0  0
   12.1608    6.5496   22.4991 H   0  0  0  0  0  0  0  0  0  0  0  0
   10.8191    6.8589   23.6586 H   0  0  0  0  0  0  0  0  0  0  0  0
   12.4871    6.5661   24.2692 H   0  0  0  0  0  0  0  0  0  0  0  0
   13.4174    4.3002   24.0628 H   0  0  0  0  0  0  0  0  0  0  0  0
   13.0813    4.3568   22.3266 H   0  0  0  0  0  0  0  0  0  0  0  0
    7.9075    7.1798   24.9269 H   0  0  0  0  0  0  0  0  0  0  0  0
    6.9653    7.8193   26.3181 H   0  0  0  0  0  0  0  0  0  0  0  0
    7.2295   -1.1975   28.5215 H   0  0  0  0  0  0  0  0  0  0  0  0
   11.1004    4.6391   24.4792 H   0  0  0  0  0  0  0  0  0  0  0  0
   10.7491    4.6351   22.8756 H   0  0  0  0  0  0  0  0  0  0  0  0
  1  2  1  0  0  0  0
  1  3  2  0  0  0  0
  2  4  2  0  0  0  0
  3 10  1  0  0  0  0
  4 13  1  0  0  0  0
  5 11  1  0  0  0  0
  5 15  2  0  0  0  0
  6 12  1  0  0  0  0
  6 14  2  0  0  0  0
  7 12  2  0  0  0  0
  7 29  1  0  0  0  0
  8 14  1  0  0  0  0
  8 29  2  0  0  0  0
  9 11  2  0  0  0  0
  9 30  1  0  0  0  0
 10 13  2  0  0  0  0
 10 15  1  0  0  0  0
 11 26  1  0  0  0  0
 12 32  1  0  0  0  0
 13 38  1  0  0  0  0
 14 39  1  0  0  0  0
 15 30  1  0  0  0  0
 16 22  1  0  0  0  0
 16 32  1  0  0  0  0
 16 34  2  0  0  0  0
 17 27  1  0  0  0  0
 17 31  1  0  0  0  0
 17 35  2  0  0  0  0
 18 20  1  0  0  0  0
 18 22  1  0  0  0  0
 19 21  1  0  0  0  0
 19 22  1  0  0  0  0
 20 31  1  0  0  0  0
 21 31  1  0  0  0  0
 23 28  1  0  0  0  0
 24 28  1  0  0  0  0
 25 33  1  0  0  0  0
 26 33  1  0  0  0  0
 27 40  1  0  0  0  0
 28 32  1  0  0  0  0
 30 39  1  0  0  0  0
 36 39  2  0  0  0  0
 37 39  2  0  0  0  0
  1 41  1  0  0  0  0
  2 42  1  0  0  0  0
  3 43  1  0  0  0  0
  4 44  1  0  0  0  0
  5 45  1  0  0  0  0
  6 46  1  0  0  0  0
  7 47  1  0  0  0  0
  8 48  1  0  0  0  0
  9 49  1  0  0  0  0
 18 50  1  0  0  0  0
 18 51  1  0  0  0  0
 19 52  1  0  0  0  0
 19 53  1  0  0  0  0
 20 54  1  0  0  0  0
 20 55  1  0  0  0  0
 21 56  1  0  0  0  0
 21 57  1  0  0  0  0
 22 58  1  0  0  0  0
 23 59  1  0  0  0  0
 23 60  1  0  0  0  0
 23 61  1  0  0  0  0
 24 62  1  0  0  0  0
 24 63  1  0  0  0  0
 24 64  1  0  0  0  0
 25 65  1  0  0  0  0
 25 66  1  0  0  0  0
 25 67  1  0  0  0  0
 26 68  1  0  0  0  0
 26 69  1  0  0  0  0
 27 70  1  0  0  0  0
 27 71  1  0  0  0  0
 28 72  1  0  0  0  0
 33 73  1  0  0  0  0
 33 74  1  0  0  0  0
M  CHG  1  33   1
M  END
> <creator>
Maksym Voznyy

> <fragments>
x0305

> <real_space>
FALSE

> <SCR>
FALSE

> <BB>
FALSE

> <link>
https://covid.postera.ai/covid/submissions/8fdbca50-c94c-4218-91b0-3b0489774fa8

> <covalent_frag>
FALSE

> <covalent_warhead>
TRUE

> <acrylamide>
FALSE

> <acrylamide_adduct>
FALSE

> <chloroacetamide>
TRUE

> <chloroacetamide_adduct>
FALSE

> <vinylsulfonamide>
FALSE

> <vinylsulfonamide_adduct>
FALSE

> <in_molport_or_mcule>
FALSE

> <in_emolecules>
FALSE

> <Hybrid2>
2.377596

> <Mpro-x0305_dock>
2.377596

> <site>
active-noncovalent

> <covalent_distance_min>
13.688787

> <covalent_distance_mean>
14.039154

> <covalent_distance_stderr>
0.07706845

$$$$
MAK-UNK-8fd-17
  -OEChem-04062011563D

 74 77  0     1  0  0  0  0  0999 V2000
    5.1861   -3.7877   26.0653 C   0  0  0  0  0  0  0  0  0  0  0  0
    5.5029   -4.8136   26.9558 C   0  0  0  0  0  0  0  0  0  0  0  0
    4.9861    0.9585   26.4582 C   0  0  0  0  0  0  0  0  0  0  0  0
    6.2033   -3.0387   25.4738 C   0  0  0  0  0  0  0  0  0  0  0  0
    6.8369   -5.0903   27.2548 C   0  0  0  0  0  0  0  0  0  0  0  0
    5.9911    0.0475   26.7637 C   0  0  0  0  0  0  0  0  0  0  0  0
    9.2517   -2.7703   23.9729 C   0  0  0  0  0  0  0  0  0  0  0  0
    5.3594    2.2567   26.1499 C   0  0  0  0  0  0  0  0  0  0  0  0
    7.5887    1.7773   26.4300 C   0  0  0  0  0  0  0  0  0  0  0  0
   10.0776   -0.8847   24.8852 C   0  0  0  0  0  0  0  0  0  0  0  0
    7.5373   -3.3154   25.7728 C   0  0  0  0  0  0  0  0  0  0  0  0
   10.1935   -1.7260   23.8008 C   0  0  0  0  0  0  0  0  0  0  0  0
    7.8542   -4.3412   26.6633 C   0  0  0  0  0  0  0  0  0  0  0  0
    7.3199    0.4567   26.7517 C   0  0  0  0  0  0  0  0  0  0  0  0
    8.5888   -2.5352   25.1573 C   0  0  0  0  0  0  0  0  0  0  0  0
   13.3163    1.0787   21.6834 C   0  0  0  0  0  0  0  0  0  0  0  0
   11.6867    5.8768   23.7221 C   0  0  0  0  0  0  0  0  0  0  0  0
   13.8634    3.1518   22.9135 C   0  0  0  0  0  0  0  0  0  0  0  0
   11.4659    2.4142   22.6592 C   0  0  0  0  0  0  0  0  0  0  0  0
   13.4186    4.1312   23.9966 C   0  0  0  0  0  0  0  0  0  0  0  0
   11.0699    3.4092   23.7482 C   0  0  0  0  0  0  0  0  0  0  0  0
   12.9154    1.9522   22.8317 C   0  0  0  0  0  0  0  0  0  0  0  0
   14.9173   -1.2107   20.5399 C   0  0  0  0  0  0  0  0  0  0  0  0
   12.6321   -0.9120   19.5227 C   0  0  0  0  0  0  0  0  0  0  0  0
   13.4702   -1.8005   23.6758 C   0  0  0  0  0  0  0  0  0  0  0  0
   11.1490   -1.5638   22.6429 C   0  0  0  0  0  0  0  0  0  0  0  0
   10.2280    6.2003   23.5197 C   0  0  0  0  0  0  0  0  0  0  0  0
   13.4155   -1.2504   20.7826 C   0  0  0  0  0  0  0  0  0  0  0  0
   12.4623   -0.8552   23.0218 C   0  0  2  0  0  0  0  0  0  0  0  0
    6.6394    2.6912   26.1278 N   0  0  0  0  0  0  0  0  0  0  0  0
    9.0989   -1.3862   25.7031 N   0  0  0  0  0  0  0  0  0  0  0  0
   12.0218    4.5257   23.8028 N   0  0  0  0  0  0  0  0  0  0  0  0
   13.0746   -0.2885   21.8229 N   0  0  0  0  0  0  0  0  0  0  0  0
   13.8310    1.5931   20.6869 O   0  0  0  0  0  0  0  0  0  0  0  0
   12.5025    6.7986   23.8039 O   0  0  0  0  0  0  0  0  0  0  0  0
    9.7881    0.0930   27.5875 O   0  0  0  0  0  0  0  0  0  0  0  0
    8.0372   -1.7083   27.9909 O   0  0  0  0  0  0  0  0  0  0  0  0
    9.1318   -4.6199   26.9611 F   0  0  0  0  0  0  0  0  0  0  0  0
    8.6294   -0.6769   27.1359 S   0  0  0  0  0  0  0  0  0  0  0  0
    9.9706    6.2992   21.7814 Cl  0  0  0  0  0  0  0  0  0  0  0  0
    4.1472   -3.5727   25.8323 H   0  0  0  0  0  0  0  0  0  0  0  0
    4.7109   -5.3971   27.4159 H   0  0  0  0  0  0  0  0  0  0  0  0
    3.9435    0.6619   26.4614 H   0  0  0  0  0  0  0  0  0  0  0  0
    5.9397   -2.2424   24.7817 H   0  0  0  0  0  0  0  0  0  0  0  0
    7.0837   -5.8893   27.9477 H   0  0  0  0  0  0  0  0  0  0  0  0
    5.7286   -0.9777   27.0096 H   0  0  0  0  0  0  0  0  0  0  0  0
    9.0779   -3.6028   23.3040 H   0  0  0  0  0  0  0  0  0  0  0  0
    4.6135    3.0055   25.9044 H   0  0  0  0  0  0  0  0  0  0  0  0
    8.6061    2.1553   26.4039 H   0  0  0  0  0  0  0  0  0  0  0  0
   10.6079    0.0238   25.1396 H   0  0  0  0  0  0  0  0  0  0  0  0
   13.9105    3.6697   21.9551 H   0  0  0  0  0  0  0  0  0  0  0  0
   14.8685    2.7967   23.1486 H   0  0  0  0  0  0  0  0  0  0  0  0
   10.8081    1.5469   22.7202 H   0  0  0  0  0  0  0  0  0  0  0  0
   11.3253    2.8729   21.6819 H   0  0  0  0  0  0  0  0  0  0  0  0
   13.5616    3.6780   24.9833 H   0  0  0  0  0  0  0  0  0  0  0  0
   14.0247    5.0448   23.9704 H   0  0  0  0  0  0  0  0  0  0  0  0
   10.0822    3.8376   23.5445 H   0  0  0  0  0  0  0  0  0  0  0  0
   10.9974    2.8876   24.7038 H   0  0  0  0  0  0  0  0  0  0  0  0
   13.0057    1.3562   23.7233 H   0  0  0  0  0  0  0  0  0  0  0  0
   15.2292   -0.2226   20.1862 H   0  0  0  0  0  0  0  0  0  0  0  0
   15.4764   -1.4381   21.4545 H   0  0  0  0  0  0  0  0  0  0  0  0
   15.2084   -1.9487   19.7844 H   0  0  0  0  0  0  0  0  0  0  0  0
   12.9049    0.0818   19.1512 H   0  0  0  0  0  0  0  0  0  0  0  0
   11.5552   -0.9162   19.7203 H   0  0  0  0  0  0  0  0  0  0  0  0
   12.8346   -1.6302   18.7203 H   0  0  0  0  0  0  0  0  0  0  0  0
   13.7026   -2.6427   23.0139 H   0  0  0  0  0  0  0  0  0  0  0  0
   13.0878   -2.2084   24.6183 H   0  0  0  0  0  0  0  0  0  0  0  0
   14.4138   -1.2872   23.8875 H   0  0  0  0  0  0  0  0  0  0  0  0
   11.3636   -2.5450   22.1984 H   0  0  0  0  0  0  0  0  0  0  0  0
   10.6269   -0.9948   21.8611 H   0  0  0  0  0  0  0  0  0  0  0  0
   10.0125    7.1564   23.9828 H   0  0  0  0  0  0  0  0  0  0  0  0
    9.6292    5.4004   23.9399 H   0  0  0  0  0  0  0  0  0  0  0  0
   13.1268   -2.2466   21.1352 H   0  0  0  0  0  0  0  0  0  0  0  0
   12.2590   -0.0309   23.7152 H   0  0  0  0  0  0  0  0  0  0  0  0
  1  2  1  0  0  0  0
  1  4  2  0  0  0  0
  2  5  2  0  0  0  0
  3  6  2  0  0  0  0
  3  8  1  0  0  0  0
  4 11  1  0  0  0  0
  5 13  1  0  0  0  0
  6 14  1  0  0  0  0
  7 12  1  0  0  0  0
  7 15  2  0  0  0  0
  8 30  2  0  0  0  0
  9 14  2  0  0  0  0
  9 30  1  0  0  0  0
 10 12  2  0  0  0  0
 10 31  1  0  0  0  0
 11 13  2  0  0  0  0
 11 15  1  0  0  0  0
 12 26  1  0  0  0  0
 13 38  1  0  0  0  0
 14 39  1  0  0  0  0
 15 31  1  0  0  0  0
 16 22  1  0  0  0  0
 16 33  1  0  0  0  0
 16 34  2  0  0  0  0
 17 27  1  0  0  0  0
 17 32  1  0  0  0  0
 17 35  2  0  0  0  0
 18 20  1  0  0  0  0
 18 22  1  0  0  0  0
 19 21  1  0  0  0  0
 19 22  1  0  0  0  0
 20 32  1  0  0  0  0
 21 32  1  0  0  0  0
 23 28  1  0  0  0  0
 24 28  1  0  0  0  0
 25 29  1  0  0  0  0
 26 29  1  0  0  0  0
 27 40  1  0  0  0  0
 28 33  1  0  0  0  0
 29 33  1  0  0  0  0
 31 39  1  0  0  0  0
 36 39  2  0  0  0  0
 37 39  2  0  0  0  0
  1 41  1  0  0  0  0
  2 42  1  0  0  0  0
  3 43  1  0  0  0  0
  4 44  1  0  0  0  0
  5 45  1  0  0  0  0
  6 46  1  0  0  0  0
  7 47  1  0  0  0  0
  8 48  1  0  0  0  0
  9 49  1  0  0  0  0
 10 50  1  0  0  0  0
 18 51  1  0  0  0  0
 18 52  1  0  0  0  0
 19 53  1  0  0  0  0
 19 54  1  0  0  0  0
 20 55  1  0  0  0  0
 20 56  1  0  0  0  0
 21 57  1  0  0  0  0
 21 58  1  0  0  0  0
 22 59  1  0  0  0  0
 23 60  1  0  0  0  0
 23 61  1  0  0  0  0
 23 62  1  0  0  0  0
 24 63  1  0  0  0  0
 24 64  1  0  0  0  0
 24 65  1  0  0  0  0
 25 66  1  0  0  0  0
 25 67  1  0  0  0  0
 25 68  1  0  0  0  0
 26 69  1  0  0  0  0
 26 70  1  0  0  0  0
 27 71  1  0  0  0  0
 27 72  1  0  0  0  0
 28 73  1  0  0  0  0
 29 74  1  0  0  0  0
M  END
> <creator>
Maksym Voznyy

> <fragments>
x0305

> <real_space>
FALSE

> <SCR>
FALSE

> <BB>
FALSE

> <link>
https://covid.postera.ai/covid/submissions/8fdbca50-c94c-4218-91b0-3b0489774fa8

> <covalent_frag>
FALSE

> <covalent_warhead>
TRUE

> <acrylamide>
FALSE

> <acrylamide_adduct>
FALSE

> <chloroacetamide>
TRUE

> <chloroacetamide_adduct>
FALSE

> <vinylsulfonamide>
FALSE

> <vinylsulfonamide_adduct>
FALSE

> <in_molport_or_mcule>
FALSE

> <in_emolecules>
FALSE

> <Hybrid2>
2.419015

> <Mpro-x0305_dock>
2.419015

> <site>
active-noncovalent

> <covalent_distance_min>
11.351929

> <covalent_distance_mean>
12.607409

> <covalent_distance_stderr>
0.08010088

$$$$
INS-INS-a68-1
  -OEChem-04062011563D

 59 63  0     1  0  0  0  0  0999 V2000
    5.7784   -5.1080   27.4395 C   0  0  0  0  0  0  0  0  0  0  0  0
    7.1576   -5.1823   27.2446 C   0  0  0  0  0  0  0  0  0  0  0  0
    5.1331   -3.8722   27.3933 C   0  0  0  0  0  0  0  0  0  0  0  0
   11.0137   -6.0392   26.8656 C   0  0  0  0  0  0  0  0  0  0  0  0
    8.9564   -3.9095   23.4809 C   0  0  0  0  0  0  0  0  0  0  0  0
    7.7748   -6.0462   23.5021 C   0  0  0  0  0  0  0  0  0  0  0  0
    7.2462   -2.7850   26.9576 C   0  0  0  0  0  0  0  0  0  0  0  0
   11.4547   -7.0762   26.0733 C   0  0  0  0  0  0  0  0  0  0  0  0
    8.8126   -5.2149   23.9632 C   0  0  0  0  0  0  0  0  0  0  0  0
    7.0267   -4.2960   22.0917 C   0  0  0  0  0  0  0  0  0  0  0  0
    7.8915   -4.0209   27.0037 C   0  0  0  0  0  0  0  0  0  0  0  0
   10.0216   -5.2517   26.2132 C   0  0  0  0  0  0  0  0  0  0  0  0
    8.0506   -3.4598   22.5392 C   0  0  0  0  0  0  0  0  0  0  0  0
    5.8670   -2.7107   27.1524 C   0  0  0  0  0  0  0  0  0  0  0  0
    6.8621   -5.5880   22.5509 C   0  0  0  0  0  0  0  0  0  0  0  0
    9.7422   -5.7167   24.9469 C   0  0  0  0  0  0  0  0  0  0  0  0
    6.2318   -3.5568   21.1064 C   0  0  0  0  0  0  0  0  0  0  0  0
    9.3757   -4.1013   26.7935 C   0  0  0  0  0  0  0  0  0  0  0  0
    5.7459   -6.7534   20.7100 C   0  0  0  0  0  0  0  0  0  0  0  0
    7.9696   -2.1341   21.8646 C   0  0  0  0  0  0  0  0  0  0  0  0
    5.2109   -6.6462   24.4680 C   0  0  0  0  0  0  0  0  0  0  0  0
    4.7326   -5.2067   24.6392 C   0  0  0  0  0  0  0  0  0  0  0  0
    3.4747   -6.6118   22.7480 C   0  0  0  0  0  0  0  0  0  0  0  0
    4.9165   -7.0454   23.0178 C   0  0  1  0  0  0  0  0  0  0  0  0
    7.0349   -6.6751   19.9112 C   0  0  0  0  0  0  0  0  0  0  0  0
    5.1771   -1.3892   27.1031 C   0  0  0  0  0  0  0  0  0  0  0  0
    6.8147   -2.3000   21.0026 N   0  0  0  0  0  0  0  0  0  0  0  0
    5.8382   -6.4184   22.0997 N   0  0  0  0  0  0  0  0  0  0  0  0
    5.2597   -3.9889   20.5155 O   0  0  0  0  0  0  0  0  0  0  0  0
   10.0402   -3.1085   27.1499 O   0  0  0  0  0  0  0  0  0  0  0  0
    4.6928   -7.0785   20.1557 O   0  0  0  0  0  0  0  0  0  0  0  0
    2.0988   -5.2134   24.5108 O   0  0  0  0  0  0  0  0  0  0  0  0
    3.4071   -3.9722   22.7269 O   0  0  0  0  0  0  0  0  0  0  0  0
    3.8293   -1.4673   27.3107 F   0  0  0  0  0  0  0  0  0  0  0  0
    5.6303   -0.5009   28.0365 F   0  0  0  0  0  0  0  0  0  0  0  0
    5.3264   -0.7636   25.8993 F   0  0  0  0  0  0  0  0  0  0  0  0
   10.6737   -7.0975   24.5495 S   0  0  0  0  0  0  0  0  0  0  0  0
    3.2533   -5.0801   23.6467 S   0  0  0  0  0  0  0  0  0  0  0  0
    6.9913   -7.8363   18.5677 Cl  0  0  0  0  0  0  0  0  0  0  0  0
    5.2071   -6.0122   27.6282 H   0  0  0  0  0  0  0  0  0  0  0  0
    7.6502   -6.1506   27.2822 H   0  0  0  0  0  0  0  0  0  0  0  0
    4.0581   -3.8238   27.5456 H   0  0  0  0  0  0  0  0  0  0  0  0
   11.3888   -5.8591   27.8652 H   0  0  0  0  0  0  0  0  0  0  0  0
    9.7542   -3.2610   23.8302 H   0  0  0  0  0  0  0  0  0  0  0  0
    7.6814   -7.0596   23.8902 H   0  0  0  0  0  0  0  0  0  0  0  0
    7.8172   -1.8782   26.7710 H   0  0  0  0  0  0  0  0  0  0  0  0
   12.1980   -7.8223   26.3164 H   0  0  0  0  0  0  0  0  0  0  0  0
    7.7713   -1.3197   22.5657 H   0  0  0  0  0  0  0  0  0  0  0  0
    8.8449   -1.9261   21.2444 H   0  0  0  0  0  0  0  0  0  0  0  0
    6.2696   -6.7521   24.7267 H   0  0  0  0  0  0  0  0  0  0  0  0
    4.6438   -7.3008   25.1419 H   0  0  0  0  0  0  0  0  0  0  0  0
    4.5015   -4.9659   25.6789 H   0  0  0  0  0  0  0  0  0  0  0  0
    5.4650   -4.4957   24.2462 H   0  0  0  0  0  0  0  0  0  0  0  0
    3.2533   -6.4581   21.6891 H   0  0  0  0  0  0  0  0  0  0  0  0
    2.7714   -7.3395   23.1653 H   0  0  0  0  0  0  0  0  0  0  0  0
    5.0139   -8.1316   22.8880 H   0  0  0  0  0  0  0  0  0  0  0  0
    7.1520   -5.6727   19.4919 H   0  0  0  0  0  0  0  0  0  0  0  0
    7.8974   -6.9406   20.5271 H   0  0  0  0  0  0  0  0  0  0  0  0
    6.4677   -1.5719   20.3862 H   0  0  0  0  0  0  0  0  0  0  0  0
  1  2  2  0  0  0  0
  1  3  1  0  0  0  0
  2 11  1  0  0  0  0
  3 14  2  0  0  0  0
  4  8  2  0  0  0  0
  4 12  1  0  0  0  0
  5  9  1  0  0  0  0
  5 13  2  0  0  0  0
  6  9  2  0  0  0  0
  6 15  1  0  0  0  0
  7 11  2  0  0  0  0
  7 14  1  0  0  0  0
  8 37  1  0  0  0  0
  9 16  1  0  0  0  0
 10 13  1  0  0  0  0
 10 15  2  0  0  0  0
 10 17  1  0  0  0  0
 11 18  1  0  0  0  0
 12 16  2  0  0  0  0
 12 18  1  0  0  0  0
 13 20  1  0  0  0  0
 14 26  1  0  0  0  0
 15 28  1  0  0  0  0
 16 37  1  0  0  0  0
 17 27  1  0  0  0  0
 17 29  2  0  0  0  0
 18 30  2  0  0  0  0
 19 25  1  0  0  0  0
 19 28  1  0  0  0  0
 19 31  2  0  0  0  0
 20 27  1  0  0  0  0
 21 22  1  0  0  0  0
 21 24  1  0  0  0  0
 22 38  1  0  0  0  0
 23 24  1  0  0  0  0
 23 38  1  0  0  0  0
 24 28  1  0  0  0  0
 25 39  1  0  0  0  0
 26 34  1  0  0  0  0
 26 35  1  0  0  0  0
 26 36  1  0  0  0  0
 32 38  2  0  0  0  0
 33 38  2  0  0  0  0
  1 40  1  0  0  0  0
  2 41  1  0  0  0  0
  3 42  1  0  0  0  0
  4 43  1  0  0  0  0
  5 44  1  0  0  0  0
  6 45  1  0  0  0  0
  7 46  1  0  0  0  0
  8 47  1  0  0  0  0
 20 48  1  0  0  0  0
 20 49  1  0  0  0  0
 21 50  1  0  0  0  0
 21 51  1  0  0  0  0
 22 52  1  0  0  0  0
 22 53  1  0  0  0  0
 23 54  1  0  0  0  0
 23 55  1  0  0  0  0
 24 56  1  0  0  0  0
 25 57  1  0  0  0  0
 25 58  1  0  0  0  0
 27 59  1  0  0  0  0
M  END
> <creator>
INSCoV_5RFG_5520, Insilico Medicine Hong Kong Ltd

> <fragments>
x1311

> <real_space>
FALSE

> <SCR>
FALSE

> <BB>
FALSE

> <link>
https://covid.postera.ai/covid/submissions/a68edfff-dd12-4159-a936-4a648e826fe1

> <covalent_frag>
TRUE

> <covalent_warhead>
TRUE

> <acrylamide>
FALSE

> <acrylamide_adduct>
FALSE

> <chloroacetamide>
TRUE

> <chloroacetamide_adduct>
FALSE

> <vinylsulfonamide>
FALSE

> <vinylsulfonamide_adduct>
FALSE

> <in_molport_or_mcule>
FALSE

> <in_emolecules>
FALSE

> <Hybrid2>
2.477818

> <Mpro-x1311_dock>
2.477818

> <site>
active-covalent

> <covalent_distance_min>
3.067365

> <covalent_distance_mean>
3.6095178

> <covalent_distance_stderr>
0.03567999

$$$$
MAK-UNK-702-8
  -OEChem-04062011563D

 71 76  0     1  0  0  0  0  0999 V2000
    5.2432   -0.5015   19.5613 C   0  0  0  0  0  0  0  0  0  0  0  0
    8.0305   -6.9962   27.2123 C   0  0  0  0  0  0  0  0  0  0  0  0
    5.6472   -0.5084   20.8963 C   0  0  0  0  0  0  0  0  0  0  0  0
    6.1093   -0.0340   18.5729 C   0  0  0  0  0  0  0  0  0  0  0  0
    7.5851   -7.1900   28.5198 C   0  0  0  0  0  0  0  0  0  0  0  0
   10.9246   -1.8802   22.5352 C   0  0  0  0  0  0  0  0  0  0  0  0
    5.9711   -5.3160   23.2554 C   0  0  0  0  0  0  0  0  0  0  0  0
    8.3888   -5.7194   26.7796 C   0  0  0  0  0  0  0  0  0  0  0  0
    6.9173   -0.0478   21.2430 C   0  0  0  0  0  0  0  0  0  0  0  0
    7.3795    0.4266   18.9195 C   0  0  0  0  0  0  0  0  0  0  0  0
   10.3286   -1.1446   21.5118 C   0  0  0  0  0  0  0  0  0  0  0  0
   11.0183   -1.3414   23.8151 C   0  0  0  0  0  0  0  0  0  0  0  0
    7.4979   -6.1072   29.3947 C   0  0  0  0  0  0  0  0  0  0  0  0
    6.0791   -4.7874   24.5368 C   0  0  0  0  0  0  0  0  0  0  0  0
    9.9081   -2.7048   27.2501 C   0  0  0  0  0  0  0  0  0  0  0  0
    5.8258   -4.4313   22.1990 C   0  0  0  0  0  0  0  0  0  0  0  0
    5.8909   -2.6103   23.5982 C   0  0  0  0  0  0  0  0  0  0  0  0
    8.4483   -1.2731   26.3072 C   0  0  0  0  0  0  0  0  0  0  0  0
    8.3016   -4.6365   27.6545 C   0  0  0  0  0  0  0  0  0  0  0  0
    7.7835    0.4197   20.2546 C   0  0  0  0  0  0  0  0  0  0  0  0
    9.8191    0.1403   21.7591 C   0  0  0  0  0  0  0  0  0  0  0  0
    9.9051    0.6817   23.0552 C   0  0  0  0  0  0  0  0  0  0  0  0
    9.7655   -1.4137   26.6847 C   0  0  0  0  0  0  0  0  0  0  0  0
   10.5131   -0.0676   24.0740 C   0  0  0  0  0  0  0  0  0  0  0  0
    7.8561   -4.8304   28.9620 C   0  0  0  0  0  0  0  0  0  0  0  0
    6.0391   -3.4097   24.7202 C   0  0  0  0  0  0  0  0  0  0  0  0
    8.6737   -3.3140   27.2008 C   0  0  0  0  0  0  0  0  0  0  0  0
    7.6278    3.6408   22.4500 C   0  0  0  0  0  0  0  0  0  0  0  0
    9.3698    2.0547   23.3832 C   0  0  0  0  0  0  0  0  0  0  0  0
    9.1615    2.4295   20.9381 C   0  0  0  0  0  0  0  0  0  0  0  0
    9.1707    0.9231   20.6325 C   0  0  2  0  0  0  0  0  0  0  0  0
   10.8491   -0.3867   26.5257 C   0  0  0  0  0  0  0  0  0  0  0  0
    7.2577    3.9789   23.8728 C   0  0  0  0  0  0  0  0  0  0  0  0
    5.7828   -3.0873   22.3379 N   0  0  0  0  0  0  0  0  0  0  0  0
    7.7941   -2.4346   26.6254 N   0  0  0  0  0  0  0  0  0  0  0  0
    8.6496    2.7038   22.2801 N   0  0  0  0  0  0  0  0  0  0  0  0
   10.6324    0.4467   25.3870 N   0  0  0  0  0  0  0  0  0  0  0  0
    7.0240    4.1850   21.5224 O   0  0  0  0  0  0  0  0  0  0  0  0
    5.5617   -1.3703   26.3126 O   0  0  0  0  0  0  0  0  0  0  0  0
    5.6995   -3.7215   27.2746 O   0  0  0  0  0  0  0  0  0  0  0  0
    7.7668   -3.7996   29.8154 F   0  0  0  0  0  0  0  0  0  0  0  0
    6.1737   -2.6983   26.3399 S   0  0  0  0  0  0  0  0  0  0  0  0
    5.9693    2.8722   24.3336 Cl  0  0  0  0  0  0  0  0  0  0  0  0
    4.2546   -0.8614   19.2914 H   0  0  0  0  0  0  0  0  0  0  0  0
    8.0987   -7.8396   26.5314 H   0  0  0  0  0  0  0  0  0  0  0  0
    4.9733   -0.8734   21.6659 H   0  0  0  0  0  0  0  0  0  0  0  0
    5.7955   -0.0295   17.5333 H   0  0  0  0  0  0  0  0  0  0  0  0
    7.3066   -8.1842   28.8569 H   0  0  0  0  0  0  0  0  0  0  0  0
   11.3172   -2.8724   22.3328 H   0  0  0  0  0  0  0  0  0  0  0  0
    5.9998   -6.3867   23.0887 H   0  0  0  0  0  0  0  0  0  0  0  0
    8.7341   -5.5849   25.7573 H   0  0  0  0  0  0  0  0  0  0  0  0
    7.2235   -0.0567   22.2858 H   0  0  0  0  0  0  0  0  0  0  0  0
    8.0475    0.7891   18.1427 H   0  0  0  0  0  0  0  0  0  0  0  0
   10.2650   -1.5778   20.5166 H   0  0  0  0  0  0  0  0  0  0  0  0
   11.4880   -1.9229   24.6044 H   0  0  0  0  0  0  0  0  0  0  0  0
    7.1515   -6.2581   30.4129 H   0  0  0  0  0  0  0  0  0  0  0  0
    6.1940   -5.4567   25.3849 H   0  0  0  0  0  0  0  0  0  0  0  0
   10.8143   -3.1407   27.6497 H   0  0  0  0  0  0  0  0  0  0  0  0
    5.7374   -4.7931   21.1799 H   0  0  0  0  0  0  0  0  0  0  0  0
    5.8530   -1.5283   23.6779 H   0  0  0  0  0  0  0  0  0  0  0  0
    7.9270   -0.4471   25.8411 H   0  0  0  0  0  0  0  0  0  0  0  0
    8.7048    1.9779   24.2479 H   0  0  0  0  0  0  0  0  0  0  0  0
   10.2034    2.7190   23.6408 H   0  0  0  0  0  0  0  0  0  0  0  0
   10.1852    2.8257   20.9094 H   0  0  0  0  0  0  0  0  0  0  0  0
    8.5880    2.9756   20.1805 H   0  0  0  0  0  0  0  0  0  0  0  0
    9.8075    0.7913   19.7162 H   0  0  0  0  0  0  0  0  0  0  0  0
   10.9031    0.2577   27.4099 H   0  0  0  0  0  0  0  0  0  0  0  0
   11.8283   -0.8633   26.4103 H   0  0  0  0  0  0  0  0  0  0  0  0
    6.9011    5.0016   23.9086 H   0  0  0  0  0  0  0  0  0  0  0  0
    8.1240    3.8269   24.5058 H   0  0  0  0  0  0  0  0  0  0  0  0
   10.5562    1.4388   25.4899 H   0  0  0  0  0  0  0  0  0  0  0  0
  1  3  1  0  0  0  0
  1  4  2  0  0  0  0
  2  5  1  0  0  0  0
  2  8  2  0  0  0  0
  3  9  2  0  0  0  0
  4 10  1  0  0  0  0
  5 13  2  0  0  0  0
  6 11  2  0  0  0  0
  6 12  1  0  0  0  0
  7 14  2  0  0  0  0
  7 16  1  0  0  0  0
  8 19  1  0  0  0  0
  9 20  1  0  0  0  0
 10 20  2  0  0  0  0
 11 21  1  0  0  0  0
 12 24  2  0  0  0  0
 13 25  1  0  0  0  0
 14 26  1  0  0  0  0
 15 23  1  0  0  0  0
 15 27  2  0  0  0  0
 16 34  2  0  0  0  0
 17 26  2  0  0  0  0
 17 34  1  0  0  0  0
 18 23  2  0  0  0  0
 18 35  1  0  0  0  0
 19 25  2  0  0  0  0
 19 27  1  0  0  0  0
 20 31  1  0  0  0  0
 21 22  2  0  0  0  0
 21 31  1  0  0  0  0
 22 24  1  0  0  0  0
 22 29  1  0  0  0  0
 23 32  1  0  0  0  0
 24 37  1  0  0  0  0
 25 41  1  0  0  0  0
 26 42  1  0  0  0  0
 27 35  1  0  0  0  0
 28 33  1  0  0  0  0
 28 36  1  0  0  0  0
 28 38  2  0  0  0  0
 29 36  1  0  0  0  0
 30 31  1  0  0  0  0
 30 36  1  0  0  0  0
 32 37  1  0  0  0  0
 33 43  1  0  0  0  0
 35 42  1  0  0  0  0
 39 42  2  0  0  0  0
 40 42  2  0  0  0  0
  1 44  1  0  0  0  0
  2 45  1  0  0  0  0
  3 46  1  0  0  0  0
  4 47  1  0  0  0  0
  5 48  1  0  0  0  0
  6 49  1  0  0  0  0
  7 50  1  0  0  0  0
  8 51  1  0  0  0  0
  9 52  1  0  0  0  0
 10 53  1  0  0  0  0
 11 54  1  0  0  0  0
 12 55  1  0  0  0  0
 13 56  1  0  0  0  0
 14 57  1  0  0  0  0
 15 58  1  0  0  0  0
 16 59  1  0  0  0  0
 17 60  1  0  0  0  0
 18 61  1  0  0  0  0
 29 62  1  0  0  0  0
 29 63  1  0  0  0  0
 30 64  1  0  0  0  0
 30 65  1  0  0  0  0
 31 66  1  0  0  0  0
 32 67  1  0  0  0  0
 32 68  1  0  0  0  0
 33 69  1  0  0  0  0
 33 70  1  0  0  0  0
 37 71  1  0  0  0  0
M  END
> <creator>
Maksym Voznyy

> <fragments>
x0387

> <real_space>
FALSE

> <SCR>
FALSE

> <BB>
FALSE

> <link>
https://covid.postera.ai/covid/submissions/702fb7d3-1941-4d37-9e1c-6a10ebd67f09

> <covalent_frag>
FALSE

> <covalent_warhead>
TRUE

> <acrylamide>
FALSE

> <acrylamide_adduct>
FALSE

> <chloroacetamide>
TRUE

> <chloroacetamide_adduct>
FALSE

> <vinylsulfonamide>
FALSE

> <vinylsulfonamide_adduct>
FALSE

> <in_molport_or_mcule>
FALSE

> <in_emolecules>
FALSE

> <Hybrid2>
2.560536

> <Mpro-x0387_dock>
2.560536

> <site>
active-noncovalent

> <covalent_distance_min>
9.227091

> <covalent_distance_mean>
9.78693

> <covalent_distance_stderr>
0.06850791

$$$$
MAK-UNK-8fd-24
  -OEChem-04062011563D

 75 78  0     0  0  0  0  0  0999 V2000
   10.2618   -2.6696   21.4014 C   0  0  0  0  0  0  0  0  0  0  0  0
   11.3974   -3.4519   21.1912 C   0  0  0  0  0  0  0  0  0  0  0  0
    7.8040   -1.4550   25.2234 C   0  0  0  0  0  0  0  0  0  0  0  0
   10.3921   -1.3642   21.8754 C   0  0  0  0  0  0  0  0  0  0  0  0
    7.1988   -0.5797   26.1252 C   0  0  0  0  0  0  0  0  0  0  0  0
   12.6632   -2.9287   21.4551 C   0  0  0  0  0  0  0  0  0  0  0  0
    9.1716   -1.3564   24.9668 C   0  0  0  0  0  0  0  0  0  0  0  0
   11.9263    1.6792   21.9113 C   0  0  0  0  0  0  0  0  0  0  0  0
    9.3286    0.4928   26.5136 C   0  0  0  0  0  0  0  0  0  0  0  0
   11.9299    2.1952   24.1031 C   0  0  0  0  0  0  0  0  0  0  0  0
   11.6579   -0.8411   22.1393 C   0  0  0  0  0  0  0  0  0  0  0  0
   12.0161    2.7433   22.8423 C   0  0  0  0  0  0  0  0  0  0  0  0
    7.9611    0.3942   26.7703 C   0  0  0  0  0  0  0  0  0  0  0  0
   12.7935   -1.6233   21.9291 C   0  0  0  0  0  0  0  0  0  0  0  0
    9.9338   -0.3825   25.6118 C   0  0  0  0  0  0  0  0  0  0  0  0
   11.7878    0.5132   22.6315 C   0  0  0  0  0  0  0  0  0  0  0  0
    6.7901    2.5333   27.2847 C   0  0  0  0  0  0  0  0  0  0  0  0
    7.2894    6.9609   24.7934 C   0  0  0  0  0  0  0  0  0  0  0  0
    5.8615    3.7443   25.3194 C   0  0  0  0  0  0  0  0  0  0  0  0
    8.3742    3.6292   25.6881 C   0  0  0  0  0  0  0  0  0  0  0  0
    5.8977    5.1889   25.8150 C   0  0  0  0  0  0  0  0  0  0  0  0
    8.3350    5.0850   26.1549 C   0  0  0  0  0  0  0  0  0  0  0  0
    7.0311    2.9105   25.8520 C   0  0  0  0  0  0  0  0  0  0  0  0
    8.5914    0.5685   29.6620 C   0  0  0  0  0  0  0  0  0  0  0  0
    6.3399   -0.4191   29.1133 C   0  0  0  0  0  0  0  0  0  0  0  0
   13.7238    5.9984   21.8082 C   0  0  0  0  0  0  0  0  0  0  0  0
   12.1731    4.1751   22.5222 C   0  0  0  0  0  0  0  0  0  0  0  0
    8.6722    7.5184   24.5674 C   0  0  0  0  0  0  0  0  0  0  0  0
    7.2041    0.8332   29.0953 C   0  0  0  0  0  0  0  0  0  0  0  0
   11.7910    0.8390   23.9627 N   0  0  0  0  0  0  0  0  0  0  0  0
    7.2025    5.7945   25.5524 N   0  0  0  0  0  0  0  0  0  0  0  0
    7.3324    1.3034   27.7073 N   0  0  0  0  0  0  0  0  0  0  0  0
   13.5502    4.5495   22.0754 N   0  3  0  0  0  0  0  0  0  0  0  0
    6.1699    3.3296   27.9939 O   0  0  0  0  0  0  0  0  0  0  0  0
    6.3173    7.5448   24.3074 O   0  0  0  0  0  0  0  0  0  0  0  0
   12.3135    0.4467   26.3683 O   0  0  0  0  0  0  0  0  0  0  0  0
   12.1077   -1.5424   24.7955 O   0  0  0  0  0  0  0  0  0  0  0  0
   14.0176   -1.1351   22.1778 F   0  0  0  0  0  0  0  0  0  0  0  0
   11.6452   -0.2590   25.2896 S   0  0  0  0  0  0  0  0  0  0  0  0
    8.4799    8.9499   23.5616 Cl  0  0  0  0  0  0  0  0  0  0  0  0
    9.2762   -3.0770   21.1955 H   0  0  0  0  0  0  0  0  0  0  0  0
   11.2960   -4.4681   20.8216 H   0  0  0  0  0  0  0  0  0  0  0  0
    7.2109   -2.2137   24.7214 H   0  0  0  0  0  0  0  0  0  0  0  0
    9.4970   -0.7673   22.0341 H   0  0  0  0  0  0  0  0  0  0  0  0
    6.1324   -0.6665   26.3177 H   0  0  0  0  0  0  0  0  0  0  0  0
   13.5474   -3.5376   21.2910 H   0  0  0  0  0  0  0  0  0  0  0  0
    9.6330   -2.0430   24.2621 H   0  0  0  0  0  0  0  0  0  0  0  0
   11.9596    1.7575   20.8326 H   0  0  0  0  0  0  0  0  0  0  0  0
    9.9237    1.2520   27.0164 H   0  0  0  0  0  0  0  0  0  0  0  0
   11.9556    2.6565   25.0817 H   0  0  0  0  0  0  0  0  0  0  0  0
    4.9055    3.2893   25.6055 H   0  0  0  0  0  0  0  0  0  0  0  0
    5.8964    3.7466   24.2223 H   0  0  0  0  0  0  0  0  0  0  0  0
    8.6585    3.6096   24.6281 H   0  0  0  0  0  0  0  0  0  0  0  0
    9.1602    3.0967   26.2372 H   0  0  0  0  0  0  0  0  0  0  0  0
    5.0977    5.7614   25.3349 H   0  0  0  0  0  0  0  0  0  0  0  0
    5.7244    5.2345   26.8965 H   0  0  0  0  0  0  0  0  0  0  0  0
    8.2107    5.1410   27.2424 H   0  0  0  0  0  0  0  0  0  0  0  0
    9.2885    5.5623   25.9214 H   0  0  0  0  0  0  0  0  0  0  0  0
    7.0667    1.9635   25.2990 H   0  0  0  0  0  0  0  0  0  0  0  0
    9.1003   -0.2186   29.0960 H   0  0  0  0  0  0  0  0  0  0  0  0
    9.2149    1.4691   29.6305 H   0  0  0  0  0  0  0  0  0  0  0  0
    8.5293    0.2479   30.7078 H   0  0  0  0  0  0  0  0  0  0  0  0
    6.8103   -1.2238   28.5376 H   0  0  0  0  0  0  0  0  0  0  0  0
    5.3559   -0.2201   28.6762 H   0  0  0  0  0  0  0  0  0  0  0  0
    6.1914   -0.7885   30.1342 H   0  0  0  0  0  0  0  0  0  0  0  0
   13.4752    6.5388   22.7234 H   0  0  0  0  0  0  0  0  0  0  0  0
   14.7650    6.1636   21.5251 H   0  0  0  0  0  0  0  0  0  0  0  0
   13.0480    6.2715   20.9954 H   0  0  0  0  0  0  0  0  0  0  0  0
   11.4997    4.5009   21.7097 H   0  0  0  0  0  0  0  0  0  0  0  0
   11.9559    4.8256   23.3880 H   0  0  0  0  0  0  0  0  0  0  0  0
    9.2697    6.7770   24.0494 H   0  0  0  0  0  0  0  0  0  0  0  0
    9.1019    7.7907   25.5246 H   0  0  0  0  0  0  0  0  0  0  0  0
    6.7147    1.6226   29.6760 H   0  0  0  0  0  0  0  0  0  0  0  0
   13.7778    4.0147   21.2292 H   0  0  0  0  0  0  0  0  0  0  0  0
   14.2212    4.2500   22.7922 H   0  0  0  0  0  0  0  0  0  0  0  0
  1  2  1  0  0  0  0
  1  4  2  0  0  0  0
  2  6  2  0  0  0  0
  3  5  1  0  0  0  0
  3  7  2  0  0  0  0
  4 11  1  0  0  0  0
  5 13  2  0  0  0  0
  6 14  1  0  0  0  0
  7 15  1  0  0  0  0
  8 12  1  0  0  0  0
  8 16  2  0  0  0  0
  9 13  1  0  0  0  0
  9 15  2  0  0  0  0
 10 12  2  0  0  0  0
 10 30  1  0  0  0  0
 11 14  2  0  0  0  0
 11 16  1  0  0  0  0
 12 27  1  0  0  0  0
 13 32  1  0  0  0  0
 14 38  1  0  0  0  0
 15 39  1  0  0  0  0
 16 30  1  0  0  0  0
 17 23  1  0  0  0  0
 17 32  1  0  0  0  0
 17 34  2  0  0  0  0
 18 28  1  0  0  0  0
 18 31  1  0  0  0  0
 18 35  2  0  0  0  0
 19 21  1  0  0  0  0
 19 23  1  0  0  0  0
 20 22  1  0  0  0  0
 20 23  1  0  0  0  0
 21 31  1  0  0  0  0
 22 31  1  0  0  0  0
 24 29  1  0  0  0  0
 25 29  1  0  0  0  0
 26 33  1  0  0  0  0
 27 33  1  0  0  0  0
 28 40  1  0  0  0  0
 29 32  1  0  0  0  0
 30 39  1  0  0  0  0
 36 39  2  0  0  0  0
 37 39  2  0  0  0  0
  1 41  1  0  0  0  0
  2 42  1  0  0  0  0
  3 43  1  0  0  0  0
  4 44  1  0  0  0  0
  5 45  1  0  0  0  0
  6 46  1  0  0  0  0
  7 47  1  0  0  0  0
  8 48  1  0  0  0  0
  9 49  1  0  0  0  0
 10 50  1  0  0  0  0
 19 51  1  0  0  0  0
 19 52  1  0  0  0  0
 20 53  1  0  0  0  0
 20 54  1  0  0  0  0
 21 55  1  0  0  0  0
 21 56  1  0  0  0  0
 22 57  1  0  0  0  0
 22 58  1  0  0  0  0
 23 59  1  0  0  0  0
 24 60  1  0  0  0  0
 24 61  1  0  0  0  0
 24 62  1  0  0  0  0
 25 63  1  0  0  0  0
 25 64  1  0  0  0  0
 25 65  1  0  0  0  0
 26 66  1  0  0  0  0
 26 67  1  0  0  0  0
 26 68  1  0  0  0  0
 27 69  1  0  0  0  0
 27 70  1  0  0  0  0
 28 71  1  0  0  0  0
 28 72  1  0  0  0  0
 29 73  1  0  0  0  0
 33 74  1  0  0  0  0
 33 75  1  0  0  0  0
M  CHG  1  33   1
M  END
> <creator>
Maksym Voznyy

> <fragments>
x0305

> <real_space>
FALSE

> <SCR>
FALSE

> <BB>
FALSE

> <link>
https://covid.postera.ai/covid/submissions/8fdbca50-c94c-4218-91b0-3b0489774fa8

> <covalent_frag>
FALSE

> <covalent_warhead>
TRUE

> <acrylamide>
FALSE

> <acrylamide_adduct>
FALSE

> <chloroacetamide>
TRUE

> <chloroacetamide_adduct>
FALSE

> <vinylsulfonamide>
FALSE

> <vinylsulfonamide_adduct>
FALSE

> <in_molport_or_mcule>
FALSE

> <in_emolecules>
FALSE

> <Hybrid2>
2.566427

> <Mpro-x0305_dock>
2.566427

> <site>
active-noncovalent

> <covalent_distance_min>
10.171643

> <covalent_distance_mean>
11.20385

> <covalent_distance_stderr>
0.06850633

$$$$
MAK-UNK-8fd-41
  -OEChem-04062011563D

 74 77  0     0  0  0  0  0  0999 V2000
   15.1438   -0.4779   22.9804 C   0  0  0  0  0  0  0  0  0  0  0  0
   15.1631   -1.3427   21.8862 C   0  0  0  0  0  0  0  0  0  0  0  0
   12.3473    5.1327   23.9869 C   0  0  0  0  0  0  0  0  0  0  0  0
   13.9346   -0.1664   23.6020 C   0  0  0  0  0  0  0  0  0  0  0  0
   13.9731   -1.8960   21.4135 C   0  0  0  0  0  0  0  0  0  0  0  0
   12.3086    3.8697   23.4065 C   0  0  0  0  0  0  0  0  0  0  0  0
   10.8751   -1.0370   24.8265 C   0  0  0  0  0  0  0  0  0  0  0  0
   11.1612    5.8437   24.0726 C   0  0  0  0  0  0  0  0  0  0  0  0
    9.9715    4.1537   23.0692 C   0  0  0  0  0  0  0  0  0  0  0  0
    9.5916    0.7077   24.2113 C   0  0  0  0  0  0  0  0  0  0  0  0
   12.7446   -0.7198   23.1294 C   0  0  0  0  0  0  0  0  0  0  0  0
    9.6724   -0.3405   25.1013 C   0  0  0  0  0  0  0  0  0  0  0  0
   12.7638   -1.5846   22.0351 C   0  0  0  0  0  0  0  0  0  0  0  0
   11.1019    3.3636   22.9363 C   0  0  0  0  0  0  0  0  0  0  0  0
   11.4928   -0.3931   23.7771 C   0  0  0  0  0  0  0  0  0  0  0  0
    6.1303   -1.7857   27.7439 C   0  0  0  0  0  0  0  0  0  0  0  0
    4.0638   -5.1277   24.4851 C   0  0  0  0  0  0  0  0  0  0  0  0
    4.6326   -1.8539   25.7581 C   0  0  0  0  0  0  0  0  0  0  0  0
    4.2787   -3.4674   27.6905 C   0  0  0  0  0  0  0  0  0  0  0  0
    5.2437   -3.0064   24.9633 C   0  0  0  0  0  0  0  0  0  0  0  0
    4.8843   -4.5753   26.8277 C   0  0  0  0  0  0  0  0  0  0  0  0
    4.7331   -2.0654   27.2721 C   0  0  0  0  0  0  0  0  0  0  0  0
    8.4676   -1.2440   29.2807 C   0  0  0  0  0  0  0  0  0  0  0  0
    7.8660    1.1652   29.4542 C   0  0  0  0  0  0  0  0  0  0  0  0
    5.4409    0.6121   27.9489 C   0  0  0  0  0  0  0  0  0  0  0  0
    8.6704   -0.6805   26.1649 C   0  0  0  0  0  0  0  0  0  0  0  0
    3.5227   -6.4292   25.0209 C   0  0  0  0  0  0  0  0  0  0  0  0
    7.8162   -0.0678   28.5259 C   0  0  0  0  0  0  0  0  0  0  0  0
    9.9701    5.3852   23.6271 N   0  0  0  0  0  0  0  0  0  0  0  0
   10.7037    0.6660   23.4114 N   0  0  0  0  0  0  0  0  0  0  0  0
    4.6940   -4.2882   25.4027 N   0  0  0  0  0  0  0  0  0  0  0  0
    6.4448   -0.4510   28.0615 N   0  0  0  0  0  0  0  0  0  0  0  0
    8.7263    0.2410   27.3368 N   0  3  0  0  0  0  0  0  0  0  0  0
    6.9267   -2.7257   27.8169 O   0  0  0  0  0  0  0  0  0  0  0  0
    3.9277   -4.8660   23.2871 O   0  0  0  0  0  0  0  0  0  0  0  0
    9.8357    1.7150   21.3233 O   0  0  0  0  0  0  0  0  0  0  0  0
   12.3478    1.4830   21.6523 O   0  0  0  0  0  0  0  0  0  0  0  0
   11.6284   -2.1250   21.5687 F   0  0  0  0  0  0  0  0  0  0  0  0
   11.0130    1.7565   22.1900 S   0  0  0  0  0  0  0  0  0  0  0  0
    4.8048   -7.6211   24.8383 Cl  0  0  0  0  0  0  0  0  0  0  0  0
   16.0706   -0.0474   23.3485 H   0  0  0  0  0  0  0  0  0  0  0  0
   16.1047   -1.5856   21.4024 H   0  0  0  0  0  0  0  0  0  0  0  0
   13.2766    5.5474   24.3603 H   0  0  0  0  0  0  0  0  0  0  0  0
   13.9365    0.5094   24.4540 H   0  0  0  0  0  0  0  0  0  0  0  0
   13.9881   -2.5697   20.5618 H   0  0  0  0  0  0  0  0  0  0  0  0
   13.2230    3.2887   23.3255 H   0  0  0  0  0  0  0  0  0  0  0  0
   11.2480   -1.9134   25.3400 H   0  0  0  0  0  0  0  0  0  0  0  0
   11.1380    6.8335   24.5166 H   0  0  0  0  0  0  0  0  0  0  0  0
    9.0013    3.8128   22.7212 H   0  0  0  0  0  0  0  0  0  0  0  0
    8.8388    1.4746   24.0831 H   0  0  0  0  0  0  0  0  0  0  0  0
    5.1202   -0.9163   25.4671 H   0  0  0  0  0  0  0  0  0  0  0  0
    3.5736   -1.7600   25.4874 H   0  0  0  0  0  0  0  0  0  0  0  0
    3.1858   -3.5174   27.6083 H   0  0  0  0  0  0  0  0  0  0  0  0
    4.5279   -3.6527   28.7417 H   0  0  0  0  0  0  0  0  0  0  0  0
    5.0645   -2.8505   23.8947 H   0  0  0  0  0  0  0  0  0  0  0  0
    6.3297   -3.0465   25.1069 H   0  0  0  0  0  0  0  0  0  0  0  0
    5.9636   -4.6561   27.0003 H   0  0  0  0  0  0  0  0  0  0  0  0
    4.4464   -5.5332   27.1145 H   0  0  0  0  0  0  0  0  0  0  0  0
    4.1009   -1.3228   27.7736 H   0  0  0  0  0  0  0  0  0  0  0  0
    8.4588   -2.1500   28.6636 H   0  0  0  0  0  0  0  0  0  0  0  0
    9.5105   -1.0452   29.5469 H   0  0  0  0  0  0  0  0  0  0  0  0
    7.9326   -1.4681   30.2109 H   0  0  0  0  0  0  0  0  0  0  0  0
    7.4163    2.0427   28.9762 H   0  0  0  0  0  0  0  0  0  0  0  0
    8.8898    1.4344   29.7325 H   0  0  0  0  0  0  0  0  0  0  0  0
    7.3092    0.9869   30.3820 H   0  0  0  0  0  0  0  0  0  0  0  0
    4.9032    0.7120   28.9034 H   0  0  0  0  0  0  0  0  0  0  0  0
    5.9391    1.5627   27.7077 H   0  0  0  0  0  0  0  0  0  0  0  0
    4.7272    0.3594   27.1509 H   0  0  0  0  0  0  0  0  0  0  0  0
    7.6478   -0.6324   25.7754 H   0  0  0  0  0  0  0  0  0  0  0  0
    8.8327   -1.6922   26.5522 H   0  0  0  0  0  0  0  0  0  0  0  0
    2.6588   -6.7190   24.4336 H   0  0  0  0  0  0  0  0  0  0  0  0
    3.2781   -6.3030   26.0693 H   0  0  0  0  0  0  0  0  0  0  0  0
    8.5342    1.1971   27.0059 H   0  0  0  0  0  0  0  0  0  0  0  0
    9.6985    0.2651   27.6734 H   0  0  0  0  0  0  0  0  0  0  0  0
  1  2  1  0  0  0  0
  1  4  2  0  0  0  0
  2  5  2  0  0  0  0
  3  6  2  0  0  0  0
  3  8  1  0  0  0  0
  4 11  1  0  0  0  0
  5 13  1  0  0  0  0
  6 14  1  0  0  0  0
  7 12  1  0  0  0  0
  7 15  2  0  0  0  0
  8 29  2  0  0  0  0
  9 14  2  0  0  0  0
  9 29  1  0  0  0  0
 10 12  2  0  0  0  0
 10 30  1  0  0  0  0
 11 13  2  0  0  0  0
 11 15  1  0  0  0  0
 12 26  1  0  0  0  0
 13 38  1  0  0  0  0
 14 39  1  0  0  0  0
 15 30  1  0  0  0  0
 16 22  1  0  0  0  0
 16 32  1  0  0  0  0
 16 34  2  0  0  0  0
 17 27  1  0  0  0  0
 17 31  1  0  0  0  0
 17 35  2  0  0  0  0
 18 20  1  0  0  0  0
 18 22  1  0  0  0  0
 19 21  1  0  0  0  0
 19 22  1  0  0  0  0
 20 31  1  0  0  0  0
 21 31  1  0  0  0  0
 23 28  1  0  0  0  0
 24 28  1  0  0  0  0
 25 32  1  0  0  0  0
 26 33  1  0  0  0  0
 27 40  1  0  0  0  0
 28 32  1  0  0  0  0
 28 33  1  0  0  0  0
 30 39  1  0  0  0  0
 36 39  2  0  0  0  0
 37 39  2  0  0  0  0
  1 41  1  0  0  0  0
  2 42  1  0  0  0  0
  3 43  1  0  0  0  0
  4 44  1  0  0  0  0
  5 45  1  0  0  0  0
  6 46  1  0  0  0  0
  7 47  1  0  0  0  0
  8 48  1  0  0  0  0
  9 49  1  0  0  0  0
 10 50  1  0  0  0  0
 18 51  1  0  0  0  0
 18 52  1  0  0  0  0
 19 53  1  0  0  0  0
 19 54  1  0  0  0  0
 20 55  1  0  0  0  0
 20 56  1  0  0  0  0
 21 57  1  0  0  0  0
 21 58  1  0  0  0  0
 22 59  1  0  0  0  0
 23 60  1  0  0  0  0
 23 61  1  0  0  0  0
 23 62  1  0  0  0  0
 24 63  1  0  0  0  0
 24 64  1  0  0  0  0
 24 65  1  0  0  0  0
 25 66  1  0  0  0  0
 25 67  1  0  0  0  0
 25 68  1  0  0  0  0
 26 69  1  0  0  0  0
 26 70  1  0  0  0  0
 27 71  1  0  0  0  0
 27 72  1  0  0  0  0
 33 73  1  0  0  0  0
 33 74  1  0  0  0  0
M  CHG  1  33   1
M  END
> <creator>
Maksym Voznyy

> <fragments>
x0305

> <real_space>
FALSE

> <SCR>
FALSE

> <BB>
FALSE

> <link>
https://covid.postera.ai/covid/submissions/8fdbca50-c94c-4218-91b0-3b0489774fa8

> <covalent_frag>
FALSE

> <covalent_warhead>
TRUE

> <acrylamide>
FALSE

> <acrylamide_adduct>
FALSE

> <chloroacetamide>
TRUE

> <chloroacetamide_adduct>
FALSE

> <vinylsulfonamide>
FALSE

> <vinylsulfonamide_adduct>
FALSE

> <in_molport_or_mcule>
FALSE

> <in_emolecules>
FALSE

> <Hybrid2>
2.606719

> <Mpro-x0305_dock>
2.606719

> <site>
active-noncovalent

> <covalent_distance_min>
3.2643433

> <covalent_distance_mean>
3.9122283

> <covalent_distance_stderr>
0.05010096

$$$$
JUA-UNI-bc0-5
  -OEChem-04062011563D

 53 55  0     0  0  0  0  0  0999 V2000
    6.6316    0.7428   18.8549 C   0  0  0  0  0  0  0  0  0  0  0  0
    6.7921   -0.6135   18.5717 C   0  0  0  0  0  0  0  0  0  0  0  0
    7.4878    1.3727   19.7582 C   0  0  0  0  0  0  0  0  0  0  0  0
    7.1428   -0.2067   24.4978 C   0  0  0  0  0  0  0  0  0  0  0  0
    8.0381    0.7721   24.9145 C   0  0  0  0  0  0  0  0  0  0  0  0
   15.0506   -1.2010   22.1999 C   0  0  0  0  0  0  0  0  0  0  0  0
    7.8086   -1.3400   19.1918 C   0  0  0  0  0  0  0  0  0  0  0  0
    8.5043    0.6463   20.3783 C   0  0  0  0  0  0  0  0  0  0  0  0
   16.0964   -0.4424   22.7258 C   0  0  0  0  0  0  0  0  0  0  0  0
    7.5502   -1.1680   23.5795 C   0  0  0  0  0  0  0  0  0  0  0  0
   13.5352   -0.2289   23.8110 C   0  0  0  0  0  0  0  0  0  0  0  0
    9.3191    0.7461   24.3872 C   0  0  0  0  0  0  0  0  0  0  0  0
   13.7700   -1.0942   22.7425 C   0  0  0  0  0  0  0  0  0  0  0  0
    8.6648   -0.7101   20.0951 C   0  0  0  0  0  0  0  0  0  0  0  0
   14.5810    0.5296   24.3370 C   0  0  0  0  0  0  0  0  0  0  0  0
   15.8616    0.4229   23.7943 C   0  0  0  0  0  0  0  0  0  0  0  0
    8.8530   -1.1071   23.1118 C   0  0  0  0  0  0  0  0  0  0  0  0
   13.5922    2.3282   28.1126 C   0  0  0  0  0  0  0  0  0  0  0  0
   13.2792    2.8950   26.9431 C   0  0  0  0  0  0  0  0  0  0  0  0
   12.6567   -1.9022   22.1814 C   0  0  0  0  0  0  0  0  0  0  0  0
   13.1409    2.0657   25.7109 C   0  0  0  0  0  0  0  0  0  0  0  0
    9.7661   -1.4966   20.7675 C   0  0  0  0  0  0  0  0  0  0  0  0
   10.4848   -2.9983   22.6685 C   0  0  0  0  0  0  0  0  0  0  0  0
    9.3340   -2.1438   22.1048 C   0  0  1  0  0  0  0  0  0  0  0  0
    9.7512   -0.1715   23.4934 N   0  0  0  0  0  0  0  0  0  0  0  0
   14.3307    1.3918   25.4071 N   0  0  0  0  0  0  0  0  0  0  0  0
   11.6213   -2.2039   23.0563 N   0  0  0  0  0  0  0  0  0  0  0  0
   12.7136   -2.2712   21.0113 O   0  0  0  0  0  0  0  0  0  0  0  0
   12.0867    2.0245   25.0877 O   0  0  0  0  0  0  0  0  0  0  0  0
   16.8977    1.1540   24.2943 O   0  0  0  0  0  0  0  0  0  0  0  0
    5.8409    1.3086   18.3709 H   0  0  0  0  0  0  0  0  0  0  0  0
    6.1263   -1.1039   17.8675 H   0  0  0  0  0  0  0  0  0  0  0  0
    7.3638    2.4290   19.9781 H   0  0  0  0  0  0  0  0  0  0  0  0
    6.1296   -0.2203   24.8880 H   0  0  0  0  0  0  0  0  0  0  0  0
    7.7425    1.5313   25.6294 H   0  0  0  0  0  0  0  0  0  0  0  0
   15.2444   -1.8725   21.3673 H   0  0  0  0  0  0  0  0  0  0  0  0
    7.9260   -2.3964   18.9652 H   0  0  0  0  0  0  0  0  0  0  0  0
    9.1665    1.1454   21.0808 H   0  0  0  0  0  0  0  0  0  0  0  0
   17.0912   -0.5301   22.2972 H   0  0  0  0  0  0  0  0  0  0  0  0
    6.8614   -1.9370   23.2464 H   0  0  0  0  0  0  0  0  0  0  0  0
   12.5358   -0.1465   24.2335 H   0  0  0  0  0  0  0  0  0  0  0  0
   10.0553    1.4875   24.6800 H   0  0  0  0  0  0  0  0  0  0  0  0
   13.7011    2.8984   29.0284 H   0  0  0  0  0  0  0  0  0  0  0  0
   13.7484    1.2561   28.1711 H   0  0  0  0  0  0  0  0  0  0  0  0
   13.1225    3.9666   26.8839 H   0  0  0  0  0  0  0  0  0  0  0  0
   10.6446   -0.8545   20.9128 H   0  0  0  0  0  0  0  0  0  0  0  0
   10.0907   -2.2789   20.0680 H   0  0  0  0  0  0  0  0  0  0  0  0
   10.1592   -3.5314   23.5682 H   0  0  0  0  0  0  0  0  0  0  0  0
   10.8362   -3.7437   21.9477 H   0  0  0  0  0  0  0  0  0  0  0  0
    8.4997   -2.8288   21.8954 H   0  0  0  0  0  0  0  0  0  0  0  0
   15.1150    1.5512   26.0498 H   0  0  0  0  0  0  0  0  0  0  0  0
   11.6781   -1.9139   24.0297 H   0  0  0  0  0  0  0  0  0  0  0  0
   16.5919    1.7080   25.0292 H   0  0  0  0  0  0  0  0  0  0  0  0
  1  2  1  0  0  0  0
  1  3  2  0  0  0  0
  2  7  2  0  0  0  0
  3  8  1  0  0  0  0
  4  5  1  0  0  0  0
  4 10  2  0  0  0  0
  5 12  2  0  0  0  0
  6  9  2  0  0  0  0
  6 13  1  0  0  0  0
  7 14  1  0  0  0  0
  8 14  2  0  0  0  0
  9 16  1  0  0  0  0
 10 17  1  0  0  0  0
 11 13  2  0  0  0  0
 11 15  1  0  0  0  0
 12 25  1  0  0  0  0
 13 20  1  0  0  0  0
 14 22  1  0  0  0  0
 15 16  2  0  0  0  0
 15 26  1  0  0  0  0
 16 30  1  0  0  0  0
 17 24  1  0  0  0  0
 17 25  2  0  0  0  0
 18 19  2  0  0  0  0
 19 21  1  0  0  0  0
 20 27  1  0  0  0  0
 20 28  2  0  0  0  0
 21 26  1  0  0  0  0
 21 29  2  0  0  0  0
 22 24  1  0  0  0  0
 23 24  1  0  0  0  0
 23 27  1  0  0  0  0
  1 31  1  0  0  0  0
  2 32  1  0  0  0  0
  3 33  1  0  0  0  0
  4 34  1  0  0  0  0
  5 35  1  0  0  0  0
  6 36  1  0  0  0  0
  7 37  1  0  0  0  0
  8 38  1  0  0  0  0
  9 39  1  0  0  0  0
 10 40  1  0  0  0  0
 11 41  1  0  0  0  0
 12 42  1  0  0  0  0
 18 43  1  0  0  0  0
 18 44  1  0  0  0  0
 19 45  1  0  0  0  0
 22 46  1  0  0  0  0
 22 47  1  0  0  0  0
 23 48  1  0  0  0  0
 23 49  1  0  0  0  0
 24 50  1  0  0  0  0
 26 51  1  0  0  0  0
 27 52  1  0  0  0  0
 30 53  1  0  0  0  0
M  END
> <creator>
Juan Salamanca Viloria, Universidad de Barcelona in collaboration with the Medicinal Chemistry Research Group, RCNS, Budapest

> <fragments>
x1382

> <real_space>
FALSE

> <SCR>
FALSE

> <BB>
FALSE

> <link>
https://covid.postera.ai/covid/submissions/bc099708-66e5-490d-b218-fa749db19489

> <covalent_frag>
TRUE

> <covalent_warhead>
TRUE

> <acrylamide>
TRUE

> <acrylamide_adduct>
FALSE

> <chloroacetamide>
FALSE

> <chloroacetamide_adduct>
FALSE

> <vinylsulfonamide>
FALSE

> <vinylsulfonamide_adduct>
FALSE

> <in_molport_or_mcule>
FALSE

> <in_emolecules>
FALSE

> <Hybrid2>
2.881295

> <Mpro-x1382_dock>
2.881295

> <site>
active-covalent

$$$$
JUA-UNI-bc0-4
  -OEChem-04062011563D

 44 45  0     1  0  0  0  0  0999 V2000
    8.9932   -1.4633   18.7978 C   0  0  0  0  0  0  0  0  0  0  0  0
    7.3320   -0.5717   20.3087 C   0  0  0  0  0  0  0  0  0  0  0  0
    8.2304   -1.0401   17.7094 C   0  0  0  0  0  0  0  0  0  0  0  0
    6.5692   -0.1486   19.2203 C   0  0  0  0  0  0  0  0  0  0  0  0
   12.2031   -2.3276   23.4915 C   0  0  0  0  0  0  0  0  0  0  0  0
   13.5773   -2.2581   23.2627 C   0  0  0  0  0  0  0  0  0  0  0  0
   12.0100    0.0401   23.0514 C   0  0  0  0  0  0  0  0  0  0  0  0
    8.5440   -1.2291   20.0975 C   0  0  0  0  0  0  0  0  0  0  0  0
    7.0185   -0.3828   17.9206 C   0  0  0  0  0  0  0  0  0  0  0  0
   11.4194   -1.1785   23.3858 C   0  0  0  0  0  0  0  0  0  0  0  0
   13.3843    0.1096   22.8226 C   0  0  0  0  0  0  0  0  0  0  0  0
   14.1679   -1.0395   22.9283 C   0  0  0  0  0  0  0  0  0  0  0  0
    7.1356    4.7915   15.7662 C   0  0  0  0  0  0  0  0  0  0  0  0
    6.4191    3.7973   16.2994 C   0  0  0  0  0  0  0  0  0  0  0  0
    9.3388   -1.6695   21.2331 C   0  0  0  0  0  0  0  0  0  0  0  0
    6.8564    2.3847   16.1400 C   0  0  0  0  0  0  0  0  0  0  0  0
    6.1983    0.0735   16.7487 C   0  0  0  0  0  0  0  0  0  0  0  0
    9.4796   -0.3446   24.7811 C   0  0  0  0  0  0  0  0  0  0  0  0
    9.9283   -1.2538   23.6340 C   0  0  1  0  0  0  0  0  0  0  0  0
    9.1920   -0.9538   22.4271 N   0  0  0  0  0  0  0  0  0  0  0  0
    5.9877    1.5029   16.7599 N   0  0  0  0  0  0  0  0  0  0  0  0
   10.1232   -2.6282   21.1208 O   0  0  0  0  0  0  0  0  0  0  0  0
    7.8732    2.0735   15.5282 O   0  0  0  0  0  0  0  0  0  0  0  0
    9.3347    0.9862   24.2956 O   0  0  0  0  0  0  0  0  0  0  0  0
   13.9351    1.2891   22.5021 F   0  0  0  0  0  0  0  0  0  0  0  0
   16.0315   -0.9558   22.6199 Br  0  0  0  0  0  0  0  0  0  0  0  0
    9.9362   -1.9745   18.6225 H   0  0  0  0  0  0  0  0  0  0  0  0
    6.9721   -0.3840   21.3169 H   0  0  0  0  0  0  0  0  0  0  0  0
    8.5882   -1.2264   16.7003 H   0  0  0  0  0  0  0  0  0  0  0  0
    5.6263    0.3634   19.3940 H   0  0  0  0  0  0  0  0  0  0  0  0
   11.7513   -3.2810   23.7522 H   0  0  0  0  0  0  0  0  0  0  0  0
   14.1738   -3.1628   23.3494 H   0  0  0  0  0  0  0  0  0  0  0  0
   11.4074    0.9405   22.9670 H   0  0  0  0  0  0  0  0  0  0  0  0
    6.8096    5.8195   15.8857 H   0  0  0  0  0  0  0  0  0  0  0  0
    8.0488    4.6192   15.2072 H   0  0  0  0  0  0  0  0  0  0  0  0
    5.5112    4.0131   16.8520 H   0  0  0  0  0  0  0  0  0  0  0  0
    6.6927   -0.1872   15.8066 H   0  0  0  0  0  0  0  0  0  0  0  0
    5.2156   -0.4096   16.7449 H   0  0  0  0  0  0  0  0  0  0  0  0
    8.5073   -0.6614   25.1741 H   0  0  0  0  0  0  0  0  0  0  0  0
   10.2038   -0.3338   25.6029 H   0  0  0  0  0  0  0  0  0  0  0  0
    9.6514   -2.2862   23.8825 H   0  0  0  0  0  0  0  0  0  0  0  0
    8.5854   -0.1406   22.4466 H   0  0  0  0  0  0  0  0  0  0  0  0
    5.1842    1.8551   17.2721 H   0  0  0  0  0  0  0  0  0  0  0  0
    9.0509    1.5271   25.0493 H   0  0  0  0  0  0  0  0  0  0  0  0
  1  3  2  0  0  0  0
  1  8  1  0  0  0  0
  2  4  1  0  0  0  0
  2  8  2  0  0  0  0
  3  9  1  0  0  0  0
  4  9  2  0  0  0  0
  5  6  2  0  0  0  0
  5 10  1  0  0  0  0
  6 12  1  0  0  0  0
  7 10  2  0  0  0  0
  7 11  1  0  0  0  0
  8 15  1  0  0  0  0
  9 17  1  0  0  0  0
 10 19  1  0  0  0  0
 11 12  2  0  0  0  0
 11 25  1  0  0  0  0
 12 26  1  0  0  0  0
 13 14  2  0  0  0  0
 14 16  1  0  0  0  0
 15 20  1  0  0  0  0
 15 22  2  0  0  0  0
 16 21  1  0  0  0  0
 16 23  2  0  0  0  0
 17 21  1  0  0  0  0
 18 19  1  0  0  0  0
 18 24  1  0  0  0  0
 19 20  1  0  0  0  0
  1 27  1  0  0  0  0
  2 28  1  0  0  0  0
  3 29  1  0  0  0  0
  4 30  1  0  0  0  0
  5 31  1  0  0  0  0
  6 32  1  0  0  0  0
  7 33  1  0  0  0  0
 13 34  1  0  0  0  0
 13 35  1  0  0  0  0
 14 36  1  0  0  0  0
 17 37  1  0  0  0  0
 17 38  1  0  0  0  0
 18 39  1  0  0  0  0
 18 40  1  0  0  0  0
 19 41  1  0  0  0  0
 20 42  1  0  0  0  0
 21 43  1  0  0  0  0
 24 44  1  0  0  0  0
M  END
> <creator>
Juan Salamanca Viloria, Universidad de Barcelona in collaboration with the Medicinal Chemistry Research Group, RCNS, Budapest

> <fragments>
x1382

> <real_space>
Z2230105989

> <SCR>
FALSE

> <BB>
FALSE

> <link>
https://covid.postera.ai/covid/submissions/bc099708-66e5-490d-b218-fa749db19489

> <covalent_frag>
TRUE

> <covalent_warhead>
TRUE

> <acrylamide>
TRUE

> <acrylamide_adduct>
FALSE

> <chloroacetamide>
FALSE

> <chloroacetamide_adduct>
FALSE

> <vinylsulfonamide>
FALSE

> <vinylsulfonamide_adduct>
FALSE

> <in_molport_or_mcule>
FALSE

> <in_emolecules>
FALSE

> <Hybrid2>
3.064626

> <Mpro-x1382_dock>
3.064626

> <site>
active-covalent

> <covalent_distance_min>
8.133679

> <covalent_distance_mean>
8.908057

> <covalent_distance_stderr>
0.038008966

$$$$
MAK-UNK-8fd-3
  -OEChem-04062011563D

 74 77  0     1  0  0  0  0  0999 V2000
   13.3289   -0.4567   19.6115 C   0  0  0  0  0  0  0  0  0  0  0  0
   14.3604   -1.3506   19.8988 C   0  0  0  0  0  0  0  0  0  0  0  0
   11.7729    5.2287   21.9681 C   0  0  0  0  0  0  0  0  0  0  0  0
   12.4133   -0.1062   20.6038 C   0  0  0  0  0  0  0  0  0  0  0  0
   14.4764   -1.8940   21.1782 C   0  0  0  0  0  0  0  0  0  0  0  0
   12.2827    3.9522   22.1773 C   0  0  0  0  0  0  0  0  0  0  0  0
   10.3805   -0.8886   23.2254 C   0  0  0  0  0  0  0  0  0  0  0  0
   11.3898    5.9640   23.0782 C   0  0  0  0  0  0  0  0  0  0  0  0
   11.9816    4.2715   24.5147 C   0  0  0  0  0  0  0  0  0  0  0  0
   10.6760    0.8638   24.6080 C   0  0  0  0  0  0  0  0  0  0  0  0
   12.5293   -0.6496   21.8832 C   0  0  0  0  0  0  0  0  0  0  0  0
    9.8108   -0.1629   24.3005 C   0  0  0  0  0  0  0  0  0  0  0  0
   13.5608   -1.5435   22.1704 C   0  0  0  0  0  0  0  0  0  0  0  0
   12.3922    3.4569   23.4719 C   0  0  0  0  0  0  0  0  0  0  0  0
   11.5767   -0.2834   22.9088 C   0  0  0  0  0  0  0  0  0  0  0  0
    6.4893   -2.0034   26.6971 C   0  0  0  0  0  0  0  0  0  0  0  0
    4.4190   -6.5992   27.5047 C   0  0  0  0  0  0  0  0  0  0  0  0
    4.2734   -3.0696   27.0768 C   0  0  0  0  0  0  0  0  0  0  0  0
    6.2560   -3.6657   28.5523 C   0  0  0  0  0  0  0  0  0  0  0  0
    4.4590   -4.4060   26.3605 C   0  0  0  0  0  0  0  0  0  0  0  0
    6.3681   -4.9933   27.8016 C   0  0  0  0  0  0  0  0  0  0  0  0
    5.5642   -2.5707   27.7341 C   0  0  0  0  0  0  0  0  0  0  0  0
    9.5165   -1.8950   26.8385 C   0  0  0  0  0  0  0  0  0  0  0  0
    6.8888    0.0101   28.1227 C   0  0  0  0  0  0  0  0  0  0  0  0
    7.2318    0.9089   23.3205 C   0  0  0  0  0  0  0  0  0  0  0  0
    5.1148   -7.5586   28.4369 C   0  0  0  0  0  0  0  0  0  0  0  0
    8.4924   -0.4599   24.9867 C   0  0  1  0  0  0  0  0  0  0  0  0
    8.6164   -0.6985   26.5127 C   0  0  1  0  0  0  0  0  0  0  0  0
   11.4813    5.5167   24.3506 N   0  0  0  0  0  0  0  0  0  0  0  0
   11.7461    0.7805   23.7558 N   0  0  0  0  0  0  0  0  0  0  0  0
    5.0689   -5.3918   27.2518 N   0  0  0  0  0  0  0  0  0  0  0  0
    7.2989   -0.9390   27.0957 N   0  0  0  0  0  0  0  0  0  0  0  0
    7.5020    0.6448   24.7523 N   0  3  0  0  0  0  0  0  0  0  0  0
    6.4943   -2.4909   25.5636 O   0  0  0  0  0  0  0  0  0  0  0  0
    3.3298   -6.9143   27.0184 O   0  0  0  0  0  0  0  0  0  0  0  0
   13.8743    1.4474   22.6422 O   0  0  0  0  0  0  0  0  0  0  0  0
   13.5871    1.8628   25.1358 O   0  0  0  0  0  0  0  0  0  0  0  0
   13.6861   -2.0746   23.3956 F   0  0  0  0  0  0  0  0  0  0  0  0
   13.0378    1.8330   23.7782 S   0  0  0  0  0  0  0  0  0  0  0  0
    4.5826   -7.1541   30.0651 Cl  0  0  0  0  0  0  0  0  0  0  0  0
   13.2391   -0.0334   18.6153 H   0  0  0  0  0  0  0  0  0  0  0  0
   15.0737   -1.6231   19.1263 H   0  0  0  0  0  0  0  0  0  0  0  0
   11.6784    5.6354   20.9677 H   0  0  0  0  0  0  0  0  0  0  0  0
   11.6149    0.5920   20.3639 H   0  0  0  0  0  0  0  0  0  0  0  0
   15.2798   -2.5896   21.4020 H   0  0  0  0  0  0  0  0  0  0  0  0
   12.5914    3.3521   21.3258 H   0  0  0  0  0  0  0  0  0  0  0  0
    9.9615   -1.7583   22.7366 H   0  0  0  0  0  0  0  0  0  0  0  0
   10.9860    6.9651   22.9687 H   0  0  0  0  0  0  0  0  0  0  0  0
   12.0429    3.9402   25.5467 H   0  0  0  0  0  0  0  0  0  0  0  0
   10.6179    1.6412   25.3587 H   0  0  0  0  0  0  0  0  0  0  0  0
    3.8959   -2.3276   26.3629 H   0  0  0  0  0  0  0  0  0  0  0  0
    3.5030   -3.1874   27.8497 H   0  0  0  0  0  0  0  0  0  0  0  0
    5.6841   -3.8327   29.4742 H   0  0  0  0  0  0  0  0  0  0  0  0
    7.2579   -3.3385   28.8555 H   0  0  0  0  0  0  0  0  0  0  0  0
    3.4920   -4.7605   25.9895 H   0  0  0  0  0  0  0  0  0  0  0  0
    5.1179   -4.2945   25.4916 H   0  0  0  0  0  0  0  0  0  0  0  0
    7.0632   -4.9056   26.9587 H   0  0  0  0  0  0  0  0  0  0  0  0
    6.7790   -5.7507   28.4716 H   0  0  0  0  0  0  0  0  0  0  0  0
    5.3177   -1.7340   28.3997 H   0  0  0  0  0  0  0  0  0  0  0  0
    9.1416   -2.8130   26.3749 H   0  0  0  0  0  0  0  0  0  0  0  0
   10.5323   -1.7369   26.4582 H   0  0  0  0  0  0  0  0  0  0  0  0
    9.5834   -2.0637   27.9192 H   0  0  0  0  0  0  0  0  0  0  0  0
    7.2168   -0.3511   29.1086 H   0  0  0  0  0  0  0  0  0  0  0  0
    7.3465    0.9897   27.9203 H   0  0  0  0  0  0  0  0  0  0  0  0
    5.7932    0.1086   28.1144 H   0  0  0  0  0  0  0  0  0  0  0  0
    6.8584   -0.0151   22.8752 H   0  0  0  0  0  0  0  0  0  0  0  0
    6.4846    1.7026   23.2623 H   0  0  0  0  0  0  0  0  0  0  0  0
    8.1697    1.2177   22.8550 H   0  0  0  0  0  0  0  0  0  0  0  0
    6.1862   -7.4185   28.3500 H   0  0  0  0  0  0  0  0  0  0  0  0
    4.8153   -8.5701   28.1877 H   0  0  0  0  0  0  0  0  0  0  0  0
    8.0306   -1.3397   24.5200 H   0  0  0  0  0  0  0  0  0  0  0  0
    9.0349    0.1910   26.9989 H   0  0  0  0  0  0  0  0  0  0  0  0
    7.8552    1.4946   25.2023 H   0  0  0  0  0  0  0  0  0  0  0  0
    6.6299    0.4025   25.2321 H   0  0  0  0  0  0  0  0  0  0  0  0
  1  2  1  0  0  0  0
  1  4  2  0  0  0  0
  2  5  2  0  0  0  0
  3  6  2  0  0  0  0
  3  8  1  0  0  0  0
  4 11  1  0  0  0  0
  5 13  1  0  0  0  0
  6 14  1  0  0  0  0
  7 12  1  0  0  0  0
  7 15  2  0  0  0  0
  8 29  2  0  0  0  0
  9 14  2  0  0  0  0
  9 29  1  0  0  0  0
 10 12  2  0  0  0  0
 10 30  1  0  0  0  0
 11 13  2  0  0  0  0
 11 15  1  0  0  0  0
 12 27  1  0  0  0  0
 13 38  1  0  0  0  0
 14 39  1  0  0  0  0
 15 30  1  0  0  0  0
 16 22  1  0  0  0  0
 16 32  1  0  0  0  0
 16 34  2  0  0  0  0
 17 26  1  0  0  0  0
 17 31  1  0  0  0  0
 17 35  2  0  0  0  0
 18 20  1  0  0  0  0
 18 22  1  0  0  0  0
 19 21  1  0  0  0  0
 19 22  1  0  0  0  0
 20 31  1  0  0  0  0
 21 31  1  0  0  0  0
 23 28  1  0  0  0  0
 24 32  1  0  0  0  0
 25 33  1  0  0  0  0
 26 40  1  0  0  0  0
 27 28  1  0  0  0  0
 27 33  1  0  0  0  0
 28 32  1  0  0  0  0
 30 39  1  0  0  0  0
 36 39  2  0  0  0  0
 37 39  2  0  0  0  0
  1 41  1  0  0  0  0
  2 42  1  0  0  0  0
  3 43  1  0  0  0  0
  4 44  1  0  0  0  0
  5 45  1  0  0  0  0
  6 46  1  0  0  0  0
  7 47  1  0  0  0  0
  8 48  1  0  0  0  0
  9 49  1  0  0  0  0
 10 50  1  0  0  0  0
 18 51  1  0  0  0  0
 18 52  1  0  0  0  0
 19 53  1  0  0  0  0
 19 54  1  0  0  0  0
 20 55  1  0  0  0  0
 20 56  1  0  0  0  0
 21 57  1  0  0  0  0
 21 58  1  0  0  0  0
 22 59  1  0  0  0  0
 23 60  1  0  0  0  0
 23 61  1  0  0  0  0
 23 62  1  0  0  0  0
 24 63  1  0  0  0  0
 24 64  1  0  0  0  0
 24 65  1  0  0  0  0
 25 66  1  0  0  0  0
 25 67  1  0  0  0  0
 25 68  1  0  0  0  0
 26 69  1  0  0  0  0
 26 70  1  0  0  0  0
 27 71  1  0  0  0  0
 28 72  1  0  0  0  0
 33 73  1  0  0  0  0
 33 74  1  0  0  0  0
M  CHG  1  33   1
M  END
> <creator>
Maksym Voznyy

> <fragments>
x0305

> <real_space>
FALSE

> <SCR>
FALSE

> <BB>
FALSE

> <link>
https://covid.postera.ai/covid/submissions/8fdbca50-c94c-4218-91b0-3b0489774fa8

> <covalent_frag>
FALSE

> <covalent_warhead>
TRUE

> <acrylamide>
FALSE

> <acrylamide_adduct>
FALSE

> <chloroacetamide>
TRUE

> <chloroacetamide_adduct>
FALSE

> <vinylsulfonamide>
FALSE

> <vinylsulfonamide_adduct>
FALSE

> <in_molport_or_mcule>
FALSE

> <in_emolecules>
FALSE

> <Hybrid2>
3.172751

> <Mpro-x0305_dock>
3.172751

> <site>
active-noncovalent

> <covalent_distance_min>
9.070623

> <covalent_distance_mean>
10.379734

> <covalent_distance_stderr>
0.08227914

$$$$
MAK-UNK-702-12
  -OEChem-04062011563D

 71 76  0     1  0  0  0  0  0999 V2000
    6.1762   -3.8014   29.4687 C   0  0  0  0  0  0  0  0  0  0  0  0
   11.4813   -0.2613   22.8180 C   0  0  0  0  0  0  0  0  0  0  0  0
   11.1433   -0.4616   21.4843 C   0  0  0  0  0  0  0  0  0  0  0  0
    6.0365   -0.6960   18.1758 C   0  0  0  0  0  0  0  0  0  0  0  0
    5.8699   -2.0511   18.4616 C   0  0  0  0  0  0  0  0  0  0  0  0
    5.9968   -5.1192   29.8892 C   0  0  0  0  0  0  0  0  0  0  0  0
   10.0158   -1.0481   28.8379 C   0  0  0  0  0  0  0  0  0  0  0  0
    6.5833   -3.5358   28.1612 C   0  0  0  0  0  0  0  0  0  0  0  0
   10.5319    0.2400   23.7058 C   0  0  0  0  0  0  0  0  0  0  0  0
    9.8512   -0.1773   21.0411 C   0  0  0  0  0  0  0  0  0  0  0  0
    6.5528    0.1631   19.1460 C   0  0  0  0  0  0  0  0  0  0  0  0
    6.2196   -2.5471   19.7175 C   0  0  0  0  0  0  0  0  0  0  0  0
    6.2247   -6.1714   29.0023 C   0  0  0  0  0  0  0  0  0  0  0  0
    9.6982   -2.3146   28.3600 C   0  0  0  0  0  0  0  0  0  0  0  0
    6.4556   -4.1001   24.8023 C   0  0  0  0  0  0  0  0  0  0  0  0
   10.8934   -0.2756   28.0944 C   0  0  0  0  0  0  0  0  0  0  0  0
   11.1267   -1.9142   26.5011 C   0  0  0  0  0  0  0  0  0  0  0  0
    8.6187   -3.9341   24.1995 C   0  0  0  0  0  0  0  0  0  0  0  0
    6.8112   -4.5880   27.2744 C   0  0  0  0  0  0  0  0  0  0  0  0
    9.2307    0.5400   23.2706 C   0  0  0  0  0  0  0  0  0  0  0  0
    8.8694    0.2955   21.9300 C   0  0  0  0  0  0  0  0  0  0  0  0
    6.9025   -0.3330   20.4019 C   0  0  0  0  0  0  0  0  0  0  0  0
    7.3315   -3.8638   23.7142 C   0  0  0  0  0  0  0  0  0  0  0  0
    6.7359   -1.6880   20.6877 C   0  0  0  0  0  0  0  0  0  0  0  0
    6.6319   -5.9058   27.6949 C   0  0  0  0  0  0  0  0  0  0  0  0
   10.2601   -2.7636   27.1700 C   0  0  0  0  0  0  0  0  0  0  0  0
    7.2342   -4.3075   25.9195 C   0  0  0  0  0  0  0  0  0  0  0  0
    6.2919    2.7116   24.0933 C   0  0  0  0  0  0  0  0  0  0  0  0
    8.2548    1.1133   24.2706 C   0  0  0  0  0  0  0  0  0  0  0  0
    6.4694    0.7430   22.6103 C   0  0  0  0  0  0  0  0  0  0  0  0
    7.4635    0.6275   21.4412 C   0  0  1  0  0  0  0  0  0  0  0  0
    6.9322   -3.5877   22.2934 C   0  0  0  0  0  0  0  0  0  0  0  0
    4.7990    2.6723   23.8810 C   0  0  0  0  0  0  0  0  0  0  0  0
   11.4591   -0.6774   26.9342 N   0  0  0  0  0  0  0  0  0  0  0  0
    8.5473   -4.2039   25.5413 N   0  0  0  0  0  0  0  0  0  0  0  0
    7.0112    1.5961   23.6634 N   0  0  0  0  0  0  0  0  0  0  0  0
    7.0844   -2.2078   21.9536 N   0  0  0  0  0  0  0  0  0  0  0  0
    6.8000    3.7007   24.6274 O   0  0  0  0  0  0  0  0  0  0  0  0
   10.9685   -4.7877   25.6457 O   0  0  0  0  0  0  0  0  0  0  0  0
    9.4985   -5.1915   27.6825 O   0  0  0  0  0  0  0  0  0  0  0  0
    6.8467   -6.9286   26.8544 F   0  0  0  0  0  0  0  0  0  0  0  0
    9.8789   -4.3732   26.5287 S   0  0  0  0  0  0  0  0  0  0  0  0
    4.4953    3.4034   22.3094 Cl  0  0  0  0  0  0  0  0  0  0  0  0
    5.9983   -2.9822   30.1593 H   0  0  0  0  0  0  0  0  0  0  0  0
   12.4821   -0.4952   23.1670 H   0  0  0  0  0  0  0  0  0  0  0  0
   11.8849   -0.8383   20.7852 H   0  0  0  0  0  0  0  0  0  0  0  0
    5.7641   -0.3099   17.1979 H   0  0  0  0  0  0  0  0  0  0  0  0
    5.4679   -2.7198   17.7061 H   0  0  0  0  0  0  0  0  0  0  0  0
    5.6793   -5.3260   30.9070 H   0  0  0  0  0  0  0  0  0  0  0  0
    9.5898   -0.6773   29.7631 H   0  0  0  0  0  0  0  0  0  0  0  0
    6.7187   -2.5030   27.8489 H   0  0  0  0  0  0  0  0  0  0  0  0
   10.8076    0.3954   24.7466 H   0  0  0  0  0  0  0  0  0  0  0  0
    9.6098   -0.3249   19.9891 H   0  0  0  0  0  0  0  0  0  0  0  0
    6.6787    1.2172   18.9132 H   0  0  0  0  0  0  0  0  0  0  0  0
    6.0853   -3.6050   19.9287 H   0  0  0  0  0  0  0  0  0  0  0  0
    6.0846   -7.1975   29.3296 H   0  0  0  0  0  0  0  0  0  0  0  0
    9.0128   -2.9431   28.9216 H   0  0  0  0  0  0  0  0  0  0  0  0
    5.3741   -4.1170   24.7716 H   0  0  0  0  0  0  0  0  0  0  0  0
   11.1733    0.7196   28.4240 H   0  0  0  0  0  0  0  0  0  0  0  0
   11.5961   -2.2087   25.5676 H   0  0  0  0  0  0  0  0  0  0  0  0
    9.5728   -3.8146   23.7029 H   0  0  0  0  0  0  0  0  0  0  0  0
    8.0317    0.3499   25.0162 H   0  0  0  0  0  0  0  0  0  0  0  0
    8.7149    1.9702   24.7699 H   0  0  0  0  0  0  0  0  0  0  0  0
    5.5436    1.2162   22.2696 H   0  0  0  0  0  0  0  0  0  0  0  0
    6.2096   -0.2442   22.9967 H   0  0  0  0  0  0  0  0  0  0  0  0
    7.4888    1.6328   20.9533 H   0  0  0  0  0  0  0  0  0  0  0  0
    7.5431   -4.1753   21.5995 H   0  0  0  0  0  0  0  0  0  0  0  0
    5.8866   -3.8621   22.1187 H   0  0  0  0  0  0  0  0  0  0  0  0
    4.3187    3.2518   24.6607 H   0  0  0  0  0  0  0  0  0  0  0  0
    4.4722    1.6391   23.8811 H   0  0  0  0  0  0  0  0  0  0  0  0
    7.4506   -1.5596   22.6239 H   0  0  0  0  0  0  0  0  0  0  0  0
  1  6  1  0  0  0  0
  1  8  2  0  0  0  0
  2  3  1  0  0  0  0
  2  9  2  0  0  0  0
  3 10  2  0  0  0  0
  4  5  1  0  0  0  0
  4 11  2  0  0  0  0
  5 12  2  0  0  0  0
  6 13  2  0  0  0  0
  7 14  2  0  0  0  0
  7 16  1  0  0  0  0
  8 19  1  0  0  0  0
  9 20  1  0  0  0  0
 10 21  1  0  0  0  0
 11 22  1  0  0  0  0
 12 24  1  0  0  0  0
 13 25  1  0  0  0  0
 14 26  1  0  0  0  0
 15 23  1  0  0  0  0
 15 27  2  0  0  0  0
 16 34  2  0  0  0  0
 17 26  2  0  0  0  0
 17 34  1  0  0  0  0
 18 23  2  0  0  0  0
 18 35  1  0  0  0  0
 19 25  2  0  0  0  0
 19 27  1  0  0  0  0
 20 21  2  0  0  0  0
 20 29  1  0  0  0  0
 21 31  1  0  0  0  0
 22 24  2  0  0  0  0
 22 31  1  0  0  0  0
 23 32  1  0  0  0  0
 24 37  1  0  0  0  0
 25 41  1  0  0  0  0
 26 42  1  0  0  0  0
 27 35  1  0  0  0  0
 28 33  1  0  0  0  0
 28 36  1  0  0  0  0
 28 38  2  0  0  0  0
 29 36  1  0  0  0  0
 30 31  1  0  0  0  0
 30 36  1  0  0  0  0
 32 37  1  0  0  0  0
 33 43  1  0  0  0  0
 35 42  1  0  0  0  0
 39 42  2  0  0  0  0
 40 42  2  0  0  0  0
  1 44  1  0  0  0  0
  2 45  1  0  0  0  0
  3 46  1  0  0  0  0
  4 47  1  0  0  0  0
  5 48  1  0  0  0  0
  6 49  1  0  0  0  0
  7 50  1  0  0  0  0
  8 51  1  0  0  0  0
  9 52  1  0  0  0  0
 10 53  1  0  0  0  0
 11 54  1  0  0  0  0
 12 55  1  0  0  0  0
 13 56  1  0  0  0  0
 14 57  1  0  0  0  0
 15 58  1  0  0  0  0
 16 59  1  0  0  0  0
 17 60  1  0  0  0  0
 18 61  1  0  0  0  0
 29 62  1  0  0  0  0
 29 63  1  0  0  0  0
 30 64  1  0  0  0  0
 30 65  1  0  0  0  0
 31 66  1  0  0  0  0
 32 67  1  0  0  0  0
 32 68  1  0  0  0  0
 33 69  1  0  0  0  0
 33 70  1  0  0  0  0
 37 71  1  0  0  0  0
M  END
> <creator>
Maksym Voznyy

> <fragments>
x0387

> <real_space>
FALSE

> <SCR>
FALSE

> <BB>
FALSE

> <link>
https://covid.postera.ai/covid/submissions/702fb7d3-1941-4d37-9e1c-6a10ebd67f09

> <covalent_frag>
FALSE

> <covalent_warhead>
TRUE

> <acrylamide>
FALSE

> <acrylamide_adduct>
FALSE

> <chloroacetamide>
TRUE

> <chloroacetamide_adduct>
FALSE

> <vinylsulfonamide>
FALSE

> <vinylsulfonamide_adduct>
FALSE

> <in_molport_or_mcule>
FALSE

> <in_emolecules>
FALSE

> <Hybrid2>
3.560473

> <Mpro-x0387_dock>
3.560473

> <site>
active-noncovalent

> <covalent_distance_min>
8.475668

> <covalent_distance_mean>
9.361605

> <covalent_distance_stderr>
0.049811162

$$$$
MAK-UNK-702-16
  -OEChem-04062011563D

 71 76  0     1  0  0  0  0  0999 V2000
    6.1762   -3.8014   29.4687 C   0  0  0  0  0  0  0  0  0  0  0  0
   11.4813   -0.2613   22.8180 C   0  0  0  0  0  0  0  0  0  0  0  0
   11.1433   -0.4616   21.4843 C   0  0  0  0  0  0  0  0  0  0  0  0
    6.0365   -0.6960   18.1758 C   0  0  0  0  0  0  0  0  0  0  0  0
    5.8699   -2.0511   18.4616 C   0  0  0  0  0  0  0  0  0  0  0  0
    5.9968   -5.1192   29.8892 C   0  0  0  0  0  0  0  0  0  0  0  0
   10.0158   -1.0481   28.8379 C   0  0  0  0  0  0  0  0  0  0  0  0
    6.5833   -3.5358   28.1612 C   0  0  0  0  0  0  0  0  0  0  0  0
   10.5319    0.2400   23.7058 C   0  0  0  0  0  0  0  0  0  0  0  0
    9.8512   -0.1773   21.0411 C   0  0  0  0  0  0  0  0  0  0  0  0
    6.5528    0.1631   19.1460 C   0  0  0  0  0  0  0  0  0  0  0  0
    6.2196   -2.5471   19.7175 C   0  0  0  0  0  0  0  0  0  0  0  0
    6.2247   -6.1714   29.0023 C   0  0  0  0  0  0  0  0  0  0  0  0
    9.6982   -2.3146   28.3600 C   0  0  0  0  0  0  0  0  0  0  0  0
    6.4556   -4.1001   24.8023 C   0  0  0  0  0  0  0  0  0  0  0  0
   10.8934   -0.2756   28.0944 C   0  0  0  0  0  0  0  0  0  0  0  0
   11.1267   -1.9142   26.5011 C   0  0  0  0  0  0  0  0  0  0  0  0
    8.6187   -3.9341   24.1995 C   0  0  0  0  0  0  0  0  0  0  0  0
    6.8112   -4.5880   27.2744 C   0  0  0  0  0  0  0  0  0  0  0  0
    9.2307    0.5400   23.2706 C   0  0  0  0  0  0  0  0  0  0  0  0
    8.8694    0.2955   21.9300 C   0  0  0  0  0  0  0  0  0  0  0  0
    6.9025   -0.3330   20.4019 C   0  0  0  0  0  0  0  0  0  0  0  0
    7.3315   -3.8638   23.7142 C   0  0  0  0  0  0  0  0  0  0  0  0
    6.7359   -1.6880   20.6877 C   0  0  0  0  0  0  0  0  0  0  0  0
    6.6319   -5.9058   27.6949 C   0  0  0  0  0  0  0  0  0  0  0  0
   10.2601   -2.7636   27.1700 C   0  0  0  0  0  0  0  0  0  0  0  0
    7.2342   -4.3075   25.9195 C   0  0  0  0  0  0  0  0  0  0  0  0
    6.2919    2.7116   24.0933 C   0  0  0  0  0  0  0  0  0  0  0  0
    8.2548    1.1133   24.2706 C   0  0  0  0  0  0  0  0  0  0  0  0
    6.4694    0.7430   22.6103 C   0  0  0  0  0  0  0  0  0  0  0  0
    7.4635    0.6275   21.4412 C   0  0  1  0  0  0  0  0  0  0  0  0
    6.9322   -3.5877   22.2934 C   0  0  0  0  0  0  0  0  0  0  0  0
    4.7990    2.6723   23.8810 C   0  0  0  0  0  0  0  0  0  0  0  0
   11.4591   -0.6774   26.9342 N   0  0  0  0  0  0  0  0  0  0  0  0
    8.5473   -4.2039   25.5413 N   0  0  0  0  0  0  0  0  0  0  0  0
    7.0112    1.5961   23.6634 N   0  0  0  0  0  0  0  0  0  0  0  0
    7.0844   -2.2078   21.9536 N   0  0  0  0  0  0  0  0  0  0  0  0
    6.8000    3.7007   24.6274 O   0  0  0  0  0  0  0  0  0  0  0  0
   10.9685   -4.7877   25.6457 O   0  0  0  0  0  0  0  0  0  0  0  0
    9.4985   -5.1915   27.6825 O   0  0  0  0  0  0  0  0  0  0  0  0
    6.8467   -6.9286   26.8544 F   0  0  0  0  0  0  0  0  0  0  0  0
    9.8789   -4.3732   26.5287 S   0  0  0  0  0  0  0  0  0  0  0  0
    4.4953    3.4034   22.3094 Cl  0  0  0  0  0  0  0  0  0  0  0  0
    5.9983   -2.9822   30.1593 H   0  0  0  0  0  0  0  0  0  0  0  0
   12.4821   -0.4952   23.1670 H   0  0  0  0  0  0  0  0  0  0  0  0
   11.8849   -0.8383   20.7852 H   0  0  0  0  0  0  0  0  0  0  0  0
    5.7641   -0.3099   17.1979 H   0  0  0  0  0  0  0  0  0  0  0  0
    5.4679   -2.7198   17.7061 H   0  0  0  0  0  0  0  0  0  0  0  0
    5.6793   -5.3260   30.9070 H   0  0  0  0  0  0  0  0  0  0  0  0
    9.5898   -0.6773   29.7631 H   0  0  0  0  0  0  0  0  0  0  0  0
    6.7187   -2.5030   27.8489 H   0  0  0  0  0  0  0  0  0  0  0  0
   10.8076    0.3954   24.7466 H   0  0  0  0  0  0  0  0  0  0  0  0
    9.6098   -0.3249   19.9891 H   0  0  0  0  0  0  0  0  0  0  0  0
    6.6787    1.2172   18.9132 H   0  0  0  0  0  0  0  0  0  0  0  0
    6.0853   -3.6050   19.9287 H   0  0  0  0  0  0  0  0  0  0  0  0
    6.0846   -7.1975   29.3296 H   0  0  0  0  0  0  0  0  0  0  0  0
    9.0128   -2.9431   28.9216 H   0  0  0  0  0  0  0  0  0  0  0  0
    5.3741   -4.1170   24.7716 H   0  0  0  0  0  0  0  0  0  0  0  0
   11.1733    0.7196   28.4240 H   0  0  0  0  0  0  0  0  0  0  0  0
   11.5961   -2.2087   25.5676 H   0  0  0  0  0  0  0  0  0  0  0  0
    9.5728   -3.8146   23.7029 H   0  0  0  0  0  0  0  0  0  0  0  0
    8.0317    0.3499   25.0162 H   0  0  0  0  0  0  0  0  0  0  0  0
    8.7149    1.9702   24.7699 H   0  0  0  0  0  0  0  0  0  0  0  0
    5.5436    1.2162   22.2696 H   0  0  0  0  0  0  0  0  0  0  0  0
    6.2096   -0.2442   22.9967 H   0  0  0  0  0  0  0  0  0  0  0  0
    7.4888    1.6328   20.9533 H   0  0  0  0  0  0  0  0  0  0  0  0
    7.5431   -4.1753   21.5995 H   0  0  0  0  0  0  0  0  0  0  0  0
    5.8866   -3.8621   22.1187 H   0  0  0  0  0  0  0  0  0  0  0  0
    4.3187    3.2518   24.6607 H   0  0  0  0  0  0  0  0  0  0  0  0
    4.4722    1.6391   23.8811 H   0  0  0  0  0  0  0  0  0  0  0  0
    7.4506   -1.5596   22.6239 H   0  0  0  0  0  0  0  0  0  0  0  0
  1  6  1  0  0  0  0
  1  8  2  0  0  0  0
  2  3  1  0  0  0  0
  2  9  2  0  0  0  0
  3 10  2  0  0  0  0
  4  5  1  0  0  0  0
  4 11  2  0  0  0  0
  5 12  2  0  0  0  0
  6 13  2  0  0  0  0
  7 14  2  0  0  0  0
  7 16  1  0  0  0  0
  8 19  1  0  0  0  0
  9 20  1  0  0  0  0
 10 21  1  0  0  0  0
 11 22  1  0  0  0  0
 12 24  1  0  0  0  0
 13 25  1  0  0  0  0
 14 26  1  0  0  0  0
 15 23  1  0  0  0  0
 15 27  2  0  0  0  0
 16 34  2  0  0  0  0
 17 26  2  0  0  0  0
 17 34  1  0  0  0  0
 18 23  2  0  0  0  0
 18 35  1  0  0  0  0
 19 25  2  0  0  0  0
 19 27  1  0  0  0  0
 20 21  2  0  0  0  0
 20 29  1  0  0  0  0
 21 31  1  0  0  0  0
 22 24  2  0  0  0  0
 22 31  1  0  0  0  0
 23 32  1  0  0  0  0
 24 37  1  0  0  0  0
 25 41  1  0  0  0  0
 26 42  1  0  0  0  0
 27 35  1  0  0  0  0
 28 33  1  0  0  0  0
 28 36  1  0  0  0  0
 28 38  2  0  0  0  0
 29 36  1  0  0  0  0
 30 31  1  0  0  0  0
 30 36  1  0  0  0  0
 32 37  1  0  0  0  0
 33 43  1  0  0  0  0
 35 42  1  0  0  0  0
 39 42  2  0  0  0  0
 40 42  2  0  0  0  0
  1 44  1  0  0  0  0
  2 45  1  0  0  0  0
  3 46  1  0  0  0  0
  4 47  1  0  0  0  0
  5 48  1  0  0  0  0
  6 49  1  0  0  0  0
  7 50  1  0  0  0  0
  8 51  1  0  0  0  0
  9 52  1  0  0  0  0
 10 53  1  0  0  0  0
 11 54  1  0  0  0  0
 12 55  1  0  0  0  0
 13 56  1  0  0  0  0
 14 57  1  0  0  0  0
 15 58  1  0  0  0  0
 16 59  1  0  0  0  0
 17 60  1  0  0  0  0
 18 61  1  0  0  0  0
 29 62  1  0  0  0  0
 29 63  1  0  0  0  0
 30 64  1  0  0  0  0
 30 65  1  0  0  0  0
 31 66  1  0  0  0  0
 32 67  1  0  0  0  0
 32 68  1  0  0  0  0
 33 69  1  0  0  0  0
 33 70  1  0  0  0  0
 37 71  1  0  0  0  0
M  END
> <creator>
Maksym Voznyy

> <fragments>
x0387

> <real_space>
FALSE

> <SCR>
FALSE

> <BB>
FALSE

> <link>
https://covid.postera.ai/covid/submissions/702fb7d3-1941-4d37-9e1c-6a10ebd67f09

> <covalent_frag>
FALSE

> <covalent_warhead>
TRUE

> <acrylamide>
FALSE

> <acrylamide_adduct>
FALSE

> <chloroacetamide>
TRUE

> <chloroacetamide_adduct>
FALSE

> <vinylsulfonamide>
FALSE

> <vinylsulfonamide_adduct>
FALSE

> <in_molport_or_mcule>
FALSE

> <in_emolecules>
FALSE

> <Hybrid2>
3.560473

> <Mpro-x0387_dock>
3.560473

> <site>
active-noncovalent

> <covalent_distance_min>
9.906961

> <covalent_distance_mean>
10.246855

> <covalent_distance_stderr>
0.04959861

$$$$
MAK-UNK-8fd-23
  -OEChem-04062011563D

 74 77  0     0  0  0  0  0  0999 V2000
   10.4022   -2.2774   21.4736 C   0  0  0  0  0  0  0  0  0  0  0  0
   11.4769   -3.1221   21.1962 C   0  0  0  0  0  0  0  0  0  0  0  0
   10.6348   -0.9657   21.8873 C   0  0  0  0  0  0  0  0  0  0  0  0
   12.7842   -2.6553   21.3327 C   0  0  0  0  0  0  0  0  0  0  0  0
   10.0515    1.0711   26.5296 C   0  0  0  0  0  0  0  0  0  0  0  0
    8.7091    1.0225   26.8885 C   0  0  0  0  0  0  0  0  0  0  0  0
   12.3092    1.9961   21.6830 C   0  0  0  0  0  0  0  0  0  0  0  0
    9.6805   -0.7868   25.0917 C   0  0  0  0  0  0  0  0  0  0  0  0
   12.5267    2.5809   23.8465 C   0  0  0  0  0  0  0  0  0  0  0  0
   11.9421   -0.4989   22.0238 C   0  0  0  0  0  0  0  0  0  0  0  0
   12.5295    3.0835   22.5640 C   0  0  0  0  0  0  0  0  0  0  0  0
   13.0169   -1.3437   21.7465 C   0  0  0  0  0  0  0  0  0  0  0  0
   10.5544    0.1527   25.6147 C   0  0  0  0  0  0  0  0  0  0  0  0
   12.1782    0.8621   22.4540 C   0  0  0  0  0  0  0  0  0  0  0  0
    7.9178    0.0442   26.3084 C   0  0  0  0  0  0  0  0  0  0  0  0
    5.9591   -1.1389   27.2959 C   0  0  0  0  0  0  0  0  0  0  0  0
    5.2858   -6.4216   27.4153 C   0  0  0  0  0  0  0  0  0  0  0  0
    6.4899   -3.1595   28.6417 C   0  0  0  0  0  0  0  0  0  0  0  0
    6.7608   -3.1791   26.1004 C   0  0  0  0  0  0  0  0  0  0  0  0
    6.6846   -4.6563   28.4302 C   0  0  0  0  0  0  0  0  0  0  0  0
    5.6793   -4.2541   26.1781 C   0  0  0  0  0  0  0  0  0  0  0  0
    6.8449   -2.3490   27.3877 C   0  0  0  0  0  0  0  0  0  0  0  0
    5.2234    1.7117   27.8477 C   0  0  0  0  0  0  0  0  0  0  0  0
    4.6185    0.9712   25.5170 C   0  0  0  0  0  0  0  0  0  0  0  0
   11.7149    6.7715   22.0017 C   0  0  0  0  0  0  0  0  0  0  0  0
   12.7261    4.4946   22.1802 C   0  0  0  0  0  0  0  0  0  0  0  0
    4.4557   -6.8624   26.2345 C   0  0  0  0  0  0  0  0  0  0  0  0
    5.7489    1.2405   26.4994 C   0  0  0  0  0  0  0  0  0  0  0  0
    8.3705   -0.8650   25.4162 N   0  0  0  0  0  0  0  0  0  0  0  0
   12.3120    1.2297   23.7675 N   0  0  0  0  0  0  0  0  0  0  0  0
    5.8596   -5.1519   27.3263 N   0  0  0  0  0  0  0  0  0  0  0  0
    6.5202    0.0022   26.6891 N   0  0  0  0  0  0  0  0  0  0  0  0
   11.5383    5.3652   22.4397 N   0  3  0  0  0  0  0  0  0  0  0  0
    4.8057   -1.2351   27.7228 O   0  0  0  0  0  0  0  0  0  0  0  0
    5.4243   -7.1788   28.3788 O   0  0  0  0  0  0  0  0  0  0  0  0
   13.0271    0.8888   26.1310 O   0  0  0  0  0  0  0  0  0  0  0  0
   12.5922   -1.1368   24.6543 O   0  0  0  0  0  0  0  0  0  0  0  0
   14.2797   -0.9101   21.8728 F   0  0  0  0  0  0  0  0  0  0  0  0
   12.2294    0.1825   25.1419 S   0  0  0  0  0  0  0  0  0  0  0  0
    5.5577   -7.6479   25.1092 Cl  0  0  0  0  0  0  0  0  0  0  0  0
    9.3843   -2.6410   21.3668 H   0  0  0  0  0  0  0  0  0  0  0  0
   11.2958   -4.1433   20.8735 H   0  0  0  0  0  0  0  0  0  0  0  0
    9.7861   -0.3197   22.0996 H   0  0  0  0  0  0  0  0  0  0  0  0
   13.6211   -3.3129   21.1164 H   0  0  0  0  0  0  0  0  0  0  0  0
   10.6968    1.8273   26.9680 H   0  0  0  0  0  0  0  0  0  0  0  0
    8.3084    1.7354   27.6019 H   0  0  0  0  0  0  0  0  0  0  0  0
   12.2528    2.0382   20.6033 H   0  0  0  0  0  0  0  0  0  0  0  0
   10.0146   -1.5293   24.3737 H   0  0  0  0  0  0  0  0  0  0  0  0
   12.6588    3.0714   24.8021 H   0  0  0  0  0  0  0  0  0  0  0  0
    5.4544   -2.9668   28.9393 H   0  0  0  0  0  0  0  0  0  0  0  0
    7.1295   -2.8311   29.4683 H   0  0  0  0  0  0  0  0  0  0  0  0
    7.7266   -3.6637   25.9299 H   0  0  0  0  0  0  0  0  0  0  0  0
    6.5655   -2.5307   25.2428 H   0  0  0  0  0  0  0  0  0  0  0  0
    7.7459   -4.8675   28.2464 H   0  0  0  0  0  0  0  0  0  0  0  0
    6.4003   -5.2196   29.3300 H   0  0  0  0  0  0  0  0  0  0  0  0
    4.6811   -3.7963   26.2831 H   0  0  0  0  0  0  0  0  0  0  0  0
    5.6551   -4.8084   25.2291 H   0  0  0  0  0  0  0  0  0  0  0  0
    7.8626   -1.9601   27.4952 H   0  0  0  0  0  0  0  0  0  0  0  0
    4.5474    0.9691   28.2838 H   0  0  0  0  0  0  0  0  0  0  0  0
    6.0406    1.8872   28.5563 H   0  0  0  0  0  0  0  0  0  0  0  0
    4.6716    2.6522   27.7424 H   0  0  0  0  0  0  0  0  0  0  0  0
    3.9314    0.2156   25.9133 H   0  0  0  0  0  0  0  0  0  0  0  0
    5.0104    0.6056   24.5623 H   0  0  0  0  0  0  0  0  0  0  0  0
    4.0338    1.8771   25.3214 H   0  0  0  0  0  0  0  0  0  0  0  0
   11.9373    6.7630   20.9331 H   0  0  0  0  0  0  0  0  0  0  0  0
   10.7840    7.3042   22.2048 H   0  0  0  0  0  0  0  0  0  0  0  0
   12.5431    7.1974   22.5713 H   0  0  0  0  0  0  0  0  0  0  0  0
   13.5632    4.9661   22.7251 H   0  0  0  0  0  0  0  0  0  0  0  0
   12.9486    4.6105   21.1045 H   0  0  0  0  0  0  0  0  0  0  0  0
    4.0114   -5.9886   25.7716 H   0  0  0  0  0  0  0  0  0  0  0  0
    3.7064   -7.5675   26.5754 H   0  0  0  0  0  0  0  0  0  0  0  0
    6.4219    1.9977   26.0826 H   0  0  0  0  0  0  0  0  0  0  0  0
   11.3275    5.3425   23.4441 H   0  0  0  0  0  0  0  0  0  0  0  0
   10.7230    4.9584   21.9670 H   0  0  0  0  0  0  0  0  0  0  0  0
  1  2  1  0  0  0  0
  1  3  2  0  0  0  0
  2  4  2  0  0  0  0
  3 10  1  0  0  0  0
  4 12  1  0  0  0  0
  5  6  2  0  0  0  0
  5 13  1  0  0  0  0
  6 15  1  0  0  0  0
  7 11  1  0  0  0  0
  7 14  2  0  0  0  0
  8 13  2  0  0  0  0
  8 29  1  0  0  0  0
  9 11  2  0  0  0  0
  9 30  1  0  0  0  0
 10 12  2  0  0  0  0
 10 14  1  0  0  0  0
 11 26  1  0  0  0  0
 12 38  1  0  0  0  0
 13 39  1  0  0  0  0
 14 30  1  0  0  0  0
 15 29  2  0  0  0  0
 15 32  1  0  0  0  0
 16 22  1  0  0  0  0
 16 32  1  0  0  0  0
 16 34  2  0  0  0  0
 17 27  1  0  0  0  0
 17 31  1  0  0  0  0
 17 35  2  0  0  0  0
 18 20  1  0  0  0  0
 18 22  1  0  0  0  0
 19 21  1  0  0  0  0
 19 22  1  0  0  0  0
 20 31  1  0  0  0  0
 21 31  1  0  0  0  0
 23 28  1  0  0  0  0
 24 28  1  0  0  0  0
 25 33  1  0  0  0  0
 26 33  1  0  0  0  0
 27 40  1  0  0  0  0
 28 32  1  0  0  0  0
 30 39  1  0  0  0  0
 36 39  2  0  0  0  0
 37 39  2  0  0  0  0
  1 41  1  0  0  0  0
  2 42  1  0  0  0  0
  3 43  1  0  0  0  0
  4 44  1  0  0  0  0
  5 45  1  0  0  0  0
  6 46  1  0  0  0  0
  7 47  1  0  0  0  0
  8 48  1  0  0  0  0
  9 49  1  0  0  0  0
 18 50  1  0  0  0  0
 18 51  1  0  0  0  0
 19 52  1  0  0  0  0
 19 53  1  0  0  0  0
 20 54  1  0  0  0  0
 20 55  1  0  0  0  0
 21 56  1  0  0  0  0
 21 57  1  0  0  0  0
 22 58  1  0  0  0  0
 23 59  1  0  0  0  0
 23 60  1  0  0  0  0
 23 61  1  0  0  0  0
 24 62  1  0  0  0  0
 24 63  1  0  0  0  0
 24 64  1  0  0  0  0
 25 65  1  0  0  0  0
 25 66  1  0  0  0  0
 25 67  1  0  0  0  0
 26 68  1  0  0  0  0
 26 69  1  0  0  0  0
 27 70  1  0  0  0  0
 27 71  1  0  0  0  0
 28 72  1  0  0  0  0
 33 73  1  0  0  0  0
 33 74  1  0  0  0  0
M  CHG  1  33   1
M  END
> <creator>
Maksym Voznyy

> <fragments>
x0305

> <real_space>
FALSE

> <SCR>
FALSE

> <BB>
FALSE

> <link>
https://covid.postera.ai/covid/submissions/8fdbca50-c94c-4218-91b0-3b0489774fa8

> <covalent_frag>
FALSE

> <covalent_warhead>
TRUE

> <acrylamide>
FALSE

> <acrylamide_adduct>
FALSE

> <chloroacetamide>
TRUE

> <chloroacetamide_adduct>
FALSE

> <vinylsulfonamide>
FALSE

> <vinylsulfonamide_adduct>
FALSE

> <in_molport_or_mcule>
FALSE

> <in_emolecules>
FALSE

> <Hybrid2>
3.987191

> <Mpro-x0305_dock>
3.987191

> <site>
active-noncovalent

> <covalent_distance_min>
6.331222

> <covalent_distance_mean>
8.378713

> <covalent_distance_stderr>
0.1131757

$$$$
MAK-UNK-702-6
  -OEChem-04062011563D

 72 77  0     1  0  0  0  0  0999 V2000
   13.4118    0.5110   23.3483 C   0  0  0  0  0  0  0  0  0  0  0  0
    4.9151   -7.1576   21.6034 C   0  0  0  0  0  0  0  0  0  0  0  0
   12.6810    1.6990   23.3628 C   0  0  0  0  0  0  0  0  0  0  0  0
   12.8139   -0.6703   22.9093 C   0  0  0  0  0  0  0  0  0  0  0  0
    6.8647    3.5155   24.0683 C   0  0  0  0  0  0  0  0  0  0  0  0
    7.7749    2.7478   24.7856 C   0  0  0  0  0  0  0  0  0  0  0  0
    3.6278   -7.1178   22.1388 C   0  0  0  0  0  0  0  0  0  0  0  0
    7.8779   -4.8069   29.3116 C   0  0  0  0  0  0  0  0  0  0  0  0
    5.8844   -6.2595   22.0502 C   0  0  0  0  0  0  0  0  0  0  0  0
   11.3523    1.7057   22.9384 C   0  0  0  0  0  0  0  0  0  0  0  0
   11.4852   -0.6636   22.4849 C   0  0  0  0  0  0  0  0  0  0  0  0
    6.7167    3.3146   22.6976 C   0  0  0  0  0  0  0  0  0  0  0  0
    8.5493    1.7908   24.1295 C   0  0  0  0  0  0  0  0  0  0  0  0
    3.3096   -6.1799   23.1210 C   0  0  0  0  0  0  0  0  0  0  0  0
    8.1636   -5.1870   28.0050 C   0  0  0  0  0  0  0  0  0  0  0  0
    6.8771   -3.1406   23.0013 C   0  0  0  0  0  0  0  0  0  0  0  0
    6.5502   -4.7938   29.7076 C   0  0  0  0  0  0  0  0  0  0  0  0
    5.8334   -5.4917   27.6395 C   0  0  0  0  0  0  0  0  0  0  0  0
    8.2538   -3.5758   24.7291 C   0  0  0  0  0  0  0  0  0  0  0  0
    5.5663   -5.3216   23.0324 C   0  0  0  0  0  0  0  0  0  0  0  0
   10.7544    0.5244   22.4994 C   0  0  0  0  0  0  0  0  0  0  0  0
    7.4827    2.3477   22.0253 C   0  0  0  0  0  0  0  0  0  0  0  0
    8.4383    1.5964   22.7394 C   0  0  0  0  0  0  0  0  0  0  0  0
    7.9392   -2.6244   23.7840 C   0  0  0  0  0  0  0  0  0  0  0  0
    4.2789   -5.2818   23.5678 C   0  0  0  0  0  0  0  0  0  0  0  0
    7.1275   -5.5374   27.1465 C   0  0  0  0  0  0  0  0  0  0  0  0
    6.5749   -4.3917   23.4921 C   0  0  0  0  0  0  0  0  0  0  0  0
    7.4531    0.2034   18.9406 C   0  0  0  0  0  0  0  0  0  0  0  0
    7.2466    2.1540   20.5470 C   0  0  0  0  0  0  0  0  0  0  0  0
    9.2878    0.7688   20.4969 C   0  0  0  0  0  0  0  0  0  0  0  0
    9.2856    0.5310   22.0303 C   0  0  1  0  0  0  0  0  0  0  0  0
    8.6005   -1.2883   23.6157 C   0  0  0  0  0  0  0  0  0  0  0  0
    7.8699   -1.2463   18.9423 C   0  0  0  0  0  0  0  0  0  0  0  0
    5.5169   -5.1276   28.9024 N   0  0  0  0  0  0  0  0  0  0  0  0
    7.4178   -4.6456   24.5423 N   0  0  0  0  0  0  0  0  0  0  0  0
    7.9379    0.9912   19.9857 N   0  0  0  0  0  0  0  0  0  0  0  0
    8.5914   -0.8095   22.2171 N   0  3  0  0  0  0  0  0  0  0  0  0
    6.7257    0.6219   18.0365 O   0  0  0  0  0  0  0  0  0  0  0  0
    8.8294   -6.5153   25.3944 O   0  0  0  0  0  0  0  0  0  0  0  0
    6.3324   -6.8826   25.0739 O   0  0  0  0  0  0  0  0  0  0  0  0
    3.9571   -4.3862   24.5128 F   0  0  0  0  0  0  0  0  0  0  0  0
    7.4528   -6.0276   25.4727 S   0  0  0  0  0  0  0  0  0  0  0  0
    6.5473   -2.1508   18.2144 Cl  0  0  0  0  0  0  0  0  0  0  0  0
   14.4468    0.5063   23.6776 H   0  0  0  0  0  0  0  0  0  0  0  0
    5.1628   -7.8883   20.8389 H   0  0  0  0  0  0  0  0  0  0  0  0
   13.1467    2.6192   23.7036 H   0  0  0  0  0  0  0  0  0  0  0  0
   13.3829   -1.5952   22.8969 H   0  0  0  0  0  0  0  0  0  0  0  0
    6.2757    4.2751   24.5733 H   0  0  0  0  0  0  0  0  0  0  0  0
    7.8841    2.8926   25.8563 H   0  0  0  0  0  0  0  0  0  0  0  0
    2.8732   -7.8174   21.7913 H   0  0  0  0  0  0  0  0  0  0  0  0
    8.6694   -4.5297   29.9983 H   0  0  0  0  0  0  0  0  0  0  0  0
    6.8834   -6.3035   21.6228 H   0  0  0  0  0  0  0  0  0  0  0  0
   10.7906    2.6360   22.9533 H   0  0  0  0  0  0  0  0  0  0  0  0
   11.0277   -1.5888   22.1446 H   0  0  0  0  0  0  0  0  0  0  0  0
    6.0038    3.9252   22.1478 H   0  0  0  0  0  0  0  0  0  0  0  0
    9.2438    1.1965   24.7186 H   0  0  0  0  0  0  0  0  0  0  0  0
    2.3074   -6.1491   23.5382 H   0  0  0  0  0  0  0  0  0  0  0  0
    9.1956   -5.2068   27.6660 H   0  0  0  0  0  0  0  0  0  0  0  0
    6.3875   -2.6509   22.1699 H   0  0  0  0  0  0  0  0  0  0  0  0
    6.2745   -4.5048   30.7165 H   0  0  0  0  0  0  0  0  0  0  0  0
    4.9835   -5.7540   27.0171 H   0  0  0  0  0  0  0  0  0  0  0  0
    8.9990   -3.5784   25.5139 H   0  0  0  0  0  0  0  0  0  0  0  0
    6.1738    2.0020   20.3700 H   0  0  0  0  0  0  0  0  0  0  0  0
    7.5513    3.0639   20.0208 H   0  0  0  0  0  0  0  0  0  0  0  0
    9.9414    1.6101   20.2334 H   0  0  0  0  0  0  0  0  0  0  0  0
    9.6734   -0.1130   19.9651 H   0  0  0  0  0  0  0  0  0  0  0  0
    8.0992   -0.5202   24.2144 H   0  0  0  0  0  0  0  0  0  0  0  0
    9.6494   -1.3239   23.9292 H   0  0  0  0  0  0  0  0  0  0  0  0
    8.0210   -1.5666   19.9666 H   0  0  0  0  0  0  0  0  0  0  0  0
    8.7679   -1.3536   18.3452 H   0  0  0  0  0  0  0  0  0  0  0  0
    7.6296   -0.7163   21.8829 H   0  0  0  0  0  0  0  0  0  0  0  0
    9.0509   -1.4905   21.6084 H   0  0  0  0  0  0  0  0  0  0  0  0
  1  3  1  0  0  0  0
  1  4  2  0  0  0  0
  2  7  1  0  0  0  0
  2  9  2  0  0  0  0
  3 10  2  0  0  0  0
  4 11  1  0  0  0  0
  5  6  1  0  0  0  0
  5 12  2  0  0  0  0
  6 13  2  0  0  0  0
  7 14  2  0  0  0  0
  8 15  2  0  0  0  0
  8 17  1  0  0  0  0
  9 20  1  0  0  0  0
 10 21  1  0  0  0  0
 11 21  2  0  0  0  0
 12 22  1  0  0  0  0
 13 23  1  0  0  0  0
 14 25  1  0  0  0  0
 15 26  1  0  0  0  0
 16 24  1  0  0  0  0
 16 27  2  0  0  0  0
 17 34  2  0  0  0  0
 18 26  2  0  0  0  0
 18 34  1  0  0  0  0
 19 24  2  0  0  0  0
 19 35  1  0  0  0  0
 20 25  2  0  0  0  0
 20 27  1  0  0  0  0
 21 31  1  0  0  0  0
 22 23  2  0  0  0  0
 22 29  1  0  0  0  0
 23 31  1  0  0  0  0
 24 32  1  0  0  0  0
 25 41  1  0  0  0  0
 26 42  1  0  0  0  0
 27 35  1  0  0  0  0
 28 33  1  0  0  0  0
 28 36  1  0  0  0  0
 28 38  2  0  0  0  0
 29 36  1  0  0  0  0
 30 31  1  0  0  0  0
 30 36  1  0  0  0  0
 31 37  1  0  0  0  0
 32 37  1  0  0  0  0
 33 43  1  0  0  0  0
 35 42  1  0  0  0  0
 39 42  2  0  0  0  0
 40 42  2  0  0  0  0
  1 44  1  0  0  0  0
  2 45  1  0  0  0  0
  3 46  1  0  0  0  0
  4 47  1  0  0  0  0
  5 48  1  0  0  0  0
  6 49  1  0  0  0  0
  7 50  1  0  0  0  0
  8 51  1  0  0  0  0
  9 52  1  0  0  0  0
 10 53  1  0  0  0  0
 11 54  1  0  0  0  0
 12 55  1  0  0  0  0
 13 56  1  0  0  0  0
 14 57  1  0  0  0  0
 15 58  1  0  0  0  0
 16 59  1  0  0  0  0
 17 60  1  0  0  0  0
 18 61  1  0  0  0  0
 19 62  1  0  0  0  0
 29 63  1  0  0  0  0
 29 64  1  0  0  0  0
 30 65  1  0  0  0  0
 30 66  1  0  0  0  0
 32 67  1  0  0  0  0
 32 68  1  0  0  0  0
 33 69  1  0  0  0  0
 33 70  1  0  0  0  0
 37 71  1  0  0  0  0
 37 72  1  0  0  0  0
M  CHG  1  37   1
M  END
> <creator>
Maksym Voznyy

> <fragments>
x0387

> <real_space>
FALSE

> <SCR>
FALSE

> <BB>
FALSE

> <link>
https://covid.postera.ai/covid/submissions/702fb7d3-1941-4d37-9e1c-6a10ebd67f09

> <covalent_frag>
FALSE

> <covalent_warhead>
TRUE

> <acrylamide>
FALSE

> <acrylamide_adduct>
FALSE

> <chloroacetamide>
TRUE

> <chloroacetamide_adduct>
FALSE

> <vinylsulfonamide>
FALSE

> <vinylsulfonamide_adduct>
FALSE

> <in_molport_or_mcule>
FALSE

> <in_emolecules>
FALSE

> <Hybrid2>
4.207771

> <Mpro-x0387_dock>
4.207771

> <site>
active-noncovalent

> <covalent_distance_min>
4.207862

> <covalent_distance_mean>
4.911997

> <covalent_distance_stderr>
0.02827743

$$$$
INS-INS-bc9-1
  -OEChem-04062011563D

 62 66  0     1  0  0  0  0  0999 V2000
    2.5663   -8.2688   27.8980 C   0  0  0  0  0  0  0  0  0  0  0  0
    8.2188   -6.9898   22.5794 C   0  0  0  0  0  0  0  0  0  0  0  0
    8.6931   -6.4175   23.7597 C   0  0  0  0  0  0  0  0  0  0  0  0
    7.7218   -6.1769   21.5606 C   0  0  0  0  0  0  0  0  0  0  0  0
    9.4454   -2.0060   25.9417 C   0  0  0  0  0  0  0  0  0  0  0  0
    5.9624   -4.7434   27.1114 C   0  0  0  0  0  0  0  0  0  0  0  0
    5.4499   -3.9821   24.8582 C   0  0  0  0  0  0  0  0  0  0  0  0
    8.1730   -4.2192   22.9027 C   0  0  0  0  0  0  0  0  0  0  0  0
    8.6921   -0.9741   26.4567 C   0  0  0  0  0  0  0  0  0  0  0  0
    6.2411   -3.9230   26.0162 C   0  0  0  0  0  0  0  0  0  0  0  0
    8.6701   -5.0322   23.9213 C   0  0  0  0  0  0  0  0  0  0  0  0
    8.6671   -3.1791   25.7222 C   0  0  0  0  0  0  0  0  0  0  0  0
    4.8812   -5.6048   27.0282 C   0  0  0  0  0  0  0  0  0  0  0  0
    4.0927   -5.6637   25.8743 C   0  0  0  0  0  0  0  0  0  0  0  0
    7.6989   -4.7916   21.7223 C   0  0  0  0  0  0  0  0  0  0  0  0
    4.3688   -4.8624   24.7790 C   0  0  0  0  0  0  0  0  0  0  0  0
    7.3484   -2.9992   26.0781 C   0  0  0  0  0  0  0  0  0  0  0  0
    9.1812   -4.4165   25.1916 C   0  0  0  0  0  0  0  0  0  0  0  0
    3.4329   -3.7522   22.8080 C   0  0  0  0  0  0  0  0  0  0  0  0
    4.4131   -6.5948   28.0483 C   0  0  0  0  0  0  0  0  0  0  0  0
    3.0202   -6.6985   26.0101 C   0  0  0  0  0  0  0  0  0  0  0  0
    1.7196   -5.9392   22.3919 C   0  0  0  0  0  0  0  0  0  0  0  0
    1.3530   -7.2933   21.7958 C   0  0  0  0  0  0  0  0  0  0  0  0
    3.9589   -6.8971   22.2048 C   0  0  0  0  0  0  0  0  0  0  0  0
    2.9919   -6.9119   27.5380 C   0  0  1  0  0  0  0  0  0  0  0  0
    3.0254   -6.1557   23.1609 C   0  0  1  0  0  0  0  0  0  0  0  0
    3.3589   -2.4247   23.5417 C   0  0  0  0  0  0  0  0  0  0  0  0
    7.1672   -3.9222   20.6331 C   0  0  0  0  0  0  0  0  0  0  0  0
    2.2297   -9.3420   28.1828 N   0  0  0  0  0  0  0  0  0  0  0  0
    3.5922   -4.9194   23.6224 N   0  0  0  0  0  0  0  0  0  0  0  0
   10.0889   -5.0354   25.7809 O   0  0  0  0  0  0  0  0  0  0  0  0
    3.3432   -3.7857   21.5781 O   0  0  0  0  0  0  0  0  0  0  0  0
    3.0082   -9.3403   21.9066 O   0  0  0  0  0  0  0  0  0  0  0  0
    3.0986   -7.8081   19.8864 O   0  0  0  0  0  0  0  0  0  0  0  0
    6.7383   -4.6173   19.5382 F   0  0  0  0  0  0  0  0  0  0  0  0
    6.0983   -3.1618   21.0133 F   0  0  0  0  0  0  0  0  0  0  0  0
    8.0969   -3.0393   20.1652 F   0  0  0  0  0  0  0  0  0  0  0  0
    7.0533   -1.4211   26.6738 S   0  0  0  0  0  0  0  0  0  0  0  0
    2.9064   -8.0271   21.3050 S   0  0  0  0  0  0  0  0  0  0  0  0
    1.9933   -2.4309   24.6775 Cl  0  0  0  0  0  0  0  0  0  0  0  0
    8.2356   -8.0686   22.4540 H   0  0  0  0  0  0  0  0  0  0  0  0
    9.0787   -7.0603   24.5469 H   0  0  0  0  0  0  0  0  0  0  0  0
    7.3549   -6.6315   20.6441 H   0  0  0  0  0  0  0  0  0  0  0  0
   10.5044   -1.9175   25.7342 H   0  0  0  0  0  0  0  0  0  0  0  0
    6.5713   -4.7135   28.0104 H   0  0  0  0  0  0  0  0  0  0  0  0
    5.6758   -3.3323   24.0140 H   0  0  0  0  0  0  0  0  0  0  0  0
    8.1534   -3.1389   23.0275 H   0  0  0  0  0  0  0  0  0  0  0  0
    9.0256    0.0209   26.7159 H   0  0  0  0  0  0  0  0  0  0  0  0
    5.0591   -7.4751   28.0950 H   0  0  0  0  0  0  0  0  0  0  0  0
    4.3722   -6.1084   29.0277 H   0  0  0  0  0  0  0  0  0  0  0  0
    2.0707   -6.2799   25.6622 H   0  0  0  0  0  0  0  0  0  0  0  0
    3.2497   -7.6131   25.4574 H   0  0  0  0  0  0  0  0  0  0  0  0
    1.8059   -5.1696   21.6230 H   0  0  0  0  0  0  0  0  0  0  0  0
    0.9391   -5.6255   23.0918 H   0  0  0  0  0  0  0  0  0  0  0  0
    0.8495   -7.9431   22.5146 H   0  0  0  0  0  0  0  0  0  0  0  0
    0.7358   -7.1800   20.9000 H   0  0  0  0  0  0  0  0  0  0  0  0
    4.4853   -6.2428   21.5088 H   0  0  0  0  0  0  0  0  0  0  0  0
    4.6808   -7.4983   22.7634 H   0  0  0  0  0  0  0  0  0  0  0  0
    2.2639   -6.2054   28.0001 H   0  0  0  0  0  0  0  0  0  0  0  0
    2.8398   -6.7816   24.0560 H   0  0  0  0  0  0  0  0  0  0  0  0
    4.2768   -2.2641   24.1128 H   0  0  0  0  0  0  0  0  0  0  0  0
    3.1853   -1.5993   22.8472 H   0  0  0  0  0  0  0  0  0  0  0  0
  1 25  1  0  0  0  0
  1 29  3  0  0  0  0
  2  3  2  0  0  0  0
  2  4  1  0  0  0  0
  3 11  1  0  0  0  0
  4 15  2  0  0  0  0
  5  9  2  0  0  0  0
  5 12  1  0  0  0  0
  6 10  2  0  0  0  0
  6 13  1  0  0  0  0
  7 10  1  0  0  0  0
  7 16  2  0  0  0  0
  8 11  2  0  0  0  0
  8 15  1  0  0  0  0
  9 38  1  0  0  0  0
 10 17  1  0  0  0  0
 11 18  1  0  0  0  0
 12 17  2  0  0  0  0
 12 18  1  0  0  0  0
 13 14  2  0  0  0  0
 13 20  1  0  0  0  0
 14 16  1  0  0  0  0
 14 21  1  0  0  0  0
 15 28  1  0  0  0  0
 16 30  1  0  0  0  0
 17 38  1  0  0  0  0
 18 31  2  0  0  0  0
 19 27  1  0  0  0  0
 19 30  1  0  0  0  0
 19 32  2  0  0  0  0
 20 25  1  0  0  0  0
 21 25  1  0  0  0  0
 22 23  1  0  0  0  0
 22 26  1  0  0  0  0
 23 39  1  0  0  0  0
 24 26  1  0  0  0  0
 24 39  1  0  0  0  0
 26 30  1  0  0  0  0
 27 40  1  0  0  0  0
 28 35  1  0  0  0  0
 28 36  1  0  0  0  0
 28 37  1  0  0  0  0
 33 39  2  0  0  0  0
 34 39  2  0  0  0  0
  2 41  1  0  0  0  0
  3 42  1  0  0  0  0
  4 43  1  0  0  0  0
  5 44  1  0  0  0  0
  6 45  1  0  0  0  0
  7 46  1  0  0  0  0
  8 47  1  0  0  0  0
  9 48  1  0  0  0  0
 20 49  1  0  0  0  0
 20 50  1  0  0  0  0
 21 51  1  0  0  0  0
 21 52  1  0  0  0  0
 22 53  1  0  0  0  0
 22 54  1  0  0  0  0
 23 55  1  0  0  0  0
 23 56  1  0  0  0  0
 24 57  1  0  0  0  0
 24 58  1  0  0  0  0
 25 59  1  0  0  0  0
 26 60  1  0  0  0  0
 27 61  1  0  0  0  0
 27 62  1  0  0  0  0
M  END
> <creator>
INSCoV_5RFG_5383, Insilico Medicine Hong Kong Ltd

> <fragments>
x1311

> <real_space>
FALSE

> <SCR>
FALSE

> <BB>
FALSE

> <link>
https://covid.postera.ai/covid/submissions/bc954fb0-697e-491f-81af-b427532ff847

> <covalent_frag>
TRUE

> <covalent_warhead>
TRUE

> <acrylamide>
FALSE

> <acrylamide_adduct>
FALSE

> <chloroacetamide>
TRUE

> <chloroacetamide_adduct>
FALSE

> <vinylsulfonamide>
FALSE

> <vinylsulfonamide_adduct>
FALSE

> <in_molport_or_mcule>
FALSE

> <in_emolecules>
FALSE

> <Hybrid2>
4.534545

> <Mpro-x1311_dock>
4.534545

> <site>
active-covalent

> <covalent_distance_min>
5.8676505

> <covalent_distance_mean>
6.7187195

> <covalent_distance_stderr>
0.041165825

$$$$
INS-INS-7e2-1
  -OEChem-04062011563D

 70 75  0     1  0  0  0  0  0999 V2000
    8.6312   -5.0180   19.6248 C   0  0  0  0  0  0  0  0  0  0  0  0
    9.1045   -6.0796   22.6323 C   0  0  0  0  0  0  0  0  0  0  0  0
    7.8969   -3.9956   23.0029 C   0  0  0  0  0  0  0  0  0  0  0  0
    7.6838   -5.0310   18.5835 C   0  0  0  0  0  0  0  0  0  0  0  0
    8.2999   -5.0401   22.1543 C   0  0  0  0  0  0  0  0  0  0  0  0
    9.0882   -5.0166   24.7829 C   0  0  0  0  0  0  0  0  0  0  0  0
    9.4969   -6.0584   23.9614 C   0  0  0  0  0  0  0  0  0  0  0  0
    8.2930   -3.9756   24.3400 C   0  0  0  0  0  0  0  0  0  0  0  0
    7.8789   -5.0403   20.7737 C   0  0  0  0  0  0  0  0  0  0  0  0
    3.8610   -5.6791   22.5290 C   0  0  0  0  0  0  0  0  0  0  0  0
    5.4270   -5.0933   21.1214 C   0  0  0  0  0  0  0  0  0  0  0  0
    3.2590   -6.5260   23.5030 C   0  0  0  0  0  0  0  0  0  0  0  0
    5.1902   -8.0271   23.3132 C   0  0  0  0  0  0  0  0  0  0  0  0
    5.7551   -7.2254   22.3944 C   0  0  0  0  0  0  0  0  0  0  0  0
    9.6351   -5.2364   26.1126 C   0  0  0  0  0  0  0  0  0  0  0  0
    3.8999   -7.6528   23.8775 C   0  0  0  0  0  0  0  0  0  0  0  0
    3.2549   -8.5026   24.8816 C   0  0  0  0  0  0  0  0  0  0  0  0
    8.6928   -1.7559   25.2919 C   0  0  0  0  0  0  0  0  0  0  0  0
   10.3507   -7.0637   24.6691 C   0  0  0  0  0  0  0  0  0  0  0  0
    5.4485   -3.0580   24.8620 C   0  0  0  0  0  0  0  0  0  0  0  0
    4.2034   -3.2867   25.7109 C   0  0  0  0  0  0  0  0  0  0  0  0
    6.4849   -4.1677   26.7756 C   0  0  0  0  0  0  0  0  0  0  0  0
    6.6183   -2.9630   25.8448 C   0  0  1  0  0  0  0  0  0  0  0  0
   10.4521   -6.5255   26.1251 C   0  0  0  0  0  0  0  0  0  0  0  0
    9.8377   -7.5076   27.1243 C   0  0  0  0  0  0  0  0  0  0  0  0
   11.9007   -6.2071   26.4999 C   0  0  0  0  0  0  0  0  0  0  0  0
    1.6644   -8.4209   26.7937 C   0  0  0  0  0  0  0  0  0  0  0  0
   10.0328   -1.7814   24.5781 C   0  0  0  0  0  0  0  0  0  0  0  0
    6.4258   -5.0596   19.0314 N   0  0  0  0  0  0  0  0  0  0  0  0
    3.4980   -4.5430   21.9723 N   0  0  0  0  0  0  0  0  0  0  0  0
    4.4878   -4.1745   21.0829 N   0  0  0  0  0  0  0  0  0  0  0  0
    6.5774   -5.0648   20.3667 N   0  0  0  0  0  0  0  0  0  0  0  0
    5.0880   -6.0679   22.0156 N   0  0  0  0  0  0  0  0  0  0  0  0
    2.4133   -7.7986   25.7256 N   0  0  0  0  0  0  0  0  0  0  0  0
    7.8875   -2.9344   25.1732 N   0  0  0  0  0  0  0  0  0  0  0  0
    9.4558   -4.4928   27.0614 O   0  0  0  0  0  0  0  0  0  0  0  0
    3.4739   -9.7132   24.9229 O   0  0  0  0  0  0  0  0  0  0  0  0
    8.3556   -0.7621   25.9404 O   0  0  0  0  0  0  0  0  0  0  0  0
    4.3681   -3.7613   28.2974 O   0  0  0  0  0  0  0  0  0  0  0  0
    4.3632   -5.7286   26.6955 O   0  0  0  0  0  0  0  0  0  0  0  0
    4.7277   -4.3683   27.0329 S   0  0  0  0  0  0  0  0  0  0  0  0
   10.9012   -0.2570   24.8563 Cl  0  0  0  0  0  0  0  0  0  0  0  0
    9.7087   -4.9954   19.5459 H   0  0  0  0  0  0  0  0  0  0  0  0
    9.4201   -6.8914   21.9830 H   0  0  0  0  0  0  0  0  0  0  0  0
    7.2695   -3.1940   22.6160 H   0  0  0  0  0  0  0  0  0  0  0  0
    7.8579   -5.0209   17.5172 H   0  0  0  0  0  0  0  0  0  0  0  0
    2.2987   -6.2394   23.9185 H   0  0  0  0  0  0  0  0  0  0  0  0
    5.6751   -8.9399   23.6389 H   0  0  0  0  0  0  0  0  0  0  0  0
    6.7116   -7.4460   21.9372 H   0  0  0  0  0  0  0  0  0  0  0  0
    9.8779   -8.0514   24.6300 H   0  0  0  0  0  0  0  0  0  0  0  0
   11.3329   -7.1260   24.1876 H   0  0  0  0  0  0  0  0  0  0  0  0
    5.5832   -3.8484   24.1217 H   0  0  0  0  0  0  0  0  0  0  0  0
    5.3541   -2.1097   24.3242 H   0  0  0  0  0  0  0  0  0  0  0  0
    3.8073   -2.3590   26.1292 H   0  0  0  0  0  0  0  0  0  0  0  0
    3.4235   -3.8021   25.1431 H   0  0  0  0  0  0  0  0  0  0  0  0
    6.9100   -5.0863   26.3692 H   0  0  0  0  0  0  0  0  0  0  0  0
    6.9346   -3.9522   27.7481 H   0  0  0  0  0  0  0  0  0  0  0  0
    6.5428   -2.0290   26.4359 H   0  0  0  0  0  0  0  0  0  0  0  0
   10.4169   -8.4284   27.1367 H   0  0  0  0  0  0  0  0  0  0  0  0
    8.8133   -7.7321   26.8349 H   0  0  0  0  0  0  0  0  0  0  0  0
    9.8412   -7.0681   28.1195 H   0  0  0  0  0  0  0  0  0  0  0  0
   12.4867   -7.1236   26.5099 H   0  0  0  0  0  0  0  0  0  0  0  0
   11.9320   -5.7506   27.4869 H   0  0  0  0  0  0  0  0  0  0  0  0
   12.3246   -5.5182   25.7723 H   0  0  0  0  0  0  0  0  0  0  0  0
    0.6837   -8.7442   26.4146 H   0  0  0  0  0  0  0  0  0  0  0  0
    2.2182   -9.2940   27.1693 H   0  0  0  0  0  0  0  0  0  0  0  0
    1.5215   -7.6981   27.6105 H   0  0  0  0  0  0  0  0  0  0  0  0
   10.6454   -2.5987   24.9668 H   0  0  0  0  0  0  0  0  0  0  0  0
    9.9024   -1.8751   23.4974 H   0  0  0  0  0  0  0  0  0  0  0  0
    2.3174   -6.7967   25.5876 H   0  0  0  0  0  0  0  0  0  0  0  0
  1  4  1  0  0  0  0
  1  9  2  0  0  0  0
  2  5  1  0  0  0  0
  2  7  2  0  0  0  0
  3  5  2  0  0  0  0
  3  8  1  0  0  0  0
  4 29  2  0  0  0  0
  5  9  1  0  0  0  0
  6  7  1  0  0  0  0
  6  8  2  0  0  0  0
  6 15  1  0  0  0  0
  7 19  1  0  0  0  0
  8 35  1  0  0  0  0
  9 32  1  0  0  0  0
 10 12  1  0  0  0  0
 10 30  2  0  0  0  0
 10 33  1  0  0  0  0
 11 31  2  0  0  0  0
 11 32  1  0  0  0  0
 11 33  1  0  0  0  0
 12 16  2  0  0  0  0
 13 14  2  0  0  0  0
 13 16  1  0  0  0  0
 14 33  1  0  0  0  0
 15 24  1  0  0  0  0
 15 36  2  0  0  0  0
 16 17  1  0  0  0  0
 17 34  1  0  0  0  0
 17 37  2  0  0  0  0
 18 28  1  0  0  0  0
 18 35  1  0  0  0  0
 18 38  2  0  0  0  0
 19 24  1  0  0  0  0
 20 21  1  0  0  0  0
 20 23  1  0  0  0  0
 21 41  1  0  0  0  0
 22 23  1  0  0  0  0
 22 41  1  0  0  0  0
 23 35  1  0  0  0  0
 24 25  1  0  0  0  0
 24 26  1  0  0  0  0
 27 34  1  0  0  0  0
 28 42  1  0  0  0  0
 29 32  1  0  0  0  0
 30 31  1  0  0  0  0
 39 41  2  0  0  0  0
 40 41  2  0  0  0  0
  1 43  1  0  0  0  0
  2 44  1  0  0  0  0
  3 45  1  0  0  0  0
  4 46  1  0  0  0  0
 12 47  1  0  0  0  0
 13 48  1  0  0  0  0
 14 49  1  0  0  0  0
 19 50  1  0  0  0  0
 19 51  1  0  0  0  0
 20 52  1  0  0  0  0
 20 53  1  0  0  0  0
 21 54  1  0  0  0  0
 21 55  1  0  0  0  0
 22 56  1  0  0  0  0
 22 57  1  0  0  0  0
 23 58  1  0  0  0  0
 25 59  1  0  0  0  0
 25 60  1  0  0  0  0
 25 61  1  0  0  0  0
 26 62  1  0  0  0  0
 26 63  1  0  0  0  0
 26 64  1  0  0  0  0
 27 65  1  0  0  0  0
 27 66  1  0  0  0  0
 27 67  1  0  0  0  0
 28 68  1  0  0  0  0
 28 69  1  0  0  0  0
 34 70  1  0  0  0  0
M  END
> <creator>
INSCoV_5RFG_5510, Insilico Medicine Hong Kong Ltd

> <fragments>
x1311

> <real_space>
FALSE

> <SCR>
FALSE

> <BB>
FALSE

> <link>
https://covid.postera.ai/covid/submissions/7e24ab41-90e7-4da0-add1-6a1ad07385c6

> <covalent_frag>
TRUE

> <covalent_warhead>
TRUE

> <acrylamide>
FALSE

> <acrylamide_adduct>
FALSE

> <chloroacetamide>
TRUE

> <chloroacetamide_adduct>
FALSE

> <vinylsulfonamide>
FALSE

> <vinylsulfonamide_adduct>
FALSE

> <in_molport_or_mcule>
FALSE

> <in_emolecules>
FALSE

> <Hybrid2>
5.337206

> <Mpro-x1311_dock>
5.337206

> <site>
active-covalent

> <covalent_distance_min>
7.8160267

> <covalent_distance_mean>
8.485408

> <covalent_distance_stderr>
0.047225058

$$$$
INS-INS-714-1
  -OEChem-04062011563D

 74 78  0     1  0  0  0  0  0999 V2000
    4.4589   -7.9217   22.5307 C   0  0  0  0  0  0  0  0  0  0  0  0
    3.2868   -8.6582   22.7117 C   0  0  0  0  0  0  0  0  0  0  0  0
   10.7101   -5.3786   26.2617 C   0  0  0  0  0  0  0  0  0  0  0  0
    6.9145   -6.1022   23.7926 C   0  0  0  0  0  0  0  0  0  0  0  0
    5.9676   -5.0662   21.8261 C   0  0  0  0  0  0  0  0  0  0  0  0
    8.2265   -4.5378   22.5008 C   0  0  0  0  0  0  0  0  0  0  0  0
   11.2626   -6.4249   25.5563 C   0  0  0  0  0  0  0  0  0  0  0  0
    4.6081   -6.6574   23.1253 C   0  0  0  0  0  0  0  0  0  0  0  0
    5.8459   -5.9330   22.9122 C   0  0  0  0  0  0  0  0  0  0  0  0
    8.1048   -5.4046   23.5869 C   0  0  0  0  0  0  0  0  0  0  0  0
    9.5209   -4.8886   25.6485 C   0  0  0  0  0  0  0  0  0  0  0  0
    2.4282   -6.8498   24.0733 C   0  0  0  0  0  0  0  0  0  0  0  0
    3.5878   -6.1146   23.9109 C   0  0  0  0  0  0  0  0  0  0  0  0
    7.1579   -4.3686   21.6204 C   0  0  0  0  0  0  0  0  0  0  0  0
    2.2870   -8.0962   23.4815 C   0  0  0  0  0  0  0  0  0  0  0  0
    9.2101   -5.5789   24.4976 C   0  0  0  0  0  0  0  0  0  0  0  0
    8.7246   -3.8005   26.1574 C   0  0  0  0  0  0  0  0  0  0  0  0
    7.1317   -3.9999   19.2004 C   0  0  0  0  0  0  0  0  0  0  0  0
    1.2296   -6.5550   24.8880 C   0  0  0  0  0  0  0  0  0  0  0  0
    6.7883   -1.5945   22.0117 C   0  0  0  0  0  0  0  0  0  0  0  0
    0.2944   -7.6331   24.3382 C   0  0  0  0  0  0  0  0  0  0  0  0
    7.2207   -0.1422   22.1770 C   0  0  0  0  0  0  0  0  0  0  0  0
    8.9192   -1.6887   20.8211 C   0  0  0  0  0  0  0  0  0  0  0  0
    7.4473   -2.0871   20.7209 C   0  0  1  0  0  0  0  0  0  0  0  0
    6.8250   -2.5096   28.1889 C   0  0  0  0  0  0  0  0  0  0  0  0
    3.6634   -4.8786   26.1064 C   0  0  0  0  0  0  0  0  0  0  0  0
    2.6850   -3.7662   24.0667 C   0  0  0  0  0  0  0  0  0  0  0  0
    9.1647   -3.0953   27.4572 C   0  0  0  0  0  0  0  0  0  0  0  0
    7.6631   -5.3989   18.9432 C   0  0  0  0  0  0  0  0  0  0  0  0
    8.2198   -1.9782   27.9006 C   0  0  0  0  0  0  0  0  0  0  0  0
    3.7261   -4.7830   24.5706 C   0  0  0  0  0  0  0  0  0  0  0  0
    7.2798   -3.5013   20.5341 N   0  0  0  0  0  0  0  0  0  0  0  0
    7.6849   -3.3885   25.5994 O   0  0  0  0  0  0  0  0  0  0  0  0
    6.6199   -3.3536   18.2827 O   0  0  0  0  0  0  0  0  0  0  0  0
    9.0438    0.9386   20.6116 O   0  0  0  0  0  0  0  0  0  0  0  0
    9.7892   -0.1524   22.7775 O   0  0  0  0  0  0  0  0  0  0  0  0
    1.0854   -8.6974   23.7579 O   0  0  0  0  0  0  0  0  0  0  0  0
   10.3491   -6.8124   24.1607 S   0  0  0  0  0  0  0  0  0  0  0  0
    8.9183   -0.0910   21.6221 S   0  0  0  0  0  0  0  0  0  0  0  0
    9.3990   -5.4696   19.3133 Cl  0  0  0  0  0  0  0  0  0  0  0  0
    5.2570   -8.3457   21.9250 H   0  0  0  0  0  0  0  0  0  0  0  0
    3.1699   -9.6358   22.2579 H   0  0  0  0  0  0  0  0  0  0  0  0
   11.1429   -4.9876   27.1739 H   0  0  0  0  0  0  0  0  0  0  0  0
    6.8193   -6.7780   24.6412 H   0  0  0  0  0  0  0  0  0  0  0  0
    5.1361   -4.9317   21.1369 H   0  0  0  0  0  0  0  0  0  0  0  0
    9.1536   -3.9917   22.3369 H   0  0  0  0  0  0  0  0  0  0  0  0
   12.1590   -6.9803   25.7938 H   0  0  0  0  0  0  0  0  0  0  0  0
    1.4403   -6.7203   25.9495 H   0  0  0  0  0  0  0  0  0  0  0  0
    0.8217   -5.5521   24.7383 H   0  0  0  0  0  0  0  0  0  0  0  0
    7.0589   -2.1977   22.8799 H   0  0  0  0  0  0  0  0  0  0  0  0
    5.7008   -1.6406   21.8993 H   0  0  0  0  0  0  0  0  0  0  0  0
   -0.3489   -8.0463   25.1220 H   0  0  0  0  0  0  0  0  0  0  0  0
   -0.3524   -7.2296   23.5484 H   0  0  0  0  0  0  0  0  0  0  0  0
    6.6169    0.5436   21.5792 H   0  0  0  0  0  0  0  0  0  0  0  0
    7.2001    0.1622   23.2273 H   0  0  0  0  0  0  0  0  0  0  0  0
    9.5270   -2.3920   21.3917 H   0  0  0  0  0  0  0  0  0  0  0  0
    9.3485   -1.5542   19.8251 H   0  0  0  0  0  0  0  0  0  0  0  0
    6.9878   -1.5878   19.8451 H   0  0  0  0  0  0  0  0  0  0  0  0
    6.8519   -3.2818   28.9644 H   0  0  0  0  0  0  0  0  0  0  0  0
    6.3932   -2.9507   27.2852 H   0  0  0  0  0  0  0  0  0  0  0  0
    6.1613   -1.7069   28.5256 H   0  0  0  0  0  0  0  0  0  0  0  0
    2.7116   -5.3015   26.4458 H   0  0  0  0  0  0  0  0  0  0  0  0
    3.7747   -3.8939   26.5734 H   0  0  0  0  0  0  0  0  0  0  0  0
    4.4672   -5.5210   26.4830 H   0  0  0  0  0  0  0  0  0  0  0  0
    1.6698   -4.1267   24.2671 H   0  0  0  0  0  0  0  0  0  0  0  0
    2.7756   -3.6026   22.9874 H   0  0  0  0  0  0  0  0  0  0  0  0
    2.7980   -2.7948   24.5604 H   0  0  0  0  0  0  0  0  0  0  0  0
   10.1630   -2.6746   27.2905 H   0  0  0  0  0  0  0  0  0  0  0  0
    9.2203   -3.8515   28.2486 H   0  0  0  0  0  0  0  0  0  0  0  0
    7.1477   -6.1163   19.5868 H   0  0  0  0  0  0  0  0  0  0  0  0
    7.5554   -5.6747   17.8916 H   0  0  0  0  0  0  0  0  0  0  0  0
    8.1591   -1.2086   27.1219 H   0  0  0  0  0  0  0  0  0  0  0  0
    8.6132   -1.4901   28.8002 H   0  0  0  0  0  0  0  0  0  0  0  0
    4.7154   -4.3486   24.3328 H   0  0  0  0  0  0  0  0  0  0  0  0
  1  2  2  0  0  0  0
  1  8  1  0  0  0  0
  2 15  1  0  0  0  0
  3  7  2  0  0  0  0
  3 11  1  0  0  0  0
  4  9  2  0  0  0  0
  4 10  1  0  0  0  0
  5  9  1  0  0  0  0
  5 14  2  0  0  0  0
  6 10  2  0  0  0  0
  6 14  1  0  0  0  0
  7 38  1  0  0  0  0
  8  9  1  0  0  0  0
  8 13  2  0  0  0  0
 10 16  1  0  0  0  0
 11 16  2  0  0  0  0
 11 17  1  0  0  0  0
 12 13  1  0  0  0  0
 12 15  2  0  0  0  0
 12 19  1  0  0  0  0
 13 31  1  0  0  0  0
 14 32  1  0  0  0  0
 15 37  1  0  0  0  0
 16 38  1  0  0  0  0
 17 28  1  0  0  0  0
 17 33  2  0  0  0  0
 18 29  1  0  0  0  0
 18 32  1  0  0  0  0
 18 34  2  0  0  0  0
 19 21  1  0  0  0  0
 20 22  1  0  0  0  0
 20 24  1  0  0  0  0
 21 37  1  0  0  0  0
 22 39  1  0  0  0  0
 23 24  1  0  0  0  0
 23 39  1  0  0  0  0
 24 32  1  0  0  0  0
 25 30  1  0  0  0  0
 26 31  1  0  0  0  0
 27 31  1  0  0  0  0
 28 30  1  0  0  0  0
 29 40  1  0  0  0  0
 35 39  2  0  0  0  0
 36 39  2  0  0  0  0
  1 41  1  0  0  0  0
  2 42  1  0  0  0  0
  3 43  1  0  0  0  0
  4 44  1  0  0  0  0
  5 45  1  0  0  0  0
  6 46  1  0  0  0  0
  7 47  1  0  0  0  0
 19 48  1  0  0  0  0
 19 49  1  0  0  0  0
 20 50  1  0  0  0  0
 20 51  1  0  0  0  0
 21 52  1  0  0  0  0
 21 53  1  0  0  0  0
 22 54  1  0  0  0  0
 22 55  1  0  0  0  0
 23 56  1  0  0  0  0
 23 57  1  0  0  0  0
 24 58  1  0  0  0  0
 25 59  1  0  0  0  0
 25 60  1  0  0  0  0
 25 61  1  0  0  0  0
 26 62  1  0  0  0  0
 26 63  1  0  0  0  0
 26 64  1  0  0  0  0
 27 65  1  0  0  0  0
 27 66  1  0  0  0  0
 27 67  1  0  0  0  0
 28 68  1  0  0  0  0
 28 69  1  0  0  0  0
 29 70  1  0  0  0  0
 29 71  1  0  0  0  0
 30 72  1  0  0  0  0
 30 73  1  0  0  0  0
 31 74  1  0  0  0  0
M  END
> <creator>
INSCoV_5RFG_5394, Insilico Medicine Hong Kong Ltd

> <fragments>
x1311

> <real_space>
FALSE

> <SCR>
FALSE

> <BB>
FALSE

> <link>
https://covid.postera.ai/covid/submissions/714f82db-8bd3-49d0-9b97-d3d9ae378fad

> <covalent_frag>
TRUE

> <covalent_warhead>
TRUE

> <acrylamide>
FALSE

> <acrylamide_adduct>
FALSE

> <chloroacetamide>
TRUE

> <chloroacetamide_adduct>
FALSE

> <vinylsulfonamide>
FALSE

> <vinylsulfonamide_adduct>
FALSE

> <in_molport_or_mcule>
FALSE

> <in_emolecules>
FALSE

> <Hybrid2>
5.865649

> <Mpro-x1311_dock>
5.865649

> <site>
active-covalent

> <covalent_distance_min>
2.8913655

> <covalent_distance_mean>
3.2638247

> <covalent_distance_stderr>
0.008711922

$$$$
JUA-UNI-bc0-2
  -OEChem-04062011563D

 53 55  0     0  0  0  0  0  0999 V2000
   13.2089   -1.3989   22.2319 C   0  0  0  0  0  0  0  0  0  0  0  0
   13.0228    0.7276   23.3635 C   0  0  0  0  0  0  0  0  0  0  0  0
   14.3770   -0.9636   21.6061 C   0  0  0  0  0  0  0  0  0  0  0  0
   14.1909    1.1628   22.7377 C   0  0  0  0  0  0  0  0  0  0  0  0
    6.6359   -3.0772   22.6430 C   0  0  0  0  0  0  0  0  0  0  0  0
    7.4312   -2.1263   24.7311 C   0  0  0  0  0  0  0  0  0  0  0  0
    7.4923   -2.2124   21.9328 C   0  0  0  0  0  0  0  0  0  0  0  0
   12.5317   -0.5533   23.1106 C   0  0  0  0  0  0  0  0  0  0  0  0
   14.8680    0.3172   21.8590 C   0  0  0  0  0  0  0  0  0  0  0  0
    6.6168   -3.0222   24.0414 C   0  0  0  0  0  0  0  0  0  0  0  0
    8.2887   -1.2589   24.0482 C   0  0  0  0  0  0  0  0  0  0  0  0
    7.7641   -1.9999   20.5523 C   0  0  0  0  0  0  0  0  0  0  0  0
    8.2972   -1.3250   22.6504 C   0  0  0  0  0  0  0  0  0  0  0  0
    8.7110   -1.0060   20.4602 C   0  0  0  0  0  0  0  0  0  0  0  0
   15.1187    2.5335   16.7140 C   0  0  0  0  0  0  0  0  0  0  0  0
   15.5297    1.5919   17.5688 C   0  0  0  0  0  0  0  0  0  0  0  0
   11.2878   -1.0160   23.7781 C   0  0  0  0  0  0  0  0  0  0  0  0
   15.5529    1.8612   19.0313 C   0  0  0  0  0  0  0  0  0  0  0  0
    5.7120   -3.9356   24.8002 C   0  0  0  0  0  0  0  0  0  0  0  0
    7.1433   -2.7175   19.4193 C   0  0  0  0  0  0  0  0  0  0  0  0
    9.3560   -0.3876   19.2858 C   0  0  0  0  0  0  0  0  0  0  0  0
   16.1177    0.7818   21.1903 C   0  0  0  0  0  0  0  0  0  0  0  0
    9.1478   -0.3121   24.8177 C   0  0  0  0  0  0  0  0  0  0  0  0
    9.0265   -0.6054   21.7308 N   0  0  0  0  0  0  0  0  0  0  0  0
   10.3867   -0.0243   24.1412 N   0  0  0  0  0  0  0  0  0  0  0  0
   16.0076    0.7686   19.7537 N   0  0  0  0  0  0  0  0  0  0  0  0
   11.1307   -2.2158   23.9890 O   0  0  0  0  0  0  0  0  0  0  0  0
   15.2013    2.9344   19.5106 O   0  0  0  0  0  0  0  0  0  0  0  0
   12.8347   -2.3988   22.0281 H   0  0  0  0  0  0  0  0  0  0  0  0
   12.5034    1.3951   24.0462 H   0  0  0  0  0  0  0  0  0  0  0  0
   14.8983   -1.6292   20.9232 H   0  0  0  0  0  0  0  0  0  0  0  0
   14.5666    2.1623   22.9409 H   0  0  0  0  0  0  0  0  0  0  0  0
    5.9986   -3.7788   22.1110 H   0  0  0  0  0  0  0  0  0  0  0  0
    7.3998   -2.0998   25.8188 H   0  0  0  0  0  0  0  0  0  0  0  0
   15.1057    2.3300   15.6484 H   0  0  0  0  0  0  0  0  0  0  0  0
   14.7888    3.5141   17.0391 H   0  0  0  0  0  0  0  0  0  0  0  0
   15.8514    0.6232   17.2020 H   0  0  0  0  0  0  0  0  0  0  0  0
    6.2271   -4.8754   25.0316 H   0  0  0  0  0  0  0  0  0  0  0  0
    5.3830   -3.4769   25.7411 H   0  0  0  0  0  0  0  0  0  0  0  0
    4.8068   -4.1661   24.2244 H   0  0  0  0  0  0  0  0  0  0  0  0
    6.2308   -2.2034   19.0778 H   0  0  0  0  0  0  0  0  0  0  0  0
    7.8271   -2.7974   18.5579 H   0  0  0  0  0  0  0  0  0  0  0  0
    6.8671   -3.7509   19.6878 H   0  0  0  0  0  0  0  0  0  0  0  0
    8.7842    0.4860   18.9320 H   0  0  0  0  0  0  0  0  0  0  0  0
   10.3824   -0.0483   19.5078 H   0  0  0  0  0  0  0  0  0  0  0  0
    9.4448   -1.0938   18.4423 H   0  0  0  0  0  0  0  0  0  0  0  0
   16.3706    1.8077   21.4925 H   0  0  0  0  0  0  0  0  0  0  0  0
   16.9765    0.1514   21.4588 H   0  0  0  0  0  0  0  0  0  0  0  0
    8.6321    0.6438   24.9837 H   0  0  0  0  0  0  0  0  0  0  0  0
    9.4006   -0.7130   25.8086 H   0  0  0  0  0  0  0  0  0  0  0  0
    9.6976    0.1141   21.9624 H   0  0  0  0  0  0  0  0  0  0  0  0
   10.6180    0.9541   23.9882 H   0  0  0  0  0  0  0  0  0  0  0  0
   16.2479   -0.0931   19.2684 H   0  0  0  0  0  0  0  0  0  0  0  0
  1  3  2  0  0  0  0
  1  8  1  0  0  0  0
  2  4  1  0  0  0  0
  2  8  2  0  0  0  0
  3  9  1  0  0  0  0
  4  9  2  0  0  0  0
  5  7  2  0  0  0  0
  5 10  1  0  0  0  0
  6 10  2  0  0  0  0
  6 11  1  0  0  0  0
  7 12  1  0  0  0  0
  7 13  1  0  0  0  0
  8 17  1  0  0  0  0
  9 22  1  0  0  0  0
 10 19  1  0  0  0  0
 11 13  2  0  0  0  0
 11 23  1  0  0  0  0
 12 14  2  0  0  0  0
 12 20  1  0  0  0  0
 13 24  1  0  0  0  0
 14 21  1  0  0  0  0
 14 24  1  0  0  0  0
 15 16  2  0  0  0  0
 16 18  1  0  0  0  0
 17 25  1  0  0  0  0
 17 27  2  0  0  0  0
 18 26  1  0  0  0  0
 18 28  2  0  0  0  0
 22 26  1  0  0  0  0
 23 25  1  0  0  0  0
  1 29  1  0  0  0  0
  2 30  1  0  0  0  0
  3 31  1  0  0  0  0
  4 32  1  0  0  0  0
  5 33  1  0  0  0  0
  6 34  1  0  0  0  0
 15 35  1  0  0  0  0
 15 36  1  0  0  0  0
 16 37  1  0  0  0  0
 19 38  1  0  0  0  0
 19 39  1  0  0  0  0
 19 40  1  0  0  0  0
 20 41  1  0  0  0  0
 20 42  1  0  0  0  0
 20 43  1  0  0  0  0
 21 44  1  0  0  0  0
 21 45  1  0  0  0  0
 21 46  1  0  0  0  0
 22 47  1  0  0  0  0
 22 48  1  0  0  0  0
 23 49  1  0  0  0  0
 23 50  1  0  0  0  0
 24 51  1  0  0  0  0
 25 52  1  0  0  0  0
 26 53  1  0  0  0  0
M  END
> <creator>
Juan Salamanca Viloria, Universidad de Barcelona in collaboration with the Medicinal Chemistry Research Group, RCNS, Budapest

> <fragments>
x1382

> <real_space>
Z970632906

> <SCR>
FALSE

> <BB>
FALSE

> <link>
https://covid.postera.ai/covid/submissions/bc099708-66e5-490d-b218-fa749db19489

> <covalent_frag>
TRUE

> <covalent_warhead>
TRUE

> <acrylamide>
TRUE

> <acrylamide_adduct>
FALSE

> <chloroacetamide>
FALSE

> <chloroacetamide_adduct>
FALSE

> <vinylsulfonamide>
FALSE

> <vinylsulfonamide_adduct>
FALSE

> <in_molport_or_mcule>
FALSE

> <in_emolecules>
FALSE

> <Hybrid2>
5.880832

> <Mpro-x1382_dock>
5.880832

> <site>
active-covalent

> <covalent_distance_min>
9.674615

> <covalent_distance_mean>
10.318517

> <covalent_distance_stderr>
0.051944595

$$$$
MAK-UNK-702-13
  -OEChem-04062011563D

 71 76  0     1  0  0  0  0  0999 V2000
    5.8279    1.1497   16.6703 C   0  0  0  0  0  0  0  0  0  0  0  0
    7.7917   -1.1233   29.6365 C   0  0  0  0  0  0  0  0  0  0  0  0
    6.4929   -1.6051   29.7715 C   0  0  0  0  0  0  0  0  0  0  0  0
    7.2002    1.1733   16.4220 C   0  0  0  0  0  0  0  0  0  0  0  0
    4.1649   -5.8315   25.3454 C   0  0  0  0  0  0  0  0  0  0  0  0
    7.5570    3.3214   24.7952 C   0  0  0  0  0  0  0  0  0  0  0  0
    5.3516    0.7446   17.9172 C   0  0  0  0  0  0  0  0  0  0  0  0
    8.7551   -1.8898   28.9813 C   0  0  0  0  0  0  0  0  0  0  0  0
    6.1567   -2.8553   29.2544 C   0  0  0  0  0  0  0  0  0  0  0  0
    4.9358   -5.9012   26.5057 C   0  0  0  0  0  0  0  0  0  0  0  0
    4.3483   -4.7792   24.4482 C   0  0  0  0  0  0  0  0  0  0  0  0
    8.0963    0.7917   17.4204 C   0  0  0  0  0  0  0  0  0  0  0  0
    6.5969    3.0607   23.8239 C   0  0  0  0  0  0  0  0  0  0  0  0
    6.0735   -3.8662   25.8719 C   0  0  0  0  0  0  0  0  0  0  0  0
    5.4075   -1.3247   20.6250 C   0  0  0  0  0  0  0  0  0  0  0  0
    8.8889    3.2942   24.4144 C   0  0  0  0  0  0  0  0  0  0  0  0
    8.3497    2.7816   22.2408 C   0  0  0  0  0  0  0  0  0  0  0  0
    5.0620    0.1017   22.3326 C   0  0  0  0  0  0  0  0  0  0  0  0
    6.2477    0.3629   18.9157 C   0  0  0  0  0  0  0  0  0  0  0  0
    5.8902   -4.9185   26.7689 C   0  0  0  0  0  0  0  0  0  0  0  0
    8.4294   -3.1472   28.4506 C   0  0  0  0  0  0  0  0  0  0  0  0
    7.1186   -3.6380   28.5956 C   0  0  0  0  0  0  0  0  0  0  0  0
    4.9731   -1.2241   21.9698 C   0  0  0  0  0  0  0  0  0  0  0  0
    5.3026   -3.7966   24.7115 C   0  0  0  0  0  0  0  0  0  0  0  0
    7.6201    0.3864   18.6673 C   0  0  0  0  0  0  0  0  0  0  0  0
    6.9925    2.7846   22.5198 C   0  0  0  0  0  0  0  0  0  0  0  0
    5.7488   -0.0574   20.2071 C   0  0  0  0  0  0  0  0  0  0  0  0
    9.6183   -5.7781   26.0065 C   0  0  0  0  0  0  0  0  0  0  0  0
    9.5045   -3.9398   27.7468 C   0  0  0  0  0  0  0  0  0  0  0  0
    7.9677   -5.8870   27.8419 C   0  0  0  0  0  0  0  0  0  0  0  0
    6.7314   -4.9945   28.0366 C   0  0  2  0  0  0  0  0  0  0  0  0
    4.5023   -2.3532   22.8402 C   0  0  0  0  0  0  0  0  0  0  0  0
   10.8073   -5.0635   25.4136 C   0  0  0  0  0  0  0  0  0  0  0  0
    9.3116    3.0301   23.1577 N   0  0  0  0  0  0  0  0  0  0  0  0
    5.5349    0.8016   21.2533 N   0  0  0  0  0  0  0  0  0  0  0  0
    9.0320   -5.1844   27.1265 N   0  0  0  0  0  0  0  0  0  0  0  0
    5.4882   -2.7328   23.8041 N   0  0  0  0  0  0  0  0  0  0  0  0
    9.2201   -6.8235   25.4868 O   0  0  0  0  0  0  0  0  0  0  0  0
    4.5224    3.0444   21.6515 O   0  0  0  0  0  0  0  0  0  0  0  0
    6.4317    2.8150   19.9856 O   0  0  0  0  0  0  0  0  0  0  0  0
    8.4946    0.0226   19.6168 F   0  0  0  0  0  0  0  0  0  0  0  0
    5.7967    2.4472   21.2534 S   0  0  0  0  0  0  0  0  0  0  0  0
   10.1768   -3.9720   24.1856 Cl  0  0  0  0  0  0  0  0  0  0  0  0
    5.1303    1.4474   15.8928 H   0  0  0  0  0  0  0  0  0  0  0  0
    8.0551   -0.1502   30.0408 H   0  0  0  0  0  0  0  0  0  0  0  0
    5.7418   -1.0083   30.2805 H   0  0  0  0  0  0  0  0  0  0  0  0
    7.5711    1.4894   15.4513 H   0  0  0  0  0  0  0  0  0  0  0  0
    3.4218   -6.5969   25.1403 H   0  0  0  0  0  0  0  0  0  0  0  0
    7.2718    3.5391   25.8181 H   0  0  0  0  0  0  0  0  0  0  0  0
    4.2788    0.7317   18.0950 H   0  0  0  0  0  0  0  0  0  0  0  0
    9.7656   -1.5004   28.8825 H   0  0  0  0  0  0  0  0  0  0  0  0
    5.1386   -3.2193   29.3694 H   0  0  0  0  0  0  0  0  0  0  0  0
    4.7862   -6.7248   27.1992 H   0  0  0  0  0  0  0  0  0  0  0  0
    3.7422   -4.7348   23.5469 H   0  0  0  0  0  0  0  0  0  0  0  0
    9.1649    0.8104   17.2273 H   0  0  0  0  0  0  0  0  0  0  0  0
    5.5445    3.0751   24.0930 H   0  0  0  0  0  0  0  0  0  0  0  0
    6.8183   -3.1010   26.0785 H   0  0  0  0  0  0  0  0  0  0  0  0
    5.4641   -2.2255   20.0281 H   0  0  0  0  0  0  0  0  0  0  0  0
    9.6764    3.4907   25.1345 H   0  0  0  0  0  0  0  0  0  0  0  0
    8.7194    2.5731   21.2416 H   0  0  0  0  0  0  0  0  0  0  0  0
    4.8291    0.6005   23.2643 H   0  0  0  0  0  0  0  0  0  0  0  0
    9.9672   -3.3023   26.9881 H   0  0  0  0  0  0  0  0  0  0  0  0
   10.2744   -4.2253   28.4736 H   0  0  0  0  0  0  0  0  0  0  0  0
    8.3843   -6.1708   28.8174 H   0  0  0  0  0  0  0  0  0  0  0  0
    7.6982   -6.8170   27.3285 H   0  0  0  0  0  0  0  0  0  0  0  0
    6.0898   -5.5078   28.8029 H   0  0  0  0  0  0  0  0  0  0  0  0
    3.5929   -2.0701   23.3814 H   0  0  0  0  0  0  0  0  0  0  0  0
    4.2621   -3.2376   22.2408 H   0  0  0  0  0  0  0  0  0  0  0  0
   11.4653   -5.7951   24.9596 H   0  0  0  0  0  0  0  0  0  0  0  0
   11.3025   -4.4994   26.1952 H   0  0  0  0  0  0  0  0  0  0  0  0
    6.3583   -2.2376   23.8565 H   0  0  0  0  0  0  0  0  0  0  0  0
  1  4  1  0  0  0  0
  1  7  2  0  0  0  0
  2  3  1  0  0  0  0
  2  8  2  0  0  0  0
  3  9  2  0  0  0  0
  4 12  2  0  0  0  0
  5 10  2  0  0  0  0
  5 11  1  0  0  0  0
  6 13  2  0  0  0  0
  6 16  1  0  0  0  0
  7 19  1  0  0  0  0
  8 21  1  0  0  0  0
  9 22  1  0  0  0  0
 10 20  1  0  0  0  0
 11 24  2  0  0  0  0
 12 25  1  0  0  0  0
 13 26  1  0  0  0  0
 14 20  2  0  0  0  0
 14 24  1  0  0  0  0
 15 23  1  0  0  0  0
 15 27  2  0  0  0  0
 16 34  2  0  0  0  0
 17 26  2  0  0  0  0
 17 34  1  0  0  0  0
 18 23  2  0  0  0  0
 18 35  1  0  0  0  0
 19 25  2  0  0  0  0
 19 27  1  0  0  0  0
 20 31  1  0  0  0  0
 21 22  2  0  0  0  0
 21 29  1  0  0  0  0
 22 31  1  0  0  0  0
 23 32  1  0  0  0  0
 24 37  1  0  0  0  0
 25 41  1  0  0  0  0
 26 42  1  0  0  0  0
 27 35  1  0  0  0  0
 28 33  1  0  0  0  0
 28 36  1  0  0  0  0
 28 38  2  0  0  0  0
 29 36  1  0  0  0  0
 30 31  1  0  0  0  0
 30 36  1  0  0  0  0
 32 37  1  0  0  0  0
 33 43  1  0  0  0  0
 35 42  1  0  0  0  0
 39 42  2  0  0  0  0
 40 42  2  0  0  0  0
  1 44  1  0  0  0  0
  2 45  1  0  0  0  0
  3 46  1  0  0  0  0
  4 47  1  0  0  0  0
  5 48  1  0  0  0  0
  6 49  1  0  0  0  0
  7 50  1  0  0  0  0
  8 51  1  0  0  0  0
  9 52  1  0  0  0  0
 10 53  1  0  0  0  0
 11 54  1  0  0  0  0
 12 55  1  0  0  0  0
 13 56  1  0  0  0  0
 14 57  1  0  0  0  0
 15 58  1  0  0  0  0
 16 59  1  0  0  0  0
 17 60  1  0  0  0  0
 18 61  1  0  0  0  0
 29 62  1  0  0  0  0
 29 63  1  0  0  0  0
 30 64  1  0  0  0  0
 30 65  1  0  0  0  0
 31 66  1  0  0  0  0
 32 67  1  0  0  0  0
 32 68  1  0  0  0  0
 33 69  1  0  0  0  0
 33 70  1  0  0  0  0
 37 71  1  0  0  0  0
M  END
> <creator>
Maksym Voznyy

> <fragments>
x0387

> <real_space>
FALSE

> <SCR>
FALSE

> <BB>
FALSE

> <link>
https://covid.postera.ai/covid/submissions/702fb7d3-1941-4d37-9e1c-6a10ebd67f09

> <covalent_frag>
FALSE

> <covalent_warhead>
TRUE

> <acrylamide>
FALSE

> <acrylamide_adduct>
FALSE

> <chloroacetamide>
TRUE

> <chloroacetamide_adduct>
FALSE

> <vinylsulfonamide>
FALSE

> <vinylsulfonamide_adduct>
FALSE

> <in_molport_or_mcule>
FALSE

> <in_emolecules>
FALSE

> <Hybrid2>
6.719999

> <Mpro-x0387_dock>
6.719999

> <site>
active-noncovalent

> <covalent_distance_min>
5.1490207

> <covalent_distance_mean>
5.458382

> <covalent_distance_stderr>
0.037798267

$$$$
MAK-UNK-702-15
  -OEChem-04062011563D

 71 76  0     1  0  0  0  0  0999 V2000
    5.8279    1.1497   16.6703 C   0  0  0  0  0  0  0  0  0  0  0  0
    7.7917   -1.1233   29.6365 C   0  0  0  0  0  0  0  0  0  0  0  0
    6.4929   -1.6051   29.7715 C   0  0  0  0  0  0  0  0  0  0  0  0
    7.2002    1.1733   16.4220 C   0  0  0  0  0  0  0  0  0  0  0  0
    4.1649   -5.8315   25.3454 C   0  0  0  0  0  0  0  0  0  0  0  0
    7.5570    3.3214   24.7952 C   0  0  0  0  0  0  0  0  0  0  0  0
    5.3516    0.7446   17.9172 C   0  0  0  0  0  0  0  0  0  0  0  0
    8.7551   -1.8898   28.9813 C   0  0  0  0  0  0  0  0  0  0  0  0
    6.1567   -2.8553   29.2544 C   0  0  0  0  0  0  0  0  0  0  0  0
    4.9358   -5.9012   26.5057 C   0  0  0  0  0  0  0  0  0  0  0  0
    4.3483   -4.7792   24.4482 C   0  0  0  0  0  0  0  0  0  0  0  0
    8.0963    0.7917   17.4204 C   0  0  0  0  0  0  0  0  0  0  0  0
    6.5969    3.0607   23.8239 C   0  0  0  0  0  0  0  0  0  0  0  0
    6.0735   -3.8662   25.8719 C   0  0  0  0  0  0  0  0  0  0  0  0
    5.4075   -1.3247   20.6250 C   0  0  0  0  0  0  0  0  0  0  0  0
    8.8889    3.2942   24.4144 C   0  0  0  0  0  0  0  0  0  0  0  0
    8.3497    2.7816   22.2408 C   0  0  0  0  0  0  0  0  0  0  0  0
    5.0620    0.1017   22.3326 C   0  0  0  0  0  0  0  0  0  0  0  0
    6.2477    0.3629   18.9157 C   0  0  0  0  0  0  0  0  0  0  0  0
    5.8902   -4.9185   26.7689 C   0  0  0  0  0  0  0  0  0  0  0  0
    8.4294   -3.1472   28.4506 C   0  0  0  0  0  0  0  0  0  0  0  0
    7.1186   -3.6380   28.5956 C   0  0  0  0  0  0  0  0  0  0  0  0
    4.9731   -1.2241   21.9698 C   0  0  0  0  0  0  0  0  0  0  0  0
    5.3026   -3.7966   24.7115 C   0  0  0  0  0  0  0  0  0  0  0  0
    7.6201    0.3864   18.6673 C   0  0  0  0  0  0  0  0  0  0  0  0
    6.9925    2.7846   22.5198 C   0  0  0  0  0  0  0  0  0  0  0  0
    5.7488   -0.0574   20.2071 C   0  0  0  0  0  0  0  0  0  0  0  0
    9.6183   -5.7781   26.0065 C   0  0  0  0  0  0  0  0  0  0  0  0
    9.5045   -3.9398   27.7468 C   0  0  0  0  0  0  0  0  0  0  0  0
    7.9677   -5.8870   27.8419 C   0  0  0  0  0  0  0  0  0  0  0  0
    6.7314   -4.9945   28.0366 C   0  0  2  0  0  0  0  0  0  0  0  0
    4.5023   -2.3532   22.8402 C   0  0  0  0  0  0  0  0  0  0  0  0
   10.8073   -5.0635   25.4136 C   0  0  0  0  0  0  0  0  0  0  0  0
    9.3116    3.0301   23.1577 N   0  0  0  0  0  0  0  0  0  0  0  0
    5.5349    0.8016   21.2533 N   0  0  0  0  0  0  0  0  0  0  0  0
    9.0320   -5.1844   27.1265 N   0  0  0  0  0  0  0  0  0  0  0  0
    5.4882   -2.7328   23.8041 N   0  0  0  0  0  0  0  0  0  0  0  0
    9.2201   -6.8235   25.4868 O   0  0  0  0  0  0  0  0  0  0  0  0
    4.5224    3.0444   21.6515 O   0  0  0  0  0  0  0  0  0  0  0  0
    6.4317    2.8150   19.9856 O   0  0  0  0  0  0  0  0  0  0  0  0
    8.4946    0.0226   19.6168 F   0  0  0  0  0  0  0  0  0  0  0  0
    5.7967    2.4472   21.2534 S   0  0  0  0  0  0  0  0  0  0  0  0
   10.1768   -3.9720   24.1856 Cl  0  0  0  0  0  0  0  0  0  0  0  0
    5.1303    1.4474   15.8928 H   0  0  0  0  0  0  0  0  0  0  0  0
    8.0551   -0.1502   30.0408 H   0  0  0  0  0  0  0  0  0  0  0  0
    5.7418   -1.0083   30.2805 H   0  0  0  0  0  0  0  0  0  0  0  0
    7.5711    1.4894   15.4513 H   0  0  0  0  0  0  0  0  0  0  0  0
    3.4218   -6.5969   25.1403 H   0  0  0  0  0  0  0  0  0  0  0  0
    7.2718    3.5391   25.8181 H   0  0  0  0  0  0  0  0  0  0  0  0
    4.2788    0.7317   18.0950 H   0  0  0  0  0  0  0  0  0  0  0  0
    9.7656   -1.5004   28.8825 H   0  0  0  0  0  0  0  0  0  0  0  0
    5.1386   -3.2193   29.3694 H   0  0  0  0  0  0  0  0  0  0  0  0
    4.7862   -6.7248   27.1992 H   0  0  0  0  0  0  0  0  0  0  0  0
    3.7422   -4.7348   23.5469 H   0  0  0  0  0  0  0  0  0  0  0  0
    9.1649    0.8104   17.2273 H   0  0  0  0  0  0  0  0  0  0  0  0
    5.5445    3.0751   24.0930 H   0  0  0  0  0  0  0  0  0  0  0  0
    6.8183   -3.1010   26.0785 H   0  0  0  0  0  0  0  0  0  0  0  0
    5.4641   -2.2255   20.0281 H   0  0  0  0  0  0  0  0  0  0  0  0
    9.6764    3.4907   25.1345 H   0  0  0  0  0  0  0  0  0  0  0  0
    8.7194    2.5731   21.2416 H   0  0  0  0  0  0  0  0  0  0  0  0
    4.8291    0.6005   23.2643 H   0  0  0  0  0  0  0  0  0  0  0  0
    9.9672   -3.3023   26.9881 H   0  0  0  0  0  0  0  0  0  0  0  0
   10.2744   -4.2253   28.4736 H   0  0  0  0  0  0  0  0  0  0  0  0
    8.3843   -6.1708   28.8174 H   0  0  0  0  0  0  0  0  0  0  0  0
    7.6982   -6.8170   27.3285 H   0  0  0  0  0  0  0  0  0  0  0  0
    6.0898   -5.5078   28.8029 H   0  0  0  0  0  0  0  0  0  0  0  0
    3.5929   -2.0701   23.3814 H   0  0  0  0  0  0  0  0  0  0  0  0
    4.2621   -3.2376   22.2408 H   0  0  0  0  0  0  0  0  0  0  0  0
   11.4653   -5.7951   24.9596 H   0  0  0  0  0  0  0  0  0  0  0  0
   11.3025   -4.4994   26.1952 H   0  0  0  0  0  0  0  0  0  0  0  0
    6.3583   -2.2376   23.8565 H   0  0  0  0  0  0  0  0  0  0  0  0
  1  4  1  0  0  0  0
  1  7  2  0  0  0  0
  2  3  1  0  0  0  0
  2  8  2  0  0  0  0
  3  9  2  0  0  0  0
  4 12  2  0  0  0  0
  5 10  2  0  0  0  0
  5 11  1  0  0  0  0
  6 13  2  0  0  0  0
  6 16  1  0  0  0  0
  7 19  1  0  0  0  0
  8 21  1  0  0  0  0
  9 22  1  0  0  0  0
 10 20  1  0  0  0  0
 11 24  2  0  0  0  0
 12 25  1  0  0  0  0
 13 26  1  0  0  0  0
 14 20  2  0  0  0  0
 14 24  1  0  0  0  0
 15 23  1  0  0  0  0
 15 27  2  0  0  0  0
 16 34  2  0  0  0  0
 17 26  2  0  0  0  0
 17 34  1  0  0  0  0
 18 23  2  0  0  0  0
 18 35  1  0  0  0  0
 19 25  2  0  0  0  0
 19 27  1  0  0  0  0
 20 31  1  0  0  0  0
 21 22  2  0  0  0  0
 21 29  1  0  0  0  0
 22 31  1  0  0  0  0
 23 32  1  0  0  0  0
 24 37  1  0  0  0  0
 25 41  1  0  0  0  0
 26 42  1  0  0  0  0
 27 35  1  0  0  0  0
 28 33  1  0  0  0  0
 28 36  1  0  0  0  0
 28 38  2  0  0  0  0
 29 36  1  0  0  0  0
 30 31  1  0  0  0  0
 30 36  1  0  0  0  0
 32 37  1  0  0  0  0
 33 43  1  0  0  0  0
 35 42  1  0  0  0  0
 39 42  2  0  0  0  0
 40 42  2  0  0  0  0
  1 44  1  0  0  0  0
  2 45  1  0  0  0  0
  3 46  1  0  0  0  0
  4 47  1  0  0  0  0
  5 48  1  0  0  0  0
  6 49  1  0  0  0  0
  7 50  1  0  0  0  0
  8 51  1  0  0  0  0
  9 52  1  0  0  0  0
 10 53  1  0  0  0  0
 11 54  1  0  0  0  0
 12 55  1  0  0  0  0
 13 56  1  0  0  0  0
 14 57  1  0  0  0  0
 15 58  1  0  0  0  0
 16 59  1  0  0  0  0
 17 60  1  0  0  0  0
 18 61  1  0  0  0  0
 29 62  1  0  0  0  0
 29 63  1  0  0  0  0
 30 64  1  0  0  0  0
 30 65  1  0  0  0  0
 31 66  1  0  0  0  0
 32 67  1  0  0  0  0
 32 68  1  0  0  0  0
 33 69  1  0  0  0  0
 33 70  1  0  0  0  0
 37 71  1  0  0  0  0
M  END
> <creator>
Maksym Voznyy

> <fragments>
x0387

> <real_space>
FALSE

> <SCR>
FALSE

> <BB>
FALSE

> <link>
https://covid.postera.ai/covid/submissions/702fb7d3-1941-4d37-9e1c-6a10ebd67f09

> <covalent_frag>
FALSE

> <covalent_warhead>
TRUE

> <acrylamide>
FALSE

> <acrylamide_adduct>
FALSE

> <chloroacetamide>
TRUE

> <chloroacetamide_adduct>
FALSE

> <vinylsulfonamide>
FALSE

> <vinylsulfonamide_adduct>
FALSE

> <in_molport_or_mcule>
FALSE

> <in_emolecules>
FALSE

> <Hybrid2>
6.719999

> <Mpro-x0387_dock>
6.719999

> <site>
active-noncovalent

> <covalent_distance_min>
3.3906624

> <covalent_distance_mean>
3.7495368

> <covalent_distance_stderr>
0.021587541

$$$$
MAK-UNK-e05-1
  -OEChem-04062011563D

 91 97  0     0  0  0  0  0  0999 V2000
    3.9932   -6.3388   22.4205 C   0  0  0  0  0  0  0  0  0  0  0  0
    7.0390   -1.0066   27.5953 C   0  0  0  0  0  0  0  0  0  0  0  0
    5.0892   -5.7431   21.7958 C   0  0  0  0  0  0  0  0  0  0  0  0
    3.8389   -6.2400   23.8001 C   0  0  0  0  0  0  0  0  0  0  0  0
    7.3044   -1.3766   26.2452 C   0  0  0  0  0  0  0  0  0  0  0  0
   -1.0474   -1.4173   27.6190 C   0  0  0  0  0  0  0  0  0  0  0  0
    6.7497   -0.6203   21.5410 C   0  0  0  0  0  0  0  0  0  0  0  0
   -1.9905   -0.7648   26.7734 C   0  0  0  0  0  0  0  0  0  0  0  0
    5.8292   -0.3391   20.4903 C   0  0  0  0  0  0  0  0  0  0  0  0
    7.1556   -4.4340   21.9330 C   0  0  0  0  0  0  0  0  0  0  0  0
    6.8464   -4.2357   24.6975 C   0  0  0  0  0  0  0  0  0  0  0  0
    7.8901   -1.6314   28.4800 C   0  0  0  0  0  0  0  0  0  0  0  0
    6.0463   -5.0397   22.5452 C   0  0  0  0  0  0  0  0  0  0  0  0
    5.8893   -4.9392   23.9481 C   0  0  0  0  0  0  0  0  0  0  0  0
    7.9424   -3.6401   24.0727 C   0  0  0  0  0  0  0  0  0  0  0  0
    8.0967   -3.7390   22.6931 C   0  0  0  0  0  0  0  0  0  0  0  0
    4.7800   -5.5450   24.5602 C   0  0  0  0  0  0  0  0  0  0  0  0
    8.3487   -2.2700   26.1494 C   0  0  0  0  0  0  0  0  0  0  0  0
    7.9291   -1.1515   21.0672 C   0  0  0  0  0  0  0  0  0  0  0  0
    0.2509   -1.0893   27.2960 C   0  0  0  0  0  0  0  0  0  0  0  0
   -1.3770    0.0373   25.8363 C   0  0  0  0  0  0  0  0  0  0  0  0
    6.3403   -0.6660   19.2535 C   0  0  0  0  0  0  0  0  0  0  0  0
   -1.8443   -3.7031   21.2279 C   0  0  0  0  0  0  0  0  0  0  0  0
   -0.8393   -1.3899   21.5600 C   0  0  0  0  0  0  0  0  0  0  0  0
   -3.2285   -1.8021   21.9995 C   0  0  0  0  0  0  0  0  0  0  0  0
   -0.7165   -0.6635   22.8961 C   0  0  0  0  0  0  0  0  0  0  0  0
   -3.1134   -1.0806   23.3376 C   0  0  0  0  0  0  0  0  0  0  0  0
    2.9112   -3.3287   25.7179 C   0  0  0  0  0  0  0  0  0  0  0  0
    4.1807   -3.2430   27.8383 C   0  0  0  0  0  0  0  0  0  0  0  0
    1.6272   -3.6172   26.4791 C   0  0  0  0  0  0  0  0  0  0  0  0
    2.9137   -3.5303   28.6278 C   0  0  0  0  0  0  0  0  0  0  0  0
    8.9383   -2.9005   24.9050 C   0  0  0  0  0  0  0  0  0  0  0  0
    9.2621   -3.1091   22.0031 C   0  0  0  0  0  0  0  0  0  0  0  0
    9.1469   -1.5806   21.8487 C   0  0  0  0  0  0  0  0  0  0  0  0
    1.5030   -1.5535   27.9313 C   0  0  0  0  0  0  0  0  0  0  0  0
   -0.4938   -4.1807   20.7572 C   0  0  0  0  0  0  0  0  0  0  0  0
   -1.9378   -2.3622   21.5966 N   0  0  0  0  0  0  0  0  0  0  0  0
   -2.0323   -0.0525   23.2542 N   0  0  0  0  0  0  0  0  0  0  0  0
    4.0927   -3.8278   26.4727 N   0  0  0  0  0  0  0  0  0  0  0  0
    1.6961   -3.0446   27.8760 N   0  3  0  0  0  0  0  0  0  0  0  0
   -2.7855   -4.4995   21.2687 O   0  0  0  0  0  0  0  0  0  0  0  0
    3.3206   -6.2790   26.5862 O   0  0  0  0  0  0  0  0  0  0  0  0
    5.7491   -5.7295   26.9709 O   0  0  0  0  0  0  0  0  0  0  0  0
   -3.3450    1.4506   24.8862 O   0  0  0  0  0  0  0  0  0  0  0  0
   -0.9853    2.0748   24.2617 O   0  0  0  0  0  0  0  0  0  0  0  0
    9.0039   -2.6593   27.6828 S   0  0  0  0  0  0  0  0  0  0  0  0
    0.3291    0.0013   25.9781 S   0  0  0  0  0  0  0  0  0  0  0  0
    7.9235   -1.3093   19.3621 S   0  0  0  0  0  0  0  0  0  0  0  0
    4.4917   -5.4788   26.3004 S   0  0  0  0  0  0  0  0  0  0  0  0
   -1.9903    1.0732   24.5453 S   0  0  0  0  0  0  0  0  0  0  0  0
    5.5827   -0.4968   17.7255 Cl  0  0  0  0  0  0  0  0  0  0  0  0
    0.3793   -4.7140   22.1894 Cl  0  0  0  0  0  0  0  0  0  0  0  0
    3.2603   -6.8800   21.8292 H   0  0  0  0  0  0  0  0  0  0  0  0
    6.2639   -0.3168   27.9027 H   0  0  0  0  0  0  0  0  0  0  0  0
    5.1896   -5.8334   20.7161 H   0  0  0  0  0  0  0  0  0  0  0  0
    2.9795   -6.7096   24.2716 H   0  0  0  0  0  0  0  0  0  0  0  0
    6.7551   -1.0021   25.3906 H   0  0  0  0  0  0  0  0  0  0  0  0
   -1.3123   -2.0925   28.4228 H   0  0  0  0  0  0  0  0  0  0  0  0
    6.5525   -0.4404   22.5902 H   0  0  0  0  0  0  0  0  0  0  0  0
   -3.0641   -0.8789   26.8501 H   0  0  0  0  0  0  0  0  0  0  0  0
    4.8431    0.0820   20.6410 H   0  0  0  0  0  0  0  0  0  0  0  0
    7.2875   -4.5045   20.8545 H   0  0  0  0  0  0  0  0  0  0  0  0
    6.7599   -4.1373   25.7770 H   0  0  0  0  0  0  0  0  0  0  0  0
    7.9110   -1.5338   29.5562 H   0  0  0  0  0  0  0  0  0  0  0  0
   -1.0727   -0.6783   20.7587 H   0  0  0  0  0  0  0  0  0  0  0  0
    0.1150   -1.8578   21.3120 H   0  0  0  0  0  0  0  0  0  0  0  0
   -3.9920   -2.5838   22.0629 H   0  0  0  0  0  0  0  0  0  0  0  0
   -3.5354   -1.1034   21.2118 H   0  0  0  0  0  0  0  0  0  0  0  0
   -0.4000   -1.3544   23.6861 H   0  0  0  0  0  0  0  0  0  0  0  0
    0.0358    0.1273   22.8038 H   0  0  0  0  0  0  0  0  0  0  0  0
   -4.0658   -0.5874   23.5598 H   0  0  0  0  0  0  0  0  0  0  0  0
   -2.8915   -1.7889   24.1441 H   0  0  0  0  0  0  0  0  0  0  0  0
    2.8845   -3.7892   24.7183 H   0  0  0  0  0  0  0  0  0  0  0  0
    3.0020   -2.2412   25.5811 H   0  0  0  0  0  0  0  0  0  0  0  0
    4.3056   -2.1531   27.7588 H   0  0  0  0  0  0  0  0  0  0  0  0
    5.0652   -3.6417   28.3587 H   0  0  0  0  0  0  0  0  0  0  0  0
    0.7497   -3.1710   25.9854 H   0  0  0  0  0  0  0  0  0  0  0  0
    1.4694   -4.7014   26.5771 H   0  0  0  0  0  0  0  0  0  0  0  0
    2.7912   -4.6121   28.7850 H   0  0  0  0  0  0  0  0  0  0  0  0
    2.9177   -3.0245   29.6061 H   0  0  0  0  0  0  0  0  0  0  0  0
    9.7654   -3.5690   25.1991 H   0  0  0  0  0  0  0  0  0  0  0  0
    9.4336   -2.1169   24.3064 H   0  0  0  0  0  0  0  0  0  0  0  0
   10.1797   -3.3312   22.5733 H   0  0  0  0  0  0  0  0  0  0  0  0
    9.4238   -3.5707   21.0145 H   0  0  0  0  0  0  0  0  0  0  0  0
   10.0375   -1.1957   21.3349 H   0  0  0  0  0  0  0  0  0  0  0  0
    9.1445   -1.1002   22.8354 H   0  0  0  0  0  0  0  0  0  0  0  0
    2.3985   -1.1188   27.4556 H   0  0  0  0  0  0  0  0  0  0  0  0
    1.5523   -1.2857   29.0005 H   0  0  0  0  0  0  0  0  0  0  0  0
    0.0282   -3.3536   20.2896 H   0  0  0  0  0  0  0  0  0  0  0  0
   -0.6330   -5.0115   20.0751 H   0  0  0  0  0  0  0  0  0  0  0  0
    0.8622   -3.4532   28.3919 H   0  0  0  0  0  0  0  0  0  0  0  0
  1  3  1  0  0  0  0
  1  4  2  0  0  0  0
  2  5  1  0  0  0  0
  2 12  2  0  0  0  0
  3 13  2  0  0  0  0
  4 17  1  0  0  0  0
  5 18  2  0  0  0  0
  6  8  1  0  0  0  0
  6 20  2  0  0  0  0
  7  9  1  0  0  0  0
  7 19  2  0  0  0  0
  8 21  2  0  0  0  0
  9 22  2  0  0  0  0
 10 13  1  0  0  0  0
 10 16  2  0  0  0  0
 11 14  1  0  0  0  0
 11 15  2  0  0  0  0
 12 46  1  0  0  0  0
 13 14  1  0  0  0  0
 14 17  2  0  0  0  0
 15 16  1  0  0  0  0
 15 32  1  0  0  0  0
 16 33  1  0  0  0  0
 17 49  1  0  0  0  0
 18 32  1  0  0  0  0
 18 46  1  0  0  0  0
 19 34  1  0  0  0  0
 19 48  1  0  0  0  0
 20 35  1  0  0  0  0
 20 47  1  0  0  0  0
 21 47  1  0  0  0  0
 21 50  1  0  0  0  0
 22 48  1  0  0  0  0
 22 51  1  0  0  0  0
 23 36  1  0  0  0  0
 23 37  1  0  0  0  0
 23 41  2  0  0  0  0
 24 26  1  0  0  0  0
 24 37  1  0  0  0  0
 25 27  1  0  0  0  0
 25 37  1  0  0  0  0
 26 38  1  0  0  0  0
 27 38  1  0  0  0  0
 28 30  1  0  0  0  0
 28 39  1  0  0  0  0
 29 31  1  0  0  0  0
 29 39  1  0  0  0  0
 30 40  1  0  0  0  0
 31 40  1  0  0  0  0
 33 34  1  0  0  0  0
 35 40  1  0  0  0  0
 36 52  1  0  0  0  0
 38 50  1  0  0  0  0
 39 49  1  0  0  0  0
 42 49  2  0  0  0  0
 43 49  2  0  0  0  0
 44 50  2  0  0  0  0
 45 50  2  0  0  0  0
  1 53  1  0  0  0  0
  2 54  1  0  0  0  0
  3 55  1  0  0  0  0
  4 56  1  0  0  0  0
  5 57  1  0  0  0  0
  6 58  1  0  0  0  0
  7 59  1  0  0  0  0
  8 60  1  0  0  0  0
  9 61  1  0  0  0  0
 10 62  1  0  0  0  0
 11 63  1  0  0  0  0
 12 64  1  0  0  0  0
 24 65  1  0  0  0  0
 24 66  1  0  0  0  0
 25 67  1  0  0  0  0
 25 68  1  0  0  0  0
 26 69  1  0  0  0  0
 26 70  1  0  0  0  0
 27 71  1  0  0  0  0
 27 72  1  0  0  0  0
 28 73  1  0  0  0  0
 28 74  1  0  0  0  0
 29 75  1  0  0  0  0
 29 76  1  0  0  0  0
 30 77  1  0  0  0  0
 30 78  1  0  0  0  0
 31 79  1  0  0  0  0
 31 80  1  0  0  0  0
 32 81  1  0  0  0  0
 32 82  1  0  0  0  0
 33 83  1  0  0  0  0
 33 84  1  0  0  0  0
 34 85  1  0  0  0  0
 34 86  1  0  0  0  0
 35 87  1  0  0  0  0
 35 88  1  0  0  0  0
 36 89  1  0  0  0  0
 36 90  1  0  0  0  0
 40 91  1  0  0  0  0
M  CHG  1  40   1
M  END
> <creator>
Maksym Voznyy

> <fragments>
x1402

> <real_space>
FALSE

> <SCR>
FALSE

> <BB>
FALSE

> <link>
https://covid.postera.ai/covid/submissions/e05327b2-2d9c-4e6b-94d5-b60afa9814ed

> <covalent_frag>
TRUE

> <covalent_warhead>
TRUE

> <acrylamide>
FALSE

> <acrylamide_adduct>
FALSE

> <chloroacetamide>
TRUE

> <chloroacetamide_adduct>
FALSE

> <vinylsulfonamide>
FALSE

> <vinylsulfonamide_adduct>
FALSE

> <in_molport_or_mcule>
FALSE

> <in_emolecules>
FALSE

> <Hybrid2>
6.889365

> <Mpro-x1402_dock>
6.889365

> <site>
active-covalent

> <covalent_distance_min>
7.1930847

> <covalent_distance_mean>
8.361605

> <covalent_distance_stderr>
0.07583941

$$$$
MAK-UNK-e05-3
  -OEChem-04062011563D

 88 94  0     0  0  0  0  0  0999 V2000
    4.2189   -7.3866   24.1890 C   0  0  0  0  0  0  0  0  0  0  0  0
    4.7935   -6.8254   23.0482 C   0  0  0  0  0  0  0  0  0  0  0  0
    4.5993   -6.9417   25.4516 C   0  0  0  0  0  0  0  0  0  0  0  0
    0.7369   -0.5443   27.5567 C   0  0  0  0  0  0  0  0  0  0  0  0
    5.9040   -1.9800   20.7335 C   0  0  0  0  0  0  0  0  0  0  0  0
   -0.3426   -0.2389   26.6783 C   0  0  0  0  0  0  0  0  0  0  0  0
    5.5279   -0.8211   19.9948 C   0  0  0  0  0  0  0  0  0  0  0  0
    8.5076   -0.2644   22.7039 C   0  0  0  0  0  0  0  0  0  0  0  0
    6.3464   -5.2339   22.0195 C   0  0  0  0  0  0  0  0  0  0  0  0
    7.1086   -4.3423   24.5496 C   0  0  0  0  0  0  0  0  0  0  0  0
    7.8235    0.9061   22.9478 C   0  0  0  0  0  0  0  0  0  0  0  0
    7.1573   -0.8915   24.4888 C   0  0  0  0  0  0  0  0  0  0  0  0
    5.7576   -5.8101   23.1569 C   0  0  0  0  0  0  0  0  0  0  0  0
    6.1444   -5.3576   24.4409 C   0  0  0  0  0  0  0  0  0  0  0  0
    8.1217   -1.3058   23.5965 C   0  0  0  0  0  0  0  0  0  0  0  0
    7.6831   -3.7811   23.4088 C   0  0  0  0  0  0  0  0  0  0  0  0
    7.3027   -4.2261   22.1462 C   0  0  0  0  0  0  0  0  0  0  0  0
    5.5557   -5.9339   25.5783 C   0  0  0  0  0  0  0  0  0  0  0  0
    7.1491   -2.4438   20.3700 C   0  0  0  0  0  0  0  0  0  0  0  0
    1.9313   -0.0241   27.1090 C   0  0  0  0  0  0  0  0  0  0  0  0
    0.0679    0.5033   25.5927 C   0  0  0  0  0  0  0  0  0  0  0  0
    6.5001   -0.4432   19.0948 C   0  0  0  0  0  0  0  0  0  0  0  0
   -1.5184   -4.3568   22.5415 C   0  0  0  0  0  0  0  0  0  0  0  0
   -0.3908   -2.1566   21.9420 C   0  0  0  0  0  0  0  0  0  0  0  0
   -2.6378   -2.1882   22.9530 C   0  0  0  0  0  0  0  0  0  0  0  0
    0.0451   -1.0870   22.9389 C   0  0  0  0  0  0  0  0  0  0  0  0
   -2.2090   -1.1219   23.9546 C   0  0  0  0  0  0  0  0  0  0  0  0
    3.7926   -3.8375   27.0142 C   0  0  0  0  0  0  0  0  0  0  0  0
    5.6628   -3.0221   28.4049 C   0  0  0  0  0  0  0  0  0  0  0  0
    3.3598   -2.4069   26.7338 C   0  0  0  0  0  0  0  0  0  0  0  0
    5.2508   -1.5826   28.1388 C   0  0  0  0  0  0  0  0  0  0  0  0
    8.7051   -2.7032   23.5666 C   0  0  0  0  0  0  0  0  0  0  0  0
    7.9045   -3.6397   20.9113 C   0  0  0  0  0  0  0  0  0  0  0  0
    3.2689   -0.1212   27.7322 C   0  0  0  0  0  0  0  0  0  0  0  0
   -0.3200   -5.0800   21.9809 C   0  0  0  0  0  0  0  0  0  0  0  0
   -1.4855   -2.9643   22.4926 N   0  0  0  0  0  0  0  0  0  0  0  0
   -1.1399   -0.2732   23.3469 N   0  0  0  0  0  0  0  0  0  0  0  0
    5.2644   -3.8798   27.2517 N   0  0  0  0  0  0  0  0  0  0  0  0
    3.7607   -1.5314   27.8976 N   0  3  0  0  0  0  0  0  0  0  0  0
   -2.4530   -5.0111   23.0107 O   0  0  0  0  0  0  0  0  0  0  0  0
    5.2446   -6.3011   28.1360 O   0  0  0  0  0  0  0  0  0  0  0  0
    7.4060   -5.3107   27.3023 O   0  0  0  0  0  0  0  0  0  0  0  0
   -2.0138    1.7614   24.6669 O   0  0  0  0  0  0  0  0  0  0  0  0
    0.1706    1.9435   23.4248 O   0  0  0  0  0  0  0  0  0  0  0  0
    6.7211    0.7469   24.2484 S   0  0  0  0  0  0  0  0  0  0  0  0
    1.7485    0.8286   25.6353 S   0  0  0  0  0  0  0  0  0  0  0  0
    7.8593   -1.4837   19.1428 S   0  0  0  0  0  0  0  0  0  0  0  0
    5.9673   -5.4424   27.2229 S   0  0  0  0  0  0  0  0  0  0  0  0
   -0.7797    1.1711   24.1956 S   0  0  0  0  0  0  0  0  0  0  0  0
    6.4688    0.8827   18.0095 Cl  0  0  0  0  0  0  0  0  0  0  0  0
    0.8280   -5.2536   23.3037 Cl  0  0  0  0  0  0  0  0  0  0  0  0
    3.4743   -8.1712   24.0909 H   0  0  0  0  0  0  0  0  0  0  0  0
    4.4809   -7.1889   22.0715 H   0  0  0  0  0  0  0  0  0  0  0  0
    4.1421   -7.3892   26.3304 H   0  0  0  0  0  0  0  0  0  0  0  0
    0.6379   -1.1169   28.4701 H   0  0  0  0  0  0  0  0  0  0  0  0
    5.2890   -2.4466   21.4926 H   0  0  0  0  0  0  0  0  0  0  0  0
   -1.3676   -0.5485   26.8362 H   0  0  0  0  0  0  0  0  0  0  0  0
    4.5898   -0.2956   20.1221 H   0  0  0  0  0  0  0  0  0  0  0  0
    9.2493   -0.3643   21.9215 H   0  0  0  0  0  0  0  0  0  0  0  0
    6.0573   -5.5736   21.0262 H   0  0  0  0  0  0  0  0  0  0  0  0
    7.4313   -3.9689   25.5186 H   0  0  0  0  0  0  0  0  0  0  0  0
    7.9188    1.8473   22.4250 H   0  0  0  0  0  0  0  0  0  0  0  0
    6.6864   -1.4687   25.2724 H   0  0  0  0  0  0  0  0  0  0  0  0
   -0.7711   -1.6912   21.0246 H   0  0  0  0  0  0  0  0  0  0  0  0
    0.4702   -2.7670   21.6646 H   0  0  0  0  0  0  0  0  0  0  0  0
   -3.3936   -2.8391   23.4033 H   0  0  0  0  0  0  0  0  0  0  0  0
   -3.0871   -1.7239   22.0667 H   0  0  0  0  0  0  0  0  0  0  0  0
    0.5045   -1.5441   23.8229 H   0  0  0  0  0  0  0  0  0  0  0  0
    0.7840   -0.4348   22.4609 H   0  0  0  0  0  0  0  0  0  0  0  0
   -3.0731   -0.4951   24.1999 H   0  0  0  0  0  0  0  0  0  0  0  0
   -1.8388   -1.5815   24.8782 H   0  0  0  0  0  0  0  0  0  0  0  0
    3.2626   -4.2438   27.8836 H   0  0  0  0  0  0  0  0  0  0  0  0
    3.5494   -4.4565   26.1437 H   0  0  0  0  0  0  0  0  0  0  0  0
    6.7510   -3.0605   28.5255 H   0  0  0  0  0  0  0  0  0  0  0  0
    5.2023   -3.3984   29.3258 H   0  0  0  0  0  0  0  0  0  0  0  0
    3.8406   -2.0024   25.8370 H   0  0  0  0  0  0  0  0  0  0  0  0
    2.2724   -2.3432   26.6338 H   0  0  0  0  0  0  0  0  0  0  0  0
    5.4651   -0.9511   29.0058 H   0  0  0  0  0  0  0  0  0  0  0  0
    5.7422   -1.1743   27.2496 H   0  0  0  0  0  0  0  0  0  0  0  0
    9.4538   -2.7619   22.7582 H   0  0  0  0  0  0  0  0  0  0  0  0
    9.2958   -2.8651   24.4844 H   0  0  0  0  0  0  0  0  0  0  0  0
    8.9528   -3.3483   21.0954 H   0  0  0  0  0  0  0  0  0  0  0  0
    7.9797   -4.4045   20.1193 H   0  0  0  0  0  0  0  0  0  0  0  0
    4.0431    0.3975   27.1417 H   0  0  0  0  0  0  0  0  0  0  0  0
    3.2918    0.3232   28.7418 H   0  0  0  0  0  0  0  0  0  0  0  0
    0.1133   -4.4805   21.1883 H   0  0  0  0  0  0  0  0  0  0  0  0
   -0.6320   -6.0563   21.6281 H   0  0  0  0  0  0  0  0  0  0  0  0
    3.3006   -1.9089   28.7384 H   0  0  0  0  0  0  0  0  0  0  0  0
  1  2  1  0  0  0  0
  1  3  2  0  0  0  0
  2 13  2  0  0  0  0
  3 18  1  0  0  0  0
  4  6  1  0  0  0  0
  4 20  2  0  0  0  0
  5  7  1  0  0  0  0
  5 19  2  0  0  0  0
  6 21  2  0  0  0  0
  7 22  2  0  0  0  0
  8 11  2  0  0  0  0
  8 15  1  0  0  0  0
  9 13  1  0  0  0  0
  9 17  2  0  0  0  0
 10 14  1  0  0  0  0
 10 16  2  0  0  0  0
 11 45  1  0  0  0  0
 12 15  2  0  0  0  0
 12 45  1  0  0  0  0
 13 14  1  0  0  0  0
 14 18  2  0  0  0  0
 15 32  1  0  0  0  0
 16 17  1  0  0  0  0
 16 32  1  0  0  0  0
 17 33  1  0  0  0  0
 18 48  1  0  0  0  0
 19 33  1  0  0  0  0
 19 47  1  0  0  0  0
 20 34  1  0  0  0  0
 20 46  1  0  0  0  0
 21 46  1  0  0  0  0
 21 49  1  0  0  0  0
 22 47  1  0  0  0  0
 22 50  1  0  0  0  0
 23 35  1  0  0  0  0
 23 36  1  0  0  0  0
 23 40  2  0  0  0  0
 24 26  1  0  0  0  0
 24 36  1  0  0  0  0
 25 27  1  0  0  0  0
 25 36  1  0  0  0  0
 26 37  1  0  0  0  0
 27 37  1  0  0  0  0
 28 30  1  0  0  0  0
 28 38  1  0  0  0  0
 29 31  1  0  0  0  0
 29 38  1  0  0  0  0
 30 39  1  0  0  0  0
 31 39  1  0  0  0  0
 34 39  1  0  0  0  0
 35 51  1  0  0  0  0
 37 49  1  0  0  0  0
 38 48  1  0  0  0  0
 41 48  2  0  0  0  0
 42 48  2  0  0  0  0
 43 49  2  0  0  0  0
 44 49  2  0  0  0  0
  1 52  1  0  0  0  0
  2 53  1  0  0  0  0
  3 54  1  0  0  0  0
  4 55  1  0  0  0  0
  5 56  1  0  0  0  0
  6 57  1  0  0  0  0
  7 58  1  0  0  0  0
  8 59  1  0  0  0  0
  9 60  1  0  0  0  0
 10 61  1  0  0  0  0
 11 62  1  0  0  0  0
 12 63  1  0  0  0  0
 24 64  1  0  0  0  0
 24 65  1  0  0  0  0
 25 66  1  0  0  0  0
 25 67  1  0  0  0  0
 26 68  1  0  0  0  0
 26 69  1  0  0  0  0
 27 70  1  0  0  0  0
 27 71  1  0  0  0  0
 28 72  1  0  0  0  0
 28 73  1  0  0  0  0
 29 74  1  0  0  0  0
 29 75  1  0  0  0  0
 30 76  1  0  0  0  0
 30 77  1  0  0  0  0
 31 78  1  0  0  0  0
 31 79  1  0  0  0  0
 32 80  1  0  0  0  0
 32 81  1  0  0  0  0
 33 82  1  0  0  0  0
 33 83  1  0  0  0  0
 34 84  1  0  0  0  0
 34 85  1  0  0  0  0
 35 86  1  0  0  0  0
 35 87  1  0  0  0  0
 39 88  1  0  0  0  0
M  CHG  1  39   1
M  END
> <creator>
Maksym Voznyy

> <fragments>
x1402

> <real_space>
FALSE

> <SCR>
FALSE

> <BB>
FALSE

> <link>
https://covid.postera.ai/covid/submissions/e05327b2-2d9c-4e6b-94d5-b60afa9814ed

> <covalent_frag>
TRUE

> <covalent_warhead>
TRUE

> <acrylamide>
FALSE

> <acrylamide_adduct>
FALSE

> <chloroacetamide>
TRUE

> <chloroacetamide_adduct>
FALSE

> <vinylsulfonamide>
FALSE

> <vinylsulfonamide_adduct>
FALSE

> <in_molport_or_mcule>
FALSE

> <in_emolecules>
FALSE

> <Hybrid2>
6.921484

> <Mpro-x1402_dock>
6.921484

> <site>
active-covalent

> <covalent_distance_min>
7.4183397

> <covalent_distance_mean>
8.107939

> <covalent_distance_stderr>
0.050711054

$$$$
MAK-UNK-e05-4
  -OEChem-04062011563D

 88 94  0     0  0  0  0  0  0999 V2000
    4.2189   -7.3866   24.1890 C   0  0  0  0  0  0  0  0  0  0  0  0
    4.7935   -6.8254   23.0482 C   0  0  0  0  0  0  0  0  0  0  0  0
    4.5993   -6.9417   25.4516 C   0  0  0  0  0  0  0  0  0  0  0  0
    0.7369   -0.5443   27.5567 C   0  0  0  0  0  0  0  0  0  0  0  0
    5.9040   -1.9800   20.7335 C   0  0  0  0  0  0  0  0  0  0  0  0
   -0.3426   -0.2389   26.6783 C   0  0  0  0  0  0  0  0  0  0  0  0
    5.5279   -0.8211   19.9948 C   0  0  0  0  0  0  0  0  0  0  0  0
    8.5076   -0.2644   22.7039 C   0  0  0  0  0  0  0  0  0  0  0  0
    6.3464   -5.2339   22.0195 C   0  0  0  0  0  0  0  0  0  0  0  0
    7.1086   -4.3423   24.5496 C   0  0  0  0  0  0  0  0  0  0  0  0
    7.8235    0.9061   22.9478 C   0  0  0  0  0  0  0  0  0  0  0  0
    7.1573   -0.8915   24.4888 C   0  0  0  0  0  0  0  0  0  0  0  0
    5.7576   -5.8101   23.1569 C   0  0  0  0  0  0  0  0  0  0  0  0
    6.1444   -5.3576   24.4409 C   0  0  0  0  0  0  0  0  0  0  0  0
    8.1217   -1.3058   23.5965 C   0  0  0  0  0  0  0  0  0  0  0  0
    7.6831   -3.7811   23.4088 C   0  0  0  0  0  0  0  0  0  0  0  0
    7.3027   -4.2261   22.1462 C   0  0  0  0  0  0  0  0  0  0  0  0
    5.5557   -5.9339   25.5783 C   0  0  0  0  0  0  0  0  0  0  0  0
    7.1491   -2.4438   20.3700 C   0  0  0  0  0  0  0  0  0  0  0  0
    1.9313   -0.0241   27.1090 C   0  0  0  0  0  0  0  0  0  0  0  0
    0.0679    0.5033   25.5927 C   0  0  0  0  0  0  0  0  0  0  0  0
    6.5001   -0.4432   19.0948 C   0  0  0  0  0  0  0  0  0  0  0  0
   -1.5184   -4.3568   22.5415 C   0  0  0  0  0  0  0  0  0  0  0  0
   -0.3908   -2.1566   21.9420 C   0  0  0  0  0  0  0  0  0  0  0  0
   -2.6378   -2.1882   22.9530 C   0  0  0  0  0  0  0  0  0  0  0  0
    0.0451   -1.0870   22.9389 C   0  0  0  0  0  0  0  0  0  0  0  0
   -2.2090   -1.1219   23.9546 C   0  0  0  0  0  0  0  0  0  0  0  0
    3.7926   -3.8375   27.0142 C   0  0  0  0  0  0  0  0  0  0  0  0
    5.6628   -3.0221   28.4049 C   0  0  0  0  0  0  0  0  0  0  0  0
    3.3598   -2.4069   26.7338 C   0  0  0  0  0  0  0  0  0  0  0  0
    5.2508   -1.5826   28.1388 C   0  0  0  0  0  0  0  0  0  0  0  0
    8.7051   -2.7032   23.5666 C   0  0  0  0  0  0  0  0  0  0  0  0
    7.9045   -3.6397   20.9113 C   0  0  0  0  0  0  0  0  0  0  0  0
    3.2689   -0.1212   27.7322 C   0  0  0  0  0  0  0  0  0  0  0  0
   -0.3200   -5.0800   21.9809 C   0  0  0  0  0  0  0  0  0  0  0  0
   -1.4855   -2.9643   22.4926 N   0  0  0  0  0  0  0  0  0  0  0  0
   -1.1399   -0.2732   23.3469 N   0  0  0  0  0  0  0  0  0  0  0  0
    5.2644   -3.8798   27.2517 N   0  0  0  0  0  0  0  0  0  0  0  0
    3.7607   -1.5314   27.8976 N   0  3  0  0  0  0  0  0  0  0  0  0
   -2.4530   -5.0111   23.0107 O   0  0  0  0  0  0  0  0  0  0  0  0
    5.2446   -6.3011   28.1360 O   0  0  0  0  0  0  0  0  0  0  0  0
    7.4060   -5.3107   27.3023 O   0  0  0  0  0  0  0  0  0  0  0  0
   -2.0138    1.7614   24.6669 O   0  0  0  0  0  0  0  0  0  0  0  0
    0.1706    1.9435   23.4248 O   0  0  0  0  0  0  0  0  0  0  0  0
    6.7211    0.7469   24.2484 S   0  0  0  0  0  0  0  0  0  0  0  0
    1.7485    0.8286   25.6353 S   0  0  0  0  0  0  0  0  0  0  0  0
    7.8593   -1.4837   19.1428 S   0  0  0  0  0  0  0  0  0  0  0  0
    5.9673   -5.4424   27.2229 S   0  0  0  0  0  0  0  0  0  0  0  0
   -0.7797    1.1711   24.1956 S   0  0  0  0  0  0  0  0  0  0  0  0
    6.4688    0.8827   18.0095 Cl  0  0  0  0  0  0  0  0  0  0  0  0
    0.8280   -5.2536   23.3037 Cl  0  0  0  0  0  0  0  0  0  0  0  0
    3.4743   -8.1712   24.0909 H   0  0  0  0  0  0  0  0  0  0  0  0
    4.4809   -7.1889   22.0715 H   0  0  0  0  0  0  0  0  0  0  0  0
    4.1421   -7.3892   26.3304 H   0  0  0  0  0  0  0  0  0  0  0  0
    0.6379   -1.1169   28.4701 H   0  0  0  0  0  0  0  0  0  0  0  0
    5.2890   -2.4466   21.4926 H   0  0  0  0  0  0  0  0  0  0  0  0
   -1.3676   -0.5485   26.8362 H   0  0  0  0  0  0  0  0  0  0  0  0
    4.5898   -0.2956   20.1221 H   0  0  0  0  0  0  0  0  0  0  0  0
    9.2493   -0.3643   21.9215 H   0  0  0  0  0  0  0  0  0  0  0  0
    6.0573   -5.5736   21.0262 H   0  0  0  0  0  0  0  0  0  0  0  0
    7.4313   -3.9689   25.5186 H   0  0  0  0  0  0  0  0  0  0  0  0
    7.9188    1.8473   22.4250 H   0  0  0  0  0  0  0  0  0  0  0  0
    6.6864   -1.4687   25.2724 H   0  0  0  0  0  0  0  0  0  0  0  0
   -0.7711   -1.6912   21.0246 H   0  0  0  0  0  0  0  0  0  0  0  0
    0.4702   -2.7670   21.6646 H   0  0  0  0  0  0  0  0  0  0  0  0
   -3.3936   -2.8391   23.4033 H   0  0  0  0  0  0  0  0  0  0  0  0
   -3.0871   -1.7239   22.0667 H   0  0  0  0  0  0  0  0  0  0  0  0
    0.5045   -1.5441   23.8229 H   0  0  0  0  0  0  0  0  0  0  0  0
    0.7840   -0.4348   22.4609 H   0  0  0  0  0  0  0  0  0  0  0  0
   -3.0731   -0.4951   24.1999 H   0  0  0  0  0  0  0  0  0  0  0  0
   -1.8388   -1.5815   24.8782 H   0  0  0  0  0  0  0  0  0  0  0  0
    3.2626   -4.2438   27.8836 H   0  0  0  0  0  0  0  0  0  0  0  0
    3.5494   -4.4565   26.1437 H   0  0  0  0  0  0  0  0  0  0  0  0
    6.7510   -3.0605   28.5255 H   0  0  0  0  0  0  0  0  0  0  0  0
    5.2023   -3.3984   29.3258 H   0  0  0  0  0  0  0  0  0  0  0  0
    3.8406   -2.0024   25.8370 H   0  0  0  0  0  0  0  0  0  0  0  0
    2.2724   -2.3432   26.6338 H   0  0  0  0  0  0  0  0  0  0  0  0
    5.4651   -0.9511   29.0058 H   0  0  0  0  0  0  0  0  0  0  0  0
    5.7422   -1.1743   27.2496 H   0  0  0  0  0  0  0  0  0  0  0  0
    9.4538   -2.7619   22.7582 H   0  0  0  0  0  0  0  0  0  0  0  0
    9.2958   -2.8651   24.4844 H   0  0  0  0  0  0  0  0  0  0  0  0
    8.9528   -3.3483   21.0954 H   0  0  0  0  0  0  0  0  0  0  0  0
    7.9797   -4.4045   20.1193 H   0  0  0  0  0  0  0  0  0  0  0  0
    4.0431    0.3975   27.1417 H   0  0  0  0  0  0  0  0  0  0  0  0
    3.2918    0.3232   28.7418 H   0  0  0  0  0  0  0  0  0  0  0  0
    0.1133   -4.4805   21.1883 H   0  0  0  0  0  0  0  0  0  0  0  0
   -0.6320   -6.0563   21.6281 H   0  0  0  0  0  0  0  0  0  0  0  0
    3.3006   -1.9089   28.7384 H   0  0  0  0  0  0  0  0  0  0  0  0
  1  2  1  0  0  0  0
  1  3  2  0  0  0  0
  2 13  2  0  0  0  0
  3 18  1  0  0  0  0
  4  6  1  0  0  0  0
  4 20  2  0  0  0  0
  5  7  1  0  0  0  0
  5 19  2  0  0  0  0
  6 21  2  0  0  0  0
  7 22  2  0  0  0  0
  8 11  2  0  0  0  0
  8 15  1  0  0  0  0
  9 13  1  0  0  0  0
  9 17  2  0  0  0  0
 10 14  1  0  0  0  0
 10 16  2  0  0  0  0
 11 45  1  0  0  0  0
 12 15  2  0  0  0  0
 12 45  1  0  0  0  0
 13 14  1  0  0  0  0
 14 18  2  0  0  0  0
 15 32  1  0  0  0  0
 16 17  1  0  0  0  0
 16 32  1  0  0  0  0
 17 33  1  0  0  0  0
 18 48  1  0  0  0  0
 19 33  1  0  0  0  0
 19 47  1  0  0  0  0
 20 34  1  0  0  0  0
 20 46  1  0  0  0  0
 21 46  1  0  0  0  0
 21 49  1  0  0  0  0
 22 47  1  0  0  0  0
 22 50  1  0  0  0  0
 23 35  1  0  0  0  0
 23 36  1  0  0  0  0
 23 40  2  0  0  0  0
 24 26  1  0  0  0  0
 24 36  1  0  0  0  0
 25 27  1  0  0  0  0
 25 36  1  0  0  0  0
 26 37  1  0  0  0  0
 27 37  1  0  0  0  0
 28 30  1  0  0  0  0
 28 38  1  0  0  0  0
 29 31  1  0  0  0  0
 29 38  1  0  0  0  0
 30 39  1  0  0  0  0
 31 39  1  0  0  0  0
 34 39  1  0  0  0  0
 35 51  1  0  0  0  0
 37 49  1  0  0  0  0
 38 48  1  0  0  0  0
 41 48  2  0  0  0  0
 42 48  2  0  0  0  0
 43 49  2  0  0  0  0
 44 49  2  0  0  0  0
  1 52  1  0  0  0  0
  2 53  1  0  0  0  0
  3 54  1  0  0  0  0
  4 55  1  0  0  0  0
  5 56  1  0  0  0  0
  6 57  1  0  0  0  0
  7 58  1  0  0  0  0
  8 59  1  0  0  0  0
  9 60  1  0  0  0  0
 10 61  1  0  0  0  0
 11 62  1  0  0  0  0
 12 63  1  0  0  0  0
 24 64  1  0  0  0  0
 24 65  1  0  0  0  0
 25 66  1  0  0  0  0
 25 67  1  0  0  0  0
 26 68  1  0  0  0  0
 26 69  1  0  0  0  0
 27 70  1  0  0  0  0
 27 71  1  0  0  0  0
 28 72  1  0  0  0  0
 28 73  1  0  0  0  0
 29 74  1  0  0  0  0
 29 75  1  0  0  0  0
 30 76  1  0  0  0  0
 30 77  1  0  0  0  0
 31 78  1  0  0  0  0
 31 79  1  0  0  0  0
 32 80  1  0  0  0  0
 32 81  1  0  0  0  0
 33 82  1  0  0  0  0
 33 83  1  0  0  0  0
 34 84  1  0  0  0  0
 34 85  1  0  0  0  0
 35 86  1  0  0  0  0
 35 87  1  0  0  0  0
 39 88  1  0  0  0  0
M  CHG  1  39   1
M  END
> <creator>
Maksym Voznyy

> <fragments>
x1402

> <real_space>
FALSE

> <SCR>
FALSE

> <BB>
FALSE

> <link>
https://covid.postera.ai/covid/submissions/e05327b2-2d9c-4e6b-94d5-b60afa9814ed

> <covalent_frag>
TRUE

> <covalent_warhead>
TRUE

> <acrylamide>
FALSE

> <acrylamide_adduct>
FALSE

> <chloroacetamide>
TRUE

> <chloroacetamide_adduct>
FALSE

> <vinylsulfonamide>
FALSE

> <vinylsulfonamide_adduct>
FALSE

> <in_molport_or_mcule>
FALSE

> <in_emolecules>
FALSE

> <Hybrid2>
6.921484

> <Mpro-x1402_dock>
6.921484

> <site>
active-covalent

> <covalent_distance_min>
6.7951922

> <covalent_distance_mean>
7.9130144

> <covalent_distance_stderr>
0.118171446

$$$$
MAK-UNK-e4a-19
  -OEChem-04062011563D

 75 78  0     1  0  0  0  0  0999 V2000
    9.1918   -1.9610   21.6292 C   0  0  0  0  0  0  0  0  0  0  0  0
   10.3392   -1.4533   22.2386 C   0  0  0  0  0  0  0  0  0  0  0  0
    9.2809   -1.6572   24.4010 C   0  0  0  0  0  0  0  0  0  0  0  0
    8.0889   -2.3167   22.4057 C   0  0  0  0  0  0  0  0  0  0  0  0
   10.3838   -1.3014   23.6245 C   0  0  0  0  0  0  0  0  0  0  0  0
    8.1335   -2.1648   23.7915 C   0  0  0  0  0  0  0  0  0  0  0  0
   12.7135    4.6666   24.5892 C   0  0  0  0  0  0  0  0  0  0  0  0
    5.8133    1.3001   16.0481 C   0  0  0  0  0  0  0  0  0  0  0  0
    3.3412    1.0400   15.6606 C   0  0  0  0  0  0  0  0  0  0  0  0
   13.6035    2.4817   23.8442 C   0  0  0  0  0  0  0  0  0  0  0  0
   11.2181    2.9560   23.4467 C   0  0  0  0  0  0  0  0  0  0  0  0
    5.7130    0.4038   17.2725 C   0  0  0  0  0  0  0  0  0  0  0  0
    3.2466    0.1441   16.8858 C   0  0  0  0  0  0  0  0  0  0  0  0
   13.2561    1.1230   24.4350 C   0  0  0  0  0  0  0  0  0  0  0  0
   10.8346    1.6028   24.0301 C   0  0  0  0  0  0  0  0  0  0  0  0
    6.8590   -2.8639   21.7241 C   0  0  1  0  0  0  0  0  0  0  0  0
    4.5007    2.0269   15.7703 C   0  0  0  0  0  0  0  0  0  0  0  0
    6.3095   -1.9491   20.6366 C   0  0  1  0  0  0  0  0  0  0  0  0
    5.7308   -2.9465   19.6565 C   0  0  2  0  0  0  0  0  0  0  0  0
    6.7550   -4.0669   19.7226 C   0  0  2  0  0  0  0  0  0  0  0  0
    6.9648   -2.5384   24.6432 C   0  0  0  0  0  0  0  0  0  0  0  0
   11.6178   -0.7551   24.2799 C   0  0  0  0  0  0  0  0  0  0  0  0
   11.5164    5.5747   24.7153 C   0  0  0  0  0  0  0  0  0  0  0  0
    6.1925   -5.4216   19.3313 C   0  0  0  0  0  0  0  0  0  0  0  0
    4.4927   -1.5526   18.2231 C   0  0  0  0  0  0  0  0  0  0  0  0
   12.4939    3.4222   24.0004 N   0  0  0  0  0  0  0  0  0  0  0  0
   11.9703    0.6284   23.8108 N   0  3  0  0  0  0  0  0  0  0  0  0
    4.5657   -0.5628   17.0930 N   0  3  0  0  0  0  0  0  0  0  0  0
   13.8094    5.0525   25.0044 O   0  0  0  0  0  0  0  0  0  0  0  0
    7.2064   -4.1106   21.0870 O   0  0  0  0  0  0  0  0  0  0  0  0
    4.6297    2.7545   14.5542 O   0  0  0  0  0  0  0  0  0  0  0  0
    5.3081   -1.0926   21.1583 O   0  0  0  0  0  0  0  0  0  0  0  0
    5.1397   -5.7547   20.2212 O   0  0  0  0  0  0  0  0  0  0  0  0
    5.6384   -2.3886   18.3597 O   0  0  0  0  0  0  0  0  0  0  0  0
   10.7567    5.1956   26.2570 Cl  0  0  0  0  0  0  0  0  0  0  0  0
    9.1669   -2.0757   20.5486 H   0  0  0  0  0  0  0  0  0  0  0  0
   11.1941   -1.1794   21.6257 H   0  0  0  0  0  0  0  0  0  0  0  0
    9.3162   -1.5376   25.4812 H   0  0  0  0  0  0  0  0  0  0  0  0
    6.6163    2.0339   16.1887 H   0  0  0  0  0  0  0  0  0  0  0  0
    6.1068    0.7092   15.1703 H   0  0  0  0  0  0  0  0  0  0  0  0
    3.4556    0.4302   14.7548 H   0  0  0  0  0  0  0  0  0  0  0  0
    2.4013    1.5890   15.5279 H   0  0  0  0  0  0  0  0  0  0  0  0
   14.5095    2.8672   24.3223 H   0  0  0  0  0  0  0  0  0  0  0  0
   13.8140    2.3961   22.7712 H   0  0  0  0  0  0  0  0  0  0  0  0
   11.3419    2.8859   22.3592 H   0  0  0  0  0  0  0  0  0  0  0  0
   10.4103    3.6663   23.6309 H   0  0  0  0  0  0  0  0  0  0  0  0
    6.6229   -0.1893   17.3904 H   0  0  0  0  0  0  0  0  0  0  0  0
    5.5221    0.9788   18.1828 H   0  0  0  0  0  0  0  0  0  0  0  0
    3.0316    0.7161   17.7924 H   0  0  0  0  0  0  0  0  0  0  0  0
    2.4839   -0.6248   16.7409 H   0  0  0  0  0  0  0  0  0  0  0  0
   14.0350    0.3897   24.2023 H   0  0  0  0  0  0  0  0  0  0  0  0
   13.1069    1.1723   25.5195 H   0  0  0  0  0  0  0  0  0  0  0  0
   10.6432    1.6598   25.1075 H   0  0  0  0  0  0  0  0  0  0  0  0
    9.9546    1.1980   23.5199 H   0  0  0  0  0  0  0  0  0  0  0  0
    6.1108   -3.0808   22.5024 H   0  0  0  0  0  0  0  0  0  0  0  0
    4.3045    2.7476   16.5730 H   0  0  0  0  0  0  0  0  0  0  0  0
    7.0834   -1.3290   20.1679 H   0  0  0  0  0  0  0  0  0  0  0  0
    4.7313   -3.2677   19.9738 H   0  0  0  0  0  0  0  0  0  0  0  0
    7.6218   -3.8443   19.0884 H   0  0  0  0  0  0  0  0  0  0  0  0
    6.2950   -1.6796   24.7669 H   0  0  0  0  0  0  0  0  0  0  0  0
    6.3966   -3.3636   24.1965 H   0  0  0  0  0  0  0  0  0  0  0  0
    7.2893   -2.8747   25.6358 H   0  0  0  0  0  0  0  0  0  0  0  0
   11.4963   -0.6972   25.3669 H   0  0  0  0  0  0  0  0  0  0  0  0
   12.4879   -1.3881   24.0747 H   0  0  0  0  0  0  0  0  0  0  0  0
   10.8308    5.3675   23.9016 H   0  0  0  0  0  0  0  0  0  0  0  0
   11.8545    6.6046   24.7100 H   0  0  0  0  0  0  0  0  0  0  0  0
    6.9687   -6.1877   19.3963 H   0  0  0  0  0  0  0  0  0  0  0  0
    5.8000   -5.3896   18.3122 H   0  0  0  0  0  0  0  0  0  0  0  0
    4.3497   -0.9620   19.1340 H   0  0  0  0  0  0  0  0  0  0  0  0
    3.6038   -2.1634   18.0341 H   0  0  0  0  0  0  0  0  0  0  0  0
   12.1263    0.5624   22.7954 H   0  0  0  0  0  0  0  0  0  0  0  0
    4.7572   -1.1027   16.2359 H   0  0  0  0  0  0  0  0  0  0  0  0
    3.7820    3.2032   14.4070 H   0  0  0  0  0  0  0  0  0  0  0  0
    5.7234   -0.5638   21.8605 H   0  0  0  0  0  0  0  0  0  0  0  0
    5.5214   -5.7808   21.1144 H   0  0  0  0  0  0  0  0  0  0  0  0
  1  2  2  0  0  0  0
  1  4  1  0  0  0  0
  2  5  1  0  0  0  0
  3  5  2  0  0  0  0
  3  6  1  0  0  0  0
  4  6  2  0  0  0  0
  4 16  1  0  0  0  0
  5 22  1  0  0  0  0
  6 21  1  0  0  0  0
  7 23  1  0  0  0  0
  7 26  1  0  0  0  0
  7 29  2  0  0  0  0
  8 12  1  0  0  0  0
  8 17  1  0  0  0  0
  9 13  1  0  0  0  0
  9 17  1  0  0  0  0
 10 14  1  0  0  0  0
 10 26  1  0  0  0  0
 11 15  1  0  0  0  0
 11 26  1  0  0  0  0
 12 28  1  0  0  0  0
 13 28  1  0  0  0  0
 14 27  1  0  0  0  0
 15 27  1  0  0  0  0
 16 18  1  0  0  0  0
 16 30  1  0  0  0  0
 17 31  1  0  0  0  0
 18 19  1  0  0  0  0
 18 32  1  0  0  0  0
 19 20  1  0  0  0  0
 19 34  1  0  0  0  0
 20 24  1  0  0  0  0
 20 30  1  0  0  0  0
 22 27  1  0  0  0  0
 23 35  1  0  0  0  0
 24 33  1  0  0  0  0
 25 28  1  0  0  0  0
 25 34  1  0  0  0  0
  1 36  1  0  0  0  0
  2 37  1  0  0  0  0
  3 38  1  0  0  0  0
  8 39  1  0  0  0  0
  8 40  1  0  0  0  0
  9 41  1  0  0  0  0
  9 42  1  0  0  0  0
 10 43  1  0  0  0  0
 10 44  1  0  0  0  0
 11 45  1  0  0  0  0
 11 46  1  0  0  0  0
 12 47  1  0  0  0  0
 12 48  1  0  0  0  0
 13 49  1  0  0  0  0
 13 50  1  0  0  0  0
 14 51  1  0  0  0  0
 14 52  1  0  0  0  0
 15 53  1  0  0  0  0
 15 54  1  0  0  0  0
 16 55  1  0  0  0  0
 17 56  1  0  0  0  0
 18 57  1  0  0  0  0
 19 58  1  0  0  0  0
 20 59  1  0  0  0  0
 21 60  1  0  0  0  0
 21 61  1  0  0  0  0
 21 62  1  0  0  0  0
 22 63  1  0  0  0  0
 22 64  1  0  0  0  0
 23 65  1  0  0  0  0
 23 66  1  0  0  0  0
 24 67  1  0  0  0  0
 24 68  1  0  0  0  0
 25 69  1  0  0  0  0
 25 70  1  0  0  0  0
 27 71  1  0  0  0  0
 28 72  1  0  0  0  0
 31 73  1  0  0  0  0
 32 74  1  0  0  0  0
 33 75  1  0  0  0  0
M  CHG  2  27   1  28   1
M  END
> <creator>
Maksym Voznyy

> <fragments>
x0692

> <real_space>
FALSE

> <SCR>
FALSE

> <BB>
FALSE

> <link>
https://covid.postera.ai/covid/submissions/e4a48a85-91ce-4c28-86d4-edf9997dafca

> <covalent_frag>
TRUE

> <covalent_warhead>
TRUE

> <acrylamide>
FALSE

> <acrylamide_adduct>
FALSE

> <chloroacetamide>
TRUE

> <chloroacetamide_adduct>
FALSE

> <vinylsulfonamide>
FALSE

> <vinylsulfonamide_adduct>
FALSE

> <in_molport_or_mcule>
FALSE

> <in_emolecules>
FALSE

> <Hybrid2>
8.078110

> <Mpro-x0692_dock>
8.07811

> <site>
active-covalent

$$$$
MAK-UNK-e05-5
  -OEChem-04062011563D

106113  0     0  0  0  0  0  0999 V2000
   -0.5437   -6.1708   20.5149 C   0  0  0  0  0  0  0  0  0  0  0  0
    0.8222   -6.1976   20.2320 C   0  0  0  0  0  0  0  0  0  0  0  0
   -0.9864   -6.3102   21.8270 C   0  0  0  0  0  0  0  0  0  0  0  0
    2.9781   -1.9668   27.4097 C   0  0  0  0  0  0  0  0  0  0  0  0
    8.7121   -0.8825   21.0886 C   0  0  0  0  0  0  0  0  0  0  0  0
    4.2691   -1.6406   26.9026 C   0  0  0  0  0  0  0  0  0  0  0  0
    9.7468    0.0721   21.3086 C   0  0  0  0  0  0  0  0  0  0  0  0
    7.1624   -6.1950   26.2067 C   0  0  0  0  0  0  0  0  0  0  0  0
    3.1424   -6.3941   20.9938 C   0  0  0  0  0  0  0  0  0  0  0  0
    2.2554   -6.6735   23.6230 C   0  0  0  0  0  0  0  0  0  0  0  0
    7.8668   -6.2958   27.3862 C   0  0  0  0  0  0  0  0  0  0  0  0
    5.5309   -5.6225   27.7599 C   0  0  0  0  0  0  0  0  0  0  0  0
    1.7639   -6.3647   21.2604 C   0  0  0  0  0  0  0  0  0  0  0  0
    1.3137   -6.5065   22.5946 C   0  0  0  0  0  0  0  0  0  0  0  0
    5.8093   -5.8048   26.4230 C   0  0  0  0  0  0  0  0  0  0  0  0
    3.6213   -6.7003   23.3400 C   0  0  0  0  0  0  0  0  0  0  0  0
    4.0640   -6.5609   22.0279 C   0  0  0  0  0  0  0  0  0  0  0  0
   -0.0649   -6.4771   22.8611 C   0  0  0  0  0  0  0  0  0  0  0  0
    1.9771   -1.2844   26.7542 C   0  0  0  0  0  0  0  0  0  0  0  0
    8.8787   -2.0126   21.8584 C   0  0  0  0  0  0  0  0  0  0  0  0
    4.2055   -0.7212   25.8785 C   0  0  0  0  0  0  0  0  0  0  0  0
   10.6647   -0.3648   22.2384 C   0  0  0  0  0  0  0  0  0  0  0  0
    9.0039    3.4590   26.9941 C   0  0  0  0  0  0  0  0  0  0  0  0
    6.8132    2.3092   27.0376 C   0  0  0  0  0  0  0  0  0  0  0  0
    8.3705    1.7771   25.1939 C   0  0  0  0  0  0  0  0  0  0  0  0
    6.5495    0.8231   27.2462 C   0  0  0  0  0  0  0  0  0  0  0  0
    8.1030    0.2900   25.4002 C   0  0  0  0  0  0  0  0  0  0  0  0
    6.6162   -2.9264   21.5975 C   0  0  0  0  0  0  0  0  0  0  0  0
    8.3640   -4.2600   22.7644 C   0  0  0  0  0  0  0  0  0  0  0  0
   -0.7594   -3.9342   24.4786 C   0  0  0  0  0  0  0  0  0  0  0  0
   -0.3715   -5.0475   26.6482 C   0  0  0  0  0  0  0  0  0  0  0  0
    5.9763   -4.2118   21.0906 C   0  0  0  0  0  0  0  0  0  0  0  0
    7.7169   -5.5432   22.2590 C   0  0  0  0  0  0  0  0  0  0  0  0
    0.0036   -2.7084   24.9561 C   0  0  0  0  0  0  0  0  0  0  0  0
    0.3964   -3.8341   27.1488 C   0  0  0  0  0  0  0  0  0  0  0  0
    4.8007   -5.6152   25.3163 C   0  0  0  0  0  0  0  0  0  0  0  0
    4.5912   -6.8799   24.4619 C   0  0  0  0  0  0  0  0  0  0  0  0
    5.5213   -6.5866   21.7018 C   0  0  0  0  0  0  0  0  0  0  0  0
    0.5174   -1.3467   26.9837 C   0  0  0  0  0  0  0  0  0  0  0  0
   10.3406    3.6239   26.3159 C   0  0  0  0  0  0  0  0  0  0  0  0
    8.0422   -3.1347   21.8811 N   0  0  0  0  0  0  0  0  0  0  0  0
    8.1298    2.5287   26.4331 N   0  0  0  0  0  0  0  0  0  0  0  0
    6.7413    0.0793   25.9687 N   0  0  0  0  0  0  0  0  0  0  0  0
   -0.2374   -5.1504   25.1664 N   0  0  0  0  0  0  0  0  0  0  0  0
    6.2373   -5.3202   22.0786 N   0  3  0  0  0  0  0  0  0  0  0  0
   -0.1270   -2.5977   26.4568 N   0  3  0  0  0  0  0  0  0  0  0  0
    8.7472    4.1351   27.9935 O   0  0  0  0  0  0  0  0  0  0  0  0
   -2.1722   -6.6599   24.3773 O   0  0  0  0  0  0  0  0  0  0  0  0
   -0.0203   -7.7173   25.1512 O   0  0  0  0  0  0  0  0  0  0  0  0
    5.7453   -0.8442   23.7840 O   0  0  0  0  0  0  0  0  0  0  0  0
    5.0064    1.4144   24.6208 O   0  0  0  0  0  0  0  0  0  0  0  0
    6.8977   -5.9210   28.7473 S   0  0  0  0  0  0  0  0  0  0  0  0
    2.5944   -0.2553   25.5327 S   0  0  0  0  0  0  0  0  0  0  0  0
   10.2777   -1.9201   22.8414 S   0  0  0  0  0  0  0  0  0  0  0  0
   -0.7297   -6.6448   24.4876 S   0  0  0  0  0  0  0  0  0  0  0  0
    5.4319    0.0547   24.8737 S   0  0  0  0  0  0  0  0  0  0  0  0
   12.0600    0.4548   22.8027 Cl  0  0  0  0  0  0  0  0  0  0  0  0
   11.4454    2.5002   27.0998 Cl  0  0  0  0  0  0  0  0  0  0  0  0
   -1.2615   -6.0409   19.7102 H   0  0  0  0  0  0  0  0  0  0  0  0
    1.1453   -6.0868   19.1989 H   0  0  0  0  0  0  0  0  0  0  0  0
   -2.0538   -6.2871   22.0307 H   0  0  0  0  0  0  0  0  0  0  0  0
    2.7973   -2.6675   28.2150 H   0  0  0  0  0  0  0  0  0  0  0  0
    7.8898   -0.7403   20.3985 H   0  0  0  0  0  0  0  0  0  0  0  0
    5.1963   -2.0600   27.2712 H   0  0  0  0  0  0  0  0  0  0  0  0
    9.8088    1.0296   20.8068 H   0  0  0  0  0  0  0  0  0  0  0  0
    7.6010   -6.3931   25.2368 H   0  0  0  0  0  0  0  0  0  0  0  0
    3.5011   -6.2863   19.9715 H   0  0  0  0  0  0  0  0  0  0  0  0
    1.9478   -6.7858   24.6600 H   0  0  0  0  0  0  0  0  0  0  0  0
    8.9039   -6.5722   27.5138 H   0  0  0  0  0  0  0  0  0  0  0  0
    4.5916   -5.3295   28.2082 H   0  0  0  0  0  0  0  0  0  0  0  0
    6.0726    2.7356   26.3477 H   0  0  0  0  0  0  0  0  0  0  0  0
    6.7058    2.8345   27.9900 H   0  0  0  0  0  0  0  0  0  0  0  0
    9.3948    1.9266   24.8409 H   0  0  0  0  0  0  0  0  0  0  0  0
    7.6945    2.1883   24.4354 H   0  0  0  0  0  0  0  0  0  0  0  0
    7.2183    0.4151   28.0188 H   0  0  0  0  0  0  0  0  0  0  0  0
    5.5140    0.6903   27.5907 H   0  0  0  0  0  0  0  0  0  0  0  0
    8.1744   -0.2219   24.4289 H   0  0  0  0  0  0  0  0  0  0  0  0
    8.8586   -0.1509   26.0692 H   0  0  0  0  0  0  0  0  0  0  0  0
    6.4890   -2.1480   20.8348 H   0  0  0  0  0  0  0  0  0  0  0  0
    6.1069   -2.5803   22.5059 H   0  0  0  0  0  0  0  0  0  0  0  0
    8.0214   -4.0385   23.7833 H   0  0  0  0  0  0  0  0  0  0  0  0
    9.4498   -4.4109   22.8108 H   0  0  0  0  0  0  0  0  0  0  0  0
   -1.8330   -3.8275   24.6729 H   0  0  0  0  0  0  0  0  0  0  0  0
   -0.6149   -4.0405   23.3979 H   0  0  0  0  0  0  0  0  0  0  0  0
    0.0483   -5.9463   27.1127 H   0  0  0  0  0  0  0  0  0  0  0  0
   -1.4308   -4.9824   26.9228 H   0  0  0  0  0  0  0  0  0  0  0  0
    4.8920   -4.0933   21.0124 H   0  0  0  0  0  0  0  0  0  0  0  0
    6.3840   -4.5191   20.1226 H   0  0  0  0  0  0  0  0  0  0  0  0
    8.1306   -5.8581   21.2959 H   0  0  0  0  0  0  0  0  0  0  0  0
    7.8387   -6.3460   22.9914 H   0  0  0  0  0  0  0  0  0  0  0  0
    1.0714   -2.7747   24.7229 H   0  0  0  0  0  0  0  0  0  0  0  0
   -0.4163   -1.7966   24.5215 H   0  0  0  0  0  0  0  0  0  0  0  0
    0.2473   -3.6969   28.2236 H   0  0  0  0  0  0  0  0  0  0  0  0
    1.4662   -3.9072   26.9272 H   0  0  0  0  0  0  0  0  0  0  0  0
    3.8464   -5.3161   25.7691 H   0  0  0  0  0  0  0  0  0  0  0  0
    5.1015   -4.7742   24.6784 H   0  0  0  0  0  0  0  0  0  0  0  0
    4.2314   -7.6873   25.1213 H   0  0  0  0  0  0  0  0  0  0  0  0
    5.5629   -7.2362   24.0812 H   0  0  0  0  0  0  0  0  0  0  0  0
    6.0370   -7.4015   22.2263 H   0  0  0  0  0  0  0  0  0  0  0  0
    5.6904   -6.7297   20.6266 H   0  0  0  0  0  0  0  0  0  0  0  0
    0.2615   -1.3082   28.0562 H   0  0  0  0  0  0  0  0  0  0  0  0
   -0.0166   -0.5102   26.5018 H   0  0  0  0  0  0  0  0  0  0  0  0
   10.6834    4.6426   26.4575 H   0  0  0  0  0  0  0  0  0  0  0  0
   10.2358    3.3722   25.2667 H   0  0  0  0  0  0  0  0  0  0  0  0
    5.8566   -5.0200   22.9880 H   0  0  0  0  0  0  0  0  0  0  0  0
   -1.1317   -2.5271   26.6731 H   0  0  0  0  0  0  0  0  0  0  0  0
  1  2  1  0  0  0  0
  1  3  2  0  0  0  0
  2 13  2  0  0  0  0
  3 18  1  0  0  0  0
  4  6  1  0  0  0  0
  4 19  2  0  0  0  0
  5  7  1  0  0  0  0
  5 20  2  0  0  0  0
  6 21  2  0  0  0  0
  7 22  2  0  0  0  0
  8 11  2  0  0  0  0
  8 15  1  0  0  0  0
  9 13  1  0  0  0  0
  9 17  2  0  0  0  0
 10 14  1  0  0  0  0
 10 16  2  0  0  0  0
 11 52  1  0  0  0  0
 12 15  2  0  0  0  0
 12 52  1  0  0  0  0
 13 14  1  0  0  0  0
 14 18  2  0  0  0  0
 15 36  1  0  0  0  0
 16 17  1  0  0  0  0
 16 37  1  0  0  0  0
 17 38  1  0  0  0  0
 18 55  1  0  0  0  0
 19 39  1  0  0  0  0
 19 53  1  0  0  0  0
 20 41  1  0  0  0  0
 20 54  1  0  0  0  0
 21 53  1  0  0  0  0
 21 56  1  0  0  0  0
 22 54  1  0  0  0  0
 22 57  1  0  0  0  0
 23 40  1  0  0  0  0
 23 42  1  0  0  0  0
 23 47  2  0  0  0  0
 24 26  1  0  0  0  0
 24 42  1  0  0  0  0
 25 27  1  0  0  0  0
 25 42  1  0  0  0  0
 26 43  1  0  0  0  0
 27 43  1  0  0  0  0
 28 32  1  0  0  0  0
 28 41  1  0  0  0  0
 29 33  1  0  0  0  0
 29 41  1  0  0  0  0
 30 34  1  0  0  0  0
 30 44  1  0  0  0  0
 31 35  1  0  0  0  0
 31 44  1  0  0  0  0
 32 45  1  0  0  0  0
 33 45  1  0  0  0  0
 34 46  1  0  0  0  0
 35 46  1  0  0  0  0
 36 37  1  0  0  0  0
 38 45  1  0  0  0  0
 39 46  1  0  0  0  0
 40 58  1  0  0  0  0
 43 56  1  0  0  0  0
 44 55  1  0  0  0  0
 48 55  2  0  0  0  0
 49 55  2  0  0  0  0
 50 56  2  0  0  0  0
 51 56  2  0  0  0  0
  1 59  1  0  0  0  0
  2 60  1  0  0  0  0
  3 61  1  0  0  0  0
  4 62  1  0  0  0  0
  5 63  1  0  0  0  0
  6 64  1  0  0  0  0
  7 65  1  0  0  0  0
  8 66  1  0  0  0  0
  9 67  1  0  0  0  0
 10 68  1  0  0  0  0
 11 69  1  0  0  0  0
 12 70  1  0  0  0  0
 24 71  1  0  0  0  0
 24 72  1  0  0  0  0
 25 73  1  0  0  0  0
 25 74  1  0  0  0  0
 26 75  1  0  0  0  0
 26 76  1  0  0  0  0
 27 77  1  0  0  0  0
 27 78  1  0  0  0  0
 28 79  1  0  0  0  0
 28 80  1  0  0  0  0
 29 81  1  0  0  0  0
 29 82  1  0  0  0  0
 30 83  1  0  0  0  0
 30 84  1  0  0  0  0
 31 85  1  0  0  0  0
 31 86  1  0  0  0  0
 32 87  1  0  0  0  0
 32 88  1  0  0  0  0
 33 89  1  0  0  0  0
 33 90  1  0  0  0  0
 34 91  1  0  0  0  0
 34 92  1  0  0  0  0
 35 93  1  0  0  0  0
 35 94  1  0  0  0  0
 36 95  1  0  0  0  0
 36 96  1  0  0  0  0
 37 97  1  0  0  0  0
 37 98  1  0  0  0  0
 38 99  1  0  0  0  0
 38100  1  0  0  0  0
 39101  1  0  0  0  0
 39102  1  0  0  0  0
 40103  1  0  0  0  0
 40104  1  0  0  0  0
 45105  1  0  0  0  0
 46106  1  0  0  0  0
M  CHG  2  45   1  46   1
M  END
> <creator>
Maksym Voznyy

> <fragments>
x1402

> <real_space>
FALSE

> <SCR>
FALSE

> <BB>
FALSE

> <link>
https://covid.postera.ai/covid/submissions/e05327b2-2d9c-4e6b-94d5-b60afa9814ed

> <covalent_frag>
TRUE

> <covalent_warhead>
TRUE

> <acrylamide>
FALSE

> <acrylamide_adduct>
FALSE

> <chloroacetamide>
TRUE

> <chloroacetamide_adduct>
FALSE

> <vinylsulfonamide>
FALSE

> <vinylsulfonamide_adduct>
FALSE

> <in_molport_or_mcule>
FALSE

> <in_emolecules>
FALSE

> <Hybrid2>
8.088060

> <Mpro-x1402_dock>
8.08806

> <site>
active-covalent

> <covalent_distance_min>
10.454042

> <covalent_distance_mean>
10.918669

> <covalent_distance_stderr>
0.054850876

$$$$
MAK-UNK-e05-7
  -OEChem-04062011563D

109116  0     0  0  0  0  0  0999 V2000
    4.2233   -6.6018   21.5351 C   0  0  0  0  0  0  0  0  0  0  0  0
    5.2888   -5.8188   21.0900 C   0  0  0  0  0  0  0  0  0  0  0  0
    3.9943   -6.7565   22.8991 C   0  0  0  0  0  0  0  0  0  0  0  0
   -0.4219   -1.0661   26.6257 C   0  0  0  0  0  0  0  0  0  0  0  0
   -1.3168   -0.3186   25.8068 C   0  0  0  0  0  0  0  0  0  0  0  0
    8.8021    3.6260   24.0576 C   0  0  0  0  0  0  0  0  0  0  0  0
    7.8494    3.8187   25.0994 C   0  0  0  0  0  0  0  0  0  0  0  0
    8.6763   -1.1281   27.8914 C   0  0  0  0  0  0  0  0  0  0  0  0
    7.2172   -4.3878   21.5760 C   0  0  0  0  0  0  0  0  0  0  0  0
    6.7583   -4.6976   24.3093 C   0  0  0  0  0  0  0  0  0  0  0  0
    9.6886   -0.4858   28.5698 C   0  0  0  0  0  0  0  0  0  0  0  0
   10.2427   -0.8363   26.1992 C   0  0  0  0  0  0  0  0  0  0  0  0
    6.1400   -5.1796   22.0061 C   0  0  0  0  0  0  0  0  0  0  0  0
    5.9071   -5.3369   23.3932 C   0  0  0  0  0  0  0  0  0  0  0  0
    8.9972   -1.3313   26.5181 C   0  0  0  0  0  0  0  0  0  0  0  0
    7.8237   -3.9146   23.8642 C   0  0  0  0  0  0  0  0  0  0  0  0
    8.0527   -3.7600   22.5002 C   0  0  0  0  0  0  0  0  0  0  0  0
    4.8299   -6.1288   23.8233 C   0  0  0  0  0  0  0  0  0  0  0  0
    0.8788   -0.6295   26.5032 C   0  0  0  0  0  0  0  0  0  0  0  0
   -0.6658    0.6611   25.0896 C   0  0  0  0  0  0  0  0  0  0  0  0
    8.2001    3.3367   22.8528 C   0  0  0  0  0  0  0  0  0  0  0  0
    6.5553    3.6697   24.6510 C   0  0  0  0  0  0  0  0  0  0  0  0
   -2.3604   -2.6047   20.4089 C   0  0  0  0  0  0  0  0  0  0  0  0
   -0.9014   -0.5439   20.7187 C   0  0  0  0  0  0  0  0  0  0  0  0
   -3.2595   -0.5391   21.4338 C   0  0  0  0  0  0  0  0  0  0  0  0
   -0.4908    0.0542   22.0609 C   0  0  0  0  0  0  0  0  0  0  0  0
   -2.8569    0.0554   22.7787 C   0  0  0  0  0  0  0  0  0  0  0  0
    9.9150    0.8042   22.3938 C   0  0  0  0  0  0  0  0  0  0  0  0
    7.7164    0.5303   21.3036 C   0  0  0  0  0  0  0  0  0  0  0  0
    2.7056   -4.3445   25.1903 C   0  0  0  0  0  0  0  0  0  0  0  0
    3.7523   -4.5736   27.4149 C   0  0  0  0  0  0  0  0  0  0  0  0
   10.2307   -0.6644   22.1562 C   0  0  0  0  0  0  0  0  0  0  0  0
    8.0087   -0.9410   21.0534 C   0  0  0  0  0  0  0  0  0  0  0  0
    2.5228   -2.8516   25.4152 C   0  0  0  0  0  0  0  0  0  0  0  0
    3.5816   -3.0830   27.6636 C   0  0  0  0  0  0  0  0  0  0  0  0
    8.0787   -2.0086   25.5304 C   0  0  0  0  0  0  0  0  0  0  0  0
    8.7063   -3.2511   24.8703 C   0  0  0  0  0  0  0  0  0  0  0  0
    9.1873   -2.9264   22.0011 C   0  0  0  0  0  0  0  0  0  0  0  0
    2.0895   -1.1415   27.1809 C   0  0  0  0  0  0  0  0  0  0  0  0
   -1.1885   -3.2889   19.7518 C   0  0  0  0  0  0  0  0  0  0  0  0
   -2.1538   -1.2979   20.8475 N   0  0  0  0  0  0  0  0  0  0  0  0
   -1.6164    0.8706   22.6082 N   0  0  0  0  0  0  0  0  0  0  0  0
    3.8944   -4.8256   25.9518 N   0  0  0  0  0  0  0  0  0  0  0  0
    8.9944    1.2988   21.3296 N   0  0  0  0  0  0  0  0  0  0  0  0
    8.9406   -1.4496   22.1278 N   0  3  0  0  0  0  0  0  0  0  0  0
    2.3789   -2.5882   26.8956 N   0  3  0  0  0  0  0  0  0  0  0  0
   -3.4254   -3.2154   20.5303 O   0  0  0  0  0  0  0  0  0  0  0  0
    3.3483   -7.3202   25.6005 O   0  0  0  0  0  0  0  0  0  0  0  0
    5.6947   -6.6478   26.2248 O   0  0  0  0  0  0  0  0  0  0  0  0
   -2.4234    2.4738   24.4586 O   0  0  0  0  0  0  0  0  0  0  0  0
   -0.0749    2.6951   23.5736 O   0  0  0  0  0  0  0  0  0  0  0  0
    7.7887    3.3227   20.2830 O   0  0  0  0  0  0  0  0  0  0  0  0
   10.1429    3.5967   21.1375 O   0  0  0  0  0  0  0  0  0  0  0  0
   11.0193   -0.1304   27.5523 S   0  0  0  0  0  0  0  0  0  0  0  0
    1.0173    0.6766   25.4045 S   0  0  0  0  0  0  0  0  0  0  0  0
    6.4929    3.2986   22.9805 S   0  0  0  0  0  0  0  0  0  0  0  0
    4.4533   -6.3890   25.5280 S   0  0  0  0  0  0  0  0  0  0  0  0
   -1.2135    1.8782   23.9343 S   0  0  0  0  0  0  0  0  0  0  0  0
    8.8278    3.0018   21.2374 S   0  0  0  0  0  0  0  0  0  0  0  0
    5.1067    3.8144   25.5551 Cl  0  0  0  0  0  0  0  0  0  0  0  0
   -0.2756   -4.0705   21.0377 Cl  0  0  0  0  0  0  0  0  0  0  0  0
    3.5726   -7.0908   20.8160 H   0  0  0  0  0  0  0  0  0  0  0  0
    5.4488   -5.7121   20.0191 H   0  0  0  0  0  0  0  0  0  0  0  0
    3.1600   -7.3698   23.2295 H   0  0  0  0  0  0  0  0  0  0  0  0
   -0.7215   -1.8823   27.2709 H   0  0  0  0  0  0  0  0  0  0  0  0
   -2.3835   -0.4918   25.7480 H   0  0  0  0  0  0  0  0  0  0  0  0
    9.8743    3.6956   24.1881 H   0  0  0  0  0  0  0  0  0  0  0  0
    8.1076    4.0534   26.1243 H   0  0  0  0  0  0  0  0  0  0  0  0
    7.7508   -1.4355   28.3618 H   0  0  0  0  0  0  0  0  0  0  0  0
    7.4068   -4.2593   20.5115 H   0  0  0  0  0  0  0  0  0  0  0  0
    6.6113   -4.7951   25.3823 H   0  0  0  0  0  0  0  0  0  0  0  0
    9.7102   -0.2076   29.6140 H   0  0  0  0  0  0  0  0  0  0  0  0
   10.7369   -0.8522   25.2377 H   0  0  0  0  0  0  0  0  0  0  0  0
   -1.0847    0.2517   19.9863 H   0  0  0  0  0  0  0  0  0  0  0  0
   -0.0886   -1.1611   20.3322 H   0  0  0  0  0  0  0  0  0  0  0  0
   -4.1457   -1.1696   21.5561 H   0  0  0  0  0  0  0  0  0  0  0  0
   -3.5152    0.2564   20.7235 H   0  0  0  0  0  0  0  0  0  0  0  0
   -0.2239   -0.7356   22.7726 H   0  0  0  0  0  0  0  0  0  0  0  0
    0.3830    0.6976   21.9117 H   0  0  0  0  0  0  0  0  0  0  0  0
   -3.6661    0.6989   23.1406 H   0  0  0  0  0  0  0  0  0  0  0  0
   -2.6838   -0.7352   23.5179 H   0  0  0  0  0  0  0  0  0  0  0  0
    9.4592    0.9523   23.3797 H   0  0  0  0  0  0  0  0  0  0  0  0
   10.8488    1.3758   22.3577 H   0  0  0  0  0  0  0  0  0  0  0  0
    7.0843    0.9068   20.4921 H   0  0  0  0  0  0  0  0  0  0  0  0
    7.1792    0.6685   22.2491 H   0  0  0  0  0  0  0  0  0  0  0  0
    1.8132   -4.8996   25.5019 H   0  0  0  0  0  0  0  0  0  0  0  0
    2.8652   -4.5229   24.1213 H   0  0  0  0  0  0  0  0  0  0  0  0
    4.6563   -4.9155   27.9304 H   0  0  0  0  0  0  0  0  0  0  0  0
    2.8988   -5.1375   27.8089 H   0  0  0  0  0  0  0  0  0  0  0  0
   10.7335   -0.8242   21.1975 H   0  0  0  0  0  0  0  0  0  0  0  0
   10.8408   -1.0658   22.9696 H   0  0  0  0  0  0  0  0  0  0  0  0
    7.0914   -1.5330   21.1084 H   0  0  0  0  0  0  0  0  0  0  0  0
    8.5005   -1.1015   20.0891 H   0  0  0  0  0  0  0  0  0  0  0  0
    3.3844   -2.2761   25.0611 H   0  0  0  0  0  0  0  0  0  0  0  0
    1.6111   -2.4947   24.9277 H   0  0  0  0  0  0  0  0  0  0  0  0
    3.3988   -2.8850   28.7236 H   0  0  0  0  0  0  0  0  0  0  0  0
    4.4492   -2.5094   27.3214 H   0  0  0  0  0  0  0  0  0  0  0  0
    7.1605   -2.2978   26.0582 H   0  0  0  0  0  0  0  0  0  0  0  0
    7.7641   -1.2911   24.7618 H   0  0  0  0  0  0  0  0  0  0  0  0
    8.9544   -3.9761   25.6634 H   0  0  0  0  0  0  0  0  0  0  0  0
    9.6756   -2.9820   24.4185 H   0  0  0  0  0  0  0  0  0  0  0  0
   10.1129   -3.1341   22.5534 H   0  0  0  0  0  0  0  0  0  0  0  0
    9.3893   -3.1166   20.9390 H   0  0  0  0  0  0  0  0  0  0  0  0
    2.9983   -0.5912   26.8838 H   0  0  0  0  0  0  0  0  0  0  0  0
    2.0175   -1.0625   28.2790 H   0  0  0  0  0  0  0  0  0  0  0  0
   -0.5751   -2.5418   19.2611 H   0  0  0  0  0  0  0  0  0  0  0  0
   -1.5605   -4.0313   19.0550 H   0  0  0  0  0  0  0  0  0  0  0  0
    8.4724   -1.3018   23.0339 H   0  0  0  0  0  0  0  0  0  0  0  0
    1.5629   -3.1240   27.2247 H   0  0  0  0  0  0  0  0  0  0  0  0
  1  2  1  0  0  0  0
  1  3  2  0  0  0  0
  2 13  2  0  0  0  0
  3 18  1  0  0  0  0
  4  5  1  0  0  0  0
  4 19  2  0  0  0  0
  5 20  2  0  0  0  0
  6  7  1  0  0  0  0
  6 21  2  0  0  0  0
  7 22  2  0  0  0  0
  8 11  2  0  0  0  0
  8 15  1  0  0  0  0
  9 13  1  0  0  0  0
  9 17  2  0  0  0  0
 10 14  1  0  0  0  0
 10 16  2  0  0  0  0
 11 54  1  0  0  0  0
 12 15  2  0  0  0  0
 12 54  1  0  0  0  0
 13 14  1  0  0  0  0
 14 18  2  0  0  0  0
 15 36  1  0  0  0  0
 16 17  1  0  0  0  0
 16 37  1  0  0  0  0
 17 38  1  0  0  0  0
 18 57  1  0  0  0  0
 19 39  1  0  0  0  0
 19 55  1  0  0  0  0
 20 55  1  0  0  0  0
 20 58  1  0  0  0  0
 21 56  1  0  0  0  0
 21 59  1  0  0  0  0
 22 56  1  0  0  0  0
 22 60  1  0  0  0  0
 23 40  1  0  0  0  0
 23 41  1  0  0  0  0
 23 47  2  0  0  0  0
 24 26  1  0  0  0  0
 24 41  1  0  0  0  0
 25 27  1  0  0  0  0
 25 41  1  0  0  0  0
 26 42  1  0  0  0  0
 27 42  1  0  0  0  0
 28 32  1  0  0  0  0
 28 44  1  0  0  0  0
 29 33  1  0  0  0  0
 29 44  1  0  0  0  0
 30 34  1  0  0  0  0
 30 43  1  0  0  0  0
 31 35  1  0  0  0  0
 31 43  1  0  0  0  0
 32 45  1  0  0  0  0
 33 45  1  0  0  0  0
 34 46  1  0  0  0  0
 35 46  1  0  0  0  0
 36 37  1  0  0  0  0
 38 45  1  0  0  0  0
 39 46  1  0  0  0  0
 40 61  1  0  0  0  0
 42 58  1  0  0  0  0
 43 57  1  0  0  0  0
 44 59  1  0  0  0  0
 48 57  2  0  0  0  0
 49 57  2  0  0  0  0
 50 58  2  0  0  0  0
 51 58  2  0  0  0  0
 52 59  2  0  0  0  0
 53 59  2  0  0  0  0
  1 62  1  0  0  0  0
  2 63  1  0  0  0  0
  3 64  1  0  0  0  0
  4 65  1  0  0  0  0
  5 66  1  0  0  0  0
  6 67  1  0  0  0  0
  7 68  1  0  0  0  0
  8 69  1  0  0  0  0
  9 70  1  0  0  0  0
 10 71  1  0  0  0  0
 11 72  1  0  0  0  0
 12 73  1  0  0  0  0
 24 74  1  0  0  0  0
 24 75  1  0  0  0  0
 25 76  1  0  0  0  0
 25 77  1  0  0  0  0
 26 78  1  0  0  0  0
 26 79  1  0  0  0  0
 27 80  1  0  0  0  0
 27 81  1  0  0  0  0
 28 82  1  0  0  0  0
 28 83  1  0  0  0  0
 29 84  1  0  0  0  0
 29 85  1  0  0  0  0
 30 86  1  0  0  0  0
 30 87  1  0  0  0  0
 31 88  1  0  0  0  0
 31 89  1  0  0  0  0
 32 90  1  0  0  0  0
 32 91  1  0  0  0  0
 33 92  1  0  0  0  0
 33 93  1  0  0  0  0
 34 94  1  0  0  0  0
 34 95  1  0  0  0  0
 35 96  1  0  0  0  0
 35 97  1  0  0  0  0
 36 98  1  0  0  0  0
 36 99  1  0  0  0  0
 37100  1  0  0  0  0
 37101  1  0  0  0  0
 38102  1  0  0  0  0
 38103  1  0  0  0  0
 39104  1  0  0  0  0
 39105  1  0  0  0  0
 40106  1  0  0  0  0
 40107  1  0  0  0  0
 45108  1  0  0  0  0
 46109  1  0  0  0  0
M  CHG  2  45   1  46   1
M  END
> <creator>
Maksym Voznyy

> <fragments>
x1402

> <real_space>
FALSE

> <SCR>
FALSE

> <BB>
FALSE

> <link>
https://covid.postera.ai/covid/submissions/e05327b2-2d9c-4e6b-94d5-b60afa9814ed

> <covalent_frag>
TRUE

> <covalent_warhead>
TRUE

> <acrylamide>
FALSE

> <acrylamide_adduct>
FALSE

> <chloroacetamide>
TRUE

> <chloroacetamide_adduct>
FALSE

> <vinylsulfonamide>
FALSE

> <vinylsulfonamide_adduct>
FALSE

> <in_molport_or_mcule>
FALSE

> <in_emolecules>
FALSE

> <Hybrid2>
8.814718

> <Mpro-x1402_dock>
8.814718

> <site>
active-covalent

> <covalent_distance_min>
6.335342

> <covalent_distance_mean>
7.5497775

> <covalent_distance_stderr>
0.101497196

$$$$
MAK-UNK-e05-2
  -OEChem-04062011563D

 91 97  0     0  0  0  0  0  0999 V2000
    3.3223   -5.8540   21.9680 C   0  0  0  0  0  0  0  0  0  0  0  0
    4.5485   -5.4731   21.4223 C   0  0  0  0  0  0  0  0  0  0  0  0
    3.0828   -5.6856   23.3286 C   0  0  0  0  0  0  0  0  0  0  0  0
   -1.1810    0.0164   26.6491 C   0  0  0  0  0  0  0  0  0  0  0  0
    8.0754   -1.5074   19.4646 C   0  0  0  0  0  0  0  0  0  0  0  0
   -1.9313    0.7913   25.7181 C   0  0  0  0  0  0  0  0  0  0  0  0
    6.9258   -0.8132   18.9885 C   0  0  0  0  0  0  0  0  0  0  0  0
    8.5853   -5.1066   26.5609 C   0  0  0  0  0  0  0  0  0  0  0  0
    6.7921   -4.5289   21.7003 C   0  0  0  0  0  0  0  0  0  0  0  0
    6.3121   -4.1913   24.4267 C   0  0  0  0  0  0  0  0  0  0  0  0
    8.5044   -5.2914   27.9235 C   0  0  0  0  0  0  0  0  0  0  0  0
    8.3863   -2.9137   27.3052 C   0  0  0  0  0  0  0  0  0  0  0  0
    5.5521   -4.9178   22.2327 C   0  0  0  0  0  0  0  0  0  0  0  0
    5.3085   -4.7466   23.6163 C   0  0  0  0  0  0  0  0  0  0  0  0
    8.5170   -3.7292   26.2025 C   0  0  0  0  0  0  0  0  0  0  0  0
    7.5382   -3.8104   23.8809 C   0  0  0  0  0  0  0  0  0  0  0  0
    7.7778   -3.9789   22.5203 C   0  0  0  0  0  0  0  0  0  0  0  0
    4.0685   -5.1356   24.1486 C   0  0  0  0  0  0  0  0  0  0  0  0
    8.1801   -1.4547   20.8371 C   0  0  0  0  0  0  0  0  0  0  0  0
    0.1750    0.1092   26.4254 C   0  0  0  0  0  0  0  0  0  0  0  0
   -1.1200    1.4470   24.8182 C   0  0  0  0  0  0  0  0  0  0  0  0
    6.1954   -0.2565   20.0154 C   0  0  0  0  0  0  0  0  0  0  0  0
   -1.8694   -2.3082   20.2594 C   0  0  0  0  0  0  0  0  0  0  0  0
   -0.5111   -0.1890   20.6271 C   0  0  0  0  0  0  0  0  0  0  0  0
   -2.9621   -0.1763   20.8807 C   0  0  0  0  0  0  0  0  0  0  0  0
   -0.3677    0.5492   21.9546 C   0  0  0  0  0  0  0  0  0  0  0  0
   -2.8271    0.5585   22.2096 C   0  0  0  0  0  0  0  0  0  0  0  0
    2.5245   -2.5984   25.1096 C   0  0  0  0  0  0  0  0  0  0  0  0
    3.6250   -2.6599   27.3232 C   0  0  0  0  0  0  0  0  0  0  0  0
    1.1559   -2.6405   25.7703 C   0  0  0  0  0  0  0  0  0  0  0  0
    2.2712   -2.7028   28.0136 C   0  0  0  0  0  0  0  0  0  0  0  0
    8.5799   -3.2234   24.7763 C   0  0  0  0  0  0  0  0  0  0  0  0
    9.0829   -3.5782   21.9145 C   0  0  0  0  0  0  0  0  0  0  0  0
    9.2434   -2.0581   21.7221 C   0  0  0  0  0  0  0  0  0  0  0  0
    1.2771   -0.5394   27.1682 C   0  0  0  0  0  0  0  0  0  0  0  0
   -0.5889   -3.0226   19.9081 C   0  0  0  0  0  0  0  0  0  0  0  0
   -1.7596   -0.9596   20.5937 N   0  0  0  0  0  0  0  0  0  0  0  0
   -1.5827    1.3855   22.1939 N   0  0  0  0  0  0  0  0  0  0  0  0
    3.5421   -3.2655   25.9664 N   0  0  0  0  0  0  0  0  0  0  0  0
    1.2155   -2.0426   27.1570 N   0  3  0  0  0  0  0  0  0  0  0  0
   -2.9335   -2.9321   20.2395 O   0  0  0  0  0  0  0  0  0  0  0  0
    2.3551   -5.5456   26.0642 O   0  0  0  0  0  0  0  0  0  0  0  0
    4.8055   -5.4030   26.6325 O   0  0  0  0  0  0  0  0  0  0  0  0
   -2.7387    3.1414   23.6859 O   0  0  0  0  0  0  0  0  0  0  0  0
   -0.2664    3.3365   23.2416 O   0  0  0  0  0  0  0  0  0  0  0  0
    8.3467   -3.8082   28.7648 S   0  0  0  0  0  0  0  0  0  0  0  0
    0.5390    1.1273   25.0975 S   0  0  0  0  0  0  0  0  0  0  0  0
    6.8959   -0.5711   21.5460 S   0  0  0  0  0  0  0  0  0  0  0  0
    3.6643   -4.9650   25.8584 S   0  0  0  0  0  0  0  0  0  0  0  0
   -1.4468    2.5292   23.4625 S   0  0  0  0  0  0  0  0  0  0  0  0
    4.7506    0.6581   19.9014 Cl  0  0  0  0  0  0  0  0  0  0  0  0
    0.0685   -3.6491   21.4159 Cl  0  0  0  0  0  0  0  0  0  0  0  0
    2.5547   -6.2822   21.3301 H   0  0  0  0  0  0  0  0  0  0  0  0
    4.7137   -5.6141   20.3561 H   0  0  0  0  0  0  0  0  0  0  0  0
    2.1223   -5.9873   23.7382 H   0  0  0  0  0  0  0  0  0  0  0  0
   -1.6181   -0.5776   27.4417 H   0  0  0  0  0  0  0  0  0  0  0  0
    8.7872   -2.0184   18.8288 H   0  0  0  0  0  0  0  0  0  0  0  0
   -3.0113    0.8631   25.7102 H   0  0  0  0  0  0  0  0  0  0  0  0
    6.6537   -0.7303   17.9438 H   0  0  0  0  0  0  0  0  0  0  0  0
    8.6881   -5.9237   25.8580 H   0  0  0  0  0  0  0  0  0  0  0  0
    6.9916   -4.6558   20.6375 H   0  0  0  0  0  0  0  0  0  0  0  0
    6.1619   -4.0445   25.4937 H   0  0  0  0  0  0  0  0  0  0  0  0
    8.5296   -6.2263   28.4653 H   0  0  0  0  0  0  0  0  0  0  0  0
    8.3106   -1.8353   27.3277 H   0  0  0  0  0  0  0  0  0  0  0  0
   -0.5576    0.5254   19.7961 H   0  0  0  0  0  0  0  0  0  0  0  0
    0.3649   -0.8195   20.4657 H   0  0  0  0  0  0  0  0  0  0  0  0
   -3.8507   -0.8149   20.8973 H   0  0  0  0  0  0  0  0  0  0  0  0
   -3.0839    0.5383   20.0576 H   0  0  0  0  0  0  0  0  0  0  0  0
   -0.2352   -0.1592   22.7805 H   0  0  0  0  0  0  0  0  0  0  0  0
    0.5138    1.1978   21.9080 H   0  0  0  0  0  0  0  0  0  0  0  0
   -3.6950    1.2128   22.3450 H   0  0  0  0  0  0  0  0  0  0  0  0
   -2.7919   -0.1505   23.0448 H   0  0  0  0  0  0  0  0  0  0  0  0
    2.4954   -3.0801   24.1201 H   0  0  0  0  0  0  0  0  0  0  0  0
    2.8105   -1.5470   24.9597 H   0  0  0  0  0  0  0  0  0  0  0  0
    3.9404   -1.6100   27.2332 H   0  0  0  0  0  0  0  0  0  0  0  0
    4.3859   -3.1855   27.9206 H   0  0  0  0  0  0  0  0  0  0  0  0
    0.4080   -2.0684   25.1991 H   0  0  0  0  0  0  0  0  0  0  0  0
    0.8078   -3.6785   25.8760 H   0  0  0  0  0  0  0  0  0  0  0  0
    1.9535   -3.7425   28.1810 H   0  0  0  0  0  0  0  0  0  0  0  0
    2.2874   -2.1734   28.9792 H   0  0  0  0  0  0  0  0  0  0  0  0
    8.5054   -2.1226   24.7827 H   0  0  0  0  0  0  0  0  0  0  0  0
    9.5880   -3.4165   24.3713 H   0  0  0  0  0  0  0  0  0  0  0  0
    9.9028   -3.9337   22.5608 H   0  0  0  0  0  0  0  0  0  0  0  0
    9.2378   -4.0924   20.9511 H   0  0  0  0  0  0  0  0  0  0  0  0
   10.2233   -1.8464   21.2744 H   0  0  0  0  0  0  0  0  0  0  0  0
    9.2484   -1.5524   22.6961 H   0  0  0  0  0  0  0  0  0  0  0  0
    2.2674   -0.2783   26.7579 H   0  0  0  0  0  0  0  0  0  0  0  0
    1.2901   -0.2492   28.2325 H   0  0  0  0  0  0  0  0  0  0  0  0
    0.1011   -2.3115   19.4684 H   0  0  0  0  0  0  0  0  0  0  0  0
   -0.8161   -3.8397   19.2330 H   0  0  0  0  0  0  0  0  0  0  0  0
    0.2871   -2.2872   27.6119 H   0  0  0  0  0  0  0  0  0  0  0  0
  1  2  1  0  0  0  0
  1  3  2  0  0  0  0
  2 13  2  0  0  0  0
  3 18  1  0  0  0  0
  4  6  1  0  0  0  0
  4 20  2  0  0  0  0
  5  7  1  0  0  0  0
  5 19  2  0  0  0  0
  6 21  2  0  0  0  0
  7 22  2  0  0  0  0
  8 11  2  0  0  0  0
  8 15  1  0  0  0  0
  9 13  1  0  0  0  0
  9 17  2  0  0  0  0
 10 14  1  0  0  0  0
 10 16  2  0  0  0  0
 11 46  1  0  0  0  0
 12 15  2  0  0  0  0
 12 46  1  0  0  0  0
 13 14  1  0  0  0  0
 14 18  2  0  0  0  0
 15 32  1  0  0  0  0
 16 17  1  0  0  0  0
 16 32  1  0  0  0  0
 17 33  1  0  0  0  0
 18 49  1  0  0  0  0
 19 34  1  0  0  0  0
 19 48  1  0  0  0  0
 20 35  1  0  0  0  0
 20 47  1  0  0  0  0
 21 47  1  0  0  0  0
 21 50  1  0  0  0  0
 22 48  1  0  0  0  0
 22 51  1  0  0  0  0
 23 36  1  0  0  0  0
 23 37  1  0  0  0  0
 23 41  2  0  0  0  0
 24 26  1  0  0  0  0
 24 37  1  0  0  0  0
 25 27  1  0  0  0  0
 25 37  1  0  0  0  0
 26 38  1  0  0  0  0
 27 38  1  0  0  0  0
 28 30  1  0  0  0  0
 28 39  1  0  0  0  0
 29 31  1  0  0  0  0
 29 39  1  0  0  0  0
 30 40  1  0  0  0  0
 31 40  1  0  0  0  0
 33 34  1  0  0  0  0
 35 40  1  0  0  0  0
 36 52  1  0  0  0  0
 38 50  1  0  0  0  0
 39 49  1  0  0  0  0
 42 49  2  0  0  0  0
 43 49  2  0  0  0  0
 44 50  2  0  0  0  0
 45 50  2  0  0  0  0
  1 53  1  0  0  0  0
  2 54  1  0  0  0  0
  3 55  1  0  0  0  0
  4 56  1  0  0  0  0
  5 57  1  0  0  0  0
  6 58  1  0  0  0  0
  7 59  1  0  0  0  0
  8 60  1  0  0  0  0
  9 61  1  0  0  0  0
 10 62  1  0  0  0  0
 11 63  1  0  0  0  0
 12 64  1  0  0  0  0
 24 65  1  0  0  0  0
 24 66  1  0  0  0  0
 25 67  1  0  0  0  0
 25 68  1  0  0  0  0
 26 69  1  0  0  0  0
 26 70  1  0  0  0  0
 27 71  1  0  0  0  0
 27 72  1  0  0  0  0
 28 73  1  0  0  0  0
 28 74  1  0  0  0  0
 29 75  1  0  0  0  0
 29 76  1  0  0  0  0
 30 77  1  0  0  0  0
 30 78  1  0  0  0  0
 31 79  1  0  0  0  0
 31 80  1  0  0  0  0
 32 81  1  0  0  0  0
 32 82  1  0  0  0  0
 33 83  1  0  0  0  0
 33 84  1  0  0  0  0
 34 85  1  0  0  0  0
 34 86  1  0  0  0  0
 35 87  1  0  0  0  0
 35 88  1  0  0  0  0
 36 89  1  0  0  0  0
 36 90  1  0  0  0  0
 40 91  1  0  0  0  0
M  CHG  1  40   1
M  END
> <creator>
Maksym Voznyy

> <fragments>
x1402

> <real_space>
FALSE

> <SCR>
FALSE

> <BB>
FALSE

> <link>
https://covid.postera.ai/covid/submissions/e05327b2-2d9c-4e6b-94d5-b60afa9814ed

> <covalent_frag>
TRUE

> <covalent_warhead>
TRUE

> <acrylamide>
FALSE

> <acrylamide_adduct>
FALSE

> <chloroacetamide>
TRUE

> <chloroacetamide_adduct>
FALSE

> <vinylsulfonamide>
FALSE

> <vinylsulfonamide_adduct>
FALSE

> <in_molport_or_mcule>
FALSE

> <in_emolecules>
FALSE

> <Hybrid2>
8.955384

> <Mpro-x1402_dock>
8.955384

> <site>
active-covalent

> <covalent_distance_min>
10.60725

> <covalent_distance_mean>
11.425968

> <covalent_distance_stderr>
0.027489495

$$$$
MAK-UNK-e05-6
  -OEChem-04062011563D

113120  0     1  0  0  0  0  0999 V2000
    4.5517   -7.3956   23.5540 C   0  0  0  0  0  0  0  0  0  0  0  0
    5.3204   -6.6700   22.6434 C   0  0  0  0  0  0  0  0  0  0  0  0
    4.5956   -7.0815   24.9090 C   0  0  0  0  0  0  0  0  0  0  0  0
   -0.3160   -1.1933   27.5507 C   0  0  0  0  0  0  0  0  0  0  0  0
   -1.4819   -0.9410   26.7715 C   0  0  0  0  0  0  0  0  0  0  0  0
    9.8238    0.5426   24.5391 C   0  0  0  0  0  0  0  0  0  0  0  0
    6.9245   -4.8780   22.1761 C   0  0  0  0  0  0  0  0  0  0  0  0
    7.0123   -4.2484   24.8915 C   0  0  0  0  0  0  0  0  0  0  0  0
   10.4789    1.5547   25.2056 C   0  0  0  0  0  0  0  0  0  0  0  0
    8.6438    0.6060   26.5406 C   0  0  0  0  0  0  0  0  0  0  0  0
    6.1441   -5.6190   23.0784 C   0  0  0  0  0  0  0  0  0  0  0  0
    6.1886   -5.2995   24.4565 C   0  0  0  0  0  0  0  0  0  0  0  0
    8.7606   -0.0069   25.3123 C   0  0  0  0  0  0  0  0  0  0  0  0
    7.7810   -3.5228   23.9809 C   0  0  0  0  0  0  0  0  0  0  0  0
    7.7372   -3.8370   22.6258 C   0  0  0  0  0  0  0  0  0  0  0  0
    5.4083   -6.0405   25.3588 C   0  0  0  0  0  0  0  0  0  0  0  0
    0.8114   -0.6332   26.9914 C   0  0  0  0  0  0  0  0  0  0  0  0
   -1.2011   -0.1973   25.6463 C   0  0  0  0  0  0  0  0  0  0  0  0
   -1.2009   -4.7013   21.7527 C   0  0  0  0  0  0  0  0  0  0  0  0
    5.3843    1.7884   16.2411 C   0  0  0  0  0  0  0  0  0  0  0  0
    4.0541    1.0624   16.0698 C   0  0  0  0  0  0  0  0  0  0  0  0
   -0.7909   -2.1959   21.5904 C   0  0  0  0  0  0  0  0  0  0  0  0
   -2.9316   -3.0714   22.4404 C   0  0  0  0  0  0  0  0  0  0  0  0
   -0.7116   -1.2354   22.7731 C   0  0  0  0  0  0  0  0  0  0  0  0
   -2.8581   -2.1169   23.6268 C   0  0  0  0  0  0  0  0  0  0  0  0
    8.3271    0.4634   20.2055 C   0  0  0  0  0  0  0  0  0  0  0  0
    6.0433   -0.3635   20.6513 C   0  0  0  0  0  0  0  0  0  0  0  0
    3.1921   -4.2379   26.5439 C   0  0  0  0  0  0  0  0  0  0  0  0
    4.6203   -3.4827   28.4112 C   0  0  0  0  0  0  0  0  0  0  0  0
    8.8881   -0.9379   20.3852 C   0  0  0  0  0  0  0  0  0  0  0  0
    6.5726   -1.7762   20.8375 C   0  0  0  0  0  0  0  0  0  0  0  0
    2.7136   -2.8125   26.3159 C   0  0  0  0  0  0  0  0  0  0  0  0
    4.1580   -2.0491   28.2028 C   0  0  0  0  0  0  0  0  0  0  0  0
    5.7687    1.6783   17.7111 C   0  0  1  0  0  0  0  0  0  0  0  0
    3.1273    1.5486   17.1764 C   0  0  1  0  0  0  0  0  0  0  0  0
    7.8691   -1.1293   24.8397 C   0  0  0  0  0  0  0  0  0  0  0  0
    8.6442   -2.4121   24.4833 C   0  0  0  0  0  0  0  0  0  0  0  0
    8.5515   -3.0737   21.6333 C   0  0  0  0  0  0  0  0  0  0  0  0
    2.2028   -0.6707   27.4911 C   0  0  0  0  0  0  0  0  0  0  0  0
    0.1665   -4.9252   21.1579 C   0  0  0  0  0  0  0  0  0  0  0  0
   -1.5931   -3.3761   21.9329 N   0  0  0  0  0  0  0  0  0  0  0  0
   -2.0921   -0.8959   23.2332 N   0  0  0  0  0  0  0  0  0  0  0  0
    4.5695   -4.2201   27.1158 N   0  0  0  0  0  0  0  0  0  0  0  0
    6.9190    0.4069   19.7269 N   0  0  0  0  0  0  0  0  0  0  0  0
    7.9989   -1.7082   21.3352 N   0  3  0  0  0  0  0  0  0  0  0  0
    2.7629   -2.0587   27.6239 N   0  3  0  0  0  0  0  0  0  0  0  0
   -1.8966   -5.6757   22.0500 O   0  0  0  0  0  0  0  0  0  0  0  0
    4.5564   -6.7259   27.7206 O   0  0  0  0  0  0  0  0  0  0  0  0
    6.7579   -5.5165   27.5241 O   0  0  0  0  0  0  0  0  0  0  0  0
   -3.5576    0.5235   24.8091 O   0  0  0  0  0  0  0  0  0  0  0  0
   -1.5198    1.5618   23.7520 O   0  0  0  0  0  0  0  0  0  0  0  0
    5.7765   -0.9262   17.8547 O   0  0  0  0  0  0  0  0  0  0  0  0
    7.9453    0.2798   17.3778 O   0  0  0  0  0  0  0  0  0  0  0  0
    9.8124    1.8387   26.7572 S   0  0  0  0  0  0  0  0  0  0  0  0
    0.4623    0.1931   25.5327 S   0  0  0  0  0  0  0  0  0  0  0  0
    4.2005    1.7493   18.6273 S   0  0  0  0  0  0  0  0  0  0  0  0
    5.3916   -5.7235   27.0952 S   0  0  0  0  0  0  0  0  0  0  0  0
   -2.1975    0.4195   24.3262 S   0  0  0  0  0  0  0  0  0  0  0  0
    6.6689    0.1944   18.0517 S   0  0  0  0  0  0  0  0  0  0  0  0
    2.3702    3.1051   16.7547 Cl  0  0  0  0  0  0  0  0  0  0  0  0
    1.2993   -4.9757   22.5041 Cl  0  0  0  0  0  0  0  0  0  0  0  0
    3.9189   -8.2061   23.2043 H   0  0  0  0  0  0  0  0  0  0  0  0
    5.2704   -6.9332   21.5889 H   0  0  0  0  0  0  0  0  0  0  0  0
    3.9906   -7.6563   25.6055 H   0  0  0  0  0  0  0  0  0  0  0  0
   -0.3091   -1.7578   28.4745 H   0  0  0  0  0  0  0  0  0  0  0  0
   -2.4753   -1.2878   27.0249 H   0  0  0  0  0  0  0  0  0  0  0  0
   10.0979    0.2149   23.5443 H   0  0  0  0  0  0  0  0  0  0  0  0
    6.8989   -5.1143   21.1135 H   0  0  0  0  0  0  0  0  0  0  0  0
    7.0730   -3.9739   25.9419 H   0  0  0  0  0  0  0  0  0  0  0  0
   11.3173    2.1403   24.8560 H   0  0  0  0  0  0  0  0  0  0  0  0
    7.9304    0.3913   27.3242 H   0  0  0  0  0  0  0  0  0  0  0  0
    6.1479    1.3652   15.5796 H   0  0  0  0  0  0  0  0  0  0  0  0
    5.2708    2.8437   15.9621 H   0  0  0  0  0  0  0  0  0  0  0  0
    3.6342    1.2336   15.0723 H   0  0  0  0  0  0  0  0  0  0  0  0
    4.2079   -0.0204   16.1622 H   0  0  0  0  0  0  0  0  0  0  0  0
   -1.2855   -1.7130   20.7389 H   0  0  0  0  0  0  0  0  0  0  0  0
    0.2180   -2.4638   21.2719 H   0  0  0  0  0  0  0  0  0  0  0  0
   -3.4579   -3.9860   22.7308 H   0  0  0  0  0  0  0  0  0  0  0  0
   -3.4919   -2.6156   21.6151 H   0  0  0  0  0  0  0  0  0  0  0  0
   -0.1437   -1.6810   23.5980 H   0  0  0  0  0  0  0  0  0  0  0  0
   -0.2015   -0.3197   22.4547 H   0  0  0  0  0  0  0  0  0  0  0  0
   -3.8746   -1.8290   23.9163 H   0  0  0  0  0  0  0  0  0  0  0  0
   -2.3750   -2.5984   24.4848 H   0  0  0  0  0  0  0  0  0  0  0  0
    8.3789    1.0289   21.1485 H   0  0  0  0  0  0  0  0  0  0  0  0
    8.9405    0.9954   19.4638 H   0  0  0  0  0  0  0  0  0  0  0  0
    5.0301   -0.4207   20.2277 H   0  0  0  0  0  0  0  0  0  0  0  0
    5.9708    0.1581   21.6180 H   0  0  0  0  0  0  0  0  0  0  0  0
    2.5150   -4.7752   27.2183 H   0  0  0  0  0  0  0  0  0  0  0  0
    3.2070   -4.7628   25.5825 H   0  0  0  0  0  0  0  0  0  0  0  0
    5.6517   -3.4701   28.7801 H   0  0  0  0  0  0  0  0  0  0  0  0
    3.9964   -3.9923   29.1547 H   0  0  0  0  0  0  0  0  0  0  0  0
    8.9166   -1.4914   19.4419 H   0  0  0  0  0  0  0  0  0  0  0  0
    9.8864   -0.9023   20.8285 H   0  0  0  0  0  0  0  0  0  0  0  0
    5.9895   -2.3132   21.5899 H   0  0  0  0  0  0  0  0  0  0  0  0
    6.5799   -2.3375   19.8983 H   0  0  0  0  0  0  0  0  0  0  0  0
    3.3492   -2.2767   25.6033 H   0  0  0  0  0  0  0  0  0  0  0  0
    1.6760   -2.8025   25.9697 H   0  0  0  0  0  0  0  0  0  0  0  0
    4.1147   -1.5130   29.1552 H   0  0  0  0  0  0  0  0  0  0  0  0
    4.8019   -1.5097   27.5004 H   0  0  0  0  0  0  0  0  0  0  0  0
    6.4190    2.5061   18.0102 H   0  0  0  0  0  0  0  0  0  0  0  0
    2.3263    0.8326   17.3784 H   0  0  0  0  0  0  0  0  0  0  0  0
    7.1427   -1.3481   25.6333 H   0  0  0  0  0  0  0  0  0  0  0  0
    7.2749   -0.7959   23.9792 H   0  0  0  0  0  0  0  0  0  0  0  0
    9.1804   -2.7539   25.3844 H   0  0  0  0  0  0  0  0  0  0  0  0
    9.4369   -2.1765   23.7537 H   0  0  0  0  0  0  0  0  0  0  0  0
    9.5791   -2.9210   21.9879 H   0  0  0  0  0  0  0  0  0  0  0  0
    8.6110   -3.6002   20.6719 H   0  0  0  0  0  0  0  0  0  0  0  0
    2.8992   -0.1301   26.8278 H   0  0  0  0  0  0  0  0  0  0  0  0
    2.2995   -0.2130   28.4903 H   0  0  0  0  0  0  0  0  0  0  0  0
    0.4047   -4.0956   20.5020 H   0  0  0  0  0  0  0  0  0  0  0  0
    0.1702   -5.8733   20.6324 H   0  0  0  0  0  0  0  0  0  0  0  0
    7.9863   -1.1918   22.2283 H   0  0  0  0  0  0  0  0  0  0  0  0
    2.1577   -2.5599   28.2900 H   0  0  0  0  0  0  0  0  0  0  0  0
  1  2  1  0  0  0  0
  1  3  2  0  0  0  0
  2 11  2  0  0  0  0
  3 16  1  0  0  0  0
  4  5  1  0  0  0  0
  4 17  2  0  0  0  0
  5 18  2  0  0  0  0
  6  9  2  0  0  0  0
  6 13  1  0  0  0  0
  7 11  1  0  0  0  0
  7 15  2  0  0  0  0
  8 12  1  0  0  0  0
  8 14  2  0  0  0  0
  9 54  1  0  0  0  0
 10 13  2  0  0  0  0
 10 54  1  0  0  0  0
 11 12  1  0  0  0  0
 12 16  2  0  0  0  0
 13 36  1  0  0  0  0
 14 15  1  0  0  0  0
 14 37  1  0  0  0  0
 15 38  1  0  0  0  0
 16 57  1  0  0  0  0
 17 39  1  0  0  0  0
 17 55  1  0  0  0  0
 18 55  1  0  0  0  0
 18 58  1  0  0  0  0
 19 40  1  0  0  0  0
 19 41  1  0  0  0  0
 19 47  2  0  0  0  0
 20 21  1  0  0  0  0
 20 34  1  0  0  0  0
 21 35  1  0  0  0  0
 22 24  1  0  0  0  0
 22 41  1  0  0  0  0
 23 25  1  0  0  0  0
 23 41  1  0  0  0  0
 24 42  1  0  0  0  0
 25 42  1  0  0  0  0
 26 30  1  0  0  0  0
 26 44  1  0  0  0  0
 27 31  1  0  0  0  0
 27 44  1  0  0  0  0
 28 32  1  0  0  0  0
 28 43  1  0  0  0  0
 29 33  1  0  0  0  0
 29 43  1  0  0  0  0
 30 45  1  0  0  0  0
 31 45  1  0  0  0  0
 32 46  1  0  0  0  0
 33 46  1  0  0  0  0
 34 56  1  0  0  0  0
 34 59  1  0  0  0  0
 35 56  1  0  0  0  0
 35 60  1  0  0  0  0
 36 37  1  0  0  0  0
 38 45  1  0  0  0  0
 39 46  1  0  0  0  0
 40 61  1  0  0  0  0
 42 58  1  0  0  0  0
 43 57  1  0  0  0  0
 44 59  1  0  0  0  0
 48 57  2  0  0  0  0
 49 57  2  0  0  0  0
 50 58  2  0  0  0  0
 51 58  2  0  0  0  0
 52 59  2  0  0  0  0
 53 59  2  0  0  0  0
  1 62  1  0  0  0  0
  2 63  1  0  0  0  0
  3 64  1  0  0  0  0
  4 65  1  0  0  0  0
  5 66  1  0  0  0  0
  6 67  1  0  0  0  0
  7 68  1  0  0  0  0
  8 69  1  0  0  0  0
  9 70  1  0  0  0  0
 10 71  1  0  0  0  0
 20 72  1  0  0  0  0
 20 73  1  0  0  0  0
 21 74  1  0  0  0  0
 21 75  1  0  0  0  0
 22 76  1  0  0  0  0
 22 77  1  0  0  0  0
 23 78  1  0  0  0  0
 23 79  1  0  0  0  0
 24 80  1  0  0  0  0
 24 81  1  0  0  0  0
 25 82  1  0  0  0  0
 25 83  1  0  0  0  0
 26 84  1  0  0  0  0
 26 85  1  0  0  0  0
 27 86  1  0  0  0  0
 27 87  1  0  0  0  0
 28 88  1  0  0  0  0
 28 89  1  0  0  0  0
 29 90  1  0  0  0  0
 29 91  1  0  0  0  0
 30 92  1  0  0  0  0
 30 93  1  0  0  0  0
 31 94  1  0  0  0  0
 31 95  1  0  0  0  0
 32 96  1  0  0  0  0
 32 97  1  0  0  0  0
 33 98  1  0  0  0  0
 33 99  1  0  0  0  0
 34100  1  0  0  0  0
 35101  1  0  0  0  0
 36102  1  0  0  0  0
 36103  1  0  0  0  0
 37104  1  0  0  0  0
 37105  1  0  0  0  0
 38106  1  0  0  0  0
 38107  1  0  0  0  0
 39108  1  0  0  0  0
 39109  1  0  0  0  0
 40110  1  0  0  0  0
 40111  1  0  0  0  0
 45112  1  0  0  0  0
 46113  1  0  0  0  0
M  CHG  2  45   1  46   1
M  END
> <creator>
Maksym Voznyy

> <fragments>
x1402

> <real_space>
FALSE

> <SCR>
FALSE

> <BB>
FALSE

> <link>
https://covid.postera.ai/covid/submissions/e05327b2-2d9c-4e6b-94d5-b60afa9814ed

> <covalent_frag>
TRUE

> <covalent_warhead>
TRUE

> <acrylamide>
FALSE

> <acrylamide_adduct>
FALSE

> <chloroacetamide>
TRUE

> <chloroacetamide_adduct>
FALSE

> <vinylsulfonamide>
FALSE

> <vinylsulfonamide_adduct>
FALSE

> <in_molport_or_mcule>
FALSE

> <in_emolecules>
FALSE

> <Hybrid2>
10.437064

> <Mpro-x1402_dock>
10.437064

> <site>
active-covalent

> <covalent_distance_min>
8.248192

> <covalent_distance_mean>
9.499756

> <covalent_distance_stderr>
0.10179653

$$$$
