@<TRIPOS>MOLECULE
MIH-UNI-e57-13
   28    31     0     0     0
SMALL
NO_CHARGES

@<TRIPOS>ATOM
      1 C1         14.2167   -0.7602   23.1831 C.ar      1 UNL1        0.0000
      2 C2         13.6580   -1.6041   22.2233 C.ar      1 UNL1        0.0000
      3 C3         13.3903   -0.0593   24.0615 C.ar      1 UNL1        0.0000
      4 C4          8.0371   -1.2249   26.8141 C.ar      1 UNL1        0.0000
      5 C5          8.7485   -2.3375   26.3763 C.ar      1 UNL1        0.0000
      6 C6         12.2728   -1.7471   22.1419 C.ar      1 UNL1        0.0000
      7 C7         12.0052   -0.2023   23.9801 C.ar      1 UNL1        0.0000
      8 C8          7.9355   -0.0987   25.9983 C.ar      1 UNL1        0.0000
      9 C9          9.3564   -2.3246   25.1220 C.ar      1 UNL1        0.0000
     10 C10         5.6699    0.9543   19.1264 C.ar      1 UNL1        0.0000
     11 C11         6.4001    0.7684   17.9635 C.ar      1 UNL1        0.0000
     12 C12         8.1040   -0.2783   19.0946 C.ar      1 UNL1        0.0000
     13 C13        11.4464   -1.0462   23.0203 C.ar      1 UNL1        0.0000
     14 C14         8.5455   -0.0710   24.7345 C.ar      1 UNL1        0.0000
     15 C15         9.2578   -1.1967   24.2906 C.ar      1 UNL1        0.0000
     16 C16         6.2139    0.4880   20.3180 C.ar      1 UNL1        0.0000
     17 C17         7.4538   -0.1412   20.3105 C.ar      1 UNL1        0.0000
     18 C18         9.4501    2.3057   21.8913 C.2       1 UNL1        0.0000
     19 C19         8.4085    1.1708   23.8922 C.3       1 UNL1        0.0000
     20 C20         9.9305   -1.2020   22.9315 C.3       1 UNL1        0.0000
     21 C21         9.3198   -0.1608   21.9678 C.3       1 UNL1        0.0000
     22 C22         5.4481    0.6740   21.5866 C.3       1 UNL1        0.0000
     23 C23         9.0374    3.6168   22.5144 C.3       1 UNL1        0.0000
     24 N1          7.6074    0.1619   17.9168 N.ar      1 UNL1        0.0000
     25 N2          9.1236    1.1462   22.6067 N.am      1 UNL1        0.0000
     26 N3          8.0338   -0.6185   21.4692 N.pl3     1 UNL1        0.0000
     27 O1         10.0485    2.3113   20.8127 O.2       1 UNL1        0.0000
     28 Cl1        10.3638    4.1167   23.5570 Cl        1 UNL1        0.0000
@<TRIPOS>BOND
     1    1    2 ar
     2    1    3 ar
     3    2    6 ar
     4    3    7 ar
     5    4    5 ar
     6    4    8 ar
     7    5    9 ar
     8    6   13 ar
     9    7   13 ar
    10    8   14 ar
    11    9   15 ar
    12   10   11 ar
    13   10   16 ar
    14   11   24 ar
    15   12   17 ar
    16   12   24 ar
    17   13   20 1
    18   14   15 ar
    19   14   19 1
    20   15   20 1
    21   16   17 ar
    22   16   22 1
    23   17   26 1
    24   18   23 1
    25   18   25 am
    26   18   27 2
    27   19   25 1
    28   20   21 1
    29   21   25 1
    30   21   26 1
    31   23   28 1
@<TRIPOS>MOLECULE
JAN-GHE-641-1
   30    33     0     0     0
SMALL
NO_CHARGES

@<TRIPOS>ATOM
      1 C1         13.2941   -1.4241   22.2504 C.ar      1 UNL1        0.0000
      2 C2          7.9543    7.2869   24.0679 C.2       1 UNL1        0.0000
      3 C3         13.4157   -0.0575   22.5271 C.ar      1 UNL1        0.0000
      4 C4         12.0403   -2.0275   22.1743 C.ar      1 UNL1        0.0000
      5 C5          9.2125    6.8646   24.5636 C.2       1 UNL1        0.0000
      6 C6          7.8711    6.8779   22.7552 C.2       1 UNL1        0.0000
      7 C7         10.6421    2.2512   23.1083 C.2       1 UNL1        0.0000
      8 C8         12.2509    0.7091   22.7295 C.ar      1 UNL1        0.0000
      9 C9         10.8711   -1.2874   22.3716 C.ar      1 UNL1        0.0000
     10 C10        12.0045    2.0800   23.0211 C.2       1 UNL1        0.0000
     11 C11        11.0080    0.0778   22.6473 C.ar      1 UNL1        0.0000
     12 C12         9.8600    6.2106   23.5387 C.2       1 UNL1        0.0000
     13 C13         4.6971   -5.7674   26.4269 C.2       1 UNL1        0.0000
     14 C14         5.3266   -4.5935   26.3438 C.2       1 UNL1        0.0000
     15 C15        11.2064    5.5829   23.5498 C.2       1 UNL1        0.0000
     16 C16         6.8029   -4.5725   26.3681 C.2       1 UNL1        0.0000
     17 C17         6.8045   -2.4728   24.9138 C.3       1 UNL1        0.0000
     18 C18         8.9097   -3.4593   25.7408 C.3       1 UNL1        0.0000
     19 C19         7.4026   -2.3500   23.5173 C.3       1 UNL1        0.0000
     20 C20         9.5227   -3.3630   24.3527 C.3       1 UNL1        0.0000
     21 C21        13.0206    3.1367   23.2007 C.3       1 UNL1        0.0000
     22 C22         9.5374   -1.9689   22.2822 C.3       1 UNL1        0.0000
     23 C23        12.8778    4.3172   22.2229 C.3       1 UNL1        0.0000
     24 N1         10.0496    1.0379   22.8816 N.pl3     1 UNL1        0.0000
     25 N2          9.0353    6.2250   22.4443 N.pl3     1 UNL1        0.0000
     26 N3          7.4493   -3.5490   25.6793 N.am      1 UNL1        0.0000
     27 N4         11.6123    4.9865   22.3622 N.am      1 UNL1        0.0000
     28 N5          8.9006   -2.1949   23.6245 N.4       1 UNL1        0.0000
     29 O1         11.8690    5.6022   24.5838 O.2       1 UNL1        0.0000
     30 O2          7.3743   -5.4615   27.0017 O.2       1 UNL1        0.0000
@<TRIPOS>BOND
     1    1    3 ar
     2    1    4 ar
     3    2    5 1
     4    2    6 2
     5    3    8 ar
     6    4    9 ar
     7    5   12 2
     8    6   25 1
     9    7   10 2
    10    7   24 1
    11    8   10 1
    12    8   11 ar
    13    9   11 ar
    14    9   22 1
    15   10   21 1
    16   11   24 1
    17   12   15 1
    18   12   25 1
    19   13   14 2
    20   14   16 1
    21   15   27 am
    22   15   29 2
    23   16   26 am
    24   16   30 2
    25   17   19 1
    26   17   26 1
    27   18   20 1
    28   18   26 1
    29   19   28 1
    30   20   28 1
    31   21   23 1
    32   22   28 1
    33   23   27 1
@<TRIPOS>MOLECULE
JAN-GHE-641-4
   32    36     0     0     0
SMALL
NO_CHARGES

@<TRIPOS>ATOM
      1 C1         13.2214   -1.5021   22.3193 C.ar      1 UNL1        0.0000
      2 C2          8.1523    7.4182   23.8778 C.2       1 UNL1        0.0000
      3 C3         13.3849   -0.1360   22.5758 C.ar      1 UNL1        0.0000
      4 C4         11.9492   -2.0631   22.2265 C.ar      1 UNL1        0.0000
      5 C5          9.3844    6.9613   24.4072 C.2       1 UNL1        0.0000
      6 C6          8.0821    6.9896   22.5706 C.2       1 UNL1        0.0000
      7 C7         10.6821    2.2768   23.0593 C.2       1 UNL1        0.0000
      8 C8         12.2436    0.6738   22.7406 C.ar      1 UNL1        0.0000
      9 C9         10.8026   -1.2798   22.3864 C.ar      1 UNL1        0.0000
     10 C10        12.0391    2.0571   23.0041 C.2       1 UNL1        0.0000
     11 C11        10.9813    0.0844   22.6423 C.ar      1 UNL1        0.0000
     12 C12        10.0298    6.2677   23.4073 C.2       1 UNL1        0.0000
     13 C13         3.0459   -6.6276   23.2726 C.2       1 UNL1        0.0000
     14 C14         3.8429   -5.9452   24.0976 C.2       1 UNL1        0.0000
     15 C15        11.3530    5.5942   23.4575 C.2       1 UNL1        0.0000
     16 C16         5.3025   -6.1479   24.0088 C.2       1 UNL1        0.0000
     17 C17         5.6626   -3.7445   24.7830 C.3       1 UNL1        0.0000
     18 C18         7.5526   -5.1546   24.2819 C.3       1 UNL1        0.0000
     19 C19         7.2782   -2.2195   23.5225 C.3       1 UNL1        0.0000
     20 C20         9.2936   -3.2765   24.4088 C.3       1 UNL1        0.0000
     21 C21         6.9284   -2.9031   24.8333 C.3       1 UNL1        0.0000
     22 C22         8.0562   -3.9161   25.0203 C.3       1 UNL1        0.0000
     23 C23        13.0876    3.0811   23.1878 C.3       1 UNL1        0.0000
     24 C24         9.4482   -1.9162   22.2799 C.3       1 UNL1        0.0000
     25 C25        13.0064    4.2488   22.1878 C.3       1 UNL1        0.0000
     26 N1         10.0524    1.0810   22.8402 N.pl3     1 UNL1        0.0000
     27 N2          9.2290    6.2916   22.2955 N.pl3     1 UNL1        0.0000
     28 N3          6.0997   -5.0709   24.3478 N.am      1 UNL1        0.0000
     29 N4         11.7624    4.9637   22.2889 N.am      1 UNL1        0.0000
     30 N5          8.7800   -2.0958   23.6042 N.4       1 UNL1        0.0000
     31 O1         11.9942    5.6085   24.5050 O.2       1 UNL1        0.0000
     32 O2          5.7270   -7.2453   23.6479 O.2       1 UNL1        0.0000
@<TRIPOS>BOND
     1    1    3 ar
     2    1    4 ar
     3    2    5 1
     4    2    6 2
     5    3    8 ar
     6    4    9 ar
     7    5   12 2
     8    6   27 1
     9    7   10 2
    10    7   26 1
    11    8   10 1
    12    8   11 ar
    13    9   11 ar
    14    9   24 1
    15   10   23 1
    16   11   26 1
    17   12   15 1
    18   12   27 1
    19   13   14 2
    20   14   16 1
    21   15   29 am
    22   15   31 2
    23   16   28 am
    24   16   32 2
    25   17   21 1
    26   17   28 1
    27   18   22 1
    28   18   28 1
    29   19   21 1
    30   19   30 1
    31   20   22 1
    32   20   30 1
    33   21   22 1
    34   23   25 1
    35   24   30 1
    36   25   29 1
@<TRIPOS>MOLECULE
JAN-GHE-641-2
   29    32     0     0     0
SMALL
NO_CHARGES

@<TRIPOS>ATOM
      1 C1         13.3992   -0.2386   22.0654 C.ar      1 UNL1        0.0000
      2 C2          7.0364    7.0200   22.7956 C.2       1 UNL1        0.0000
      3 C3         13.2900    0.9688   22.7648 C.ar      1 UNL1        0.0000
      4 C4         12.3303   -1.1311   22.0123 C.ar      1 UNL1        0.0000
      5 C5          8.0460    6.8557   23.7758 C.2       1 UNL1        0.0000
      6 C6          7.4925    6.4376   21.6337 C.2       1 UNL1        0.0000
      7 C7         10.3326    2.1165   24.5806 C.2       1 UNL1        0.0000
      8 C8         12.0811    1.2769   23.4198 C.ar      1 UNL1        0.0000
      9 C9         11.1216   -0.8471   22.6542 C.ar      1 UNL1        0.0000
     10 C10        11.6287    2.3777   24.1998 C.2       1 UNL1        0.0000
     11 C11        11.0269    0.3636   23.3495 C.ar      1 UNL1        0.0000
     12 C12         9.0884    6.1780   23.1830 C.2       1 UNL1        0.0000
     13 C13         3.7013   -4.2529   25.9468 C.2       1 UNL1        0.0000
     14 C14         4.8269   -3.8920   25.3270 C.2       1 UNL1        0.0000
     15 C15        10.3809    5.7629   23.7864 C.2       1 UNL1        0.0000
     16 C16         6.0956   -4.5264   25.7283 C.2       1 UNL1        0.0000
     17 C17         8.6124   -4.4292   25.0897 C.3       1 UNL1        0.0000
     18 C18         7.3352   -3.0748   24.0283 C.3       1 UNL1        0.0000
     19 C19         8.7472   -3.6256   23.7884 C.3       1 UNL1        0.0000
     20 C20        12.4028    3.5872   24.5451 C.3       1 UNL1        0.0000
     21 C21         9.9911   -1.8304   22.5765 C.3       1 UNL1        0.0000
     22 C22        12.5357    4.5979   23.3914 C.3       1 UNL1        0.0000
     23 N1          9.9786    0.8994   24.0632 N.pl3     1 UNL1        0.0000
     24 N2          8.7410    5.9294   21.8808 N.pl3     1 UNL1        0.0000
     25 N3          7.1990   -4.1021   25.0461 N.am      1 UNL1        0.0000
     26 N4         11.2572    5.0851   22.9476 N.am      1 UNL1        0.0000
     27 N5          9.7920   -2.5956   23.8450 N.4       1 UNL1        0.0000
     28 O1         10.5987    6.0128   24.9691 O.2       1 UNL1        0.0000
     29 O2          6.1030   -5.3729   26.6186 O.2       1 UNL1        0.0000
@<TRIPOS>BOND
     1    1    3 ar
     2    1    4 ar
     3    2    5 1
     4    2    6 2
     5    3    8 ar
     6    4    9 ar
     7    5   12 2
     8    6   24 1
     9    7   10 2
    10    7   23 1
    11    8   10 1
    12    8   11 ar
    13    9   11 ar
    14    9   21 1
    15   10   20 1
    16   11   23 1
    17   12   15 1
    18   12   24 1
    19   13   14 2
    20   14   16 1
    21   15   26 am
    22   15   28 2
    23   16   25 am
    24   16   29 2
    25   17   19 1
    26   17   25 1
    27   18   19 1
    28   18   25 1
    29   19   27 1
    30   20   22 1
    31   21   27 1
    32   22   26 1
@<TRIPOS>MOLECULE
JAN-GHE-641-3
   29    32     0     0     0
SMALL
NO_CHARGES

@<TRIPOS>ATOM
      1 C1         12.9750   -0.7378   22.0351 C.ar      1 UNL1        0.0000
      2 C2          8.0188    7.4977   23.1828 C.2       1 UNL1        0.0000
      3 C3         13.1011    0.4460   22.7710 C.ar      1 UNL1        0.0000
      4 C4         11.7642   -1.4263   21.9937 C.ar      1 UNL1        0.0000
      5 C5          9.0112    7.1260   24.1231 C.2       1 UNL1        0.0000
      6 C6          8.3313    6.8833   21.9903 C.2       1 UNL1        0.0000
      7 C7         10.4464    2.0346   24.7177 C.2       1 UNL1        0.0000
      8 C8         11.9849    0.9398   23.4751 C.ar      1 UNL1        0.0000
      9 C9         10.6436   -0.9558   22.6842 C.ar      1 UNL1        0.0000
     10 C10        11.7567    2.0764   24.3003 C.2       1 UNL1        0.0000
     11 C11        10.7843    0.2289   23.4156 C.ar      1 UNL1        0.0000
     12 C12         9.9000    6.2957   23.4765 C.2       1 UNL1        0.0000
     13 C13         5.9749   -5.8779   28.4439 C.2       1 UNL1        0.0000
     14 C14         6.3710   -4.9598   27.5571 C.2       1 UNL1        0.0000
     15 C15        11.1156    5.6400   24.0237 C.2       1 UNL1        0.0000
     16 C16         7.4038   -5.2921   26.5398 C.2       1 UNL1        0.0000
     17 C17         9.6553   -3.1276   24.6011 C.3       1 UNL1        0.0000
     18 C18         8.1559   -3.7493   23.2892 C.3       1 UNL1        0.0000
     19 C19         8.6473   -4.2899   24.6439 C.3       1 UNL1        0.0000
     20 C20        12.7421    3.1189   24.6524 C.3       1 UNL1        0.0000
     21 C21         9.3553   -1.7219   22.6178 C.3       1 UNL1        0.0000
     22 C22        13.0183    4.1283   23.5233 C.3       1 UNL1        0.0000
     23 N1          9.8682    0.9165   24.1792 N.pl3     1 UNL1        0.0000
     24 N2          9.4769    6.1555   22.1805 N.pl3     1 UNL1        0.0000
     25 N3         11.8338    4.8471   23.1371 N.am      1 UNL1        0.0000
     26 N4          7.6740   -4.2150   25.7209 N.am      1 UNL1        0.0000
     27 N5          9.4746   -3.1023   23.1356 N.4       1 UNL1        0.0000
     28 O1         11.4080    5.8083   25.2047 O.2       1 UNL1        0.0000
     29 O2          7.9264   -6.3997   26.4671 O.2       1 UNL1        0.0000
@<TRIPOS>BOND
     1    1    3 ar
     2    1    4 ar
     3    2    5 1
     4    2    6 2
     5    3    8 ar
     6    4    9 ar
     7    5   12 2
     8    6   24 1
     9    7   10 2
    10    7   23 1
    11    8   10 1
    12    8   11 ar
    13    9   11 ar
    14    9   21 1
    15   10   20 1
    16   11   23 1
    17   12   15 1
    18   12   24 1
    19   13   14 2
    20   14   16 1
    21   15   25 am
    22   15   28 2
    23   16   26 am
    24   16   29 2
    25   17   19 1
    26   17   27 1
    27   18   19 1
    28   18   27 1
    29   19   26 1
    30   20   22 1
    31   21   27 1
    32   22   25 1
@<TRIPOS>MOLECULE
JAN-GHE-641-6
   30    33     0     0     0
SMALL
NO_CHARGES

@<TRIPOS>ATOM
      1 C1         12.8787   -0.4035   22.4361 C.ar      1 UNL1        0.0000
      2 C2         12.9071    0.8678   23.0208 C.ar      1 UNL1        0.0000
      3 C3         11.6940   -1.1348   22.3764 C.ar      1 UNL1        0.0000
      4 C4         10.0451    2.5935   24.5012 C.2       1 UNL1        0.0000
      5 C5         11.7186    1.4062   23.5529 C.ar      1 UNL1        0.0000
      6 C6         10.5030   -0.6213   22.8975 C.ar      1 UNL1        0.0000
      7 C7         11.3871    2.6293   24.2003 C.2       1 UNL1        0.0000
      8 C8         10.5463    0.6508   23.4791 C.ar      1 UNL1        0.0000
      9 C9          5.5114   -6.6876   26.4920 C.2       1 UNL1        0.0000
     10 C10         6.0015   -5.4526   26.6186 C.2       1 UNL1        0.0000
     11 C11         7.4540   -5.2417   26.4572 C.2       1 UNL1        0.0000
     12 C12        10.6801    6.1032   23.3924 C.2       1 UNL1        0.0000
     13 C13         7.1609    6.6072   22.4002 C.3       1 UNL1        0.0000
     14 C14         8.2703    6.8153   23.4138 C.3       1 UNL1        0.0000
     15 C15         7.0213   -2.8847   25.5733 C.3       1 UNL1        0.0000
     16 C16         9.3167   -3.7449   25.8559 C.3       1 UNL1        0.0000
     17 C17         7.6597    5.4353   21.5832 C.3       1 UNL1        0.0000
     18 C18         7.3784   -2.3684   24.1845 C.3       1 UNL1        0.0000
     19 C19         9.6924   -3.2542   24.4667 C.3       1 UNL1        0.0000
     20 C20         9.5373    6.6291   22.5944 C.3       1 UNL1        0.0000
     21 C21        12.3099    3.7427   24.5009 C.3       1 UNL1        0.0000
     22 C22         9.2454   -1.4356   22.8163 C.3       1 UNL1        0.0000
     23 C23        12.6653    4.6102   23.2798 C.3       1 UNL1        0.0000
     24 N1          9.5467    1.3961   24.0625 N.pl3     1 UNL1        0.0000
     25 N2          7.8807   -4.0116   25.9626 N.am      1 UNL1        0.0000
     26 N3         11.5048    5.2313   22.6998 N.am      1 UNL1        0.0000
     27 N4          9.1449    5.6412   21.5241 N.4       1 UNL1        0.0000
     28 N5          8.8520   -2.0442   24.1328 N.4       1 UNL1        0.0000
     29 O1          8.2024   -6.1677   26.7749 O.2       1 UNL1        0.0000
     30 O2         10.8172    6.4573   24.5575 O.2       1 UNL1        0.0000
@<TRIPOS>BOND
     1    1    2 ar
     2    1    3 ar
     3    2    5 ar
     4    3    6 ar
     5    4    7 2
     6    4   24 1
     7    5    7 1
     8    5    8 ar
     9    6    8 ar
    10    6   22 1
    11    7   21 1
    12    8   24 1
    13    9   10 2
    14   10   11 1
    15   11   25 am
    16   11   29 2
    17   12   20 1
    18   12   26 am
    19   12   30 2
    20   13   14 1
    21   13   17 1
    22   14   20 1
    23   15   18 1
    24   15   25 1
    25   16   19 1
    26   16   25 1
    27   17   27 1
    28   18   28 1
    29   19   28 1
    30   20   27 1
    31   21   23 1
    32   22   28 1
    33   23   26 1
@<TRIPOS>MOLECULE
MIH-UNI-e57-14
   30    34     0     0     0
SMALL
NO_CHARGES

@<TRIPOS>ATOM
      1 C1         14.2043   -0.6445   24.0380 C.ar      1 UNL1        0.0000
      2 C2         13.6296   -1.7826   23.4724 C.ar      1 UNL1        0.0000
      3 C3         13.3930    0.4018   24.4770 C.ar      1 UNL1        0.0000
      4 C4          8.1048   -3.2148   26.8321 C.ar      1 UNL1        0.0000
      5 C5          8.8131   -3.8597   25.8232 C.ar      1 UNL1        0.0000
      6 C6          5.2190    0.8033   18.9031 C.ar      1 UNL1        0.0000
      7 C7          5.8290    0.7435   20.1547 C.ar      1 UNL1        0.0000
      8 C8         12.2435   -1.8744   23.3457 C.ar      1 UNL1        0.0000
      9 C9         12.0069    0.3100   24.3503 C.ar      1 UNL1        0.0000
     10 C10         7.9798   -1.8261   26.8159 C.ar      1 UNL1        0.0000
     11 C11         9.3941   -3.1160   24.7973 C.ar      1 UNL1        0.0000
     12 C12         5.9789    0.5218   17.7757 C.ar      1 UNL1        0.0000
     13 C13         9.3465   -0.1211   20.6241 C.2       1 UNL1        0.0000
     14 C14         7.1895    0.3990   20.2053 C.ar      1 UNL1        0.0000
     15 C15        11.4322   -0.8281   23.7846 C.ar      1 UNL1        0.0000
     16 C16         8.5633   -1.0650   25.7908 C.ar      1 UNL1        0.0000
     17 C17         9.2715   -1.7167   24.7691 C.ar      1 UNL1        0.0000
     18 C18         8.1588    0.2297   21.2291 C.2       1 UNL1        0.0000
     19 C19         7.8303    0.1418   18.9969 C.ar      1 UNL1        0.0000
     20 C20         9.4014    2.5281   24.8330 C.2       1 UNL1        0.0000
     21 C21         8.4012    0.4320   25.8201 C.3       1 UNL1        0.0000
     22 C22         9.9157   -0.9278   23.6461 C.3       1 UNL1        0.0000
     23 C23         9.2752    0.4708   23.4617 C.3       1 UNL1        0.0000
     24 C24         7.9409    0.4000   22.7044 C.3       1 UNL1        0.0000
     25 C25         8.9938    3.2319   26.1043 C.3       1 UNL1        0.0000
     26 N1          7.2897    0.1854   17.7645 N.ar      1 UNL1        0.0000
     27 N2          9.1358   -0.1711   19.2705 N.pl3     1 UNL1        0.0000
     28 N3          9.0927    1.1639   24.7490 N.am      1 UNL1        0.0000
     29 O1          9.9804    3.1652   23.9494 O.2       1 UNL1        0.0000
     30 Cl1         8.7025    4.9136   25.6760 Cl        1 UNL1        0.0000
@<TRIPOS>BOND
     1    1    2 ar
     2    1    3 ar
     3    2    8 ar
     4    3    9 ar
     5    4    5 ar
     6    4   10 ar
     7    5   11 ar
     8    6    7 ar
     9    6   12 ar
    10    7   14 ar
    11    8   15 ar
    12    9   15 ar
    13   10   16 ar
    14   11   17 ar
    15   12   26 ar
    16   13   18 2
    17   13   27 1
    18   14   18 1
    19   14   19 ar
    20   15   22 1
    21   16   17 ar
    22   16   21 1
    23   17   22 1
    24   18   24 1
    25   19   26 ar
    26   19   27 1
    27   20   25 1
    28   20   28 am
    29   20   29 2
    30   21   28 1
    31   22   23 1
    32   23   24 1
    33   23   28 1
    34   25   30 1
@<TRIPOS>MOLECULE
MIH-UNI-e57-3
   28    31     0     0     0
SMALL
NO_CHARGES

@<TRIPOS>ATOM
      1 C1          4.8005   -6.2579   24.0972 C.ar      1 UNL1        0.0000
      2 C2          5.5670   -5.5600   23.1687 C.ar      1 UNL1        0.0000
      3 C3          7.9308   -5.0217   27.6107 C.ar      1 UNL1        0.0000
      4 C4          5.2714    1.2765   19.1082 C.ar      1 UNL1        0.0000
      5 C5          5.1927   -6.3014   25.4354 C.ar      1 UNL1        0.0000
      6 C6          6.7288   -4.9028   23.5747 C.ar      1 UNL1        0.0000
      7 C7          6.7690   -5.6788   27.2047 C.ar      1 UNL1        0.0000
      8 C8          8.6974   -4.3238   26.6822 C.ar      1 UNL1        0.0000
      9 C9          5.6873    0.4864   20.1741 C.ar      1 UNL1        0.0000
     10 C10         5.7611    0.9749   17.8476 C.ar      1 UNL1        0.0000
     11 C11         6.9991   -0.7855   18.6517 C.ar      1 UNL1        0.0000
     12 C12         6.3592   -5.6457   25.8618 C.ar      1 UNL1        0.0000
     13 C13         7.1387   -4.9360   24.9176 C.ar      1 UNL1        0.0000
     14 C14         6.5677   -0.5662   19.9500 C.ar      1 UNL1        0.0000
     15 C15         8.3051   -4.2803   25.3440 C.ar      1 UNL1        0.0000
     16 C16         8.0441    1.5850   22.2732 C.2       1 UNL1        0.0000
     17 C17         7.4568   -0.1331   23.9429 C.3       1 UNL1        0.0000
     18 C18         8.2955   -1.1909   24.6399 C.3       1 UNL1        0.0000
     19 C19         9.1269   -1.9741   22.4322 C.3       1 UNL1        0.0000
     20 C20         8.3132   -0.8879   21.7209 C.3       1 UNL1        0.0000
     21 C21         7.0350   -1.4382   21.0804 C.3       1 UNL1        0.0000
     22 C22         9.1769   -3.5105   24.3962 C.3       1 UNL1        0.0000
     23 C23         7.5004    2.5721   23.2761 C.3       1 UNL1        0.0000
     24 N1          6.6172   -0.0394   17.5910 N.ar      1 UNL1        0.0000
     25 N2          8.0036    0.2343   22.6332 N.am      1 UNL1        0.0000
     26 N3          8.4562   -2.3764   23.7221 N.4       1 UNL1        0.0000
     27 O1          8.4830    2.0019   21.1979 O.2       1 UNL1        0.0000
     28 Cl1         8.8418    3.0127   24.3266 Cl        1 UNL1        0.0000
@<TRIPOS>BOND
     1    1    2 ar
     2    1    5 ar
     3    2    6 ar
     4    3    7 ar
     5    3    8 ar
     6    4    9 ar
     7    4   10 ar
     8    5   12 ar
     9    6   13 ar
    10    7   12 ar
    11    8   15 ar
    12    9   14 ar
    13   10   24 ar
    14   11   14 ar
    15   11   24 ar
    16   12   13 ar
    17   13   15 ar
    18   14   21 1
    19   15   22 1
    20   16   23 1
    21   16   25 am
    22   16   27 2
    23   17   18 1
    24   17   25 1
    25   18   26 1
    26   19   20 1
    27   19   26 1
    28   20   21 1
    29   20   25 1
    30   22   26 1
    31   23   28 1
@<TRIPOS>MOLECULE
DAR-DIA-fb2-14
   28    30     0     0     0
SMALL
NO_CHARGES

@<TRIPOS>ATOM
      1 C1         12.5592    1.0271   23.0149 C.ar      1 UNL1        0.0000
      2 C2         11.4458   -1.0396   22.3933 C.ar      1 UNL1        0.0000
      3 C3          9.6398    2.5875   24.5651 C.2       1 UNL1        0.0000
      4 C4         11.3550    1.4973   23.5754 C.ar      1 UNL1        0.0000
      5 C5         10.2401   -0.5944   22.9430 C.ar      1 UNL1        0.0000
      6 C6         10.9705    2.6990   24.2335 C.2       1 UNL1        0.0000
      7 C7         10.2255    0.6774   23.5266 C.ar      1 UNL1        0.0000
      8 C8         12.5886   -0.2430   22.4276 C.ar      1 UNL1        0.0000
      9 C9          7.5064   -5.4067   26.4855 C.2       1 UNL1        0.0000
     10 C10        10.0504    6.1286   23.4512 C.2       1 UNL1        0.0000
     11 C11         9.2969   -3.7976   25.9145 C.3       1 UNL1        0.0000
     12 C12         6.9581   -3.0539   25.6910 C.3       1 UNL1        0.0000
     13 C13         9.6191   -3.2704   24.5240 C.3       1 UNL1        0.0000
     14 C14         7.2457   -2.5134   24.2967 C.3       1 UNL1        0.0000
     15 C15         8.8593    6.5912   22.6795 C.3       1 UNL1        0.0000
     16 C16        13.7200   -2.0050   21.3001 C.3       1 UNL1        0.0000
     17 C17        11.8356    3.8622   24.5160 C.3       1 UNL1        0.0000
     18 C18         9.0290   -1.4782   22.8883 C.3       1 UNL1        0.0000
     19 C19         6.1950   -5.4980   27.2241 C.3       1 UNL1        0.0000
     20 C20        12.1135    4.7502   23.2894 C.3       1 UNL1        0.0000
     21 N1          9.1994    1.3647   24.1348 N.pl3     1 UNL1        0.0000
     22 N2          7.8800   -4.1430   26.0306 N.am      1 UNL1        0.0000
     23 N3         10.9068    5.3056   22.7377 N.am      1 UNL1        0.0000
     24 N4          8.7008   -2.1099   24.2118 N.4       1 UNL1        0.0000
     25 O1          8.1758   -6.4292   26.3168 O.2       1 UNL1        0.0000
     26 O2         10.1939    6.4881   24.6139 O.2       1 UNL1        0.0000
     27 O3         13.7502   -0.7045   21.8841 O.3       1 UNL1        0.0000
     28 Cl1         4.9519   -5.7803   26.0105 Cl        1 UNL1        0.0000
@<TRIPOS>BOND
     1    1    4 ar
     2    1    8 ar
     3    2    5 ar
     4    2    8 ar
     5    3    6 2
     6    3   21 1
     7    4    6 1
     8    4    7 ar
     9    5    7 ar
    10    5   18 1
    11    6   17 1
    12    7   21 1
    13    8   27 1
    14    9   19 1
    15    9   22 am
    16    9   25 2
    17   10   15 1
    18   10   23 am
    19   10   26 2
    20   11   13 1
    21   11   22 1
    22   12   14 1
    23   12   22 1
    24   13   24 1
    25   14   24 1
    26   16   27 1
    27   17   20 1
    28   18   24 1
    29   19   28 1
    30   20   23 1
@<TRIPOS>MOLECULE
MIH-UNI-e57-9
   24    26     0     0     0
SMALL
NO_CHARGES

@<TRIPOS>ATOM
      1 C1          8.2488   -4.6847   25.1137 C.ar      1 UNL1        0.0000
      2 C2          9.2744   -4.0413   25.8003 C.ar      1 UNL1        0.0000
      3 C3         12.3835   -1.7418   21.7240 C.ar      1 UNL1        0.0000
      4 C4         13.2476   -0.6548   21.8552 C.ar      1 UNL1        0.0000
      5 C5          7.6168   -4.0467   24.0467 C.ar      1 UNL1        0.0000
      6 C6          9.6670   -2.7580   25.4230 C.ar      1 UNL1        0.0000
      7 C7         11.1671   -1.7522   22.4066 C.ar      1 UNL1        0.0000
      8 C8         12.8954    0.4219   22.6691 C.ar      1 UNL1        0.0000
      9 C9          8.0056   -2.7576   23.6520 C.ar      1 UNL1        0.0000
     10 C10         9.0361   -2.1038   24.3525 C.ar      1 UNL1        0.0000
     11 C11        10.8148   -0.6755   23.2204 C.ar      1 UNL1        0.0000
     12 C12        11.6790    0.4115   23.3517 C.ar      1 UNL1        0.0000
     13 C13         7.7896   -0.2977   20.7865 C.2       1 UNL1        0.0000
     14 C14        11.2862    2.9005   23.4762 C.2       1 UNL1        0.0000
     15 C15         7.2948   -2.1080   22.4892 C.3       1 UNL1        0.0000
     16 C16         8.3818    0.0192   23.1643 C.3       1 UNL1        0.0000
     17 C17         9.4808   -0.7085   23.9551 C.3       1 UNL1        0.0000
     18 C18        11.3239    1.5753   24.2179 C.3       1 UNL1        0.0000
     19 C19         6.5979   -0.7128   19.9598 C.3       1 UNL1        0.0000
     20 N1          7.8556   -0.8128   22.0831 N.am      1 UNL1        0.0000
     21 N2         10.8702    2.7657   22.1684 N.am      1 UNL1        0.0000
     22 O1          8.6360    0.4519   20.2937 O.2       1 UNL1        0.0000
     23 O2         11.5951    3.9751   23.9833 O.2       1 UNL1        0.0000
     24 Cl1         5.7209    0.7613   19.5663 Cl        1 UNL1        0.0000
@<TRIPOS>BOND
     1    1    2 ar
     2    1    5 ar
     3    2    6 ar
     4    3    4 ar
     5    3    7 ar
     6    4    8 ar
     7    5    9 ar
     8    6   10 ar
     9    7   11 ar
    10    8   12 ar
    11    9   10 ar
    12    9   15 1
    13   10   17 1
    14   11   12 ar
    15   11   17 1
    16   12   18 1
    17   13   19 1
    18   13   20 am
    19   13   22 2
    20   14   18 1
    21   14   21 am
    22   14   23 2
    23   15   20 1
    24   16   17 1
    25   16   20 1
    26   19   24 1
@<TRIPOS>MOLECULE
NIR-THE-c33-5
   24    26     0     0     0
SMALL
NO_CHARGES

@<TRIPOS>ATOM
      1 C1          8.2488   -4.6847   25.1137 C.ar      1 UNL1        0.0000
      2 C2          9.2744   -4.0413   25.8003 C.ar      1 UNL1        0.0000
      3 C3         12.3835   -1.7418   21.7240 C.ar      1 UNL1        0.0000
      4 C4         13.2476   -0.6548   21.8552 C.ar      1 UNL1        0.0000
      5 C5          7.6168   -4.0467   24.0467 C.ar      1 UNL1        0.0000
      6 C6          9.6670   -2.7580   25.4230 C.ar      1 UNL1        0.0000
      7 C7         11.1671   -1.7522   22.4066 C.ar      1 UNL1        0.0000
      8 C8         12.8954    0.4219   22.6691 C.ar      1 UNL1        0.0000
      9 C9          8.0056   -2.7576   23.6520 C.ar      1 UNL1        0.0000
     10 C10         9.0361   -2.1038   24.3525 C.ar      1 UNL1        0.0000
     11 C11        10.8148   -0.6755   23.2204 C.ar      1 UNL1        0.0000
     12 C12        11.6790    0.4115   23.3517 C.ar      1 UNL1        0.0000
     13 C13         7.7896   -0.2977   20.7865 C.2       1 UNL1        0.0000
     14 C14        11.2862    2.9005   23.4762 C.2       1 UNL1        0.0000
     15 C15         7.2948   -2.1080   22.4892 C.3       1 UNL1        0.0000
     16 C16         8.3818    0.0192   23.1643 C.3       1 UNL1        0.0000
     17 C17         9.4808   -0.7085   23.9551 C.3       1 UNL1        0.0000
     18 C18        11.3239    1.5753   24.2179 C.3       1 UNL1        0.0000
     19 C19         6.5979   -0.7128   19.9598 C.3       1 UNL1        0.0000
     20 N1          7.8556   -0.8128   22.0831 N.am      1 UNL1        0.0000
     21 N2         10.8702    2.7657   22.1684 N.am      1 UNL1        0.0000
     22 O1          8.6360    0.4519   20.2937 O.2       1 UNL1        0.0000
     23 O2         11.5951    3.9751   23.9833 O.2       1 UNL1        0.0000
     24 Cl1         5.7209    0.7613   19.5663 Cl        1 UNL1        0.0000
@<TRIPOS>BOND
     1    1    2 ar
     2    1    5 ar
     3    2    6 ar
     4    3    4 ar
     5    3    7 ar
     6    4    8 ar
     7    5    9 ar
     8    6   10 ar
     9    7   11 ar
    10    8   12 ar
    11    9   10 ar
    12    9   15 1
    13   10   17 1
    14   11   12 ar
    15   11   17 1
    16   12   18 1
    17   13   19 1
    18   13   20 am
    19   13   22 2
    20   14   18 1
    21   14   21 am
    22   14   23 2
    23   15   20 1
    24   16   17 1
    25   16   20 1
    26   19   24 1
@<TRIPOS>MOLECULE
MIH-UNI-e57-2
   27    30     0     0     0
SMALL
NO_CHARGES

@<TRIPOS>ATOM
      1 C1          4.5832   -6.3478   25.4950 C.ar      1 UNL1        0.0000
      2 C2          4.5082   -5.5734   24.3411 C.ar      1 UNL1        0.0000
      3 C3          8.7759   -4.1806   26.6768 C.ar      1 UNL1        0.0000
      4 C4          5.0114    1.6297   18.9039 C.ar      1 UNL1        0.0000
      5 C5          5.6616   -6.1986   26.3675 C.ar      1 UNL1        0.0000
      6 C6          5.5112   -4.6468   24.0553 C.ar      1 UNL1        0.0000
      7 C7          7.7729   -5.1072   26.9627 C.ar      1 UNL1        0.0000
      8 C8          5.4400    1.0660   20.1005 C.ar      1 UNL1        0.0000
      9 C9          8.7009   -3.4063   25.5229 C.ar      1 UNL1        0.0000
     10 C10         5.7404    1.3528   17.7587 C.ar      1 UNL1        0.0000
     11 C11         7.2278    0.0385   18.9156 C.ar      1 UNL1        0.0000
     12 C12         6.6802   -5.2707   26.0957 C.ar      1 UNL1        0.0000
     13 C13         6.6039   -4.4833   24.9222 C.ar      1 UNL1        0.0000
     14 C14         6.5686    0.2540   20.1151 C.ar      1 UNL1        0.0000
     15 C15         7.6225   -3.5555   24.6503 C.ar      1 UNL1        0.0000
     16 C16         8.6209    1.3553   22.2505 C.2       1 UNL1        0.0000
     17 C17         6.5691    0.7059   23.5977 C.3       1 UNL1        0.0000
     18 C18         6.4621   -0.6323   24.3200 C.3       1 UNL1        0.0000
     19 C19         6.0377   -1.3875   21.9413 C.3       1 UNL1        0.0000
     20 C20         7.0625   -0.3778   21.4073 C.3       1 UNL1        0.0000
     21 C21         7.6038   -2.6895   23.4253 C.3       1 UNL1        0.0000
     22 C22         9.0013    2.3016   23.3604 C.3       1 UNL1        0.0000
     23 N1          6.8415    0.5689   17.7336 N.ar      1 UNL1        0.0000
     24 N2          7.4442    0.6212   22.4251 N.am      1 UNL1        0.0000
     25 N3          6.3928   -1.7966   23.3521 N.4       1 UNL1        0.0000
     26 O1          9.3445    1.2695   21.2547 O.2       1 UNL1        0.0000
     27 Cl1         9.9770    1.3780   24.4974 Cl        1 UNL1        0.0000
@<TRIPOS>BOND
     1    1    2 ar
     2    1    5 ar
     3    2    6 ar
     4    3    7 ar
     5    3    9 ar
     6    4    8 ar
     7    4   10 ar
     8    5   12 ar
     9    6   13 ar
    10    7   12 ar
    11    8   14 ar
    12    9   15 ar
    13   10   23 ar
    14   11   14 ar
    15   11   23 ar
    16   12   13 ar
    17   13   15 ar
    18   14   20 1
    19   15   21 1
    20   16   22 1
    21   16   24 am
    22   16   26 2
    23   17   18 1
    24   17   24 1
    25   18   25 1
    26   19   20 1
    27   19   25 1
    28   20   24 1
    29   21   25 1
    30   22   27 1
@<TRIPOS>MOLECULE
PAU-WEI-b9b-2
   30    32     0     0     0
SMALL
NO_CHARGES

@<TRIPOS>ATOM
      1 C1          7.9646    1.7848   21.9774 C.ar      1 UNL1        0.0000
      2 C2          9.1786    2.4658   22.0674 C.ar      1 UNL1        0.0000
      3 C3         11.5553    0.1451   24.5187 C.ar      1 UNL1        0.0000
      4 C4         12.0049   -0.6058   22.2668 C.ar      1 UNL1        0.0000
      5 C5         10.7747   -0.9893   24.7411 C.ar      1 UNL1        0.0000
      6 C6         11.2242   -1.7402   22.4892 C.ar      1 UNL1        0.0000
      7 C7          7.3956    1.2197   23.1188 C.ar      1 UNL1        0.0000
      8 C8          9.2549    2.0164   24.4400 C.ar      1 UNL1        0.0000
      9 C9         12.1704    0.3368   23.2815 C.ar      1 UNL1        0.0000
     10 C10        10.6092   -1.9319   23.7264 C.ar      1 UNL1        0.0000
     11 C11         9.8237    2.5815   23.2986 C.ar      1 UNL1        0.0000
     12 C12         8.0408    1.3355   24.3500 C.ar      1 UNL1        0.0000
     13 C13        10.7832    7.5242   26.2589 C.2       1 UNL1        0.0000
     14 C14        12.1197    5.8636   25.0051 C.3       1 UNL1        0.0000
     15 C15         9.6681    5.5802   25.0584 C.3       1 UNL1        0.0000
     16 C16        12.1319    5.6409   23.4999 C.3       1 UNL1        0.0000
     17 C17         9.6471    5.3508   23.5530 C.3       1 UNL1        0.0000
     18 C18        13.0143    1.5626   23.0403 C.3       1 UNL1        0.0000
     19 C19         9.4156    8.0023   26.6771 C.3       1 UNL1        0.0000
     20 C20        12.2652    2.7853   22.4825 C.3       1 UNL1        0.0000
     21 C21        11.1406    3.3189   23.3951 C.3       1 UNL1        0.0000
     22 C22         9.7757   -3.1454   23.9656 C.3       1 UNL1        0.0000
     23 N1         10.8286    6.3860   25.4539 N.am      1 UNL1        0.0000
     24 N2         10.9636    4.7792   23.0809 N.4       1 UNL1        0.0000
     25 O1         11.7799    8.1463   26.6353 O.2       1 UNL1        0.0000
     26 F1          9.2380   -3.2017   25.2200 F         1 UNL1        0.0000
     27 F2          8.7111   -3.2534   23.1168 F         1 UNL1        0.0000
     28 F3         10.4811   -4.3044   23.8175 F         1 UNL1        0.0000
     29 Cl1         7.3389    0.6371   25.7577 Cl        1 UNL1        0.0000
     30 Cl2         9.0250    7.1641   28.1747 Cl        1 UNL1        0.0000
@<TRIPOS>BOND
     1    1    2 ar
     2    1    7 ar
     3    2   11 ar
     4    3    5 ar
     5    3    9 ar
     6    4    6 ar
     7    4    9 ar
     8    5   10 ar
     9    6   10 ar
    10    7   12 ar
    11    8   11 ar
    12    8   12 ar
    13    9   18 1
    14   10   22 1
    15   11   21 1
    16   12   29 1
    17   13   19 1
    18   13   23 am
    19   13   25 2
    20   14   16 1
    21   14   23 1
    22   15   17 1
    23   15   23 1
    24   16   24 1
    25   17   24 1
    26   18   20 1
    27   19   30 1
    28   20   21 1
    29   21   24 1
    30   22   26 1
    31   22   27 1
    32   22   28 1
@<TRIPOS>MOLECULE
NIM-UNI-7ba-4
   24    26     0     0     0
SMALL
NO_CHARGES

@<TRIPOS>ATOM
      1 C1          5.9043    1.2015   19.0573 C.ar      1 UNL1        0.0000
      2 C2          6.4493    0.6386   20.2059 C.ar      1 UNL1        0.0000
      3 C3         12.6471   -0.8088   22.0852 C.2       1 UNL1        0.0000
      4 C4          6.4682    0.8617   17.8381 C.ar      1 UNL1        0.0000
      5 C5          8.0174   -0.5104   18.8358 C.ar      1 UNL1        0.0000
      6 C6         13.8938   -1.3947   22.0897 C.2       1 UNL1        0.0000
      7 C7         12.9947   -1.1187   24.3624 C.2       1 UNL1        0.0000
      8 C8          7.5263   -0.2347   20.1017 C.ar      1 UNL1        0.0000
      9 C9         12.1262   -0.6487   23.4018 C.2       1 UNL1        0.0000
     10 C10         9.1295   -0.2455   21.9420 C.2       1 UNL1        0.0000
     11 C11         8.1240   -0.8447   21.2950 C.2       1 UNL1        0.0000
     12 C12         7.6567   -2.1425   21.8835 C.2       1 UNL1        0.0000
     13 C13         9.2351   -1.9894   23.6154 C.2       1 UNL1        0.0000
     14 C14         6.5252   -4.2269   21.3272 C.2       1 UNL1        0.0000
     15 C15        10.7875   -0.0401   23.7042 C.3       1 UNL1        0.0000
     16 C16         7.6442   -4.8764   22.1026 C.3       1 UNL1        0.0000
     17 N1          7.5145    0.0173   17.6972 N.ar      1 UNL1        0.0000
     18 N2          8.2008   -2.6367   22.9668 N.2       1 UNL1        0.0000
     19 N3          9.6971   -0.7791   23.0762 N.am      1 UNL1        0.0000
     20 N4          6.6392   -2.8461   21.2763 N.am      1 UNL1        0.0000
     21 O1          9.7275   -2.4752   24.6353 O.2       1 UNL1        0.0000
     22 O2          5.6351   -4.8932   20.8007 O.2       1 UNL1        0.0000
     23 S1         14.4313   -1.7494   23.6764 S.3       1 UNL1        0.0000
     24 Cl1         7.3527   -6.6228   22.1209 Cl        1 UNL1        0.0000
@<TRIPOS>BOND
     1    1    2 ar
     2    1    4 ar
     3    2    8 ar
     4    3    6 2
     5    3    9 1
     6    4   17 ar
     7    5    8 ar
     8    5   17 ar
     9    6   23 1
    10    7    9 2
    11    7   23 1
    12    8   11 1
    13    9   15 1
    14   10   11 2
    15   10   19 1
    16   11   12 1
    17   12   18 2
    18   12   20 1
    19   13   18 1
    20   13   19 am
    21   13   21 2
    22   14   16 1
    23   14   20 am
    24   14   22 2
    25   15   19 1
    26   16   24 1
@<TRIPOS>MOLECULE
MAK-UNK-b2c-6
   28    30     0     0     0
SMALL
NO_CHARGES

@<TRIPOS>ATOM
      1 C1          6.4234   -5.3214   26.7579 C.ar      1 UNL1        0.0000
      2 C2          6.4399   -5.8203   25.4555 C.ar      1 UNL1        0.0000
      3 C3          6.4915   -3.9458   26.9788 C.ar      1 UNL1        0.0000
      4 C4          5.5131    0.7735   19.3514 C.ar      1 UNL1        0.0000
      5 C5          6.5246   -4.9436   24.3738 C.ar      1 UNL1        0.0000
      6 C6          6.5762   -3.0691   25.8971 C.ar      1 UNL1        0.0000
      7 C7          6.4141    0.7647   20.4104 C.ar      1 UNL1        0.0000
      8 C8          5.9836    0.4214   18.0966 C.ar      1 UNL1        0.0000
      9 C9          8.1101    0.0730   18.8933 C.ar      1 UNL1        0.0000
     10 C10         6.5928   -3.5680   24.5947 C.ar      1 UNL1        0.0000
     11 C11         7.7394    0.4090   20.1854 C.ar      1 UNL1        0.0000
     12 C12        10.0297    0.0595   21.1724 C.2       1 UNL1        0.0000
     13 C13        14.1527   -0.7687   23.5623 C.3       1 UNL1        0.0000
     14 C14        13.6247   -0.8629   22.1345 C.3       1 UNL1        0.0000
     15 C15        13.0990   -0.2297   24.5242 C.3       1 UNL1        0.0000
     16 C16        12.3317   -1.6741   22.0636 C.3       1 UNL1        0.0000
     17 C17        11.8057   -1.0405   24.4559 C.3       1 UNL1        0.0000
     18 C18        11.2417   -1.1633   23.0266 C.3       1 UNL1        0.0000
     19 C19         6.6847   -2.6191   23.4250 C.3       1 UNL1        0.0000
     20 C20        10.6598    0.1748   22.5442 C.3       1 UNL1        0.0000
     21 C21         7.4484   -1.3390   23.7552 C.3       1 UNL1        0.0000
     22 N1          7.2634    0.0702   17.8393 N.ar      1 UNL1        0.0000
     23 N2          8.6796    0.3909   21.2429 N.am      1 UNL1        0.0000
     24 N3          8.8446   -1.5992   24.1497 N.pl3     1 UNL1        0.0000
     25 O1         10.6631   -0.2803   20.1785 O.2       1 UNL1        0.0000
     26 O2          9.3170   -2.3735   21.7265 O.2       1 UNL1        0.0000
     27 O3         10.4241   -3.5613   23.6553 O.2       1 UNL1        0.0000
     28 S1          9.8985   -2.3602   23.0483 S.o2      1 UNL1        0.0000
@<TRIPOS>BOND
     1    1    2 ar
     2    1    3 ar
     3    2    5 ar
     4    3    6 ar
     5    4    7 ar
     6    4    8 ar
     7    5   10 ar
     8    6   10 ar
     9    7   11 ar
    10    8   22 ar
    11    9   11 ar
    12    9   22 ar
    13   10   19 1
    14   11   23 1
    15   12   20 1
    16   12   23 am
    17   12   25 2
    18   13   14 1
    19   13   15 1
    20   14   16 1
    21   15   17 1
    22   16   18 1
    23   17   18 1
    24   18   20 1
    25   18   28 1
    26   19   21 1
    27   21   24 1
    28   24   28 1
    29   26   28 2
    30   27   28 2
@<TRIPOS>MOLECULE
MAK-UNK-b2c-5
   28    30     0     0     0
SMALL
NO_CHARGES

@<TRIPOS>ATOM
      1 C1          6.8180    6.6038   23.3548 C.ar      1 UNL1        0.0000
      2 C2          6.6865    5.3692   22.7192 C.ar      1 UNL1        0.0000
      3 C3          8.0864    7.1205   23.6194 C.ar      1 UNL1        0.0000
      4 C4          5.8965    0.0933   19.7622 C.ar      1 UNL1        0.0000
      5 C5          7.8234    4.6512   22.3482 C.ar      1 UNL1        0.0000
      6 C6          9.2232    6.4025   23.2483 C.ar      1 UNL1        0.0000
      7 C7          6.8389    0.0063   20.7807 C.ar      1 UNL1        0.0000
      8 C8          6.3555    0.2753   18.4676 C.ar      1 UNL1        0.0000
      9 C9          8.5489    0.2841   19.1512 C.ar      1 UNL1        0.0000
     10 C10         9.0918    5.1679   22.6127 C.ar      1 UNL1        0.0000
     11 C11         8.1926    0.1027   20.4779 C.ar      1 UNL1        0.0000
     12 C12        10.4258    0.6294   21.5174 C.2       1 UNL1        0.0000
     13 C13        14.2926   -1.8492   22.9863 C.3       1 UNL1        0.0000
     14 C14        13.6188   -1.4383   21.6808 C.3       1 UNL1        0.0000
     15 C15        13.5766   -1.2698   24.2024 C.3       1 UNL1        0.0000
     16 C16        12.1318   -1.7884   21.6788 C.3       1 UNL1        0.0000
     17 C17        12.0896   -1.6202   24.2013 C.3       1 UNL1        0.0000
     18 C18        11.3801   -1.2303   22.8962 C.3       1 UNL1        0.0000
     19 C19        10.3221    4.3916   22.2118 C.3       1 UNL1        0.0000
     20 C20        10.8089    3.4417   23.3035 C.3       1 UNL1        0.0000
     21 C21        11.1812    0.2844   22.7917 C.3       1 UNL1        0.0000
     22 N1          7.6621    0.3733   18.1347 N.ar      1 UNL1        0.0000
     23 N2          9.1752    0.0182   21.4930 N.am      1 UNL1        0.0000
     24 N3          9.8060    2.4193   23.6521 N.pl3     1 UNL1        0.0000
     25 O1         10.9052    1.3676   20.6620 O.2       1 UNL1        0.0000
     26 O2          9.1856    0.0436   24.4680 O.2       1 UNL1        0.0000
     27 O3         11.3251    1.1169   25.2599 O.2       1 UNL1        0.0000
     28 S1         10.3353    0.8963   24.2188 S.o2      1 UNL1        0.0000
@<TRIPOS>BOND
     1    1    2 ar
     2    1    3 ar
     3    2    5 ar
     4    3    6 ar
     5    4    7 ar
     6    4    8 ar
     7    5   10 ar
     8    6   10 ar
     9    7   11 ar
    10    8   22 ar
    11    9   11 ar
    12    9   22 ar
    13   10   19 1
    14   11   23 1
    15   12   21 1
    16   12   23 am
    17   12   25 2
    18   13   14 1
    19   13   15 1
    20   14   16 1
    21   15   17 1
    22   16   18 1
    23   17   18 1
    24   18   21 1
    25   19   20 1
    26   20   24 1
    27   21   28 1
    28   24   28 1
    29   26   28 2
    30   27   28 2
@<TRIPOS>MOLECULE
DAR-DIA-cab-8
   25    28     0     0     0
SMALL
NO_CHARGES

@<TRIPOS>ATOM
      1 C1         13.6250    0.3350   22.5650 C.ar      1 UNL1        0.0000
      2 C2         12.9908   -0.6414   21.8026 C.ar      1 UNL1        0.0000
      3 C3          7.9878   -5.5733   25.0619 C.ar      1 UNL1        0.0000
      4 C4          9.2364   -4.9804   25.2159 C.ar      1 UNL1        0.0000
      5 C5         12.9768    0.8897   23.6689 C.ar      1 UNL1        0.0000
      6 C6         11.7060   -1.0670   22.1412 C.ar      1 UNL1        0.0000
      7 C7          7.0645   -5.0262   24.1735 C.ar      1 UNL1        0.0000
      8 C8          9.5574   -3.8303   24.4941 C.ar      1 UNL1        0.0000
      9 C9         11.0161    1.0207   25.1321 C.ar      1 UNL1        0.0000
     10 C10         9.0971   -0.3812   24.7083 C.ar      1 UNL1        0.0000
     11 C11        11.6835    0.4734   24.0243 C.ar      1 UNL1        0.0000
     12 C12        11.0386   -0.5196   23.2490 C.ar      1 UNL1        0.0000
     13 C13         7.3797   -3.8769   23.4318 C.ar      1 UNL1        0.0000
     14 C14         8.6271   -3.2447   23.6172 C.ar      1 UNL1        0.0000
     15 C15         9.7452   -0.9359   23.6044 C.ar      1 UNL1        0.0000
     16 C16         9.7313    0.5953   25.4707 C.ar      1 UNL1        0.0000
     17 C17         6.6526   -2.4877   20.1598 C.2       1 UNL1        0.0000
     18 C18         6.3543   -3.3328   22.4678 C.3       1 UNL1        0.0000
     19 C19         7.7684   -1.3526   22.1393 C.3       1 UNL1        0.0000
     20 C20         8.9942   -1.9993   22.8141 C.3       1 UNL1        0.0000
     21 C21         7.2937   -1.4631   19.2581 C.3       1 UNL1        0.0000
     22 N1          6.9310   -2.3805   21.5212 N.am      1 UNL1        0.0000
     23 O1          5.9288   -3.3570   19.6676 O.2       1 UNL1        0.0000
     24 Cl1         8.9306    1.2784   26.8321 Cl        1 UNL1        0.0000
     25 Cl2         6.1540   -0.1291   19.1227 Cl        1 UNL1        0.0000
@<TRIPOS>BOND
     1    1    2 ar
     2    1    5 ar
     3    2    6 ar
     4    3    4 ar
     5    3    7 ar
     6    4    8 ar
     7    5   11 ar
     8    6   12 ar
     9    7   13 ar
    10    8   14 ar
    11    9   11 ar
    12    9   16 ar
    13   10   15 ar
    14   10   16 ar
    15   11   12 ar
    16   12   15 ar
    17   13   14 ar
    18   13   18 1
    19   14   20 1
    20   15   20 1
    21   16   24 1
    22   17   21 1
    23   17   22 am
    24   17   23 2
    25   18   22 1
    26   19   20 1
    27   19   22 1
    28   21   25 1
@<TRIPOS>MOLECULE
DAR-DIA-cab-7
   25    28     0     0     0
SMALL
NO_CHARGES

@<TRIPOS>ATOM
      1 C1         13.9062    0.5070   22.6181 C.ar      1 UNL1        0.0000
      2 C2         13.2710   -0.4709   21.8586 C.ar      1 UNL1        0.0000
      3 C3          8.2755   -5.3987   25.1381 C.ar      1 UNL1        0.0000
      4 C4          9.5245   -4.8055   25.2878 C.ar      1 UNL1        0.0000
      5 C5         13.2600    1.0631   23.7225 C.ar      1 UNL1        0.0000
      6 C6         11.9870   -0.8965   22.2004 C.ar      1 UNL1        0.0000
      7 C7          7.3499   -4.8532   24.2510 C.ar      1 UNL1        0.0000
      8 C8          9.8437   -3.6567   24.5630 C.ar      1 UNL1        0.0000
      9 C9         11.3023    1.1956   25.1895 C.ar      1 UNL1        0.0000
     10 C10         9.3830   -0.2079   24.7718 C.ar      1 UNL1        0.0000
     11 C11        11.9676    0.6468   24.0812 C.ar      1 UNL1        0.0000
     12 C12        11.3216   -0.3477   23.3087 C.ar      1 UNL1        0.0000
     13 C13         7.6632   -3.7053   23.5064 C.ar      1 UNL1        0.0000
     14 C14         8.9111   -3.0728   23.6874 C.ar      1 UNL1        0.0000
     15 C15        10.0292   -0.7640   23.6674 C.ar      1 UNL1        0.0000
     16 C16        10.0183    0.7701   25.5314 C.ar      1 UNL1        0.0000
     17 C17         6.9277   -2.3222   20.2336 C.2       1 UNL1        0.0000
     18 C18         6.6353   -3.1630   22.5440 C.3       1 UNL1        0.0000
     19 C19         8.0486   -1.1834   22.2081 C.3       1 UNL1        0.0000
     20 C20         9.2761   -1.8288   22.8810 C.3       1 UNL1        0.0000
     21 C21         7.5665   -1.2993   19.3284 C.3       1 UNL1        0.0000
     22 N1          7.2096   -2.2125   21.5941 N.am      1 UNL1        0.0000
     23 O1          6.2026   -3.1925   19.7450 O.2       1 UNL1        0.0000
     24 F1          9.3975    1.3034   26.5918 F         1 UNL1        0.0000
     25 Cl1         6.4264    0.0345   19.1935 Cl        1 UNL1        0.0000
@<TRIPOS>BOND
     1    1    2 ar
     2    1    5 ar
     3    2    6 ar
     4    3    4 ar
     5    3    7 ar
     6    4    8 ar
     7    5   11 ar
     8    6   12 ar
     9    7   13 ar
    10    8   14 ar
    11    9   11 ar
    12    9   16 ar
    13   10   15 ar
    14   10   16 ar
    15   11   12 ar
    16   12   15 ar
    17   13   14 ar
    18   13   18 1
    19   14   20 1
    20   15   20 1
    21   16   24 1
    22   17   21 1
    23   17   22 am
    24   17   23 2
    25   18   22 1
    26   19   20 1
    27   19   22 1
    28   21   25 1
@<TRIPOS>MOLECULE
PAU-WEI-b9b-5
   31    33     0     0     0
SMALL
NO_CHARGES

@<TRIPOS>ATOM
      1 C1          7.6143    1.2042   20.4032 C.1       1 UNL1        0.0000
      2 C2          7.9102    1.2442   24.1135 C.ar      1 UNL1        0.0000
      3 C3          7.4131    1.0072   22.8320 C.ar      1 UNL1        0.0000
      4 C4          9.1186    1.9211   24.2788 C.ar      1 UNL1        0.0000
      5 C5         11.3562    0.0496   24.8213 C.ar      1 UNL1        0.0000
      6 C6         12.0556   -0.9312   22.7271 C.ar      1 UNL1        0.0000
      7 C7         10.5327   -1.0502   25.0614 C.ar      1 UNL1        0.0000
      8 C8         11.2321   -2.0311   22.9672 C.ar      1 UNL1        0.0000
      9 C9          9.3329    2.1238   21.8809 C.ar      1 UNL1        0.0000
     10 C10         8.1244    1.4470   21.7157 C.ar      1 UNL1        0.0000
     11 C11        12.1177    0.1092   23.6541 C.ar      1 UNL1        0.0000
     12 C12        10.4706   -2.0906   24.1344 C.ar      1 UNL1        0.0000
     13 C13         9.8299    2.3609   23.1624 C.ar      1 UNL1        0.0000
     14 C14        10.5269    7.5736   25.7033 C.2       1 UNL1        0.0000
     15 C15        11.9704    5.7836   24.7931 C.3       1 UNL1        0.0000
     16 C16         9.5247    5.5251   24.5794 C.3       1 UNL1        0.0000
     17 C17        12.1571    5.4079   23.3305 C.3       1 UNL1        0.0000
     18 C18         9.6784    5.1428   23.1133 C.3       1 UNL1        0.0000
     19 C19        13.0081    1.2976   23.3938 C.3       1 UNL1        0.0000
     20 C20         9.1288    8.1020   25.9035 C.3       1 UNL1        0.0000
     21 C21        12.3546    2.4622   22.6296 C.3       1 UNL1        0.0000
     22 C22        11.1401    3.0946   23.3418 C.3       1 UNL1        0.0000
     23 C23         9.5911   -3.2671   24.3927 C.3       1 UNL1        0.0000
     24 N1          7.1999    1.0070   19.3372 N.1       1 UNL1        0.0000
     25 N2         10.6455    6.3587   25.0284 N.am      1 UNL1        0.0000
     26 N3         11.0302    4.5163   22.8630 N.4       1 UNL1        0.0000
     27 O1         11.4837    8.2237   26.1321 O.2       1 UNL1        0.0000
     28 F1          8.9070   -3.1907   25.5726 F         1 UNL1        0.0000
     29 F2          8.6330   -3.4537   23.4372 F         1 UNL1        0.0000
     30 F3         10.2863   -4.4404   24.4481 F         1 UNL1        0.0000
     31 Cl1         8.5467    7.4245   27.4201 Cl        1 UNL1        0.0000
@<TRIPOS>BOND
     1    1   10 1
     2    1   24 3
     3    2    3 ar
     4    2    4 ar
     5    3   10 ar
     6    4   13 ar
     7    5    7 ar
     8    5   11 ar
     9    6    8 ar
    10    6   11 ar
    11    7   12 ar
    12    8   12 ar
    13    9   10 ar
    14    9   13 ar
    15   11   19 1
    16   12   23 1
    17   13   22 1
    18   14   20 1
    19   14   25 am
    20   14   27 2
    21   15   17 1
    22   15   25 1
    23   16   18 1
    24   16   25 1
    25   17   26 1
    26   18   26 1
    27   19   21 1
    28   20   31 1
    29   21   22 1
    30   22   26 1
    31   23   28 1
    32   23   29 1
    33   23   30 1
@<TRIPOS>MOLECULE
DAR-DIA-fb2-6
   23    25     0     0     0
SMALL
NO_CHARGES

@<TRIPOS>ATOM
      1 C1          9.1153    0.5038   27.4151 C.1       1 UNL1        0.0000
      2 C2         13.0701    0.4711   22.7119 C.ar      1 UNL1        0.0000
      3 C3         12.5109   -0.6104   22.0379 C.ar      1 UNL1        0.0000
      4 C4         12.5114    0.9108   23.9124 C.ar      1 UNL1        0.0000
      5 C5         11.3908   -1.2565   22.5617 C.ar      1 UNL1        0.0000
      6 C6         10.8086    0.7014   25.6614 C.ar      1 UNL1        0.0000
      7 C7          9.1292   -1.0262   25.5112 C.ar      1 UNL1        0.0000
      8 C8          9.6885    0.0554   26.1852 C.ar      1 UNL1        0.0000
      9 C9         11.3840    0.2724   24.4543 C.ar      1 UNL1        0.0000
     10 C10        10.8153   -0.8275   23.7688 C.ar      1 UNL1        0.0000
     11 C11         9.6878   -1.4658   24.3107 C.ar      1 UNL1        0.0000
     12 C12         6.6559   -1.4159   19.2937 C.2       1 UNL1        0.0000
     13 C13         7.5374   -3.0919   20.8843 C.3       1 UNL1        0.0000
     14 C14         7.8152   -0.7031   21.4412 C.3       1 UNL1        0.0000
     15 C15         7.0313   -3.3804   22.2900 C.3       1 UNL1        0.0000
     16 C16         7.3150   -0.9597   22.8566 C.3       1 UNL1        0.0000
     17 C17         9.0365   -2.6370   23.6360 C.3       1 UNL1        0.0000
     18 C18         7.0191   -0.1096   18.6338 C.3       1 UNL1        0.0000
     19 N1          8.6498    0.8680   28.4139 N.1       1 UNL1        0.0000
     20 N2          7.2863   -1.7011   20.5048 N.am      1 UNL1        0.0000
     21 N3          7.5987   -2.3838   23.2738 N.4       1 UNL1        0.0000
     22 O1          5.8346   -2.1580   18.7489 O.2       1 UNL1        0.0000
     23 Cl1         5.8674    1.0868   19.2173 Cl        1 UNL1        0.0000
@<TRIPOS>BOND
     1    1    8 1
     2    1   19 3
     3    2    3 ar
     4    2    4 ar
     5    3    5 ar
     6    4    9 ar
     7    5   10 ar
     8    6    8 ar
     9    6    9 ar
    10    7    8 ar
    11    7   11 ar
    12    9   10 ar
    13   10   11 ar
    14   11   17 1
    15   12   18 1
    16   12   20 am
    17   12   22 2
    18   13   15 1
    19   13   20 1
    20   14   16 1
    21   14   20 1
    22   15   21 1
    23   16   21 1
    24   17   21 1
    25   18   23 1
@<TRIPOS>MOLECULE
MIH-UNI-e57-12
   28    31     0     0     0
SMALL
NO_CHARGES

@<TRIPOS>ATOM
      1 C1         14.5468   -1.2274   23.6417 C.ar      1 UNL1        0.0000
      2 C2         13.7266   -2.1669   23.0272 C.ar      1 UNL1        0.0000
      3 C3          8.2888   -3.8223   22.7934 C.ar      1 UNL1        0.0000
      4 C4          7.1231   -5.4240   24.2350 C.ar      1 UNL1        0.0000
      5 C5         13.9853   -0.0958   24.2289 C.ar      1 UNL1        0.0000
      6 C6         12.3433   -1.9844   23.0145 C.ar      1 UNL1        0.0000
      7 C7          9.0485   -2.6616   22.6448 C.ar      1 UNL1        0.0000
      8 C8          6.7337   -5.8425   25.5076 C.ar      1 UNL1        0.0000
      9 C9          9.0280   -2.3405   25.0373 C.ar      1 UNL1        0.0000
     10 C10         7.8624   -3.9423   26.4790 C.ar      1 UNL1        0.0000
     11 C11         7.8880   -4.2583   24.0668 C.ar      1 UNL1        0.0000
     12 C12         8.2632   -3.5063   25.2055 C.ar      1 UNL1        0.0000
     13 C13         9.4174   -1.9222   23.7646 C.ar      1 UNL1        0.0000
     14 C14        12.5954    0.1054   24.2143 C.ar      1 UNL1        0.0000
     15 C15        11.7557   -0.8666   23.6331 C.ar      1 UNL1        0.0000
     16 C16         7.1027   -5.1030   26.6275 C.ar      1 UNL1        0.0000
     17 C17        10.0250    2.8257   24.3628 C.2       1 UNL1        0.0000
     18 C18        12.0471    1.3677   24.8363 C.3       1 UNL1        0.0000
     19 C19         9.7952    0.3814   24.6440 C.3       1 UNL1        0.0000
     20 C20        10.2457   -0.6555   23.5998 C.3       1 UNL1        0.0000
     21 C21        10.9350    4.0271   24.4245 C.3       1 UNL1        0.0000
     22 N1         10.6224    1.5815   24.5668 N.am      1 UNL1        0.0000
     23 N2          5.7399   -7.0462   27.8407 N.pl3     1 UNL1        0.0000
     24 O1          8.8234    2.9893   24.1369 O.2       1 UNL1        0.0000
     25 O2          7.8083   -5.9982   28.9671 O.2       1 UNL1        0.0000
     26 O3          5.6933   -4.6436   28.7692 O.2       1 UNL1        0.0000
     27 S1          6.6147   -5.6282   28.2195 S.o2      1 UNL1        0.0000
     28 Cl1        11.5547    4.2725   22.7959 Cl        1 UNL1        0.0000
@<TRIPOS>BOND
     1    1    2 ar
     2    1    5 ar
     3    2    6 ar
     4    3    7 ar
     5    3   11 ar
     6    4    8 ar
     7    4   11 ar
     8    5   14 ar
     9    6   15 ar
    10    7   13 ar
    11    8   16 ar
    12    9   12 ar
    13    9   13 ar
    14   10   12 ar
    15   10   16 ar
    16   11   12 ar
    17   13   20 1
    18   14   15 ar
    19   14   18 1
    20   15   20 1
    21   16   27 1
    22   17   21 1
    23   17   22 am
    24   17   24 2
    25   18   22 1
    26   19   20 1
    27   19   22 1
    28   21   28 1
    29   23   27 1
    30   25   27 2
    31   26   27 2
@<TRIPOS>MOLECULE
MIH-UNI-e57-1
   30    34     0     0     0
SMALL
NO_CHARGES

@<TRIPOS>ATOM
      1 C1         14.1035   -1.2506   21.1846 C.ar      1 UNL1        0.0000
      2 C2         13.0541   -0.3366   21.1747 C.ar      1 UNL1        0.0000
      3 C3         13.7907   -1.5578   26.0302 C.ar      1 UNL1        0.0000
      4 C4          5.4135    1.3707   18.8466 C.ar      1 UNL1        0.0000
      5 C5         14.5526   -1.7856   22.3923 C.ar      1 UNL1        0.0000
      6 C6         12.4496    0.0459   22.3726 C.ar      1 UNL1        0.0000
      7 C7         14.3950   -1.9403   24.8323 C.ar      1 UNL1        0.0000
      8 C8          5.9530    1.3901   20.1316 C.ar      1 UNL1        0.0000
      9 C9         12.7412   -0.6438   26.0203 C.ar      1 UNL1        0.0000
     10 C10         6.1827    0.8656   17.8070 C.ar      1 UNL1        0.0000
     11 C11         9.3076    0.1727   20.9091 C.2       1 UNL1        0.0000
     12 C12        13.9559   -1.4119   23.6075 C.ar      1 UNL1        0.0000
     13 C13        12.8887   -0.4824   23.5975 C.ar      1 UNL1        0.0000
     14 C14         7.2551    0.8935   20.3036 C.ar      1 UNL1        0.0000
     15 C15         8.1473    0.7342   21.3969 C.2       1 UNL1        0.0000
     16 C16        12.2921   -0.1087   24.8127 C.ar      1 UNL1        0.0000
     17 C17         7.9132    0.4168   19.1736 C.ar      1 UNL1        0.0000
     18 C18         5.8187    0.1671   23.8872 C.2       1 UNL1        0.0000
     19 C19         8.0131   -1.1069   23.9823 C.3       1 UNL1        0.0000
     20 C20         9.1765   -0.6426   24.8434 C.3       1 UNL1        0.0000
     21 C21         9.0741    1.5896   23.7005 C.3       1 UNL1        0.0000
     22 C22         7.8803    1.1136   22.8531 C.3       1 UNL1        0.0000
     23 C23        11.1574    0.8709   24.8738 C.3       1 UNL1        0.0000
     24 C24         5.1860   -0.9497   24.6784 C.3       1 UNL1        0.0000
     25 N1          7.4396    0.3754   17.9139 N.ar      1 UNL1        0.0000
     26 N2          9.1547   -0.0152   19.5599 N.pl3     1 UNL1        0.0000
     27 N3          7.1771    0.0324   23.5837 N.am      1 UNL1        0.0000
     28 N4          9.9480    0.4206   24.1020 N.4       1 UNL1        0.0000
     29 O1          5.1251    1.1293   23.5472 O.2       1 UNL1        0.0000
     30 Cl1         5.4055   -0.5501   26.3783 Cl        1 UNL1        0.0000
@<TRIPOS>BOND
     1    1    2 ar
     2    1    5 ar
     3    2    6 ar
     4    3    7 ar
     5    3    9 ar
     6    4    8 ar
     7    4   10 ar
     8    5   12 ar
     9    6   13 ar
    10    7   12 ar
    11    8   14 ar
    12    9   16 ar
    13   10   25 ar
    14   11   15 2
    15   11   26 1
    16   12   13 ar
    17   13   16 ar
    18   14   15 1
    19   14   17 ar
    20   15   22 1
    21   16   23 1
    22   17   25 ar
    23   17   26 1
    24   18   24 1
    25   18   27 am
    26   18   29 2
    27   19   20 1
    28   19   27 1
    29   20   28 1
    30   21   22 1
    31   21   28 1
    32   22   27 1
    33   23   28 1
    34   24   30 1
@<TRIPOS>MOLECULE
NIM-UNI-7ba-3
   26    28     0     0     0
SMALL
NO_CHARGES

@<TRIPOS>ATOM
      1 C1         12.8185   -1.9057   20.9195 C.ar      1 UNL1        0.0000
      2 C2         14.0581   -1.5629   21.4593 C.ar      1 UNL1        0.0000
      3 C3          5.5190    0.8307   18.9424 C.ar      1 UNL1        0.0000
      4 C4          6.1764    1.0212   20.1527 C.ar      1 UNL1        0.0000
      5 C5         11.6536   -1.6911   21.6562 C.ar      1 UNL1        0.0000
      6 C6         14.1330   -1.0057   22.7358 C.ar      1 UNL1        0.0000
      7 C7          6.2816    0.4904   17.8368 C.ar      1 UNL1        0.0000
      8 C8          8.2280    0.5255   19.0567 C.ar      1 UNL1        0.0000
      9 C9          7.5567    0.8677   20.2195 C.ar      1 UNL1        0.0000
     10 C10        11.7284   -1.1339   22.9328 C.ar      1 UNL1        0.0000
     11 C11        12.9681   -0.7912   23.4726 C.ar      1 UNL1        0.0000
     12 C12         8.9950    0.0705   22.0231 C.2       1 UNL1        0.0000
     13 C13         8.2796    1.0623   21.4816 C.2       1 UNL1        0.0000
     14 C14         8.2931    2.3580   22.2364 C.2       1 UNL1        0.0000
     15 C15         9.7097    1.4524   23.8757 C.2       1 UNL1        0.0000
     16 C16         7.5292    4.6651   22.4049 C.2       1 UNL1        0.0000
     17 C17        10.4517   -0.9212   23.6936 C.3       1 UNL1        0.0000
     18 C18         6.6763    5.6716   21.6736 C.3       1 UNL1        0.0000
     19 N1          7.6239    0.3323   17.8628 N.ar      1 UNL1        0.0000
     20 N2          8.9753    2.4958   23.3452 N.2       1 UNL1        0.0000
     21 N3          9.7024    0.2265   23.1929 N.am      1 UNL1        0.0000
     22 N4          7.5689    3.4336   21.7695 N.am      1 UNL1        0.0000
     23 O1         10.3453    1.6098   24.9196 O.2       1 UNL1        0.0000
     24 O2          8.1200    4.9555   23.4441 O.2       1 UNL1        0.0000
     25 Cl1        13.1001   -0.0997   25.0485 Cl        1 UNL1        0.0000
     26 Cl2         5.9640    6.7586   22.8763 Cl        1 UNL1        0.0000
@<TRIPOS>BOND
     1    1    2 ar
     2    1    5 ar
     3    2    6 ar
     4    3    4 ar
     5    3    7 ar
     6    4    9 ar
     7    5   10 ar
     8    6   11 ar
     9    7   19 ar
    10    8    9 ar
    11    8   19 ar
    12    9   13 1
    13   10   11 ar
    14   10   17 1
    15   11   25 1
    16   12   13 2
    17   12   21 1
    18   13   14 1
    19   14   20 2
    20   14   22 1
    21   15   20 1
    22   15   21 am
    23   15   23 2
    24   16   18 1
    25   16   22 am
    26   16   24 2
    27   17   21 1
    28   18   26 1
@<TRIPOS>MOLECULE
HAR-NEW-972-1
   21    23     0     0     0
SMALL
NO_CHARGES

@<TRIPOS>ATOM
      1 C1         10.4361   -3.5196   24.9559 C.2       1 UNL1        0.0000
      2 C2         11.6049   -2.7229   25.0248 C.2       1 UNL1        0.0000
      3 C3          9.7229   -3.1050   23.8499 C.2       1 UNL1        0.0000
      4 C4         11.5615   -1.8459   23.9600 C.2       1 UNL1        0.0000
      5 C5          6.3784   -2.9645   20.2536 C.2       1 UNL1        0.0000
      6 C6         12.7154   -2.7248   26.0173 C.3       1 UNL1        0.0000
      7 C7         12.5897   -0.8323   23.6122 C.3       1 UNL1        0.0000
      8 C8         13.5356   -0.6188   24.8100 C.3       1 UNL1        0.0000
      9 C9          7.3256   -5.8083   22.5788 C.3       1 UNL1        0.0000
     10 C10         8.1282   -5.0691   23.6507 C.3       1 UNL1        0.0000
     11 C11         6.3241   -4.8960   21.8811 C.3       1 UNL1        0.0000
     12 C12         8.2917   -3.3548   21.7712 C.3       1 UNL1        0.0000
     13 C13         8.4007   -3.5965   23.2839 C.3       1 UNL1        0.0000
     14 C14        13.9488   -1.9547   25.4786 C.3       1 UNL1        0.0000
     15 C15         7.1842   -1.7925   19.7488 C.3       1 UNL1        0.0000
     16 C16        14.9547   -1.7088   26.6010 C.3       1 UNL1        0.0000
     17 N1         10.4186   -2.0848   23.2497 N.pl3     1 UNL1        0.0000
     18 N2          6.9647   -3.7256   21.2669 N.am      1 UNL1        0.0000
     19 N3         15.3573   -3.0110   27.1702 N.4       1 UNL1        0.0000
     20 O1          5.2672   -3.1929   19.7698 O.2       1 UNL1        0.0000
     21 Cl1         6.2363   -1.0431   18.4691 Cl        1 UNL1        0.0000
@<TRIPOS>BOND
     1    1    2 1
     2    1    3 2
     3    2    4 2
     4    2    6 1
     5    3   13 1
     6    3   17 1
     7    4    7 1
     8    4   17 1
     9    5   15 1
    10    5   18 am
    11    5   20 2
    12    6   14 1
    13    7    8 1
    14    8   14 1
    15    9   10 1
    16    9   11 1
    17   10   13 1
    18   11   18 1
    19   12   13 1
    20   12   18 1
    21   14   16 1
    22   15   21 1
    23   16   19 1
@<TRIPOS>MOLECULE
DAR-DIA-cab-4
   31    34     0     0     0
SMALL
NO_CHARGES

@<TRIPOS>ATOM
      1 C1          7.7937   -3.7067   24.3889 C.ar      1 UNL1        0.0000
      2 C2          7.3591   -2.5576   25.0427 C.ar      1 UNL1        0.0000
      3 C3          9.0943   -3.7753   23.8906 C.ar      1 UNL1        0.0000
      4 C4          8.2257   -1.4773   25.2018 C.ar      1 UNL1        0.0000
      5 C5          9.4928    2.9852   22.2637 C.ar      1 UNL1        0.0000
      6 C6          9.5906    0.6021   22.7199 C.ar      1 UNL1        0.0000
      7 C7         10.8824    4.0502   25.4723 C.2       1 UNL1        0.0000
      8 C8         10.0380    3.2428   23.5372 C.ar      1 UNL1        0.0000
      9 C9          9.9753   -2.6931   24.0377 C.ar      1 UNL1        0.0000
     10 C10         9.5388   -1.5353   24.7071 C.ar      1 UNL1        0.0000
     11 C11        10.1323    0.8332   23.9876 C.ar      1 UNL1        0.0000
     12 C12        10.3828    4.4270   24.2470 C.2       1 UNL1        0.0000
     13 C13        10.3445    2.1630   24.3681 C.ar      1 UNL1        0.0000
     14 C14         9.2751    1.6600   21.8696 C.ar      1 UNL1        0.0000
     15 C15        13.1881   -1.2375   22.6807 C.2       1 UNL1        0.0000
     16 C16        13.4352    5.1912   22.3045 C.2       1 UNL1        0.0000
     17 C17        11.3731   -2.8137   23.4815 C.3       1 UNL1        0.0000
     18 C18        11.9395   -0.7613   24.7583 C.3       1 UNL1        0.0000
     19 C19        10.4650   -0.3470   24.8905 C.3       1 UNL1        0.0000
     20 C20        13.8727    4.4984   21.0568 C.3       1 UNL1        0.0000
     21 C21         8.5492    0.0348   20.2923 C.3       1 UNL1        0.0000
     22 C22        10.2361    5.8152   23.7649 C.3       1 UNL1        0.0000
     23 C23        14.3152   -0.4067   23.2423 C.3       1 UNL1        0.0000
     24 C24        11.5571    6.4673   23.3178 C.3       1 UNL1        0.0000
     25 N1         10.8555    2.6828   25.5359 N.pl3     1 UNL1        0.0000
     26 N2         12.1674   -1.5820   23.5697 N.am      1 UNL1        0.0000
     27 N3         12.1719    5.7555   22.2296 N.am      1 UNL1        0.0000
     28 O1         13.2188   -1.5750   21.4948 O.2       1 UNL1        0.0000
     29 O2         14.1829    5.2171   23.2751 O.2       1 UNL1        0.0000
     30 O3          8.7488    1.4036   20.6389 O.3       1 UNL1        0.0000
     31 Cl1        13.8743    1.2776   22.9860 Cl        1 UNL1        0.0000
@<TRIPOS>BOND
     1    1    2 ar
     2    1    3 ar
     3    2    4 ar
     4    3    9 ar
     5    4   10 ar
     6    5    8 ar
     7    5   14 ar
     8    6   11 ar
     9    6   14 ar
    10    7   12 2
    11    7   25 1
    12    8   12 1
    13    8   13 ar
    14    9   10 ar
    15    9   17 1
    16   10   19 1
    17   11   13 ar
    18   11   19 1
    19   12   22 1
    20   13   25 1
    21   14   30 1
    22   15   23 1
    23   15   26 am
    24   15   28 2
    25   16   20 1
    26   16   27 am
    27   16   29 2
    28   17   26 1
    29   18   19 1
    30   18   26 1
    31   21   30 1
    32   22   24 1
    33   23   31 1
    34   24   27 1
@<TRIPOS>MOLECULE
DAR-DIA-fb2-8
   22    24     0     0     0
SMALL
NO_CHARGES

@<TRIPOS>ATOM
      1 C1         13.9460    0.7123   23.1430 C.ar      1 UNL1        0.0000
      2 C2         13.5559   -0.4143   22.4250 C.ar      1 UNL1        0.0000
      3 C3         13.1121    1.2331   24.1328 C.ar      1 UNL1        0.0000
      4 C4         12.3304   -1.0244   22.6941 C.ar      1 UNL1        0.0000
      5 C5         11.0231    1.1427   25.4097 C.ar      1 UNL1        0.0000
      6 C6          9.4075   -0.5939   24.9608 C.ar      1 UNL1        0.0000
      7 C7         11.8751    0.6320   24.4170 C.ar      1 UNL1        0.0000
      8 C8         11.4784   -0.5137   23.6868 C.ar      1 UNL1        0.0000
      9 C9         10.2414   -1.1148   23.9710 C.ar      1 UNL1        0.0000
     10 C10         9.7976    0.5327   25.6788 C.ar      1 UNL1        0.0000
     11 C11         6.2121   -2.0715   18.9883 C.2       1 UNL1        0.0000
     12 C12         6.6120   -3.0924   21.2062 C.3       1 UNL1        0.0000
     13 C13         7.1937   -0.7168   20.9039 C.3       1 UNL1        0.0000
     14 C14         7.9700   -3.3660   21.8360 C.3       1 UNL1        0.0000
     15 C15         8.5606   -0.9544   21.5314 C.3       1 UNL1        0.0000
     16 C16         9.7606   -2.3305   23.2348 C.3       1 UNL1        0.0000
     17 C17         6.8865   -1.2114   17.9495 C.3       1 UNL1        0.0000
     18 N1          6.6750   -1.9476   20.2975 N.am      1 UNL1        0.0000
     19 N2          8.4645   -2.1048   22.5084 N.4       1 UNL1        0.0000
     20 O1          5.3034   -2.8317   18.6442 O.2       1 UNL1        0.0000
     21 Cl1         8.7679    1.1740   26.8994 Cl        1 UNL1        0.0000
     22 Cl2         5.9645    0.2852   17.8589 Cl        1 UNL1        0.0000
@<TRIPOS>BOND
     1    1    2 ar
     2    1    3 ar
     3    2    4 ar
     4    3    7 ar
     5    4    8 ar
     6    5    7 ar
     7    5   10 ar
     8    6    9 ar
     9    6   10 ar
    10    7    8 ar
    11    8    9 ar
    12    9   16 1
    13   10   21 1
    14   11   17 1
    15   11   18 am
    16   11   20 2
    17   12   14 1
    18   12   18 1
    19   13   15 1
    20   13   18 1
    21   14   19 1
    22   15   19 1
    23   16   19 1
    24   17   22 1
@<TRIPOS>MOLECULE
MAK-UNK-af8-5
   21    22     0     0     0
SMALL
NO_CHARGES

@<TRIPOS>ATOM
      1 C1         14.2041   -2.3250   24.8957 C.ar      1 UNL1        0.0000
      2 C2         13.1273   -3.2025   25.0225 C.ar      1 UNL1        0.0000
      3 C3         14.0933   -1.1980   24.0812 C.ar      1 UNL1        0.0000
      4 C4         11.8289   -1.8261   23.5202 C.ar      1 UNL1        0.0000
      5 C5         11.9397   -2.9531   24.3347 C.ar      1 UNL1        0.0000
      6 C6         12.9057   -0.9486   23.3935 C.ar      1 UNL1        0.0000
      7 C7         12.6100    4.5385   23.9692 C.2       1 UNL1        0.0000
      8 C8          9.2232    4.4576   23.9430 C.2       1 UNL1        0.0000
      9 C9         10.8880    1.1716   23.8963 C.3       1 UNL1        0.0000
     10 C10        12.1669    2.7049   22.3835 C.3       1 UNL1        0.0000
     11 C11        10.3405    2.3787   24.6463 C.3       1 UNL1        0.0000
     12 C12        11.5451    3.9184   23.0789 C.3       1 UNL1        0.0000
     13 C13        12.2597    1.4720   23.2904 C.3       1 UNL1        0.0000
     14 C14        10.7883   -3.8910   24.4719 C.3       1 UNL1        0.0000
     15 C15        12.7866    0.2661   22.5149 C.3       1 UNL1        0.0000
     16 C16         9.2349    5.6907   23.0737 C.3       1 UNL1        0.0000
     17 N1         10.3179    3.5927   23.8243 N.am      1 UNL1        0.0000
     18 O1         13.8021    4.3054   23.6262 O.co2     1 UNL1        0.0000
     19 O2         12.1627    5.2096   24.9412 O.co2     1 UNL1        0.0000
     20 O3          8.2675    4.2653   24.6995 O.2       1 UNL1        0.0000
     21 Cl1        10.0094    6.9611   24.0134 Cl        1 UNL1        0.0000
@<TRIPOS>BOND
     1    1    2 ar
     2    1    3 ar
     3    2    5 ar
     4    3    6 ar
     5    4    5 ar
     6    4    6 ar
     7    5   14 1
     8    6   15 1
     9    7   12 1
    10    7   18 1
    11    7   19 2
    12    8   16 1
    13    8   17 am
    14    8   20 2
    15    9   11 1
    16    9   13 1
    17   10   12 1
    18   10   13 1
    19   11   17 1
    20   12   17 1
    21   13   15 1
    22   16   21 1
@<TRIPOS>MOLECULE
MAK-UNK-af8-22
   30    32     0     0     0
SMALL
NO_CHARGES

@<TRIPOS>ATOM
      1 C1         13.4345    4.0909   22.6680 C.1       1 UNL1        0.0000
      2 C2          9.5545    3.4286   24.1939 C.ar      1 UNL1        0.0000
      3 C3         10.5117    2.4181   24.2844 C.ar      1 UNL1        0.0000
      4 C4         11.1668    4.8580   23.1009 C.ar      1 UNL1        0.0000
      5 C5         12.3816   -2.5947   23.9367 C.ar      1 UNL1        0.0000
      6 C6         13.5446   -0.5871   24.6103 C.ar      1 UNL1        0.0000
      7 C7         11.5783   -0.4335   23.2150 C.ar      1 UNL1        0.0000
      8 C8         12.1240    3.8475   23.1915 C.ar      1 UNL1        0.0000
      9 C9         13.4248   -1.9768   24.6263 C.ar      1 UNL1        0.0000
     10 C10        11.4584   -1.8231   23.2310 C.ar      1 UNL1        0.0000
     11 C11         9.8820    4.6486   23.6021 C.ar      1 UNL1        0.0000
     12 C12        11.7964    2.6275   23.7832 C.ar      1 UNL1        0.0000
     13 C13        12.6214    0.1845   23.9047 C.ar      1 UNL1        0.0000
     14 C14         5.6597   -4.1420   24.9556 C.2       1 UNL1        0.0000
     15 C15         7.5522   -4.8841   23.5454 C.3       1 UNL1        0.0000
     16 C16         8.0336   -3.3548   25.4169 C.3       1 UNL1        0.0000
     17 C17         8.3605   -4.0109   22.5969 C.3       1 UNL1        0.0000
     18 C18         8.8513   -2.4589   24.4964 C.3       1 UNL1        0.0000
     19 C19        14.4118   -2.8018   25.3807 C.3       1 UNL1        0.0000
     20 C20         8.2433    7.9425   23.9484 C.3       1 UNL1        0.0000
     21 C21        10.3365   -2.4879   22.4892 C.3       1 UNL1        0.0000
     22 C22         5.0607   -2.8984   25.5626 C.3       1 UNL1        0.0000
     23 C23         9.2516    7.0456   23.3149 C.3       1 UNL1        0.0000
     24 N1         14.4966    4.2881   22.2437 N.1       1 UNL1        0.0000
     25 N2          7.0213   -4.0986   24.6596 N.am      1 UNL1        0.0000
     26 N3         12.7426    1.5896   23.8886 N.pl3     1 UNL1        0.0000
     27 N4          8.9136    5.6697   23.5104 N.pl3     1 UNL1        0.0000
     28 N5          9.4378   -3.2965   23.3820 N.4       1 UNL1        0.0000
     29 O1          4.9370   -5.1203   24.7492 O.2       1 UNL1        0.0000
     30 Cl1         5.3395   -1.5933   24.4151 Cl        1 UNL1        0.0000
@<TRIPOS>BOND
     1    1    8 1
     2    1   24 3
     3    2    3 ar
     4    2   11 ar
     5    3   12 ar
     6    4    8 ar
     7    4   11 ar
     8    5    9 ar
     9    5   10 ar
    10    6    9 ar
    11    6   13 ar
    12    7   10 ar
    13    7   13 ar
    14    8   12 ar
    15    9   19 1
    16   10   21 1
    17   11   27 1
    18   12   26 1
    19   13   26 1
    20   14   22 1
    21   14   25 am
    22   14   29 2
    23   15   17 1
    24   15   25 1
    25   16   18 1
    26   16   25 1
    27   17   28 1
    28   18   28 1
    29   20   23 1
    30   21   28 1
    31   22   30 1
    32   23   27 1
@<TRIPOS>MOLECULE
NIM-UNI-7ba-2
   26    28     0     0     0
SMALL
NO_CHARGES

@<TRIPOS>ATOM
      1 C1         14.9257   -1.4965   23.4351 C.ar      1 UNL1        0.0000
      2 C2         14.1359   -1.7414   24.5584 C.ar      1 UNL1        0.0000
      3 C3          5.6687    0.8476   18.9800 C.ar      1 UNL1        0.0000
      4 C4          6.3892    0.7647   20.1663 C.ar      1 UNL1        0.0000
      5 C5         14.3392   -1.4292   22.1713 C.ar      1 UNL1        0.0000
      6 C6         12.7596   -1.9191   24.4179 C.ar      1 UNL1        0.0000
      7 C7          6.3595    0.6902   17.7893 C.ar      1 UNL1        0.0000
      8 C8          8.3564    0.3870   18.8841 C.ar      1 UNL1        0.0000
      9 C9          7.7592    0.5303   20.1262 C.ar      1 UNL1        0.0000
     10 C10        12.9629   -1.6069   22.0308 C.ar      1 UNL1        0.0000
     11 C11        12.1730   -1.8519   23.1541 C.ar      1 UNL1        0.0000
     12 C12         9.2242   -0.6756   21.6613 C.2       1 UNL1        0.0000
     13 C13         8.5475    0.4381   21.3604 C.2       1 UNL1        0.0000
     14 C14         8.6735    1.5597   22.3478 C.2       1 UNL1        0.0000
     15 C15        10.1030    0.2806   23.7024 C.2       1 UNL1        0.0000
     16 C16         7.5490    3.5622   23.1602 C.2       1 UNL1        0.0000
     17 C17        12.3566   -1.5295   20.6680 C.3       1 UNL1        0.0000
     18 C18        10.6898   -2.0472   23.0277 C.3       1 UNL1        0.0000
     19 C19         6.8548    4.8015   22.6530 C.3       1 UNL1        0.0000
     20 N1          7.6895    0.4612   17.7105 N.ar      1 UNL1        0.0000
     21 N2          9.4111    1.4437   23.4232 N.2       1 UNL1        0.0000
     22 N3          9.9907   -0.7869   22.7986 N.am      1 UNL1        0.0000
     23 N4          7.9966    2.7413   22.1365 N.am      1 UNL1        0.0000
     24 O1         10.7925    0.1989   24.7205 O.2       1 UNL1        0.0000
     25 O2          7.6925    3.3512   24.3636 O.2       1 UNL1        0.0000
     26 Cl1         8.0227    5.7284   21.6981 Cl        1 UNL1        0.0000
@<TRIPOS>BOND
     1    1    2 ar
     2    1    5 ar
     3    2    6 ar
     4    3    4 ar
     5    3    7 ar
     6    4    9 ar
     7    5   10 ar
     8    6   11 ar
     9    7   20 ar
    10    8    9 ar
    11    8   20 ar
    12    9   13 1
    13   10   11 ar
    14   10   17 1
    15   11   18 1
    16   12   13 2
    17   12   22 1
    18   13   14 1
    19   14   21 2
    20   14   23 1
    21   15   21 1
    22   15   22 am
    23   15   24 2
    24   16   19 1
    25   16   23 am
    26   16   25 2
    27   18   22 1
    28   19   26 1
@<TRIPOS>MOLECULE
DAR-DIA-fb2-13
   28    30     0     0     0
SMALL
NO_CHARGES

@<TRIPOS>ATOM
      1 C1         12.2989    1.1463   23.1805 C.ar      1 UNL1        0.0000
      2 C2         11.2216   -0.8758   22.3505 C.ar      1 UNL1        0.0000
      3 C3         11.0826    1.5316   23.7207 C.ar      1 UNL1        0.0000
      4 C4          9.9465    0.7210   23.5771 C.ar      1 UNL1        0.0000
      5 C5          9.9984   -0.4828   22.8965 C.ar      1 UNL1        0.0000
      6 C6         12.3622   -0.0680   22.4911 C.ar      1 UNL1        0.0000
      7 C7          9.4077    2.6294   24.7794 C.2       1 UNL1        0.0000
      8 C8         10.7151    2.7245   24.4804 C.2       1 UNL1        0.0000
      9 C9          7.8340   -5.6369   26.1206 C.2       1 UNL1        0.0000
     10 C10        10.3668    6.0074   23.1774 C.2       1 UNL1        0.0000
     11 C11         8.7754    1.3667   24.2491 C.3       1 UNL1        0.0000
     12 C12         9.1587   -3.5672   25.8333 C.3       1 UNL1        0.0000
     13 C13         6.7847   -3.5226   25.1736 C.3       1 UNL1        0.0000
     14 C14         9.5600   -2.9357   24.5082 C.3       1 UNL1        0.0000
     15 C15         7.1503   -2.8883   23.8385 C.3       1 UNL1        0.0000
     16 C16         9.3702    6.4429   22.1549 C.3       1 UNL1        0.0000
     17 C17        13.5453   -1.7215   21.2573 C.3       1 UNL1        0.0000
     18 C18         8.7836   -1.3498   22.7427 C.3       1 UNL1        0.0000
     19 C19        11.6630    3.8099   24.8255 C.3       1 UNL1        0.0000
     20 C20         6.5054   -6.3291   25.9493 C.3       1 UNL1        0.0000
     21 C21        12.2589    4.4430   23.5717 C.3       1 UNL1        0.0000
     22 N1          7.9041   -4.3084   25.7038 N.am      1 UNL1        0.0000
     23 N2         11.2189    5.0093   22.7438 N.am      1 UNL1        0.0000
     24 N3          8.4187   -2.0813   24.0037 N.4       1 UNL1        0.0000
     25 O1          8.7804   -6.2605   26.6079 O.2       1 UNL1        0.0000
     26 O2         10.3690    6.5364   24.2827 O.2       1 UNL1        0.0000
     27 O3         13.5447   -0.4742   21.9482 O.3       1 UNL1        0.0000
     28 Cl1         5.6127   -6.0834   27.4462 Cl        1 UNL1        0.0000
@<TRIPOS>BOND
     1    1    3 ar
     2    1    6 ar
     3    2    5 ar
     4    2    6 ar
     5    3    4 ar
     6    3    8 1
     7    4    5 ar
     8    4   11 1
     9    5   18 1
    10    6   27 1
    11    7    8 2
    12    7   11 1
    13    8   19 1
    14    9   20 1
    15    9   22 am
    16    9   25 2
    17   10   16 1
    18   10   23 am
    19   10   26 2
    20   12   14 1
    21   12   22 1
    22   13   15 1
    23   13   22 1
    24   14   24 1
    25   15   24 1
    26   17   27 1
    27   18   24 1
    28   19   21 1
    29   20   28 1
    30   21   23 1
@<TRIPOS>MOLECULE
AVI-UNI-70b-2
   28    30     0     0     0
SMALL
NO_CHARGES

@<TRIPOS>ATOM
      1 C1          5.9989    0.9497   17.9545 C.ar      1 UNL1        0.0000
      2 C2          5.5273   -6.0724   26.7292 C.ar      1 UNL1        0.0000
      3 C3          7.2528    0.6002   18.4557 C.ar      1 UNL1        0.0000
      4 C4          4.7256   -5.5593   25.7096 C.ar      1 UNL1        0.0000
      5 C5          5.0148    0.5237   20.1195 C.ar      1 UNL1        0.0000
      6 C6          7.4634   -5.0238   25.7346 C.ar      1 UNL1        0.0000
      7 C7          6.2687    0.1742   20.6207 C.ar      1 UNL1        0.0000
      8 C8          6.6617   -4.5108   24.7149 C.ar      1 UNL1        0.0000
      9 C9          4.8799    0.9115   18.7864 C.ar      1 UNL1        0.0000
     10 C10         6.8962   -5.8046   26.7417 C.ar      1 UNL1        0.0000
     11 C11         7.3877    0.2124   19.7888 C.ar      1 UNL1        0.0000
     12 C12         5.2928   -4.7785   24.7024 C.ar      1 UNL1        0.0000
     13 C13         9.7409    0.6623   22.7194 C.2       1 UNL1        0.0000
     14 C14         8.5288   -0.7379   24.4337 C.3       1 UNL1        0.0000
     15 C15         7.2761    0.7656   22.8531 C.3       1 UNL1        0.0000
     16 C16         7.1889   -1.4104   24.7090 C.3       1 UNL1        0.0000
     17 C17         6.8544   -1.7137   22.1701 C.3       1 UNL1        0.0000
     18 C18         6.3973   -0.2473   22.0802 C.3       1 UNL1        0.0000
     19 C19         7.2887   -3.6731   23.6397 C.3       1 UNL1        0.0000
     20 C20        11.0247    0.1138   23.2934 C.3       1 UNL1        0.0000
     21 N1          8.5542    0.2108   23.3093 N.am      1 UNL1        0.0000
     22 N2          6.7165   -2.2784   23.5675 N.4       1 UNL1        0.0000
     23 O1          9.7913    1.4563   21.7769 O.2       1 UNL1        0.0000
     24 O2          3.6567    1.2530   18.2970 O.3       1 UNL1        0.0000
     25 O3          7.6779   -6.3052   27.7371 O.3       1 UNL1        0.0000
     26 O4          8.6196   -0.1270   20.2618 O.3       1 UNL1        0.0000
     27 O5          4.4955   -4.2863   23.7133 O.3       1 UNL1        0.0000
     28 Cl1        11.3767   -1.3694   22.4137 Cl        1 UNL1        0.0000
@<TRIPOS>BOND
     1    1    3 ar
     2    1    9 ar
     3    2    4 ar
     4    2   10 ar
     5    3   11 ar
     6    4   12 ar
     7    5    7 ar
     8    5    9 ar
     9    6    8 ar
    10    6   10 ar
    11    7   11 ar
    12    7   18 1
    13    8   12 ar
    14    8   19 1
    15    9   24 1
    16   10   25 1
    17   11   26 1
    18   12   27 1
    19   13   20 1
    20   13   21 am
    21   13   23 2
    22   14   16 1
    23   14   21 1
    24   15   18 1
    25   15   21 1
    26   16   22 1
    27   17   18 1
    28   17   22 1
    29   19   22 1
    30   20   28 1
@<TRIPOS>MOLECULE
NIM-UNI-7ba-5
   25    27     0     0     0
SMALL
NO_CHARGES

@<TRIPOS>ATOM
      1 C1          5.4074    0.8937   18.9900 C.ar      1 UNL1        0.0000
      2 C2          6.1441    0.8261   20.1673 C.ar      1 UNL1        0.0000
      3 C3         12.7920   -1.7106   22.1395 C.2       1 UNL1        0.0000
      4 C4         14.1269   -1.6141   22.6283 C.2       1 UNL1        0.0000
      5 C5          6.0724    0.6706   17.7951 C.ar      1 UNL1        0.0000
      6 C6          8.0752    0.3339   18.8693 C.ar      1 UNL1        0.0000
      7 C7          7.5040    0.5414   20.1145 C.ar      1 UNL1        0.0000
      8 C8         11.8805   -1.8917   23.1562 C.2       1 UNL1        0.0000
      9 C9         14.1847   -1.7250   24.0002 C.2       1 UNL1        0.0000
     10 C10         8.9507   -0.6626   21.6684 C.2       1 UNL1        0.0000
     11 C11         8.3090    0.4636   21.3390 C.2       1 UNL1        0.0000
     12 C12         8.4908    1.6133   22.2844 C.2       1 UNL1        0.0000
     13 C13         9.8964    0.3313   23.6610 C.2       1 UNL1        0.0000
     14 C14         8.3602    4.0417   22.4278 C.2       1 UNL1        0.0000
     15 C15        10.3894   -2.0379   23.0595 C.3       1 UNL1        0.0000
     16 C16         7.4715    5.1916   22.0236 C.3       1 UNL1        0.0000
     17 N1          7.3920    0.3915   17.7041 N.ar      1 UNL1        0.0000
     18 N2          9.2415    1.5082   23.3518 N.2       1 UNL1        0.0000
     19 N3          9.7315   -0.7620   22.7970 N.am      1 UNL1        0.0000
     20 N4          7.8526    2.8105   22.0422 N.am      1 UNL1        0.0000
     21 O1         10.5993    0.2601   24.6706 O.2       1 UNL1        0.0000
     22 O2          9.4211    4.2259   23.0226 O.2       1 UNL1        0.0000
     23 S1         12.6342   -1.9447   24.6929 S.3       1 UNL1        0.0000
     24 Cl1         8.4965    6.6159   21.7878 Cl        1 UNL1        0.0000
     25 Br1        15.7861   -1.6459   25.0185 Br        1 UNL1        0.0000
@<TRIPOS>BOND
     1    1    2 ar
     2    1    5 ar
     3    2    7 ar
     4    3    4 1
     5    3    8 2
     6    4    9 2
     7    5   17 ar
     8    6    7 ar
     9    6   17 ar
    10    7   11 1
    11    8   15 1
    12    8   23 1
    13    9   23 1
    14    9   25 1
    15   10   11 2
    16   10   19 1
    17   11   12 1
    18   12   18 2
    19   12   20 1
    20   13   18 1
    21   13   19 am
    22   13   21 2
    23   14   16 1
    24   14   20 am
    25   14   22 2
    26   15   19 1
    27   16   24 1
@<TRIPOS>MOLECULE
DAR-DIA-cab-9
   26    29     0     0     0
SMALL
NO_CHARGES

@<TRIPOS>ATOM
      1 C1         10.2972    1.5344   26.3818 C.ar      1 UNL1        0.0000
      2 C2          9.2746    0.6727   25.9963 C.ar      1 UNL1        0.0000
      3 C3          8.6163   -5.0039   25.4841 C.ar      1 UNL1        0.0000
      4 C4          9.9562   -4.6682   25.3221 C.ar      1 UNL1        0.0000
      5 C5         11.4992    1.5529   25.6737 C.ar      1 UNL1        0.0000
      6 C6          9.4500   -0.1736   24.9011 C.ar      1 UNL1        0.0000
      7 C7          7.6448   -4.3771   24.7065 C.ar      1 UNL1        0.0000
      8 C8         10.3250   -3.6936   24.3941 C.ar      1 UNL1        0.0000
      9 C9         12.8963    0.7133   23.8446 C.ar      1 UNL1        0.0000
     10 C10        12.0491   -0.9947   22.3639 C.ar      1 UNL1        0.0000
     11 C11        11.6931    0.7079   24.5689 C.ar      1 UNL1        0.0000
     12 C12        10.6532   -0.1683   24.1768 C.ar      1 UNL1        0.0000
     13 C13         8.0038   -3.4043   23.7604 C.ar      1 UNL1        0.0000
     14 C14         9.3561   -3.0268   23.6233 C.ar      1 UNL1        0.0000
     15 C15        10.8471   -1.0134   23.0720 C.ar      1 UNL1        0.0000
     16 C16        13.0717   -0.1331   22.7495 C.ar      1 UNL1        0.0000
     17 C17         6.8836   -2.2560   20.5059 C.2       1 UNL1        0.0000
     18 C18         6.9181   -2.7676   22.9282 C.3       1 UNL1        0.0000
     19 C19         8.5693   -1.1688   22.0643 C.3       1 UNL1        0.0000
     20 C20         9.7697   -1.9778   22.5941 C.3       1 UNL1        0.0000
     21 C21        14.3570   -1.0050   20.9485 C.3       1 UNL1        0.0000
     22 C22         7.5005   -1.4890   19.3636 C.3       1 UNL1        0.0000
     23 N1          7.4507   -2.0624   21.7643 N.am      1 UNL1        0.0000
     24 O1          5.9289   -3.0052   20.2848 O.2       1 UNL1        0.0000
     25 O2         14.2436   -0.1144   22.0573 O.3       1 UNL1        0.0000
     26 Cl1         6.6183    0.0289   19.2426 Cl        1 UNL1        0.0000
@<TRIPOS>BOND
     1    1    2 ar
     2    1    5 ar
     3    2    6 ar
     4    3    4 ar
     5    3    7 ar
     6    4    8 ar
     7    5   11 ar
     8    6   12 ar
     9    7   13 ar
    10    8   14 ar
    11    9   11 ar
    12    9   16 ar
    13   10   15 ar
    14   10   16 ar
    15   11   12 ar
    16   12   15 ar
    17   13   14 ar
    18   13   18 1
    19   14   20 1
    20   15   20 1
    21   16   25 1
    22   17   22 1
    23   17   23 am
    24   17   24 2
    25   18   23 1
    26   19   20 1
    27   19   23 1
    28   21   25 1
    29   22   26 1
@<TRIPOS>MOLECULE
DAR-DIA-fb2-2
   22    24     0     0     0
SMALL
NO_CHARGES

@<TRIPOS>ATOM
      1 C1          9.7449    2.4878   25.3837 C.ar      1 UNL1        0.0000
      2 C2          8.9323    1.3597   25.3218 C.ar      1 UNL1        0.0000
      3 C3         10.9745    2.5000   24.7246 C.ar      1 UNL1        0.0000
      4 C4          9.3460    0.2395   24.6004 C.ar      1 UNL1        0.0000
      5 C5         12.6414    1.3762   23.3242 C.ar      1 UNL1        0.0000
      6 C6         12.2426   -0.8722   22.5410 C.ar      1 UNL1        0.0000
      7 C7         11.4069    1.3814   23.9938 C.ar      1 UNL1        0.0000
      8 C8         10.5805    0.2342   23.9309 C.ar      1 UNL1        0.0000
      9 C9         11.0130   -0.8845   23.2002 C.ar      1 UNL1        0.0000
     10 C10        13.0552    0.2559   22.6029 C.ar      1 UNL1        0.0000
     11 C11         6.2696   -2.0952   19.1753 C.2       1 UNL1        0.0000
     12 C12         6.8175   -2.8878   21.4540 C.3       1 UNL1        0.0000
     13 C13         7.5119   -0.6090   20.8233 C.3       1 UNL1        0.0000
     14 C14         8.2103   -3.1863   21.9892 C.3       1 UNL1        0.0000
     15 C15         8.9157   -0.8727   21.3511 C.3       1 UNL1        0.0000
     16 C16        10.1872   -2.1324   23.0923 C.3       1 UNL1        0.0000
     17 C17         6.3643   -0.9851   18.1591 C.3       1 UNL1        0.0000
     18 N1          6.8629   -1.8593   20.4146 N.am      1 UNL1        0.0000
     19 N2          8.8436   -1.8967   22.4617 N.4       1 UNL1        0.0000
     20 O1          5.6879   -3.1405   18.8738 O.2       1 UNL1        0.0000
     21 F1         14.2355    0.2672   21.9695 F         1 UNL1        0.0000
     22 Cl1         5.5370    0.4049   18.8530 Cl        1 UNL1        0.0000
@<TRIPOS>BOND
     1    1    2 ar
     2    1    3 ar
     3    2    4 ar
     4    3    7 ar
     5    4    8 ar
     6    5    7 ar
     7    5   10 ar
     8    6    9 ar
     9    6   10 ar
    10    7    8 ar
    11    8    9 ar
    12    9   16 1
    13   10   21 1
    14   11   17 1
    15   11   18 am
    16   11   20 2
    17   12   14 1
    18   12   18 1
    19   13   15 1
    20   13   18 1
    21   14   19 1
    22   15   19 1
    23   16   19 1
    24   17   22 1
@<TRIPOS>MOLECULE
NIR-THE-c33-2
   22    24     0     0     0
SMALL
NO_CHARGES

@<TRIPOS>ATOM
      1 C1         12.1960    5.9185   24.3742 C.1       1 UNL1        0.0000
      2 C2         14.3486   -2.3600   22.6626 C.ar      1 UNL1        0.0000
      3 C3         14.9233   -1.1473   23.0261 C.ar      1 UNL1        0.0000
      4 C4         13.5087    3.7217   21.6711 C.ar      1 UNL1        0.0000
      5 C5         13.2245    4.8607   22.4244 C.ar      1 UNL1        0.0000
      6 C6         12.9623   -2.4971   22.6610 C.ar      1 UNL1        0.0000
      7 C7         14.1120   -0.0658   23.3714 C.ar      1 UNL1        0.0000
      8 C8         13.0555    2.4730   22.0967 C.ar      1 UNL1        0.0000
      9 C9         12.0340    3.5023   24.0290 C.ar      1 UNL1        0.0000
     10 C10        12.4871    4.7510   23.6033 C.ar      1 UNL1        0.0000
     11 C11        12.3182    2.3633   23.2757 C.ar      1 UNL1        0.0000
     12 C12        12.1344   -1.4197   23.0163 C.ar      1 UNL1        0.0000
     13 C13        12.7103   -0.1746   23.3411 C.ar      1 UNL1        0.0000
     14 C14         8.7335   -0.6652   24.3926 C.2       1 UNL1        0.0000
     15 C15        10.6400   -1.6379   23.0294 C.3       1 UNL1        0.0000
     16 C16        10.3728    0.8019   23.2671 C.3       1 UNL1        0.0000
     17 C17        11.8238    1.0004   23.7400 C.3       1 UNL1        0.0000
     18 C18         8.6011   -1.9381   25.1910 C.3       1 UNL1        0.0000
     19 N1         11.9594    6.8666   25.0002 N.1       1 UNL1        0.0000
     20 N2          9.8921   -0.5283   23.6274 N.am      1 UNL1        0.0000
     21 O1          7.8373    0.1804   24.4512 O.2       1 UNL1        0.0000
     22 Cl1         7.7508   -3.0883   24.1660 Cl        1 UNL1        0.0000
@<TRIPOS>BOND
     1    1   10 1
     2    1   19 3
     3    2    3 ar
     4    2    6 ar
     5    3    7 ar
     6    4    5 ar
     7    4    8 ar
     8    5   10 ar
     9    6   12 ar
    10    7   13 ar
    11    8   11 ar
    12    9   10 ar
    13    9   11 ar
    14   11   17 1
    15   12   13 ar
    16   12   15 1
    17   13   17 1
    18   14   18 1
    19   14   20 am
    20   14   21 2
    21   15   20 1
    22   16   17 1
    23   16   20 1
    24   18   22 1
@<TRIPOS>MOLECULE
NIR-THE-c33-1
   21    23     0     0     0
SMALL
NO_CHARGES

@<TRIPOS>ATOM
      1 C1         13.9265   -2.1119   22.6190 C.ar      1 UNL1        0.0000
      2 C2         14.6075   -0.9452   22.9476 C.ar      1 UNL1        0.0000
      3 C3         13.5538    4.0038   21.5540 C.ar      1 UNL1        0.0000
      4 C4         12.5341   -2.1357   22.6568 C.ar      1 UNL1        0.0000
      5 C5         13.8966    0.2033   23.2976 C.ar      1 UNL1        0.0000
      6 C6         13.0137    2.8020   22.0119 C.ar      1 UNL1        0.0000
      7 C7         13.3837    5.1725   22.2963 C.ar      1 UNL1        0.0000
      8 C8         12.1333    3.9376   23.9541 C.ar      1 UNL1        0.0000
      9 C9         12.3035    2.7689   23.2119 C.ar      1 UNL1        0.0000
     10 C10        11.8065   -0.9898   23.0173 C.ar      1 UNL1        0.0000
     11 C11        12.4903    0.2086   23.3067 C.ar      1 UNL1        0.0000
     12 C12        12.6734    5.1394   23.4963 C.ar      1 UNL1        0.0000
     13 C13         8.5181    0.0577   24.4726 C.2       1 UNL1        0.0000
     14 C14        10.3004   -1.0854   23.0741 C.3       1 UNL1        0.0000
     15 C15        10.2385    1.3711   23.2804 C.3       1 UNL1        0.0000
     16 C16        11.7136    1.4572   23.7108 C.3       1 UNL1        0.0000
     17 C17         8.3055   -1.1893   25.2943 C.3       1 UNL1        0.0000
     18 N1          9.6619    0.0895   23.6744 N.am      1 UNL1        0.0000
     19 N2         12.5018    6.3211   24.2470 N.pl3     1 UNL1        0.0000
     20 O1          7.6953    0.9742   24.5421 O.2       1 UNL1        0.0000
     21 Cl1         7.3362   -2.2802   24.3108 Cl        1 UNL1        0.0000
@<TRIPOS>BOND
     1    1    2 ar
     2    1    4 ar
     3    2    5 ar
     4    3    6 ar
     5    3    7 ar
     6    4   10 ar
     7    5   11 ar
     8    6    9 ar
     9    7   12 ar
    10    8    9 ar
    11    8   12 ar
    12    9   16 1
    13   10   11 ar
    14   10   14 1
    15   11   16 1
    16   12   19 1
    17   13   17 1
    18   13   18 am
    19   13   20 2
    20   14   18 1
    21   15   16 1
    22   15   18 1
    23   17   21 1
@<TRIPOS>MOLECULE
DAR-DIA-cab-3
   25    28     0     0     0
SMALL
NO_CHARGES

@<TRIPOS>ATOM
      1 C1          8.2019   -4.9831   24.6587 C.ar      1 UNL1        0.0000
      2 C2          9.5127   -4.5412   24.8031 C.ar      1 UNL1        0.0000
      3 C3          7.3401   -4.3253   23.7836 C.ar      1 UNL1        0.0000
      4 C4          9.9587   -3.4310   24.0851 C.ar      1 UNL1        0.0000
      5 C5         13.8738    0.6204   22.9494 C.2       1 UNL1        0.0000
      6 C6         12.0561    1.2276   24.7190 C.ar      1 UNL1        0.0000
      7 C7          9.9537    0.0741   24.3364 C.ar      1 UNL1        0.0000
      8 C8         13.8201   -0.2283   21.8678 C.2       1 UNL1        0.0000
      9 C9         12.6029    0.5882   23.5887 C.ar      1 UNL1        0.0000
     10 C10         7.7801   -3.2152   23.0458 C.ar      1 UNL1        0.0000
     11 C11         9.0946   -2.7344   23.2217 C.ar      1 UNL1        0.0000
     12 C12        10.4745   -0.5718   23.2114 C.ar      1 UNL1        0.0000
     13 C13        11.8011   -0.2950   22.8625 C.ar      1 UNL1        0.0000
     14 C14        10.7305    0.9603   25.0800 C.ar      1 UNL1        0.0000
     15 C15         7.1879   -1.7263   19.7904 C.2       1 UNL1        0.0000
     16 C16         6.8158   -2.5480   22.0962 C.3       1 UNL1        0.0000
     17 C17         8.4482   -0.7440   21.7649 C.3       1 UNL1        0.0000
     18 C18         9.5967   -1.5343   22.4226 C.3       1 UNL1        0.0000
     19 C19         8.8403    1.2659   26.4904 C.3       1 UNL1        0.0000
     20 C20         7.9354   -0.7769   18.8883 C.3       1 UNL1        0.0000
     21 N1         12.5659   -0.7755   21.8235 N.pl3     1 UNL1        0.0000
     22 N2          7.4904   -1.6625   21.1494 N.am      1 UNL1        0.0000
     23 O1          6.3627   -2.5016   19.3006 O.2       1 UNL1        0.0000
     24 O2         10.1947    1.5769   26.1711 O.3       1 UNL1        0.0000
     25 Cl1         6.9580    0.6820   18.7735 Cl        1 UNL1        0.0000
@<TRIPOS>BOND
     1    1    2 ar
     2    1    3 ar
     3    2    4 ar
     4    3   10 ar
     5    4   11 ar
     6    5    8 2
     7    5    9 1
     8    6    9 ar
     9    6   14 ar
    10    7   12 ar
    11    7   14 ar
    12    8   21 1
    13    9   13 ar
    14   10   11 ar
    15   10   16 1
    16   11   18 1
    17   12   13 ar
    18   12   18 1
    19   13   21 1
    20   14   24 1
    21   15   20 1
    22   15   22 am
    23   15   23 2
    24   16   22 1
    25   17   18 1
    26   17   22 1
    27   19   24 1
    28   20   25 1
@<TRIPOS>MOLECULE
MAK-UNK-af8-9
   22    23     0     0     0
SMALL
NO_CHARGES

@<TRIPOS>ATOM
      1 C1         13.9073   -3.1362   25.0295 C.ar      1 UNL1        0.0000
      2 C2         12.6246   -3.6523   24.8452 C.ar      1 UNL1        0.0000
      3 C3         14.2397   -1.8888   24.5013 C.ar      1 UNL1        0.0000
      4 C4         12.0068   -1.6737   23.6041 C.ar      1 UNL1        0.0000
      5 C5         11.6744   -2.9211   24.1324 C.ar      1 UNL1        0.0000
      6 C6         13.2895   -1.1575   23.7885 C.ar      1 UNL1        0.0000
      7 C7          9.4194    1.7940   24.0047 C.2       1 UNL1        0.0000
      8 C8         10.6046    4.8569   24.2125 C.2       1 UNL1        0.0000
      9 C9         12.8115    2.4616   22.5382 C.3       1 UNL1        0.0000
     10 C10        11.8261    1.3158   24.5435 C.3       1 UNL1        0.0000
     11 C11        11.6135    3.4014   22.4989 C.3       1 UNL1        0.0000
     12 C12        10.6942    2.3457   24.5741 C.3       1 UNL1        0.0000
     13 C13        12.4339    1.1116   23.1498 C.3       1 UNL1        0.0000
     14 C14        10.3027   -3.4730   23.9370 C.3       1 UNL1        0.0000
     15 C15         7.1549    2.3327   23.5977 C.3       1 UNL1        0.0000
     16 C16        13.6482    0.1871   23.2184 C.3       1 UNL1        0.0000
     17 C17        10.1754    5.8022   23.1177 C.3       1 UNL1        0.0000
     18 N1         10.9973    3.5715   23.8191 N.am      1 UNL1        0.0000
     19 O1          9.3109    0.6724   23.5277 O.2       1 UNL1        0.0000
     20 O2         10.5834    5.2464   25.3833 O.2       1 UNL1        0.0000
     21 O3          8.4324    2.7291   24.1065 O.3       1 UNL1        0.0000
     22 Cl1         8.9616    6.8659   23.8191 Cl        1 UNL1        0.0000
@<TRIPOS>BOND
     1    1    2 ar
     2    1    3 ar
     3    2    5 ar
     4    3    6 ar
     5    4    5 ar
     6    4    6 ar
     7    5   14 1
     8    6   16 1
     9    7   12 1
    10    7   19 2
    11    7   21 1
    12    8   17 1
    13    8   18 am
    14    8   20 2
    15    9   11 1
    16    9   13 1
    17   10   12 1
    18   10   13 1
    19   11   18 1
    20   12   18 1
    21   13   16 1
    22   15   21 1
    23   17   22 1
@<TRIPOS>MOLECULE
JAR-IMP-ed4-2
   33    37     0     0     0
SMALL
NO_CHARGES

@<TRIPOS>ATOM
      1 C1          4.8357   -5.3159   27.3971 C.ar      1 UNL1        0.0000
      2 C2          5.7918   -6.3246   27.2782 C.ar      1 UNL1        0.0000
      3 C3          5.0215   -4.0982   26.7426 C.ar      1 UNL1        0.0000
      4 C4         10.3481    3.7132   24.8204 C.ar      1 UNL1        0.0000
      5 C5          9.0838    3.2679   24.4457 C.ar      1 UNL1        0.0000
      6 C6          6.9337   -6.1155   26.5050 C.ar      1 UNL1        0.0000
      7 C7          6.1634   -3.8891   25.9694 C.ar      1 UNL1        0.0000
      8 C8         11.4640    2.9056   24.6029 C.ar      1 UNL1        0.0000
      9 C9          8.9342    2.0153   23.8517 C.ar      1 UNL1        0.0000
     10 C10         7.1196   -4.8977   25.8505 C.ar      1 UNL1        0.0000
     11 C11        11.3278    1.6424   24.0075 C.ar      1 UNL1        0.0000
     12 C12        10.0506    1.1946   23.6245 C.ar      1 UNL1        0.0000
     13 C13         8.8428   -2.2884   25.9040 C.2       1 UNL1        0.0000
     14 C14         9.2416   -1.0372   25.3109 C.2       1 UNL1        0.0000
     15 C15         8.8103   -3.2392   24.9576 C.2       1 UNL1        0.0000
     16 C16         9.4458   -1.2018   23.9939 C.2       1 UNL1        0.0000
     17 C17        13.2035   -1.5800   23.2440 C.2       1 UNL1        0.0000
     18 C18         6.5204   -4.6922   21.8116 C.2       1 UNL1        0.0000
     19 C19        12.5629    0.8042   23.7888 C.3       1 UNL1        0.0000
     20 C20        11.1605   -0.5855   22.2693 C.3       1 UNL1        0.0000
     21 C21         8.1842   -5.2191   23.5716 C.3       1 UNL1        0.0000
     22 C22         8.0988   -2.8888   22.6091 C.3       1 UNL1        0.0000
     23 C23         8.3641   -4.6691   25.0078 C.3       1 UNL1        0.0000
     24 C24         9.8715   -0.1684   22.9898 C.3       1 UNL1        0.0000
     25 C25         9.2133   -2.6476   23.6289 C.3       1 UNL1        0.0000
     26 C26        14.4614   -1.3530   24.0463 C.3       1 UNL1        0.0000
     27 C27         6.1346   -6.1471   21.9292 C.3       1 UNL1        0.0000
     28 N1         12.3206   -0.5001   23.1585 N.am      1 UNL1        0.0000
     29 N2          7.5551   -4.2611   22.6475 N.am      1 UNL1        0.0000
     30 O1         13.0100   -2.6790   22.7189 O.2       1 UNL1        0.0000
     31 O2          5.9305   -3.9698   21.0050 O.2       1 UNL1        0.0000
     32 Cl1        14.0797   -1.7791   25.7104 Cl        1 UNL1        0.0000
     33 Cl2         4.9048   -6.2423   23.1847 Cl        1 UNL1        0.0000
@<TRIPOS>BOND
     1    1    2 ar
     2    1    3 ar
     3    2    6 ar
     4    3    7 ar
     5    4    5 ar
     6    4    8 ar
     7    5    9 ar
     8    6   10 ar
     9    7   10 ar
    10    8   11 ar
    11    9   12 ar
    12   10   23 1
    13   11   12 ar
    14   11   19 1
    15   12   24 1
    16   13   14 1
    17   13   15 2
    18   14   16 2
    19   15   23 1
    20   15   25 1
    21   16   24 1
    22   16   25 1
    23   17   26 1
    24   17   28 am
    25   17   30 2
    26   18   27 1
    27   18   29 am
    28   18   31 2
    29   19   28 1
    30   20   24 1
    31   20   28 1
    32   21   23 1
    33   21   29 1
    34   22   25 1
    35   22   29 1
    36   26   32 1
    37   27   33 1
@<TRIPOS>MOLECULE
DAR-DIA-cab-1
   21    23     0     0     0
SMALL
NO_CHARGES

@<TRIPOS>ATOM
      1 C1          8.2843   -4.6936   25.5794 C.ar      1 UNL1        0.0000
      2 C2          9.6348   -4.3736   25.4903 C.ar      1 UNL1        0.0000
      3 C3         12.6565    0.3900   22.4625 C.ar      1 UNL1        0.0000
      4 C4          7.3821   -4.1574   24.6630 C.ar      1 UNL1        0.0000
      5 C5         10.0826   -3.5042   24.4951 C.ar      1 UNL1        0.0000
      6 C6         11.7023   -0.5383   22.0460 C.ar      1 UNL1        0.0000
      7 C7         12.6333    0.8751   23.7701 C.ar      1 UNL1        0.0000
      8 C8         10.7017   -0.4962   24.2447 C.ar      1 UNL1        0.0000
      9 C9         10.7249   -0.9814   22.9371 C.ar      1 UNL1        0.0000
     10 C10         7.8215   -3.2918   23.6491 C.ar      1 UNL1        0.0000
     11 C11         9.1827   -2.9275   23.5813 C.ar      1 UNL1        0.0000
     12 C12        11.6560    0.4320   24.6612 C.ar      1 UNL1        0.0000
     13 C13         6.9730   -2.5059   20.2101 C.2       1 UNL1        0.0000
     14 C14         6.8099   -2.7520   22.6683 C.3       1 UNL1        0.0000
     15 C15         8.5345   -1.2516   21.7722 C.3       1 UNL1        0.0000
     16 C16         9.6837   -1.9950   22.4812 C.3       1 UNL1        0.0000
     17 C17         7.6841   -1.8654   19.0448 C.3       1 UNL1        0.0000
     18 N1          7.4383   -2.1756   21.4816 N.am      1 UNL1        0.0000
     19 O1          6.0346   -3.2774   19.9952 O.2       1 UNL1        0.0000
     20 F1         11.6333    0.8981   25.9167 F         1 UNL1        0.0000
     21 Cl1         6.8234   -0.3720   18.6898 Cl        1 UNL1        0.0000
@<TRIPOS>BOND
     1    1    2 ar
     2    1    4 ar
     3    2    5 ar
     4    3    6 ar
     5    3    7 ar
     6    4   10 ar
     7    5   11 ar
     8    6    9 ar
     9    7   12 ar
    10    8    9 ar
    11    8   12 ar
    12    9   16 1
    13   10   11 ar
    14   10   14 1
    15   11   16 1
    16   12   20 1
    17   13   17 1
    18   13   18 am
    19   13   19 2
    20   14   18 1
    21   15   16 1
    22   15   18 1
    23   17   21 1
@<TRIPOS>MOLECULE
FOC-CAS-e3a-1
   24    26     0     0     0
SMALL
NO_CHARGES

@<TRIPOS>ATOM
      1 C1          5.2683    1.1451   19.3073 C.ar      1 UNL1        0.0000
      2 C2          8.4871   -4.0776   23.3403 C.ar      1 UNL1        0.0000
      3 C3          6.4191   -3.2547   22.4005 C.ar      1 UNL1        0.0000
      4 C4          5.9390    0.6112   20.4020 C.ar      1 UNL1        0.0000
      5 C5          8.1723   -5.3651   22.9057 C.ar      1 UNL1        0.0000
      6 C6          6.1043   -4.5421   21.9658 C.ar      1 UNL1        0.0000
      7 C7          5.7748    0.8819   18.0448 C.ar      1 UNL1        0.0000
      8 C8          7.5050   -0.3638   18.9009 C.ar      1 UNL1        0.0000
      9 C9          7.6105   -3.0224   23.0878 C.ar      1 UNL1        0.0000
     10 C10         7.0797   -0.1587   20.2036 C.ar      1 UNL1        0.0000
     11 C11         6.9809   -5.5974   22.2184 C.ar      1 UNL1        0.0000
     12 C12         7.0407    1.9766   23.0161 C.2       1 UNL1        0.0000
     13 C13         9.2362    0.9355   23.4361 C.3       1 UNL1        0.0000
     14 C14         9.6991   -0.2203   24.3065 C.3       1 UNL1        0.0000
     15 C15         7.9527   -1.6212   23.5597 C.3       1 UNL1        0.0000
     16 C16         7.3677   -0.5189   22.6544 C.3       1 UNL1        0.0000
     17 C17         7.7515    3.2409   22.6013 C.3       1 UNL1        0.0000
     18 N1          6.8799    0.1385   17.8126 N.ar      1 UNL1        0.0000
     19 N2          7.8173    0.8165   23.0886 N.am      1 UNL1        0.0000
     20 N3          7.7664   -0.7020   21.2716 N.pl3     1 UNL1        0.0000
     21 O1          5.8321    2.0163   23.2608 O.2       1 UNL1        0.0000
     22 O2          9.3710   -1.4666   23.6956 O.3       1 UNL1        0.0000
     23 F1          6.6798   -6.8332   21.7986 F         1 UNL1        0.0000
     24 Cl1         7.5364    4.3928   23.9144 Cl        1 UNL1        0.0000
@<TRIPOS>BOND
     1    1    4 ar
     2    1    7 ar
     3    2    5 ar
     4    2    9 ar
     5    3    6 ar
     6    3    9 ar
     7    4   10 ar
     8    5   11 ar
     9    6   11 ar
    10    7   18 ar
    11    8   10 ar
    12    8   18 ar
    13    9   15 1
    14   10   20 1
    15   11   23 1
    16   12   17 1
    17   12   19 am
    18   12   21 2
    19   13   14 1
    20   13   19 1
    21   14   22 1
    22   15   16 1
    23   15   22 1
    24   16   19 1
    25   16   20 1
    26   17   24 1
@<TRIPOS>MOLECULE
HAN-NEW-5f5-4
   31    33     0     0     0
SMALL
NO_CHARGES

@<TRIPOS>ATOM
      1 C1         12.7499    5.9637   25.5966 C.ar      1 UNL1        0.0000
      2 C2         11.5391    6.6620   25.5233 C.ar      1 UNL1        0.0000
      3 C3         13.1555    5.1285   24.5576 C.ar      1 UNL1        0.0000
      4 C4          9.1739    6.5340   22.7394 C.2       1 UNL1        0.0000
      5 C5         10.7275    6.5124   24.3813 C.ar      1 UNL1        0.0000
      6 C6         12.3671    4.9644   23.4151 C.ar      1 UNL1        0.0000
      7 C7          9.4734    7.0511   23.9787 C.2       1 UNL1        0.0000
      8 C8         11.1593    5.6687   23.3556 C.ar      1 UNL1        0.0000
      9 C9         13.3481   -0.7251   22.1174 C.2       1 UNL1        0.0000
     10 C10         8.3758    0.3727   24.2751 C.2       1 UNL1        0.0000
     11 C11         7.9538    4.9943   26.0249 C.2       1 UNL1        0.0000
     12 C12         9.8066   -1.1566   22.9564 C.3       1 UNL1        0.0000
     13 C13        10.8835   -0.6982   21.9815 C.3       1 UNL1        0.0000
     14 C14        10.8592    0.1247   24.7667 C.3       1 UNL1        0.0000
     15 C15        11.9851    0.5857   23.8277 C.3       1 UNL1        0.0000
     16 C16        14.5941   -0.3345   22.8727 C.3       1 UNL1        0.0000
     17 C17         8.3527    4.1153   27.1636 C.3       1 UNL1        0.0000
     18 C18        12.8366    4.0528   22.3094 C.3       1 UNL1        0.0000
     19 C19         8.6356    7.9952   24.7457 C.3       1 UNL1        0.0000
     20 C20         8.0933    0.7853   25.6975 C.3       1 UNL1        0.0000
     21 C21        11.7706    2.0263   23.3535 C.3       1 UNL1        0.0000
     22 C22        13.0653    2.6262   22.8166 C.3       1 UNL1        0.0000
     23 C23         7.4140    7.3449   25.4202 C.3       1 UNL1        0.0000
     24 N1         10.1966    5.7011   22.3720 N.pl3     1 UNL1        0.0000
     25 N2          9.6319   -0.1742   24.0235 N.am      1 UNL1        0.0000
     26 N3         12.1268   -0.3319   22.6728 N.am      1 UNL1        0.0000
     27 N4          7.7933    6.3281   26.3642 N.am      1 UNL1        0.0000
     28 O1         13.4567   -1.3687   21.0702 O.2       1 UNL1        0.0000
     29 O2          7.5067    0.5352   23.4149 O.2       1 UNL1        0.0000
     30 O3          7.8008    4.5076   24.9108 O.2       1 UNL1        0.0000
     31 Cl1         6.3559    0.6291   25.9320 Cl        1 UNL1        0.0000
@<TRIPOS>BOND
     1    1    2 ar
     2    1    3 ar
     3    2    5 ar
     4    3    6 ar
     5    4    7 2
     6    4   24 1
     7    5    7 1
     8    5    8 ar
     9    6    8 ar
    10    6   18 1
    11    7   19 1
    12    8   24 1
    13    9   16 1
    14    9   26 am
    15    9   28 2
    16   10   20 1
    17   10   25 am
    18   10   29 2
    19   11   17 1
    20   11   27 am
    21   11   30 2
    22   12   13 1
    23   12   25 1
    24   13   26 1
    25   14   15 1
    26   14   25 1
    27   15   21 1
    28   15   26 1
    29   18   22 1
    30   19   23 1
    31   20   31 1
    32   21   22 1
    33   23   27 1
@<TRIPOS>MOLECULE
NIR-THE-c33-6
   21    23     0     0     0
SMALL
NO_CHARGES

@<TRIPOS>ATOM
      1 C1         13.9820   -1.7581   22.3309 C.ar      1 UNL1        0.0000
      2 C2         14.6423   -0.5526   22.5397 C.ar      1 UNL1        0.0000
      3 C3         12.8921    4.3430   21.8326 C.ar      1 UNL1        0.0000
      4 C4         12.6609   -1.9059   22.7475 C.ar      1 UNL1        0.0000
      5 C5         13.9769    0.5116   23.1494 C.ar      1 UNL1        0.0000
      6 C6         12.5867    3.0790   22.3370 C.ar      1 UNL1        0.0000
      7 C7         12.8547    5.4566   22.6717 C.ar      1 UNL1        0.0000
      8 C8         12.2061    4.0421   24.5198 C.ar      1 UNL1        0.0000
      9 C9         12.2436    2.9285   23.6806 C.ar      1 UNL1        0.0000
     10 C10        11.9826   -0.8463   23.3716 C.ar      1 UNL1        0.0000
     11 C11        12.6324    0.3929   23.5442 C.ar      1 UNL1        0.0000
     12 C12        12.5116    5.3061   24.0154 C.ar      1 UNL1        0.0000
     13 C13         9.1644   -0.1603   25.7414 C.2       1 UNL1        0.0000
     14 C14        10.5630   -1.0764   23.8326 C.3       1 UNL1        0.0000
     15 C15        10.3854    1.3530   24.2165 C.3       1 UNL1        0.0000
     16 C16        11.9118    1.5483   24.2307 C.3       1 UNL1        0.0000
     17 C17        12.4709    6.4971   24.9125 C.3       1 UNL1        0.0000
     18 C18         9.2793   -1.4578   26.5021 C.3       1 UNL1        0.0000
     19 N1         10.0349    0.0088   24.6643 N.am      1 UNL1        0.0000
     20 O1          8.3302    0.6762   26.0968 O.2       1 UNL1        0.0000
     21 Cl1         8.1549   -2.5830   25.7495 Cl        1 UNL1        0.0000
@<TRIPOS>BOND
     1    1    2 ar
     2    1    4 ar
     3    2    5 ar
     4    3    6 ar
     5    3    7 ar
     6    4   10 ar
     7    5   11 ar
     8    6    9 ar
     9    7   12 ar
    10    8    9 ar
    11    8   12 ar
    12    9   16 1
    13   10   11 ar
    14   10   14 1
    15   11   16 1
    16   12   17 1
    17   13   18 1
    18   13   19 am
    19   13   20 2
    20   14   19 1
    21   15   16 1
    22   15   19 1
    23   18   21 1
@<TRIPOS>MOLECULE
MIH-UNI-e57-10
   21    23     0     0     0
SMALL
NO_CHARGES

@<TRIPOS>ATOM
      1 C1         14.7771   -1.4767   24.0928 C.ar      1 UNL1        0.0000
      2 C2         14.1053   -0.4369   24.7355 C.ar      1 UNL1        0.0000
      3 C3         14.1148   -2.2518   23.1408 C.ar      1 UNL1        0.0000
      4 C4         12.7711   -0.1722   24.4263 C.ar      1 UNL1        0.0000
      5 C5         12.7807   -1.9871   22.8316 C.ar      1 UNL1        0.0000
      6 C6          9.8723   -1.3493   25.4653 C.ar      1 UNL1        0.0000
      7 C7          8.9335   -1.9116   26.3310 C.ar      1 UNL1        0.0000
      8 C8          7.4703   -2.3329   24.4649 C.ar      1 UNL1        0.0000
      9 C9         12.1088   -0.9473   23.4743 C.ar      1 UNL1        0.0000
     10 C10         9.6366   -1.2940   24.0800 C.ar      1 UNL1        0.0000
     11 C11         8.4021   -1.7602   23.5838 C.ar      1 UNL1        0.0000
     12 C12         7.7366   -2.4112   25.8301 C.ar      1 UNL1        0.0000
     13 C13         8.6251   -0.0428   20.2627 C.2       1 UNL1        0.0000
     14 C14         8.0435   -1.6717   22.1194 C.3       1 UNL1        0.0000
     15 C15        10.3875   -1.0501   21.6718 C.3       1 UNL1        0.0000
     16 C16        10.6526   -0.6591   23.1365 C.3       1 UNL1        0.0000
     17 C17         7.4243   -0.4728   19.4573 C.3       1 UNL1        0.0000
     18 N1          8.9798   -0.8606   21.3360 N.am      1 UNL1        0.0000
     19 O1          9.2247    0.9885   19.9489 O.2       1 UNL1        0.0000
     20 O2          6.8277   -2.9752   26.6706 O.3       1 UNL1        0.0000
     21 Cl1         6.2363    0.8178   19.5977 Cl        1 UNL1        0.0000
@<TRIPOS>BOND
     1    1    2 ar
     2    1    3 ar
     3    2    4 ar
     4    3    5 ar
     5    4    9 ar
     6    5    9 ar
     7    6    7 ar
     8    6   10 ar
     9    7   12 ar
    10    8   11 ar
    11    8   12 ar
    12    9   16 1
    13   10   11 ar
    14   10   16 1
    15   11   14 1
    16   12   20 1
    17   13   17 1
    18   13   18 am
    19   13   19 2
    20   14   18 1
    21   15   16 1
    22   15   18 1
    23   17   21 1
@<TRIPOS>MOLECULE
JOO-PER-58e-1
   22    24     0     0     0
SMALL
NO_CHARGES

@<TRIPOS>ATOM
      1 C1          9.9943    0.0047   24.6570 C.ar      1 UNL1        0.0000
      2 C2         13.2494    1.1891   23.3397 C.ar      1 UNL1        0.0000
      3 C3         12.6327   -0.8290   22.1660 C.ar      1 UNL1        0.0000
      4 C4          9.7752    0.9991   25.5980 C.ar      1 UNL1        0.0000
      5 C5         11.7435    2.0611   25.0758 C.ar      1 UNL1        0.0000
      6 C6         11.1632    0.0584   23.8890 C.ar      1 UNL1        0.0000
      7 C7         12.0705    1.1172   24.1002 C.ar      1 UNL1        0.0000
      8 C8         11.4581   -0.9103   22.9158 C.ar      1 UNL1        0.0000
      9 C9         13.5264    0.2184   22.3774 C.ar      1 UNL1        0.0000
     10 C10         6.3426   -1.0160   19.1761 C.2       1 UNL1        0.0000
     11 C11         7.0058   -2.2823   21.1955 C.3       1 UNL1        0.0000
     12 C12         7.8131    0.0347   20.9654 C.3       1 UNL1        0.0000
     13 C13         8.4105   -2.7600   21.5336 C.3       1 UNL1        0.0000
     14 C14         9.2306   -0.4081   21.3021 C.3       1 UNL1        0.0000
     15 C15        10.5379   -2.0627   22.6395 C.3       1 UNL1        0.0000
     16 C16         6.4388    0.2695   18.3940 C.3       1 UNL1        0.0000
     17 N1         10.6201    2.0268   25.8274 N.ar      1 UNL1        0.0000
     18 N2          7.0454   -1.0691   20.3790 N.am      1 UNL1        0.0000
     19 N3          9.1703   -1.6299   22.1915 N.4       1 UNL1        0.0000
     20 O1          5.6649   -1.9448   18.7286 O.2       1 UNL1        0.0000
     21 Cl1        14.9735    0.3150   21.4506 Cl        1 UNL1        0.0000
     22 Cl2         5.7707    1.5343   19.4195 Cl        1 UNL1        0.0000
@<TRIPOS>BOND
     1    1    4 ar
     2    1    6 ar
     3    2    7 ar
     4    2    9 ar
     5    3    8 ar
     6    3    9 ar
     7    4   17 ar
     8    5    7 ar
     9    5   17 ar
    10    6    7 ar
    11    6    8 ar
    12    8   15 1
    13    9   21 1
    14   10   16 1
    15   10   18 am
    16   10   20 2
    17   11   13 1
    18   11   18 1
    19   12   14 1
    20   12   18 1
    21   13   19 1
    22   14   19 1
    23   15   19 1
    24   16   22 1
@<TRIPOS>MOLECULE
DAR-DIA-fb2-11
   27    29     0     0     0
SMALL
NO_CHARGES

@<TRIPOS>ATOM
      1 C1         11.1922    0.5380   25.3096 C.ar      1 UNL1        0.0000
      2 C2          9.5401   -1.2320   25.1221 C.ar      1 UNL1        0.0000
      3 C3         12.5050    0.2024   21.9149 C.2       1 UNL1        0.0000
      4 C4         11.5933    0.2927   23.9814 C.ar      1 UNL1        0.0000
      5 C5          9.9211   -1.4933   23.8029 C.ar      1 UNL1        0.0000
      6 C6         12.5719    0.8630   23.1199 C.2       1 UNL1        0.0000
      7 C7         10.9499   -0.7153   23.2601 C.ar      1 UNL1        0.0000
      8 C8         10.1645   -0.2325   25.8657 C.ar      1 UNL1        0.0000
      9 C9          6.1129   -2.0675   19.0248 C.2       1 UNL1        0.0000
     10 C10        11.6297    4.5474   24.4259 C.2       1 UNL1        0.0000
     11 C11         7.2604   -3.4629   20.7135 C.3       1 UNL1        0.0000
     12 C12         7.6381   -1.0241   20.7709 C.3       1 UNL1        0.0000
     13 C13         7.0125   -3.4791   22.2148 C.3       1 UNL1        0.0000
     14 C14         7.3978   -1.0073   22.2747 C.3       1 UNL1        0.0000
     15 C15        10.2056    4.8918   24.7120 C.3       1 UNL1        0.0000
     16 C16        13.4974    1.9658   23.4494 C.3       1 UNL1        0.0000
     17 C17         9.2272   -2.5772   23.0317 C.3       1 UNL1        0.0000
     18 C18         6.3553   -0.9127   18.0858 C.3       1 UNL1        0.0000
     19 C19        13.1001    3.3221   22.8388 C.3       1 UNL1        0.0000
     20 N1         11.5236   -0.7476   22.0091 N.pl3     1 UNL1        0.0000
     21 N2          6.9486   -2.1541   20.1382 N.am      1 UNL1        0.0000
     22 N3         11.8106    3.7657   23.2962 N.am      1 UNL1        0.0000
     23 N4          7.7484   -2.3433   22.8869 N.4       1 UNL1        0.0000
     24 O1          5.2061   -2.8661   18.7758 O.2       1 UNL1        0.0000
     25 O2         12.5120    4.9581   25.1706 O.2       1 UNL1        0.0000
     26 F1          9.7771   -0.0051   27.1283 F         1 UNL1        0.0000
     27 Cl1         5.3287    0.4072   18.6352 Cl        1 UNL1        0.0000
@<TRIPOS>BOND
     1    1    4 ar
     2    1    8 ar
     3    2    5 ar
     4    2    8 ar
     5    3    6 2
     6    3   20 1
     7    4    6 1
     8    4    7 ar
     9    5    7 ar
    10    5   17 1
    11    6   16 1
    12    7   20 1
    13    8   26 1
    14    9   18 1
    15    9   21 am
    16    9   24 2
    17   10   15 1
    18   10   22 am
    19   10   25 2
    20   11   13 1
    21   11   21 1
    22   12   14 1
    23   12   21 1
    24   13   23 1
    25   14   23 1
    26   16   19 1
    27   17   23 1
    28   18   27 1
    29   19   22 1
@<TRIPOS>MOLECULE
JOO-PER-d7a-1
   27    29     0     0     0
SMALL
NO_CHARGES

@<TRIPOS>ATOM
      1 C1         11.1922    0.5380   25.3096 C.ar      1 UNL1        0.0000
      2 C2          9.5401   -1.2320   25.1221 C.ar      1 UNL1        0.0000
      3 C3         12.5050    0.2024   21.9149 C.2       1 UNL1        0.0000
      4 C4         11.5933    0.2927   23.9814 C.ar      1 UNL1        0.0000
      5 C5          9.9211   -1.4933   23.8029 C.ar      1 UNL1        0.0000
      6 C6         12.5719    0.8630   23.1199 C.2       1 UNL1        0.0000
      7 C7         10.9499   -0.7153   23.2601 C.ar      1 UNL1        0.0000
      8 C8         10.1645   -0.2325   25.8657 C.ar      1 UNL1        0.0000
      9 C9          6.1129   -2.0675   19.0248 C.2       1 UNL1        0.0000
     10 C10        11.6297    4.5474   24.4259 C.2       1 UNL1        0.0000
     11 C11         7.2604   -3.4629   20.7135 C.3       1 UNL1        0.0000
     12 C12         7.6381   -1.0241   20.7709 C.3       1 UNL1        0.0000
     13 C13         7.0125   -3.4791   22.2148 C.3       1 UNL1        0.0000
     14 C14         7.3978   -1.0073   22.2747 C.3       1 UNL1        0.0000
     15 C15        10.2056    4.8918   24.7120 C.3       1 UNL1        0.0000
     16 C16        13.4974    1.9658   23.4494 C.3       1 UNL1        0.0000
     17 C17         9.2272   -2.5772   23.0317 C.3       1 UNL1        0.0000
     18 C18         6.3553   -0.9127   18.0858 C.3       1 UNL1        0.0000
     19 C19        13.1001    3.3221   22.8388 C.3       1 UNL1        0.0000
     20 N1         11.5236   -0.7476   22.0091 N.pl3     1 UNL1        0.0000
     21 N2          6.9486   -2.1541   20.1382 N.am      1 UNL1        0.0000
     22 N3         11.8106    3.7657   23.2962 N.am      1 UNL1        0.0000
     23 N4          7.7484   -2.3433   22.8869 N.4       1 UNL1        0.0000
     24 O1          5.2061   -2.8661   18.7758 O.2       1 UNL1        0.0000
     25 O2         12.5120    4.9581   25.1706 O.2       1 UNL1        0.0000
     26 F1          9.7771   -0.0051   27.1283 F         1 UNL1        0.0000
     27 Cl1         5.3287    0.4072   18.6352 Cl        1 UNL1        0.0000
@<TRIPOS>BOND
     1    1    4 ar
     2    1    8 ar
     3    2    5 ar
     4    2    8 ar
     5    3    6 2
     6    3   20 1
     7    4    6 1
     8    4    7 ar
     9    5    7 ar
    10    5   17 1
    11    6   16 1
    12    7   20 1
    13    8   26 1
    14    9   18 1
    15    9   21 am
    16    9   24 2
    17   10   15 1
    18   10   22 am
    19   10   25 2
    20   11   13 1
    21   11   21 1
    22   12   14 1
    23   12   21 1
    24   13   23 1
    25   14   23 1
    26   16   19 1
    27   17   23 1
    28   18   27 1
    29   19   22 1
@<TRIPOS>MOLECULE
SEA-TRI-67e-1
   31    34     0     0     0
SMALL
NO_CHARGES

@<TRIPOS>ATOM
      1 C1         10.4246    1.1816   26.3426 C.ar      1 UNL1        0.0000
      2 C2         11.5526    1.5645   25.6163 C.ar      1 UNL1        0.0000
      3 C3          9.6302    0.1309   25.8934 C.ar      1 UNL1        0.0000
      4 C4         13.0322    1.2713   23.6856 C.ar      1 UNL1        0.0000
      5 C5         12.5684   -0.4514   22.0593 C.ar      1 UNL1        0.0000
      6 C6         11.9004    0.8994   24.4293 C.ar      1 UNL1        0.0000
      7 C7         11.0925   -0.1691   23.9726 C.ar      1 UNL1        0.0000
      8 C8         11.4403   -0.8343   22.7855 C.ar      1 UNL1        0.0000
      9 C9          9.9607   -0.5410   24.7163 C.ar      1 UNL1        0.0000
     10 C10        13.3628    0.5994   22.5085 C.ar      1 UNL1        0.0000
     11 C11         6.0971   -1.2642   19.1466 C.2       1 UNL1        0.0000
     12 C12         7.0063   -2.3864   21.1553 C.3       1 UNL1        0.0000
     13 C13         7.7043   -0.0651   20.7109 C.3       1 UNL1        0.0000
     14 C14         8.4540   -2.8018   21.3728 C.3       1 UNL1        0.0000
     15 C15         9.1633   -0.4454   20.9237 C.3       1 UNL1        0.0000
     16 C16         5.2207   -2.7559   24.6862 C.3       1 UNL1        0.0000
     17 C17         6.8897   -4.4350   23.9157 C.3       1 UNL1        0.0000
     18 C18         4.5755   -3.8664   25.4981 C.3       1 UNL1        0.0000
     19 C19         6.1572   -5.4575   24.7682 C.3       1 UNL1        0.0000
     20 C20        10.6572   -1.9776   22.2107 C.3       1 UNL1        0.0000
     21 C21         6.0682   -0.0260   18.2865 C.3       1 UNL1        0.0000
     22 C22         7.5381   -2.7600   25.6926 C.3       1 UNL1        0.0000
     23 C23         8.9878   -2.6404   25.2657 C.3       1 UNL1        0.0000
     24 N1          6.9201   -1.2241   20.2712 N.am      1 UNL1        0.0000
     25 N2          9.2367   -1.6124   21.8828 N.4       1 UNL1        0.0000
     26 N3          6.6882   -3.0517   24.4870 N.4       1 UNL1        0.0000
     27 O1          5.4104   -2.2375   18.8255 O.2       1 UNL1        0.0000
     28 O2          4.7705   -5.1305   24.8634 O.3       1 UNL1        0.0000
     29 O3          9.1275   -1.5586   24.3491 O.3       1 UNL1        0.0000
     30 Cl1        14.7542    1.0707   21.6115 Cl        1 UNL1        0.0000
     31 Cl2         4.7547    0.9772   18.8918 Cl        1 UNL1        0.0000
@<TRIPOS>BOND
     1    1    2 ar
     2    1    3 ar
     3    2    6 ar
     4    3    9 ar
     5    4    6 ar
     6    4   10 ar
     7    5    8 ar
     8    5   10 ar
     9    6    7 ar
    10    7    8 ar
    11    7    9 ar
    12    8   20 1
    13    9   29 1
    14   10   30 1
    15   11   21 1
    16   11   24 am
    17   11   27 2
    18   12   14 1
    19   12   24 1
    20   13   15 1
    21   13   24 1
    22   14   25 1
    23   15   25 1
    24   16   18 1
    25   16   26 1
    26   17   19 1
    27   17   26 1
    28   18   28 1
    29   19   28 1
    30   20   25 1
    31   21   31 1
    32   22   23 1
    33   22   26 1
    34   23   29 1
@<TRIPOS>MOLECULE
MIH-UNI-e57-8
   22    24     0     0     0
SMALL
NO_CHARGES

@<TRIPOS>ATOM
      1 C1          7.9251   -5.0487   25.1917 C.ar      1 UNL1        0.0000
      2 C2          8.7796   -4.0713   25.6857 C.ar      1 UNL1        0.0000
      3 C3         12.7448   -0.3530   22.2428 C.ar      1 UNL1        0.0000
      4 C4          7.5537   -5.0244   23.8515 C.ar      1 UNL1        0.0000
      5 C5         12.7180    0.5151   23.3342 C.ar      1 UNL1        0.0000
      6 C6          9.2793   -3.0807   24.8356 C.ar      1 UNL1        0.0000
      7 C7         11.6649   -1.2019   22.0001 C.ar      1 UNL1        0.0000
      8 C8         10.5314   -0.3148   23.9404 C.ar      1 UNL1        0.0000
      9 C9          8.0396   -4.0230   22.9953 C.ar      1 UNL1        0.0000
     10 C10        11.6113    0.5342   24.1831 C.ar      1 UNL1        0.0000
     11 C11        10.5583   -1.1828   22.8489 C.ar      1 UNL1        0.0000
     12 C12         8.9490   -3.0485   23.4668 C.ar      1 UNL1        0.0000
     13 C13         6.7576   -2.0752   20.2720 C.2       1 UNL1        0.0000
     14 C14         7.5892   -4.0145   21.5593 C.3       1 UNL1        0.0000
     15 C15         9.1385   -2.1567   21.1652 C.3       1 UNL1        0.0000
     16 C16        11.5833    1.4619   25.3503 C.3       1 UNL1        0.0000
     17 C17         6.7329   -0.5677   20.3004 C.3       1 UNL1        0.0000
     18 N1          9.4594   -2.0464   22.6017 N.pl3     1 UNL1        0.0000
     19 N2          7.7924   -2.6974   20.9692 N.am      1 UNL1        0.0000
     20 N3         10.9917    2.7915   25.0346 N.4       1 UNL1        0.0000
     21 O1          5.8803   -2.6804   19.6504 O.2       1 UNL1        0.0000
     22 Cl1         7.7137   -0.0234   18.9446 Cl        1 UNL1        0.0000
@<TRIPOS>BOND
     1    1    2 ar
     2    1    4 ar
     3    2    6 ar
     4    3    5 ar
     5    3    7 ar
     6    4    9 ar
     7    5   10 ar
     8    6   12 ar
     9    7   11 ar
    10    8   10 ar
    11    8   11 ar
    12    9   12 ar
    13    9   14 1
    14   10   16 1
    15   11   18 1
    16   12   18 1
    17   13   17 1
    18   13   19 am
    19   13   21 2
    20   14   19 1
    21   15   18 1
    22   15   19 1
    23   16   20 1
    24   17   22 1
@<TRIPOS>MOLECULE
DAR-DIA-fb2-7
   23    25     0     0     0
SMALL
NO_CHARGES

@<TRIPOS>ATOM
      1 C1         13.6009    0.2571   22.3726 C.ar      1 UNL1        0.0000
      2 C2         12.9119   -0.8634   21.9181 C.ar      1 UNL1        0.0000
      3 C3         13.1112    0.9859   23.4568 C.ar      1 UNL1        0.0000
      4 C4         11.7306   -1.2594   22.5459 C.ar      1 UNL1        0.0000
      5 C5         11.4163    1.3236   25.1935 C.ar      1 UNL1        0.0000
      6 C6          9.5460   -0.1928   25.3667 C.ar      1 UNL1        0.0000
      7 C7         11.9237    0.6018   24.1008 C.ar      1 UNL1        0.0000
      8 C8         11.2231   -0.5376   23.6385 C.ar      1 UNL1        0.0000
      9 C9         10.0356   -0.9217   24.2825 C.ar      1 UNL1        0.0000
     10 C10        10.2350    0.9277   25.8213 C.ar      1 UNL1        0.0000
     11 C11         6.9650   -1.5156   19.3243 C.2       1 UNL1        0.0000
     12 C12         7.6689   -2.9344   21.2236 C.3       1 UNL1        0.0000
     13 C13         8.2260   -0.5307   21.3001 C.3       1 UNL1        0.0000
     14 C14         7.1512   -2.8794   22.6534 C.3       1 UNL1        0.0000
     15 C15         7.7180   -0.4434   22.7331 C.3       1 UNL1        0.0000
     16 C16         8.5450    1.1785   27.4757 C.3       1 UNL1        0.0000
     17 C17         9.2457   -2.1203   23.8461 C.3       1 UNL1        0.0000
     18 C18         7.4671   -0.4159   18.4229 C.3       1 UNL1        0.0000
     19 N1          7.5741   -1.6265   20.5742 N.am      1 UNL1        0.0000
     20 N2          7.8419   -1.7800   23.4265 N.4       1 UNL1        0.0000
     21 O1          6.0571   -2.2512   18.9287 O.2       1 UNL1        0.0000
     22 O2          9.7575    1.6375   26.8800 O.3       1 UNL1        0.0000
     23 Cl1         6.4679    0.9964   18.7467 Cl        1 UNL1        0.0000
@<TRIPOS>BOND
     1    1    2 ar
     2    1    3 ar
     3    2    4 ar
     4    3    7 ar
     5    4    8 ar
     6    5    7 ar
     7    5   10 ar
     8    6    9 ar
     9    6   10 ar
    10    7    8 ar
    11    8    9 ar
    12    9   17 1
    13   10   22 1
    14   11   18 1
    15   11   19 am
    16   11   21 2
    17   12   14 1
    18   12   19 1
    19   13   15 1
    20   13   19 1
    21   14   20 1
    22   15   20 1
    23   16   22 1
    24   17   20 1
    25   18   23 1
@<TRIPOS>MOLECULE
HAR-NEW-e34-5
   27    29     0     0     0
SMALL
NO_CHARGES

@<TRIPOS>ATOM
      1 C1         13.9348    2.2823   22.5295 C.ar      1 UNL1        0.0000
      2 C2         13.4273    3.5497   22.7901 C.ar      1 UNL1        0.0000
      3 C3         11.4477    2.5372   23.7318 C.ar      1 UNL1        0.0000
      4 C4         13.1950    1.1331   22.8594 C.ar      1 UNL1        0.0000
      5 C5         11.9336    1.2352   23.4921 C.ar      1 UNL1        0.0000
      6 C6         12.1812    3.6770   23.3871 C.ar      1 UNL1        0.0000
      7 C7         10.6384   -2.2001   23.2536 C.2       1 UNL1        0.0000
      8 C8          6.7572   -0.5111   19.7055 C.2       1 UNL1        0.0000
      9 C9         13.8004   -0.2158   22.5725 C.3       1 UNL1        0.0000
     10 C10        12.7012   -1.2443   22.3764 C.3       1 UNL1        0.0000
     11 C11         9.9681   -0.6664   21.3371 C.3       1 UNL1        0.0000
     12 C12         8.7583   -2.7778   21.7505 C.3       1 UNL1        0.0000
     13 C13         8.6359    0.0678   21.2102 C.3       1 UNL1        0.0000
     14 C14         7.4263   -2.0435   21.6236 C.3       1 UNL1        0.0000
     15 C15        11.7576   -1.2428   23.5762 C.3       1 UNL1        0.0000
     16 C16        10.1214    0.2183   24.8184 C.3       1 UNL1        0.0000
     17 C17         7.0352    0.8105   19.0351 C.3       1 UNL1        0.0000
     18 N1         11.2050    0.0916   23.8450 N.pl3     1 UNL1        0.0000
     19 N2          9.8219   -1.8640   22.1751 N.am      1 UNL1        0.0000
     20 N3          7.5727   -0.8463   20.7850 N.am      1 UNL1        0.0000
     21 N4         10.6784    5.5621   22.2499 N.pl3     1 UNL1        0.0000
     22 O1         10.4937   -3.2136   23.9420 O.2       1 UNL1        0.0000
     23 O2          5.8413   -1.2214   19.2831 O.2       1 UNL1        0.0000
     24 O3         10.5650    5.1552   24.7930 O.2       1 UNL1        0.0000
     25 O4         12.6288    6.2089   23.8038 O.2       1 UNL1        0.0000
     26 S1         11.5251    5.2643   23.7037 S.o2      1 UNL1        0.0000
     27 Cl1         5.8930    0.9500   17.7033 Cl        1 UNL1        0.0000
@<TRIPOS>BOND
     1    1    2 ar
     2    1    4 ar
     3    2    6 ar
     4    3    5 ar
     5    3    6 ar
     6    4    5 ar
     7    4    9 1
     8    5   18 1
     9    6   26 1
    10    7   15 1
    11    7   19 am
    12    7   22 2
    13    8   17 1
    14    8   20 am
    15    8   23 2
    16    9   10 1
    17   10   15 1
    18   11   13 1
    19   11   19 1
    20   12   14 1
    21   12   19 1
    22   13   20 1
    23   14   20 1
    24   15   18 1
    25   16   18 1
    26   17   27 1
    27   21   26 1
    28   24   26 2
    29   25   26 2
@<TRIPOS>MOLECULE
ANT-OPE-d97-1
   18    19     0     0     0
SMALL
NO_CHARGES

@<TRIPOS>ATOM
      1 C1         11.6197   -1.4067   22.1842 C.ar      1 UNL1        0.0000
      2 C2         10.7124   -0.8439   24.3515 C.ar      1 UNL1        0.0000
      3 C3         12.5785   -0.4035   22.3250 C.ar      1 UNL1        0.0000
      4 C4         11.6712    0.1592   24.4924 C.ar      1 UNL1        0.0000
      5 C5         10.6865   -1.6269   23.1974 C.ar      1 UNL1        0.0000
      6 C6         12.6043    0.3794   23.4791 C.ar      1 UNL1        0.0000
      7 C7          5.6576    0.4304   18.4431 C.2       1 UNL1        0.0000
      8 C8          6.0276   -0.8085   18.1118 C.2       1 UNL1        0.0000
      9 C9          5.8298   -1.8974   19.0894 C.2       1 UNL1        0.0000
     10 C10         7.3489   -0.6917   20.7514 C.3       1 UNL1        0.0000
     11 C11         6.2436   -2.8186   21.3369 C.3       1 UNL1        0.0000
     12 C12         8.6684   -1.2172   21.3043 C.3       1 UNL1        0.0000
     13 C13         7.5520   -3.3718   21.8791 C.3       1 UNL1        0.0000
     14 C14         9.6554   -2.7063   23.0468 C.3       1 UNL1        0.0000
     15 N1          6.4740   -1.7908   20.3196 N.am      1 UNL1        0.0000
     16 N2          8.3906   -2.2253   22.3933 N.4       1 UNL1        0.0000
     17 O1          5.1013   -2.8343   18.7580 O.2       1 UNL1        0.0000
     18 F1         13.5267    1.3411   23.6157 F         1 UNL1        0.0000
@<TRIPOS>BOND
     1    1    3 ar
     2    1    5 ar
     3    2    4 ar
     4    2    5 ar
     5    3    6 ar
     6    4    6 ar
     7    5   14 1
     8    6   18 1
     9    7    8 2
    10    8    9 1
    11    9   15 am
    12    9   17 2
    13   10   12 1
    14   10   15 1
    15   11   13 1
    16   11   15 1
    17   12   16 1
    18   13   16 1
    19   14   16 1
@<TRIPOS>MOLECULE
MAK-UNK-af8-6
   18    19     0     0     0
SMALL
NO_CHARGES

@<TRIPOS>ATOM
      1 C1         12.0390   -2.4304   23.3221 C.ar      1 UNL1        0.0000
      2 C2         12.9207   -2.8969   24.2971 C.ar      1 UNL1        0.0000
      3 C3         12.1579   -1.1267   22.8406 C.ar      1 UNL1        0.0000
      4 C4         14.0399   -0.7558   24.3093 C.ar      1 UNL1        0.0000
      5 C5         13.9211   -2.0596   24.7908 C.ar      1 UNL1        0.0000
      6 C6         13.1583   -0.2894   23.3342 C.ar      1 UNL1        0.0000
      7 C7          9.3431    4.9386   23.4125 C.2       1 UNL1        0.0000
      8 C8         10.9681    1.6994   23.6209 C.3       1 UNL1        0.0000
      9 C9         12.6215    3.5315   23.1121 C.3       1 UNL1        0.0000
     10 C10        10.1128    2.7148   24.3770 C.3       1 UNL1        0.0000
     11 C11        11.7342    4.5084   23.8799 C.3       1 UNL1        0.0000
     12 C12        12.4518    2.0975   23.6360 C.3       1 UNL1        0.0000
     13 C13        14.8643   -2.5596   25.8323 C.3       1 UNL1        0.0000
     14 C14        13.2859    1.1167   22.8154 C.3       1 UNL1        0.0000
     15 C15         9.7968    6.2918   22.9257 C.3       1 UNL1        0.0000
     16 N1         10.3375    4.0705   23.8618 N.am      1 UNL1        0.0000
     17 O1          8.1405    4.6642   23.3954 O.2       1 UNL1        0.0000
     18 Cl1        10.5722    7.0849   24.2923 Cl        1 UNL1        0.0000
@<TRIPOS>BOND
     1    1    2 ar
     2    1    3 ar
     3    2    5 ar
     4    3    6 ar
     5    4    5 ar
     6    4    6 ar
     7    5   13 1
     8    6   14 1
     9    7   15 1
    10    7   16 am
    11    7   17 2
    12    8   10 1
    13    8   12 1
    14    9   11 1
    15    9   12 1
    16   10   16 1
    17   11   16 1
    18   12   14 1
    19   15   18 1
@<TRIPOS>MOLECULE
ANT-OPE-c0c-1
   18    19     0     0     0
SMALL
NO_CHARGES

@<TRIPOS>ATOM
      1 C1         12.3993    1.6025   23.5750 C.ar      1 UNL1        0.0000
      2 C2         12.3560    0.9548   22.3404 C.ar      1 UNL1        0.0000
      3 C3         11.7763    1.0312   24.6846 C.ar      1 UNL1        0.0000
      4 C4         11.6897   -0.2642   22.2154 C.ar      1 UNL1        0.0000
      5 C5         11.1099   -0.1878   24.5595 C.ar      1 UNL1        0.0000
      6 C6         11.0666   -0.8356   23.3249 C.ar      1 UNL1        0.0000
      7 C7          6.0278    0.3075   17.9721 C.2       1 UNL1        0.0000
      8 C8          6.8704   -0.5224   18.5906 C.2       1 UNL1        0.0000
      9 C9          6.3265   -1.7213   19.2639 C.2       1 UNL1        0.0000
     10 C10         6.6855   -3.1703   22.8216 C.3       1 UNL1        0.0000
     11 C11         6.0743   -2.9839   21.4343 C.3       1 UNL1        0.0000
     12 C12         7.2989   -0.7850   21.3190 C.3       1 UNL1        0.0000
     13 C13         8.2003   -3.3335   22.8043 C.3       1 UNL1        0.0000
     14 C14         8.7489   -1.1789   21.5588 C.3       1 UNL1        0.0000
     15 C15        10.3496   -2.1466   23.1911 C.3       1 UNL1        0.0000
     16 N1          6.5496   -1.8448   20.6409 N.am      1 UNL1        0.0000
     17 N2          8.8925   -1.9896   22.8258 N.4       1 UNL1        0.0000
     18 O1          5.7171   -2.5392   18.5728 O.2       1 UNL1        0.0000
@<TRIPOS>BOND
     1    1    2 ar
     2    1    3 ar
     3    2    4 ar
     4    3    5 ar
     5    4    6 ar
     6    5    6 ar
     7    6   15 1
     8    7    8 2
     9    8    9 1
    10    9   16 am
    11    9   18 2
    12   10   11 1
    13   10   13 1
    14   11   16 1
    15   12   14 1
    16   12   16 1
    17   13   17 1
    18   14   17 1
    19   15   17 1
@<TRIPOS>MOLECULE
MIH-UNI-e57-11
   19    21     0     0     0
SMALL
NO_CHARGES

@<TRIPOS>ATOM
      1 C1         14.4689   -2.2527   23.2477 C.ar      1 UNL1        0.0000
      2 C2         14.5627   -1.4539   24.3836 C.ar      1 UNL1        0.0000
      3 C3         13.5313   -1.9524   22.2600 C.ar      1 UNL1        0.0000
      4 C4         13.7202   -0.3530   24.5322 C.ar      1 UNL1        0.0000
      5 C5         12.6757   -0.8489   22.3981 C.ar      1 UNL1        0.0000
      6 C6         12.7755   -0.0386   23.5431 C.ar      1 UNL1        0.0000
      7 C7          9.5522    0.7699   20.9645 C.2       1 UNL1        0.0000
      8 C8         11.6764   -0.5613   21.3047 C.3       1 UNL1        0.0000
      9 C9          8.3997    1.3360   25.2591 C.3       1 UNL1        0.0000
     10 C10         9.7040    1.9573   24.7818 C.3       1 UNL1        0.0000
     11 C11        11.3797    1.6708   22.3622 C.3       1 UNL1        0.0000
     12 C12         8.0968    0.1902   24.3088 C.3       1 UNL1        0.0000
     13 C13        11.8637    1.1557   23.7223 C.3       1 UNL1        0.0000
     14 C14        10.6973    0.8088   24.6311 C.3       1 UNL1        0.0000
     15 C15         9.1006   -0.3160   20.0190 C.3       1 UNL1        0.0000
     16 N1         10.8045    0.5930   21.5582 N.am      1 UNL1        0.0000
     17 O1          8.8150    1.7366   21.1727 O.2       1 UNL1        0.0000
     18 S1          9.7080   -0.5657   23.9558 S.3       1 UNL1        0.0000
     19 Cl1         7.3459   -0.3846   20.1337 Cl        1 UNL1        0.0000
@<TRIPOS>BOND
     1    1    2 ar
     2    1    3 ar
     3    2    4 ar
     4    3    5 ar
     5    4    6 ar
     6    5    6 ar
     7    5    8 1
     8    6   13 1
     9    7   15 1
    10    7   16 am
    11    7   17 2
    12    8   16 1
    13    9   10 1
    14    9   12 1
    15   10   14 1
    16   11   13 1
    17   11   16 1
    18   12   18 1
    19   13   14 1
    20   14   18 1
    21   15   19 1
@<TRIPOS>MOLECULE
DAR-DIA-fb2-10
   27    29     0     0     0
SMALL
NO_CHARGES

@<TRIPOS>ATOM
      1 C1         12.7158    1.4728   24.0553 C.ar      1 UNL1        0.0000
      2 C2         12.3849   -0.5629   22.7575 C.ar      1 UNL1        0.0000
      3 C3         11.5026    1.2316   24.6794 C.ar      1 UNL1        0.0000
      4 C4         10.7376    0.1038   24.3456 C.ar      1 UNL1        0.0000
      5 C5         11.1629   -0.8013   23.3891 C.ar      1 UNL1        0.0000
      6 C6         13.1548    0.5647   23.0876 C.ar      1 UNL1        0.0000
      7 C7          9.6535    1.3365   25.9837 C.2       1 UNL1        0.0000
      8 C8         10.7974    1.9885   25.7113 C.2       1 UNL1        0.0000
      9 C9          6.0850   -1.8131   19.4946 C.2       1 UNL1        0.0000
     10 C10        12.5033    4.9306   23.7398 C.2       1 UNL1        0.0000
     11 C11         9.4830    0.0834   25.1614 C.3       1 UNL1        0.0000
     12 C12         6.7617   -2.4673   21.7827 C.3       1 UNL1        0.0000
     13 C13         7.6540   -0.3591   20.8701 C.3       1 UNL1        0.0000
     14 C14         8.1562   -2.8928   22.2185 C.3       1 UNL1        0.0000
     15 C15         9.0626   -0.7523   21.2942 C.3       1 UNL1        0.0000
     16 C16        12.7791    4.7464   22.2844 C.3       1 UNL1        0.0000
     17 C17        10.3448   -2.0069   23.0313 C.3       1 UNL1        0.0000
     18 C18        11.3078    3.2445   26.3098 C.3       1 UNL1        0.0000
     19 C19         6.2076   -0.8170   18.3692 C.3       1 UNL1        0.0000
     20 C20        10.8351    4.4634   25.5235 C.3       1 UNL1        0.0000
     21 N1          6.8237   -1.5475   20.6467 N.am      1 UNL1        0.0000
     22 N2         11.2978    4.3982   24.1563 N.am      1 UNL1        0.0000
     23 N3          8.9819   -1.6580   22.5027 N.4       1 UNL1        0.0000
     24 O1          5.3562   -2.7982   19.3511 O.2       1 UNL1        0.0000
     25 O2         13.3228    5.5122   24.4412 O.2       1 UNL1        0.0000
     26 F1         14.3238    0.7720   22.4663 F         1 UNL1        0.0000
     27 Cl1         4.9280    0.3683   18.6040 Cl        1 UNL1        0.0000
@<TRIPOS>BOND
     1    1    3 ar
     2    1    6 ar
     3    2    5 ar
     4    2    6 ar
     5    3    4 ar
     6    3    8 1
     7    4    5 ar
     8    4   11 1
     9    5   17 1
    10    6   26 1
    11    7    8 2
    12    7   11 1
    13    8   18 1
    14    9   19 1
    15    9   21 am
    16    9   24 2
    17   10   16 1
    18   10   22 am
    19   10   25 2
    20   12   14 1
    21   12   21 1
    22   13   15 1
    23   13   21 1
    24   14   23 1
    25   15   23 1
    26   17   23 1
    27   18   20 1
    28   19   27 1
    29   20   22 1
@<TRIPOS>MOLECULE
MAK-UNK-af8-2
   20    21     0     0     0
SMALL
NO_CHARGES

@<TRIPOS>ATOM
      1 C1          9.7470   -2.4788   23.9414 C.ar      1 UNL1        0.0000
      2 C2         10.8579   -2.4644   23.0981 C.ar      1 UNL1        0.0000
      3 C3          9.3621   -1.3154   24.6079 C.ar      1 UNL1        0.0000
      4 C4         11.5841   -1.2867   22.9212 C.ar      1 UNL1        0.0000
      5 C5         10.0883   -0.1376   24.4310 C.ar      1 UNL1        0.0000
      6 C6         11.1993   -0.1233   23.5876 C.ar      1 UNL1        0.0000
      7 C7          8.6194    8.0999   24.4642 C.2       1 UNL1        0.0000
      8 C8         10.5171    7.3015   23.0922 C.3       1 UNL1        0.0000
      9 C9          8.6325    5.7592   23.4697 C.3       1 UNL1        0.0000
     10 C10        11.5102    6.2158   23.4801 C.3       1 UNL1        0.0000
     11 C11         9.5979    4.6489   23.8618 C.3       1 UNL1        0.0000
     12 C12        12.8918    3.7161   22.2787 C.3       1 UNL1        0.0000
     13 C13        11.9844    1.1510   23.3970 C.3       1 UNL1        0.0000
     14 C14         7.1119    8.1126   24.4976 C.3       1 UNL1        0.0000
     15 C15        11.1284    2.4176   23.5407 C.3       1 UNL1        0.0000
     16 C16        11.8848    3.7476   23.4219 C.3       1 UNL1        0.0000
     17 N1          9.2190    7.0785   23.7288 N.am      1 UNL1        0.0000
     18 N2         10.9159    4.8643   23.1519 N.4       1 UNL1        0.0000
     19 O1          9.2433    8.9709   25.0759 O.2       1 UNL1        0.0000
     20 Cl1         6.6299    7.1107   25.8620 Cl        1 UNL1        0.0000
@<TRIPOS>BOND
     1    1    2 ar
     2    1    3 ar
     3    2    4 ar
     4    3    5 ar
     5    4    6 ar
     6    5    6 ar
     7    6   13 1
     8    7   14 1
     9    7   17 am
    10    7   19 2
    11    8   10 1
    12    8   17 1
    13    9   11 1
    14    9   17 1
    15   10   18 1
    16   11   18 1
    17   12   16 1
    18   13   15 1
    19   14   20 1
    20   15   16 1
    21   16   18 1
@<TRIPOS>MOLECULE
PAU-UNI-b33-1
   30    33     0     0     0
SMALL
NO_CHARGES

@<TRIPOS>ATOM
      1 C1         14.7748   -1.1917   24.0149 C.ar      1 UNL1        0.0000
      2 C2         13.9782   -2.3189   24.2286 C.ar      1 UNL1        0.0000
      3 C3          5.6670    1.3495   19.2661 C.ar      1 UNL1        0.0000
      4 C4         14.2013    0.0519   23.7211 C.ar      1 UNL1        0.0000
      5 C5         12.5831   -2.2459   24.1572 C.ar      1 UNL1        0.0000
      6 C6          6.1589    0.5883   20.3206 C.ar      1 UNL1        0.0000
      7 C7          6.3066    1.2503   18.0410 C.ar      1 UNL1        0.0000
      8 C8          7.8280   -0.2653   18.8571 C.ar      1 UNL1        0.0000
      9 C9         12.8012    0.1434   23.6453 C.ar      1 UNL1        0.0000
     10 C10        12.0339   -0.9974   23.8633 C.ar      1 UNL1        0.0000
     11 C11         7.2598   -0.2371   20.1205 C.ar      1 UNL1        0.0000
     12 C12        10.7702    0.7658   23.4289 C.2       1 UNL1        0.0000
     13 C13         6.4686    2.6920   24.8393 C.2       1 UNL1        0.0000
     14 C14         9.1042   -1.4044   21.3705 C.2       1 UNL1        0.0000
     15 C15         8.4327    3.5065   21.9729 C.3       1 UNL1        0.0000
     16 C16         9.7175    2.7004   22.1719 C.3       1 UNL1        0.0000
     17 C17         7.8879    4.0159   23.3043 C.3       1 UNL1        0.0000
     18 C18         8.9298    2.1311   24.5136 C.3       1 UNL1        0.0000
     19 C19         9.5029    1.5732   23.1991 C.3       1 UNL1        0.0000
     20 C20         5.3589    3.6342   24.4462 C.3       1 UNL1        0.0000
     21 C21         9.2691   -2.2507   22.6224 C.3       1 UNL1        0.0000
     22 C22         9.5556   -1.3894   23.8514 C.3       1 UNL1        0.0000
     23 N1          7.3782    0.4597   17.8085 N.ar      1 UNL1        0.0000
     24 N2         11.9990    1.2287   23.3771 N.2       1 UNL1        0.0000
     25 N3         10.7390   -0.5700   23.7186 N.pl3     1 UNL1        0.0000
     26 N4          7.7136    2.9136   24.2520 N.am      1 UNL1        0.0000
     27 N5          7.7830   -1.0229   21.1738 N.am      1 UNL1        0.0000
     28 O1          6.2345    1.7885   25.6460 O.2       1 UNL1        0.0000
     29 O2         10.0806   -1.1119   20.6861 O.2       1 UNL1        0.0000
     30 Cl1         4.5929    2.9434   23.0201 Cl        1 UNL1        0.0000
@<TRIPOS>BOND
     1    1    2 ar
     2    1    4 ar
     3    2    5 ar
     4    3    6 ar
     5    3    7 ar
     6    4    9 ar
     7    5   10 ar
     8    6   11 ar
     9    7   23 ar
    10    8   11 ar
    11    8   23 ar
    12    9   10 ar
    13    9   24 1
    14   10   25 1
    15   11   27 1
    16   12   19 1
    17   12   24 2
    18   12   25 1
    19   13   20 1
    20   13   26 am
    21   13   28 2
    22   14   21 1
    23   14   27 am
    24   14   29 2
    25   15   16 1
    26   15   17 1
    27   16   19 1
    28   17   26 1
    29   18   19 1
    30   18   26 1
    31   20   30 1
    32   21   22 1
    33   22   25 1
@<TRIPOS>MOLECULE
WAR-XCH-72a-9
   25    27     0     0     0
SMALL
NO_CHARGES

@<TRIPOS>ATOM
      1 C1          6.3928   -5.2049   22.8557 C.2       1 UNL1        0.0000
      2 C2          7.0454   -4.8845   21.7365 C.2       1 UNL1        0.0000
      3 C3          6.5701   -3.7373   20.9372 C.2       1 UNL1        0.0000
      4 C4          7.9457   -4.1676   27.1579 C.3       1 UNL1        0.0000
      5 C5          8.0526   -4.9990   25.8833 C.3       1 UNL1        0.0000
      6 C6          7.9029   -2.6738   26.8515 C.3       1 UNL1        0.0000
      7 C7          8.0048   -0.4364   20.1464 C.3       1 UNL1        0.0000
      8 C8          9.2422   -4.5686   25.0281 C.3       1 UNL1        0.0000
      9 C9          9.0922   -2.2395   25.9978 C.3       1 UNL1        0.0000
     10 C10         8.9587   -0.2472   21.3224 C.3       1 UNL1        0.0000
     11 C11        11.8627    0.0484   24.1420 C.3       1 UNL1        0.0000
     12 C12        12.3964   -1.5732   22.2715 C.3       1 UNL1        0.0000
     13 C13        13.1994    0.7563   23.9097 C.3       1 UNL1        0.0000
     14 C14        13.7314   -0.8636   22.0368 C.3       1 UNL1        0.0000
     15 C15         6.7549   -1.2219   20.5447 C.3       1 UNL1        0.0000
     16 C16         8.0185   -2.3432   22.3628 C.3       1 UNL1        0.0000
     17 C17         9.1980   -3.0678   24.7102 C.3       1 UNL1        0.0000
     18 C18        11.3645   -0.6141   22.8599 C.3       1 UNL1        0.0000
     19 C19         9.2836   -1.5965   21.9545 C.3       1 UNL1        0.0000
     20 C20        14.2485   -0.1763   23.3024 C.3       1 UNL1        0.0000
     21 C21        10.4243   -2.6516   23.9003 C.3       1 UNL1        0.0000
     22 N1          7.0955   -2.4795   21.2294 N.am      1 UNL1        0.0000
     23 N2         10.1212   -1.3721   23.1623 N.4       1 UNL1        0.0000
     24 O1          5.7401   -3.9638   20.0550 O.2       1 UNL1        0.0000
     25 O2         14.6032   -1.1584   24.2739 O.3       1 UNL1        0.0000
@<TRIPOS>BOND
     1    1    2 2
     2    2    3 1
     3    3   22 am
     4    3   24 2
     5    4    5 1
     6    4    6 1
     7    5    8 1
     8    6    9 1
     9    7   10 1
    10    7   15 1
    11    8   17 1
    12    9   17 1
    13   10   19 1
    14   11   13 1
    15   11   18 1
    16   12   14 1
    17   12   18 1
    18   13   20 1
    19   14   20 1
    20   15   22 1
    21   16   19 1
    22   16   22 1
    23   17   21 1
    24   18   23 1
    25   19   23 1
    26   20   25 1
    27   21   23 1
@<TRIPOS>MOLECULE
SEA-TRI-f74-1
   25    27     0     0     0
SMALL
NO_CHARGES

@<TRIPOS>ATOM
      1 C1         14.2878   -2.0967   26.2938 C.ar      1 UNL1        0.0000
      2 C2         14.0469   -0.9389   25.5624 C.ar      1 UNL1        0.0000
      3 C3         13.3839   -3.1618   26.2682 C.ar      1 UNL1        0.0000
      4 C4         12.8917   -0.8174   24.7846 C.ar      1 UNL1        0.0000
      5 C5         11.9619   -1.8788   24.7410 C.ar      1 UNL1        0.0000
      6 C6         12.2258   -3.0330   25.4847 C.ar      1 UNL1        0.0000
      7 C7         10.1653   -3.0449   24.2120 C.2       1 UNL1        0.0000
      8 C8          7.2432   -4.0180   20.3758 C.2       1 UNL1        0.0000
      9 C9          6.6775   -4.7133   23.8303 C.3       1 UNL1        0.0000
     10 C10         7.9997   -4.3328   24.4987 C.3       1 UNL1        0.0000
     11 C11         6.9108   -5.3239   22.4513 C.3       1 UNL1        0.0000
     12 C12         9.0234   -4.0703   22.1941 C.3       1 UNL1        0.0000
     13 C13         8.8369   -3.4250   23.5784 C.3       1 UNL1        0.0000
     14 C14        12.6831    0.4504   24.0180 C.3       1 UNL1        0.0000
     15 C15         8.1369   -3.0999   19.5807 C.3       1 UNL1        0.0000
     16 C16        11.6401    1.3765   24.6450 C.3       1 UNL1        0.0000
     17 N1         10.7785   -1.9008   24.0174 N.2       1 UNL1        0.0000
     18 N2          7.7213   -4.4339   21.6178 N.am      1 UNL1        0.0000
     19 N3         10.8446    2.1506   22.2327 N.pl3     1 UNL1        0.0000
     20 O1          6.1523   -4.3524   19.9064 O.2       1 UNL1        0.0000
     21 O2         10.2656    3.5713   24.2974 O.2       1 UNL1        0.0000
     22 O3         12.6556    3.4842   23.4813 O.2       1 UNL1        0.0000
     23 S1         10.9408   -4.1591   25.2527 S.3       1 UNL1        0.0000
     24 S2         11.3707    2.8427   23.6992 S.o2      1 UNL1        0.0000
     25 Cl1         7.6844   -1.4555   20.0154 Cl        1 UNL1        0.0000
@<TRIPOS>BOND
     1    1    2 ar
     2    1    3 ar
     3    2    4 ar
     4    3    6 ar
     5    4    5 ar
     6    4   14 1
     7    5    6 ar
     8    5   17 1
     9    6   23 1
    10    7   13 1
    11    7   17 2
    12    7   23 1
    13    8   15 1
    14    8   18 am
    15    8   20 2
    16    9   10 1
    17    9   11 1
    18   10   13 1
    19   11   18 1
    20   12   13 1
    21   12   18 1
    22   14   16 1
    23   15   25 1
    24   16   24 1
    25   19   24 1
    26   21   24 2
    27   22   24 2
@<TRIPOS>MOLECULE
MAK-UNK-af8-8
   20    22     0     0     0
SMALL
NO_CHARGES

@<TRIPOS>ATOM
      1 C1         13.3465   -1.2940   23.3423 C.ar      1 UNL1        0.0000
      2 C2         13.1814   -0.0992   24.0428 C.ar      1 UNL1        0.0000
      3 C3         12.2367   -2.0805   23.0335 C.ar      1 UNL1        0.0000
      4 C4         10.7966   -0.4775   24.1260 C.ar      1 UNL1        0.0000
      5 C5         11.9065    0.3091   24.4347 C.ar      1 UNL1        0.0000
      6 C6         10.9618   -1.6723   23.4254 C.ar      1 UNL1        0.0000
      7 C7          7.1837   -5.3480   26.2609 C.2       1 UNL1        0.0000
      8 C8          7.0877   -1.7536   26.6222 C.3       1 UNL1        0.0000
      9 C9          6.0251   -2.0311   25.5397 C.3       1 UNL1        0.0000
     10 C10         9.1828   -2.7288   25.5527 C.3       1 UNL1        0.0000
     11 C11         7.4086   -3.1930   23.7444 C.3       1 UNL1        0.0000
     12 C12         8.6619   -2.3719   24.1379 C.3       1 UNL1        0.0000
     13 C13         8.0386   -2.9561   26.5610 C.3       1 UNL1        0.0000
     14 C14         6.4322   -3.3742   24.9232 C.3       1 UNL1        0.0000
     15 C15        11.7307    1.5875   25.1824 C.3       1 UNL1        0.0000
     16 C16         9.7652   -2.5208   23.0931 C.3       1 UNL1        0.0000
     17 C17         6.1698   -6.1596   25.4973 C.3       1 UNL1        0.0000
     18 N1          7.1844   -3.9932   26.0002 N.am      1 UNL1        0.0000
     19 O1          7.9519   -5.8985   27.0514 O.2       1 UNL1        0.0000
     20 Cl1         4.7199   -6.2235   26.4939 Cl        1 UNL1        0.0000
@<TRIPOS>BOND
     1    1    2 ar
     2    1    3 ar
     3    2    5 ar
     4    3    6 ar
     5    4    5 ar
     6    4    6 ar
     7    5   15 1
     8    6   16 1
     9    7   17 1
    10    7   18 am
    11    7   19 2
    12    8    9 1
    13    8   13 1
    14    9   14 1
    15   10   12 1
    16   10   13 1
    17   11   12 1
    18   11   14 1
    19   12   16 1
    20   13   18 1
    21   14   18 1
    22   17   20 1
@<TRIPOS>MOLECULE
MIH-UNI-e57-4
   25    27     0     0     0
SMALL
NO_CHARGES

@<TRIPOS>ATOM
      1 C1         13.5897   -0.0346   22.2522 C.ar      1 UNL1        0.0000
      2 C2         13.2345    1.1602   22.8788 C.ar      1 UNL1        0.0000
      3 C3         11.7112    2.4288   24.3185 C.ar      1 UNL1        0.0000
      4 C4         12.8012   -1.1694   22.4177 C.ar      1 UNL1        0.0000
      5 C5         10.5645    2.4845   25.1112 C.ar      1 UNL1        0.0000
      6 C6         10.1310    0.1549   24.6501 C.ar      1 UNL1        0.0000
      7 C7         12.0837    1.2345   23.6803 C.ar      1 UNL1        0.0000
      8 C8         11.2819    0.0806   23.8486 C.ar      1 UNL1        0.0000
      9 C9         11.6545   -1.1137   23.2104 C.ar      1 UNL1        0.0000
     10 C10         9.7759    1.3498   25.2767 C.ar      1 UNL1        0.0000
     11 C11         6.0858   -3.7598   20.8830 C.2       1 UNL1        0.0000
     12 C12         7.0929   -2.9839   23.0054 C.3       1 UNL1        0.0000
     13 C13         7.9308   -2.0095   20.9027 C.3       1 UNL1        0.0000
     14 C14         8.5162   -3.2504   23.4732 C.3       1 UNL1        0.0000
     15 C15         9.3678   -2.2598   21.3399 C.3       1 UNL1        0.0000
     16 C16        10.8506   -2.3732   23.3458 C.3       1 UNL1        0.0000
     17 C17         5.7081   -5.0543   21.5577 C.3       1 UNL1        0.0000
     18 N1          7.0155   -2.9589   21.5448 N.am      1 UNL1        0.0000
     19 N2          7.7710   -0.1823   26.1357 N.pl3     1 UNL1        0.0000
     20 N3          9.4394   -2.2272   22.8502 N.4       1 UNL1        0.0000
     21 O1          5.5673   -3.4697   19.8018 O.2       1 UNL1        0.0000
     22 O2          8.7483    1.6632   27.6471 O.2       1 UNL1        0.0000
     23 O3          7.3827    2.3143   25.6325 O.2       1 UNL1        0.0000
     24 S1          8.3414    1.4226   26.2699 S.o2      1 UNL1        0.0000
     25 Cl1         7.1841   -6.0043   21.6871 Cl        1 UNL1        0.0000
@<TRIPOS>BOND
     1    1    2 ar
     2    1    4 ar
     3    2    7 ar
     4    3    5 ar
     5    3    7 ar
     6    4    9 ar
     7    5   10 ar
     8    6    8 ar
     9    6   10 ar
    10    7    8 ar
    11    8    9 ar
    12    9   16 1
    13   10   24 1
    14   11   17 1
    15   11   18 am
    16   11   21 2
    17   12   14 1
    18   12   18 1
    19   13   15 1
    20   13   18 1
    21   14   20 1
    22   15   20 1
    23   16   20 1
    24   17   25 1
    25   19   24 1
    26   22   24 2
    27   23   24 2
@<TRIPOS>MOLECULE
NIY-UNK-626-6
   32    35     0     0     0
SMALL
NO_CHARGES

@<TRIPOS>ATOM
      1 C1         14.5989   -0.8813   21.7978 C.ar      1 UNL1        0.0000
      2 C2         13.4529   -1.6282   22.0679 C.ar      1 UNL1        0.0000
      3 C3         14.6933    0.4345   22.2431 C.ar      1 UNL1        0.0000
      4 C4         11.5377    6.0362   22.8220 C.2       1 UNL1        0.0000
      5 C5         11.0607    6.4261   25.0632 C.2       1 UNL1        0.0000
      6 C6         12.3944   -1.0658   22.7940 C.ar      1 UNL1        0.0000
      7 C7         12.4796    0.2682   23.2291 C.ar      1 UNL1        0.0000
      8 C8         13.6393    1.0074   22.9543 C.ar      1 UNL1        0.0000
      9 C9         10.5965    6.5310   23.7705 C.2       1 UNL1        0.0000
     10 C10        12.6856    5.5722   23.4260 C.2       1 UNL1        0.0000
     11 C11         8.8816    0.5753   24.4059 C.2       1 UNL1        0.0000
     12 C12        11.1511   -1.8722   23.0582 C.3       1 UNL1        0.0000
     13 C13        11.3550    0.9239   23.9937 C.3       1 UNL1        0.0000
     14 C14         6.5503    5.8167   21.0483 C.3       1 UNL1        0.0000
     15 C15         6.9869    4.0858   22.8208 C.3       1 UNL1        0.0000
     16 C16        10.4138   -1.3596   24.2890 C.3       1 UNL1        0.0000
     17 C17         7.3406    6.8365   21.8532 C.3       1 UNL1        0.0000
     18 C18         7.7764    5.1095   23.6216 C.3       1 UNL1        0.0000
     19 C19         5.9282    4.7490   21.9434 C.3       1 UNL1        0.0000
     20 C20         9.2744    7.0919   23.4074 C.3       1 UNL1        0.0000
     21 C21        13.7862    2.4245   23.4102 C.3       1 UNL1        0.0000
     22 C22         7.7883   -0.4502   24.5806 C.3       1 UNL1        0.0000
     23 N1         10.1673    0.0777   24.1801 N.am      1 UNL1        0.0000
     24 N2         13.8064    5.0163   22.7154 N.pl3     1 UNL1        0.0000
     25 N3          8.3845    6.1222   22.6796 N.4       1 UNL1        0.0000
     26 O1          8.6028    1.7749   24.4734 O.2       1 UNL1        0.0000
     27 O2         12.2308    3.3578   21.5455 O.2       1 UNL1        0.0000
     28 O3         14.6996    3.1809   21.0776 O.2       1 UNL1        0.0000
     29 O4          5.3033    3.7704   21.1209 O.3       1 UNL1        0.0000
     30 S1         12.6255    5.7336   25.1297 S.3       1 UNL1        0.0000
     31 S2         13.6102    3.4650   21.9987 S.o2      1 UNL1        0.0000
     32 Cl1         6.3035    0.4447   24.8822 Cl        1 UNL1        0.0000
@<TRIPOS>BOND
     1    1    2 ar
     2    1    3 ar
     3    2    6 ar
     4    3    8 ar
     5    4    9 1
     6    4   10 2
     7    5    9 2
     8    5   30 1
     9    6    7 ar
    10    6   12 1
    11    7    8 ar
    12    7   13 1
    13    8   21 1
    14    9   20 1
    15   10   24 1
    16   10   30 1
    17   11   22 1
    18   11   23 am
    19   11   26 2
    20   12   16 1
    21   13   23 1
    22   14   17 1
    23   14   19 1
    24   15   18 1
    25   15   19 1
    26   16   23 1
    27   17   25 1
    28   18   25 1
    29   19   29 1
    30   20   25 1
    31   21   31 1
    32   22   32 1
    33   24   31 1
    34   27   31 2
    35   28   31 2
@<TRIPOS>MOLECULE
DAR-DIA-fb2-12
   26    28     0     0     0
SMALL
NO_CHARGES

@<TRIPOS>ATOM
      1 C1         11.0807    1.6109   24.3241 C.ar      1 UNL1        0.0000
      2 C2         10.9465    2.9996   24.3232 C.ar      1 UNL1        0.0000
      3 C3         14.1386    1.1772   22.2647 C.ar      1 UNL1        0.0000
      4 C4         12.9278    3.1913   22.9574 C.ar      1 UNL1        0.0000
      5 C5         13.3510   -1.0002   22.9478 C.ar      1 UNL1        0.0000
      6 C6         12.1410    0.9930   23.6412 C.ar      1 UNL1        0.0000
      7 C7         13.0783    1.7951   22.9476 C.ar      1 UNL1        0.0000
      8 C8         12.2915   -0.4032   23.6315 C.ar      1 UNL1        0.0000
      9 C9         14.2727   -0.2115   22.2656 C.ar      1 UNL1        0.0000
     10 C10        11.8682    3.7883   23.6411 C.ar      1 UNL1        0.0000
     11 C11         6.5260   -2.9644   22.1513 C.2       1 UNL1        0.0000
     12 C12         8.7433   -1.8524   21.5904 C.3       1 UNL1        0.0000
     13 C13         8.6443   -3.7503   23.1596 C.3       1 UNL1        0.0000
     14 C14         9.5995   -1.0639   22.5721 C.3       1 UNL1        0.0000
     15 C15         9.4971   -2.9900   24.1647 C.3       1 UNL1        0.0000
     16 C16        11.3366   -1.3115   24.3486 C.3       1 UNL1        0.0000
     17 C17         5.7684   -3.4667   23.3543 C.3       1 UNL1        0.0000
     18 N1          7.9063   -2.8304   22.2938 N.am      1 UNL1        0.0000
     19 N2         13.0452    5.9845   22.6943 N.pl3     1 UNL1        0.0000
     20 N3         10.3969   -2.0288   23.4207 N.4       1 UNL1        0.0000
     21 O1          5.9082   -2.7020   21.1162 O.2       1 UNL1        0.0000
     22 O2         10.4806    5.8720   22.9299 O.2       1 UNL1        0.0000
     23 O3         11.9044    6.0077   25.0040 O.2       1 UNL1        0.0000
     24 F1         15.2906   -0.7856   21.6107 F         1 UNL1        0.0000
     25 S1         11.7012    5.5265   23.6447 S.o2      1 UNL1        0.0000
     26 Cl1         6.0850   -2.3296   24.6598 Cl        1 UNL1        0.0000
@<TRIPOS>BOND
     1    1    2 ar
     2    1    6 ar
     3    2   10 ar
     4    3    7 ar
     5    3    9 ar
     6    4    7 ar
     7    4   10 ar
     8    5    8 ar
     9    5    9 ar
    10    6    7 ar
    11    6    8 ar
    12    8   16 1
    13    9   24 1
    14   10   25 1
    15   11   17 1
    16   11   18 am
    17   11   21 2
    18   12   14 1
    19   12   18 1
    20   13   15 1
    21   13   18 1
    22   14   20 1
    23   15   20 1
    24   16   20 1
    25   17   26 1
    26   19   25 1
    27   22   25 2
    28   23   25 2
@<TRIPOS>MOLECULE
DAV-CRI-eab-4
   17    18     0     0     0
SMALL
NO_CHARGES

@<TRIPOS>ATOM
      1 C1         11.0287   -1.8970   22.2716 C.2       1 UNL1        0.0000
      2 C2         12.0995   -0.4533   23.9114 C.2       1 UNL1        0.0000
      3 C3         12.1585   -1.1459   22.7654 C.2       1 UNL1        0.0000
      4 C4          9.8231   -1.8505   22.8659 C.2       1 UNL1        0.0000
      5 C5          6.5102   -1.9697   21.3016 C.2       1 UNL1        0.0000
      6 C6          8.6819    0.1956   23.8165 C.3       1 UNL1        0.0000
      7 C7          8.9741    1.1331   24.9639 C.3       1 UNL1        0.0000
      8 C8         10.8556   -0.4013   24.7491 C.3       1 UNL1        0.0000
      9 C9          9.5834   -1.0092   24.1015 C.3       1 UNL1        0.0000
     10 C10         8.0992   -3.5524   23.4144 C.3       1 UNL1        0.0000
     11 C11         5.6641   -0.7664   20.9726 C.3       1 UNL1        0.0000
     12 C12         8.6565   -2.6388   22.3447 C.3       1 UNL1        0.0000
     13 N1          7.7091   -1.6471   21.9275 N.am      1 UNL1        0.0000
     14 N2         10.4534    1.0105   25.1193 N.4       1 UNL1        0.0000
     15 O1          6.1396   -3.1136   21.0433 O.2       1 UNL1        0.0000
     16 Cl1        13.6191   -1.1883   21.8444 Cl        1 UNL1        0.0000
     17 Cl2         6.1102   -0.2143   19.3505 Cl        1 UNL1        0.0000
@<TRIPOS>BOND
     1    1    3 1
     2    1    4 2
     3    2    3 2
     4    2    8 1
     5    3   16 1
     6    4    9 1
     7    4   12 1
     8    5   11 1
     9    5   13 am
    10    5   15 2
    11    6    7 1
    12    6    9 1
    13    7   14 1
    14    8    9 1
    15    8   14 1
    16   10   12 1
    17   11   17 1
    18   12   13 1
@<TRIPOS>MOLECULE
HAR-NEW-972-2
   21    23     0     0     0
SMALL
NO_CHARGES

@<TRIPOS>ATOM
      1 C1         11.2495   -1.7794   25.1859 C.2       1 UNL1        0.0000
      2 C2         11.9545   -2.9661   25.2075 C.2       1 UNL1        0.0000
      3 C3          9.7413   -3.0944   24.2979 C.2       1 UNL1        0.0000
      4 C4          6.3120   -3.1518   20.7709 C.2       1 UNL1        0.0000
      5 C5         11.8008   -0.5015   25.7130 C.3       1 UNL1        0.0000
      6 C6         13.3523   -3.1327   25.7002 C.3       1 UNL1        0.0000
      7 C7         13.3285   -0.5816   25.8866 C.3       1 UNL1        0.0000
      8 C8          6.8186   -5.4964   23.4135 C.3       1 UNL1        0.0000
      9 C9          8.1212   -5.0316   24.0669 C.3       1 UNL1        0.0000
     10 C10         6.8520   -5.2852   21.9025 C.3       1 UNL1        0.0000
     11 C11         8.4387   -3.4081   22.1456 C.3       1 UNL1        0.0000
     12 C12         8.4415   -3.5770   23.6749 C.3       1 UNL1        0.0000
     13 C13        13.7677   -1.9082   26.5526 C.3       1 UNL1        0.0000
     14 C14         6.7134   -1.7264   20.4865 C.3       1 UNL1        0.0000
     15 C15        15.2750   -1.9173   26.7987 C.3       1 UNL1        0.0000
     16 N1          9.9736   -1.8526   24.6677 N.2       1 UNL1        0.0000
     17 N2          7.1733   -3.8941   21.5778 N.am      1 UNL1        0.0000
     18 N3         15.5737   -1.0306   27.9415 N.4       1 UNL1        0.0000
     19 O1          5.2629   -3.5896   20.2915 O.2       1 UNL1        0.0000
     20 S1         11.0144   -4.2231   24.5501 S.3       1 UNL1        0.0000
     21 Cl1         5.9752   -0.7354   21.7398 Cl        1 UNL1        0.0000
@<TRIPOS>BOND
     1    1    2 2
     2    1    5 1
     3    1   16 1
     4    2    6 1
     5    2   20 1
     6    3   12 1
     7    3   16 2
     8    3   20 1
     9    4   14 1
    10    4   17 am
    11    4   19 2
    12    5    7 1
    13    6   13 1
    14    7   13 1
    15    8    9 1
    16    8   10 1
    17    9   12 1
    18   10   17 1
    19   11   12 1
    20   11   17 1
    21   13   15 1
    22   14   21 1
    23   15   18 1
@<TRIPOS>MOLECULE
DAR-DIA-cab-2
   22    24     0     0     0
SMALL
NO_CHARGES

@<TRIPOS>ATOM
      1 C1          8.7491   -4.6689   25.4331 C.ar      1 UNL1        0.0000
      2 C2         10.0590   -4.2890   25.1609 C.ar      1 UNL1        0.0000
      3 C3         12.9579   -0.0091   22.8113 C.ar      1 UNL1        0.0000
      4 C4          7.6985   -4.1021   24.7146 C.ar      1 UNL1        0.0000
      5 C5         10.3190   -3.3299   24.1814 C.ar      1 UNL1        0.0000
      6 C6         11.9764   -0.9412   22.4743 C.ar      1 UNL1        0.0000
      7 C7         12.5987    1.1909   23.4251 C.ar      1 UNL1        0.0000
      8 C8         10.2766    0.5268   23.3648 C.ar      1 UNL1        0.0000
      9 C9         10.6358   -0.6732   22.7510 C.ar      1 UNL1        0.0000
     10 C10         7.9475   -3.1457   23.7178 C.ar      1 UNL1        0.0000
     11 C11         9.2700   -2.7228   23.4685 C.ar      1 UNL1        0.0000
     12 C12        11.2581    1.4589   23.7018 C.ar      1 UNL1        0.0000
     13 C13         6.5433   -2.1381   20.5276 C.2       1 UNL1        0.0000
     14 C14         6.7786   -2.5748   22.9533 C.3       1 UNL1        0.0000
     15 C15         8.2969   -0.9429   21.9235 C.3       1 UNL1        0.0000
     16 C16         9.5642   -1.6907   22.3826 C.3       1 UNL1        0.0000
     17 C17        11.9619    3.5370   24.6192 C.3       1 UNL1        0.0000
     18 C18         7.0427   -1.3835   19.3213 C.3       1 UNL1        0.0000
     19 N1          7.1948   -1.8859   21.7336 N.am      1 UNL1        0.0000
     20 O1          5.6047   -2.9284   20.3999 O.2       1 UNL1        0.0000
     21 O2         10.9078    2.6297   24.3013 O.3       1 UNL1        0.0000
     22 Cl1         6.0952    0.0964   19.2262 Cl        1 UNL1        0.0000
@<TRIPOS>BOND
     1    1    2 ar
     2    1    4 ar
     3    2    5 ar
     4    3    6 ar
     5    3    7 ar
     6    4   10 ar
     7    5   11 ar
     8    6    9 ar
     9    7   12 ar
    10    8    9 ar
    11    8   12 ar
    12    9   16 1
    13   10   11 ar
    14   10   14 1
    15   11   16 1
    16   12   21 1
    17   13   18 1
    18   13   19 am
    19   13   20 2
    20   14   19 1
    21   15   16 1
    22   15   19 1
    23   17   21 1
    24   18   22 1
@<TRIPOS>MOLECULE
PAU-WEI-f73-1
   32    35     0     0     0
SMALL
NO_CHARGES

@<TRIPOS>ATOM
      1 C1         13.5966   -0.0638   22.3485 C.ar      1 UNL1        0.0000
      2 C2         13.3554    1.1742   22.9553 C.ar      1 UNL1        0.0000
      3 C3         12.5552   -0.9608   22.1194 C.ar      1 UNL1        0.0000
      4 C4          9.0212   -1.1359   19.9179 C.2       1 UNL1        0.0000
      5 C5          7.8520   -0.5064   19.4013 C.2       1 UNL1        0.0000
      6 C6         10.0978    2.3957   24.0763 C.2       1 UNL1        0.0000
      7 C7         12.0404    1.5086   23.3355 C.ar      1 UNL1        0.0000
      8 C8         11.2429   -0.6510   22.4881 C.ar      1 UNL1        0.0000
      9 C9         11.4459    2.6428   23.9560 C.2       1 UNL1        0.0000
     10 C10        11.0166    0.5901   23.0936 C.ar      1 UNL1        0.0000
     11 C11         9.0638   -1.0986   21.2943 C.2       1 UNL1        0.0000
     12 C12         7.0453   -0.0120   20.4027 C.2       1 UNL1        0.0000
     13 C13         9.3238   -5.3547   26.2649 C.2       1 UNL1        0.0000
     14 C14        10.3252    6.0008   23.1260 C.2       1 UNL1        0.0000
     15 C15         9.9427   -3.0063   25.7927 C.3       1 UNL1        0.0000
     16 C16         8.1259   -4.0132   24.4667 C.3       1 UNL1        0.0000
     17 C17        10.6102   -2.4920   24.5256 C.3       1 UNL1        0.0000
     18 C18         8.7655   -3.5121   23.1789 C.3       1 UNL1        0.0000
     19 C19         9.2246    6.3813   22.1921 C.3       1 UNL1        0.0000
     20 C20        12.1415    3.8691   24.3964 C.3       1 UNL1        0.0000
     21 C21         8.1186   -6.2413   26.4522 C.3       1 UNL1        0.0000
     22 C22        12.5132    4.8260   23.2492 C.3       1 UNL1        0.0000
     23 C23        10.1311   -1.6529   22.2230 C.3       1 UNL1        0.0000
     24 N1          9.8485    1.1551   23.5536 N.pl3     1 UNL1        0.0000
     25 N2          9.1345   -4.1939   25.5162 N.am      1 UNL1        0.0000
     26 N3         11.3551    5.2888   22.5325 N.am      1 UNL1        0.0000
     27 N4          9.5512   -2.2537   23.4725 N.4       1 UNL1        0.0000
     28 O1         10.4005   -5.6866   26.7674 O.2       1 UNL1        0.0000
     29 O2         10.2564    6.3265   24.3054 O.2       1 UNL1        0.0000
     30 S1          7.6980   -0.3071   21.9581 S.3       1 UNL1        0.0000
     31 Cl1         6.9169   -5.2834   27.3101 Cl        1 UNL1        0.0000
     32 Br1         5.4009    0.8923   20.1102 Br        1 UNL1        0.0000
@<TRIPOS>BOND
     1    1    2 ar
     2    1    3 ar
     3    2    7 ar
     4    3    8 ar
     5    4    5 1
     6    4   11 2
     7    5   12 2
     8    6    9 2
     9    6   24 1
    10    7    9 1
    11    7   10 ar
    12    8   10 ar
    13    8   23 1
    14    9   20 1
    15   10   24 1
    16   11   23 1
    17   11   30 1
    18   12   30 1
    19   12   32 1
    20   13   21 1
    21   13   25 am
    22   13   28 2
    23   14   19 1
    24   14   26 am
    25   14   29 2
    26   15   17 1
    27   15   25 1
    28   16   18 1
    29   16   25 1
    30   17   27 1
    31   18   27 1
    32   20   22 1
    33   21   31 1
    34   22   26 1
    35   23   27 1
@<TRIPOS>MOLECULE
JAN-GHE-641-5
   26    28     0     0     0
SMALL
NO_CHARGES

@<TRIPOS>ATOM
      1 C1         12.0601    6.0214   25.9099 C.ar      1 UNL1        0.0000
      2 C2         10.9096    6.7767   25.6554 C.ar      1 UNL1        0.0000
      3 C3         12.5603    5.1396   24.9538 C.ar      1 UNL1        0.0000
      4 C4          8.9469    6.6918   22.5731 C.2       1 UNL1        0.0000
      5 C5         10.2562    6.6370   24.4148 C.ar      1 UNL1        0.0000
      6 C6         11.9291    4.9843   23.7163 C.ar      1 UNL1        0.0000
      7 C7          9.0997    7.2264   23.8316 C.2       1 UNL1        0.0000
      8 C8         10.7800    5.7459   23.4758 C.ar      1 UNL1        0.0000
      9 C9          9.1695   -1.6901   22.8081 C.2       1 UNL1        0.0000
     10 C10        10.3036   -1.9530   23.4607 C.2       1 UNL1        0.0000
     11 C11        11.5783   -1.4577   22.9037 C.2       1 UNL1        0.0000
     12 C12         7.2857    5.3005   25.7425 C.2       1 UNL1        0.0000
     13 C13        11.3206    0.7133   24.2243 C.3       1 UNL1        0.0000
     14 C14        13.3061    0.2971   22.8196 C.3       1 UNL1        0.0000
     15 C15        11.1870    2.1118   23.6331 C.3       1 UNL1        0.0000
     16 C16        13.1837    1.6813   22.2024 C.3       1 UNL1        0.0000
     17 C17         6.2785    4.2198   25.5284 C.3       1 UNL1        0.0000
     18 C18         8.2153    8.2310   24.4561 C.3       1 UNL1        0.0000
     19 C19        12.4947    4.0262   22.7097 C.3       1 UNL1        0.0000
     20 C20         7.5773    7.7696   25.7789 C.3       1 UNL1        0.0000
     21 N1          9.9649    5.7997   22.3677 N.pl3     1 UNL1        0.0000
     22 N2         12.0127   -0.1948   23.2991 N.am      1 UNL1        0.0000
     23 N3          6.7801    6.5841   25.6119 N.am      1 UNL1        0.0000
     24 N4         12.5478    2.6101   23.2098 N.4       1 UNL1        0.0000
     25 O1         12.1838   -2.1956   22.1245 O.2       1 UNL1        0.0000
     26 O2          8.4439    5.0027   26.0096 O.2       1 UNL1        0.0000
@<TRIPOS>BOND
     1    1    2 ar
     2    1    3 ar
     3    2    5 ar
     4    3    6 ar
     5    4    7 2
     6    4   21 1
     7    5    7 1
     8    5    8 ar
     9    6    8 ar
    10    6   19 1
    11    7   18 1
    12    8   21 1
    13    9   10 2
    14   10   11 1
    15   11   22 am
    16   11   25 2
    17   12   17 1
    18   12   23 am
    19   12   26 2
    20   13   15 1
    21   13   22 1
    22   14   16 1
    23   14   22 1
    24   15   24 1
    25   16   24 1
    26   18   20 1
    27   19   24 1
    28   20   23 1
@<TRIPOS>MOLECULE
AGN-NEW-63f-2
   27    29     0     0     0
SMALL
NO_CHARGES

@<TRIPOS>ATOM
      1 C1          6.0463    0.9544   17.8136 C.ar      1 UNL1        0.0000
      2 C2         10.1165   -0.2961   24.5802 C.ar      1 UNL1        0.0000
      3 C3         12.2934    0.7432   24.7134 C.ar      1 UNL1        0.0000
      4 C4         11.3556    0.1755   22.5604 C.ar      1 UNL1        0.0000
      5 C5          4.7979    1.3870   18.2310 C.ar      1 UNL1        0.0000
      6 C6          5.1201    0.5582   20.3494 C.ar      1 UNL1        0.0000
      7 C7          6.8480    0.2926   18.7370 C.ar      1 UNL1        0.0000
      8 C8         11.1547    0.2396   25.3422 C.ar      1 UNL1        0.0000
      9 C9         10.2169   -0.3282   23.1893 C.ar      1 UNL1        0.0000
     10 C10         6.3835    0.0866   20.0312 C.ar      1 UNL1        0.0000
     11 C11        12.3938    0.7112   23.3225 C.ar      1 UNL1        0.0000
     12 C12         8.4468   -0.0982   21.4272 C.2       1 UNL1        0.0000
     13 C13         5.0954   -5.9528   23.4162 C.2       1 UNL1        0.0000
     14 C14         6.0220   -6.1590   22.4755 C.2       1 UNL1        0.0000
     15 C15         6.5097   -5.0301   21.6389 C.2       1 UNL1        0.0000
     16 C16         8.7995   -2.3039   22.6400 C.3       1 UNL1        0.0000
     17 C17         6.5830   -1.7480   21.7042 C.3       1 UNL1        0.0000
     18 C18         7.6337   -2.8280   21.8226 C.3       1 UNL1        0.0000
     19 C19         8.1983   -0.1851   18.3138 C.3       1 UNL1        0.0000
     20 C20        11.0476    0.2747   26.8294 C.3       1 UNL1        0.0000
     21 N1          4.3124    1.2053   19.4796 N.ar      1 UNL1        0.0000
     22 N2          9.1335   -0.8875   22.3937 N.am      1 UNL1        0.0000
     23 N3          7.1769   -0.5939   21.0258 N.am      1 UNL1        0.0000
     24 N4          7.0884   -4.0295   22.4039 N.am      1 UNL1        0.0000
     25 O1          8.9121    0.9577   20.9856 O.2       1 UNL1        0.0000
     26 O2          6.3950   -5.0159   20.4175 O.2       1 UNL1        0.0000
     27 F1         13.4873    1.1949   22.7187 F         1 UNL1        0.0000
@<TRIPOS>BOND
     1    1    5 ar
     2    1    7 ar
     3    2    8 ar
     4    2    9 ar
     5    3    8 ar
     6    3   11 ar
     7    4    9 ar
     8    4   11 ar
     9    5   21 ar
    10    6   10 ar
    11    6   21 ar
    12    7   10 ar
    13    7   19 1
    14    8   20 1
    15    9   22 1
    16   10   23 1
    17   11   27 1
    18   12   22 am
    19   12   23 am
    20   12   25 2
    21   13   14 2
    22   14   15 1
    23   15   24 am
    24   15   26 2
    25   16   18 1
    26   16   22 1
    27   17   18 1
    28   17   23 1
    29   18   24 1
@<TRIPOS>MOLECULE
PAU-WEI-b9b-4
   27    29     0     0     0
SMALL
NO_CHARGES

@<TRIPOS>ATOM
      1 C1          8.1407    0.6062   25.8018 C.1       1 UNL1        0.0000
      2 C2         11.1149   -1.9324   23.5432 C.ar      1 UNL1        0.0000
      3 C3         11.3758   -1.0464   24.5884 C.ar      1 UNL1        0.0000
      4 C4         11.5982   -1.6624   22.2628 C.ar      1 UNL1        0.0000
      5 C5          8.2721    1.8388   22.2918 C.ar      1 UNL1        0.0000
      6 C6          7.8283    1.2029   23.4512 C.ar      1 UNL1        0.0000
      7 C7         12.1198    0.1098   24.3532 C.ar      1 UNL1        0.0000
      8 C8         12.3422   -0.5062   22.0277 C.ar      1 UNL1        0.0000
      9 C9          9.4836    2.5301   22.2957 C.ar      1 UNL1        0.0000
     10 C10         9.8073    1.9498   24.6185 C.ar      1 UNL1        0.0000
     11 C11         8.5959    1.2584   24.6146 C.ar      1 UNL1        0.0000
     12 C12        12.6030    0.3799   23.0728 C.ar      1 UNL1        0.0000
     13 C13        10.2512    2.5857   23.4590 C.ar      1 UNL1        0.0000
     14 C14        11.4669    7.3664   26.5865 C.2       1 UNL1        0.0000
     15 C15        12.6818    5.7990   25.1090 C.3       1 UNL1        0.0000
     16 C16        10.2512    5.4775   25.3958 C.3       1 UNL1        0.0000
     17 C17        12.5412    5.6621   23.6001 C.3       1 UNL1        0.0000
     18 C18        10.0776    5.3333   23.8897 C.3       1 UNL1        0.0000
     19 C19        13.4070    1.6296   22.8179 C.3       1 UNL1        0.0000
     20 C20        10.4165    7.3949   27.6681 C.3       1 UNL1        0.0000
     21 C21        12.5940    2.8709   22.4111 C.3       1 UNL1        0.0000
     22 C22        11.5646    3.3355   23.4630 C.3       1 UNL1        0.0000
     23 N1          7.7710    0.0766   26.7659 N.1       1 UNL1        0.0000
     24 N2         11.4392    6.2764   25.7166 N.am      1 UNL1        0.0000
     25 N3         11.3435    4.8085   23.2535 N.4       1 UNL1        0.0000
     26 O1         12.2848    8.2873   26.5168 O.2       1 UNL1        0.0000
     27 Cl1         9.0443    8.2822   27.0144 Cl        1 UNL1        0.0000
@<TRIPOS>BOND
     1    1   11 1
     2    1   23 3
     3    2    3 ar
     4    2    4 ar
     5    3    7 ar
     6    4    8 ar
     7    5    6 ar
     8    5    9 ar
     9    6   11 ar
    10    7   12 ar
    11    8   12 ar
    12    9   13 ar
    13   10   11 ar
    14   10   13 ar
    15   12   19 1
    16   13   22 1
    17   14   20 1
    18   14   24 am
    19   14   26 2
    20   15   17 1
    21   15   24 1
    22   16   18 1
    23   16   24 1
    24   17   25 1
    25   18   25 1
    26   19   21 1
    27   20   27 1
    28   21   22 1
    29   22   25 1
@<TRIPOS>MOLECULE
DUN-NEW-f8c-3
   24    26     0     0     0
SMALL
NO_CHARGES

@<TRIPOS>ATOM
      1 C1          7.4019   -0.7415   21.2378 C.ar      1 UNL1        0.0000
      2 C2          8.4223    0.0740   20.7485 C.ar      1 UNL1        0.0000
      3 C3          7.6691   -1.6590   22.2540 C.ar      1 UNL1        0.0000
      4 C4          9.7098   -0.0281   21.2752 C.ar      1 UNL1        0.0000
      5 C5          8.9566   -1.7612   22.7806 C.ar      1 UNL1        0.0000
      6 C6          9.9770   -0.9457   22.2913 C.ar      1 UNL1        0.0000
      7 C7         11.3336    0.6531   24.5549 C.2       1 UNL1        0.0000
      8 C8          7.2066   -4.8499   26.7473 C.2       1 UNL1        0.0000
      9 C9         13.4877   -1.7596   22.8911 C.3       1 UNL1        0.0000
     10 C10        13.3490   -0.5520   23.8010 C.3       1 UNL1        0.0000
     11 C11        12.0534   -2.2561   22.7488 C.3       1 UNL1        0.0000
     12 C12         8.9880   -4.1217   23.6105 C.3       1 UNL1        0.0000
     13 C13         9.2447   -2.2604   25.1969 C.3       1 UNL1        0.0000
     14 C14         7.6676   -4.5273   24.2655 C.3       1 UNL1        0.0000
     15 C15         7.9256   -2.6504   25.8692 C.3       1 UNL1        0.0000
     16 C16        12.0273    0.0851   23.3584 C.3       1 UNL1        0.0000
     17 C17         6.1803   -5.9167   26.4595 C.3       1 UNL1        0.0000
     18 N1          9.2014   -2.6831   23.7921 N.pl3     1 UNL1        0.0000
     19 N2         11.2583   -1.0306   22.7985 N.pl3     1 UNL1        0.0000
     20 N3          7.6192   -4.0720   25.6653 N.am      1 UNL1        0.0000
     21 N4         10.5379    1.7379   24.2716 N.am      1 UNL1        0.0000
     22 O1         11.4639    0.1683   25.6763 O.2       1 UNL1        0.0000
     23 O2          7.6301   -4.7152   27.8981 O.2       1 UNL1        0.0000
     24 Cl1         4.7471   -5.0874   25.8639 Cl        1 UNL1        0.0000
@<TRIPOS>BOND
     1    1    2 ar
     2    1    3 ar
     3    2    4 ar
     4    3    5 ar
     5    4    6 ar
     6    5    6 ar
     7    5   18 1
     8    6   19 1
     9    7   16 1
    10    7   21 am
    11    7   22 2
    12    8   17 1
    13    8   20 am
    14    8   23 2
    15    9   10 1
    16    9   11 1
    17   10   16 1
    18   11   19 1
    19   12   14 1
    20   12   18 1
    21   13   15 1
    22   13   18 1
    23   14   20 1
    24   15   20 1
    25   16   19 1
    26   17   24 1
@<TRIPOS>MOLECULE
FOC-CAS-e3a-2
   24    26     0     0     0
SMALL
NO_CHARGES

@<TRIPOS>ATOM
      1 C1          9.3565   -2.8672   24.5220 C.ar      1 UNL1        0.0000
      2 C2          7.0716   -2.3066   23.9722 C.ar      1 UNL1        0.0000
      3 C3          8.9996   -4.2108   24.6353 C.ar      1 UNL1        0.0000
      4 C4          6.7147   -3.6503   24.0854 C.ar      1 UNL1        0.0000
      5 C5          5.9201    0.9905   18.4870 C.ar      1 UNL1        0.0000
      6 C6          5.4141    1.2163   19.7482 C.ar      1 UNL1        0.0000
      7 C7          7.7183   -0.0866   19.4014 C.ar      1 UNL1        0.0000
      8 C8          8.3925   -1.9150   24.1905 C.ar      1 UNL1        0.0000
      9 C9          7.6787   -4.6024   24.4170 C.ar      1 UNL1        0.0000
     10 C10         7.2127    0.1398   20.6626 C.ar      1 UNL1        0.0000
     11 C11         7.5751    2.8056   22.6521 C.2       1 UNL1        0.0000
     12 C12         9.8510    1.8636   22.7679 C.3       1 UNL1        0.0000
     13 C13        10.5918    1.0368   23.8048 C.3       1 UNL1        0.0000
     14 C14         8.7802   -0.4531   24.0663 C.3       1 UNL1        0.0000
     15 C15         7.9151    0.3172   23.0489 C.3       1 UNL1        0.0000
     16 C16         6.2727    2.8480   23.4122 C.3       1 UNL1        0.0000
     17 N1          7.0813    0.3349   18.2910 N.ar      1 UNL1        0.0000
     18 N2          6.0514    0.7951   20.8586 N.ar      1 UNL1        0.0000
     19 N3          8.3990    1.7000   22.8825 N.am      1 UNL1        0.0000
     20 N4          7.9285   -0.3253   21.7483 N.pl3     1 UNL1        0.0000
     21 O1          7.8555    3.7290   21.8834 O.2       1 UNL1        0.0000
     22 O2         10.1719   -0.3250   23.7489 O.3       1 UNL1        0.0000
     23 F1          7.3364   -5.8931   24.5230 F         1 UNL1        0.0000
     24 Cl1         5.4728    4.3479   22.9564 Cl        1 UNL1        0.0000
@<TRIPOS>BOND
     1    1    3 ar
     2    1    8 ar
     3    2    4 ar
     4    2    8 ar
     5    3    9 ar
     6    4    9 ar
     7    5    6 ar
     8    5   17 ar
     9    6   18 ar
    10    7   10 ar
    11    7   17 ar
    12    8   14 1
    13    9   23 1
    14   10   18 ar
    15   10   20 1
    16   11   16 1
    17   11   19 am
    18   11   21 2
    19   12   13 1
    20   12   19 1
    21   13   22 1
    22   14   15 1
    23   14   22 1
    24   15   19 1
    25   15   20 1
    26   16   24 1
@<TRIPOS>MOLECULE
MAK-UNK-af8-7
   23    24     0     0     0
SMALL
NO_CHARGES

@<TRIPOS>ATOM
      1 C1         11.2080    6.7829   25.5107 C.ar      1 UNL1        0.0000
      2 C2          9.9757    7.0808   24.9291 C.ar      1 UNL1        0.0000
      3 C3         12.1004    5.9330   24.8573 C.ar      1 UNL1        0.0000
      4 C4         10.5281    5.6786   23.0407 C.ar      1 UNL1        0.0000
      5 C5          9.6357    6.5286   23.6941 C.ar      1 UNL1        0.0000
      6 C6         11.7604    5.3808   23.6223 C.ar      1 UNL1        0.0000
      7 C7         10.6742    0.7505   24.6783 C.2       1 UNL1        0.0000
      8 C8         11.6859   -1.0436   22.1117 C.2       1 UNL1        0.0000
      9 C9         13.5092    2.0925   22.6132 C.3       1 UNL1        0.0000
     10 C10        11.0705    2.5622   22.9837 C.3       1 UNL1        0.0000
     11 C11        13.2728    0.6322   22.9758 C.3       1 UNL1        0.0000
     12 C12        10.8203    1.0706   23.2189 C.3       1 UNL1        0.0000
     13 C13        12.5016    3.0051   23.3142 C.3       1 UNL1        0.0000
     14 C14         8.3185    6.8487   23.0722 C.3       1 UNL1        0.0000
     15 C15         7.8055    0.0658   25.7583 C.3       1 UNL1        0.0000
     16 C16        12.7224    4.4640   22.9183 C.3       1 UNL1        0.0000
     17 C17        10.2550   -1.4367   21.8388 C.3       1 UNL1        0.0000
     18 C18         8.9607    0.8803   26.3003 C.3       1 UNL1        0.0000
     19 N1         11.8952    0.2082   22.7037 N.am      1 UNL1        0.0000
     20 O1         11.3752   -0.0542   25.2768 O.2       1 UNL1        0.0000
     21 O2         12.5913   -1.8222   21.8002 O.2       1 UNL1        0.0000
     22 O3          9.6564    1.4876   25.2070 O.3       1 UNL1        0.0000
     23 Cl1         9.6921   -2.3057   23.2618 Cl        1 UNL1        0.0000
@<TRIPOS>BOND
     1    1    2 ar
     2    1    3 ar
     3    2    5 ar
     4    3    6 ar
     5    4    5 ar
     6    4    6 ar
     7    5   14 1
     8    6   16 1
     9    7   12 1
    10    7   20 2
    11    7   22 1
    12    8   17 1
    13    8   19 am
    14    8   21 2
    15    9   11 1
    16    9   13 1
    17   10   12 1
    18   10   13 1
    19   11   19 1
    20   12   19 1
    21   13   16 1
    22   15   18 1
    23   17   23 1
    24   18   22 1
@<TRIPOS>MOLECULE
NIR-THE-ed2-1
   32    34     0     0     0
SMALL
NO_CHARGES

@<TRIPOS>ATOM
      1 C1          9.3780   -2.9175   22.5795 C.ar      1 UNL1        0.0000
      2 C2          9.3597   -1.7692   21.7880 C.ar      1 UNL1        0.0000
      3 C3          4.6395    1.2668   18.5018 C.ar      1 UNL1        0.0000
      4 C4          9.3492   -1.5469   24.5689 C.ar      1 UNL1        0.0000
      5 C5          5.5017    0.7355   17.5562 C.ar      1 UNL1        0.0000
      6 C6          7.1347    0.3571   19.1273 C.ar      1 UNL1        0.0000
      7 C7          9.3726   -2.8064   23.9700 C.ar      1 UNL1        0.0000
      8 C8          9.3363   -0.5096   22.3869 C.ar      1 UNL1        0.0000
      9 C9          5.0789    1.3323   19.8193 C.ar      1 UNL1        0.0000
     10 C10         9.3310   -0.3985   23.7774 C.ar      1 UNL1        0.0000
     11 C11         6.3491    0.8709   20.1464 C.ar      1 UNL1        0.0000
     12 C12         9.3912   -4.0153   24.8019 C.2       1 UNL1        0.0000
     13 C13         6.1599    0.2118   22.5425 C.2       1 UNL1        0.0000
     14 C14         8.7360    1.1456   25.6280 C.2       1 UNL1        0.0000
     15 C15         7.1738   -3.3307   25.8552 C.3       1 UNL1        0.0000
     16 C16         8.2765   -5.4567   26.4720 C.3       1 UNL1        0.0000
     17 C17         5.8887   -3.9737   25.3477 C.3       1 UNL1        0.0000
     18 C18         7.1195   -6.3494   26.0391 C.3       1 UNL1        0.0000
     19 C19         4.1701    1.9010   20.8592 C.3       1 UNL1        0.0000
     20 C20         5.3061   -0.9404   22.0647 C.3       1 UNL1        0.0000
     21 C21         9.3182    0.7032   21.5143 C.3       1 UNL1        0.0000
     22 C22         8.8951    2.6047   25.9872 C.3       1 UNL1        0.0000
     23 C23         8.1010    1.6047   21.7476 C.3       1 UNL1        0.0000
     24 N1          6.7424    0.2773   17.8360 N.ar      1 UNL1        0.0000
     25 N2          8.3247   -4.2269   25.6806 N.am      1 UNL1        0.0000
     26 N3          9.3068    0.8543   24.3956 N.am      1 UNL1        0.0000
     27 N4          6.8586    0.9173   21.5182 N.am      1 UNL1        0.0000
     28 O1         10.3574   -4.7615   24.6510 O.2       1 UNL1        0.0000
     29 O2          6.1576    0.4695   23.7489 O.2       1 UNL1        0.0000
     30 O3          8.1403    0.3846   26.3857 O.2       1 UNL1        0.0000
     31 S1          5.5157   -5.5118   26.2499 S.3       1 UNL1        0.0000
     32 Cl1         7.4852    3.4725   25.3589 Cl        1 UNL1        0.0000
@<TRIPOS>BOND
     1    1    2 ar
     2    1    7 ar
     3    2    8 ar
     4    3    5 ar
     5    3    9 ar
     6    4    7 ar
     7    4   10 ar
     8    5   24 ar
     9    6   11 ar
    10    6   24 ar
    11    7   12 1
    12    8   10 ar
    13    8   21 1
    14    9   11 ar
    15    9   19 1
    16   10   26 1
    17   11   27 1
    18   12   25 am
    19   12   28 2
    20   13   20 1
    21   13   27 am
    22   13   29 2
    23   14   22 1
    24   14   26 am
    25   14   30 2
    26   15   17 1
    27   15   25 1
    28   16   18 1
    29   16   25 1
    30   17   31 1
    31   18   31 1
    32   21   23 1
    33   22   32 1
    34   23   27 1
@<TRIPOS>MOLECULE
GER-FIO-88d-1
   35    38     0     0     0
SMALL
NO_CHARGES

@<TRIPOS>ATOM
      1 C1         13.1327   -2.0601   23.2015 C.ar      1 UNL1        0.0000
      2 C2         14.1855   -1.5654   22.4413 C.ar      1 UNL1        0.0000
      3 C3          8.6301   -0.0330   26.4473 C.ar      1 UNL1        0.0000
      4 C4          7.4696    6.8743   22.1940 C.ar      1 UNL1        0.0000
      5 C5         12.1442   -1.1941   23.6747 C.ar      1 UNL1        0.0000
      6 C6          9.8130    0.4295   25.8706 C.ar      1 UNL1        0.0000
      7 C7         14.2489   -0.2043   22.1570 C.ar      1 UNL1        0.0000
      8 C8          7.5183   -0.2924   25.6458 C.ar      1 UNL1        0.0000
      9 C9          8.4584    5.9017   22.0951 C.ar      1 UNL1        0.0000
     10 C10         8.7723    0.3733   23.6910 C.ar      1 UNL1        0.0000
     11 C11         6.8899    7.0860   23.4345 C.ar      1 UNL1        0.0000
     12 C12         8.1915    5.4684   24.4183 C.ar      1 UNL1        0.0000
     13 C13         9.8840    0.6327   24.4925 C.ar      1 UNL1        0.0000
     14 C14        12.1966    0.1839   23.4002 C.ar      1 UNL1        0.0000
     15 C15        13.2641    0.6720   22.6401 C.ar      1 UNL1        0.0000
     16 C16         7.5894   -0.0892   24.2677 C.ar      1 UNL1        0.0000
     17 C17         8.8320    5.1808   23.2238 C.ar      1 UNL1        0.0000
     18 C18        11.1455    1.1268   23.8774 C.2       1 UNL1        0.0000
     19 C19        11.3587    2.4624   23.7362 C.2       1 UNL1        0.0000
     20 C20        10.3020    3.3961   24.1912 C.2       1 UNL1        0.0000
     21 C21        12.8428    4.3740   23.2604 C.2       1 UNL1        0.0000
     22 C22        13.3368    2.1269   22.2916 C.3       1 UNL1        0.0000
     23 C23         8.5431   -2.9606   22.6764 C.3       1 UNL1        0.0000
     24 C24         6.4009   -0.3679   23.4110 C.3       1 UNL1        0.0000
     25 C25        13.6016    4.9973   22.1089 C.3       1 UNL1        0.0000
     26 N1          7.2266    6.4057   24.5532 N.ar      1 UNL1        0.0000
     27 N2         12.4964    3.0112   23.1171 N.am      1 UNL1        0.0000
     28 N3          9.8356    4.1839   23.1543 N.am      1 UNL1        0.0000
     29 N4          6.1902   -1.7789   23.2086 N.pl3     1 UNL1        0.0000
     30 O1          9.9603    3.3847   25.3659 O.2       1 UNL1        0.0000
     31 O2         12.5961    5.0752   24.2452 O.2       1 UNL1        0.0000
     32 O3          7.2192   -1.6557   20.8340 O.2       1 UNL1        0.0000
     33 O4          6.3146   -3.8591   21.6605 O.2       1 UNL1        0.0000
     34 S1          6.9798   -2.5950   21.9120 S.o2      1 UNL1        0.0000
     35 Cl1        12.3924    5.6169   20.9926 Cl        1 UNL1        0.0000
@<TRIPOS>BOND
     1    1    2 ar
     2    1    5 ar
     3    2    7 ar
     4    3    6 ar
     5    3    8 ar
     6    4    9 ar
     7    4   11 ar
     8    5   14 ar
     9    6   13 ar
    10    7   15 ar
    11    8   16 ar
    12    9   17 ar
    13   10   13 ar
    14   10   16 ar
    15   11   26 ar
    16   12   17 ar
    17   12   26 ar
    18   13   18 1
    19   14   15 ar
    20   14   18 1
    21   15   22 1
    22   16   24 1
    23   17   28 1
    24   18   19 2
    25   19   20 1
    26   19   27 1
    27   20   28 am
    28   20   30 2
    29   21   25 1
    30   21   27 am
    31   21   31 2
    32   22   27 1
    33   23   34 1
    34   24   29 1
    35   25   35 1
    36   29   34 1
    37   32   34 2
    38   33   34 2
@<TRIPOS>MOLECULE
PAU-WEI-f73-3
   28    30     0     0     0
SMALL
NO_CHARGES

@<TRIPOS>ATOM
      1 C1         14.3476   -0.2280   21.3423 C.1       1 UNL1        0.0000
      2 C2         10.3698   -3.1129   23.9218 C.2       1 UNL1        0.0000
      3 C3         10.0036   -4.0104   24.9661 C.2       1 UNL1        0.0000
      4 C4         12.0576   -0.4709   22.1871 C.ar      1 UNL1        0.0000
      5 C5         13.4858    1.1611   23.1636 C.ar      1 UNL1        0.0000
      6 C6         13.2990    0.1539   22.2306 C.ar      1 UNL1        0.0000
      7 C7         11.0551   -0.0750   23.0655 C.ar      1 UNL1        0.0000
      8 C8          9.6212   -1.9568   23.9467 C.2       1 UNL1        0.0000
      9 C9         11.3424    0.9423   23.9613 C.ar      1 UNL1        0.0000
     10 C10         8.9889   -3.5059   25.7496 C.2       1 UNL1        0.0000
     11 C11         6.2434   -1.2594   18.7132 C.2       1 UNL1        0.0000
     12 C12         8.3668   -0.2397   19.4698 C.3       1 UNL1        0.0000
     13 C13         7.8805   -2.5526   20.1678 C.3       1 UNL1        0.0000
     14 C14         8.7200    0.1396   20.9005 C.3       1 UNL1        0.0000
     15 C15         8.2284   -2.2083   21.6097 C.3       1 UNL1        0.0000
     16 C16         9.8498    3.6968   24.6163 C.3       1 UNL1        0.0000
     17 C17         5.6505    0.1206   18.5797 C.3       1 UNL1        0.0000
     18 C18        10.3387    2.6144   25.5176 C.3       1 UNL1        0.0000
     19 C19         9.6989   -0.7593   23.0145 C.3       1 UNL1        0.0000
     20 N1         15.2007   -0.5388   20.6195 N.1       1 UNL1        0.0000
     21 N2         12.5361    1.5729   24.0332 N.ar      1 UNL1        0.0000
     22 N3          7.4288   -1.3619   19.4398 N.am      1 UNL1        0.0000
     23 N4         10.3233    1.3496   24.8583 N.pl3     1 UNL1        0.0000
     24 N5          9.2402   -1.0843   21.6208 N.4       1 UNL1        0.0000
     25 O1          5.6702   -2.2156   18.1849 O.2       1 UNL1        0.0000
     26 S1          8.4821   -1.9565   25.2253 S.3       1 UNL1        0.0000
     27 Cl1         5.2865    0.6725   20.2108 Cl        1 UNL1        0.0000
     28 Br1         8.2304   -4.4087   27.2385 Br        1 UNL1        0.0000
@<TRIPOS>BOND
     1    1    6 1
     2    1   20 3
     3    2    3 1
     4    2    8 2
     5    3   10 2
     6    4    6 ar
     7    4    7 ar
     8    5    6 ar
     9    5   21 ar
    10    7    9 ar
    11    7   19 1
    12    8   19 1
    13    8   26 1
    14    9   21 ar
    15    9   23 1
    16   10   26 1
    17   10   28 1
    18   11   17 1
    19   11   22 am
    20   11   25 2
    21   12   14 1
    22   12   22 1
    23   13   15 1
    24   13   22 1
    25   14   24 1
    26   15   24 1
    27   16   18 1
    28   17   27 1
    29   18   23 1
    30   19   24 1
@<TRIPOS>MOLECULE
MAK-UNK-af8-21
   30    32     0     0     0
SMALL
NO_CHARGES

@<TRIPOS>ATOM
      1 C1         10.1016    6.4762   24.9800 C.1       1 UNL1        0.0000
      2 C2         14.1042    0.0794   22.0186 C.ar      1 UNL1        0.0000
      3 C3         13.5284    1.3070   22.3458 C.ar      1 UNL1        0.0000
      4 C4         13.7210   -1.0749   22.7016 C.ar      1 UNL1        0.0000
      5 C5         12.1863    0.2261   24.0392 C.ar      1 UNL1        0.0000
      6 C6         12.5695    1.3804   23.3561 C.ar      1 UNL1        0.0000
      7 C7         12.7621   -1.0015   23.7120 C.ar      1 UNL1        0.0000
      8 C8          7.7819   -5.1124   23.1880 C.2       1 UNL1        0.0000
      9 C9         10.6425    2.9651   22.9248 C.3       1 UNL1        0.0000
     10 C10        12.9250    3.8810   23.5131 C.3       1 UNL1        0.0000
     11 C11         8.9821   -3.9570   25.0171 C.3       1 UNL1        0.0000
     12 C12         8.9647   -2.8959   22.7930 C.3       1 UNL1        0.0000
     13 C13        10.4879   -3.7637   25.1203 C.3       1 UNL1        0.0000
     14 C14        10.4711   -2.6848   22.8635 C.3       1 UNL1        0.0000
     15 C15        11.9424    2.7164   23.7106 C.3       1 UNL1        0.0000
     16 C16        10.0170    4.3006   23.3239 C.3       1 UNL1        0.0000
     17 C17        12.2977    5.2218   23.8982 C.3       1 UNL1        0.0000
     18 C18        10.9829    5.4739   23.1529 C.3       1 UNL1        0.0000
     19 C19         6.4681    4.0958   21.9573 C.3       1 UNL1        0.0000
     20 C20        12.3505   -2.2430   24.4471 C.3       1 UNL1        0.0000
     21 C21         7.3890   -5.1203   21.7322 C.3       1 UNL1        0.0000
     22 C22         7.6210    3.7552   22.8762 C.3       1 UNL1        0.0000
     23 N1          9.8599    6.3396   26.1068 N.1       1 UNL1        0.0000
     24 N2          8.5568   -4.0368   23.6196 N.am      1 UNL1        0.0000
     25 N3         10.8855   -2.5491   24.3116 N.4       1 UNL1        0.0000
     26 N4          8.8178    4.5346   22.4687 N.4       1 UNL1        0.0000
     27 O1          7.4124   -6.0364   23.9172 O.2       1 UNL1        0.0000
     28 O2         13.2092    6.2707   23.5729 O.3       1 UNL1        0.0000
     29 O3         10.3716    6.6483   23.6895 O.3       1 UNL1        0.0000
     30 Cl1         5.8571   -5.9809   21.6286 Cl        1 UNL1        0.0000
@<TRIPOS>BOND
     1    1   23 3
     2    1   29 1
     3    2    3 ar
     4    2    4 ar
     5    3    6 ar
     6    4    7 ar
     7    5    6 ar
     8    5    7 ar
     9    6   15 1
    10    7   20 1
    11    8   21 1
    12    8   24 am
    13    8   27 2
    14    9   15 1
    15    9   16 1
    16   10   15 1
    17   10   17 1
    18   11   13 1
    19   11   24 1
    20   12   14 1
    21   12   24 1
    22   13   25 1
    23   14   25 1
    24   16   18 1
    25   16   26 1
    26   17   18 1
    27   17   28 1
    28   18   29 1
    29   19   22 1
    30   20   25 1
    31   21   30 1
    32   22   26 1
@<TRIPOS>MOLECULE
SEA-TRI-98d-1
   32    35     0     0     0
SMALL
NO_CHARGES

@<TRIPOS>ATOM
      1 C1         10.4082    1.9031   26.0396 C.ar      1 UNL1        0.0000
      2 C2         11.5209    2.1119   25.2243 C.ar      1 UNL1        0.0000
      3 C3          9.6552    0.7403   25.9066 C.ar      1 UNL1        0.0000
      4 C4         13.0115    1.3515   23.4347 C.ar      1 UNL1        0.0000
      5 C5         12.6153   -0.7699   22.3528 C.ar      1 UNL1        0.0000
      6 C6         11.8946    1.1578   24.2638 C.ar      1 UNL1        0.0000
      7 C7         11.1288   -0.0246   24.1285 C.ar      1 UNL1        0.0000
      8 C8         11.5025   -0.9787   23.1681 C.ar      1 UNL1        0.0000
      9 C9         10.0119   -0.2182   24.9576 C.ar      1 UNL1        0.0000
     10 C10        13.3683    0.3930   22.4858 C.ar      1 UNL1        0.0000
     11 C11         5.8433   -0.8149   17.5808 C.2       1 UNL1        0.0000
     12 C12         6.0300   -0.7230   18.8991 C.2       1 UNL1        0.0000
     13 C13         6.2716   -1.9573   19.6729 C.2       1 UNL1        0.0000
     14 C14         7.6877   -0.6422   21.3429 C.3       1 UNL1        0.0000
     15 C15         7.2598   -3.0534   21.6461 C.3       1 UNL1        0.0000
     16 C16         5.4444   -2.3637   25.6201 C.3       1 UNL1        0.0000
     17 C17         6.9935   -4.2088   25.4124 C.3       1 UNL1        0.0000
     18 C18         9.1681   -0.8616   21.6315 C.3       1 UNL1        0.0000
     19 C19         8.7348   -3.3004   21.9203 C.3       1 UNL1        0.0000
     20 C20         4.5849   -2.9117   24.4857 C.3       1 UNL1        0.0000
     21 C21         6.1789   -4.8104   24.2721 C.3       1 UNL1        0.0000
     22 C22         3.8586   -5.0272   23.3782 C.3       1 UNL1        0.0000
     23 C23        10.7644   -2.2647   22.9397 C.3       1 UNL1        0.0000
     24 C24         7.6712   -2.1803   26.5219 C.3       1 UNL1        0.0000
     25 C25         9.1206   -2.1184   26.0759 C.3       1 UNL1        0.0000
     26 N1          7.0583   -1.8623   20.8183 N.am      1 UNL1        0.0000
     27 N2          6.8522   -2.7474   25.4511 N.3       1 UNL1        0.0000
     28 N3          4.7336   -4.4114   24.4327 N.4       1 UNL1        0.0000
     29 N4          9.3311   -2.0577   22.5383 N.4       1 UNL1        0.0000
     30 O1          5.7574   -2.9980   19.2595 O.2       1 UNL1        0.0000
     31 O2          9.2188   -1.3279   24.8946 O.3       1 UNL1        0.0000
     32 Cl1        14.7409    0.6493   21.4793 Cl        1 UNL1        0.0000
@<TRIPOS>BOND
     1    1    2 ar
     2    1    3 ar
     3    2    6 ar
     4    3    9 ar
     5    4    6 ar
     6    4   10 ar
     7    5    8 ar
     8    5   10 ar
     9    6    7 ar
    10    7    8 ar
    11    7    9 ar
    12    8   23 1
    13    9   31 1
    14   10   32 1
    15   11   12 2
    16   12   13 1
    17   13   26 am
    18   13   30 2
    19   14   18 1
    20   14   26 1
    21   15   19 1
    22   15   26 1
    23   16   20 1
    24   16   27 1
    25   17   21 1
    26   17   27 1
    27   18   29 1
    28   19   29 1
    29   20   28 1
    30   21   28 1
    31   22   28 1
    32   23   29 1
    33   24   25 1
    34   24   27 1
    35   25   31 1
@<TRIPOS>MOLECULE
AVI-UNI-70b-1
   27    29     0     0     0
SMALL
NO_CHARGES

@<TRIPOS>ATOM
      1 C1          6.7216   -5.6875   21.9464 C.ar      1 UNL1        0.0000
      2 C2          7.3036   -4.5602   22.5262 C.ar      1 UNL1        0.0000
      3 C3          6.0619    1.0486   17.8532 C.ar      1 UNL1        0.0000
      4 C4          7.3110    0.7720   18.4088 C.ar      1 UNL1        0.0000
      5 C5          5.5195   -6.1874   22.4472 C.ar      1 UNL1        0.0000
      6 C6          5.0523    0.8864   20.0422 C.ar      1 UNL1        0.0000
      7 C7          5.4814   -4.4329   24.1076 C.ar      1 UNL1        0.0000
      8 C8          6.3014    0.6098   20.5978 C.ar      1 UNL1        0.0000
      9 C9          6.6835   -3.9329   23.6068 C.ar      1 UNL1        0.0000
     10 C10         4.9325    1.1058   18.6699 C.ar      1 UNL1        0.0000
     11 C11         7.4308    0.5526   19.7811 C.ar      1 UNL1        0.0000
     12 C12         4.8994   -5.5601   23.5277 C.ar      1 UNL1        0.0000
     13 C13         9.7443    1.2377   23.2020 C.2       1 UNL1        0.0000
     14 C14         8.1205    0.3542   24.8155 C.3       1 UNL1        0.0000
     15 C15         7.2565    1.4990   22.7537 C.3       1 UNL1        0.0000
     16 C16         6.7829   -0.3652   24.9123 C.3       1 UNL1        0.0000
     17 C17         6.8914   -1.0536   22.4258 C.3       1 UNL1        0.0000
     18 C18         6.4135    0.3725   22.0999 C.3       1 UNL1        0.0000
     19 C19         7.3107   -2.7212   24.2307 C.3       1 UNL1        0.0000
     20 C20        10.7849    0.7740   24.1893 C.3       1 UNL1        0.0000
     21 N1          8.4040    1.0134   23.5369 N.am      1 UNL1        0.0000
     22 N2          6.6081   -1.4378   23.8654 N.4       1 UNL1        0.0000
     23 O1         10.1101    1.7822   22.1563 O.2       1 UNL1        0.0000
     24 O2          3.7139    1.3761   18.1273 O.3       1 UNL1        0.0000
     25 O3          8.6583    0.2824   20.3072 O.3       1 UNL1        0.0000
     26 Cl1         3.4169   -6.1781   24.1458 Cl        1 UNL1        0.0000
     27 Cl2        11.1655   -0.8934   23.7741 Cl        1 UNL1        0.0000
@<TRIPOS>BOND
     1    1    2 ar
     2    1    5 ar
     3    2    9 ar
     4    3    4 ar
     5    3   10 ar
     6    4   11 ar
     7    5   12 ar
     8    6    8 ar
     9    6   10 ar
    10    7    9 ar
    11    7   12 ar
    12    8   11 ar
    13    8   18 1
    14    9   19 1
    15   10   24 1
    16   11   25 1
    17   12   26 1
    18   13   20 1
    19   13   21 am
    20   13   23 2
    21   14   16 1
    22   14   21 1
    23   15   18 1
    24   15   21 1
    25   16   22 1
    26   17   18 1
    27   17   22 1
    28   19   22 1
    29   20   27 1
@<TRIPOS>MOLECULE
MIH-UNI-e57-5
   23    24     0     0     0
SMALL
NO_CHARGES

@<TRIPOS>ATOM
      1 C1         14.7313   -1.8162   24.2196 C.ar      1 UNL1        0.0000
      2 C2         14.5301   -2.3943   22.9663 C.ar      1 UNL1        0.0000
      3 C3         14.0769   -0.6306   24.5540 C.ar      1 UNL1        0.0000
      4 C4         13.6746   -1.7867   22.0473 C.ar      1 UNL1        0.0000
      5 C5         13.2214   -0.0230   23.6350 C.ar      1 UNL1        0.0000
      6 C6         13.0202   -0.6011   22.3816 C.ar      1 UNL1        0.0000
      7 C7          6.7284   -0.9940   20.5269 C.2       1 UNL1        0.0000
      8 C8          8.7275   -1.7034   21.8002 C.3       1 UNL1        0.0000
      9 C9          8.3436    0.7123   21.5002 C.3       1 UNL1        0.0000
     10 C10        10.1749   -1.5494   21.3565 C.3       1 UNL1        0.0000
     11 C11         9.7868    0.9031   21.0534 C.3       1 UNL1        0.0000
     12 C12        12.5305    1.2454   24.0153 C.3       1 UNL1        0.0000
     13 C13        12.1054    0.0342   21.3764 C.3       1 UNL1        0.0000
     14 C14         5.9204    0.1472   19.9625 C.3       1 UNL1        0.0000
     15 C15        11.6410    1.1100   25.2531 C.3       1 UNL1        0.0000
     16 N1          7.8866   -0.6539   21.2244 N.am      1 UNL1        0.0000
     17 N2         10.0137   -0.4091   26.7007 N.pl3     1 UNL1        0.0000
     18 N3         10.6505   -0.1558   21.7014 N.4       1 UNL1        0.0000
     19 O1          6.3416   -2.1520   20.3499 O.2       1 UNL1        0.0000
     20 O2          9.2410    0.4979   24.4209 O.2       1 UNL1        0.0000
     21 O3         11.0036   -1.3109   24.5044 O.2       1 UNL1        0.0000
     22 S1         10.3885   -0.1195   25.0629 S.o2      1 UNL1        0.0000
     23 Cl1         6.5607    0.4714   18.3554 Cl        1 UNL1        0.0000
@<TRIPOS>BOND
     1    1    2 ar
     2    1    3 ar
     3    2    4 ar
     4    3    5 ar
     5    4    6 ar
     6    5    6 ar
     7    5   12 1
     8    6   13 1
     9    7   14 1
    10    7   16 am
    11    7   19 2
    12    8   10 1
    13    8   16 1
    14    9   11 1
    15    9   16 1
    16   10   18 1
    17   11   18 1
    18   12   15 1
    19   13   18 1
    20   14   23 1
    21   15   22 1
    22   17   22 1
    23   20   22 2
    24   21   22 2
@<TRIPOS>MOLECULE
PAU-WEI-b9b-6
   28    30     0     0     0
SMALL
NO_CHARGES

@<TRIPOS>ATOM
      1 C1          8.3224    0.7186   25.7846 C.1       1 UNL1        0.0000
      2 C2          8.4495    1.7588   22.2128 C.ar      1 UNL1        0.0000
      3 C3          8.0055    1.1898   23.4064 C.ar      1 UNL1        0.0000
      4 C4          9.6660    2.4404   22.1753 C.ar      1 UNL1        0.0000
      5 C5         11.5391   -1.0179   24.6525 C.ar      1 UNL1        0.0000
      6 C6         11.7480   -1.7631   22.3638 C.ar      1 UNL1        0.0000
      7 C7         12.2919    0.1172   24.3516 C.ar      1 UNL1        0.0000
      8 C8         12.5008   -0.6279   22.0629 C.ar      1 UNL1        0.0000
      9 C9          9.9943    1.9839   24.5249 C.ar      1 UNL1        0.0000
     10 C10         8.7778    1.3023   24.5624 C.ar      1 UNL1        0.0000
     11 C11        11.2672   -1.9581   23.6585 C.ar      1 UNL1        0.0000
     12 C12        12.7727    0.3122   23.0569 C.ar      1 UNL1        0.0000
     13 C13        10.4383    2.5530   23.3313 C.ar      1 UNL1        0.0000
     14 C14        11.7003    7.4863   26.1919 C.2       1 UNL1        0.0000
     15 C15        12.8984    5.8326   24.7971 C.3       1 UNL1        0.0000
     16 C16        10.4665    5.5450   25.1090 C.3       1 UNL1        0.0000
     17 C17        12.7511    5.6154   23.2983 C.3       1 UNL1        0.0000
     18 C18        10.2862    5.3210   23.6135 C.3       1 UNL1        0.0000
     19 C19        10.4625   -3.1720   23.9793 C.3       1 UNL1        0.0000
     20 C20        13.5848    1.5402   22.7321 C.3       1 UNL1        0.0000
     21 C21        10.3842    7.9607   26.7546 C.3       1 UNL1        0.0000
     22 C22        12.7792    2.7638   22.2616 C.3       1 UNL1        0.0000
     23 C23        11.7571    3.2921   23.2904 C.3       1 UNL1        0.0000
     24 N1          7.9526    0.2446   26.7772 N.1       1 UNL1        0.0000
     25 N2         11.6615    6.3512   25.3823 N.am      1 UNL1        0.0000
     26 N3         11.5459    4.7533   23.0023 N.4       1 UNL1        0.0000
     27 O1         12.7305    8.1087   26.4628 O.2       1 UNL1        0.0000
     28 Cl1        10.7400    9.3671   27.7513 Cl        1 UNL1        0.0000
@<TRIPOS>BOND
     1    1   10 1
     2    1   24 3
     3    2    3 ar
     4    2    4 ar
     5    3   10 ar
     6    4   13 ar
     7    5    7 ar
     8    5   11 ar
     9    6    8 ar
    10    6   11 ar
    11    7   12 ar
    12    8   12 ar
    13    9   10 ar
    14    9   13 ar
    15   11   19 1
    16   12   20 1
    17   13   23 1
    18   14   21 1
    19   14   25 am
    20   14   27 2
    21   15   17 1
    22   15   25 1
    23   16   18 1
    24   16   25 1
    25   17   26 1
    26   18   26 1
    27   20   22 1
    28   21   28 1
    29   22   23 1
    30   23   26 1
@<TRIPOS>MOLECULE
TIM-UNK-6bd-2
   20    22     0     0     0
SMALL
NO_CHARGES

@<TRIPOS>ATOM
      1 C1          7.4393   -0.7980   20.1255 C.ar      1 UNL1        0.0000
      2 C2         12.2621    0.0250   23.0313 C.ar      1 UNL1        0.0000
      3 C3          8.5712   -0.4870   20.8701 C.ar      1 UNL1        0.0000
      4 C4         11.2338   -0.5137   22.2661 C.ar      1 UNL1        0.0000
      5 C5          6.5927   -1.8135   20.5553 C.ar      1 UNL1        0.0000
      6 C6         11.9685    0.4195   24.3267 C.ar      1 UNL1        0.0000
      7 C7          9.7706   -0.2158   24.1172 C.ar      1 UNL1        0.0000
      8 C8          9.9612   -0.6398   22.8119 C.ar      1 UNL1        0.0000
      9 C9          8.8667   -1.1984   22.0382 C.ar      1 UNL1        0.0000
     10 C10         8.0494   -2.2509   22.4716 C.ar      1 UNL1        0.0000
     11 C11         6.8918   -2.5333   21.7182 C.ar      1 UNL1        0.0000
     12 C12         9.4641   -3.0760   24.4195 C.2       1 UNL1        0.0000
     13 C13         7.0912   -3.6597   24.1987 C.3       1 UNL1        0.0000
     14 C14         6.4117   -4.3977   23.0642 C.3       1 UNL1        0.0000
     15 C15         9.4354   -3.7810   25.7536 C.3       1 UNL1        0.0000
     16 N1         10.7448    0.3126   24.8913 N.ar      1 UNL1        0.0000
     17 N2          8.2828   -2.9820   23.6812 N.am      1 UNL1        0.0000
     18 O1         10.5225   -2.5407   24.0688 O.2       1 UNL1        0.0000
     19 O2          5.9651   -3.4895   22.0591 O.3       1 UNL1        0.0000
     20 Cl1         9.7513   -5.4801   25.4273 Cl        1 UNL1        0.0000
@<TRIPOS>BOND
     1    1    3 ar
     2    1    5 ar
     3    2    4 ar
     4    2    6 ar
     5    3    9 ar
     6    4    8 ar
     7    5   11 ar
     8    6   16 ar
     9    7    8 ar
    10    7   16 ar
    11    8    9 1
    12    9   10 ar
    13   10   11 ar
    14   10   17 1
    15   11   19 1
    16   12   15 1
    17   12   17 am
    18   12   18 2
    19   13   14 1
    20   13   17 1
    21   14   19 1
    22   15   20 1
@<TRIPOS>MOLECULE
WAL-WAB-df1-2
   24    26     0     0     0
SMALL
NO_CHARGES

@<TRIPOS>ATOM
      1 C1         13.0485   -1.8434   23.0031 C.ar      1 UNL1        0.0000
      2 C2         13.2419   -0.6943   23.7697 C.ar      1 UNL1        0.0000
      3 C3         11.7555   -2.2846   22.7216 C.ar      1 UNL1        0.0000
      4 C4          7.2112    0.0319   20.4596 C.2       1 UNL1        0.0000
      5 C5          7.8972   -1.1514   20.8588 C.2       1 UNL1        0.0000
      6 C6         10.8493   -0.4275   23.9734 C.ar      1 UNL1        0.0000
      7 C7         12.1423    0.0137   24.2549 C.ar      1 UNL1        0.0000
      8 C8         10.6559   -1.5767   23.2068 C.ar      1 UNL1        0.0000
      9 C9          7.2598    1.0099   21.4284 C.2       1 UNL1        0.0000
     10 C10         8.4442   -1.0326   22.1176 C.2       1 UNL1        0.0000
     11 C11         6.5872   -5.6478   26.1762 C.2       1 UNL1        0.0000
     12 C12         8.5060   -4.0910   26.0513 C.3       1 UNL1        0.0000
     13 C13         6.3709   -3.3791   25.0474 C.3       1 UNL1        0.0000
     14 C14         9.2563   -3.6915   24.7892 C.3       1 UNL1        0.0000
     15 C15         7.0899   -2.9669   23.7700 C.3       1 UNL1        0.0000
     16 C16        12.3499    1.2431   25.0732 C.3       1 UNL1        0.0000
     17 C17         6.6745    2.3679   21.3957 C.3       1 UNL1        0.0000
     18 C18         5.1468   -5.9201   25.8227 C.3       1 UNL1        0.0000
     19 C19         9.2471   -2.0579   22.9006 C.3       1 UNL1        0.0000
     20 N1          7.1148   -4.4294   25.7510 N.am      1 UNL1        0.0000
     21 N2          8.5092   -2.5676   24.1066 N.4       1 UNL1        0.0000
     22 O1          7.2232   -6.4947   26.8089 O.2       1 UNL1        0.0000
     23 S1          8.1298    0.5006   22.8126 S.3       1 UNL1        0.0000
     24 Cl1         5.1538   -6.6953   24.2426 Cl        1 UNL1        0.0000
@<TRIPOS>BOND
     1    1    2 ar
     2    1    3 ar
     3    2    7 ar
     4    3    8 ar
     5    4    5 1
     6    4    9 2
     7    5   10 2
     8    6    7 ar
     9    6    8 ar
    10    7   16 1
    11    8   19 1
    12    9   17 1
    13    9   23 1
    14   10   19 1
    15   10   23 1
    16   11   18 1
    17   11   20 am
    18   11   22 2
    19   12   14 1
    20   12   20 1
    21   13   15 1
    22   13   20 1
    23   14   21 1
    24   15   21 1
    25   18   24 1
    26   19   21 1
@<TRIPOS>MOLECULE
NIR-THE-c33-4
   28    31     0     0     0
SMALL
NO_CHARGES

@<TRIPOS>ATOM
      1 C1         10.6139    5.7079   23.2891 C.ar      1 UNL1        0.0000
      2 C2          9.5749    5.2421   24.0896 C.ar      1 UNL1        0.0000
      3 C3          7.8506   -1.0492   23.8564 C.ar      1 UNL1        0.0000
      4 C4          6.5137   -1.5174   21.8574 C.ar      1 UNL1        0.0000
      5 C5         11.6314    4.8407   22.8927 C.ar      1 UNL1        0.0000
      6 C6          9.5532    3.9090   24.4967 C.ar      1 UNL1        0.0000
      7 C7          8.8265   -0.2937   24.5070 C.ar      1 UNL1        0.0000
      8 C8          6.1716   -1.2233   20.5372 C.ar      1 UNL1        0.0000
      9 C9          9.1158    1.0460   22.5197 C.ar      1 UNL1        0.0000
     10 C10         7.7788    0.5779   20.5207 C.ar      1 UNL1        0.0000
     11 C11         7.4937   -0.7673   22.5277 C.ar      1 UNL1        0.0000
     12 C12         8.1358    0.2960   21.8494 C.ar      1 UNL1        0.0000
     13 C13         9.4579    0.7519   23.8400 C.ar      1 UNL1        0.0000
     14 C14        11.6183    3.4948   23.2885 C.ar      1 UNL1        0.0000
     15 C15        10.5726    3.0257   24.1056 C.ar      1 UNL1        0.0000
     16 C16         6.8029   -0.1777   19.8701 C.ar      1 UNL1        0.0000
     17 C17        13.0312    0.2084   22.2841 C.2       1 UNL1        0.0000
     18 C18        12.7465    2.5950   22.8488 C.3       1 UNL1        0.0000
     19 C19        11.9071    0.9073   24.4525 C.3       1 UNL1        0.0000
     20 C20        10.5239    1.5750   24.5523 C.3       1 UNL1        0.0000
     21 C21        12.7758   -1.2308   22.6552 C.3       1 UNL1        0.0000
     22 N1         12.5345    1.1787   23.1555 N.am      1 UNL1        0.0000
     23 N2          5.1116    1.3172   18.4525 N.pl3     1 UNL1        0.0000
     24 O1         13.6514    0.4636   21.2484 O.2       1 UNL1        0.0000
     25 O2          7.4990    0.8671   17.5904 O.2       1 UNL1        0.0000
     26 O3          5.8196   -1.0109   17.6067 O.2       1 UNL1        0.0000
     27 S1          6.3734    0.1892   18.2180 S.o2      1 UNL1        0.0000
     28 Cl1        11.2253   -1.6654   21.9456 Cl        1 UNL1        0.0000
@<TRIPOS>BOND
     1    1    2 ar
     2    1    5 ar
     3    2    6 ar
     4    3    7 ar
     5    3   11 ar
     6    4    8 ar
     7    4   11 ar
     8    5   14 ar
     9    6   15 ar
    10    7   13 ar
    11    8   16 ar
    12    9   12 ar
    13    9   13 ar
    14   10   12 ar
    15   10   16 ar
    16   11   12 ar
    17   13   20 1
    18   14   15 ar
    19   14   18 1
    20   15   20 1
    21   16   27 1
    22   17   21 1
    23   17   22 am
    24   17   24 2
    25   18   22 1
    26   19   20 1
    27   19   22 1
    28   21   28 1
    29   23   27 1
    30   25   27 2
    31   26   27 2
@<TRIPOS>MOLECULE
DAR-DIA-fb2-15
   27    29     0     0     0
SMALL
NO_CHARGES

@<TRIPOS>ATOM
      1 C1         11.2269    0.2848   25.1745 C.ar      1 UNL1        0.0000
      2 C2          9.5583   -1.4701   24.9925 C.ar      1 UNL1        0.0000
      3 C3         12.5490   -0.0864   21.7871 C.2       1 UNL1        0.0000
      4 C4         11.6306    0.0267   23.8495 C.ar      1 UNL1        0.0000
      5 C5          9.9416   -1.7440   23.6765 C.ar      1 UNL1        0.0000
      6 C6         12.6179    0.5816   22.9879 C.2       1 UNL1        0.0000
      7 C7         10.9800   -0.9797   23.1325 C.ar      1 UNL1        0.0000
      8 C8         10.1896   -0.4718   25.7318 C.ar      1 UNL1        0.0000
      9 C9          6.1477   -2.3135   18.8865 C.2       1 UNL1        0.0000
     10 C10        11.7071    4.2838   24.2659 C.2       1 UNL1        0.0000
     11 C11         7.2753   -3.7086   20.5889 C.3       1 UNL1        0.0000
     12 C12         7.6753   -1.2730   20.6323 C.3       1 UNL1        0.0000
     13 C13         7.0211   -3.7128   22.0891 C.3       1 UNL1        0.0000
     14 C14         7.4291   -1.2444   22.1349 C.3       1 UNL1        0.0000
     15 C15        10.2854    4.6440   24.5442 C.3       1 UNL1        0.0000
     16 C16        13.5531    1.6775   23.3139 C.3       1 UNL1        0.0000
     17 C17         9.2408   -2.8263   22.9094 C.3       1 UNL1        0.0000
     18 C18         6.4046   -1.1670   17.9413 C.3       1 UNL1        0.0000
     19 C19        13.1715    3.0335   22.6928 C.3       1 UNL1        0.0000
     20 N1         11.5580   -1.0260   21.8839 N.pl3     1 UNL1        0.0000
     21 N2          6.9779   -2.4006   20.0039 N.am      1 UNL1        0.0000
     22 N3         11.8847    3.4927   23.1422 N.am      1 UNL1        0.0000
     23 N4          7.7648   -2.5797   22.7571 N.4       1 UNL1        0.0000
     24 O1          5.2345   -3.1052   18.6390 O.2       1 UNL1        0.0000
     25 O2         12.5905    4.6908   25.0113 O.2       1 UNL1        0.0000
     26 Cl1         9.6904   -0.1623   27.3517 Cl        1 UNL1        0.0000
     27 Cl2         5.3880    0.1658   18.4779 Cl        1 UNL1        0.0000
@<TRIPOS>BOND
     1    1    4 ar
     2    1    8 ar
     3    2    5 ar
     4    2    8 ar
     5    3    6 2
     6    3   20 1
     7    4    6 1
     8    4    7 ar
     9    5    7 ar
    10    5   17 1
    11    6   16 1
    12    7   20 1
    13    8   26 1
    14    9   18 1
    15    9   21 am
    16    9   24 2
    17   10   15 1
    18   10   22 am
    19   10   25 2
    20   11   13 1
    21   11   21 1
    22   12   14 1
    23   12   21 1
    24   13   23 1
    25   14   23 1
    26   16   19 1
    27   17   23 1
    28   18   27 1
    29   19   22 1
@<TRIPOS>MOLECULE
MIH-UNI-e57-7
   25    27     0     0     0
SMALL
NO_CHARGES

@<TRIPOS>ATOM
      1 C1          8.8750   -2.8600   25.3576 C.ar      1 UNL1        0.0000
      2 C2          8.5267   -1.9121   26.3197 C.ar      1 UNL1        0.0000
      3 C3          9.2859   -2.4484   24.0897 C.ar      1 UNL1        0.0000
      4 C4          9.0001   -0.1409   24.7462 C.ar      1 UNL1        0.0000
      5 C5          8.5893   -0.5525   26.0140 C.ar      1 UNL1        0.0000
      6 C6          9.3484   -1.0888   23.7840 C.ar      1 UNL1        0.0000
      7 C7          6.7051    0.3644   18.4752 C.2       1 UNL1        0.0000
      8 C8         13.1983    0.7721   23.2192 C.3       1 UNL1        0.0000
      9 C9         13.4417   -1.6129   22.4469 C.3       1 UNL1        0.0000
     10 C10        11.6875    0.5370   23.3154 C.3       1 UNL1        0.0000
     11 C11        11.9217   -1.7584   22.5717 C.3       1 UNL1        0.0000
     12 C12         7.0777   -0.3987   20.7979 C.3       1 UNL1        0.0000
     13 C13         9.0420    0.2964   19.4742 C.3       1 UNL1        0.0000
     14 C14         7.5512    0.4397   21.9761 C.3       1 UNL1        0.0000
     15 C15         9.5441    1.1428   20.6363 C.3       1 UNL1        0.0000
     16 C16        13.9974   -0.5222   23.3610 C.3       1 UNL1        0.0000
     17 C17         8.2181    0.4604   27.0439 C.3       1 UNL1        0.0000
     18 C18         5.2885    0.7276   18.8433 C.3       1 UNL1        0.0000
     19 C19         9.7938   -0.6421   22.4072 C.3       1 UNL1        0.0000
     20 N1          7.5853    0.1309   19.5317 N.am      1 UNL1        0.0000
     21 N2         11.2457   -0.4738   22.3454 N.3       1 UNL1        0.0000
     22 N3          9.0548    0.5869   21.9532 N.4       1 UNL1        0.0000
     23 O1          7.0173    0.2885   17.2841 O.2       1 UNL1        0.0000
     24 O2         13.9826   -0.9626   24.7168 O.3       1 UNL1        0.0000
     25 Cl1         5.3810    2.1869   19.8229 Cl        1 UNL1        0.0000
@<TRIPOS>BOND
     1    1    2 ar
     2    1    3 ar
     3    2    5 ar
     4    3    6 ar
     5    4    5 ar
     6    4    6 ar
     7    5   17 1
     8    6   19 1
     9    7   18 1
    10    7   20 am
    11    7   23 2
    12    8   10 1
    13    8   16 1
    14    9   11 1
    15    9   16 1
    16   10   21 1
    17   11   21 1
    18   12   14 1
    19   12   20 1
    20   13   15 1
    21   13   20 1
    22   14   22 1
    23   15   22 1
    24   16   24 1
    25   18   25 1
    26   19   21 1
    27   19   22 1
@<TRIPOS>MOLECULE
MIH-UNI-e57-6
   25    27     0     0     0
SMALL
NO_CHARGES

@<TRIPOS>ATOM
      1 C1         11.9016    0.0408   25.1010 C.ar      1 UNL1        0.0000
      2 C2         12.9771   -0.4961   24.3934 C.ar      1 UNL1        0.0000
      3 C3         10.6203   -0.4818   24.9249 C.ar      1 UNL1        0.0000
      4 C4         11.4901   -2.0780   23.3335 C.ar      1 UNL1        0.0000
      5 C5         12.7713   -1.5554   23.5096 C.ar      1 UNL1        0.0000
      6 C6         10.4146   -1.5412   24.0412 C.ar      1 UNL1        0.0000
      7 C7          6.8837   -5.7423   26.7179 C.2       1 UNL1        0.0000
      8 C8          6.9873    0.6629   22.3924 C.3       1 UNL1        0.0000
      9 C9          8.2007   -0.0003   23.0440 C.3       1 UNL1        0.0000
     10 C10         8.8069   -4.3090   26.1157 C.3       1 UNL1        0.0000
     11 C11         6.7178   -4.0521   24.8259 C.3       1 UNL1        0.0000
     12 C12         9.0694   -1.6541   21.4983 C.3       1 UNL1        0.0000
     13 C13         8.9149   -2.7999   26.2775 C.3       1 UNL1        0.0000
     14 C14         6.7988   -2.5381   24.9680 C.3       1 UNL1        0.0000
     15 C15         6.7383    0.3667   20.9194 C.3       1 UNL1        0.0000
     16 C16         8.2899   -1.2841   20.2402 C.3       1 UNL1        0.0000
     17 C17        13.9220   -2.1298   22.7545 C.3       1 UNL1        0.0000
     18 C18         5.4433   -6.1107   26.4656 C.3       1 UNL1        0.0000
     19 C19         9.0233   -2.1080   23.8495 C.3       1 UNL1        0.0000
     20 N1          7.4165   -4.7244   25.9271 N.am      1 UNL1        0.0000
     21 N2          8.3193   -1.4370   22.7496 N.3       1 UNL1        0.0000
     22 N3          8.2333   -2.0923   25.1295 N.4       1 UNL1        0.0000
     23 O1          7.5138   -6.3405   27.5938 O.2       1 UNL1        0.0000
     24 O2          7.9329    0.0940   20.1990 O.3       1 UNL1        0.0000
     25 Cl1         4.4724   -5.1171   27.5462 Cl        1 UNL1        0.0000
@<TRIPOS>BOND
     1    1    2 ar
     2    1    3 ar
     3    2    5 ar
     4    3    6 ar
     5    4    5 ar
     6    4    6 ar
     7    5   17 1
     8    6   19 1
     9    7   18 1
    10    7   20 am
    11    7   23 2
    12    8    9 1
    13    8   15 1
    14    9   21 1
    15   10   13 1
    16   10   20 1
    17   11   14 1
    18   11   20 1
    19   12   16 1
    20   12   21 1
    21   13   22 1
    22   14   22 1
    23   15   24 1
    24   16   24 1
    25   18   25 1
    26   19   21 1
    27   19   22 1
@<TRIPOS>MOLECULE
GER-FIO-88d-2
   37    41     0     0     0
SMALL
NO_CHARGES

@<TRIPOS>ATOM
      1 C1         15.0254    0.4138   23.3119 C.ar      1 UNL1        0.0000
      2 C2         15.0859    1.4619   24.2219 C.ar      1 UNL1        0.0000
      3 C3          5.6877   -0.3971   19.5106 C.ar      1 UNL1        0.0000
      4 C4         13.7955    0.0191   22.7788 C.ar      1 UNL1        0.0000
      5 C5         13.9166    2.1189   24.5919 C.ar      1 UNL1        0.0000
      6 C6          6.6871   -0.0512   20.4133 C.ar      1 UNL1        0.0000
      7 C7          7.5909   -4.8107   22.8639 C.ar      1 UNL1        0.0000
      8 C8          6.9894   -5.1975   24.0631 C.ar      1 UNL1        0.0000
      9 C9          8.2509   -3.5266   25.2684 C.ar      1 UNL1        0.0000
     10 C10         9.8560   -2.0866   23.8335 C.2       1 UNL1        0.0000
     11 C11         6.0148   -0.4367   18.1648 C.ar      1 UNL1        0.0000
     12 C12         8.1901    0.1721   18.5838 C.ar      1 UNL1        0.0000
     13 C13         8.8785   -3.1110   24.0692 C.ar      1 UNL1        0.0000
     14 C14        12.6026    0.6664   23.1453 C.ar      1 UNL1        0.0000
     15 C15        12.6798    1.7343   24.0490 C.ar      1 UNL1        0.0000
     16 C16         7.9649    0.2404   19.9492 C.ar      1 UNL1        0.0000
     17 C17         8.5346   -3.7649   22.8820 C.ar      1 UNL1        0.0000
     18 C18         7.3144   -4.5636   25.2539 C.ar      1 UNL1        0.0000
     19 C19        10.2209   -1.9892   22.5118 C.2       1 UNL1        0.0000
     20 C20        11.2690    0.2730   22.6165 C.2       1 UNL1        0.0000
     21 C21        10.2134    1.0974   22.8198 C.2       1 UNL1        0.0000
     22 C22         8.9236    0.7036   22.2233 C.2       1 UNL1        0.0000
     23 C23         9.2451    3.2379   23.5648 C.2       1 UNL1        0.0000
     24 C24        11.4341    2.4496   24.4814 C.3       1 UNL1        0.0000
     25 C25        11.2045   -1.0491   21.8849 C.3       1 UNL1        0.0000
     26 C26         9.0494    4.0447   24.8299 C.3       1 UNL1        0.0000
     27 N1          7.2446   -0.1600   17.6763 N.ar      1 UNL1        0.0000
     28 N2         10.2703    2.2664   23.5952 N.am      1 UNL1        0.0000
     29 N3          7.6385   -6.2675   27.2779 N.pl3     1 UNL1        0.0000
     30 N4          9.0033    0.5961   20.8442 N.am      1 UNL1        0.0000
     31 O1          7.9544    0.5160   22.9512 O.2       1 UNL1        0.0000
     32 O2          8.5236    3.4877   22.5957 O.2       1 UNL1        0.0000
     33 O3          6.5929   -3.9452   27.6767 O.2       1 UNL1        0.0000
     34 O4          5.2778   -5.6905   26.4229 O.2       1 UNL1        0.0000
     35 S1          9.3997   -3.1206   21.5367 S.3       1 UNL1        0.0000
     36 S2          6.5514   -5.0624   26.7441 S.o2      1 UNL1        0.0000
     37 Cl1         8.6230    2.8969   26.0921 Cl        1 UNL1        0.0000
@<TRIPOS>BOND
     1    1    2 ar
     2    1    4 ar
     3    2    5 ar
     4    3    6 ar
     5    3   11 ar
     6    4   14 ar
     7    5   15 ar
     8    6   16 ar
     9    7    8 ar
    10    7   17 ar
    11    8   18 ar
    12    9   13 ar
    13    9   18 ar
    14   10   13 1
    15   10   19 2
    16   11   27 ar
    17   12   16 ar
    18   12   27 ar
    19   13   17 ar
    20   14   15 ar
    21   14   20 1
    22   15   24 1
    23   16   30 1
    24   17   35 1
    25   18   36 1
    26   19   25 1
    27   19   35 1
    28   20   21 2
    29   20   25 1
    30   21   22 1
    31   21   28 1
    32   22   30 am
    33   22   31 2
    34   23   26 1
    35   23   28 am
    36   23   32 2
    37   24   28 1
    38   26   37 1
    39   29   36 1
    40   33   36 2
    41   34   36 2
@<TRIPOS>MOLECULE
DAV-CRI-eab-2
   17    18     0     0     0
SMALL
NO_CHARGES

@<TRIPOS>ATOM
      1 C1         10.6185   -1.3240   23.9571 C.2       1 UNL1        0.0000
      2 C2         12.1337    0.5357   24.3445 C.2       1 UNL1        0.0000
      3 C3         11.2233   -0.3306   24.8101 C.2       1 UNL1        0.0000
      4 C4         11.0480   -1.5396   22.7016 C.2       1 UNL1        0.0000
      5 C5          9.0767   -0.8136   20.6648 C.2       1 UNL1        0.0000
      6 C6         14.5266   -0.9170   22.8560 C.3       1 UNL1        0.0000
      7 C7         14.1345    0.5488   22.8165 C.3       1 UNL1        0.0000
      8 C8         13.4825   -1.5921   21.9781 C.3       1 UNL1        0.0000
      9 C9         12.6061    0.5232   22.9114 C.3       1 UNL1        0.0000
     10 C10        12.1972   -0.7471   22.1104 C.3       1 UNL1        0.0000
     11 C11         9.2189   -3.2078   22.5014 C.3       1 UNL1        0.0000
     12 C12         8.8509   -0.1749   19.3182 C.3       1 UNL1        0.0000
     13 C13        10.4026   -2.5643   21.8133 C.3       1 UNL1        0.0000
     14 N1         10.0207   -1.8342   20.6404 N.am      1 UNL1        0.0000
     15 O1          8.4800   -0.4344   21.6710 O.2       1 UNL1        0.0000
     16 Cl1        10.7016   -0.2528   26.4544 Cl        1 UNL1        0.0000
     17 Cl2         7.1463   -0.3921   18.8915 Cl        1 UNL1        0.0000
@<TRIPOS>BOND
     1    1    3 1
     2    1    4 2
     3    2    3 2
     4    2    9 1
     5    3   16 1
     6    4   10 1
     7    4   13 1
     8    5   12 1
     9    5   14 am
    10    5   15 2
    11    6    7 1
    12    6    8 1
    13    7    9 1
    14    8   10 1
    15    9   10 1
    16   11   13 1
    17   12   17 1
    18   13   14 1
@<TRIPOS>MOLECULE
WAR-XCH-72a-5
   25    27     0     0     0
SMALL
NO_CHARGES

@<TRIPOS>ATOM
      1 C1          6.3313   -1.9059   19.7661 C.2       1 UNL1        0.0000
      2 C2          7.4407   -4.6991   27.9180 C.3       1 UNL1        0.0000
      3 C3          8.4490   -5.7065   27.3744 C.3       1 UNL1        0.0000
      4 C4          6.7722   -3.9125   26.7948 C.3       1 UNL1        0.0000
      5 C5          6.9158   -4.8306   21.7562 C.3       1 UNL1        0.0000
      6 C6          9.4805   -5.0381   26.4682 C.3       1 UNL1        0.0000
      7 C7          7.8008   -3.2412   25.8875 C.3       1 UNL1        0.0000
      8 C8          7.8018   -4.3197   22.8926 C.3       1 UNL1        0.0000
      9 C9         10.4628   -0.5339   24.5119 C.3       1 UNL1        0.0000
     10 C10        11.4261   -2.0578   22.7334 C.3       1 UNL1        0.0000
     11 C11        11.5359    0.5109   24.1978 C.3       1 UNL1        0.0000
     12 C12        12.4970   -1.0121   22.4169 C.3       1 UNL1        0.0000
     13 C13         5.8993   -3.7731   21.3316 C.3       1 UNL1        0.0000
     14 C14         7.4070   -1.9593   22.0721 C.3       1 UNL1        0.0000
     15 C15         8.8119   -4.2530   25.3316 C.3       1 UNL1        0.0000
     16 C16        10.1662   -1.3982   23.2889 C.3       1 UNL1        0.0000
     17 C17         8.4482   -2.9897   22.5052 C.3       1 UNL1        0.0000
     18 C18        12.8043   -0.1198   23.6215 C.3       1 UNL1        0.0000
     19 C19         7.0524   -0.6083   19.5021 C.3       1 UNL1        0.0000
     20 C20         9.8607   -3.5506   24.4715 C.3       1 UNL1        0.0000
     21 N1          6.5620   -2.5086   21.0023 N.am      1 UNL1        0.0000
     22 N2          9.1976   -2.4591   23.6734 N.4       1 UNL1        0.0000
     23 O1          5.5875   -2.3694   18.8978 O.2       1 UNL1        0.0000
     24 O2         13.4362   -0.8893   24.6427 O.3       1 UNL1        0.0000
     25 Cl1         8.6050   -1.0307   18.7885 Cl        1 UNL1        0.0000
@<TRIPOS>BOND
     1    1   19 1
     2    1   21 am
     3    1   23 2
     4    2    3 1
     5    2    4 1
     6    3    6 1
     7    4    7 1
     8    5    8 1
     9    5   13 1
    10    6   15 1
    11    7   15 1
    12    8   17 1
    13    9   11 1
    14    9   16 1
    15   10   12 1
    16   10   16 1
    17   11   18 1
    18   12   18 1
    19   13   21 1
    20   14   17 1
    21   14   21 1
    22   15   20 1
    23   16   22 1
    24   17   22 1
    25   18   24 1
    26   19   25 1
    27   20   22 1
@<TRIPOS>MOLECULE
MAK-UNK-e4a-20
   22    24     0     0     0
SMALL
NO_CHARGES

@<TRIPOS>ATOM
      1 C1         10.6145    2.0566   22.5980 C.2       1 UNL1        0.0000
      2 C2         11.7222   -1.7201   22.5190 C.2       1 UNL1        0.0000
      3 C3         10.1325    3.3427   22.7030 C.2       1 UNL1        0.0000
      4 C4         12.1782    3.0117   24.0278 C.2       1 UNL1        0.0000
      5 C5         11.7994    1.8646   23.3655 C.2       1 UNL1        0.0000
      6 C6         11.7004   -0.6541   23.3938 C.2       1 UNL1        0.0000
      7 C7         10.0505   -2.3654   23.7835 C.2       1 UNL1        0.0000
      8 C8          5.7807   -2.3732   19.8398 C.2       1 UNL1        0.0000
      9 C9          6.4067   -4.0211   21.5758 C.3       1 UNL1        0.0000
     10 C10         6.0730   -1.6799   22.2692 C.3       1 UNL1        0.0000
     11 C11         7.7300   -4.0759   22.3250 C.3       1 UNL1        0.0000
     12 C12         7.3914   -1.7001   23.0309 C.3       1 UNL1        0.0000
     13 C13        12.5567    0.5467   23.4424 C.3       1 UNL1        0.0000
     14 C14         8.9201   -3.1856   24.3316 C.3       1 UNL1        0.0000
     15 C15         5.4677   -0.9365   19.5057 C.3       1 UNL1        0.0000
     16 N1         10.7771   -2.7025   22.7411 N.2       1 UNL1        0.0000
     17 N2          6.0882   -2.6519   21.1707 N.am      1 UNL1        0.0000
     18 N3          7.6774   -3.1126   23.4896 N.4       1 UNL1        0.0000
     19 O1          5.7547   -3.2202   18.9432 O.2       1 UNL1        0.0000
     20 S1         11.1072    4.3127   23.7235 S.3       1 UNL1        0.0000
     21 S2         10.4486   -0.8795   24.5443 S.3       1 UNL1        0.0000
     22 Cl1         7.0000   -0.1657   19.1110 Cl        1 UNL1        0.0000
@<TRIPOS>BOND
     1    1    3 2
     2    1    5 1
     3    2    6 2
     4    2   16 1
     5    3   20 1
     6    4    5 2
     7    4   20 1
     8    5   13 1
     9    6   13 1
    10    6   21 1
    11    7   14 1
    12    7   16 2
    13    7   21 1
    14    8   15 1
    15    8   17 am
    16    8   19 2
    17    9   11 1
    18    9   17 1
    19   10   12 1
    20   10   17 1
    21   11   18 1
    22   12   18 1
    23   14   18 1
    24   15   22 1
@<TRIPOS>MOLECULE
BEN-VAN-ed8-4
   27    28     0     0     0
SMALL
NO_CHARGES

@<TRIPOS>ATOM
      1 C1          8.8733    6.0622   23.0407 C.ar      1 UNL1        0.0000
      2 C2          7.6555    5.7602   22.4415 C.ar      1 UNL1        0.0000
      3 C3          9.4389    0.7517   23.6300 C.ar      1 UNL1        0.0000
      4 C4         11.5675    1.7876   24.1120 C.ar      1 UNL1        0.0000
      5 C5         11.4829   -0.2607   22.8336 C.ar      1 UNL1        0.0000
      6 C6         10.1766    1.7797   24.2168 C.ar      1 UNL1        0.0000
      7 C7         10.0920   -0.2686   22.9384 C.ar      1 UNL1        0.0000
      8 C8          9.4858    5.1270   23.8675 C.ar      1 UNL1        0.0000
      9 C9         12.2207    0.7674   23.4204 C.ar      1 UNL1        0.0000
     10 C10         8.8445    3.9142   24.0614 C.ar      1 UNL1        0.0000
     11 C11         7.0962    4.5189   22.6990 C.ar      1 UNL1        0.0000
     12 C12         3.6800    1.7346   18.9764 C.2       1 UNL1        0.0000
     13 C13         4.3630    0.9007   19.7666 C.2       1 UNL1        0.0000
     14 C14         5.8401    1.0253   19.8942 C.2       1 UNL1        0.0000
     15 C15         7.7212   -0.0576   21.0745 C.2       1 UNL1        0.0000
     16 C16         4.4340    2.9657   23.5618 C.3       1 UNL1        0.0000
     17 C17         9.4792    2.8700   24.9578 C.3       1 UNL1        0.0000
     18 C18         7.9554   -1.1960   22.0436 C.3       1 UNL1        0.0000
     19 C19         5.1752    2.9860   22.2684 C.3       1 UNL1        0.0000
     20 N1          7.6613    3.5849   23.4965 N.ar      1 UNL1        0.0000
     21 N2          9.3585   -1.2921   22.3555 N.pl3     1 UNL1        0.0000
     22 N3          5.8536    4.2272   22.0833 N.pl3     1 UNL1        0.0000
     23 N4          6.3654    0.0690   20.7602 N.am      1 UNL1        0.0000
     24 O1          6.4832    1.8796   19.2932 O.2       1 UNL1        0.0000
     25 O2          8.6215    0.6512   20.6327 O.2       1 UNL1        0.0000
     26 F1         10.6572    5.4014   24.4544 F         1 UNL1        0.0000
     27 F2         13.5563    0.7754   23.3194 F         1 UNL1        0.0000
@<TRIPOS>BOND
     1    1    2 ar
     2    1    8 ar
     3    2   11 ar
     4    3    6 ar
     5    3    7 ar
     6    4    6 ar
     7    4    9 ar
     8    5    7 ar
     9    5    9 ar
    10    6   17 1
    11    7   21 1
    12    8   10 ar
    13    8   26 1
    14    9   27 1
    15   10   17 1
    16   10   20 ar
    17   11   20 ar
    18   11   22 1
    19   12   13 2
    20   13   14 1
    21   14   23 am
    22   14   24 2
    23   15   18 1
    24   15   23 am
    25   15   25 2
    26   16   19 1
    27   18   21 1
    28   19   22 1
@<TRIPOS>MOLECULE
NIR-THE-c33-3
   30    33     0     0     0
SMALL
NO_CHARGES

@<TRIPOS>ATOM
      1 C1          8.3760   -3.8985   26.1585 C.ar      1 UNL1        0.0000
      2 C2          7.1181   -3.3373   25.9586 C.ar      1 UNL1        0.0000
      3 C3          7.3053    2.9442   23.9478 C.ar      1 UNL1        0.0000
      4 C4          9.4189   -3.6029   25.2811 C.ar      1 UNL1        0.0000
      5 C5          6.9007   -2.4823   24.8791 C.ar      1 UNL1        0.0000
      6 C6          6.2444    2.2525   23.3519 C.ar      1 UNL1        0.0000
      7 C7         10.5910    1.5429   24.7230 C.2       1 UNL1        0.0000
      8 C8          8.5186    2.2686   24.1861 C.ar      1 UNL1        0.0000
      9 C9          9.2161   -2.7393   24.1939 C.ar      1 UNL1        0.0000
     10 C10         7.9418   -2.1796   23.9867 C.ar      1 UNL1        0.0000
     11 C11         7.5717    0.2212   23.2220 C.ar      1 UNL1        0.0000
     12 C12         9.7675    2.6446   24.7553 C.2       1 UNL1        0.0000
     13 C13         8.6236    0.9254   23.8185 C.ar      1 UNL1        0.0000
     14 C14         6.3778    0.9120   22.9954 C.ar      1 UNL1        0.0000
     15 C15        11.0515   -0.6072   21.6652 C.2       1 UNL1        0.0000
     16 C16        12.2300    4.7824   23.1960 C.2       1 UNL1        0.0000
     17 C17        10.3755   -2.4459   23.2724 C.3       1 UNL1        0.0000
     18 C18         8.7276   -1.4455   21.7084 C.3       1 UNL1        0.0000
     19 C19         7.6854   -1.2437   22.8200 C.3       1 UNL1        0.0000
     20 C20        12.9043    4.5644   21.8822 C.3       1 UNL1        0.0000
     21 C21        10.1261    3.9745   25.2883 C.3       1 UNL1        0.0000
     22 C22        12.4650   -0.7679   22.1672 C.3       1 UNL1        0.0000
     23 C23        10.0080    5.1151   24.2611 C.3       1 UNL1        0.0000
     24 N1          9.8923    0.5111   24.1560 N.pl3     1 UNL1        0.0000
     25 N2         10.0898   -1.4413   22.2399 N.am      1 UNL1        0.0000
     26 N3         10.8519    4.9028   23.1159 N.am      1 UNL1        0.0000
     27 O1         10.8099    0.2360   20.7981 O.2       1 UNL1        0.0000
     28 O2         12.9029    4.8376   24.2187 O.2       1 UNL1        0.0000
     29 F1          5.3391    0.2828   22.4259 F         1 UNL1        0.0000
     30 Cl1        12.9523    0.7973   22.8071 Cl        1 UNL1        0.0000
@<TRIPOS>BOND
     1    1    2 ar
     2    1    4 ar
     3    2    5 ar
     4    3    6 ar
     5    3    8 ar
     6    4    9 ar
     7    5   10 ar
     8    6   14 ar
     9    7   12 2
    10    7   24 1
    11    8   12 1
    12    8   13 ar
    13    9   10 ar
    14    9   17 1
    15   10   19 1
    16   11   13 ar
    17   11   14 ar
    18   11   19 1
    19   12   21 1
    20   13   24 1
    21   14   29 1
    22   15   22 1
    23   15   25 am
    24   15   27 2
    25   16   20 1
    26   16   26 am
    27   16   28 2
    28   17   25 1
    29   18   19 1
    30   18   25 1
    31   21   23 1
    32   22   30 1
    33   23   26 1
@<TRIPOS>MOLECULE
JAN-GHE-641-10
   23    25     0     0     0
SMALL
NO_CHARGES

@<TRIPOS>ATOM
      1 C1         11.2094    6.0469   25.9495 C.ar      1 UNL1        0.0000
      2 C2          9.8592    6.2324   25.6307 C.ar      1 UNL1        0.0000
      3 C3         12.1491    5.7920   24.9526 C.ar      1 UNL1        0.0000
      4 C4          8.4315    6.1170   22.2678 C.2       1 UNL1        0.0000
      5 C5          9.4549    6.1589   24.2829 C.ar      1 UNL1        0.0000
      6 C6         11.7715    5.7145   23.6090 C.ar      1 UNL1        0.0000
      7 C7          8.2061    6.2919   23.6138 C.2       1 UNL1        0.0000
      8 C8         10.4185    5.9021   23.3051 C.ar      1 UNL1        0.0000
      9 C9         11.3341   -1.2022   22.0811 C.2       1 UNL1        0.0000
     10 C10        11.4671   -1.0246   23.3972 C.2       1 UNL1        0.0000
     11 C11        11.0601    0.2639   23.9865 C.2       1 UNL1        0.0000
     12 C12         5.8364    5.5044   23.9730 C.2       1 UNL1        0.0000
     13 C13        11.5855    2.7618   23.8511 C.3       1 UNL1        0.0000
     14 C14        12.7300    1.5717   22.4853 C.3       1 UNL1        0.0000
     15 C15        12.8760    2.9908   23.0530 C.3       1 UNL1        0.0000
     16 C16         6.8978    6.5673   24.2414 C.3       1 UNL1        0.0000
     17 C17        12.8093    5.4388   22.5612 C.3       1 UNL1        0.0000
     18 N1          9.7688    5.8822   22.0916 N.pl3     1 UNL1        0.0000
     19 N2         11.7232    1.3570   23.5085 N.am      1 UNL1        0.0000
     20 N3          6.1555    4.2715   24.5019 N.am      1 UNL1        0.0000
     21 N4         12.7528    4.0411   22.0344 N.4       1 UNL1        0.0000
     22 O1         10.1796    0.2955   24.8426 O.2       1 UNL1        0.0000
     23 O2          4.8047    5.7282   23.3462 O.2       1 UNL1        0.0000
@<TRIPOS>BOND
     1    1    2 ar
     2    1    3 ar
     3    2    5 ar
     4    3    6 ar
     5    4    7 2
     6    4   18 1
     7    5    7 1
     8    5    8 ar
     9    6    8 ar
    10    6   17 1
    11    7   16 1
    12    8   18 1
    13    9   10 2
    14   10   11 1
    15   11   19 am
    16   11   22 2
    17   12   16 1
    18   12   20 am
    19   12   23 2
    20   13   15 1
    21   13   19 1
    22   14   15 1
    23   14   19 1
    24   15   21 1
    25   17   21 1
@<TRIPOS>MOLECULE
MAK-UNK-af8-19
   30    32     0     0     0
SMALL
NO_CHARGES

@<TRIPOS>ATOM
      1 C1          7.3775    3.8683   22.4552 C.1       1 UNL1        0.0000
      2 C2         14.0421   -1.3893   22.4030 C.ar      1 UNL1        0.0000
      3 C3         13.3104   -2.3247   23.1344 C.ar      1 UNL1        0.0000
      4 C4         13.8257   -0.0255   22.6005 C.ar      1 UNL1        0.0000
      5 C5         12.1456   -0.5327   24.2610 C.ar      1 UNL1        0.0000
      6 C6         12.3621   -1.8965   24.0634 C.ar      1 UNL1        0.0000
      7 C7         12.8774    0.4028   23.5296 C.ar      1 UNL1        0.0000
      8 C8          6.4763   -4.4348   23.3168 C.2       1 UNL1        0.0000
      9 C9         10.9929    1.9164   22.0164 C.3       1 UNL1        0.0000
     10 C10         9.6377    2.5023   21.6390 C.3       1 UNL1        0.0000
     11 C11        11.3071    3.7286   23.7464 C.3       1 UNL1        0.0000
     12 C12         8.5435   -3.3077   22.5570 C.3       1 UNL1        0.0000
     13 C13         8.7719   -5.3384   23.9343 C.3       1 UNL1        0.0000
     14 C14         9.5404   -2.5716   23.4402 C.3       1 UNL1        0.0000
     15 C15         9.7744   -4.6331   24.8377 C.3       1 UNL1        0.0000
     16 C16         9.9485    4.3128   23.3706 C.3       1 UNL1        0.0000
     17 C17        11.3554    2.2255   23.4679 C.3       1 UNL1        0.0000
     18 C18         9.5712    4.0058   21.9191 C.3       1 UNL1        0.0000
     19 C19         9.8819    7.7446   25.0181 C.3       1 UNL1        0.0000
     20 C20        11.5748   -2.9028   24.8498 C.3       1 UNL1        0.0000
     21 C21         5.8605   -5.5607   24.1084 C.3       1 UNL1        0.0000
     22 C22         9.7784    6.2365   24.9533 C.3       1 UNL1        0.0000
     23 N1          6.6075    3.3540   23.1547 N.1       1 UNL1        0.0000
     24 N2          7.8689   -4.3722   23.2998 N.am      1 UNL1        0.0000
     25 N3         10.5014   -3.5738   24.0398 N.4       1 UNL1        0.0000
     26 N4         10.0005    5.7907   23.5540 N.4       1 UNL1        0.0000
     27 O1          5.7401   -3.6345   22.7339 O.2       1 UNL1        0.0000
     28 O2          8.2497    4.4650   21.6466 O.3       1 UNL1        0.0000
     29 O3         12.6667    1.7336   23.7228 O.3       1 UNL1        0.0000
     30 Cl1         4.1154   -5.3697   23.9823 Cl        1 UNL1        0.0000
@<TRIPOS>BOND
     1    1   23 3
     2    1   28 1
     3    2    3 ar
     4    2    4 ar
     5    3    6 ar
     6    4    7 ar
     7    5    6 ar
     8    5    7 ar
     9    6   20 1
    10    7   29 1
    11    8   21 1
    12    8   24 am
    13    8   27 2
    14    9   10 1
    15    9   17 1
    16   10   18 1
    17   11   16 1
    18   11   17 1
    19   12   14 1
    20   12   24 1
    21   13   15 1
    22   13   24 1
    23   14   25 1
    24   15   25 1
    25   16   18 1
    26   16   26 1
    27   17   29 1
    28   18   28 1
    29   19   22 1
    30   20   25 1
    31   21   30 1
    32   22   26 1
@<TRIPOS>MOLECULE
PAU-WEI-c6d-1
   26    28     0     0     0
SMALL
NO_CHARGES

@<TRIPOS>ATOM
      1 C1          7.7390    0.3235   20.6585 C.ar      1 UNL1        0.0000
      2 C2          9.0769   -0.0467   20.7943 C.ar      1 UNL1        0.0000
      3 C3          6.7301   -0.5330   21.0994 C.ar      1 UNL1        0.0000
      4 C4          9.4061   -1.2735   21.3708 C.ar      1 UNL1        0.0000
      5 C5          7.0593   -1.7597   21.6760 C.ar      1 UNL1        0.0000
      6 C6          8.3972   -2.1300   21.8117 C.ar      1 UNL1        0.0000
      7 C7          9.2492   -1.1047   25.2489 C.2       1 UNL1        0.0000
      8 C8          6.2313   -5.5096   26.8710 C.2       1 UNL1        0.0000
      9 C9         12.9578    0.2049   23.7483 C.3       1 UNL1        0.0000
     10 C10        11.7308    1.1024   23.9013 C.3       1 UNL1        0.0000
     11 C11        12.5606   -1.2705   23.7635 C.3       1 UNL1        0.0000
     12 C12         9.1292   -3.1227   26.6435 C.3       1 UNL1        0.0000
     13 C13        10.9171    0.7195   25.1344 C.3       1 UNL1        0.0000
     14 C14        11.7298   -1.6093   24.9992 C.3       1 UNL1        0.0000
     15 C15         8.4580   -4.4786   26.8036 C.3       1 UNL1        0.0000
     16 C16         6.5725   -3.3151   25.6443 C.3       1 UNL1        0.0000
     17 C17         8.9846   -2.5816   25.2184 C.3       1 UNL1        0.0000
     18 C18         7.5974   -2.8557   24.5958 C.3       1 UNL1        0.0000
     19 C19         8.7523   -3.4564   22.4349 C.3       1 UNL1        0.0000
     20 C20         4.7788   -5.4531   26.4698 C.3       1 UNL1        0.0000
     21 C21         7.7040   -3.8809   23.4594 C.3       1 UNL1        0.0000
     22 N1         10.5787   -0.7053   25.1168 N.am      1 UNL1        0.0000
     23 N2          7.0419   -4.4592   26.4365 N.am      1 UNL1        0.0000
     24 O1          8.3023   -0.3255   25.3843 O.2       1 UNL1        0.0000
     25 O2          6.6386   -6.4570   27.5485 O.2       1 UNL1        0.0000
     26 Cl1         4.6554   -6.2596   24.9103 Cl        1 UNL1        0.0000
@<TRIPOS>BOND
     1    1    2 ar
     2    1    3 ar
     3    2    4 ar
     4    3    5 ar
     5    4    6 ar
     6    5    6 ar
     7    6   19 1
     8    7   17 1
     9    7   22 am
    10    7   24 2
    11    8   20 1
    12    8   23 am
    13    8   25 2
    14    9   10 1
    15    9   11 1
    16   10   13 1
    17   11   14 1
    18   12   15 1
    19   12   17 1
    20   13   22 1
    21   14   22 1
    22   15   23 1
    23   16   18 1
    24   16   23 1
    25   17   18 1
    26   18   21 1
    27   19   21 1
    28   20   26 1
@<TRIPOS>MOLECULE
MAK-UNK-af8-27
   29    31     0     0     0
SMALL
NO_CHARGES

@<TRIPOS>ATOM
      1 C1          8.0232   -1.6134   22.8683 C.ar      1 UNL1        0.0000
      2 C2          7.2719   -2.7602   23.1004 C.ar      1 UNL1        0.0000
      3 C3         11.2951    2.3456   23.8324 C.ar      1 UNL1        0.0000
      4 C4         13.1366    1.2770   22.7726 C.ar      1 UNL1        0.0000
      5 C5          9.7403   -2.5238   24.2392 C.ar      1 UNL1        0.0000
      6 C6         11.9404    1.1705   23.4635 C.ar      1 UNL1        0.0000
      7 C7         11.8578    3.5738   23.5038 C.ar      1 UNL1        0.0000
      8 C8          9.2820   -1.4852   23.4449 C.ar      1 UNL1        0.0000
      9 C9         13.0578    3.5727   22.8112 C.ar      1 UNL1        0.0000
     10 C10         7.8203   -3.7418   23.9100 C.ar      1 UNL1        0.0000
     11 C11         5.8748    5.9064   22.6437 C.2       1 UNL1        0.0000
     12 C12         8.1885    6.7632   22.4594 C.3       1 UNL1        0.0000
     13 C13         7.8170    4.3511   22.1175 C.3       1 UNL1        0.0000
     14 C14         9.3321    6.4720   23.4200 C.3       1 UNL1        0.0000
     15 C15         8.9571    4.0233   23.0722 C.3       1 UNL1        0.0000
     16 C16        13.7091    4.8626   22.4322 C.3       1 UNL1        0.0000
     17 C17         5.1557   -6.3909   23.9830 C.3       1 UNL1        0.0000
     18 C18        11.3653   -0.1590   23.8007 C.3       1 UNL1        0.0000
     19 C19        11.1658    4.8456   23.8972 C.3       1 UNL1        0.0000
     20 C20         4.9551    4.7122   22.6026 C.3       1 UNL1        0.0000
     21 C21         5.7445   -5.0844   23.5722 C.3       1 UNL1        0.0000
     22 N1         13.7141    2.4520   22.4357 N.ar      1 UNL1        0.0000
     23 N2          9.0395   -3.6529   24.4875 N.ar      1 UNL1        0.0000
     24 N3          7.2303    5.6581   22.4322 N.am      1 UNL1        0.0000
     25 N4         10.0537   -0.3532   23.2324 N.pl3     1 UNL1        0.0000
     26 N5          7.0415   -4.9037   24.1380 N.pl3     1 UNL1        0.0000
     27 N6          9.9652    5.1503   23.0462 N.4       1 UNL1        0.0000
     28 O1          5.4013    7.0250   22.8599 O.2       1 UNL1        0.0000
     29 Cl1         4.8938    4.0671   24.2390 Cl        1 UNL1        0.0000
@<TRIPOS>BOND
     1    1    2 ar
     2    1    8 ar
     3    2   10 ar
     4    3    6 ar
     5    3    7 ar
     6    4    6 ar
     7    4   22 ar
     8    5    8 ar
     9    5   23 ar
    10    6   18 1
    11    7    9 ar
    12    7   19 1
    13    8   25 1
    14    9   16 1
    15    9   22 ar
    16   10   23 ar
    17   10   26 1
    18   11   20 1
    19   11   24 am
    20   11   28 2
    21   12   14 1
    22   12   24 1
    23   13   15 1
    24   13   24 1
    25   14   27 1
    26   15   27 1
    27   17   21 1
    28   18   25 1
    29   19   27 1
    30   20   29 1
    31   21   26 1
@<TRIPOS>MOLECULE
STU-CHA-7e7-1
   26    28     0     0     0
SMALL
NO_CHARGES

@<TRIPOS>ATOM
      1 C1         14.3248    2.5835   21.7757 C.ar      1 UNL1        0.0000
      2 C2         13.8567    3.8624   22.0763 C.ar      1 UNL1        0.0000
      3 C3         12.2637    2.9150   23.6221 C.ar      1 UNL1        0.0000
      4 C4         13.7718    1.4571   22.4017 C.ar      1 UNL1        0.0000
      5 C5         12.7194    1.6246   23.3193 C.ar      1 UNL1        0.0000
      6 C6         12.8286    4.0281   23.0006 C.ar      1 UNL1        0.0000
      7 C7          6.8656   -3.8431   23.8052 C.2       1 UNL1        0.0000
      8 C8         14.2760    0.0827   22.0321 C.3       1 UNL1        0.0000
      9 C9         12.1170    0.4416   24.0263 C.3       1 UNL1        0.0000
     10 C10         9.9731   -1.9923   24.1124 C.3       1 UNL1        0.0000
     11 C11         9.0689   -1.8961   21.7624 C.3       1 UNL1        0.0000
     12 C12         8.5419   -2.1183   24.6318 C.3       1 UNL1        0.0000
     13 C13         7.6568   -2.0219   22.3295 C.3       1 UNL1        0.0000
     14 C14        10.0176   -1.2373   22.7752 C.3       1 UNL1        0.0000
     15 C15        13.8786   -1.0054   23.0361 C.3       1 UNL1        0.0000
     16 C16        14.2280   -2.4082   22.5545 C.3       1 UNL1        0.0000
     17 C17         5.5959   -3.9087   22.9944 C.3       1 UNL1        0.0000
     18 C18        11.4424   -1.1825   22.2292 C.3       1 UNL1        0.0000
     19 N1          7.6708   -2.7206   23.6157 N.am      1 UNL1        0.0000
     20 N2         11.0105    5.8136   22.2185 N.pl3     1 UNL1        0.0000
     21 N3         12.3974   -0.8958   23.3612 N.4       1 UNL1        0.0000
     22 O1          7.1309   -4.7618   24.5847 O.2       1 UNL1        0.0000
     23 O2         11.6449    5.5963   24.7076 O.2       1 UNL1        0.0000
     24 O3         13.3068    6.5869   23.0937 O.2       1 UNL1        0.0000
     25 S1         12.2478    5.6298   23.3825 S.o2      1 UNL1        0.0000
     26 Cl1         6.0074   -4.6998   21.4769 Cl        1 UNL1        0.0000
@<TRIPOS>BOND
     1    1    2 ar
     2    1    4 ar
     3    2    6 ar
     4    3    5 ar
     5    3    6 ar
     6    4    5 ar
     7    4    8 1
     8    5    9 1
     9    6   25 1
    10    7   17 1
    11    7   19 am
    12    7   22 2
    13    8   15 1
    14    9   21 1
    15   10   12 1
    16   10   14 1
    17   11   13 1
    18   11   14 1
    19   12   19 1
    20   13   19 1
    21   14   18 1
    22   15   16 1
    23   15   21 1
    24   17   26 1
    25   18   21 1
    26   20   25 1
    27   23   25 2
    28   24   25 2
@<TRIPOS>MOLECULE
DUN-NEW-f8c-2
   25    27     0     0     0
SMALL
NO_CHARGES

@<TRIPOS>ATOM
      1 C1          7.3400   -0.8581   20.6475 C.ar      1 UNL1        0.0000
      2 C2          8.2921    0.1318   20.4044 C.ar      1 UNL1        0.0000
      3 C3          7.5534   -1.7985   21.6555 C.ar      1 UNL1        0.0000
      4 C4          9.4577    0.1813   21.1690 C.ar      1 UNL1        0.0000
      5 C5          8.7189   -1.7490   22.4201 C.ar      1 UNL1        0.0000
      6 C6          9.6711   -0.7591   22.1769 C.ar      1 UNL1        0.0000
      7 C7         10.3866   -0.3996   25.2860 C.2       1 UNL1        0.0000
      8 C8          6.3560   -5.8071   26.6948 C.2       1 UNL1        0.0000
      9 C9         13.0075   -1.1323   23.7263 C.3       1 UNL1        0.0000
     10 C10        12.5566    0.2240   24.2477 C.3       1 UNL1        0.0000
     11 C11        12.0639   -1.3922   22.5557 C.3       1 UNL1        0.0000
     12 C12         8.4177   -4.6199   26.0197 C.3       1 UNL1        0.0000
     13 C13         6.4201   -4.3846   24.5886 C.3       1 UNL1        0.0000
     14 C14         8.6427   -3.1154   25.9856 C.3       1 UNL1        0.0000
     15 C15         6.6196   -2.8759   24.5327 C.3       1 UNL1        0.0000
     16 C16        11.0366    0.1886   24.0724 C.3       1 UNL1        0.0000
     17 C17         8.9223   -2.7731   23.4976 C.3       1 UNL1        0.0000
     18 C18         4.8767   -5.5852   26.8848 C.3       1 UNL1        0.0000
     19 N1         10.8312   -0.6950   22.9245 N.pl3     1 UNL1        0.0000
     20 N2          7.0080   -4.9505   25.8079 N.am      1 UNL1        0.0000
     21 N3          9.1096    0.0587   25.5082 N.am      1 UNL1        0.0000
     22 N4          8.0770   -2.5222   24.7162 N.4       1 UNL1        0.0000
     23 O1         10.9546   -1.2273   25.9944 O.2       1 UNL1        0.0000
     24 O2          6.9141   -6.7134   27.3188 O.2       1 UNL1        0.0000
     25 Cl1         4.6903   -3.9593   27.5326 Cl        1 UNL1        0.0000
@<TRIPOS>BOND
     1    1    2 ar
     2    1    3 ar
     3    2    4 ar
     4    3    5 ar
     5    4    6 ar
     6    5    6 ar
     7    5   17 1
     8    6   19 1
     9    7   16 1
    10    7   21 am
    11    7   23 2
    12    8   18 1
    13    8   20 am
    14    8   24 2
    15    9   10 1
    16    9   11 1
    17   10   16 1
    18   11   19 1
    19   12   14 1
    20   12   20 1
    21   13   15 1
    22   13   20 1
    23   14   22 1
    24   15   22 1
    25   16   19 1
    26   17   22 1
    27   18   25 1
@<TRIPOS>MOLECULE
DAR-DIA-fb2-9
   25    27     0     0     0
SMALL
NO_CHARGES

@<TRIPOS>ATOM
      1 C1         13.7262   -0.8465   22.2409 C.ar      1 UNL1        0.0000
      2 C2         13.6105    0.4512   22.7400 C.ar      1 UNL1        0.0000
      3 C3         10.4067    0.2286   24.6017 C.ar      1 UNL1        0.0000
      4 C4         12.7437   -1.7913   22.5218 C.ar      1 UNL1        0.0000
      5 C5         10.2911    1.5262   25.1009 C.ar      1 UNL1        0.0000
      6 C6         12.3756    2.1218   24.0388 C.ar      1 UNL1        0.0000
      7 C7         12.5082    0.8203   23.5280 C.ar      1 UNL1        0.0000
      8 C8         11.5091   -0.1405   23.8137 C.ar      1 UNL1        0.0000
      9 C9         11.6418   -1.4420   23.3031 C.ar      1 UNL1        0.0000
     10 C10        11.2737    2.4710   24.8199 C.ar      1 UNL1        0.0000
     11 C11         6.2133   -2.4985   20.2078 C.2       1 UNL1        0.0000
     12 C12         6.9640   -2.9190   22.5275 C.3       1 UNL1        0.0000
     13 C13         7.9126   -0.9806   21.3376 C.3       1 UNL1        0.0000
     14 C14         8.3553   -3.3646   22.9532 C.3       1 UNL1        0.0000
     15 C15         9.3190   -1.3963   21.7472 C.3       1 UNL1        0.0000
     16 C16        10.6194   -2.5081   23.5661 C.3       1 UNL1        0.0000
     17 C17         6.3308   -1.6469   18.9690 C.3       1 UNL1        0.0000
     18 N1          7.0169   -2.1412   21.2896 N.am      1 UNL1        0.0000
     19 N2         11.9331    3.9412   26.9432 N.pl3     1 UNL1        0.0000
     20 N3          9.2516   -2.1508   23.0562 N.4       1 UNL1        0.0000
     21 O1          5.4323   -3.4536   20.2111 O.2       1 UNL1        0.0000
     22 O2         11.8936    4.9880   24.5877 O.2       1 UNL1        0.0000
     23 O3          9.7186    4.3673   25.6977 O.2       1 UNL1        0.0000
     24 S1         11.1266    4.0949   25.4448 S.o2      1 UNL1        0.0000
     25 Cl1         5.1217   -0.3763   19.1146 Cl        1 UNL1        0.0000
@<TRIPOS>BOND
     1    1    2 ar
     2    1    4 ar
     3    2    7 ar
     4    3    5 ar
     5    3    8 ar
     6    4    9 ar
     7    5   10 ar
     8    6    7 ar
     9    6   10 ar
    10    7    8 ar
    11    8    9 ar
    12    9   16 1
    13   10   24 1
    14   11   17 1
    15   11   18 am
    16   11   21 2
    17   12   14 1
    18   12   18 1
    19   13   15 1
    20   13   18 1
    21   14   20 1
    22   15   20 1
    23   16   20 1
    24   17   25 1
    25   19   24 1
    26   22   24 2
    27   23   24 2
@<TRIPOS>MOLECULE
MAK-UNK-72b-1
   34    37     0     0     0
SMALL
NO_CHARGES

@<TRIPOS>ATOM
      1 C1          8.5329    6.1881   22.1952 C.ar      1 UNL1        0.0000
      2 C2          8.4284    4.9556   24.2706 C.ar      1 UNL1        0.0000
      3 C3          7.2133    5.8317   21.9171 C.ar      1 UNL1        0.0000
      4 C4          7.1088    4.5994   23.9926 C.ar      1 UNL1        0.0000
      5 C5          9.7704   -0.0349   22.6065 C.ar      1 UNL1        0.0000
      6 C6          8.9409    0.5109   23.5904 C.ar      1 UNL1        0.0000
      7 C7         10.7711    1.8359   24.4801 C.ar      1 UNL1        0.0000
      8 C8         13.2849    0.6738   22.0946 C.2       1 UNL1        0.0000
      9 C9         11.6263    1.2992   23.4973 C.ar      1 UNL1        0.0000
     10 C10         9.1405    5.7499   23.3719 C.ar      1 UNL1        0.0000
     11 C11         6.5012    5.0374   22.8158 C.ar      1 UNL1        0.0000
     12 C12        13.0011    1.4762   23.1756 C.2       1 UNL1        0.0000
     13 C13        11.1073    0.3780   22.5850 C.ar      1 UNL1        0.0000
     14 C14         9.4315    1.4321   24.5137 C.ar      1 UNL1        0.0000
     15 C15         4.4146    0.2585   19.2141 C.2       1 UNL1        0.0000
     16 C16        12.7731    5.0835   23.3458 C.2       1 UNL1        0.0000
     17 C17         3.4887    2.4731   19.8137 C.3       1 UNL1        0.0000
     18 C18         5.9383    2.2412   19.6778 C.3       1 UNL1        0.0000
     19 C19         3.6080    3.1587   21.1669 C.3       1 UNL1        0.0000
     20 C20         6.0948    2.9255   21.0290 C.3       1 UNL1        0.0000
     21 C21        10.5513    6.1304   23.6700 C.3       1 UNL1        0.0000
     22 C22         5.0813    4.6561   22.5168 C.3       1 UNL1        0.0000
     23 C23        13.9748    2.3744   23.8801 C.3       1 UNL1        0.0000
     24 C24         5.6430   -0.5850   18.9838 C.3       1 UNL1        0.0000
     25 C25        13.5614    4.2914   22.3332 C.3       1 UNL1        0.0000
     26 N1         12.1363    0.0156   21.7454 N.pl3     1 UNL1        0.0000
     27 N2          4.6287    1.5894   19.5697 N.am      1 UNL1        0.0000
     28 N3         11.4985    5.3817   22.8836 N.am      1 UNL1        0.0000
     29 N4          4.9375    3.8759   21.2405 N.4       1 UNL1        0.0000
     30 N5         14.5600    3.4135   22.9890 N.4       1 UNL1        0.0000
     31 O1          3.2992   -0.2526   19.0839 O.2       1 UNL1        0.0000
     32 O2         13.2213    5.4135   24.4406 O.2       1 UNL1        0.0000
     33 F1          8.6114    1.9388   25.4446 F         1 UNL1        0.0000
     34 Cl1         6.0805   -1.2741   20.5432 Cl        1 UNL1        0.0000
@<TRIPOS>BOND
     1    1    3 ar
     2    1   10 ar
     3    2    4 ar
     4    2   10 ar
     5    3   11 ar
     6    4   11 ar
     7    5    6 ar
     8    5   13 ar
     9    6   14 ar
    10    7    9 ar
    11    7   14 ar
    12    8   12 2
    13    8   26 1
    14    9   12 1
    15    9   13 ar
    16   10   21 1
    17   11   22 1
    18   12   23 1
    19   13   26 1
    20   14   33 1
    21   15   24 1
    22   15   27 am
    23   15   31 2
    24   16   25 1
    25   16   28 am
    26   16   32 2
    27   17   19 1
    28   17   27 1
    29   18   20 1
    30   18   27 1
    31   19   29 1
    32   20   29 1
    33   21   28 1
    34   22   29 1
    35   23   30 1
    36   24   34 1
    37   25   30 1
@<TRIPOS>MOLECULE
PAU-WEI-b9b-3
   27    29     0     0     0
SMALL
NO_CHARGES

@<TRIPOS>ATOM
      1 C1          8.2921    1.7024   22.4353 C.ar      1 UNL1        0.0000
      2 C2          9.4552    2.4649   22.5419 C.ar      1 UNL1        0.0000
      3 C3         11.5036   -1.1742   24.5833 C.ar      1 UNL1        0.0000
      4 C4         11.8332   -1.5704   22.2229 C.ar      1 UNL1        0.0000
      5 C5         12.1796    0.0410   24.4737 C.ar      1 UNL1        0.0000
      6 C6         12.5091   -0.3552   22.1133 C.ar      1 UNL1        0.0000
      7 C7          7.8566    0.9394   23.5187 C.ar      1 UNL1        0.0000
      8 C8          9.7474    1.7013   24.8153 C.ar      1 UNL1        0.0000
      9 C9         11.3305   -1.9800   23.4579 C.ar      1 UNL1        0.0000
     10 C10        12.6823    0.4505   23.2387 C.ar      1 UNL1        0.0000
     11 C11        10.1829    2.4644   23.7319 C.ar      1 UNL1        0.0000
     12 C12         8.5843    0.9388   24.7087 C.ar      1 UNL1        0.0000
     13 C13        10.5688    8.4842   25.5634 C.2       1 UNL1        0.0000
     14 C14        11.9397    7.0742   24.0622 C.3       1 UNL1        0.0000
     15 C15         9.5318    6.5792   24.2355 C.3       1 UNL1        0.0000
     16 C16        12.2778    5.6055   24.2721 C.3       1 UNL1        0.0000
     17 C17         9.8337    5.1016   24.4463 C.3       1 UNL1        0.0000
     18 C18        10.6079   -3.2793   23.5742 C.3       1 UNL1        0.0000
     19 C19        13.4112    1.7649   23.1208 C.3       1 UNL1        0.0000
     20 C20        11.8060    8.7999   26.3653 C.3       1 UNL1        0.0000
     21 C21        12.5321    2.9849   22.7947 C.3       1 UNL1        0.0000
     22 C22        11.4446    3.2904   23.8463 C.3       1 UNL1        0.0000
     23 N1         10.6559    7.4114   24.6774 N.am      1 UNL1        0.0000
     24 N2         11.1355    4.7584   23.7572 N.4       1 UNL1        0.0000
     25 O1          9.5572    9.1731   25.7192 O.2       1 UNL1        0.0000
     26 Cl1         8.0471   -0.0037   26.0447 Cl        1 UNL1        0.0000
     27 Cl2        12.1528    7.3749   27.3384 Cl        1 UNL1        0.0000
@<TRIPOS>BOND
     1    1    2 ar
     2    1    7 ar
     3    2   11 ar
     4    3    5 ar
     5    3    9 ar
     6    4    6 ar
     7    4    9 ar
     8    5   10 ar
     9    6   10 ar
    10    7   12 ar
    11    8   11 ar
    12    8   12 ar
    13    9   18 1
    14   10   19 1
    15   11   22 1
    16   12   26 1
    17   13   20 1
    18   13   23 am
    19   13   25 2
    20   14   16 1
    21   14   23 1
    22   15   17 1
    23   15   23 1
    24   16   24 1
    25   17   24 1
    26   19   21 1
    27   20   27 1
    28   21   22 1
    29   22   24 1
@<TRIPOS>MOLECULE
MAK-UNK-af8-30
   61    63     0     0     0
SMALL
NO_CHARGES

@<TRIPOS>ATOM
      1 C1          7.7312   -2.6835   25.7582 C.ar      1 UNL1        0.0000
      2 C2          7.1062   -3.7880   26.3262 C.ar      1 UNL1        0.0000
      3 C3          9.6091   -4.0602   25.2740 C.ar      1 UNL1        0.0000
      4 C4          9.0066   -2.8137   25.2199 C.ar      1 UNL1        0.0000
      5 C5          7.7938   -4.9910   26.3306 C.ar      1 UNL1        0.0000
      6 C6         11.7550    7.3678   26.0477 C.2       1 UNL1        0.0000
      7 C7         11.9526    5.0965   25.0896 C.3       1 UNL1        0.0000
      8 C8          9.8250    6.3085   24.7760 C.3       1 UNL1        0.0000
      9 C9         11.9771    4.7195   23.6156 C.3       1 UNL1        0.0000
     10 C10         9.8191    5.9454   23.2970 C.3       1 UNL1        0.0000
     11 C11         9.7149   -1.6285   24.5943 C.3       1 UNL1        0.0000
     12 C12         9.6717    1.0211   23.4315 C.3       1 UNL1        0.0000
     13 C13         9.3904   -1.4727   23.1010 C.3       1 UNL1        0.0000
     14 C14        10.0006   -0.1832   22.5410 C.3       1 UNL1        0.0000
     15 C15         9.9968    0.7185   24.8990 C.3       1 UNL1        0.0000
     16 C16         5.4036   -7.3472   28.0214 C.3       1 UNL1        0.0000
     17 C17        10.9094    8.6032   26.2281 C.3       1 UNL1        0.0000
     18 C18         5.8357   -6.0279   27.4779 C.3       1 UNL1        0.0000
     19 C19         9.8130    3.4241   23.4612 C.3       1 UNL1        0.0000
     20 N1          9.0336   -5.1561   25.8175 N.ar      1 UNL1        0.0000
     21 N2         11.1914    6.3266   25.3101 N.am      1 UNL1        0.0000
     22 N3          7.1430   -6.1073   26.9125 N.pl3     1 UNL1        0.0000
     23 N4         10.4309    2.1937   22.9863 N.3       1 UNL1        0.0000
     24 N5         10.5735    4.6581   23.0595 N.4       1 UNL1        0.0000
     25 O1         12.8831    7.3320   26.5457 O.2       1 UNL1        0.0000
     26 O2          9.3113   -0.4614   25.3161 O.3       1 UNL1        0.0000
     27 O3          9.9397   -2.5662   22.3646 O.3       1 UNL1        0.0000
     28 O4          9.4632    0.0179   21.2326 O.3       1 UNL1        0.0000
     29 O5          9.5648    1.8194   25.6970 O.3       1 UNL1        0.0000
     30 Cl1         9.9516    8.3500   27.6829 Cl        1 UNL1        0.0000
     31 H           7.7312   -2.6835   25.7582 H         1 UNL1        0.0000
     32 H           7.1062   -3.7880   26.3262 H         1 UNL1        0.0000
     33 H           9.6091   -4.0602   25.2740 H         1 UNL1        0.0000
     34 H          11.9526    5.0965   25.0896 H         1 UNL1        0.0000
     35 H          11.9526    5.0965   25.0896 H         1 UNL1        0.0000
     36 H           9.8250    6.3085   24.7760 H         1 UNL1        0.0000
     37 H           9.8250    6.3085   24.7760 H         1 UNL1        0.0000
     38 H          11.9771    4.7195   23.6156 H         1 UNL1        0.0000
     39 H          11.9771    4.7195   23.6156 H         1 UNL1        0.0000
     40 H           9.8191    5.9454   23.2970 H         1 UNL1        0.0000
     41 H           9.8191    5.9454   23.2970 H         1 UNL1        0.0000
     42 H           9.7149   -1.6285   24.5943 H         1 UNL1        0.0000
     43 H           9.6717    1.0211   23.4315 H         1 UNL1        0.0000
     44 H           9.3904   -1.4727   23.1010 H         1 UNL1        0.0000
     45 H          10.0006   -0.1832   22.5410 H         1 UNL1        0.0000
     46 H           9.9968    0.7185   24.8990 H         1 UNL1        0.0000
     47 H           5.4036   -7.3472   28.0214 H         1 UNL1        0.0000
     48 H           5.4036   -7.3472   28.0214 H         1 UNL1        0.0000
     49 H           5.4036   -7.3472   28.0214 H         1 UNL1        0.0000
     50 H          10.9094    8.6032   26.2281 H         1 UNL1        0.0000
     51 H          10.9094    8.6032   26.2281 H         1 UNL1        0.0000
     52 H           5.8357   -6.0279   27.4779 H         1 UNL1        0.0000
     53 H           5.8357   -6.0279   27.4779 H         1 UNL1        0.0000
     54 H           9.8130    3.4241   23.4612 H         1 UNL1        0.0000
     55 H           9.8130    3.4241   23.4612 H         1 UNL1        0.0000
     56 H           7.1430   -6.1073   26.9125 H         1 UNL1        0.0000
     57 H          10.4309    2.1937   22.9863 H         1 UNL1        0.0000
     58 H          10.5735    4.6581   23.0595 H         1 UNL1        0.0000
     59 H           9.9397   -2.5662   22.3646 H         1 UNL1        0.0000
     60 H           9.4632    0.0179   21.2326 H         1 UNL1        0.0000
     61 H           9.5648    1.8194   25.6970 H         1 UNL1        0.0000
@<TRIPOS>BOND
     1    1    2 ar
     2    1    4 ar
     3    2    5 ar
     4    3    4 ar
     5    3   20 ar
     6    4   11 1
     7    5   20 ar
     8    5   22 1
     9    6   17 1
    10    6   21 am
    11    6   25 2
    12    7    9 1
    13    7   21 1
    14    8   10 1
    15    8   21 1
    16    9   24 1
    17   10   24 1
    18   11   13 1
    19   11   26 1
    20   12   14 1
    21   12   15 1
    22   12   23 1
    23   13   14 1
    24   13   27 1
    25   14   28 1
    26   15   26 1
    27   15   29 1
    28   16   18 1
    29   17   30 1
    30   18   22 1
    31   19   23 1
    32   19   24 1
    33    1   31 1
    34    2   32 1
    35    3   33 1
    36    7   34 1
    37    7   35 1
    38    8   36 1
    39    8   37 1
    40    9   38 1
    41    9   39 1
    42   10   40 1
    43   10   41 1
    44   11   42 1
    45   12   43 1
    46   13   44 1
    47   14   45 1
    48   15   46 1
    49   16   47 1
    50   16   48 1
    51   16   49 1
    52   17   50 1
    53   17   51 1
    54   18   52 1
    55   18   53 1
    56   19   54 1
    57   19   55 1
    58   22   56 1
    59   23   57 1
    60   24   58 1
    61   27   59 1
    62   28   60 1
    63   29   61 1
@<TRIPOS>MOLECULE
NAU-LAT-f72-4
   20    21     0     0     0
SMALL
NO_CHARGES

@<TRIPOS>ATOM
      1 C1         12.1248    0.2474   24.0036 C.ar      1 UNL1        0.0000
      2 C2         12.4265   -0.9121   23.2894 C.ar      1 UNL1        0.0000
      3 C3         10.9445    0.3239   24.7431 C.ar      1 UNL1        0.0000
      4 C4         11.5478   -1.9952   23.3146 C.ar      1 UNL1        0.0000
      5 C5         10.0658   -0.7592   24.7682 C.ar      1 UNL1        0.0000
      6 C6         10.3675   -1.9187   24.0540 C.ar      1 UNL1        0.0000
      7 C7          8.3782   -0.2701   21.1853 C.2       1 UNL1        0.0000
      8 C8          8.1045   -0.9214   22.3177 C.2       1 UNL1        0.0000
      9 C9          7.7261   -2.3423   22.2471 C.2       1 UNL1        0.0000
     10 C10         8.0503   -4.6769   22.8309 C.3       1 UNL1        0.0000
     11 C11         7.2019   -4.9825   24.0671 C.3       1 UNL1        0.0000
     12 C12         8.5635   -3.2956   25.3482 C.3       1 UNL1        0.0000
     13 C13         9.4140   -3.0930   24.0815 C.3       1 UNL1        0.0000
     14 C14         5.7160   -4.2343   26.6573 C.3       1 UNL1        0.0000
     15 N1          8.5145   -3.2894   22.9114 N.am      1 UNL1        0.0000
     16 N2          7.9673   -4.6767   25.3192 N.pl3     1 UNL1        0.0000
     17 O1          6.6973   -2.6091   21.6201 O.2       1 UNL1        0.0000
     18 O2          7.9781   -4.6649   27.8922 O.2       1 UNL1        0.0000
     19 O3          6.8729   -6.5773   26.6647 O.2       1 UNL1        0.0000
     20 S1          7.2146   -5.1765   26.7757 S.o2      1 UNL1        0.0000
@<TRIPOS>BOND
     1    1    2 ar
     2    1    3 ar
     3    2    4 ar
     4    3    5 ar
     5    4    6 ar
     6    5    6 ar
     7    6   13 1
     8    7    8 2
     9    8    9 1
    10    9   15 am
    11    9   17 2
    12   10   11 1
    13   10   15 1
    14   11   16 1
    15   12   13 1
    16   12   16 1
    17   13   15 1
    18   14   20 1
    19   16   20 1
    20   18   20 2
    21   19   20 2
@<TRIPOS>MOLECULE
DAR-DIA-fb2-3
   22    23     0     0     0
SMALL
NO_CHARGES

@<TRIPOS>ATOM
      1 C1          8.8734    0.8205   27.2646 C.1       1 UNL1        0.0000
      2 C2         10.8355    1.2497   25.8694 C.ar      1 UNL1        0.0000
      3 C3         11.6410    0.9274   24.7772 C.ar      1 UNL1        0.0000
      4 C4          9.3650   -0.5891   25.3277 C.ar      1 UNL1        0.0000
      5 C5          9.6975    0.4914   26.1447 C.ar      1 UNL1        0.0000
      6 C6         10.1704   -0.9115   24.2354 C.ar      1 UNL1        0.0000
      7 C7         11.3084   -0.1532   23.9602 C.ar      1 UNL1        0.0000
      8 C8          5.9915   -1.7388   19.3539 C.2       1 UNL1        0.0000
      9 C9          6.6347   -2.9641   21.4048 C.3       1 UNL1        0.0000
     10 C10         6.9227   -0.5167   21.3806 C.3       1 UNL1        0.0000
     11 C11         8.0496   -3.1460   21.9346 C.3       1 UNL1        0.0000
     12 C12         8.3423   -0.6618   21.9121 C.3       1 UNL1        0.0000
     13 C13        13.5798    1.2985   22.0818 C.3       1 UNL1        0.0000
     14 C14         9.7892   -2.0785   23.3731 C.3       1 UNL1        0.0000
     15 C15         6.5012   -0.6847   18.4038 C.3       1 UNL1        0.0000
     16 C16        13.4929   -0.0257   22.7612 C.3       1 UNL1        0.0000
     17 N1          8.2040    1.0877   28.1741 N.1       1 UNL1        0.0000
     18 N2          6.5132   -1.7188   20.6466 N.am      1 UNL1        0.0000
     19 N3         12.1369   -0.4664   22.8603 N.pl3     1 UNL1        0.0000
     20 N4          8.4355   -1.9247   22.7389 N.4       1 UNL1        0.0000
     21 O1          5.1569   -2.5559   18.9566 O.2       1 UNL1        0.0000
     22 Cl1         5.4108    0.6897   18.5442 Cl        1 UNL1        0.0000
@<TRIPOS>BOND
     1    1    5 1
     2    1   17 3
     3    2    3 ar
     4    2    5 ar
     5    3    7 ar
     6    4    5 ar
     7    4    6 ar
     8    6    7 ar
     9    6   14 1
    10    7   19 1
    11    8   15 1
    12    8   18 am
    13    8   21 2
    14    9   11 1
    15    9   18 1
    16   10   12 1
    17   10   18 1
    18   11   20 1
    19   12   20 1
    20   13   16 1
    21   14   20 1
    22   15   22 1
    23   16   19 1
@<TRIPOS>MOLECULE
AVI-UNI-a66-1
   32    34     0     0     0
SMALL
NO_CHARGES

@<TRIPOS>ATOM
      1 C1         15.2109   -1.9743   22.5032 C.ar      1 UNL1        0.0000
      2 C2         15.1134   -1.3634   23.7466 C.ar      1 UNL1        0.0000
      3 C3         14.1079   -1.9889   21.6492 C.ar      1 UNL1        0.0000
      4 C4         13.9195   -0.7532   24.1255 C.ar      1 UNL1        0.0000
      5 C5          9.5430   -1.4765   24.9954 C.ar      1 UNL1        0.0000
      6 C6          8.6438   -2.5383   25.0609 C.ar      1 UNL1        0.0000
      7 C7          9.0411   -2.9963   22.7290 C.ar      1 UNL1        0.0000
      8 C8          9.9488   -1.9239   22.6372 C.ar      1 UNL1        0.0000
      9 C9         12.8786   -1.4213   22.0285 C.ar      1 UNL1        0.0000
     10 C10        10.1995   -1.1722   23.7930 C.ar      1 UNL1        0.0000
     11 C11        12.8038   -0.7695   23.2719 C.ar      1 UNL1        0.0000
     12 C12         8.3956   -3.3023   23.9277 C.ar      1 UNL1        0.0000
     13 C13        10.5635   -1.6263   21.3227 C.cat     1 UNL1        0.0000
     14 C14         8.3862   -1.1842   20.3528 C.2       1 UNL1        0.0000
     15 C15         7.6758   -1.1993   19.0222 C.3       1 UNL1        0.0000
     16 N1         11.8716   -1.4653   21.1008 N.pl3     1 UNL1        0.0000
     17 N2          9.7314   -1.5757   20.2798 N.am      1 UNL1        0.0000
     18 O1          7.8123   -0.8408   21.3854 O.2       1 UNL1        0.0000
     19 S1         11.3693    0.1644   23.7824 S.3       1 UNL1        0.0000
     20 Cl1         7.2916   -4.6202   24.0003 Cl        1 UNL1        0.0000
     21 Cl2         7.7703   -2.8437   18.3726 Cl        1 UNL1        0.0000
     22 H          15.2109   -1.9743   22.5032 H         1 UNL1        0.0000
     23 H          15.1134   -1.3634   23.7466 H         1 UNL1        0.0000
     24 H          14.1079   -1.9889   21.6492 H         1 UNL1        0.0000
     25 H          13.9195   -0.7532   24.1255 H         1 UNL1        0.0000
     26 H           9.5430   -1.4765   24.9954 H         1 UNL1        0.0000
     27 H           8.6438   -2.5383   25.0609 H         1 UNL1        0.0000
     28 H           9.0411   -2.9963   22.7290 H         1 UNL1        0.0000
     29 H           7.6758   -1.1993   19.0222 H         1 UNL1        0.0000
     30 H           7.6758   -1.1993   19.0222 H         1 UNL1        0.0000
     31 H          11.8716   -1.4653   21.1008 H         1 UNL1        0.0000
     32 H           9.7314   -1.5757   20.2798 H         1 UNL1        0.0000
@<TRIPOS>BOND
     1    1    2 ar
     2    1    3 ar
     3    2    4 ar
     4    3    9 ar
     5    4   11 ar
     6    5    6 ar
     7    5   10 ar
     8    6   12 ar
     9    7    8 ar
    10    7   12 ar
    11    8   10 ar
    12    8   13 1
    13    9   11 ar
    14    9   16 1
    15   10   19 1
    16   11   19 1
    17   12   20 1
    18   13   16 2
    19   13   17 1
    20   14   15 1
    21   14   17 am
    22   14   18 2
    23   15   21 1
    24    1   22 1
    25    2   23 1
    26    3   24 1
    27    4   25 1
    28    5   26 1
    29    6   27 1
    30    7   28 1
    31   15   29 1
    32   15   30 1
    33   16   31 1
    34   17   32 1
@<TRIPOS>MOLECULE
KAT-FAI-9b6-1
   25    27     0     0     0
SMALL
NO_CHARGES

@<TRIPOS>ATOM
      1 C1          9.2890   -0.5553   24.7416 C.1       1 UNL1        0.0000
      2 C2         12.6535    0.2532   23.3894 C.ar      1 UNL1        0.0000
      3 C3         12.7116   -0.5775   22.2705 C.ar      1 UNL1        0.0000
      4 C4          8.0637   -4.2035   26.5823 C.ar      1 UNL1        0.0000
      5 C5         11.5183    0.2533   24.1999 C.ar      1 UNL1        0.0000
      6 C6          8.9085   -4.1109   25.4763 C.ar      1 UNL1        0.0000
      7 C7          6.7106   -3.8897   26.4547 C.ar      1 UNL1        0.0000
      8 C8         11.6343   -1.4082   21.9619 C.ar      1 UNL1        0.0000
      9 C9          7.0470   -3.3907   24.1149 C.ar      1 UNL1        0.0000
     10 C10        10.4410   -0.5773   23.8913 C.ar      1 UNL1        0.0000
     11 C11         8.4001   -3.7045   24.2425 C.ar      1 UNL1        0.0000
     12 C12         6.2022   -3.4833   25.2210 C.ar      1 UNL1        0.0000
     13 C13        10.4990   -1.4081   22.7723 C.ar      1 UNL1        0.0000
     14 C14         6.6752   -4.8447   20.8285 C.2       1 UNL1        0.0000
     15 C15         8.3560   -1.7887   21.5529 C.3       1 UNL1        0.0000
     16 C16         8.0584   -2.8267   20.4805 C.3       1 UNL1        0.0000
     17 C17         8.9682   -4.6071   21.9036 C.3       1 UNL1        0.0000
     18 C18         9.3267   -3.6047   23.0299 C.3       1 UNL1        0.0000
     19 C19         4.7554   -3.1472   25.0848 C.3       1 UNL1        0.0000
     20 C20         6.1880   -5.7658   21.9182 C.3       1 UNL1        0.0000
     21 N1          8.3554   -0.5376   25.4308 N.1       1 UNL1        0.0000
     22 N2          9.4364   -2.2493   22.4399 N.pl3     1 UNL1        0.0000
     23 N3          7.8493   -4.1384   21.0835 N.am      1 UNL1        0.0000
     24 O1          6.0285   -4.7563   19.7814 O.2       1 UNL1        0.0000
     25 S1          6.1295   -7.4525   21.2916 S.3       1 UNL1        0.0000
@<TRIPOS>BOND
     1    1   10 1
     2    1   21 3
     3    2    3 ar
     4    2    5 ar
     5    3    8 ar
     6    4    6 ar
     7    4    7 ar
     8    5   10 ar
     9    6   11 ar
    10    7   12 ar
    11    8   13 ar
    12    9   11 ar
    13    9   12 ar
    14   10   13 ar
    15   11   18 1
    16   12   19 1
    17   13   22 1
    18   14   20 1
    19   14   23 am
    20   14   24 2
    21   15   16 1
    22   15   22 1
    23   16   23 1
    24   17   18 1
    25   17   23 1
    26   18   22 1
    27   20   25 1
@<TRIPOS>MOLECULE
WAL-WAB-df1-1
   26    28     0     0     0
SMALL
NO_CHARGES

@<TRIPOS>ATOM
      1 C1         13.6392   -1.9648   23.3427 C.ar      1 UNL1        0.0000
      2 C2          8.6094   -3.1184   26.8160 C.ar      1 UNL1        0.0000
      3 C3         12.3856   -2.5214   23.1140 C.ar      1 UNL1        0.0000
      4 C4          8.1026   -2.3044   25.8030 C.ar      1 UNL1        0.0000
      5 C5          8.2259   -4.4574   26.8922 C.ar      1 UNL1        0.0000
      6 C6         13.7667   -0.6624   23.8320 C.ar      1 UNL1        0.0000
      7 C7          6.8288   -4.1683   24.9424 C.ar      1 UNL1        0.0000
      8 C8         11.2245   -1.7862   23.3700 C.ar      1 UNL1        0.0000
      9 C9          7.2123   -2.8293   24.8662 C.ar      1 UNL1        0.0000
     10 C10        11.3251   -0.4678   23.8649 C.ar      1 UNL1        0.0000
     11 C11         7.3356   -4.9823   25.9554 C.ar      1 UNL1        0.0000
     12 C12        12.5963    0.0703   24.0871 C.ar      1 UNL1        0.0000
     13 C13        10.7293    1.5248   24.6007 C.2       1 UNL1        0.0000
     14 C14         9.9225   -2.3838   23.1244 C.2       1 UNL1        0.0000
     15 C15         8.6092    2.7457   25.0220 C.2       1 UNL1        0.0000
     16 C16         6.6649   -1.9477   23.7708 C.3       1 UNL1        0.0000
     17 C17         8.1559    4.1076   25.4945 C.3       1 UNL1        0.0000
     18 C18         7.5288   -1.9561   22.5120 C.3       1 UNL1        0.0000
     19 N1         10.2661    0.3770   24.1639 N.2       1 UNL1        0.0000
     20 N2         10.0088    2.6197   24.9981 N.am      1 UNL1        0.0000
     21 N3          8.8825   -1.5179   22.7654 N.am      1 UNL1        0.0000
     22 O1          9.7554   -3.6100   23.2533 O.2       1 UNL1        0.0000
     23 O2          7.7823    1.8999   24.6920 O.2       1 UNL1        0.0000
     24 F1          6.9670   -6.2680   26.0287 F         1 UNL1        0.0000
     25 S1         12.4307    1.6784   24.6864 S.3       1 UNL1        0.0000
     26 Cl1         9.3966    5.2817   25.0278 Cl        1 UNL1        0.0000
@<TRIPOS>BOND
     1    1    3 ar
     2    1    6 ar
     3    2    4 ar
     4    2    5 ar
     5    3    8 ar
     6    4    9 ar
     7    5   11 ar
     8    6   12 ar
     9    7    9 ar
    10    7   11 ar
    11    8   10 ar
    12    8   14 1
    13    9   16 1
    14   10   12 ar
    15   10   19 1
    16   11   24 1
    17   12   25 1
    18   13   19 2
    19   13   20 1
    20   13   25 1
    21   14   21 am
    22   14   22 2
    23   15   17 1
    24   15   20 am
    25   15   23 2
    26   16   18 1
    27   17   26 1
    28   18   21 1
@<TRIPOS>MOLECULE
MAK-UNK-af8-17
   32    34     0     0     0
SMALL
NO_CHARGES

@<TRIPOS>ATOM
      1 C1         10.8869   -1.5601   24.3483 C.ar      1 UNL1        0.0000
      2 C2         10.9866   -1.2806   21.9505 C.ar      1 UNL1        0.0000
      3 C3          9.5303   -1.8710   24.2557 C.ar      1 UNL1        0.0000
      4 C4          9.6300   -1.5916   21.8579 C.ar      1 UNL1        0.0000
      5 C5         12.6537    5.5790   22.6081 C.ar      1 UNL1        0.0000
      6 C6         13.3955    3.3239   22.1601 C.ar      1 UNL1        0.0000
      7 C7         11.8603    3.7523   23.9758 C.ar      1 UNL1        0.0000
      8 C8         11.6150   -1.2649   23.1957 C.ar      1 UNL1        0.0000
      9 C9         13.4127    4.6845   21.8536 C.ar      1 UNL1        0.0000
     10 C10        11.8775    5.1129   23.6693 C.ar      1 UNL1        0.0000
     11 C11        12.6193    2.8577   23.2212 C.ar      1 UNL1        0.0000
     12 C12         8.9018   -1.8868   23.0105 C.ar      1 UNL1        0.0000
     13 C13         6.3879    4.4377   21.9946 C.2       1 UNL1        0.0000
     14 C14         7.5052    4.6844   24.2657 C.3       1 UNL1        0.0000
     15 C15         7.7946    6.4032   22.5233 C.3       1 UNL1        0.0000
     16 C16         9.0080    4.6544   24.5092 C.3       1 UNL1        0.0000
     17 C17         9.3009    6.3978   22.7395 C.3       1 UNL1        0.0000
     18 C18        14.2425    5.1830   20.7190 C.3       1 UNL1        0.0000
     19 C19        13.9426   -1.9717   22.5624 C.3       1 UNL1        0.0000
     20 C20        11.0612    6.0752   24.4808 C.3       1 UNL1        0.0000
     21 C21         6.3347    2.9369   22.1296 C.3       1 UNL1        0.0000
     22 C22        13.3555    0.5113   22.7994 C.3       1 UNL1        0.0000
     23 C23        13.0947   -0.9249   23.2965 C.3       1 UNL1        0.0000
     24 N1          7.2052    5.1173   22.8967 N.am      1 UNL1        0.0000
     25 N2          6.5016   -0.7281   23.0467 N.pl3     1 UNL1        0.0000
     26 N3         12.6020    1.4819   23.5312 N.pl3     1 UNL1        0.0000
     27 N4          9.5921    6.0080   24.1714 N.4       1 UNL1        0.0000
     28 O1          5.7243    4.9875   21.1118 O.2       1 UNL1        0.0000
     29 O2          6.9402   -2.7838   21.5543 O.2       1 UNL1        0.0000
     30 O3          6.8328   -3.0758   24.0545 O.2       1 UNL1        0.0000
     31 S1          7.2044   -2.2781   22.8941 S.o2      1 UNL1        0.0000
     32 Cl1         7.9718    2.3487   21.8620 Cl        1 UNL1        0.0000
@<TRIPOS>BOND
     1    1    3 ar
     2    1    8 ar
     3    2    4 ar
     4    2    8 ar
     5    3   12 ar
     6    4   12 ar
     7    5    9 ar
     8    5   10 ar
     9    6    9 ar
    10    6   11 ar
    11    7   10 ar
    12    7   11 ar
    13    8   23 1
    14    9   18 1
    15   10   20 1
    16   11   26 1
    17   12   31 1
    18   13   21 1
    19   13   24 am
    20   13   28 2
    21   14   16 1
    22   14   24 1
    23   15   17 1
    24   15   24 1
    25   16   27 1
    26   17   27 1
    27   19   23 1
    28   20   27 1
    29   21   32 1
    30   22   23 1
    31   22   26 1
    32   25   31 1
    33   29   31 2
    34   30   31 2
@<TRIPOS>MOLECULE
MAK-UNK-af8-20
   27    28     0     0     0
SMALL
NO_CHARGES

@<TRIPOS>ATOM
      1 C1          9.7420    5.9137   26.4092 C.1       1 UNL1        0.0000
      2 C2         13.1645   -1.1235   23.8372 C.ar      1 UNL1        0.0000
      3 C3         12.0787   -1.9210   23.4759 C.ar      1 UNL1        0.0000
      4 C4         12.9782    0.2356   24.0898 C.ar      1 UNL1        0.0000
      5 C5         10.6202   -0.0002   23.6197 C.ar      1 UNL1        0.0000
      6 C6         10.8065   -1.3594   23.3671 C.ar      1 UNL1        0.0000
      7 C7         11.7061    0.7972   23.9810 C.ar      1 UNL1        0.0000
      8 C8          6.3790   -5.2451   26.2791 C.2       1 UNL1        0.0000
      9 C9          8.4033   -3.8239   26.2186 C.3       1 UNL1        0.0000
     10 C10         6.4515   -3.1150   24.8916 C.3       1 UNL1        0.0000
     11 C11         9.3187   -3.6172   25.0208 C.3       1 UNL1        0.0000
     12 C12         7.3384   -2.8957   23.6734 C.3       1 UNL1        0.0000
     13 C13        11.8694    6.7109   22.1029 C.3       1 UNL1        0.0000
     14 C14         9.6098    5.2671   25.1037 C.3       1 UNL1        0.0000
     15 C15         9.6387   -2.2172   22.9780 C.3       1 UNL1        0.0000
     16 C16         4.9730   -5.4753   25.7855 C.3       1 UNL1        0.0000
     17 C17        12.8004    5.6295   22.6060 C.3       1 UNL1        0.0000
     18 C18        10.4730    2.7777   23.5193 C.3       1 UNL1        0.0000
     19 C19        10.8149    4.2556   23.3261 C.3       1 UNL1        0.0000
     20 N1          9.8459    6.4266   27.4447 N.1       1 UNL1        0.0000
     21 N2          7.0352   -4.1163   25.7906 N.am      1 UNL1        0.0000
     22 N3          8.7344   -2.5404   24.1340 N.4       1 UNL1        0.0000
     23 N4         12.1049    4.3159   22.5427 N.4       1 UNL1        0.0000
     24 O1          6.8782   -6.0468   27.0729 O.2       1 UNL1        0.0000
     25 O2         11.5242    2.1234   24.2281 O.3       1 UNL1        0.0000
     26 O3         10.8863    4.8933   24.6026 O.3       1 UNL1        0.0000
     27 Cl1         5.1062   -6.4288   24.3120 Cl        1 UNL1        0.0000
@<TRIPOS>BOND
     1    1   14 1
     2    1   20 3
     3    2    3 ar
     4    2    4 ar
     5    3    6 ar
     6    4    7 ar
     7    5    6 ar
     8    5    7 ar
     9    6   15 1
    10    7   25 1
    11    8   16 1
    12    8   21 am
    13    8   24 2
    14    9   11 1
    15    9   21 1
    16   10   12 1
    17   10   21 1
    18   11   22 1
    19   12   22 1
    20   13   17 1
    21   14   26 1
    22   15   22 1
    23   16   27 1
    24   17   23 1
    25   18   19 1
    26   18   25 1
    27   19   23 1
    28   19   26 1
@<TRIPOS>MOLECULE
DAR-DIA-cab-6
   30    33     0     0     0
SMALL
NO_CHARGES

@<TRIPOS>ATOM
      1 C1          7.3982   -4.7513   24.8562 C.ar      1 UNL1        0.0000
      2 C2          8.7668   -4.5043   24.8679 C.ar      1 UNL1        0.0000
      3 C3          6.5758   -4.0601   23.9689 C.ar      1 UNL1        0.0000
      4 C4          9.3127   -3.5543   24.0040 C.ar      1 UNL1        0.0000
      5 C5         12.2013    0.7201   23.8953 C.ar      1 UNL1        0.0000
      6 C6         11.4711   -0.9323   22.2725 C.ar      1 UNL1        0.0000
      7 C7          8.9627    1.0964   25.5475 C.2       1 UNL1        0.0000
      8 C8         10.8983    0.7582   24.4301 C.ar      1 UNL1        0.0000
      9 C9          7.1142   -3.1111   23.0858 C.ar      1 UNL1        0.0000
     10 C10         8.4946   -2.8234   23.1243 C.ar      1 UNL1        0.0000
     11 C11        10.1714   -0.9115   22.7864 C.ar      1 UNL1        0.0000
     12 C12        10.2828    1.4799   25.4909 C.2       1 UNL1        0.0000
     13 C13         9.9154   -0.0568   23.8645 C.ar      1 UNL1        0.0000
     14 C14        12.4720   -0.1300   22.8168 C.ar      1 UNL1        0.0000
     15 C15         6.4918   -1.8845   19.7283 C.2       1 UNL1        0.0000
     16 C16        11.5837    4.1392   23.2905 C.2       1 UNL1        0.0000
     17 C17         6.1862   -2.4024   22.1301 C.3       1 UNL1        0.0000
     18 C18         8.0341   -0.9142   21.4980 C.3       1 UNL1        0.0000
     19 C19         9.1025   -1.8017   22.1664 C.3       1 UNL1        0.0000
     20 C20        12.6091    3.9555   22.2214 C.3       1 UNL1        0.0000
     21 C21        10.9342    2.4649   26.3778 C.3       1 UNL1        0.0000
     22 C22         7.2968   -1.1574   18.6809 C.3       1 UNL1        0.0000
     23 C23        11.1704    3.8385   25.7239 C.3       1 UNL1        0.0000
     24 N1          8.7506    0.1691   24.5628 N.pl3     1 UNL1        0.0000
     25 N2          6.9065   -1.7314   21.0500 N.am      1 UNL1        0.0000
     26 N3         11.9997    3.7457   24.5523 N.am      1 UNL1        0.0000
     27 O1          5.5259   -2.5687   19.3807 O.2       1 UNL1        0.0000
     28 O2         10.4878    4.6061   23.0028 O.2       1 UNL1        0.0000
     29 F1         13.7088   -0.1721   22.3027 F         1 UNL1        0.0000
     30 Cl1         6.5378    0.4156   18.4656 Cl        1 UNL1        0.0000
@<TRIPOS>BOND
     1    1    2 ar
     2    1    3 ar
     3    2    4 ar
     4    3    9 ar
     5    4   10 ar
     6    5    8 ar
     7    5   14 ar
     8    6   11 ar
     9    6   14 ar
    10    7   12 2
    11    7   24 1
    12    8   12 1
    13    8   13 ar
    14    9   10 ar
    15    9   17 1
    16   10   19 1
    17   11   13 ar
    18   11   19 1
    19   12   21 1
    20   13   24 1
    21   14   29 1
    22   15   22 1
    23   15   25 am
    24   15   27 2
    25   16   20 1
    26   16   26 am
    27   16   28 2
    28   17   25 1
    29   18   19 1
    30   18   25 1
    31   21   23 1
    32   22   30 1
    33   23   26 1
@<TRIPOS>MOLECULE
DAV-CRI-eab-7
   17    18     0     0     0
SMALL
NO_CHARGES

@<TRIPOS>ATOM
      1 C1         10.8210   -1.7996   22.4599 C.2       1 UNL1        0.0000
      2 C2         11.9047   -0.1964   23.9273 C.2       1 UNL1        0.0000
      3 C3          8.7767    1.0944   24.3677 C.2       1 UNL1        0.0000
      4 C4         11.9641   -1.0238   22.8753 C.2       1 UNL1        0.0000
      5 C5          9.6892   -1.8531   23.1857 C.2       1 UNL1        0.0000
      6 C6          6.7059   -2.4846   21.1484 C.2       1 UNL1        0.0000
      7 C7          8.2756   -0.2789   24.6441 C.3       1 UNL1        0.0000
      8 C8         10.6537   -0.0265   24.7398 C.3       1 UNL1        0.0000
      9 C9          9.5550   -1.0911   24.4966 C.3       1 UNL1        0.0000
     10 C10         7.7266   -3.1588   23.9748 C.3       1 UNL1        0.0000
     11 C11         6.0598   -1.4833   20.2253 C.3       1 UNL1        0.0000
     12 C12         8.5556   -2.7508   22.7761 C.3       1 UNL1        0.0000
     13 N1         10.0529    1.2857   24.4040 N.2       1 UNL1        0.0000
     14 N2          7.8036   -1.9757   21.8329 N.am      1 UNL1        0.0000
     15 O1          6.2695   -3.6275   21.2733 O.2       1 UNL1        0.0000
     16 Cl1        13.4184   -1.1697   21.9561 Cl        1 UNL1        0.0000
     17 Cl2         6.3065    0.1295   20.9129 Cl        1 UNL1        0.0000
@<TRIPOS>BOND
     1    1    4 1
     2    1    5 2
     3    2    4 2
     4    2    8 1
     5    3    7 1
     6    3   13 2
     7    4   16 1
     8    5    9 1
     9    5   12 1
    10    6   11 1
    11    6   14 am
    12    6   15 2
    13    7    9 1
    14    8    9 1
    15    8   13 1
    16   10   12 1
    17   11   17 1
    18   12   14 1
@<TRIPOS>MOLECULE
AGN-NEW-cce-2
   23    24     0     0     0
SMALL
NO_CHARGES

@<TRIPOS>ATOM
      1 C1         12.9691   -0.5147   22.1753 C.ar      1 UNL1        0.0000
      2 C2          5.8454    0.6992   17.7444 C.ar      1 UNL1        0.0000
      3 C3         11.6216   -0.7812   21.9333 C.ar      1 UNL1        0.0000
      4 C4          6.7003    0.2078   18.7247 C.ar      1 UNL1        0.0000
      5 C5         13.3354    0.3372   23.2174 C.ar      1 UNL1        0.0000
      6 C6          4.7390    1.4259   18.1537 C.ar      1 UNL1        0.0000
      7 C7         10.6402   -0.1959   22.7334 C.ar      1 UNL1        0.0000
      8 C8          6.4265    0.4546   20.0654 C.ar      1 UNL1        0.0000
      9 C9         11.0065    0.6560   23.7754 C.ar      1 UNL1        0.0000
     10 C10        12.3541    0.9226   24.0174 C.ar      1 UNL1        0.0000
     11 C11         5.2942    1.1924   20.3708 C.ar      1 UNL1        0.0000
     12 C12         8.1945    4.0521   25.9856 C.2       1 UNL1        0.0000
     13 C13         8.6000    2.8156   25.6798 C.2       1 UNL1        0.0000
     14 C14         9.7508    2.6014   24.7550 C.2       1 UNL1        0.0000
     15 C15         8.6444    0.2405   21.2403 C.2       1 UNL1        0.0000
     16 C16         4.9453    1.4890   21.7935 C.3       1 UNL1        0.0000
     17 C17         9.2054   -0.5026   22.4484 C.3       1 UNL1        0.0000
     18 N1          4.4402    1.6861   19.4463 N.ar      1 UNL1        0.0000
     19 N2         10.0112    1.2399   24.5684 N.am      1 UNL1        0.0000
     20 N3          7.2914   -0.0418   21.0696 N.am      1 UNL1        0.0000
     21 O1         10.3496    3.5469   24.2562 O.2       1 UNL1        0.0000
     22 O2          9.3432    0.9741   20.5485 O.2       1 UNL1        0.0000
     23 Cl1        12.8560    1.9717   25.2955 Cl        1 UNL1        0.0000
@<TRIPOS>BOND
     1    1    3 ar
     2    1    5 ar
     3    2    4 ar
     4    2    6 ar
     5    3    7 ar
     6    4    8 ar
     7    5   10 ar
     8    6   18 ar
     9    7    9 ar
    10    7   17 1
    11    8   11 ar
    12    8   20 1
    13    9   10 ar
    14    9   19 1
    15   10   23 1
    16   11   16 1
    17   11   18 ar
    18   12   13 2
    19   13   14 1
    20   14   19 am
    21   14   21 2
    22   15   17 1
    23   15   20 am
    24   15   22 2
@<TRIPOS>MOLECULE
MAK-UNK-e4a-1
   21    22     0     0     0
SMALL
NO_CHARGES

@<TRIPOS>ATOM
      1 C1          5.1627   -4.7627   23.9599 C.2       1 UNL1        0.0000
      2 C2          4.3144   -4.2416   23.0079 C.2       1 UNL1        0.0000
      3 C3          6.6331   -3.4837   22.6932 C.2       1 UNL1        0.0000
      4 C4          6.5059   -4.3236   23.7778 C.2       1 UNL1        0.0000
      5 C5         11.6667   -0.2433   23.7852 C.2       1 UNL1        0.0000
      6 C6          7.5758   -5.5295   25.7124 C.2       1 UNL1        0.0000
      7 C7          9.6689   -0.9210   25.2015 C.3       1 UNL1        0.0000
      8 C8         10.8220   -2.5668   23.7782 C.3       1 UNL1        0.0000
      9 C9          9.6062   -1.9677   26.3154 C.3       1 UNL1        0.0000
     10 C10        10.7428   -3.5792   24.9204 C.3       1 UNL1        0.0000
     11 C11        12.2372   -0.5039   22.4140 C.3       1 UNL1        0.0000
     12 C12         9.4712   -4.3188   26.8297 C.3       1 UNL1        0.0000
     13 C13         8.9661   -5.6721   26.3222 C.3       1 UNL1        0.0000
     14 N1         10.7765   -1.1947   24.2811 N.am      1 UNL1        0.0000
     15 N2          9.5613   -3.3277   25.7583 N.3       1 UNL1        0.0000
     16 N3          7.5966   -4.6930   24.6005 N.am      1 UNL1        0.0000
     17 N4          8.9234   -6.6471   27.4510 N.4       1 UNL1        0.0000
     18 O1         11.9996    0.7767   24.3940 O.2       1 UNL1        0.0000
     19 O2          6.6019   -6.1002   26.1951 O.2       1 UNL1        0.0000
     20 S1          5.1372   -3.2274   21.9002 S.3       1 UNL1        0.0000
     21 Cl1        13.7326   -1.4008   22.6528 Cl        1 UNL1        0.0000
@<TRIPOS>BOND
     1    1    2 2
     2    1    4 1
     3    2   20 1
     4    3    4 2
     5    3   20 1
     6    4   16 1
     7    5   11 1
     8    5   14 am
     9    5   18 2
    10    6   13 1
    11    6   16 am
    12    6   19 2
    13    7    9 1
    14    7   14 1
    15    8   10 1
    16    8   14 1
    17    9   15 1
    18   10   15 1
    19   11   21 1
    20   12   13 1
    21   12   15 1
    22   13   17 1
@<TRIPOS>MOLECULE
DUN-NEW-f8c-22
   20    21     0     0     0
SMALL
NO_CHARGES

@<TRIPOS>ATOM
      1 C1         13.3346   -0.3718   23.8897 C.ar      1 UNL1        0.0000
      2 C2         12.4575    0.4299   24.6201 C.ar      1 UNL1        0.0000
      3 C3         12.8844   -1.5673   23.3294 C.ar      1 UNL1        0.0000
      4 C4         11.1302    0.0362   24.7902 C.ar      1 UNL1        0.0000
      5 C5         11.5572   -1.9610   23.4995 C.ar      1 UNL1        0.0000
      6 C6         10.6800   -1.1593   24.2300 C.ar      1 UNL1        0.0000
      7 C7          7.1062   -4.3312   25.6433 C.2       1 UNL1        0.0000
      8 C8          6.6068   -2.7196   23.8378 C.3       1 UNL1        0.0000
      9 C9          6.8666   -1.2195   23.7898 C.3       1 UNL1        0.0000
     10 C10         8.9828   -3.1084   24.4355 C.3       1 UNL1        0.0000
     11 C11         9.2344   -1.5889   24.4152 C.3       1 UNL1        0.0000
     12 C12         9.2505    0.6450   21.5445 C.3       1 UNL1        0.0000
     13 C13         7.9111   -4.4724   26.9105 C.3       1 UNL1        0.0000
     14 N1          7.5664   -3.4018   24.7096 N.am      1 UNL1        0.0000
     15 N2          8.2898   -0.9495   23.4286 N.pl3     1 UNL1        0.0000
     16 O1          6.0971   -5.0245   25.4904 O.2       1 UNL1        0.0000
     17 O2          7.4386   -1.1627   21.0187 O.2       1 UNL1        0.0000
     18 O3          9.7854   -1.9124   21.5810 O.2       1 UNL1        0.0000
     19 S1          8.6689   -1.0156   21.7585 S.o2      1 UNL1        0.0000
     20 Cl1         6.7751   -4.9056   28.1832 Cl        1 UNL1        0.0000
@<TRIPOS>BOND
     1    1    2 ar
     2    1    3 ar
     3    2    4 ar
     4    3    5 ar
     5    4    6 ar
     6    5    6 ar
     7    6   11 1
     8    7   13 1
     9    7   14 am
    10    7   16 2
    11    8    9 1
    12    8   14 1
    13    9   15 1
    14   10   11 1
    15   10   14 1
    16   11   15 1
    17   12   19 1
    18   13   20 1
    19   15   19 1
    20   17   19 2
    21   18   19 2
@<TRIPOS>MOLECULE
MIH-UNI-e57-15
   25    27     0     0     0
SMALL
NO_CHARGES

@<TRIPOS>ATOM
      1 C1          6.8741    0.3987   22.6434 C.ar      1 UNL1        0.0000
      2 C2          7.8585    0.9441   21.8193 C.ar      1 UNL1        0.0000
      3 C3          7.1175    0.2364   24.0072 C.ar      1 UNL1        0.0000
      4 C4          9.0864    1.3271   22.3590 C.ar      1 UNL1        0.0000
      5 C5          8.3454    0.6195   24.5470 C.ar      1 UNL1        0.0000
      6 C6         12.8425    3.9382   22.2246 C.ar      1 UNL1        0.0000
      7 C7         12.2876    5.1775   22.5429 C.ar      1 UNL1        0.0000
      8 C8         10.6981    4.0903   23.9958 C.ar      1 UNL1        0.0000
      9 C9          9.3298    1.1648   23.7229 C.ar      1 UNL1        0.0000
     10 C10        12.3285    2.7590   22.7850 C.ar      1 UNL1        0.0000
     11 C11        11.2502    2.8369   23.6858 C.ar      1 UNL1        0.0000
     12 C12        11.2151    5.2533   23.4267 C.ar      1 UNL1        0.0000
     13 C13        12.2735   -0.9987   22.3543 C.2       1 UNL1        0.0000
     14 C14        12.9594    1.4401   22.4084 C.3       1 UNL1        0.0000
     15 C15        11.6854    0.4286   24.2836 C.3       1 UNL1        0.0000
     16 C16        10.6706    1.5827   24.3130 C.3       1 UNL1        0.0000
     17 C17         8.4536    5.8461   22.3550 C.3       1 UNL1        0.0000
     18 C18        11.0590   -1.8590   22.6005 C.3       1 UNL1        0.0000
     19 N1         12.2735    0.2621   22.9552 N.am      1 UNL1        0.0000
     20 N2         10.6458    6.5216   23.7518 N.pl3     1 UNL1        0.0000
     21 O1         13.1933   -1.4358   21.6585 O.2       1 UNL1        0.0000
     22 O2          8.4904    5.7749   24.9552 O.2       1 UNL1        0.0000
     23 O3          8.4999    8.0194   23.8118 O.2       1 UNL1        0.0000
     24 S1          8.9318    6.6372   23.8748 S.o2      1 UNL1        0.0000
     25 Cl1        11.4079   -2.8242   24.0301 Cl        1 UNL1        0.0000
@<TRIPOS>BOND
     1    1    2 ar
     2    1    3 ar
     3    2    4 ar
     4    3    5 ar
     5    4    9 ar
     6    5    9 ar
     7    6    7 ar
     8    6   10 ar
     9    7   12 ar
    10    8   11 ar
    11    8   12 ar
    12    9   16 1
    13   10   11 ar
    14   10   14 1
    15   11   16 1
    16   12   20 1
    17   13   18 1
    18   13   19 am
    19   13   21 2
    20   14   19 1
    21   15   16 1
    22   15   19 1
    23   17   24 1
    24   18   25 1
    25   20   24 1
    26   22   24 2
    27   23   24 2
@<TRIPOS>MOLECULE
AGN-NEW-63f-1
   27    29     0     0     0
SMALL
NO_CHARGES

@<TRIPOS>ATOM
      1 C1          5.8612    0.8934   17.8393 C.ar      1 UNL1        0.0000
      2 C2         11.6085    0.2817   22.0729 C.ar      1 UNL1        0.0000
      3 C3         12.8346    1.0580   24.0045 C.ar      1 UNL1        0.0000
      4 C4         10.5797    0.2287   24.2582 C.ar      1 UNL1        0.0000
      5 C5          4.7101    1.5021   18.3128 C.ar      1 UNL1        0.0000
      6 C6          5.2093    0.9571   20.4880 C.ar      1 UNL1        0.0000
      7 C7          6.7086    0.2946   18.7648 C.ar      1 UNL1        0.0000
      8 C8         12.7689    0.8169   22.6322 C.ar      1 UNL1        0.0000
      9 C9         10.5139   -0.0124   22.8859 C.ar      1 UNL1        0.0000
     10 C10         6.3837    0.3226   20.1165 C.ar      1 UNL1        0.0000
     11 C11        11.7400    0.7639   24.8175 C.ar      1 UNL1        0.0000
     12 C12         8.5743    0.1367   21.3026 C.2       1 UNL1        0.0000
     13 C13         6.8297   -5.5897   25.0370 C.2       1 UNL1        0.0000
     14 C14         6.0776   -4.4895   24.9360 C.2       1 UNL1        0.0000
     15 C15         6.6298   -3.2543   24.3185 C.2       1 UNL1        0.0000
     16 C16         8.8846   -1.8968   22.7955 C.3       1 UNL1        0.0000
     17 C17         6.6267   -1.2646   22.0207 C.3       1 UNL1        0.0000
     18 C18         7.5919   -2.4148   22.1934 C.3       1 UNL1        0.0000
     19 C19         7.9562   -0.3695   18.2820 C.3       1 UNL1        0.0000
     20 C20        13.9390    1.1321   21.7627 C.3       1 UNL1        0.0000
     21 N1          4.3611    1.5496   19.6180 N.ar      1 UNL1        0.0000
     22 N2          9.3025   -0.5701   22.3020 N.am      1 UNL1        0.0000
     23 N3          7.2297   -0.2836   21.1158 N.am      1 UNL1        0.0000
     24 N4          7.0218   -3.4612   23.0052 N.am      1 UNL1        0.0000
     25 O1          9.0697    1.0675   20.6588 O.2       1 UNL1        0.0000
     26 O2          6.7171   -2.1935   24.9287 O.2       1 UNL1        0.0000
     27 Cl1        11.8203    1.0630   26.5105 Cl        1 UNL1        0.0000
@<TRIPOS>BOND
     1    1    5 ar
     2    1    7 ar
     3    2    8 ar
     4    2    9 ar
     5    3    8 ar
     6    3   11 ar
     7    4    9 ar
     8    4   11 ar
     9    5   21 ar
    10    6   10 ar
    11    6   21 ar
    12    7   10 ar
    13    7   19 1
    14    8   20 1
    15    9   22 1
    16   10   23 1
    17   11   27 1
    18   12   22 am
    19   12   23 am
    20   12   25 2
    21   13   14 2
    22   14   15 1
    23   15   24 am
    24   15   26 2
    25   16   18 1
    26   16   22 1
    27   17   18 1
    28   17   23 1
    29   18   24 1
@<TRIPOS>MOLECULE
NAU-LAT-f72-5
   28    30     0     0     0
SMALL
NO_CHARGES

@<TRIPOS>ATOM
      1 C1          6.4074    1.8962   23.8561 C.ar      1 UNL1        0.0000
      2 C2          6.7553    1.9075   22.5054 C.ar      1 UNL1        0.0000
      3 C3          6.6375    3.0232   24.6452 C.ar      1 UNL1        0.0000
      4 C4          7.3335    3.0459   21.9437 C.ar      1 UNL1        0.0000
      5 C5          7.2157    4.1616   24.0835 C.ar      1 UNL1        0.0000
      6 C6         10.3515    7.2745   25.3056 C.ar      1 UNL1        0.0000
      7 C7          9.6773    6.7699   24.1936 C.ar      1 UNL1        0.0000
      8 C8         12.3038    5.9828   24.7081 C.ar      1 UNL1        0.0000
      9 C9          7.5637    4.1730   22.7327 C.ar      1 UNL1        0.0000
     10 C10        11.6648    6.8810   25.5628 C.ar      1 UNL1        0.0000
     11 C11        10.3163    5.8717   23.3389 C.ar      1 UNL1        0.0000
     12 C12        11.6296    5.4781   23.5961 C.ar      1 UNL1        0.0000
     13 C13        10.6446   -1.0491   23.7272 C.2       1 UNL1        0.0000
     14 C14        10.3322    1.4093   24.3019 C.3       1 UNL1        0.0000
     15 C15        12.5672    0.5082   23.7877 C.3       1 UNL1        0.0000
     16 C16        10.5821    2.5772   23.3524 C.3       1 UNL1        0.0000
     17 C17        12.8234    1.6703   22.8347 C.3       1 UNL1        0.0000
     18 C18        12.3852    7.4210   26.7516 C.3       1 UNL1        0.0000
     19 C19         8.1861    5.3985   22.1289 C.3       1 UNL1        0.0000
     20 C20         9.1661   -1.2488   23.9454 C.3       1 UNL1        0.0000
     21 N1         11.1333    0.2430   23.9126 N.am      1 UNL1        0.0000
     22 N2         12.0473    2.8636   23.2891 N.pl3     1 UNL1        0.0000
     23 N3          9.6121    5.3744   22.2201 N.pl3     1 UNL1        0.0000
     24 O1         11.3419   -2.0125   23.3993 O.2       1 UNL1        0.0000
     25 O2         11.8497    4.4075   21.2342 O.2       1 UNL1        0.0000
     26 O3         13.8949    4.5587   22.6977 O.2       1 UNL1        0.0000
     27 S1         12.4728    4.3439   22.5386 S.o2      1 UNL1        0.0000
     28 Cl1         8.3824   -0.9386   22.4002 Cl        1 UNL1        0.0000
@<TRIPOS>BOND
     1    1    2 ar
     2    1    3 ar
     3    2    4 ar
     4    3    5 ar
     5    4    9 ar
     6    5    9 ar
     7    6    7 ar
     8    6   10 ar
     9    7   11 ar
    10    8   10 ar
    11    8   12 ar
    12    9   19 1
    13   10   18 1
    14   11   12 ar
    15   11   23 1
    16   12   27 1
    17   13   20 1
    18   13   21 am
    19   13   24 2
    20   14   16 1
    21   14   21 1
    22   15   17 1
    23   15   21 1
    24   16   22 1
    25   17   22 1
    26   19   23 1
    27   20   28 1
    28   22   27 1
    29   25   27 2
    30   26   27 2
@<TRIPOS>MOLECULE
JAN-GHE-641-9
   24    26     0     0     0
SMALL
NO_CHARGES

@<TRIPOS>ATOM
      1 C1         13.4594   -0.7036   22.3821 C.ar      1 UNL1        0.0000
      2 C2         13.3306    0.5851   22.9128 C.ar      1 UNL1        0.0000
      3 C3         12.4246   -1.6295   22.4984 C.ar      1 UNL1        0.0000
      4 C4         10.4026    1.8761   24.6793 C.2       1 UNL1        0.0000
      5 C5         12.1365    0.9412   23.5707 C.ar      1 UNL1        0.0000
      6 C6         11.2311   -1.2990   23.1468 C.ar      1 UNL1        0.0000
      7 C7         11.6721    2.1243   24.2106 C.2       1 UNL1        0.0000
      8 C8         11.1164   -0.0071   23.6723 C.ar      1 UNL1        0.0000
      9 C9          5.5017   -0.0272   18.1463 C.2       1 UNL1        0.0000
     10 C10         6.2849   -1.1002   18.2750 C.2       1 UNL1        0.0000
     11 C11         6.0978   -1.9839   19.4432 C.2       1 UNL1        0.0000
     12 C12        12.8383    4.0243   23.0296 C.2       1 UNL1        0.0000
     13 C13         7.7876   -0.6018   20.7691 C.3       1 UNL1        0.0000
     14 C14         6.6154   -2.5167   21.7926 C.3       1 UNL1        0.0000
     15 C15         9.1126   -1.1037   21.3307 C.3       1 UNL1        0.0000
     16 C16         7.9272   -3.0470   22.3493 C.3       1 UNL1        0.0000
     17 C17        12.4116    3.3949   24.3525 C.3       1 UNL1        0.0000
     18 C18        10.1372   -2.3202   23.2538 C.3       1 UNL1        0.0000
     19 N1         10.0763    0.5879   24.3500 N.pl3     1 UNL1        0.0000
     20 N2          6.8292   -1.7021   20.5945 N.am      1 UNL1        0.0000
     21 N3         11.7738    4.3980   22.2368 N.am      1 UNL1        0.0000
     22 N4          8.8575   -1.8832   22.5983 N.4       1 UNL1        0.0000
     23 O1          5.3005   -2.9165   19.3295 O.2       1 UNL1        0.0000
     24 O2         14.0128    4.1781   22.7065 O.2       1 UNL1        0.0000
@<TRIPOS>BOND
     1    1    2 ar
     2    1    3 ar
     3    2    5 ar
     4    3    6 ar
     5    4    7 2
     6    4   19 1
     7    5    7 1
     8    5    8 ar
     9    6    8 ar
    10    6   18 1
    11    7   17 1
    12    8   19 1
    13    9   10 2
    14   10   11 1
    15   11   20 am
    16   11   23 2
    17   12   17 1
    18   12   21 am
    19   12   24 2
    20   13   15 1
    21   13   20 1
    22   14   16 1
    23   14   20 1
    24   15   22 1
    25   16   22 1
    26   18   22 1
@<TRIPOS>MOLECULE
MAK-UNK-c44-5
   32    33     0     0     0
SMALL
NO_CHARGES

@<TRIPOS>ATOM
      1 C1          7.9653    6.9248   23.5848 C.1       1 UNL1        0.0000
      2 C2          8.5909    7.2562   24.5544 C.1       1 UNL1        0.0000
      3 C3         13.1835   -0.3091   23.1645 C.ar      1 UNL1        0.0000
      4 C4         12.7467   -0.7780   21.9256 C.ar      1 UNL1        0.0000
      5 C5         12.3298   -0.3517   24.2669 C.ar      1 UNL1        0.0000
      6 C6         11.4562   -1.2895   21.7889 C.ar      1 UNL1        0.0000
      7 C7         11.0393   -0.8632   24.1302 C.ar      1 UNL1        0.0000
      8 C8          4.0912    1.6861   21.5558 C.ar      1 UNL1        0.0000
      9 C9          4.9469    2.5757   19.4789 C.ar      1 UNL1        0.0000
     10 C10         2.7886    1.9482   21.1314 C.ar      1 UNL1        0.0000
     11 C11         3.6443    2.8377   19.0544 C.ar      1 UNL1        0.0000
     12 C12        10.6025   -1.3321   22.8913 C.ar      1 UNL1        0.0000
     13 C13         5.1704    2.0000   20.7296 C.ar      1 UNL1        0.0000
     14 C14         2.5651    2.5239   19.8807 C.ar      1 UNL1        0.0000
     15 C15         8.5899    2.4098   23.3776 C.2       1 UNL1        0.0000
     16 C16         6.8219    4.1518   21.8020 C.2       1 UNL1        0.0000
     17 C17         9.9127    2.2304   24.0455 C.3       1 UNL1        0.0000
     18 C18         7.2006    6.5249   22.4042 C.3       1 UNL1        0.0000
     19 C19         9.2062   -1.8850   22.7441 C.3       1 UNL1        0.0000
     20 C20         8.1802   -0.8191   22.3674 C.3       1 UNL1        0.0000
     21 C21         6.5842    1.7151   21.1898 C.3       1 UNL1        0.0000
     22 C22         7.5170    2.9360   21.1971 C.3       1 UNL1        0.0000
     23 N1          7.6577    5.2542   21.8946 N.am      1 UNL1        0.0000
     24 N2          8.6743    2.7221   22.0333 N.am      1 UNL1        0.0000
     25 N3          8.4785   -0.1790   21.0736 N.pl3     1 UNL1        0.0000
     26 O1          7.5608    2.2746   24.0291 O.2       1 UNL1        0.0000
     27 O2          5.6377    4.1420   22.1348 O.2       1 UNL1        0.0000
     28 O3          6.1552   -0.5804   20.0079 O.2       1 UNL1        0.0000
     29 O4          7.7482    1.0617   18.9485 O.2       1 UNL1        0.0000
     30 O5          1.2939    2.7783   19.4661 O.3       1 UNL1        0.0000
     31 S1          7.1925    0.4253   20.1273 S.o2      1 UNL1        0.0000
     32 Br1         9.5809    7.7805   26.0892 Br        1 UNL1        0.0000
@<TRIPOS>BOND
     1    1    2 3
     2    1   18 1
     3    2   32 1
     4    3    4 ar
     5    3    5 ar
     6    4    6 ar
     7    5    7 ar
     8    6   12 ar
     9    7   12 ar
    10    8   10 ar
    11    8   13 ar
    12    9   11 ar
    13    9   13 ar
    14   10   14 ar
    15   11   14 ar
    16   12   19 1
    17   13   21 1
    18   14   30 1
    19   15   17 1
    20   15   24 am
    21   15   26 2
    22   16   22 1
    23   16   23 am
    24   16   27 2
    25   18   23 1
    26   19   20 1
    27   20   25 1
    28   21   22 1
    29   21   31 1
    30   22   24 1
    31   25   31 1
    32   28   31 2
    33   29   31 2
@<TRIPOS>MOLECULE
NIR-THE-99f-3
   20    21     0     0     0
SMALL
NO_CHARGES

@<TRIPOS>ATOM
      1 C1          9.1858   -0.6727   26.0508 C.ar      1 UNL1        0.0000
      2 C2          8.1763   -1.5372   25.6277 C.ar      1 UNL1        0.0000
      3 C3         10.1630   -0.2478   25.1506 C.ar      1 UNL1        0.0000
      4 C4          8.1440   -1.9770   24.3043 C.ar      1 UNL1        0.0000
      5 C5         10.1307   -0.6876   23.8273 C.ar      1 UNL1        0.0000
      6 C6          9.1212   -1.5522   23.4041 C.ar      1 UNL1        0.0000
      7 C7         11.2835    2.2126   22.2305 C.2       1 UNL1        0.0000
      8 C8          7.7089   -0.5051   20.5949 C.2       1 UNL1        0.0000
      9 C9         13.5383   -0.2395   22.3330 C.3       1 UNL1        0.0000
     10 C10        12.4172   -1.1479   22.8082 C.3       1 UNL1        0.0000
     11 C11        13.3028    1.0401   23.1227 C.3       1 UNL1        0.0000
     12 C12        11.2002   -0.2126   22.8686 C.3       1 UNL1        0.0000
     13 C13        11.7782    1.1831   23.2057 C.3       1 UNL1        0.0000
     14 C14         9.0663   -2.0369   21.9925 C.3       1 UNL1        0.0000
     15 C15         6.3407   -0.3395   19.9843 C.3       1 UNL1        0.0000
     16 N1         11.2580    3.4901   22.7381 N.am      1 UNL1        0.0000
     17 N2          7.8378   -1.6697   21.3368 N.am      1 UNL1        0.0000
     18 O1         10.9535    1.9201   21.0838 O.2       1 UNL1        0.0000
     19 O2          8.6025    0.3211   20.4183 O.2       1 UNL1        0.0000
     20 Cl1         5.6425    1.1616   20.6120 Cl        1 UNL1        0.0000
@<TRIPOS>BOND
     1    1    2 ar
     2    1    3 ar
     3    2    4 ar
     4    3    5 ar
     5    4    6 ar
     6    5    6 ar
     7    5   12 1
     8    6   14 1
     9    7   13 1
    10    7   16 am
    11    7   18 2
    12    8   15 1
    13    8   17 am
    14    8   19 2
    15    9   10 1
    16    9   11 1
    17   10   12 1
    18   11   13 1
    19   12   13 1
    20   14   17 1
    21   15   20 1
@<TRIPOS>MOLECULE
DAR-DIA-cab-5
   30    33     0     0     0
SMALL
NO_CHARGES

@<TRIPOS>ATOM
      1 C1          8.2550   -4.5468   25.5956 C.ar      1 UNL1        0.0000
      2 C2          9.6255   -4.3142   25.5521 C.ar      1 UNL1        0.0000
      3 C3          7.4221   -3.9677   24.6405 C.ar      1 UNL1        0.0000
      4 C4         10.1630   -3.4890   24.5637 C.ar      1 UNL1        0.0000
      5 C5         13.0810    0.7078   23.8555 C.ar      1 UNL1        0.0000
      6 C6         12.3103   -1.1334   22.4723 C.ar      1 UNL1        0.0000
      7 C7          9.8749    1.3250   25.4987 C.2       1 UNL1        0.0000
      8 C8         11.7880    0.8270   24.4025 C.ar      1 UNL1        0.0000
      9 C9          7.9518   -3.1459   23.6333 C.ar      1 UNL1        0.0000
     10 C10         9.3349   -2.8694   23.6109 C.ar      1 UNL1        0.0000
     11 C11        11.0200   -1.0340   23.0007 C.ar      1 UNL1        0.0000
     12 C12        11.1965    1.6854   25.3711 C.2       1 UNL1        0.0000
     13 C13        10.7893   -0.0448   23.9633 C.ar      1 UNL1        0.0000
     14 C14        13.3264   -0.2770   22.8917 C.ar      1 UNL1        0.0000
     15 C15         7.2783   -2.3564   20.1565 C.2       1 UNL1        0.0000
     16 C16        12.4775    4.0251   22.8235 C.2       1 UNL1        0.0000
     17 C17         7.0122   -2.5571   22.6099 C.3       1 UNL1        0.0000
     18 C18         8.8598   -1.1814   21.7598 C.3       1 UNL1        0.0000
     19 C19         9.9333   -1.9860   22.5190 C.3       1 UNL1        0.0000
     20 C20        13.4823    3.6949   21.7702 C.3       1 UNL1        0.0000
     21 C21        11.8709    2.7708   26.1121 C.3       1 UNL1        0.0000
     22 C22         8.0700   -1.7785   19.0105 C.3       1 UNL1        0.0000
     23 C23        12.1055    4.0457   25.2819 C.3       1 UNL1        0.0000
     24 N1          9.6388    0.2804   24.6458 N.pl3     1 UNL1        0.0000
     25 N2          7.7181   -2.0383   21.4402 N.am      1 UNL1        0.0000
     26 N3         12.9130    3.7943   24.1185 N.am      1 UNL1        0.0000
     27 O1          6.3010   -3.0699   19.9166 O.2       1 UNL1        0.0000
     28 O2         11.3801    4.4614   22.4961 O.2       1 UNL1        0.0000
     29 Cl1        14.9050   -0.4290   22.2178 Cl        1 UNL1        0.0000
     30 Cl2         7.3194   -0.2389   18.6068 Cl        1 UNL1        0.0000
@<TRIPOS>BOND
     1    1    2 ar
     2    1    3 ar
     3    2    4 ar
     4    3    9 ar
     5    4   10 ar
     6    5    8 ar
     7    5   14 ar
     8    6   11 ar
     9    6   14 ar
    10    7   12 2
    11    7   24 1
    12    8   12 1
    13    8   13 ar
    14    9   10 ar
    15    9   17 1
    16   10   19 1
    17   11   13 ar
    18   11   19 1
    19   12   21 1
    20   13   24 1
    21   14   29 1
    22   15   22 1
    23   15   25 am
    24   15   27 2
    25   16   20 1
    26   16   26 am
    27   16   28 2
    28   17   25 1
    29   18   19 1
    30   18   25 1
    31   21   23 1
    32   22   30 1
    33   23   26 1
@<TRIPOS>MOLECULE
PAU-WEI-b9b-9
   38    41     0     0     0
SMALL
NO_CHARGES

@<TRIPOS>ATOM
      1 C1         12.9434    0.7122   22.6330 C.ar      1 UNL1        0.0000
      2 C2         12.7898    1.9790   23.2080 C.ar      1 UNL1        0.0000
      3 C3         11.8780   -0.1849   22.5890 C.ar      1 UNL1        0.0000
      4 C4          7.1909   -1.0291   19.6006 C.ar      1 UNL1        0.0000
      5 C5          8.2846    0.9480   20.4560 C.ar      1 UNL1        0.0000
      6 C6          6.0544   -0.2746   19.3096 C.ar      1 UNL1        0.0000
      7 C7          7.1481    1.7026   20.1650 C.ar      1 UNL1        0.0000
      8 C8          9.7173    3.2804   24.7001 C.2       1 UNL1        0.0000
      9 C9         11.5394    2.3425   23.7463 C.ar      1 UNL1        0.0000
     10 C10         8.3060   -0.4178   20.1739 C.ar      1 UNL1        0.0000
     11 C11         6.0330    1.0912   19.5918 C.ar      1 UNL1        0.0000
     12 C12        10.6286    0.1534   23.1165 C.ar      1 UNL1        0.0000
     13 C13        11.0374    3.5095   24.3875 C.2       1 UNL1        0.0000
     14 C14        10.4897    1.4232   23.6882 C.ar      1 UNL1        0.0000
     15 C15         8.8279   -5.2372   26.3611 C.2       1 UNL1        0.0000
     16 C16         9.8239    6.8356   23.5598 C.2       1 UNL1        0.0000
     17 C17        10.3627   -3.3896   25.7679 C.3       1 UNL1        0.0000
     18 C18         7.9507   -2.8980   25.8850 C.3       1 UNL1        0.0000
     19 C19        10.4579   -2.7024   24.4135 C.3       1 UNL1        0.0000
     20 C20         8.0100   -2.2013   24.5323 C.3       1 UNL1        0.0000
     21 C21         8.6081    7.1826   22.7662 C.3       1 UNL1        0.0000
     22 C22         9.5348   -1.2326   20.4887 C.3       1 UNL1        0.0000
     23 C23        11.7896    4.7484   24.6718 C.3       1 UNL1        0.0000
     24 C24         7.6322   -5.5446   27.2270 C.3       1 UNL1        0.0000
     25 C25         9.5733   -1.8608   21.8928 C.3       1 UNL1        0.0000
     26 C26        12.0052    5.6480   23.4413 C.3       1 UNL1        0.0000
     27 C27         9.4941   -0.8445   23.0517 C.3       1 UNL1        0.0000
     28 C28         4.8181    1.8976   19.2787 C.3       1 UNL1        0.0000
     29 N1          9.3962    2.0193   24.2747 N.pl3     1 UNL1        0.0000
     30 N2          9.0130   -3.9025   26.0034 N.am      1 UNL1        0.0000
     31 N3         10.7621    6.0877   22.8666 N.am      1 UNL1        0.0000
     32 N4          9.3953   -1.6295   24.3294 N.4       1 UNL1        0.0000
     33 O1          9.5721   -6.1572   26.0122 O.2       1 UNL1        0.0000
     34 O2          9.9163    7.2160   24.7210 O.2       1 UNL1        0.0000
     35 F1          3.8065    1.1692   18.7201 F         1 UNL1        0.0000
     36 F2          4.2628    2.4970   20.3732 F         1 UNL1        0.0000
     37 F3          5.0715    2.9082   18.3970 F         1 UNL1        0.0000
     38 Cl1         6.2858   -5.8519   26.1358 Cl        1 UNL1        0.0000
@<TRIPOS>BOND
     1    1    2 ar
     2    1    3 ar
     3    2    9 ar
     4    3   12 ar
     5    4    6 ar
     6    4   10 ar
     7    5    7 ar
     8    5   10 ar
     9    6   11 ar
    10    7   11 ar
    11    8   13 2
    12    8   29 1
    13    9   13 1
    14    9   14 ar
    15   10   22 1
    16   11   28 1
    17   12   14 ar
    18   12   27 1
    19   13   23 1
    20   14   29 1
    21   15   24 1
    22   15   30 am
    23   15   33 2
    24   16   21 1
    25   16   31 am
    26   16   34 2
    27   17   19 1
    28   17   30 1
    29   18   20 1
    30   18   30 1
    31   19   32 1
    32   20   32 1
    33   22   25 1
    34   23   26 1
    35   24   38 1
    36   25   27 1
    37   26   31 1
    38   27   32 1
    39   28   35 1
    40   28   36 1
    41   28   37 1
@<TRIPOS>MOLECULE
NIM-UNI-7ba-1
   33    36     0     0     0
SMALL
NO_CHARGES

@<TRIPOS>ATOM
      1 C1         13.2598    1.3703   22.1066 C.ar      1 UNL1        0.0000
      2 C2          5.9134    0.6899   20.4020 C.ar      1 UNL1        0.0000
      3 C3         12.6205    2.2925   22.9356 C.ar      1 UNL1        0.0000
      4 C4         11.0457    2.7799   24.7481 C.ar      1 UNL1        0.0000
      5 C5          6.5775   -0.1095   21.3257 C.ar      1 UNL1        0.0000
      6 C6         12.9869    0.0116   22.2348 C.ar      1 UNL1        0.0000
      7 C7         10.1324    2.3382   25.7058 C.ar      1 UNL1        0.0000
      8 C8         10.4988    0.0573   25.0050 C.ar      1 UNL1        0.0000
      9 C9          6.4122    0.7397   19.1102 C.ar      1 UNL1        0.0000
     10 C10         8.1226   -0.7072   19.6193 C.ar      1 UNL1        0.0000
     11 C11        11.6984    1.8657   23.9051 C.ar      1 UNL1        0.0000
     12 C12        11.4209    0.4841   24.0355 C.ar      1 UNL1        0.0000
     13 C13         7.7041   -0.8246   20.9349 C.ar      1 UNL1        0.0000
     14 C14        12.0737   -0.4301   23.1926 C.ar      1 UNL1        0.0000
     15 C15         9.8595    0.9795   25.8341 C.ar      1 UNL1        0.0000
     16 C16         9.7140   -1.4490   22.1707 C.2       1 UNL1        0.0000
     17 C17         8.4272   -1.6764   21.8862 C.2       1 UNL1        0.0000
     18 C18         7.8076   -2.8518   22.5815 C.2       1 UNL1        0.0000
     19 C19         9.8292   -3.3439   23.6704 C.2       1 UNL1        0.0000
     20 C20         5.6706   -3.7597   23.3184 C.2       1 UNL1        0.0000
     21 C21        11.8270   -1.9047   23.2767 C.3       1 UNL1        0.0000
     22 C22         4.2561   -3.9621   22.8350 C.3       1 UNL1        0.0000
     23 N1          7.5035    0.0593   18.6936 N.ar      1 UNL1        0.0000
     24 N2          8.4986   -3.6026   23.4017 N.2       1 UNL1        0.0000
     25 N3         10.4272   -2.2420   23.0401 N.am      1 UNL1        0.0000
     26 N4          9.7456    0.1833   28.3753 N.pl3     1 UNL1        0.0000
     27 N5          6.4802   -3.1549   22.3692 N.am      1 UNL1        0.0000
     28 O1         10.4573   -4.0681   24.4447 O.2       1 UNL1        0.0000
     29 O2          6.0197   -4.0981   24.4484 O.2       1 UNL1        0.0000
     30 O3          7.8051    1.5249   27.3359 O.2       1 UNL1        0.0000
     31 O4          8.1844   -0.8579   26.6103 O.2       1 UNL1        0.0000
     32 S1          8.7161    0.4297   27.0342 S.o2      1 UNL1        0.0000
     33 Cl1         4.3026   -4.1445   21.0744 Cl        1 UNL1        0.0000
@<TRIPOS>BOND
     1    1    3 ar
     2    1    6 ar
     3    2    5 ar
     4    2    9 ar
     5    3   11 ar
     6    4    7 ar
     7    4   11 ar
     8    5   13 ar
     9    6   14 ar
    10    7   15 ar
    11    8   12 ar
    12    8   15 ar
    13    9   23 ar
    14   10   13 ar
    15   10   23 ar
    16   11   12 ar
    17   12   14 ar
    18   13   17 1
    19   14   21 1
    20   15   32 1
    21   16   17 2
    22   16   25 1
    23   17   18 1
    24   18   24 2
    25   18   27 1
    26   19   24 1
    27   19   25 am
    28   19   28 2
    29   20   22 1
    30   20   27 am
    31   20   29 2
    32   21   25 1
    33   22   33 1
    34   26   32 1
    35   30   32 2
    36   31   32 2
@<TRIPOS>MOLECULE
DAV-CRI-d1e-1
   18    19     0     0     0
SMALL
NO_CHARGES

@<TRIPOS>ATOM
      1 C1         13.2699   -0.8623   21.9459 C.1       1 UNL1        0.0000
      2 C2         12.8182    0.9158   23.6803 C.2       1 UNL1        0.0000
      3 C3         11.9264    1.1990   24.6913 C.2       1 UNL1        0.0000
      4 C4         12.5162   -0.3152   23.0295 C.2       1 UNL1        0.0000
      5 C5         11.4050   -0.9261   23.5680 C.2       1 UNL1        0.0000
      6 C6          6.3100   -2.4940   19.8858 C.2       1 UNL1        0.0000
      7 C7          7.2103   -3.1530   22.0940 C.3       1 UNL1        0.0000
      8 C8          7.7260   -0.8913   21.2620 C.3       1 UNL1        0.0000
      9 C9          8.6757   -3.3850   22.4323 C.3       1 UNL1        0.0000
     10 C10         9.1999   -1.0887   21.5898 C.3       1 UNL1        0.0000
     11 C11        10.7539   -2.2217   23.1825 C.3       1 UNL1        0.0000
     12 C12         6.2173   -1.4355   18.8159 C.3       1 UNL1        0.0000
     13 N1         13.8822   -1.3067   21.0659 N.1       1 UNL1        0.0000
     14 N2          7.0685   -2.1784   21.0121 N.am      1 UNL1        0.0000
     15 N3          9.3256   -2.0558   22.7457 N.4       1 UNL1        0.0000
     16 O1          5.7273   -3.5691   19.7223 O.2       1 UNL1        0.0000
     17 S1         10.7309   -0.0164   24.8527 S.3       1 UNL1        0.0000
     18 Cl1         5.4518   -0.0350   19.5578 Cl        1 UNL1        0.0000
@<TRIPOS>BOND
     1    1    4 1
     2    1   13 3
     3    2    3 2
     4    2    4 1
     5    3   17 1
     6    4    5 2
     7    5   11 1
     8    5   17 1
     9    6   12 1
    10    6   14 am
    11    6   16 2
    12    7    9 1
    13    7   14 1
    14    8   10 1
    15    8   14 1
    16    9   15 1
    17   10   15 1
    18   11   15 1
    19   12   18 1
@<TRIPOS>MOLECULE
DAR-DIA-fb2-1
   21    22     0     0     0
SMALL
NO_CHARGES

@<TRIPOS>ATOM
      1 C1         10.3627    6.5172   25.4764 C.ar      1 UNL1        0.0000
      2 C2          8.0129    6.8147   25.6920 C.ar      1 UNL1        0.0000
      3 C3         10.1939    6.4240   24.0994 C.ar      1 UNL1        0.0000
      4 C4          9.2565    6.7163   26.2949 C.ar      1 UNL1        0.0000
      5 C5          8.9082    6.5353   23.5947 C.ar      1 UNL1        0.0000
      6 C6         13.0652    0.9389   22.8930 C.2       1 UNL1        0.0000
      7 C7         11.0802    2.4019   23.0941 C.3       1 UNL1        0.0000
      8 C8         12.8830    3.1008   21.5661 C.3       1 UNL1        0.0000
      9 C9         11.0471    3.7876   23.7220 C.3       1 UNL1        0.0000
     10 C10        12.8757    4.4986   22.1702 C.3       1 UNL1        0.0000
     11 C11         6.5933    7.3256   21.5306 C.3       1 UNL1        0.0000
     12 C12        11.3901    6.2095   23.2197 C.3       1 UNL1        0.0000
     13 C13        12.2029   -0.2490   23.2382 C.3       1 UNL1        0.0000
     14 C14         7.4747    6.1249   21.5942 C.3       1 UNL1        0.0000
     15 N1          7.8095    6.7291   24.3582 N.ar      1 UNL1        0.0000
     16 N2         12.3996    2.1100   22.5337 N.am      1 UNL1        0.0000
     17 N3          8.7311    6.4398   22.1920 N.pl3     1 UNL1        0.0000
     18 N4         11.4906    4.8050   22.6945 N.4       1 UNL1        0.0000
     19 O1         14.2929    0.8266   22.9395 O.2       1 UNL1        0.0000
     20 F1          9.3896    6.8102   27.6227 F         1 UNL1        0.0000
     21 Cl1        12.5983   -1.5124   22.0783 Cl        1 UNL1        0.0000
@<TRIPOS>BOND
     1    1    3 ar
     2    1    4 ar
     3    2    4 ar
     4    2   15 ar
     5    3    5 ar
     6    3   12 1
     7    4   20 1
     8    5   15 ar
     9    5   17 1
    10    6   13 1
    11    6   16 am
    12    6   19 2
    13    7    9 1
    14    7   16 1
    15    8   10 1
    16    8   16 1
    17    9   18 1
    18   10   18 1
    19   11   14 1
    20   12   18 1
    21   13   21 1
    22   14   17 1
@<TRIPOS>MOLECULE
BEN-VAN-ed8-10
   27    28     0     0     0
SMALL
NO_CHARGES

@<TRIPOS>ATOM
      1 C1          9.1255    6.1633   23.0672 C.ar      1 UNL1        0.0000
      2 C2          7.8736    5.8662   22.5402 C.ar      1 UNL1        0.0000
      3 C3         12.0035    1.9108   23.6210 C.ar      1 UNL1        0.0000
      4 C4         11.8727   -0.0435   22.2066 C.ar      1 UNL1        0.0000
      5 C5          9.8713    0.8452   23.2272 C.ar      1 UNL1        0.0000
      6 C6         12.6270    0.9632   22.8094 C.ar      1 UNL1        0.0000
      7 C7         10.6256    1.8518   23.8300 C.ar      1 UNL1        0.0000
      8 C8         10.4948   -0.1025   22.4155 C.ar      1 UNL1        0.0000
      9 C9          9.8235    5.1921   23.7763 C.ar      1 UNL1        0.0000
     10 C10         9.2306    3.9492   23.9292 C.ar      1 UNL1        0.0000
     11 C11         7.3681    4.5930   22.7483 C.ar      1 UNL1        0.0000
     12 C12         3.8031    1.5263   18.7220 C.2       1 UNL1        0.0000
     13 C13         4.5102    1.1136   19.7784 C.2       1 UNL1        0.0000
     14 C14         5.9891    1.2740   19.8033 C.2       1 UNL1        0.0000
     15 C15         7.9825    0.1680   20.7559 C.2       1 UNL1        0.0000
     16 C16        14.1003    1.0263   22.5861 C.3       1 UNL1        0.0000
     17 C17         3.8512    3.4277   22.2988 C.3       1 UNL1        0.0000
     18 C18         9.9590    2.8651   24.6978 C.3       1 UNL1        0.0000
     19 C19         8.3195   -1.0288   21.6184 C.3       1 UNL1        0.0000
     20 C20         5.2802    3.2289   22.6745 C.3       1 UNL1        0.0000
     21 N1          8.0166    3.6234   23.4317 N.ar      1 UNL1        0.0000
     22 N2          9.7445   -1.1038   21.8160 N.pl3     1 UNL1        0.0000
     23 N3          6.0899    4.3064   22.2074 N.pl3     1 UNL1        0.0000
     24 N4          6.6036    0.2750   20.5547 N.am      1 UNL1        0.0000
     25 O1          6.5622    2.1883   19.2198 O.2       1 UNL1        0.0000
     26 O2          8.8279    0.9338   20.3008 O.2       1 UNL1        0.0000
     27 F1         11.0290    5.4612   24.2925 F         1 UNL1        0.0000
@<TRIPOS>BOND
     1    1    2 ar
     2    1    9 ar
     3    2   11 ar
     4    3    6 ar
     5    3    7 ar
     6    4    6 ar
     7    4    8 ar
     8    5    7 ar
     9    5    8 ar
    10    6   16 1
    11    7   18 1
    12    8   22 1
    13    9   10 ar
    14    9   27 1
    15   10   18 1
    16   10   21 ar
    17   11   21 ar
    18   11   23 1
    19   12   13 2
    20   13   14 1
    21   14   24 am
    22   14   25 2
    23   15   19 1
    24   15   24 am
    25   15   26 2
    26   17   20 1
    27   19   22 1
    28   20   23 1
@<TRIPOS>MOLECULE
DAV-CRI-eab-3
   17    18     0     0     0
SMALL
NO_CHARGES

@<TRIPOS>ATOM
      1 C1          8.7697   -1.4113   24.3071 C.2       1 UNL1        0.0000
      2 C2         11.0271   -0.6415   24.7818 C.2       1 UNL1        0.0000
      3 C3          9.7172   -0.6317   25.0680 C.2       1 UNL1        0.0000
      4 C4          9.1196   -2.0389   23.1708 C.2       1 UNL1        0.0000
      5 C5          6.1251   -2.2168   21.0662 C.2       1 UNL1        0.0000
      6 C6         12.5690   -0.6542   22.7774 C.3       1 UNL1        0.0000
      7 C7         11.6843    0.0152   21.7518 C.3       1 UNL1        0.0000
      8 C8         11.5954   -1.4533   23.6438 C.3       1 UNL1        0.0000
      9 C9         10.5315   -1.9630   22.6392 C.3       1 UNL1        0.0000
     10 C10         7.5148   -3.9326   23.2159 C.3       1 UNL1        0.0000
     11 C11         5.2231   -1.0530   20.7434 C.3       1 UNL1        0.0000
     12 C12         8.1370   -2.8425   22.3710 C.3       1 UNL1        0.0000
     13 N1          7.1710   -1.8844   21.9198 N.am      1 UNL1        0.0000
     14 N2         10.6575   -1.0276   21.4482 N.4       1 UNL1        0.0000
     15 O1          5.9186   -3.3422   20.6154 O.2       1 UNL1        0.0000
     16 Cl1         9.1193    0.2881   26.4017 Cl        1 UNL1        0.0000
     17 Cl2         6.1978    0.4239   20.8019 Cl        1 UNL1        0.0000
@<TRIPOS>BOND
     1    1    3 1
     2    1    4 2
     3    2    3 2
     4    2    8 1
     5    3   16 1
     6    4    9 1
     7    4   12 1
     8    5   11 1
     9    5   13 am
    10    5   15 2
    11    6    7 1
    12    6    8 1
    13    7   14 1
    14    8    9 1
    15    9   14 1
    16   10   12 1
    17   11   17 1
    18   12   13 1
@<TRIPOS>MOLECULE
DAV-CRI-eab-6
   17    18     0     0     0
SMALL
NO_CHARGES

@<TRIPOS>ATOM
      1 C1          8.7296    0.1220   23.8192 C.2       1 UNL1        0.0000
      2 C2         10.8672    0.9049   24.6758 C.2       1 UNL1        0.0000
      3 C3         12.2093   -1.4909   22.3707 C.2       1 UNL1        0.0000
      4 C4          9.5620    1.1165   24.4545 C.2       1 UNL1        0.0000
      5 C5          9.1764   -1.1180   23.5493 C.2       1 UNL1        0.0000
      6 C6          6.4809   -2.0404   21.2414 C.2       1 UNL1        0.0000
      7 C7         12.4223   -0.1944   23.0658 C.3       1 UNL1        0.0000
      8 C8         11.5441   -0.3801   24.2909 C.3       1 UNL1        0.0000
      9 C9         10.5904   -1.5345   23.9037 C.3       1 UNL1        0.0000
     10 C10         7.5123   -2.9045   24.0119 C.3       1 UNL1        0.0000
     11 C11         5.6708   -1.0678   20.4228 C.3       1 UNL1        0.0000
     12 C12         8.2799   -2.1586   22.9419 C.3       1 UNL1        0.0000
     13 N1         11.2381   -2.2396   22.7729 N.2       1 UNL1        0.0000
     14 N2          7.4160   -1.4237   22.0648 N.am      1 UNL1        0.0000
     15 O1          6.2962   -3.2545   21.1762 O.2       1 UNL1        0.0000
     16 Cl1         8.8323    2.6184   24.8950 Cl        1 UNL1        0.0000
     17 Cl2         5.5378    0.4393   21.3426 Cl        1 UNL1        0.0000
@<TRIPOS>BOND
     1    1    4 1
     2    1    5 2
     3    2    4 2
     4    2    8 1
     5    3    7 1
     6    3   13 2
     7    4   16 1
     8    5    9 1
     9    5   12 1
    10    6   11 1
    11    6   14 am
    12    6   15 2
    13    7    8 1
    14    8    9 1
    15    9   13 1
    16   10   12 1
    17   11   17 1
    18   12   14 1
@<TRIPOS>MOLECULE
TAM-UNI-d1c-5
   25    27     0     0     0
SMALL
NO_CHARGES

@<TRIPOS>ATOM
      1 C1         11.5857   -1.8453   22.6079 C.ar      1 UNL1        0.0000
      2 C2         10.5579   -2.7265   22.9430 C.ar      1 UNL1        0.0000
      3 C3          9.8926   -1.2654   24.7456 C.ar      1 UNL1        0.0000
      4 C4         11.7822   -0.6693   23.3450 C.ar      1 UNL1        0.0000
      5 C5         10.9164   -0.3679   24.4123 C.ar      1 UNL1        0.0000
      6 C6          9.7139   -2.4381   24.0124 C.ar      1 UNL1        0.0000
      7 C7          5.8421   -2.4073   19.6773 C.2       1 UNL1        0.0000
      8 C8         12.8782    0.2865   22.9443 C.3       1 UNL1        0.0000
      9 C9         11.1048    0.8820   25.2348 C.3       1 UNL1        0.0000
     10 C10        13.2457    1.2560   24.0634 C.3       1 UNL1        0.0000
     11 C11         6.4415   -4.1553   21.3224 C.3       1 UNL1        0.0000
     12 C12         5.8496   -1.9195   22.1733 C.3       1 UNL1        0.0000
     13 C13         7.6900   -4.1783   22.1920 C.3       1 UNL1        0.0000
     14 C14         7.0890   -1.9097   23.0578 C.3       1 UNL1        0.0000
     15 C15        10.2862    3.8664   24.9651 C.3       1 UNL1        0.0000
     16 C16         8.6106   -3.3882   24.3746 C.3       1 UNL1        0.0000
     17 C17         6.1314   -0.9687   19.3300 C.3       1 UNL1        0.0000
     18 N1          6.0478   -2.7827   21.0041 N.am      1 UNL1        0.0000
     19 N2         12.0186    1.8880   24.6181 N.pl3     1 UNL1        0.0000
     20 N3          7.4492   -3.3325   23.4225 N.4       1 UNL1        0.0000
     21 O1          5.4478   -3.1731   18.7941 O.2       1 UNL1        0.0000
     22 O2         10.4231    2.5455   22.7149 O.2       1 UNL1        0.0000
     23 O3         12.3186    4.0957   23.3389 O.2       1 UNL1        0.0000
     24 S1         11.2980    3.1375   23.7030 S.o2      1 UNL1        0.0000
     25 Cl1         7.8206   -0.6830   19.7338 Cl        1 UNL1        0.0000
@<TRIPOS>BOND
     1    1    2 ar
     2    1    4 ar
     3    2    6 ar
     4    3    5 ar
     5    3    6 ar
     6    4    5 ar
     7    4    8 1
     8    5    9 1
     9    6   16 1
    10    7   17 1
    11    7   18 am
    12    7   21 2
    13    8   10 1
    14    9   19 1
    15   10   19 1
    16   11   13 1
    17   11   18 1
    18   12   14 1
    19   12   18 1
    20   13   20 1
    21   14   20 1
    22   15   24 1
    23   16   20 1
    24   17   25 1
    25   19   24 1
    26   22   24 2
    27   23   24 2
@<TRIPOS>MOLECULE
DAV-CRI-eab-8
   17    18     0     0     0
SMALL
NO_CHARGES

@<TRIPOS>ATOM
      1 C1         10.9228   -1.9203   22.1076 C.2       1 UNL1        0.0000
      2 C2         11.9667   -0.4215   23.7091 C.2       1 UNL1        0.0000
      3 C3         12.0817   -1.2605   22.6684 C.2       1 UNL1        0.0000
      4 C4          9.7446   -1.9601   22.7608 C.2       1 UNL1        0.0000
      5 C5          6.3723   -1.9954   21.3240 C.2       1 UNL1        0.0000
      6 C6         10.0166    1.1196   23.7394 C.3       1 UNL1        0.0000
      7 C7          8.2525   -0.7390   24.5217 C.3       1 UNL1        0.0000
      8 C8         10.6265   -0.1501   24.3438 C.3       1 UNL1        0.0000
      9 C9          9.6195   -1.3121   24.1367 C.3       1 UNL1        0.0000
     10 C10         8.0785   -3.7539   23.1860 C.3       1 UNL1        0.0000
     11 C11         5.4875   -0.7862   21.1592 C.3       1 UNL1        0.0000
     12 C12         8.5750   -2.7152   22.2026 C.3       1 UNL1        0.0000
     13 N1          7.5893   -1.7093   21.9316 N.am      1 UNL1        0.0000
     14 O1          6.0154   -3.1147   20.9607 O.2       1 UNL1        0.0000
     15 S1          8.2232    0.9693   23.9288 S.3       1 UNL1        0.0000
     16 Cl1        13.6120   -1.5299   21.9192 Cl        1 UNL1        0.0000
     17 Cl2         6.5319    0.6308   20.9689 Cl        1 UNL1        0.0000
@<TRIPOS>BOND
     1    1    3 1
     2    1    4 2
     3    2    3 2
     4    2    8 1
     5    3   16 1
     6    4    9 1
     7    4   12 1
     8    5   11 1
     9    5   13 am
    10    5   14 2
    11    6    8 1
    12    6   15 1
    13    7    9 1
    14    7   15 1
    15    8    9 1
    16   10   12 1
    17   11   17 1
    18   12   13 1
@<TRIPOS>MOLECULE
TIM-UNK-6bd-1
   20    22     0     0     0
SMALL
NO_CHARGES

@<TRIPOS>ATOM
      1 C1          5.4621    1.6060   19.0792 C.2       1 UNL1        0.0000
      2 C2          5.9212    0.2659   19.1001 C.2       1 UNL1        0.0000
      3 C3          5.3241    2.0139   20.3876 C.2       1 UNL1        0.0000
      4 C4          6.0496   -0.1044   20.4206 C.2       1 UNL1        0.0000
      5 C5          6.4915   -1.3966   20.9686 C.2       1 UNL1        0.0000
      6 C6         11.2584    1.0133   22.9495 C.2       1 UNL1        0.0000
      7 C7          9.1723   -0.7308   25.4891 C.3       1 UNL1        0.0000
      8 C8          8.5897   -1.9298   24.7481 C.3       1 UNL1        0.0000
      9 C9         10.5448   -0.3274   24.9773 C.3       1 UNL1        0.0000
     10 C10         8.1409   -2.6302   22.3560 C.3       1 UNL1        0.0000
     11 C11         8.4724   -0.2549   22.1072 C.3       1 UNL1        0.0000
     12 C12         9.2005   -2.1678   23.3586 C.3       1 UNL1        0.0000
     13 C13         9.7376   -0.8959   22.6842 C.3       1 UNL1        0.0000
     14 C14        12.5823    1.3463   23.5902 C.3       1 UNL1        0.0000
     15 N1          5.6837    0.9659   21.1943 N.pl3     1 UNL1        0.0000
     16 N2          7.6184   -1.3977   21.7760 N.am      1 UNL1        0.0000
     17 N3         10.5104   -0.0062   23.5467 N.am      1 UNL1        0.0000
     18 O1          5.8372   -2.3923   20.6659 O.2       1 UNL1        0.0000
     19 O2         10.8953    1.6390   21.9498 O.2       1 UNL1        0.0000
     20 Cl1        13.5379   -0.1312   23.5662 Cl        1 UNL1        0.0000
@<TRIPOS>BOND
     1    1    2 1
     2    1    3 2
     3    2    4 2
     4    3   15 1
     5    4    5 1
     6    4   15 1
     7    5   16 am
     8    5   18 2
     9    6   14 1
    10    6   17 am
    11    6   19 2
    12    7    8 1
    13    7    9 1
    14    8   12 1
    15    9   17 1
    16   10   12 1
    17   10   16 1
    18   11   13 1
    19   11   16 1
    20   12   13 1
    21   13   17 1
    22   14   20 1
@<TRIPOS>MOLECULE
DAR-DIA-fb2-4
   22    23     0     0     0
SMALL
NO_CHARGES

@<TRIPOS>ATOM
      1 C1          7.7602   -2.3323   22.9111 C.1       1 UNL1        0.0000
      2 C2          9.5916   -1.0050   23.8602 C.ar      1 UNL1        0.0000
      3 C3         10.1062   -2.8238   22.4168 C.ar      1 UNL1        0.0000
      4 C4          9.1512   -2.0550   23.0623 C.ar      1 UNL1        0.0000
      5 C5         10.9544   -0.7592   23.9864 C.ar      1 UNL1        0.0000
      6 C6         11.8286   -1.5861   23.2996 C.ar      1 UNL1        0.0000
      7 C7         12.5642    5.5764   23.3159 C.2       1 UNL1        0.0000
      8 C8         11.9355    3.3338   22.4814 C.3       1 UNL1        0.0000
      9 C9         10.8579    4.1451   24.5438 C.3       1 UNL1        0.0000
     10 C10        12.2593    2.0051   23.1487 C.3       1 UNL1        0.0000
     11 C11        11.1640    2.8270   25.2421 C.3       1 UNL1        0.0000
     12 C12        14.3528   -1.7178   21.3361 C.3       1 UNL1        0.0000
     13 C13        11.4262    0.3753   24.8472 C.3       1 UNL1        0.0000
     14 C14        11.9583    6.8380   23.8772 C.3       1 UNL1        0.0000
     15 C15        14.2037   -2.1293   22.7612 C.3       1 UNL1        0.0000
     16 N1          6.6285   -2.5577   22.7880 N.1       1 UNL1        0.0000
     17 N2         11.4383   -2.6157   22.5152 N.ar      1 UNL1        0.0000
     18 N3         11.8235    4.4056   23.4708 N.am      1 UNL1        0.0000
     19 N4         13.2188   -1.3391   23.4247 N.pl3     1 UNL1        0.0000
     20 N5         11.2214    1.7216   24.2115 N.4       1 UNL1        0.0000
     21 O1         13.6638    5.6316   22.7593 O.2       1 UNL1        0.0000
     22 Cl1        12.4917    6.9517   25.5507 Cl        1 UNL1        0.0000
@<TRIPOS>BOND
     1    1    4 1
     2    1   16 3
     3    2    4 ar
     4    2    5 ar
     5    3    4 ar
     6    3   17 ar
     7    5    6 ar
     8    5   13 1
     9    6   17 ar
    10    6   19 1
    11    7   14 1
    12    7   18 am
    13    7   21 2
    14    8   10 1
    15    8   18 1
    16    9   11 1
    17    9   18 1
    18   10   20 1
    19   11   20 1
    20   12   15 1
    21   13   20 1
    22   14   22 1
    23   15   19 1
@<TRIPOS>MOLECULE
SEA-TRI-fac-1
   30    33     0     0     0
SMALL
NO_CHARGES

@<TRIPOS>ATOM
      1 C1          9.8586   -4.8655   25.6487 C.ar      1 UNL1        0.0000
      2 C2         11.3819    0.4394   24.4613 C.ar      1 UNL1        0.0000
      3 C3         10.1360   -3.9514   24.6317 C.ar      1 UNL1        0.0000
      4 C4         10.3687   -0.4732   24.1677 C.ar      1 UNL1        0.0000
      5 C5          8.5412   -5.1947   25.9487 C.ar      1 UNL1        0.0000
      6 C6         12.5425    0.4657   23.6880 C.ar      1 UNL1        0.0000
      7 C7         11.6768   -1.3335   22.3276 C.ar      1 UNL1        0.0000
      8 C8         10.5162   -1.3597   23.1010 C.ar      1 UNL1        0.0000
      9 C9          9.0976   -3.3388   23.9081 C.ar      1 UNL1        0.0000
     10 C10         7.7659   -3.7114   24.1870 C.ar      1 UNL1        0.0000
     11 C11         7.4999   -4.6226   25.2210 C.ar      1 UNL1        0.0000
     12 C12        12.6900   -0.4208   22.6212 C.ar      1 UNL1        0.0000
     13 C13         6.3551   -2.7779   20.9768 C.2       1 UNL1        0.0000
     14 C14         6.6059   -3.1335   23.4144 C.3       1 UNL1        0.0000
     15 C15         8.1607   -1.5876   22.3092 C.3       1 UNL1        0.0000
     16 C16         2.2091   -5.1010   26.3361 C.3       1 UNL1        0.0000
     17 C17         3.5070   -7.1770   26.7680 C.3       1 UNL1        0.0000
     18 C18         1.3432   -5.9159   25.3904 C.3       1 UNL1        0.0000
     19 C19         2.5737   -7.8849   25.8004 C.3       1 UNL1        0.0000
     20 C20         9.4101   -2.3567   22.7818 C.3       1 UNL1        0.0000
     21 C21         6.8630   -2.0837   19.7384 C.3       1 UNL1        0.0000
     22 C22         4.5309   -4.9484   27.2471 C.3       1 UNL1        0.0000
     23 C23         5.9575   -5.3185   26.8920 C.3       1 UNL1        0.0000
     24 N1          7.0284   -2.5025   22.1657 N.am      1 UNL1        0.0000
     25 N2          3.5860   -5.7212   26.3724 N.4       1 UNL1        0.0000
     26 O1          5.3913   -3.5427   20.8883 O.2       1 UNL1        0.0000
     27 O2          1.2809   -7.2778   25.8163 O.3       1 UNL1        0.0000
     28 O3          6.2178   -4.9683   25.5353 O.3       1 UNL1        0.0000
     29 Cl1        14.1226   -0.3887   21.6681 Cl        1 UNL1        0.0000
     30 Cl2         5.9604   -0.5794   19.5993 Cl        1 UNL1        0.0000
@<TRIPOS>BOND
     1    1    3 ar
     2    1    5 ar
     3    2    4 ar
     4    2    6 ar
     5    3    9 ar
     6    4    8 ar
     7    5   11 ar
     8    6   12 ar
     9    7    8 ar
    10    7   12 ar
    11    8   20 1
    12    9   10 ar
    13    9   20 1
    14   10   11 ar
    15   10   14 1
    16   11   28 1
    17   12   29 1
    18   13   21 1
    19   13   24 am
    20   13   26 2
    21   14   24 1
    22   15   20 1
    23   15   24 1
    24   16   18 1
    25   16   25 1
    26   17   19 1
    27   17   25 1
    28   18   27 1
    29   19   27 1
    30   21   30 1
    31   22   23 1
    32   22   25 1
    33   23   28 1
@<TRIPOS>MOLECULE
MAK-UNK-af8-28
   31    34     0     0     0
SMALL
NO_CHARGES

@<TRIPOS>ATOM
      1 C1          9.0582   -1.3627   25.8032 C.ar      1 UNL1        0.0000
      2 C2          7.8268   -1.9852   25.6316 C.ar      1 UNL1        0.0000
      3 C3         13.9260   -1.1147   21.8484 C.ar      1 UNL1        0.0000
      4 C4          9.0499   -0.8236   23.4867 C.ar      1 UNL1        0.0000
      5 C5         14.2864    1.3314   21.8935 C.2       1 UNL1        0.0000
      6 C6         13.6705    0.1755   22.2941 C.ar      1 UNL1        0.0000
      7 C7         12.6921    0.5140   23.2738 C.ar      1 UNL1        0.0000
      8 C8          9.6881   -0.7684   24.7153 C.ar      1 UNL1        0.0000
      9 C9         12.7265    1.8710   23.4556 C.2       1 UNL1        0.0000
     10 C10         7.2719   -1.9858   24.3620 C.ar      1 UNL1        0.0000
     11 C11        11.8657   -0.4019   23.9116 C.ar      1 UNL1        0.0000
     12 C12         7.7135    6.1313   23.0695 C.2       1 UNL1        0.0000
     13 C13        10.1285    6.0635   23.6029 C.3       1 UNL1        0.0000
     14 C14         9.2182    4.3075   22.1328 C.3       1 UNL1        0.0000
     15 C15        10.8299    5.0156   24.4547 C.3       1 UNL1        0.0000
     16 C16         9.9080    3.2325   22.9620 C.3       1 UNL1        0.0000
     17 C17         6.1400   -4.3693   22.5504 C.3       1 UNL1        0.0000
     18 C18        14.0748    3.7519   22.4734 C.3       1 UNL1        0.0000
     19 C19        11.9336    2.7782   24.3497 C.3       1 UNL1        0.0000
     20 C20         6.7568    5.9808   21.9138 C.3       1 UNL1        0.0000
     21 C21         5.5315   -3.0640   22.9358 C.3       1 UNL1        0.0000
     22 N1          7.8538   -1.4191   23.2813 N.ar      1 UNL1        0.0000
     23 N2         13.1208   -2.0292   22.4661 N.ar      1 UNL1        0.0000
     24 N3         12.1040   -1.6774   23.4844 N.ar      1 UNL1        0.0000
     25 N4         13.7027    2.3597   22.6085 N.pl3     1 UNL1        0.0000
     26 N5          8.9506    5.5013   22.9420 N.am      1 UNL1        0.0000
     27 N6          6.0167   -2.6241   24.2032 N.pl3     1 UNL1        0.0000
     28 N7         11.1527    3.8155   23.5929 N.4       1 UNL1        0.0000
     29 O1          7.3689    6.7872   24.0560 O.2       1 UNL1        0.0000
     30 O2         10.9129   -0.1428   24.8555 O.3       1 UNL1        0.0000
     31 Cl1         5.8259    4.5183   22.2176 Cl        1 UNL1        0.0000
@<TRIPOS>BOND
     1    1    2 ar
     2    1    8 ar
     3    2   10 ar
     4    3    6 ar
     5    3   23 ar
     6    4    8 ar
     7    4   22 ar
     8    5    6 2
     9    5   25 1
    10    6    7 ar
    11    7    9 2
    12    7   11 ar
    13    8   30 1
    14    9   19 1
    15    9   25 1
    16   10   22 ar
    17   10   27 1
    18   11   24 ar
    19   11   30 1
    20   12   20 1
    21   12   26 am
    22   12   29 2
    23   13   15 1
    24   13   26 1
    25   14   16 1
    26   14   26 1
    27   15   28 1
    28   16   28 1
    29   17   21 1
    30   18   25 1
    31   19   28 1
    32   20   31 1
    33   21   27 1
    34   23   24 ar
@<TRIPOS>MOLECULE
DAN-PUR-678-1
   34    34     0     0     0
SMALL
NO_CHARGES

@<TRIPOS>ATOM
      1 C1          8.6340   -4.9734   25.5523 C.cat     1 UNL1        0.0000
      2 C2          7.2956   -3.5169   22.0867 C.2       1 UNL1        0.0000
      3 C3          6.0876   -6.6508   22.3400 C.3       1 UNL1        0.0000
      4 C4          4.8750   -7.3478   22.9457 C.3       1 UNL1        0.0000
      5 C5          5.2202   -4.8106   23.6903 C.3       1 UNL1        0.0000
      6 C6          6.5001   -5.5705   23.3439 C.3       1 UNL1        0.0000
      7 C7          9.4333   -4.5265   24.3858 C.3       1 UNL1        0.0000
      8 C8          8.3621   -2.4526   22.2506 C.3       1 UNL1        0.0000
      9 C9          8.9005   -5.1093   23.0827 C.3       1 UNL1        0.0000
     10 N1          7.6303   -4.2031   25.9458 N.pl3     1 UNL1        0.0000
     11 N2          7.5175   -4.7016   22.8208 N.am      1 UNL1        0.0000
     12 N3          8.9756   -6.1161   26.1299 N.pl3     1 UNL1        0.0000
     13 O1          6.3155   -3.3372   21.3596 O.2       1 UNL1        0.0000
     14 O2          3.6984   -6.4272   25.1157 O.2       1 UNL1        0.0000
     15 O3          2.8650   -5.6428   22.8513 O.2       1 UNL1        0.0000
     16 S1          3.9350   -6.0513   23.7374 S.o2      1 UNL1        0.0000
     17 Cl1         7.9888   -1.3925   23.6242 Cl        1 UNL1        0.0000
     18 H           6.0876   -6.6508   22.3400 H         1 UNL1        0.0000
     19 H           6.0876   -6.6508   22.3400 H         1 UNL1        0.0000
     20 H           4.8750   -7.3478   22.9457 H         1 UNL1        0.0000
     21 H           4.8750   -7.3478   22.9457 H         1 UNL1        0.0000
     22 H           5.2202   -4.8106   23.6903 H         1 UNL1        0.0000
     23 H           5.2202   -4.8106   23.6903 H         1 UNL1        0.0000
     24 H           6.5001   -5.5705   23.3439 H         1 UNL1        0.0000
     25 H           9.4333   -4.5265   24.3858 H         1 UNL1        0.0000
     26 H           9.4333   -4.5265   24.3858 H         1 UNL1        0.0000
     27 H           8.3621   -2.4526   22.2506 H         1 UNL1        0.0000
     28 H           8.3621   -2.4526   22.2506 H         1 UNL1        0.0000
     29 H           8.9005   -5.1093   23.0827 H         1 UNL1        0.0000
     30 H           8.9005   -5.1093   23.0827 H         1 UNL1        0.0000
     31 H           7.6303   -4.2031   25.9458 H         1 UNL1        0.0000
     32 H           7.6303   -4.2031   25.9458 H         1 UNL1        0.0000
     33 H           8.9756   -6.1161   26.1299 H         1 UNL1        0.0000
     34 H           8.9756   -6.1161   26.1299 H         1 UNL1        0.0000
@<TRIPOS>BOND
     1    1    7 1
     2    1   10 1
     3    1   12 2
     4    2    8 1
     5    2   11 am
     6    2   13 2
     7    3    4 1
     8    3    6 1
     9    4   16 1
    10    5    6 1
    11    5   16 1
    12    6   11 1
    13    7    9 1
    14    8   17 1
    15    9   11 1
    16   14   16 2
    17   15   16 2
    18    3   18 1
    19    3   19 1
    20    4   20 1
    21    4   21 1
    22    5   22 1
    23    5   23 1
    24    6   24 1
    25    7   25 1
    26    7   26 1
    27    8   27 1
    28    8   28 1
    29    9   29 1
    30    9   30 1
    31   10   31 1
    32   10   32 1
    33   12   33 1
    34   12   34 1
@<TRIPOS>MOLECULE
MAK-UNK-af8-31
   26    27     0     0     0
SMALL
NO_CHARGES

@<TRIPOS>ATOM
      1 C1         10.9419    0.1943   22.2480 C.ar      1 UNL1        0.0000
      2 C2         10.1822   -0.5633   23.1324 C.ar      1 UNL1        0.0000
      3 C3         12.1939    1.0058   24.1002 C.ar      1 UNL1        0.0000
      4 C4         11.9688    0.9965   22.7331 C.ar      1 UNL1        0.0000
      5 C5         10.4874   -0.4843   24.4817 C.ar      1 UNL1        0.0000
      6 C6          5.7153    4.8285   21.9894 C.2       1 UNL1        0.0000
      7 C7         13.0516    4.1160   22.7424 C.2       1 UNL1        0.0000
      8 C8          7.8429    6.0908   22.0238 C.3       1 UNL1        0.0000
      9 C9          7.9534    3.6325   22.1567 C.3       1 UNL1        0.0000
     10 C10         8.7914    6.2180   23.2069 C.3       1 UNL1        0.0000
     11 C11         8.9058    3.7227   23.3415 C.3       1 UNL1        0.0000
     12 C12         7.9876   -2.7971   26.0709 C.3       1 UNL1        0.0000
     13 C13        12.8064    1.8266   21.8039 C.3       1 UNL1        0.0000
     14 C14         5.0340    3.4848   22.0518 C.3       1 UNL1        0.0000
     15 C15        12.4875    5.5175   22.5890 C.3       1 UNL1        0.0000
     16 C16        11.8469    6.0335   23.8752 C.3       1 UNL1        0.0000
     17 C17         8.6403   -2.1023   24.9246 C.3       1 UNL1        0.0000
     18 C18        10.7262    5.1137   24.3349 C.3       1 UNL1        0.0000
     19 N1         11.4771    0.2835   24.9902 N.ar      1 UNL1        0.0000
     20 N2          7.1069    4.8274   22.0735 N.am      1 UNL1        0.0000
     21 N3          9.7044   -1.2629   25.3699 N.pl3     1 UNL1        0.0000
     22 N4         12.4532    3.2261   21.8624 N.am      1 UNL1        0.0000
     23 N5          9.6975    5.0077   23.2444 N.4       1 UNL1        0.0000
     24 O1          5.0295    5.8474   21.8721 O.2       1 UNL1        0.0000
     25 O2         13.9278    3.8281   23.5533 O.2       1 UNL1        0.0000
     26 Cl1         4.8752    2.9230   20.3914 Cl        1 UNL1        0.0000
@<TRIPOS>BOND
     1    1    2 ar
     2    1    4 ar
     3    2    5 ar
     4    3    4 ar
     5    3   19 ar
     6    4   13 1
     7    5   19 ar
     8    5   21 1
     9    6   14 1
    10    6   20 am
    11    6   24 2
    12    7   15 1
    13    7   22 am
    14    7   25 2
    15    8   10 1
    16    8   20 1
    17    9   11 1
    18    9   20 1
    19   10   23 1
    20   11   23 1
    21   12   17 1
    22   13   22 1
    23   14   26 1
    24   15   16 1
    25   16   18 1
    26   17   21 1
    27   18   23 1
@<TRIPOS>MOLECULE
DUN-NEW-f8c-23
   26    28     0     0     0
SMALL
NO_CHARGES

@<TRIPOS>ATOM
      1 C1          5.6492   -5.6608   26.0866 C.ar      1 UNL1        0.0000
      2 C2          6.9319   -5.9956   25.6529 C.ar      1 UNL1        0.0000
      3 C3          5.4303   -4.4539   26.7509 C.ar      1 UNL1        0.0000
      4 C4         13.3738   -0.4682   24.0120 C.ar      1 UNL1        0.0000
      5 C5          7.9959   -5.1236   25.8837 C.ar      1 UNL1        0.0000
      6 C6          6.4943   -3.5819   26.9816 C.ar      1 UNL1        0.0000
      7 C7         12.9810   -1.5020   23.1581 C.ar      1 UNL1        0.0000
      8 C8         12.4512    0.1637   24.8385 C.ar      1 UNL1        0.0000
      9 C9          7.7771   -3.9167   26.5480 C.ar      1 UNL1        0.0000
     10 C10        10.6847   -1.2661   23.9780 C.ar      1 UNL1        0.0000
     11 C11        11.6304   -1.8864   23.1559 C.ar      1 UNL1        0.0000
     12 C12        11.1083   -0.2242   24.8313 C.ar      1 UNL1        0.0000
     13 C13         9.3645   -2.7221   22.9759 C.2       1 UNL1        0.0000
     14 C14         6.9603   -3.3376   23.0362 C.2       1 UNL1        0.0000
     15 C15         8.9277   -2.9730   26.7982 C.3       1 UNL1        0.0000
     16 C16         6.0259   -4.3368   22.3943 C.3       1 UNL1        0.0000
     17 C17         8.4992   -1.5081   26.8350 C.3       1 UNL1        0.0000
     18 N1          9.3917   -1.7554   23.8634 N.2       1 UNL1        0.0000
     19 N2          8.2825   -3.4606   22.5760 N.am      1 UNL1        0.0000
     20 N3          9.6303   -0.5949   27.0526 N.pl3     1 UNL1        0.0000
     21 O1          6.5375   -2.5487   23.8770 O.2       1 UNL1        0.0000
     22 O2         10.7009    1.6943   26.5527 O.2       1 UNL1        0.0000
     23 O3          8.7885    0.8956   25.1283 O.2       1 UNL1        0.0000
     24 S1         10.8516   -3.1115   22.2256 S.3       1 UNL1        0.0000
     25 S2          9.9909    0.6077   25.8950 S.o2      1 UNL1        0.0000
     26 Cl1         6.9670   -5.7866   22.0097 Cl        1 UNL1        0.0000
@<TRIPOS>BOND
     1    1    2 ar
     2    1    3 ar
     3    2    5 ar
     4    3    6 ar
     5    4    7 ar
     6    4    8 ar
     7    5    9 ar
     8    6    9 ar
     9    7   11 ar
    10    8   12 ar
    11    9   15 1
    12   10   11 ar
    13   10   12 ar
    14   10   18 1
    15   11   24 1
    16   12   25 1
    17   13   18 2
    18   13   19 1
    19   13   24 1
    20   14   16 1
    21   14   19 am
    22   14   21 2
    23   15   17 1
    24   16   26 1
    25   17   20 1
    26   20   25 1
    27   22   25 2
    28   23   25 2
@<TRIPOS>MOLECULE
SEA-TRI-822-1
   24    26     0     0     0
SMALL
NO_CHARGES

@<TRIPOS>ATOM
      1 C1         11.2410    0.9422   25.0314 C.ar      1 UNL1        0.0000
      2 C2         10.3308   -0.0080   24.5687 C.ar      1 UNL1        0.0000
      3 C3         12.4229    1.1762   24.3284 C.ar      1 UNL1        0.0000
      4 C4         10.3134   -3.7435   24.4454 C.2       1 UNL1        0.0000
      5 C5          9.7182   -4.6652   25.3544 C.2       1 UNL1        0.0000
      6 C6         11.7844   -0.4905   22.7002 C.ar      1 UNL1        0.0000
      7 C7         10.6025   -0.7245   23.4031 C.ar      1 UNL1        0.0000
      8 C8         12.6946    0.4598   23.1629 C.ar      1 UNL1        0.0000
      9 C9          9.3868   -2.8812   23.9019 C.2       1 UNL1        0.0000
     10 C10         8.3591   -4.4721   25.4713 C.2       1 UNL1        0.0000
     11 C11         5.7360   -0.0130   19.3474 C.2       1 UNL1        0.0000
     12 C12         6.1857   -1.5730   21.2143 C.3       1 UNL1        0.0000
     13 C13         7.1255    0.7009   21.3543 C.3       1 UNL1        0.0000
     14 C14         7.5358   -2.1754   21.5745 C.3       1 UNL1        0.0000
     15 C15         8.4903    0.1323   21.7187 C.3       1 UNL1        0.0000
     16 C16         5.3367    1.4152   19.0747 C.3       1 UNL1        0.0000
     17 C17         9.6109   -1.7607   22.9002 C.3       1 UNL1        0.0000
     18 N1          6.3464   -0.2671   20.5747 N.am      1 UNL1        0.0000
     19 N2          8.3032   -1.1903   22.4278 N.4       1 UNL1        0.0000
     20 O1          5.5137   -0.8748   18.4931 O.2       1 UNL1        0.0000
     21 S1          7.8063   -3.1842   24.4874 S.3       1 UNL1        0.0000
     22 Cl1        14.1535    0.7481   22.2967 Cl        1 UNL1        0.0000
     23 Cl2         7.2537   -5.3467   26.4459 Cl        1 UNL1        0.0000
     24 Cl3         3.5994    1.4075   18.7926 Cl        1 UNL1        0.0000
@<TRIPOS>BOND
     1    1    2 ar
     2    1    3 ar
     3    2    7 ar
     4    3    8 ar
     5    4    5 1
     6    4    9 2
     7    5   10 2
     8    6    7 ar
     9    6    8 ar
    10    7   17 1
    11    8   22 1
    12    9   17 1
    13    9   21 1
    14   10   21 1
    15   10   23 1
    16   11   16 1
    17   11   18 am
    18   11   20 2
    19   12   14 1
    20   12   18 1
    21   13   15 1
    22   13   18 1
    23   14   19 1
    24   15   19 1
    25   16   24 1
    26   17   19 1
@<TRIPOS>MOLECULE
DAV-CRI-eab-5
   17    18     0     0     0
SMALL
NO_CHARGES

@<TRIPOS>ATOM
      1 C1          8.7067   -0.7151   24.8384 C.2       1 UNL1        0.0000
      2 C2         11.1204   -0.7672   24.5495 C.2       1 UNL1        0.0000
      3 C3         10.0419   -0.2814   25.1826 C.2       1 UNL1        0.0000
      4 C4          8.4636   -1.4319   23.7260 C.2       1 UNL1        0.0000
      5 C5          6.1572   -2.0204   21.0466 C.2       1 UNL1        0.0000
      6 C6         11.9141   -1.5085   22.2635 C.3       1 UNL1        0.0000
      7 C7          9.6703   -0.8698   21.5909 C.3       1 UNL1        0.0000
      8 C8         10.9925   -1.7826   23.4412 C.3       1 UNL1        0.0000
      9 C9          9.5903   -1.8197   22.7915 C.3       1 UNL1        0.0000
     10 C10         6.0546   -1.3297   24.3137 C.3       1 UNL1        0.0000
     11 C11         6.0844   -1.2816   19.7348 C.3       1 UNL1        0.0000
     12 C12         7.0812   -1.8673   23.3411 C.3       1 UNL1        0.0000
     13 N1          6.8983   -1.3532   22.0156 N.am      1 UNL1        0.0000
     14 N2         11.1273   -0.5807   21.3997 N.4       1 UNL1        0.0000
     15 O1          5.5910   -3.0989   21.2161 O.2       1 UNL1        0.0000
     16 Cl1        10.2177    0.8455   26.4781 Cl        1 UNL1        0.0000
     17 Cl2         6.1794    0.4523   20.0804 Cl        1 UNL1        0.0000
@<TRIPOS>BOND
     1    1    3 1
     2    1    4 2
     3    2    3 2
     4    2    8 1
     5    3   16 1
     6    4    9 1
     7    4   12 1
     8    5   11 1
     9    5   13 am
    10    5   15 2
    11    6    8 1
    12    6   14 1
    13    7    9 1
    14    7   14 1
    15    8    9 1
    16   10   12 1
    17   11   17 1
    18   12   13 1
@<TRIPOS>MOLECULE
KAT-FAI-789-1
   26    28     0     0     0
SMALL
NO_CHARGES

@<TRIPOS>ATOM
      1 C1         11.0461    0.9657   24.8099 C.ar      1 UNL1        0.0000
      2 C2         12.3862    0.9204   24.4257 C.ar      1 UNL1        0.0000
      3 C3          6.7022   -2.7541   25.5264 C.ar      1 UNL1        0.0000
      4 C4          7.5120   -2.4878   24.4225 C.ar      1 UNL1        0.0000
      5 C5          6.9860   -3.8407   26.3537 C.ar      1 UNL1        0.0000
      6 C6         10.1150    0.1304   24.1926 C.ar      1 UNL1        0.0000
      7 C7         12.7952    0.0399   23.4242 C.ar      1 UNL1        0.0000
      8 C8          8.8894   -4.3949   24.9729 C.ar      1 UNL1        0.0000
      9 C9          8.6056   -3.3082   24.1457 C.ar      1 UNL1        0.0000
     10 C10         8.0796   -4.6611   26.0769 C.ar      1 UNL1        0.0000
     11 C11        10.5240   -0.7501   23.1911 C.ar      1 UNL1        0.0000
     12 C12        11.8641   -0.7954   22.8069 C.ar      1 UNL1        0.0000
     13 C13         6.8190   -4.2945   20.7508 C.2       1 UNL1        0.0000
     14 C14         8.8499   -1.1121   21.3925 C.3       1 UNL1        0.0000
     15 C15         7.5906   -1.9236   21.0949 C.3       1 UNL1        0.0000
     16 C16         9.0478   -3.8356   21.7139 C.3       1 UNL1        0.0000
     17 C17         9.4922   -3.0152   22.9382 C.3       1 UNL1        0.0000
     18 C18         8.3825   -5.8234   26.9612 C.3       1 UNL1        0.0000
     19 C19         6.8072   -5.6152   21.4819 C.3       1 UNL1        0.0000
     20 N1          9.5683   -1.5809   22.5868 N.pl3     1 UNL1        0.0000
     21 N2          7.7776   -3.3696   21.1695 N.am      1 UNL1        0.0000
     22 N3         12.3086   -1.6843   21.7881 N.pl3     1 UNL1        0.0000
     23 O1         12.6888   -2.8337   22.1119 O.3       1 UNL1        0.0000
     24 O2          6.0067   -4.0922   19.8454 O.2       1 UNL1        0.0000
     25 O3         12.3066   -1.2901   20.5984 O.2       1 UNL1        0.0000
     26 S1          5.1342   -6.2804   21.4851 S.3       1 UNL1        0.0000
@<TRIPOS>BOND
     1    1    2 ar
     2    1    6 ar
     3    2    7 ar
     4    3    4 ar
     5    3    5 ar
     6    4    9 ar
     7    5   10 ar
     8    6   11 ar
     9    7   12 ar
    10    8    9 ar
    11    8   10 ar
    12    9   17 1
    13   10   18 1
    14   11   12 ar
    15   11   20 1
    16   12   22 1
    17   13   19 1
    18   13   21 am
    19   13   24 2
    20   14   15 1
    21   14   20 1
    22   15   21 1
    23   16   17 1
    24   16   21 1
    25   17   20 1
    26   19   26 1
    27   22   23 1
    28   22   25 2
@<TRIPOS>MOLECULE
DAR-DIA-cab-11
   32    35     0     0     0
SMALL
NO_CHARGES

@<TRIPOS>ATOM
      1 C1          8.0016   -3.4474   25.3298 C.ar      1 UNL1        0.0000
      2 C2          7.8314   -2.2618   26.0368 C.ar      1 UNL1        0.0000
      3 C3         11.4197    2.7193   24.8736 C.ar      1 UNL1        0.0000
      4 C4          8.9081   -3.5013   24.2731 C.ar      1 UNL1        0.0000
      5 C5          8.5552   -1.1243   25.6778 C.ar      1 UNL1        0.0000
      6 C6         11.9935    3.9520   25.1860 C.ar      1 UNL1        0.0000
      7 C7          9.8538    5.0269   24.8798 C.ar      1 UNL1        0.0000
      8 C8          7.8940    3.6987   24.2492 C.ar      1 UNL1        0.0000
      9 C9          8.1016    1.3144   23.9336 C.ar      1 UNL1        0.0000
     10 C10        10.0542    2.6235   24.5598 C.ar      1 UNL1        0.0000
     11 C11         9.2595    3.7946   24.5630 C.ar      1 UNL1        0.0000
     12 C12         9.6518   -2.3675   23.9101 C.ar      1 UNL1        0.0000
     13 C13         9.4505   -1.1501   24.5938 C.ar      1 UNL1        0.0000
     14 C14         9.4599    1.3911   24.2429 C.ar      1 UNL1        0.0000
     15 C15        11.2121    5.1036   25.1891 C.ar      1 UNL1        0.0000
     16 C16         7.3202    2.4660   23.9367 C.ar      1 UNL1        0.0000
     17 C17        12.9437   -1.6034   22.5893 C.2       1 UNL1        0.0000
     18 C18        13.1021    5.5301   22.5768 C.2       1 UNL1        0.0000
     19 C19        10.6354   -2.4804   22.7714 C.3       1 UNL1        0.0000
     20 C20        10.9538   -0.0471   22.8544 C.3       1 UNL1        0.0000
     21 C21        10.2554    0.0926   24.2215 C.3       1 UNL1        0.0000
     22 C22        14.3019    4.8554   21.9993 C.3       1 UNL1        0.0000
     23 C23         5.4725    1.0995   23.3249 C.3       1 UNL1        0.0000
     24 C24        11.8273    6.4205   25.5233 C.3       1 UNL1        0.0000
     25 C25        13.8762   -0.6080   23.2323 C.3       1 UNL1        0.0000
     26 C26        12.3779    7.1674   24.3022 C.3       1 UNL1        0.0000
     27 N1         11.5787   -1.3646   22.7386 N.am      1 UNL1        0.0000
     28 N2         13.3854    6.4115   23.6077 N.am      1 UNL1        0.0000
     29 O1         13.4153   -2.5640   21.9756 O.2       1 UNL1        0.0000
     30 O2         11.9911    5.2775   22.1254 O.2       1 UNL1        0.0000
     31 O3          5.9950    2.3904   23.6349 O.3       1 UNL1        0.0000
     32 Cl1        14.2202    0.6169   22.0164 Cl        1 UNL1        0.0000
@<TRIPOS>BOND
     1    1    2 ar
     2    1    4 ar
     3    2    5 ar
     4    3    6 ar
     5    3   10 ar
     6    4   12 ar
     7    5   13 ar
     8    6   15 ar
     9    7   11 ar
    10    7   15 ar
    11    8   11 ar
    12    8   16 ar
    13    9   14 ar
    14    9   16 ar
    15   10   11 ar
    16   10   14 ar
    17   12   13 ar
    18   12   19 1
    19   13   21 1
    20   14   21 1
    21   15   24 1
    22   16   31 1
    23   17   25 1
    24   17   27 am
    25   17   29 2
    26   18   22 1
    27   18   28 am
    28   18   30 2
    29   19   27 1
    30   20   21 1
    31   20   27 1
    32   23   31 1
    33   24   26 1
    34   25   32 1
    35   26   28 1
@<TRIPOS>MOLECULE
STU-CHA-83d-2
   25    27     0     0     0
SMALL
NO_CHARGES

@<TRIPOS>ATOM
      1 C1         14.2434    3.0454   22.1518 C.ar      1 UNL1        0.0000
      2 C2         13.6433    4.2756   22.4195 C.ar      1 UNL1        0.0000
      3 C3         11.8354    3.1464   23.5517 C.ar      1 UNL1        0.0000
      4 C4         13.6493    1.8535   22.5902 C.ar      1 UNL1        0.0000
      5 C5         12.4255    1.9044   23.2801 C.ar      1 UNL1        0.0000
      6 C6         12.4415    4.3262   23.1209 C.ar      1 UNL1        0.0000
      7 C7          6.2952   -3.7766   21.7613 C.2       1 UNL1        0.0000
      8 C8          5.6697   -3.4566   22.8961 C.2       1 UNL1        0.0000
      9 C9          6.4464   -3.4144   24.1512 C.2       1 UNL1        0.0000
     10 C10        14.2963    0.5329   22.2583 C.3       1 UNL1        0.0000
     11 C11        11.7676    0.6470   23.7793 C.3       1 UNL1        0.0000
     12 C12         9.7912   -2.6383   25.1811 C.3       1 UNL1        0.0000
     13 C13         9.4266   -1.7344   22.8650 C.3       1 UNL1        0.0000
     14 C14         8.3022   -2.4557   25.4585 C.3       1 UNL1        0.0000
     15 C15         7.9369   -1.5837   23.1755 C.3       1 UNL1        0.0000
     16 C16        13.8234   -0.6107   23.1490 C.3       1 UNL1        0.0000
     17 C17        10.2830   -1.6302   24.1340 C.3       1 UNL1        0.0000
     18 C18        11.7590   -1.8542   23.8143 C.3       1 UNL1        0.0000
     19 N1          7.5155   -2.5243   24.2242 N.am      1 UNL1        0.0000
     20 N2         12.4003    6.2472   24.9683 N.pl3     1 UNL1        0.0000
     21 N3         12.3158   -0.6223   23.1595 N.4       1 UNL1        0.0000
     22 O1          6.0981   -4.1684   25.0614 O.2       1 UNL1        0.0000
     23 O2         12.1527    6.8292   22.4692 O.2       1 UNL1        0.0000
     24 O3         10.2652    5.6543   23.6543 O.2       1 UNL1        0.0000
     25 S1         11.6928    5.8666   23.4603 S.o2      1 UNL1        0.0000
@<TRIPOS>BOND
     1    1    2 ar
     2    1    4 ar
     3    2    6 ar
     4    3    5 ar
     5    3    6 ar
     6    4    5 ar
     7    4   10 1
     8    5   11 1
     9    6   25 1
    10    7    8 2
    11    8    9 1
    12    9   19 am
    13    9   22 2
    14   10   16 1
    15   11   21 1
    16   12   14 1
    17   12   17 1
    18   13   15 1
    19   13   17 1
    20   14   19 1
    21   15   19 1
    22   16   21 1
    23   17   18 1
    24   18   21 1
    25   20   25 1
    26   23   25 2
    27   24   25 2
@<TRIPOS>MOLECULE
NIM-UNI-594-1
   28    30     0     0     0
SMALL
NO_CHARGES

@<TRIPOS>ATOM
      1 C1          9.9763    6.5349   24.3258 C.ar      1 UNL1        0.0000
      2 C2         10.5431    5.5930   23.4744 C.ar      1 UNL1        0.0000
      3 C3         10.8268    7.2811   25.1256 C.ar      1 UNL1        0.0000
      4 C4         12.6868    6.2241   24.2883 C.ar      1 UNL1        0.0000
      5 C5         13.0271    1.0588   22.4146 C.2       1 UNL1        0.0000
      6 C6         11.9235    5.4283   23.4493 C.ar      1 UNL1        0.0000
      7 C7         13.5848   -0.1085   22.8723 C.2       1 UNL1        0.0000
      8 C8         13.8870    4.2004   22.4598 C.2       1 UNL1        0.0000
      9 C9         11.0176   -1.3423   21.8617 C.2       1 UNL1        0.0000
     10 C10         9.6884   -2.4839   24.4427 C.3       1 UNL1        0.0000
     11 C11         8.7323   -2.2035   25.5960 C.3       1 UNL1        0.0000
     12 C12         9.7209   -0.0430   24.3853 C.3       1 UNL1        0.0000
     13 C13        10.6252   -1.2749   24.3661 C.3       1 UNL1        0.0000
     14 C14        12.9073   -1.3159   23.4529 C.3       1 UNL1        0.0000
     15 C15        14.1026    3.1076   21.4292 C.3       1 UNL1        0.0000
     16 C16        11.9405   -2.0590   20.8964 C.3       1 UNL1        0.0000
     17 N1         12.1722    7.1495   25.1289 N.ar      1 UNL1        0.0000
     18 N2         14.9436   -0.0555   22.7291 N.2       1 UNL1        0.0000
     19 N3         15.2520    1.1200   22.1922 N.2       1 UNL1        0.0000
     20 N4         14.1015    1.7866   22.0046 N.pl3     1 UNL1        0.0000
     21 N5         12.5294    4.4778   22.5938 N.am      1 UNL1        0.0000
     22 N6         11.4638   -1.3093   23.2002 N.am      1 UNL1        0.0000
     23 O1         14.8175    4.7275   23.0606 O.2       1 UNL1        0.0000
     24 O2          9.9602   -0.8336   21.4812 O.2       1 UNL1        0.0000
     25 O3          8.6779    0.1381   26.8020 O.2       1 UNL1        0.0000
     26 O4          7.1319   -0.2527   24.8284 O.2       1 UNL1        0.0000
     27 S1          8.3939   -0.4515   25.5102 S.o2      1 UNL1        0.0000
     28 Cl1        12.1336   -3.7624   21.3563 Cl        1 UNL1        0.0000
@<TRIPOS>BOND
     1    1    2 ar
     2    1    3 ar
     3    2    6 ar
     4    3   17 ar
     5    4    6 ar
     6    4   17 ar
     7    5    7 2
     8    5   20 1
     9    6   21 1
    10    7   14 1
    11    7   18 1
    12    8   15 1
    13    8   21 am
    14    8   23 2
    15    9   16 1
    16    9   22 am
    17    9   24 2
    18   10   11 1
    19   10   13 1
    20   11   27 1
    21   12   13 1
    22   12   27 1
    23   13   22 1
    24   14   22 1
    25   15   20 1
    26   16   28 1
    27   18   19 2
    28   19   20 1
    29   25   27 2
    30   26   27 2
@<TRIPOS>MOLECULE
NIM-UNI-bb6-2
   28    30     0     0     0
SMALL
NO_CHARGES

@<TRIPOS>ATOM
      1 C1          9.9763    6.5349   24.3258 C.ar      1 UNL1        0.0000
      2 C2         10.5431    5.5930   23.4744 C.ar      1 UNL1        0.0000
      3 C3         10.8268    7.2811   25.1256 C.ar      1 UNL1        0.0000
      4 C4         12.6868    6.2241   24.2883 C.ar      1 UNL1        0.0000
      5 C5         13.0271    1.0588   22.4146 C.2       1 UNL1        0.0000
      6 C6         11.9235    5.4283   23.4493 C.ar      1 UNL1        0.0000
      7 C7         13.5848   -0.1085   22.8723 C.2       1 UNL1        0.0000
      8 C8         13.8870    4.2004   22.4598 C.2       1 UNL1        0.0000
      9 C9         11.0176   -1.3423   21.8617 C.2       1 UNL1        0.0000
     10 C10         9.6884   -2.4839   24.4427 C.3       1 UNL1        0.0000
     11 C11         8.7323   -2.2035   25.5960 C.3       1 UNL1        0.0000
     12 C12         9.7209   -0.0430   24.3853 C.3       1 UNL1        0.0000
     13 C13        10.6252   -1.2749   24.3661 C.3       1 UNL1        0.0000
     14 C14        12.9073   -1.3159   23.4529 C.3       1 UNL1        0.0000
     15 C15        14.1026    3.1076   21.4292 C.3       1 UNL1        0.0000
     16 C16        11.9405   -2.0590   20.8964 C.3       1 UNL1        0.0000
     17 N1         12.1722    7.1495   25.1289 N.ar      1 UNL1        0.0000
     18 N2         14.9436   -0.0555   22.7291 N.2       1 UNL1        0.0000
     19 N3         15.2520    1.1200   22.1922 N.2       1 UNL1        0.0000
     20 N4         14.1015    1.7866   22.0046 N.pl3     1 UNL1        0.0000
     21 N5         12.5294    4.4778   22.5938 N.am      1 UNL1        0.0000
     22 N6         11.4638   -1.3093   23.2002 N.am      1 UNL1        0.0000
     23 O1         14.8175    4.7275   23.0606 O.2       1 UNL1        0.0000
     24 O2          9.9602   -0.8336   21.4812 O.2       1 UNL1        0.0000
     25 O3          8.6779    0.1381   26.8020 O.2       1 UNL1        0.0000
     26 O4          7.1319   -0.2527   24.8284 O.2       1 UNL1        0.0000
     27 S1          8.3939   -0.4515   25.5102 S.o2      1 UNL1        0.0000
     28 Cl1        12.1336   -3.7624   21.3563 Cl        1 UNL1        0.0000
@<TRIPOS>BOND
     1    1    2 ar
     2    1    3 ar
     3    2    6 ar
     4    3   17 ar
     5    4    6 ar
     6    4   17 ar
     7    5    7 2
     8    5   20 1
     9    6   21 1
    10    7   14 1
    11    7   18 1
    12    8   15 1
    13    8   21 am
    14    8   23 2
    15    9   16 1
    16    9   22 am
    17    9   24 2
    18   10   11 1
    19   10   13 1
    20   11   27 1
    21   12   13 1
    22   12   27 1
    23   13   22 1
    24   14   22 1
    25   15   20 1
    26   16   28 1
    27   18   19 2
    28   19   20 1
    29   25   27 2
    30   26   27 2
@<TRIPOS>MOLECULE
TAM-UNI-d1c-20
   27    29     0     0     0
SMALL
NO_CHARGES

@<TRIPOS>ATOM
      1 C1         12.8624    0.1473   23.1418 C.ar      1 UNL1        0.0000
      2 C2         12.7850    1.4758   23.5755 C.ar      1 UNL1        0.0000
      3 C3         11.7670   -0.7060   23.2590 C.ar      1 UNL1        0.0000
      4 C4          9.8503    3.0578   25.0738 C.2       1 UNL1        0.0000
      5 C5         11.5811    1.9469   24.1359 C.ar      1 UNL1        0.0000
      6 C6         10.5626   -0.2611   23.8115 C.ar      1 UNL1        0.0000
      7 C7         11.1567    3.1976   24.6656 C.2       1 UNL1        0.0000
      8 C8         10.4998    1.0693   24.2407 C.ar      1 UNL1        0.0000
      9 C9          6.1733   -2.4620   20.1754 C.2       1 UNL1        0.0000
     10 C10        10.0072    6.4540   23.5273 C.2       1 UNL1        0.0000
     11 C11         8.0924   -1.1615   21.0366 C.3       1 UNL1        0.0000
     12 C12         6.9977   -2.7648   22.5613 C.3       1 UNL1        0.0000
     13 C13         9.4625   -1.6949   21.4286 C.3       1 UNL1        0.0000
     14 C14         8.3541   -3.3187   22.9766 C.3       1 UNL1        0.0000
     15 C15         8.7592    6.7566   22.7662 C.3       1 UNL1        0.0000
     16 C16         8.1428    1.2581   25.1129 C.3       1 UNL1        0.0000
     17 C17        11.9646    4.4300   24.7640 C.3       1 UNL1        0.0000
     18 C18         9.4182   -1.2262   23.9114 C.3       1 UNL1        0.0000
     19 C19         5.8508   -1.3283   19.2348 C.3       1 UNL1        0.0000
     20 C20        12.1375    5.1754   23.4281 C.3       1 UNL1        0.0000
     21 N1          9.4630    1.7707   24.8138 N.pl3     1 UNL1        0.0000
     22 N2          7.0554   -2.1779   21.2179 N.am      1 UNL1        0.0000
     23 N3         10.8781    5.5960   22.8750 N.am      1 UNL1        0.0000
     24 N4          9.4293   -2.2680   22.8264 N.4       1 UNL1        0.0000
     25 O1          5.6538   -3.5654   19.9892 O.2       1 UNL1        0.0000
     26 O2         10.1799    6.9593   24.6302 O.2       1 UNL1        0.0000
     27 Cl1         6.3954   -1.8285   17.6376 Cl        1 UNL1        0.0000
@<TRIPOS>BOND
     1    1    2 ar
     2    1    3 ar
     3    2    5 ar
     4    3    6 ar
     5    4    7 2
     6    4   21 1
     7    5    7 1
     8    5    8 ar
     9    6    8 ar
    10    6   18 1
    11    7   17 1
    12    8   21 1
    13    9   19 1
    14    9   22 am
    15    9   25 2
    16   10   15 1
    17   10   23 am
    18   10   26 2
    19   11   13 1
    20   11   22 1
    21   12   14 1
    22   12   22 1
    23   13   24 1
    24   14   24 1
    25   16   21 1
    26   17   20 1
    27   18   24 1
    28   19   27 1
    29   20   23 1
@<TRIPOS>MOLECULE
ANT-OPE-b90-1
   28    31     0     0     0
SMALL
NO_CHARGES

@<TRIPOS>ATOM
      1 C1         10.3786   -2.0245   22.6608 C.ar      1 UNL1        0.0000
      2 C2         11.7178   -1.6322   22.7801 C.ar      1 UNL1        0.0000
      3 C3          7.4539   -5.8705   26.8918 C.ar      1 UNL1        0.0000
      4 C4          9.7805   -0.8504   24.7100 C.ar      1 UNL1        0.0000
      5 C5          8.3620   -4.3949   25.1903 C.ar      1 UNL1        0.0000
      6 C6          4.6990   -3.6781   27.8740 C.2       1 UNL1        0.0000
      7 C7         13.1089    0.3381   25.3395 C.2       1 UNL1        0.0000
      8 C8          6.4450   -4.9245   27.1616 C.ar      1 UNL1        0.0000
      9 C9          9.4287   -1.6394   23.6097 C.ar      1 UNL1        0.0000
     10 C10         5.3491   -4.8751   28.0679 C.2       1 UNL1        0.0000
     11 C11        12.0888   -0.8393   23.8792 C.ar      1 UNL1        0.0000
     12 C12        11.1197   -0.4715   24.8084 C.ar      1 UNL1        0.0000
     13 C13         6.4268   -3.7344   26.4311 C.ar      1 UNL1        0.0000
     14 C14         7.3707   -3.4417   25.4404 C.ar      1 UNL1        0.0000
     15 C15         8.4049   -5.5913   25.9035 C.ar      1 UNL1        0.0000
     16 C16         3.7826   -7.4990   23.7703 C.2       1 UNL1        0.0000
     17 C17         4.0067   -7.8544   25.0391 C.2       1 UNL1        0.0000
     18 C18         3.6792   -6.9225   26.1510 C.2       1 UNL1        0.0000
     19 C19         4.9688   -5.9153   29.0449 C.3       1 UNL1        0.0000
     20 C20         8.0025   -2.0796   23.4476 C.3       1 UNL1        0.0000
     21 C21         3.7506   -6.7570   28.6234 C.3       1 UNL1        0.0000
     22 N1         13.3181   -0.3274   24.2258 N.2       1 UNL1        0.0000
     23 N2          5.3562   -2.9971   26.8846 N.pl3     1 UNL1        0.0000
     24 N3         11.8002    0.2809   25.7310 N.pl3     1 UNL1        0.0000
     25 N4          7.3445   -2.2401   24.7096 N.pl3     1 UNL1        0.0000
     26 N5          3.9803   -7.4648   27.3925 N.am      1 UNL1        0.0000
     27 O1          3.1967   -5.8108   25.9602 O.2       1 UNL1        0.0000
     28 F1          9.3674   -6.4860   25.6411 F         1 UNL1        0.0000
@<TRIPOS>BOND
     1    1    2 ar
     2    1    9 ar
     3    2   11 ar
     4    3    8 ar
     5    3   15 ar
     6    4    9 ar
     7    4   12 ar
     8    5   14 ar
     9    5   15 ar
    10    6   10 2
    11    6   23 1
    12    7   22 2
    13    7   24 1
    14    8   10 1
    15    8   13 ar
    16    9   20 1
    17   10   19 1
    18   11   12 ar
    19   11   22 1
    20   12   24 1
    21   13   14 ar
    22   13   23 1
    23   14   25 1
    24   15   28 1
    25   16   17 2
    26   17   18 1
    27   18   26 am
    28   18   27 2
    29   19   21 1
    30   20   25 1
    31   21   26 1
@<TRIPOS>MOLECULE
MAK-UNK-af8-24
   30    32     0     0     0
SMALL
NO_CHARGES

@<TRIPOS>ATOM
      1 C1          5.4504    1.2579   20.3981 C.1       1 UNL1        0.0000
      2 C2          6.5557    3.2058   21.3956 C.ar      1 UNL1        0.0000
      3 C3          7.3752    3.7469   22.3799 C.ar      1 UNL1        0.0000
      4 C4          6.8603    1.0673   22.3909 C.ar      1 UNL1        0.0000
      5 C5          6.2883    1.8413   21.3941 C.ar      1 UNL1        0.0000
      6 C6          7.8983    2.8876   23.3327 C.ar      1 UNL1        0.0000
      7 C7          5.8735   -5.2221   25.3327 C.2       1 UNL1        0.0000
      8 C8         12.4424   -1.9841   22.6374 C.3       1 UNL1        0.0000
      9 C9         12.8921    0.2828   23.6614 C.3       1 UNL1        0.0000
     10 C10        10.5469   -0.6610   23.6603 C.3       1 UNL1        0.0000
     11 C11         7.7332   -3.6013   25.5213 C.3       1 UNL1        0.0000
     12 C12         6.4359   -3.6354   23.4264 C.3       1 UNL1        0.0000
     13 C13         9.0375   -3.6374   24.7384 C.3       1 UNL1        0.0000
     14 C14         7.7216   -3.6702   22.6112 C.3       1 UNL1        0.0000
     15 C15        13.4611   -1.1160   23.3882 C.3       1 UNL1        0.0000
     16 C16        11.1054   -2.0640   23.3865 C.3       1 UNL1        0.0000
     17 C17        11.5571    0.2138   24.4152 C.3       1 UNL1        0.0000
     18 C18        14.7692   -1.0215   22.6045 C.3       1 UNL1        0.0000
     19 C19         6.2254   -5.6209   26.7437 C.3       1 UNL1        0.0000
     20 C20        10.0971   -2.9008   22.6006 C.3       1 UNL1        0.0000
     21 C21        10.9929    1.6159   24.6402 C.3       1 UNL1        0.0000
     22 C22         8.9886    2.7988   25.5707 C.3       1 UNL1        0.0000
     23 N1          4.7688    0.7833   19.5876 N.1       1 UNL1        0.0000
     24 N2          7.6612    1.5570   23.3636 N.ar      1 UNL1        0.0000
     25 N3          6.6449   -4.2128   24.7585 N.am      1 UNL1        0.0000
     26 N4          8.7144    3.4421   24.3075 N.pl3     1 UNL1        0.0000
     27 N5          8.8217   -2.9853   23.3909 N.4       1 UNL1        0.0000
     28 N6          9.6924    1.4973   25.3297 N.4       1 UNL1        0.0000
     29 O1          4.9394   -5.7899   24.7608 O.2       1 UNL1        0.0000
     30 Cl1         5.0793   -6.8710   27.2145 Cl        1 UNL1        0.0000
@<TRIPOS>BOND
     1    1    5 1
     2    1   23 3
     3    2    3 ar
     4    2    5 ar
     5    3    6 ar
     6    4    5 ar
     7    4   24 ar
     8    6   24 ar
     9    6   26 1
    10    7   19 1
    11    7   25 am
    12    7   29 2
    13    8   15 1
    14    8   16 1
    15    9   15 1
    16    9   17 1
    17   10   16 1
    18   10   17 1
    19   11   13 1
    20   11   25 1
    21   12   14 1
    22   12   25 1
    23   13   27 1
    24   14   27 1
    25   15   18 1
    26   16   20 1
    27   17   21 1
    28   19   30 1
    29   20   27 1
    30   21   28 1
    31   22   26 1
    32   22   28 1
@<TRIPOS>MOLECULE
BEN-VAN-d2b-12
   31    33     0     0     0
SMALL
NO_CHARGES

@<TRIPOS>ATOM
      1 C1          6.6046    0.1569   23.8211 C.1       1 UNL1        0.0000
      2 C2          7.7480   -2.6755   25.9639 C.ar      1 UNL1        0.0000
      3 C3          5.5210   -1.8801   24.6025 C.ar      1 UNL1        0.0000
      4 C4          8.3751    1.6172   25.6264 C.2       1 UNL1        0.0000
      5 C5          6.6404   -1.0646   24.5629 C.ar      1 UNL1        0.0000
      6 C6         10.4235    1.2002   24.6104 C.2       1 UNL1        0.0000
      7 C7          7.7710   -1.4770   25.2592 C.ar      1 UNL1        0.0000
      8 C8          9.2398    0.6441   25.1757 C.2       1 UNL1        0.0000
      9 C9          6.5789   -3.4188   25.9409 C.ar      1 UNL1        0.0000
     10 C10        10.4184    2.5773   24.6504 C.2       1 UNL1        0.0000
     11 C11         5.8086   -0.8382   20.1481 C.2       1 UNL1        0.0000
     12 C12         6.8845   -1.0682   20.9069 C.2       1 UNL1        0.0000
     13 C13         8.0601   -0.1585   20.8414 C.2       1 UNL1        0.0000
     14 C14        10.2938    0.0954   21.8546 C.2       1 UNL1        0.0000
     15 C15        13.5441    0.0477   22.7263 C.3       1 UNL1        0.0000
     16 C16        12.7568    1.1356   23.4441 C.3       1 UNL1        0.0000
     17 C17        12.5066   -0.9633   22.2346 C.3       1 UNL1        0.0000
     18 C18        11.5572    0.3821   24.0313 C.3       1 UNL1        0.0000
     19 C19        11.1731   -0.5669   22.8792 C.3       1 UNL1        0.0000
     20 C20         5.6993   -6.6971   27.5540 C.3       1 UNL1        0.0000
     21 C21        10.9933    4.3636   23.1895 C.3       1 UNL1        0.0000
     22 C22         5.4291   -5.4919   26.7192 C.3       1 UNL1        0.0000
     23 N1          6.5756    1.1484   23.2188 N.1       1 UNL1        0.0000
     24 N2          5.4609   -3.0508   25.2759 N.ar      1 UNL1        0.0000
     25 N3          8.9799   -0.6818   25.2666 N.pl3     1 UNL1        0.0000
     26 N4          6.5699   -4.6373   26.6645 N.pl3     1 UNL1        0.0000
     27 N5          9.0756   -0.5650   21.7036 N.am      1 UNL1        0.0000
     28 O1          8.0937    0.8220   20.1051 O.2       1 UNL1        0.0000
     29 O2         10.6425    1.1123   21.2608 O.2       1 UNL1        0.0000
     30 O3         11.3543    3.4153   24.2127 O.3       1 UNL1        0.0000
     31 S1          8.9909    3.1939   25.3675 S.3       1 UNL1        0.0000
@<TRIPOS>BOND
     1    1    5 1
     2    1   23 3
     3    2    7 ar
     4    2    9 ar
     5    3    5 ar
     6    3   24 ar
     7    4    8 2
     8    4   31 1
     9    5    7 ar
    10    6    8 1
    11    6   10 2
    12    6   18 1
    13    7   25 1
    14    8   25 1
    15    9   24 ar
    16    9   26 1
    17   10   30 1
    18   10   31 1
    19   11   12 2
    20   12   13 1
    21   13   27 am
    22   13   28 2
    23   14   19 1
    24   14   27 am
    25   14   29 2
    26   15   16 1
    27   15   17 1
    28   16   18 1
    29   17   19 1
    30   18   19 1
    31   20   22 1
    32   21   30 1
    33   22   26 1
@<TRIPOS>MOLECULE
DAR-DIA-fb2-5
   22    23     0     0     0
SMALL
NO_CHARGES

@<TRIPOS>ATOM
      1 C1         11.0063    6.4064   25.5752 C.ar      1 UNL1        0.0000
      2 C2          8.7261    6.9420   25.9881 C.ar      1 UNL1        0.0000
      3 C3         10.7169    6.3568   24.2161 C.ar      1 UNL1        0.0000
      4 C4          9.9975    6.7039   26.4847 C.ar      1 UNL1        0.0000
      5 C5          9.4132    6.6102   23.8211 C.ar      1 UNL1        0.0000
      6 C6         12.8922    0.6283   22.7198 C.2       1 UNL1        0.0000
      7 C7         11.0938    2.2842   23.1001 C.3       1 UNL1        0.0000
      8 C8         12.8286    2.8219   21.4345 C.3       1 UNL1        0.0000
      9 C9         11.2568    3.6540   23.7425 C.3       1 UNL1        0.0000
     10 C10        13.0166    4.2015   22.0510 C.3       1 UNL1        0.0000
     11 C11         7.4584    4.9433   21.7739 C.3       1 UNL1        0.0000
     12 C12        11.5915    6.5009   28.2379 C.3       1 UNL1        0.0000
     13 C13        11.8084    6.0365   23.2378 C.3       1 UNL1        0.0000
     14 C14        12.6668    0.0925   24.1111 C.3       1 UNL1        0.0000
     15 C15         7.7869    6.3878   21.9419 C.3       1 UNL1        0.0000
     16 N1          8.4068    6.9026   24.6750 N.ar      1 UNL1        0.0000
     17 N2         12.3253    1.8683   22.4289 N.am      1 UNL1        0.0000
     18 N3          9.1137    6.5596   22.4365 N.pl3     1 UNL1        0.0000
     19 N4         11.7185    4.6392   22.6920 N.4       1 UNL1        0.0000
     20 O1         13.5503   -0.0377   21.9164 O.2       1 UNL1        0.0000
     21 O2         10.2509    6.7597   27.8154 O.3       1 UNL1        0.0000
     22 Cl1        11.1644   -0.8231   24.0609 Cl        1 UNL1        0.0000
@<TRIPOS>BOND
     1    1    3 ar
     2    1    4 ar
     3    2    4 ar
     4    2   16 ar
     5    3    5 ar
     6    3   13 1
     7    4   21 1
     8    5   16 ar
     9    5   18 1
    10    6   14 1
    11    6   17 am
    12    6   20 2
    13    7    9 1
    14    7   17 1
    15    8   10 1
    16    8   17 1
    17    9   19 1
    18   10   19 1
    19   11   15 1
    20   12   21 1
    21   13   19 1
    22   14   22 1
    23   15   18 1
@<TRIPOS>MOLECULE
MAK-UNK-af8-26
   31    33     0     0     0
SMALL
NO_CHARGES

@<TRIPOS>ATOM
      1 C1          8.4824    6.0344   26.7893 C.1       1 UNL1        0.0000
      2 C2         10.0044    6.2382   24.8782 C.ar      1 UNL1        0.0000
      3 C3         10.7708    5.6380   23.8853 C.ar      1 UNL1        0.0000
      4 C4          9.3480    4.0720   25.6084 C.ar      1 UNL1        0.0000
      5 C5          9.2765    5.4474   25.7602 C.ar      1 UNL1        0.0000
      6 C6         10.7756    4.2541   23.8176 C.ar      1 UNL1        0.0000
      7 C7         12.3373    0.0818   23.6332 C.2       1 UNL1        0.0000
      8 C8          5.4083   -6.5967   27.1204 C.2       1 UNL1        0.0000
      9 C9          7.0669   -4.7654   27.2468 C.3       1 UNL1        0.0000
     10 C10         5.6513   -4.9078   25.2346 C.3       1 UNL1        0.0000
     11 C11        11.0815   -2.1133   23.8730 C.3       1 UNL1        0.0000
     12 C12        10.0278   -0.0521   24.5474 C.3       1 UNL1        0.0000
     13 C13         8.3131   -4.6227   26.3851 C.3       1 UNL1        0.0000
     14 C14         6.8768   -4.7653   24.3420 C.3       1 UNL1        0.0000
     15 C15         9.8181   -2.4333   24.6728 C.3       1 UNL1        0.0000
     16 C16         8.9795   -1.1582   24.5133 C.3       1 UNL1        0.0000
     17 C17         7.3082   -0.1339   23.2168 C.3       1 UNL1        0.0000
     18 C18        12.2205    1.5681   23.8574 C.3       1 UNL1        0.0000
     19 C19         3.9738   -6.8640   26.7400 C.3       1 UNL1        0.0000
     20 C20         9.1365   -3.7108   24.2113 C.3       1 UNL1        0.0000
     21 C21        11.6492    2.2436   22.6257 C.3       1 UNL1        0.0000
     22 N1          7.8362    6.5122   27.6266 N.1       1 UNL1        0.0000
     23 N2         10.0814    3.4528   24.6564 N.ar      1 UNL1        0.0000
     24 N3         11.2298   -0.6656   23.9926 N.am      1 UNL1        0.0000
     25 N4          6.0137   -5.4870   26.5326 N.am      1 UNL1        0.0000
     26 N5         11.5433    3.6710   22.8229 N.pl3     1 UNL1        0.0000
     27 N6          7.9340   -3.9698   25.0747 N.4       1 UNL1        0.0000
     28 O1         13.3660   -0.3974   23.1532 O.2       1 UNL1        0.0000
     29 O2          5.9726   -7.3540   27.9142 O.2       1 UNL1        0.0000
     30 O3          8.3093   -1.1413   23.2591 O.3       1 UNL1        0.0000
     31 Cl1         4.0146   -7.8870   25.3084 Cl        1 UNL1        0.0000
@<TRIPOS>BOND
     1    1    5 1
     2    1   22 3
     3    2    3 ar
     4    2    5 ar
     5    3    6 ar
     6    4    5 ar
     7    4   23 ar
     8    6   23 ar
     9    6   26 1
    10    7   18 1
    11    7   24 am
    12    7   28 2
    13    8   19 1
    14    8   25 am
    15    8   29 2
    16    9   13 1
    17    9   25 1
    18   10   14 1
    19   10   25 1
    20   11   15 1
    21   11   24 1
    22   12   16 1
    23   12   24 1
    24   13   27 1
    25   14   27 1
    26   15   16 1
    27   15   20 1
    28   16   30 1
    29   17   30 1
    30   18   21 1
    31   19   31 1
    32   20   27 1
    33   21   26 1
@<TRIPOS>MOLECULE
BEN-VAN-ed8-12
   28    29     0     0     0
SMALL
NO_CHARGES

@<TRIPOS>ATOM
      1 C1          5.2957    1.1465   18.6657 C.ar      1 UNL1        0.0000
      2 C2          4.8456    2.0223   19.6473 C.ar      1 UNL1        0.0000
      3 C3          7.5802   -1.7139   23.1229 C.ar      1 UNL1        0.0000
      4 C4          9.0004   -1.1302   21.2576 C.ar      1 UNL1        0.0000
      5 C5          9.9102   -1.1943   23.4949 C.ar      1 UNL1        0.0000
      6 C6          7.7503   -1.4979   21.7554 C.ar      1 UNL1        0.0000
      7 C7          8.6601   -1.5620   23.9927 C.ar      1 UNL1        0.0000
      8 C8         10.0803   -0.9784   22.1273 C.ar      1 UNL1        0.0000
      9 C9          5.8710   -0.0648   19.0333 C.ar      1 UNL1        0.0000
     10 C10         5.9722   -0.3509   20.3852 C.ar      1 UNL1        0.0000
     11 C11         4.9925    1.6426   20.9718 C.ar      1 UNL1        0.0000
     12 C12         9.2065    4.5868   22.9785 C.2       1 UNL1        0.0000
     13 C13         9.6795    3.3786   22.6579 C.2       1 UNL1        0.0000
     14 C14        10.9764    2.9063   23.2136 C.2       1 UNL1        0.0000
     15 C15        12.4516    0.9268   23.1167 C.2       1 UNL1        0.0000
     16 C16         8.7385   -3.2441   25.8503 C.3       1 UNL1        0.0000
     17 C17         4.0592    3.3933   24.1636 C.3       1 UNL1        0.0000
     18 C18         6.5956   -1.6601   20.8256 C.3       1 UNL1        0.0000
     19 C19         8.4781   -1.7929   25.4548 C.3       1 UNL1        0.0000
     20 C20        12.4931   -0.4330   22.4542 C.3       1 UNL1        0.0000
     21 C21         4.6253    2.2741   23.3576 C.3       1 UNL1        0.0000
     22 N1          5.5463    0.4745   21.3674 N.ar      1 UNL1        0.0000
     23 N2         11.3238   -0.6126   21.6322 N.pl3     1 UNL1        0.0000
     24 N3          4.5315    2.5471   21.9605 N.pl3     1 UNL1        0.0000
     25 N4         11.2953    1.6274   22.7629 N.am      1 UNL1        0.0000
     26 O1         11.6549    3.5894   23.9737 O.2       1 UNL1        0.0000
     27 O2         13.3322    1.3421   23.8653 O.2       1 UNL1        0.0000
     28 F1          6.3118   -0.9192   18.1018 F         1 UNL1        0.0000
@<TRIPOS>BOND
     1    1    2 ar
     2    1    9 ar
     3    2   11 ar
     4    3    6 ar
     5    3    7 ar
     6    4    6 ar
     7    4    8 ar
     8    5    7 ar
     9    5    8 ar
    10    6   18 1
    11    7   19 1
    12    8   23 1
    13    9   10 ar
    14    9   28 1
    15   10   18 1
    16   10   22 ar
    17   11   22 ar
    18   11   24 1
    19   12   13 2
    20   13   14 1
    21   14   25 am
    22   14   26 2
    23   15   20 1
    24   15   25 am
    25   15   27 2
    26   16   19 1
    27   17   21 1
    28   20   23 1
    29   21   24 1
@<TRIPOS>MOLECULE
DUN-NEW-f8c-25
   24    25     0     0     0
SMALL
NO_CHARGES

@<TRIPOS>ATOM
      1 C1         10.3219    2.7668   24.6481 C.ar      1 UNL1        0.0000
      2 C2         11.4886    2.5869   23.9051 C.ar      1 UNL1        0.0000
      3 C3          9.7143    1.6748   25.2678 C.ar      1 UNL1        0.0000
      4 C4         12.0477    1.3149   23.7818 C.ar      1 UNL1        0.0000
      5 C5         10.2733    0.4029   25.1445 C.ar      1 UNL1        0.0000
      6 C6         11.4401    0.2229   24.4014 C.ar      1 UNL1        0.0000
      7 C7          5.7281   -5.0485   26.5516 C.2       1 UNL1        0.0000
      8 C8          9.2676   -4.5092   25.8907 C.3       1 UNL1        0.0000
      9 C9          7.9043   -2.4637   25.3351 C.3       1 UNL1        0.0000
     10 C10         8.0512   -5.3782   25.5721 C.3       1 UNL1        0.0000
     11 C11         6.7158   -3.3717   25.0254 C.3       1 UNL1        0.0000
     12 C12         9.2554   -3.1692   25.1379 C.3       1 UNL1        0.0000
     13 C13         9.3656   -2.7140   20.5406 C.3       1 UNL1        0.0000
     14 C14        12.0442   -1.1535   24.2682 C.3       1 UNL1        0.0000
     15 C15         5.5137   -6.5370   26.6629 C.3       1 UNL1        0.0000
     16 C16         9.5923   -3.3473   23.6556 C.3       1 UNL1        0.0000
     17 C17        11.5126   -1.9229   23.0614 C.3       1 UNL1        0.0000
     18 N1          6.8054   -4.6282   25.7715 N.am      1 UNL1        0.0000
     19 N2         10.0163   -2.1044   23.1042 N.pl3     1 UNL1        0.0000
     20 O1          4.9613   -4.2839   27.1429 O.2       1 UNL1        0.0000
     21 O2          7.7448   -1.3705   22.0864 O.2       1 UNL1        0.0000
     22 O3          9.8268   -0.2401   21.2404 O.2       1 UNL1        0.0000
     23 S1          9.1543   -1.4217   21.7467 S.o2      1 UNL1        0.0000
     24 Cl1         5.6751   -6.9431   28.3679 Cl        1 UNL1        0.0000
@<TRIPOS>BOND
     1    1    2 ar
     2    1    3 ar
     3    2    4 ar
     4    3    5 ar
     5    4    6 ar
     6    5    6 ar
     7    6   14 1
     8    7   15 1
     9    7   18 am
    10    7   20 2
    11    8   10 1
    12    8   12 1
    13    9   11 1
    14    9   12 1
    15   10   18 1
    16   11   18 1
    17   12   16 1
    18   13   23 1
    19   14   17 1
    20   15   24 1
    21   16   19 1
    22   17   19 1
    23   19   23 1
    24   21   23 2
    25   22   23 2
@<TRIPOS>MOLECULE
STU-CHA-83d-1
   25    27     0     0     0
SMALL
NO_CHARGES

@<TRIPOS>ATOM
      1 C1         14.6081    2.9121   21.7742 C.ar      1 UNL1        0.0000
      2 C2         14.0623    4.1500   22.1134 C.ar      1 UNL1        0.0000
      3 C3         12.2560    3.0373   23.2642 C.ar      1 UNL1        0.0000
      4 C4         13.9873    1.7241   22.1852 C.ar      1 UNL1        0.0000
      5 C5         12.7912    1.7882   22.9210 C.ar      1 UNL1        0.0000
      6 C6         12.8885    4.2125   22.8599 C.ar      1 UNL1        0.0000
      7 C7          6.6867   -3.3854   23.7335 C.2       1 UNL1        0.0000
      8 C8         14.5744    0.3971   21.7764 C.3       1 UNL1        0.0000
      9 C9         12.1066    0.5344   23.3924 C.3       1 UNL1        0.0000
     10 C10        10.0640   -2.7384   24.7323 C.3       1 UNL1        0.0000
     11 C11         9.6515   -1.7171   22.4657 C.3       1 UNL1        0.0000
     12 C12         8.5885   -2.5298   25.0647 C.3       1 UNL1        0.0000
     13 C13         8.1829   -1.5311   22.8439 C.3       1 UNL1        0.0000
     14 C14        14.0925   -0.7659   22.6367 C.3       1 UNL1        0.0000
     15 C15        10.5545   -1.7032   23.7085 C.3       1 UNL1        0.0000
     16 C16         5.9016   -3.3168   22.4480 C.3       1 UNL1        0.0000
     17 C17        12.0093   -1.9643   23.3261 C.3       1 UNL1        0.0000
     18 N1          7.7747   -2.5207   23.8480 N.am      1 UNL1        0.0000
     19 N2         11.1809    6.0475   21.9534 N.pl3     1 UNL1        0.0000
     20 N3         12.5867   -0.7260   22.7020 N.4       1 UNL1        0.0000
     21 O1          6.3434   -4.1858   24.6073 O.2       1 UNL1        0.0000
     22 O2         11.3909    5.5908   24.4818 O.2       1 UNL1        0.0000
     23 O3         13.2741    6.7543   23.2786 O.2       1 UNL1        0.0000
     24 S1         12.2080    5.7622   23.2888 S.o2      1 UNL1        0.0000
     25 Cl1         6.6656   -4.4417   21.3304 Cl        1 UNL1        0.0000
@<TRIPOS>BOND
     1    1    2 ar
     2    1    4 ar
     3    2    6 ar
     4    3    5 ar
     5    3    6 ar
     6    4    5 ar
     7    4    8 1
     8    5    9 1
     9    6   24 1
    10    7   16 1
    11    7   18 am
    12    7   21 2
    13    8   14 1
    14    9   20 1
    15   10   12 1
    16   10   15 1
    17   11   13 1
    18   11   15 1
    19   12   18 1
    20   13   18 1
    21   14   20 1
    22   15   17 1
    23   16   25 1
    24   17   20 1
    25   19   24 1
    26   22   24 2
    27   23   24 2
@<TRIPOS>MOLECULE
MAK-UNK-af8-18
   38    41     0     0     0
SMALL
NO_CHARGES

@<TRIPOS>ATOM
      1 C1         13.6681   -0.5519   25.2924 C.ar      1 UNL1        0.0000
      2 C2         12.3468    5.0690   23.6587 C.ar      1 UNL1        0.0000
      3 C3         12.8756    0.5431   24.9480 C.ar      1 UNL1        0.0000
      4 C4         13.2403    5.1009   22.5881 C.ar      1 UNL1        0.0000
      5 C5         12.7633   -1.7932   23.4276 C.ar      1 UNL1        0.0000
      6 C6         12.8018    2.7654   22.1524 C.ar      1 UNL1        0.0000
      7 C7          8.7221    3.8534   23.8367 C.ar      1 UNL1        0.0000
      8 C8          7.4933    2.7319   25.9443 C.ar      1 UNL1        0.0000
      9 C9         13.6119   -1.7201   24.5321 C.ar      1 UNL1        0.0000
     10 C10        11.9708   -0.6982   23.0832 C.ar      1 UNL1        0.0000
     11 C11        11.6808    3.8851   23.9762 C.ar      1 UNL1        0.0000
     12 C12        13.4678    3.9492   21.8349 C.ar      1 UNL1        0.0000
     13 C13        12.0270    0.4699   23.8435 C.ar      1 UNL1        0.0000
     14 C14        11.9083    2.7334   23.2230 C.ar      1 UNL1        0.0000
     15 C15         9.3923    3.5565   25.0059 C.ar      1 UNL1        0.0000
     16 C16         7.3792    3.5362   23.8213 C.ar      1 UNL1        0.0000
     17 C17         6.2223   -3.3485   22.7445 C.2       1 UNL1        0.0000
     18 C18         7.9742   -1.8832   23.8631 C.3       1 UNL1        0.0000
     19 C19         7.3289   -1.5092   21.5141 C.3       1 UNL1        0.0000
     20 C20         9.4480   -1.8368   23.4830 C.3       1 UNL1        0.0000
     21 C21         8.7920   -1.4588   21.0989 C.3       1 UNL1        0.0000
     22 C22        14.4605   -2.8899   24.9000 C.3       1 UNL1        0.0000
     23 C23        11.2845    4.4691   26.3063 C.3       1 UNL1        0.0000
     24 C24        11.0647   -0.7938   21.8913 C.3       1 UNL1        0.0000
     25 C25         6.0588   -4.0850   24.0501 C.3       1 UNL1        0.0000
     26 N1          8.8070    2.9935   26.0832 N.ar      1 UNL1        0.0000
     27 N2          6.7301    2.9724   24.8611 N.ar      1 UNL1        0.0000
     28 N3          7.1533   -2.3109   22.7252 N.am      1 UNL1        0.0000
     29 N4          4.8526    3.2395   23.0257 N.pl3     1 UNL1        0.0000
     30 N5         10.7792    3.8676   25.0627 N.pl3     1 UNL1        0.0000
     31 N6          9.6179   -0.9591   22.2631 N.4       1 UNL1        0.0000
     32 O1          5.5440   -3.6881   21.7716 O.2       1 UNL1        0.0000
     33 O2          6.2413    5.2661   22.2447 O.2       1 UNL1        0.0000
     34 O3          6.7889    2.9767   21.3469 O.2       1 UNL1        0.0000
     35 O4         14.3392    3.9796   20.7896 O.3       1 UNL1        0.0000
     36 O5         11.2586    1.5485   23.5224 O.3       1 UNL1        0.0000
     37 S1          6.3536    3.8257   22.4514 S.o2      1 UNL1        0.0000
     38 Cl1         4.8105   -5.2984   23.7910 Cl        1 UNL1        0.0000
@<TRIPOS>BOND
     1    1    3 ar
     2    1    9 ar
     3    2    4 ar
     4    2   11 ar
     5    3   13 ar
     6    4   12 ar
     7    5    9 ar
     8    5   10 ar
     9    6   12 ar
    10    6   14 ar
    11    7   15 ar
    12    7   16 ar
    13    8   26 ar
    14    8   27 ar
    15    9   22 1
    16   10   13 ar
    17   10   24 1
    18   11   14 ar
    19   11   30 1
    20   12   35 1
    21   13   36 1
    22   14   36 1
    23   15   26 ar
    24   15   30 1
    25   16   27 ar
    26   16   37 1
    27   17   25 1
    28   17   28 am
    29   17   32 2
    30   18   20 1
    31   18   28 1
    32   19   21 1
    33   19   28 1
    34   20   31 1
    35   21   31 1
    36   23   30 1
    37   24   31 1
    38   25   38 1
    39   29   37 1
    40   33   37 2
    41   34   37 2
@<TRIPOS>MOLECULE
DAN-PUR-678-2
   17    17     0     0     0
SMALL
NO_CHARGES

@<TRIPOS>ATOM
      1 C1          8.7375   -5.1351   25.3936 C.2       1 UNL1        0.0000
      2 C2          7.5127   -3.8443   21.7909 C.2       1 UNL1        0.0000
      3 C3          6.2367   -6.9407   22.1498 C.3       1 UNL1        0.0000
      4 C4          4.9973   -7.5876   22.7569 C.3       1 UNL1        0.0000
      5 C5          5.3770   -5.0279   23.4004 C.3       1 UNL1        0.0000
      6 C6          6.6487   -5.8263   23.1160 C.3       1 UNL1        0.0000
      7 C7          9.5810   -4.7968   24.1777 C.3       1 UNL1        0.0000
      8 C8          8.5966   -2.7946   21.9337 C.3       1 UNL1        0.0000
      9 C9          9.0631   -5.4228   22.8902 C.3       1 UNL1        0.0000
     10 N1          9.1667   -6.2835   26.0245 N.am      1 UNL1        0.0000
     11 N2          7.6946   -5.0004   22.5797 N.am      1 UNL1        0.0000
     12 O1          7.7880   -4.4604   25.7807 O.2       1 UNL1        0.0000
     13 O2          6.5527   -3.6773   21.0347 O.2       1 UNL1        0.0000
     14 O3          3.7921   -6.5522   24.8583 O.2       1 UNL1        0.0000
     15 O4          3.0246   -5.8501   22.5441 O.2       1 UNL1        0.0000
     16 S1          4.0664   -6.2405   23.4710 S.o2      1 UNL1        0.0000
     17 Cl1         8.2146   -1.6694   23.2521 Cl        1 UNL1        0.0000
@<TRIPOS>BOND
     1    1    7 1
     2    1   10 am
     3    1   12 2
     4    2    8 1
     5    2   11 am
     6    2   13 2
     7    3    4 1
     8    3    6 1
     9    4   16 1
    10    5    6 1
    11    5   16 1
    12    6   11 1
    13    7    9 1
    14    8   17 1
    15    9   11 1
    16   14   16 2
    17   15   16 2
@<TRIPOS>MOLECULE
AGN-NEW-cce-3
   24    25     0     0     0
SMALL
NO_CHARGES

@<TRIPOS>ATOM
      1 C1          5.7383    0.7803   17.7607 C.ar      1 UNL1        0.0000
      2 C2         12.7944   -0.5602   22.2847 C.ar      1 UNL1        0.0000
      3 C3         13.1812    0.3216   23.2938 C.ar      1 UNL1        0.0000
      4 C4          6.5629    0.2944   18.7693 C.ar      1 UNL1        0.0000
      5 C5          4.6673    1.5793   18.1271 C.ar      1 UNL1        0.0000
      6 C6         11.4403   -0.7837   22.0349 C.ar      1 UNL1        0.0000
      7 C7         12.2140    0.9800   24.0532 C.ar      1 UNL1        0.0000
      8 C8         10.4731   -0.1253   22.7944 C.ar      1 UNL1        0.0000
      9 C9          6.2950    0.6177   20.0948 C.ar      1 UNL1        0.0000
     10 C10        10.8599    0.7565   23.8035 C.ar      1 UNL1        0.0000
     11 C11         5.1991    1.4242   20.3567 C.ar      1 UNL1        0.0000
     12 C12         8.2000    4.3653   25.8597 C.2       1 UNL1        0.0000
     13 C13         8.5500    3.1001   25.6074 C.2       1 UNL1        0.0000
     14 C14         9.6914    2.7957   24.6963 C.2       1 UNL1        0.0000
     15 C15         8.5000    0.3457   21.2817 C.2       1 UNL1        0.0000
     16 C16        11.0541   -1.7333   20.9485 C.3       1 UNL1        0.0000
     17 C17        12.6599    1.9184   25.1277 C.3       1 UNL1        0.0000
     18 C18         9.0220   -0.3710   22.5217 C.3       1 UNL1        0.0000
     19 N1          4.3754    1.9150   19.4037 N.ar      1 UNL1        0.0000
     20 N2          9.8911    1.4170   24.5675 N.am      1 UNL1        0.0000
     21 N3          7.1347    0.1235   21.1212 N.am      1 UNL1        0.0000
     22 O1         10.3328    3.6917   24.1603 O.2       1 UNL1        0.0000
     23 O2          9.2340    1.0128   20.5596 O.2       1 UNL1        0.0000
     24 Cl1         4.7600    1.8967   21.9529 Cl        1 UNL1        0.0000
@<TRIPOS>BOND
     1    1    4 ar
     2    1    5 ar
     3    2    3 ar
     4    2    6 ar
     5    3    7 ar
     6    4    9 ar
     7    5   19 ar
     8    6    8 ar
     9    6   16 1
    10    7   10 ar
    11    7   17 1
    12    8   10 ar
    13    8   18 1
    14    9   11 ar
    15    9   21 1
    16   10   20 1
    17   11   19 ar
    18   11   24 1
    19   12   13 2
    20   13   14 1
    21   14   20 am
    22   14   22 2
    23   15   18 1
    24   15   21 am
    25   15   23 2
@<TRIPOS>MOLECULE
TAM-UNI-d1c-14
   23    25     0     0     0
SMALL
NO_CHARGES

@<TRIPOS>ATOM
      1 C1          9.1671   -3.7384   25.7456 C.ar      1 UNL1        0.0000
      2 C2          7.7910   -3.5470   25.8639 C.ar      1 UNL1        0.0000
      3 C3          9.7825   -3.6169   24.5026 C.ar      1 UNL1        0.0000
      4 C4          7.0203   -3.2282   24.7376 C.ar      1 UNL1        0.0000
      5 C5          7.6407   -3.0992   23.4842 C.ar      1 UNL1        0.0000
      6 C6          9.0238   -3.2988   23.3763 C.ar      1 UNL1        0.0000
      7 C7          5.8620   -3.7914   21.8122 C.2       1 UNL1        0.0000
      8 C8         12.5161    1.3356   23.7338 C.2       1 UNL1        0.0000
      9 C9          6.8248   -2.7272   22.2789 C.3       1 UNL1        0.0000
     10 C10         5.5277   -3.0641   24.8475 C.3       1 UNL1        0.0000
     11 C11         4.8088   -4.2021   24.1378 C.3       1 UNL1        0.0000
     12 C12        12.7020   -0.7580   22.4287 C.3       1 UNL1        0.0000
     13 C13        10.6172    0.5423   22.2395 C.3       1 UNL1        0.0000
     14 C14        11.9085   -2.0350   22.6637 C.3       1 UNL1        0.0000
     15 C15         9.7917   -0.7163   22.4700 C.3       1 UNL1        0.0000
     16 C16         9.7680   -3.1834   22.0854 C.3       1 UNL1        0.0000
     17 C17        11.6659    2.5180   24.1245 C.3       1 UNL1        0.0000
     18 N1          4.9242   -4.2882   22.6836 N.am      1 UNL1        0.0000
     19 N2         11.9433    0.4182   22.8541 N.am      1 UNL1        0.0000
     20 N3         10.5677   -1.9160   21.9742 N.4       1 UNL1        0.0000
     21 O1          5.8744   -4.1450   20.6280 O.2       1 UNL1        0.0000
     22 O2         13.6537    1.2309   24.1995 O.2       1 UNL1        0.0000
     23 Cl1        10.7431    2.0288   25.5412 Cl        1 UNL1        0.0000
@<TRIPOS>BOND
     1    1    2 ar
     2    1    3 ar
     3    2    4 ar
     4    3    6 ar
     5    4    5 ar
     6    4   10 1
     7    5    6 ar
     8    5    9 1
     9    6   16 1
    10    7    9 1
    11    7   18 am
    12    7   21 2
    13    8   17 1
    14    8   19 am
    15    8   22 2
    16   10   11 1
    17   11   18 1
    18   12   14 1
    19   12   19 1
    20   13   15 1
    21   13   19 1
    22   14   20 1
    23   15   20 1
    24   16   20 1
    25   17   23 1
@<TRIPOS>MOLECULE
DAN-LON-a5f-8
   19    21     0     0     0
SMALL
NO_CHARGES

@<TRIPOS>ATOM
      1 C1         11.4672    0.0182   25.1723 C.ar      1 UNL1        0.0000
      2 C2         10.8021   -1.1002   24.6699 C.ar      1 UNL1        0.0000
      3 C3         12.3994    0.6893   24.3809 C.ar      1 UNL1        0.0000
      4 C4         12.0016   -0.8766   22.5846 C.ar      1 UNL1        0.0000
      5 C5         11.0693   -1.5476   23.3760 C.ar      1 UNL1        0.0000
      6 C6         12.6666    0.2419   23.0871 C.ar      1 UNL1        0.0000
      7 C7          6.0783   -1.9588   19.5459 C.2       1 UNL1        0.0000
      8 C8          7.2728   -1.7838   22.9530 C.3       1 UNL1        0.0000
      9 C9          7.8058   -0.6791   20.9219 C.3       1 UNL1        0.0000
     10 C10         8.2333   -3.5048   21.6511 C.3       1 UNL1        0.0000
     11 C11         6.9312   -2.7105   21.7885 C.3       1 UNL1        0.0000
     12 C12         8.4610   -1.1589   22.2243 C.3       1 UNL1        0.0000
     13 C13        10.3545   -2.7514   22.8367 C.3       1 UNL1        0.0000
     14 C14         6.2206   -0.9078   18.4750 C.3       1 UNL1        0.0000
     15 N1          6.8647   -1.7709   20.6622 N.am      1 UNL1        0.0000
     16 N2          9.2872   -2.4050   21.8481 N.4       1 UNL1        0.0000
     17 O1          5.3057   -2.9060   19.3959 O.2       1 UNL1        0.0000
     18 Cl1        13.8177    1.0695   22.1115 Cl        1 UNL1        0.0000
     19 Cl2         5.0103    0.3247   18.8138 Cl        1 UNL1        0.0000
@<TRIPOS>BOND
     1    1    2 ar
     2    1    3 ar
     3    2    5 ar
     4    3    6 ar
     5    4    5 ar
     6    4    6 ar
     7    5   13 1
     8    6   18 1
     9    7   14 1
    10    7   15 am
    11    7   17 2
    12    8   11 1
    13    8   12 1
    14    9   12 1
    15    9   15 1
    16   10   11 1
    17   10   16 1
    18   11   15 1
    19   12   16 1
    20   13   16 1
    21   14   19 1
@<TRIPOS>MOLECULE
DAV-CRI-eab-1
   18    19     0     0     0
SMALL
NO_CHARGES

@<TRIPOS>ATOM
      1 C1          7.9883   -3.4145   23.5628 C.ar      1 UNL1        0.0000
      2 C2         10.3361   -2.8597   23.5945 C.ar      1 UNL1        0.0000
      3 C3          7.7670   -2.4862   22.5339 C.ar      1 UNL1        0.0000
      4 C4          8.8478   -1.7384   22.0340 C.ar      1 UNL1        0.0000
      5 C5         10.1289   -1.9340   22.5725 C.ar      1 UNL1        0.0000
      6 C6          9.2661   -3.5995   24.0897 C.ar      1 UNL1        0.0000
      7 C7          6.2350   -1.3032   20.8965 C.2       1 UNL1        0.0000
      8 C8          7.2638   -0.5912   20.4209 C.2       1 UNL1        0.0000
      9 C9         11.6293    0.2200   24.1067 C.2       1 UNL1        0.0000
     10 C10         6.3691   -2.3158   21.9911 C.3       1 UNL1        0.0000
     11 C11         8.6655   -0.7267   20.9291 C.3       1 UNL1        0.0000
     12 C12        12.6264   -1.9405   22.1790 C.3       1 UNL1        0.0000
     13 C13        11.7577    1.6471   24.5750 C.3       1 UNL1        0.0000
     14 C14        11.3092   -1.1613   22.0740 C.3       1 UNL1        0.0000
     15 N1         11.4393    0.1204   22.7426 N.am      1 UNL1        0.0000
     16 O1         11.7077   -0.7280   24.8860 O.2       1 UNL1        0.0000
     17 Cl1         9.5187   -4.7427   25.3510 Cl        1 UNL1        0.0000
     18 Cl2        12.4711    2.5904   23.2574 Cl        1 UNL1        0.0000
@<TRIPOS>BOND
     1    1    3 ar
     2    1    6 ar
     3    2    5 ar
     4    2    6 ar
     5    3    4 ar
     6    3   10 1
     7    4    5 ar
     8    4   11 1
     9    5   14 1
    10    6   17 1
    11    7    8 2
    12    7   10 1
    13    8   11 1
    14    9   13 1
    15    9   15 am
    16    9   16 2
    17   12   14 1
    18   13   18 1
    19   14   15 1
@<TRIPOS>MOLECULE
MAK-UNK-af8-15
   31    32     0     0     0
SMALL
NO_CHARGES

@<TRIPOS>ATOM
      1 C1         13.0130    5.8722   23.5860 C.ar      1 UNL1        0.0000
      2 C2         11.9008    6.4038   24.2385 C.ar      1 UNL1        0.0000
      3 C3         12.9103    4.6559   22.9109 C.ar      1 UNL1        0.0000
      4 C4         10.6858    5.7191   24.2161 C.ar      1 UNL1        0.0000
      5 C5         11.6953    3.9711   22.8885 C.ar      1 UNL1        0.0000
      6 C6         10.5830    4.5027   23.5411 C.ar      1 UNL1        0.0000
      7 C7         12.6655   -2.4530   23.9983 C.2       1 UNL1        0.0000
      8 C8          7.4837    2.3420   20.8508 C.2       1 UNL1        0.0000
      9 C9         12.8285    0.0073   24.6210 C.3       1 UNL1        0.0000
     10 C10        10.8604   -0.8630   23.4197 C.3       1 UNL1        0.0000
     11 C11        12.9481    1.1551   23.6276 C.3       1 UNL1        0.0000
     12 C12        10.9515    0.2701   22.4080 C.3       1 UNL1        0.0000
     13 C13         9.5097    6.3102   24.9226 C.3       1 UNL1        0.0000
     14 C14         6.6389    5.7896   21.4006 C.3       1 UNL1        0.0000
     15 C15         9.2802    3.7685   23.5172 C.3       1 UNL1        0.0000
     16 C16        11.6115    2.6650   22.1550 C.3       1 UNL1        0.0000
     17 C17        14.1658   -2.6043   24.0062 C.3       1 UNL1        0.0000
     18 C18         6.4543    1.2390   20.8426 C.3       1 UNL1        0.0000
     19 C19         8.3606    4.1391   22.3301 C.3       1 UNL1        0.0000
     20 C20         7.5675    5.4420   22.5603 C.3       1 UNL1        0.0000
     21 N1         12.1693   -1.1502   24.0068 N.am      1 UNL1        0.0000
     22 N2          5.2122   -0.7921   19.6666 N.pl3     1 UNL1        0.0000
     23 N3          7.4689    3.0313   22.0524 N.am      1 UNL1        0.0000
     24 N4         11.5781    1.4754   23.0728 N.4       1 UNL1        0.0000
     25 O1         11.9578   -3.4633   23.9825 O.2       1 UNL1        0.0000
     26 O2          8.2313    2.5801   19.9065 O.2       1 UNL1        0.0000
     27 O3          6.0087    1.2145   18.2681 O.2       1 UNL1        0.0000
     28 O4          7.7139   -0.3842   19.2282 O.2       1 UNL1        0.0000
     29 O5          6.7999    5.3363   23.7571 O.3       1 UNL1        0.0000
     30 S1          6.4523    0.3310   19.3345 S.o2      1 UNL1        0.0000
     31 Cl1        14.6602   -2.6336   25.6952 Cl        1 UNL1        0.0000
@<TRIPOS>BOND
     1    1    2 ar
     2    1    3 ar
     3    2    4 ar
     4    3    5 ar
     5    4    6 ar
     6    4   13 1
     7    5    6 ar
     8    5   16 1
     9    6   15 1
    10    7   17 1
    11    7   21 am
    12    7   25 2
    13    8   18 1
    14    8   23 am
    15    8   26 2
    16    9   11 1
    17    9   21 1
    18   10   12 1
    19   10   21 1
    20   11   24 1
    21   12   24 1
    22   14   20 1
    23   15   19 1
    24   16   24 1
    25   17   31 1
    26   18   30 1
    27   19   20 1
    28   19   23 1
    29   20   29 1
    30   22   30 1
    31   27   30 2
    32   28   30 2
@<TRIPOS>MOLECULE
MAK-UNK-af8-23
   30    32     0     0     0
SMALL
NO_CHARGES

@<TRIPOS>ATOM
      1 C1          5.8241    6.2073   23.9839 C.1       1 UNL1        0.0000
      2 C2          7.7683    6.5010   22.5195 C.ar      1 UNL1        0.0000
      3 C3          9.1453    6.4614   22.3309 C.ar      1 UNL1        0.0000
      4 C4          8.1094    5.8177   24.7719 C.ar      1 UNL1        0.0000
      5 C5          7.2325    6.1745   23.7602 C.ar      1 UNL1        0.0000
      6 C6          9.9367    6.0919   23.4066 C.ar      1 UNL1        0.0000
      7 C7          6.3891   -5.0766   25.3511 C.2       1 UNL1        0.0000
      8 C8         10.7080   -0.7032   23.2103 C.3       1 UNL1        0.0000
      9 C9         12.4770    1.0455   22.7495 C.3       1 UNL1        0.0000
     10 C10        10.4125    1.6519   24.0856 C.3       1 UNL1        0.0000
     11 C11         6.7279   -3.2914   23.6720 C.3       1 UNL1        0.0000
     12 C12         8.6092   -3.8504   25.1624 C.3       1 UNL1        0.0000
     13 C13         6.9108   -1.8090   23.9632 C.3       1 UNL1        0.0000
     14 C14         8.8218   -2.3753   25.4748 C.3       1 UNL1        0.0000
     15 C15        12.2075   -0.4457   22.9981 C.3       1 UNL1        0.0000
     16 C16        10.1332    0.1636   24.3410 C.3       1 UNL1        0.0000
     17 C17        11.9055    1.8976   23.8805 C.3       1 UNL1        0.0000
     18 C18        12.7408   -1.2895   21.8416 C.3       1 UNL1        0.0000
     19 C19         6.6037   -5.3729   26.8139 C.3       1 UNL1        0.0000
     20 C20         8.6341   -0.0837   24.5008 C.3       1 UNL1        0.0000
     21 C21        12.2395    5.6786   24.2738 C.3       1 UNL1        0.0000
     22 C22        11.9905    4.2494   24.7175 C.3       1 UNL1        0.0000
     23 N1          4.6783    6.2339   24.1658 N.1       1 UNL1        0.0000
     24 N2          9.4526    5.7678   24.6265 N.ar      1 UNL1        0.0000
     25 N3          7.2164   -4.1094   24.7821 N.am      1 UNL1        0.0000
     26 N4         11.2874    6.0570   23.2058 N.pl3     1 UNL1        0.0000
     27 N5          8.3630   -1.5475   24.2952 N.4       1 UNL1        0.0000
     28 N6         12.1154    3.3334   23.5531 N.4       1 UNL1        0.0000
     29 O1          5.5105   -5.6855   24.7352 O.2       1 UNL1        0.0000
     30 Cl1         6.3623   -3.8573   27.6756 Cl        1 UNL1        0.0000
@<TRIPOS>BOND
     1    1    5 1
     2    1   23 3
     3    2    3 ar
     4    2    5 ar
     5    3    6 ar
     6    4    5 ar
     7    4   24 ar
     8    6   24 ar
     9    6   26 1
    10    7   19 1
    11    7   25 am
    12    7   29 2
    13    8   15 1
    14    8   16 1
    15    9   15 1
    16    9   17 1
    17   10   16 1
    18   10   17 1
    19   11   13 1
    20   11   25 1
    21   12   14 1
    22   12   25 1
    23   13   27 1
    24   14   27 1
    25   15   18 1
    26   16   20 1
    27   17   28 1
    28   19   30 1
    29   20   27 1
    30   21   22 1
    31   21   26 1
    32   22   28 1
@<TRIPOS>MOLECULE
STU-CHA-91d-1
   25    26     0     0     0
SMALL
NO_CHARGES

@<TRIPOS>ATOM
      1 C1         13.8131    3.7530   21.7078 C.ar      1 UNL1        0.0000
      2 C2         13.7875    2.5064   22.3330 C.ar      1 UNL1        0.0000
      3 C3         14.1347   -0.6303   22.8533 C.ar      1 UNL1        0.0000
      4 C4         12.9346    4.7565   22.1165 C.ar      1 UNL1        0.0000
      5 C5         14.1951   -1.7626   22.0411 C.ar      1 UNL1        0.0000
      6 C6         11.7831   -1.7948   21.9066 C.ar      1 UNL1        0.0000
      7 C7         12.0048    3.2667   23.7756 C.ar      1 UNL1        0.0000
      8 C8         11.7227   -0.6625   22.7189 C.ar      1 UNL1        0.0000
      9 C9         12.8833    2.2632   23.3669 C.ar      1 UNL1        0.0000
     10 C10        12.8985   -0.0802   23.1923 C.ar      1 UNL1        0.0000
     11 C11        12.0305    4.5133   23.1504 C.ar      1 UNL1        0.0000
     12 C12        13.0193   -2.3449   21.5677 C.ar      1 UNL1        0.0000
     13 C13         9.3158    0.7012   20.9847 C.2       1 UNL1        0.0000
     14 C14         9.8072   -0.6695   24.3691 C.3       1 UNL1        0.0000
     15 C15         8.2692    0.3319   19.9647 C.3       1 UNL1        0.0000
     16 C16        10.3908   -0.0882   23.0735 C.3       1 UNL1        0.0000
     17 N1         11.3749    7.0393   22.6080 N.pl3     1 UNL1        0.0000
     18 N2          9.4300   -0.2334   21.9939 N.am      1 UNL1        0.0000
     19 O1          9.9868    1.7268   20.8835 O.2       1 UNL1        0.0000
     20 O2          9.5742    5.3502   23.3497 O.2       1 UNL1        0.0000
     21 O3         11.2744    6.1553   25.0257 O.2       1 UNL1        0.0000
     22 O4         12.8570    1.0259   23.9867 O.3       1 UNL1        0.0000
     23 S1         10.9325    5.7706   23.6635 S.o2      1 UNL1        0.0000
     24 Cl1        13.0932   -3.7419   20.5657 Cl        1 UNL1        0.0000
     25 Cl2         6.7272    1.0246   20.4914 Cl        1 UNL1        0.0000
@<TRIPOS>BOND
     1    1    2 ar
     2    1    4 ar
     3    2    9 ar
     4    3    5 ar
     5    3   10 ar
     6    4   11 ar
     7    5   12 ar
     8    6    8 ar
     9    6   12 ar
    10    7    9 ar
    11    7   11 ar
    12    8   10 ar
    13    8   16 1
    14    9   22 1
    15   10   22 1
    16   11   23 1
    17   12   24 1
    18   13   15 1
    19   13   18 am
    20   13   19 2
    21   14   16 1
    22   15   25 1
    23   16   18 1
    24   17   23 1
    25   20   23 2
    26   21   23 2
@<TRIPOS>MOLECULE
TAM-UNI-d1c-17
   23    24     0     0     0
SMALL
NO_CHARGES

@<TRIPOS>ATOM
      1 C1         13.1758   -0.8766   22.0084 C.1       1 UNL1        0.0000
      2 C2         12.0729    0.2640   23.8696 C.ar      1 UNL1        0.0000
      3 C3         11.0037    0.3816   24.7576 C.ar      1 UNL1        0.0000
      4 C4         11.0193   -1.6591   22.8556 C.ar      1 UNL1        0.0000
      5 C5         12.0807   -0.7563   22.9185 C.ar      1 UNL1        0.0000
      6 C6          9.9423   -0.5212   24.6946 C.ar      1 UNL1        0.0000
      7 C7          9.9500   -1.5416   23.7436 C.ar      1 UNL1        0.0000
      8 C8          8.8407   -0.3774   25.6370 C.2       1 UNL1        0.0000
      9 C9          5.9861   -1.9973   19.4488 C.2       1 UNL1        0.0000
     10 C10         6.6458   -3.2552   21.4733 C.3       1 UNL1        0.0000
     11 C11         7.7872   -1.1156   21.0117 C.3       1 UNL1        0.0000
     12 C12         6.4246   -2.8465   22.9222 C.3       1 UNL1        0.0000
     13 C13         7.5839   -0.6785   22.4562 C.3       1 UNL1        0.0000
     14 C14         7.5107    1.2186   27.0365 C.3       1 UNL1        0.0000
     15 C15         8.8217   -2.5264   23.6552 C.3       1 UNL1        0.0000
     16 C16         6.1623   -0.7587   18.6070 C.3       1 UNL1        0.0000
     17 N1         14.0652   -0.9743   21.2693 N.1       1 UNL1        0.0000
     18 N2          6.7635   -2.0842   20.6036 N.am      1 UNL1        0.0000
     19 N3          8.5558    0.9166   26.0849 N.am      1 UNL1        0.0000
     20 N4          7.4945   -1.8782   23.3702 N.4       1 UNL1        0.0000
     21 O1          8.2117   -1.3758   26.0262 O.2       1 UNL1        0.0000
     22 O2          5.1795   -2.8593   19.0906 O.2       1 UNL1        0.0000
     23 Cl1         4.9791    0.4119   19.1795 Cl        1 UNL1        0.0000
@<TRIPOS>BOND
     1    1    5 1
     2    1   17 3
     3    2    3 ar
     4    2    5 ar
     5    3    6 ar
     6    4    5 ar
     7    4    7 ar
     8    6    7 ar
     9    6    8 1
    10    7   15 1
    11    8   19 am
    12    8   21 2
    13    9   16 1
    14    9   18 am
    15    9   22 2
    16   10   12 1
    17   10   18 1
    18   11   13 1
    19   11   18 1
    20   12   20 1
    21   13   20 1
    22   14   19 1
    23   15   20 1
    24   16   23 1
@<TRIPOS>MOLECULE
MAK-UNK-af8-1
   23    25     0     0     0
SMALL
NO_CHARGES

@<TRIPOS>ATOM
      1 C1          5.7086   -6.0141   29.0651 C.ar      1 UNL1        0.0000
      2 C2          7.0801   -6.0082   28.8114 C.ar      1 UNL1        0.0000
      3 C3          4.8203   -5.5222   28.1087 C.ar      1 UNL1        0.0000
      4 C4          7.5635   -5.5103   27.6014 C.ar      1 UNL1        0.0000
      5 C5          5.3036   -5.0243   26.8987 C.ar      1 UNL1        0.0000
      6 C6          8.7552   -4.5455   23.7633 C.ar      1 UNL1        0.0000
      7 C7          6.9459   -3.0728   23.6456 C.ar      1 UNL1        0.0000
      8 C8          6.6752   -5.0184   26.6450 C.ar      1 UNL1        0.0000
      9 C9          8.1055   -3.5469   23.0669 C.ar      1 UNL1        0.0000
     10 C10         7.1744   -4.5048   25.3962 C.ar      1 UNL1        0.0000
     11 C11        12.2347    0.3329   24.3115 C.2       1 UNL1        0.0000
     12 C12        12.0192   -1.7455   22.9867 C.3       1 UNL1        0.0000
     13 C13        10.6388    0.1897   22.3365 C.3       1 UNL1        0.0000
     14 C14        10.8012   -2.6565   22.9388 C.3       1 UNL1        0.0000
     15 C15         9.3995   -0.6932   22.2769 C.3       1 UNL1        0.0000
     16 C16         8.6258   -3.0116   21.7655 C.3       1 UNL1        0.0000
     17 C17        11.3985    1.3864   24.9932 C.3       1 UNL1        0.0000
     18 N1          8.3162   -5.0499   24.9351 N.ar      1 UNL1        0.0000
     19 N2          6.4495   -3.5307   24.8136 N.ar      1 UNL1        0.0000
     20 N3         11.6308   -0.3628   23.2650 N.am      1 UNL1        0.0000
     21 N4          9.8138   -2.1067   21.9339 N.4       1 UNL1        0.0000
     22 O1         13.3884    0.1340   24.7004 O.2       1 UNL1        0.0000
     23 Cl1        11.7104    2.9000   24.1510 Cl        1 UNL1        0.0000
@<TRIPOS>BOND
     1    1    2 ar
     2    1    3 ar
     3    2    4 ar
     4    3    5 ar
     5    4    8 ar
     6    5    8 ar
     7    6    9 ar
     8    6   18 ar
     9    7    9 ar
    10    7   19 ar
    11    8   10 1
    12    9   16 1
    13   10   18 ar
    14   10   19 ar
    15   11   17 1
    16   11   20 am
    17   11   22 2
    18   12   14 1
    19   12   20 1
    20   13   15 1
    21   13   20 1
    22   14   21 1
    23   15   21 1
    24   16   21 1
    25   17   23 1
@<TRIPOS>MOLECULE
DAR-DIA-cab-13
   31    34     0     0     0
SMALL
NO_CHARGES

@<TRIPOS>ATOM
      1 C1         14.2182   -0.3405   23.1189 C.ar      1 UNL1        0.0000
      2 C2         13.7328    0.9591   23.0086 C.ar      1 UNL1        0.0000
      3 C3         13.3581   -1.4234   22.9396 C.ar      1 UNL1        0.0000
      4 C4         12.3875    1.1771   22.7155 C.ar      1 UNL1        0.0000
      5 C5          9.1037    0.0561   24.5319 C.ar      1 UNL1        0.0000
      6 C6          7.7940    1.7762   25.5232 C.ar      1 UNL1        0.0000
      7 C7         12.0004   -1.2189   22.6506 C.ar      1 UNL1        0.0000
      8 C8         11.5119    0.0948   22.5296 C.ar      1 UNL1        0.0000
      9 C9          9.2456    0.8562   23.4037 C.ar      1 UNL1        0.0000
     10 C10         8.3656    0.5175   25.6162 C.ar      1 UNL1        0.0000
     11 C11         8.6345    2.0997   23.4096 C.ar      1 UNL1        0.0000
     12 C12         8.6374   -2.9430   22.6762 C.2       1 UNL1        0.0000
     13 C13        10.5696    4.4059   23.1715 C.2       1 UNL1        0.0000
     14 C14        11.1080   -2.4218   22.4651 C.3       1 UNL1        0.0000
     15 C15        12.4589    5.7911   23.9699 C.3       1 UNL1        0.0000
     16 C16        12.5962    4.8906   21.6787 C.3       1 UNL1        0.0000
     17 C17         9.3922   -0.8719   21.5613 C.3       1 UNL1        0.0000
     18 C18        13.9344    5.4619   24.1335 C.3       1 UNL1        0.0000
     19 C19        14.0748    4.6251   21.9411 C.3       1 UNL1        0.0000
     20 C20        10.0507    0.3554   22.2122 C.3       1 UNL1        0.0000
     21 C21         8.7542    3.0025   22.2255 C.3       1 UNL1        0.0000
     22 C22         7.2408   -2.4363   22.4144 C.3       1 UNL1        0.0000
     23 N1          7.9099    2.5821   24.4440 N.ar      1 UNL1        0.0000
     24 N2          9.6852   -2.0996   22.2996 N.am      1 UNL1        0.0000
     25 N3         11.8441    4.9502   22.9402 N.am      1 UNL1        0.0000
     26 N4         10.0558    3.6262   22.1418 N.am      1 UNL1        0.0000
     27 O1          8.7911   -4.0536   23.1902 O.2       1 UNL1        0.0000
     28 O2          9.9363    4.6051   24.2135 O.2       1 UNL1        0.0000
     29 O3         14.6011    5.5691   22.8744 O.3       1 UNL1        0.0000
     30 F1          8.2143   -0.2302   26.7149 F         1 UNL1        0.0000
     31 Cl1         6.1391   -3.7010   22.9469 Cl        1 UNL1        0.0000
@<TRIPOS>BOND
     1    1    2 ar
     2    1    3 ar
     3    2    4 ar
     4    3    7 ar
     5    4    8 ar
     6    5    9 ar
     7    5   10 ar
     8    6   10 ar
     9    6   23 ar
    10    7    8 ar
    11    7   14 1
    12    8   20 1
    13    9   11 ar
    14    9   20 1
    15   10   30 1
    16   11   21 1
    17   11   23 ar
    18   12   22 1
    19   12   24 am
    20   12   27 2
    21   13   25 am
    22   13   26 am
    23   13   28 2
    24   14   24 1
    25   15   18 1
    26   15   25 1
    27   16   19 1
    28   16   25 1
    29   17   20 1
    30   17   24 1
    31   18   29 1
    32   19   29 1
    33   21   26 1
    34   22   31 1
@<TRIPOS>MOLECULE
TAM-UNI-d1c-24
   23    24     0     0     0
SMALL
NO_CHARGES

@<TRIPOS>ATOM
      1 C1          7.0197   -2.0538   20.9643 C.ar      1 UNL1        0.0000
      2 C2          8.2972   -1.5265   21.1855 C.ar      1 UNL1        0.0000
      3 C3          6.5527   -3.1304   21.7158 C.ar      1 UNL1        0.0000
      4 C4         10.6958   -2.7300   23.6672 C.2       1 UNL1        0.0000
      5 C5          9.1135   -2.0976   22.1820 C.ar      1 UNL1        0.0000
      6 C6          7.3444   -3.7132   22.7094 C.ar      1 UNL1        0.0000
      7 C7         10.4246   -1.8277   22.6646 C.2       1 UNL1        0.0000
      8 C8          8.6192   -3.1756   22.9195 C.ar      1 UNL1        0.0000
      9 C9          9.9762    0.4315   24.9769 C.2       1 UNL1        0.0000
     10 C10         6.9160   -5.6439   25.8314 C.2       1 UNL1        0.0000
     11 C11         8.8471    1.3002   25.4226 C.3       1 UNL1        0.0000
     12 C12         5.3740   -5.2624   23.0410 C.3       1 UNL1        0.0000
     13 C13         9.5249   -4.6123   24.7815 C.3       1 UNL1        0.0000
     14 C14        11.3382   -0.7717   22.1833 C.3       1 UNL1        0.0000
     15 C15         6.9344   -5.1508   27.2557 C.3       1 UNL1        0.0000
     16 C16        11.7749    0.2247   23.2726 C.3       1 UNL1        0.0000
     17 C17         6.7895   -4.8648   23.4821 C.3       1 UNL1        0.0000
     18 N1          9.6010   -3.5390   23.8135 N.pl3     1 UNL1        0.0000
     19 N2         10.6548    0.9051   23.8655 N.am      1 UNL1        0.0000
     20 N3          6.8072   -4.6189   24.9134 N.am      1 UNL1        0.0000
     21 O1         10.2250   -0.5988   25.5919 O.2       1 UNL1        0.0000
     22 O2          7.0072   -6.8393   25.5575 O.2       1 UNL1        0.0000
     23 Cl1         5.5553   -5.8724   28.0996 Cl        1 UNL1        0.0000
@<TRIPOS>BOND
     1    1    2 ar
     2    1    3 ar
     3    2    5 ar
     4    3    6 ar
     5    4    7 2
     6    4   18 1
     7    5    7 1
     8    5    8 ar
     9    6    8 ar
    10    6   17 1
    11    7   14 1
    12    8   18 1
    13    9   11 1
    14    9   19 am
    15    9   21 2
    16   10   15 1
    17   10   20 am
    18   10   22 2
    19   12   17 1
    20   13   18 1
    21   14   16 1
    22   15   23 1
    23   16   19 1
    24   17   20 1
@<TRIPOS>MOLECULE
DAR-DIA-cab-10
   30    33     0     0     0
SMALL
NO_CHARGES

@<TRIPOS>ATOM
      1 C1          7.8078   -4.7031   25.4780 C.ar      1 UNL1        0.0000
      2 C2          9.1752   -4.4596   25.4055 C.ar      1 UNL1        0.0000
      3 C3          8.9907   -0.0479   24.3466 C.ar      1 UNL1        0.0000
      4 C4          6.9519   -4.1421   24.5326 C.ar      1 UNL1        0.0000
      5 C5          9.6867   -3.6416   24.3974 C.ar      1 UNL1        0.0000
      6 C6          8.7701    0.9476   25.2989 C.ar      1 UNL1        0.0000
      7 C7         12.5677    0.5126   23.5278 C.ar      1 UNL1        0.0000
      8 C8         11.0658    1.6628   25.0847 C.ar      1 UNL1        0.0000
      9 C9         11.7527   -1.3366   22.2072 C.ar      1 UNL1        0.0000
     10 C10        10.2527   -0.2017   23.7499 C.ar      1 UNL1        0.0000
     11 C11        11.3057    0.6664   24.1245 C.ar      1 UNL1        0.0000
     12 C12         7.4551   -3.3279   23.5058 C.ar      1 UNL1        0.0000
     13 C13         8.8352   -3.0402   23.4536 C.ar      1 UNL1        0.0000
     14 C14        10.4926   -1.1982   22.7898 C.ar      1 UNL1        0.0000
     15 C15        12.7883   -0.4829   22.5755 C.ar      1 UNL1        0.0000
     16 C16         9.8056    1.8013   25.6672 C.ar      1 UNL1        0.0000
     17 C17         6.7085   -2.5849   20.0338 C.2       1 UNL1        0.0000
     18 C18         6.4912   -2.7589   22.4940 C.3       1 UNL1        0.0000
     19 C19         8.3104   -1.3781   21.5925 C.3       1 UNL1        0.0000
     20 C20         9.4050   -2.1648   22.3402 C.3       1 UNL1        0.0000
     21 C21        14.1735   -1.6589   21.0413 C.3       1 UNL1        0.0000
     22 C22         7.4731   -2.0140   18.8661 C.3       1 UNL1        0.0000
     23 N1          7.1701   -2.2481   21.3050 N.am      1 UNL1        0.0000
     24 N2          9.0280    4.3427   25.8707 N.pl3     1 UNL1        0.0000
     25 O1          5.7329   -3.3093   19.8210 O.2       1 UNL1        0.0000
     26 O2          8.4089    2.6342   27.6991 O.2       1 UNL1        0.0000
     27 O3         10.8024    3.3883   27.4761 O.2       1 UNL1        0.0000
     28 O4         14.0176   -0.6207   22.0074 O.3       1 UNL1        0.0000
     29 S1          9.5277    3.0440   26.8621 S.o2      1 UNL1        0.0000
     30 Cl1         6.7018   -0.4855   18.4590 Cl        1 UNL1        0.0000
@<TRIPOS>BOND
     1    1    2 ar
     2    1    4 ar
     3    2    5 ar
     4    3    6 ar
     5    3   10 ar
     6    4   12 ar
     7    5   13 ar
     8    6   16 ar
     9    7   11 ar
    10    7   15 ar
    11    8   11 ar
    12    8   16 ar
    13    9   14 ar
    14    9   15 ar
    15   10   11 ar
    16   10   14 ar
    17   12   13 ar
    18   12   18 1
    19   13   20 1
    20   14   20 1
    21   15   28 1
    22   16   29 1
    23   17   22 1
    24   17   23 am
    25   17   25 2
    26   18   23 1
    27   19   20 1
    28   19   23 1
    29   21   28 1
    30   22   30 1
    31   24   29 1
    32   26   29 2
    33   27   29 2
@<TRIPOS>MOLECULE
MAK-UNK-e4a-21
   22    24     0     0     0
SMALL
NO_CHARGES

@<TRIPOS>ATOM
      1 C1         11.0603    2.4557   22.7265 C.2       1 UNL1        0.0000
      2 C2         11.1100   -2.1781   22.9010 C.2       1 UNL1        0.0000
      3 C3         10.6243    3.7600   22.8064 C.2       1 UNL1        0.0000
      4 C4         12.5984    3.3577   24.2174 C.2       1 UNL1        0.0000
      5 C5         12.2038    2.2225   23.5439 C.2       1 UNL1        0.0000
      6 C6         10.2448   -1.8972   23.9376 C.2       1 UNL1        0.0000
      7 C7         12.0015   -0.2901   23.5720 C.2       1 UNL1        0.0000
      8 C8          6.1615   -1.7421   19.8040 C.2       1 UNL1        0.0000
      9 C9          6.6396   -3.4087   21.5689 C.3       1 UNL1        0.0000
     10 C10         6.3717   -1.0536   22.2432 C.3       1 UNL1        0.0000
     11 C11         7.9243   -3.5155   22.3775 C.3       1 UNL1        0.0000
     12 C12         7.6522   -1.1255   23.0640 C.3       1 UNL1        0.0000
     13 C13        12.9051    0.8783   23.6572 C.3       1 UNL1        0.0000
     14 C14         9.0578   -2.6684   24.4349 C.3       1 UNL1        0.0000
     15 C15         6.6017   -0.3849   19.3162 C.3       1 UNL1        0.0000
     16 N1         12.1177   -1.2575   22.6896 N.2       1 UNL1        0.0000
     17 N2          6.3966   -2.0289   21.1479 N.am      1 UNL1        0.0000
     18 N3          7.8586   -2.5470   23.5373 N.4       1 UNL1        0.0000
     19 O1          5.6275   -2.5233   19.0124 O.2       1 UNL1        0.0000
     20 S1         11.5920    4.6972   23.8636 S.3       1 UNL1        0.0000
     21 S2         10.7032   -0.4238   24.6862 S.3       1 UNL1        0.0000
     22 Cl1         5.2259    0.6939   19.5192 Cl        1 UNL1        0.0000
@<TRIPOS>BOND
     1    1    3 2
     2    1    5 1
     3    2    6 2
     4    2   16 1
     5    3   20 1
     6    4    5 2
     7    4   20 1
     8    5   13 1
     9    6   14 1
    10    6   21 1
    11    7   13 1
    12    7   16 2
    13    7   21 1
    14    8   15 1
    15    8   17 am
    16    8   19 2
    17    9   11 1
    18    9   17 1
    19   10   12 1
    20   10   17 1
    21   11   18 1
    22   12   18 1
    23   14   18 1
    24   15   22 1
@<TRIPOS>MOLECULE
MAK-UNK-e4a-12
   22    23     0     0     0
SMALL
NO_CHARGES

@<TRIPOS>ATOM
      1 C1         11.2402   -0.9272   22.9636 C.2       1 UNL1        0.0000
      2 C2          5.4881   -6.1610   23.4618 C.3       1 UNL1        0.0000
      3 C3          3.8424   -5.7665   25.3368 C.3       1 UNL1        0.0000
      4 C4         10.1117   -3.1002   23.3177 C.3       1 UNL1        0.0000
      5 C5          9.3605   -1.1740   24.6588 C.3       1 UNL1        0.0000
      6 C6          6.3325   -7.0227   24.3943 C.3       1 UNL1        0.0000
      7 C7          4.6956   -6.6320   26.2574 C.3       1 UNL1        0.0000
      8 C8         10.1989   -3.9630   24.5681 C.3       1 UNL1        0.0000
      9 C9          9.4346   -2.0089   25.9300 C.3       1 UNL1        0.0000
     10 C10         4.0151   -6.1431   23.8658 C.3       1 UNL1        0.0000
     11 C11        11.3590    0.5225   23.3612 C.3       1 UNL1        0.0000
     12 C12         6.8573   -5.3304   26.1918 C.3       1 UNL1        0.0000
     13 C13         8.3390   -5.5841   26.4814 C.3       1 UNL1        0.0000
     14 C14         9.1619   -4.3299   26.8099 C.3       1 UNL1        0.0000
     15 N1         10.2868   -1.6846   23.6425 N.am      1 UNL1        0.0000
     16 N2          6.1437   -6.6057   25.8324 N.4       1 UNL1        0.0000
     17 N3          9.1965   -3.4617   25.5837 N.4       1 UNL1        0.0000
     18 O1         11.9753   -1.3717   22.0781 O.2       1 UNL1        0.0000
     19 O2          3.4629   -7.4375   23.6324 O.3       1 UNL1        0.0000
     20 O3          8.4507   -6.5375   27.5386 O.3       1 UNL1        0.0000
     21 O4          8.6241   -3.6912   27.9604 O.3       1 UNL1        0.0000
     22 Cl1        12.5251    0.5899   24.6778 Cl        1 UNL1        0.0000
@<TRIPOS>BOND
     1    1   11 1
     2    1   15 am
     3    1   18 2
     4    2    6 1
     5    2   10 1
     6    3    7 1
     7    3   10 1
     8    4    8 1
     9    4   15 1
    10    5    9 1
    11    5   15 1
    12    6   16 1
    13    7   16 1
    14    8   17 1
    15    9   17 1
    16   10   19 1
    17   11   22 1
    18   12   13 1
    19   12   16 1
    20   13   14 1
    21   13   20 1
    22   14   17 1
    23   14   21 1
@<TRIPOS>MOLECULE
NIR-THE-99f-2
   22    24     0     0     0
SMALL
NO_CHARGES

@<TRIPOS>ATOM
      1 C1          7.9253   -4.2440   24.9316 C.2       1 UNL1        0.0000
      2 C2          7.1725   -5.3974   24.9084 C.2       1 UNL1        0.0000
      3 C3          7.3929   -4.3931   22.6740 C.2       1 UNL1        0.0000
      4 C4          8.0529   -3.6621   23.6373 C.2       1 UNL1        0.0000
      5 C5          7.4719   -0.2709   23.2842 C.2       1 UNL1        0.0000
      6 C6         10.9132    2.0689   22.0497 C.2       1 UNL1        0.0000
      7 C7         12.6067    0.4566   24.8385 C.3       1 UNL1        0.0000
      8 C8         12.0681   -0.9688   24.7217 C.3       1 UNL1        0.0000
      9 C9         10.3169   -2.4942   23.7064 C.3       1 UNL1        0.0000
     10 C10         9.5721   -0.4110   24.6224 C.3       1 UNL1        0.0000
     11 C11        12.7861    1.1011   23.4677 C.3       1 UNL1        0.0000
     12 C12        11.0296   -0.3598   22.5165 C.3       1 UNL1        0.0000
     13 C13         8.8245   -2.3903   23.3558 C.3       1 UNL1        0.0000
     14 C14         8.3207   -1.1625   24.1411 C.3       1 UNL1        0.0000
     15 C15        10.7759   -1.0369   23.8835 C.3       1 UNL1        0.0000
     16 C16        11.0459    3.4173   22.7113 C.3       1 UNL1        0.0000
     17 N1         11.5572    0.9996   22.6737 N.am      1 UNL1        0.0000
     18 N2          6.5636    0.4789   23.9935 N.am      1 UNL1        0.0000
     19 O1          7.6050   -0.2188   22.0640 O.2       1 UNL1        0.0000
     20 O2         10.2531    1.9700   21.0122 O.2       1 UNL1        0.0000
     21 S1          6.6233   -5.7745   23.3309 S.3       1 UNL1        0.0000
     22 Cl1        10.3276    3.2664   24.3110 Cl        1 UNL1        0.0000
@<TRIPOS>BOND
     1    1    2 2
     2    1    4 1
     3    2   21 1
     4    3    4 2
     5    3   21 1
     6    4   13 1
     7    5   14 1
     8    5   18 am
     9    5   19 2
    10    6   16 1
    11    6   17 am
    12    6   20 2
    13    7    8 1
    14    7   11 1
    15    8   15 1
    16    9   13 1
    17    9   15 1
    18   10   14 1
    19   10   15 1
    20   11   17 1
    21   12   15 1
    22   12   17 1
    23   13   14 1
    24   16   22 1
@<TRIPOS>MOLECULE
WAR-XCH-79d-8
   22    24     0     0     0
SMALL
NO_CHARGES

@<TRIPOS>ATOM
      1 C1          7.4230   -6.2014   21.1285 C.ar      1 UNL1        0.0000
      2 C2          7.8591   -5.4020   22.1792 C.ar      1 UNL1        0.0000
      3 C3          6.2881   -5.8049   20.4396 C.ar      1 UNL1        0.0000
      4 C4          6.0340   -3.9377   21.7538 C.ar      1 UNL1        0.0000
      5 C5          7.1569   -4.2468   22.5044 C.ar      1 UNL1        0.0000
      6 C6          4.8928   -6.6783   27.1462 C.2       1 UNL1        0.0000
      7 C7          9.6244   -1.3265   22.6889 C.3       1 UNL1        0.0000
      8 C8          8.1322   -1.1323   22.4407 C.3       1 UNL1        0.0000
      9 C9          9.9852   -2.7978   22.8643 C.3       1 UNL1        0.0000
     10 C10         7.2809   -1.8310   23.5068 C.3       1 UNL1        0.0000
     11 C11         9.1347   -3.4499   23.9561 C.3       1 UNL1        0.0000
     12 C12         6.9107   -5.2711   26.8834 C.3       1 UNL1        0.0000
     13 C13         4.7787   -4.4151   25.9918 C.3       1 UNL1        0.0000
     14 C14         7.6129   -4.9457   25.5732 C.3       1 UNL1        0.0000
     15 C15         5.4497   -4.0748   24.6680 C.3       1 UNL1        0.0000
     16 C16         7.6132   -3.3414   23.6597 C.3       1 UNL1        0.0000
     17 C17         3.4180   -6.8468   26.8813 C.3       1 UNL1        0.0000
     18 N1          5.5798   -4.6897   20.7262 N.ar      1 UNL1        0.0000
     19 N2          5.4830   -5.5086   26.6698 N.am      1 UNL1        0.0000
     20 N3          6.9120   -3.7783   24.9150 N.4       1 UNL1        0.0000
     21 O1          5.5007   -7.5619   27.7561 O.2       1 UNL1        0.0000
     22 Cl1         2.6051   -5.5115   27.6899 Cl        1 UNL1        0.0000
@<TRIPOS>BOND
     1    1    2 ar
     2    1    3 ar
     3    2    5 ar
     4    3   18 ar
     5    4    5 ar
     6    4   18 ar
     7    5   16 1
     8    6   17 1
     9    6   19 am
    10    6   21 2
    11    7    8 1
    12    7    9 1
    13    8   10 1
    14    9   11 1
    15   10   16 1
    16   11   16 1
    17   12   14 1
    18   12   19 1
    19   13   15 1
    20   13   19 1
    21   14   20 1
    22   15   20 1
    23   16   20 1
    24   17   22 1
@<TRIPOS>MOLECULE
MAK-UNK-af8-32
   32    34     0     0     0
SMALL
NO_CHARGES

@<TRIPOS>ATOM
      1 C1          5.6593    0.3315   18.8035 C.1       1 UNL1        0.0000
      2 C2          9.9072    6.0864   25.6336 C.1       1 UNL1        0.0000
      3 C3          5.6237    2.2411   20.3407 C.ar      1 UNL1        0.0000
      4 C4         12.0120    5.8290   24.4212 C.ar      1 UNL1        0.0000
      5 C5          5.8697    2.7702   21.6028 C.ar      1 UNL1        0.0000
      6 C6         12.8233    5.1064   23.5536 C.ar      1 UNL1        0.0000
      7 C7          6.4218    0.1415   21.1225 C.ar      1 UNL1        0.0000
      8 C8          5.9023    0.9025   20.0878 C.ar      1 UNL1        0.0000
      9 C9         10.7476    5.3490   24.7439 C.ar      1 UNL1        0.0000
     10 C10         6.3906    1.9254   22.5697 C.ar      1 UNL1        0.0000
     11 C11        12.3276    3.9189   23.0397 C.ar      1 UNL1        0.0000
     12 C12        10.3447    4.1508   24.1765 C.ar      1 UNL1        0.0000
     13 C13        13.3849   -2.7733   24.3801 C.2       1 UNL1        0.0000
     14 C14        13.4545   -0.3073   24.5672 C.3       1 UNL1        0.0000
     15 C15        11.6625   -1.3146   23.2082 C.3       1 UNL1        0.0000
     16 C16        13.7840    0.6683   23.4469 C.3       1 UNL1        0.0000
     17 C17        11.9639   -0.3522   22.0673 C.3       1 UNL1        0.0000
     18 C18        12.7071   -3.9841   23.7899 C.3       1 UNL1        0.0000
     19 C19         7.5530    1.8336   24.7756 C.3       1 UNL1        0.0000
     20 C20         8.9817    2.2197   24.4393 C.3       1 UNL1        0.0000
     21 C21        12.7654    1.9594   21.5678 C.3       1 UNL1        0.0000
     22 N1          5.4616   -0.1330   17.7586 N.1       1 UNL1        0.0000
     23 N2          9.2247    6.6853   26.3563 N.1       1 UNL1        0.0000
     24 N3          6.6740    0.6201   22.3614 N.ar      1 UNL1        0.0000
     25 N4         11.1048    3.4208   23.3299 N.ar      1 UNL1        0.0000
     26 N5         12.8522   -1.5311   24.0384 N.am      1 UNL1        0.0000
     27 N6          6.6274    2.4596   23.8039 N.pl3     1 UNL1        0.0000
     28 N7         13.1495    3.2090   22.1770 N.pl3     1 UNL1        0.0000
     29 N8         12.5340    0.9279   22.6360 N.4       1 UNL1        0.0000
     30 O1         14.3597   -2.9288   25.1201 O.2       1 UNL1        0.0000
     31 O2          9.1071    3.6361   24.4665 O.3       1 UNL1        0.0000
     32 Cl1        11.4758   -4.4846   24.9437 Cl        1 UNL1        0.0000
@<TRIPOS>BOND
     1    1    8 1
     2    1   22 3
     3    2    9 1
     4    2   23 3
     5    3    5 ar
     6    3    8 ar
     7    4    6 ar
     8    4    9 ar
     9    5   10 ar
    10    6   11 ar
    11    7    8 ar
    12    7   24 ar
    13    9   12 ar
    14   10   24 ar
    15   10   27 1
    16   11   25 ar
    17   11   28 1
    18   12   25 ar
    19   12   31 1
    20   13   18 1
    21   13   26 am
    22   13   30 2
    23   14   16 1
    24   14   26 1
    25   15   17 1
    26   15   26 1
    27   16   29 1
    28   17   29 1
    29   18   32 1
    30   19   20 1
    31   19   27 1
    32   20   31 1
    33   21   28 1
    34   21   29 1
@<TRIPOS>MOLECULE
NIY-UNK-626-5
   32    35     0     0     0
SMALL
NO_CHARGES

@<TRIPOS>ATOM
      1 C1          7.1801   -6.5768   21.8078 C.1       1 UNL1        0.0000
      2 C2          6.7678   -5.6784   22.4894 C.1       1 UNL1        0.0000
      3 C3         10.9959   -4.2438   24.4568 C.ar      1 UNL1        0.0000
      4 C4         11.5930   -3.3376   23.5807 C.ar      1 UNL1        0.0000
      5 C5          6.6422   -3.2936   23.0467 C.ar      1 UNL1        0.0000
      6 C6         10.8652   -1.5090   24.9774 C.ar      1 UNL1        0.0000
      7 C7          8.7591   -0.9585   22.6353 C.2       1 UNL1        0.0000
      8 C8          5.4259   -4.8560   24.3643 C.ar      1 UNL1        0.0000
      9 C9          5.3050   -2.6242   24.8960 C.ar      1 UNL1        0.0000
     10 C10         7.7177    1.0913   22.9763 C.2       1 UNL1        0.0000
     11 C11         6.2775   -4.6114   23.2991 C.ar      1 UNL1        0.0000
     12 C12        10.3261   -3.7917   25.6030 C.ar      1 UNL1        0.0000
     13 C13        10.2748   -2.4127   25.8711 C.ar      1 UNL1        0.0000
     14 C14         6.1511   -2.2750   23.8558 C.ar      1 UNL1        0.0000
     15 C15         7.6005   -0.2752   23.1053 C.2       1 UNL1        0.0000
     16 C16        11.5252   -1.9712   23.8394 C.ar      1 UNL1        0.0000
     17 C17         9.7177   -0.0881   22.1647 C.2       1 UNL1        0.0000
     18 C18         7.9340   -4.8613   28.3522 C.2       1 UNL1        0.0000
     19 C19         9.5431   -1.9024   27.0837 C.3       1 UNL1        0.0000
     20 C20         9.6849   -4.8008   26.5246 C.3       1 UNL1        0.0000
     21 C21         9.4985   -2.9563   28.1830 C.3       1 UNL1        0.0000
     22 C22         7.0905   -5.8184   27.5463 C.3       1 UNL1        0.0000
     23 N1          4.9284   -3.8929   25.1722 N.ar      1 UNL1        0.0000
     24 N2          8.9662   -4.2165   27.6663 N.am      1 UNL1        0.0000
     25 N3          6.5118   -0.8929   23.6183 N.pl3     1 UNL1        0.0000
     26 N4         10.9889   -0.4952   21.6293 N.pl3     1 UNL1        0.0000
     27 O1          7.6802   -4.6894   29.5469 O.2       1 UNL1        0.0000
     28 O2         13.3158   -1.5403   22.0135 O.2       1 UNL1        0.0000
     29 O3         12.6066    0.3740   23.4736 O.2       1 UNL1        0.0000
     30 S1          9.2197    1.5454   22.2907 S.3       1 UNL1        0.0000
     31 S2         12.2636   -0.8364   22.7371 S.o2      1 UNL1        0.0000
     32 Cl1         7.8792   -7.3884   27.6445 Cl        1 UNL1        0.0000
@<TRIPOS>BOND
     1    1    2 3
     2    2   11 1
     3    3    4 ar
     4    3   12 ar
     5    4   16 ar
     6    5   11 ar
     7    5   14 ar
     8    6   13 ar
     9    6   16 ar
    10    7   15 1
    11    7   17 2
    12    8   11 ar
    13    8   23 ar
    14    9   14 ar
    15    9   23 ar
    16   10   15 2
    17   10   30 1
    18   12   13 ar
    19   12   20 1
    20   13   19 1
    21   14   25 1
    22   15   25 1
    23   16   31 1
    24   17   26 1
    25   17   30 1
    26   18   22 1
    27   18   24 am
    28   18   27 2
    29   19   21 1
    30   20   24 1
    31   21   24 1
    32   22   32 1
    33   26   31 1
    34   28   31 2
    35   29   31 2
@<TRIPOS>MOLECULE
SIM-SYN-f15-1
   23    25     0     0     0
SMALL
NO_CHARGES

@<TRIPOS>ATOM
      1 C1          9.1488   -4.1384   26.2761 C.ar      1 UNL1        0.0000
      2 C2         12.6143    1.6642   23.9117 C.ar      1 UNL1        0.0000
      3 C3          9.4061   -2.8047   26.5930 C.ar      1 UNL1        0.0000
      4 C4          9.0038   -4.5231   24.9431 C.ar      1 UNL1        0.0000
      5 C5         12.9349    0.4080   23.3972 C.ar      1 UNL1        0.0000
      6 C6         11.2841    1.9911   24.1754 C.ar      1 UNL1        0.0000
      7 C7          9.5182   -1.8555   25.5771 C.ar      1 UNL1        0.0000
      8 C8          9.1159   -3.5739   23.9272 C.ar      1 UNL1        0.0000
      9 C9         11.9255   -0.5213   23.1463 C.ar      1 UNL1        0.0000
     10 C10        10.2746    1.0617   23.9245 C.ar      1 UNL1        0.0000
     11 C11         9.3732   -2.2401   24.2441 C.ar      1 UNL1        0.0000
     12 C12        10.5953   -0.1945   23.4100 C.ar      1 UNL1        0.0000
     13 C13         6.0937   -1.9502   19.4095 C.2       1 UNL1        0.0000
     14 C14         6.9649   -2.4259   21.6746 C.3       1 UNL1        0.0000
     15 C15         8.1705   -0.7765   20.2889 C.3       1 UNL1        0.0000
     16 C16         6.9975   -1.4784   22.8647 C.3       1 UNL1        0.0000
     17 C17         8.2219    0.1933   21.4619 C.3       1 UNL1        0.0000
     18 C18         5.7432   -0.8004   18.4990 C.3       1 UNL1        0.0000
     19 C19         9.4950   -1.2063   23.1366 C.3       1 UNL1        0.0000
     20 N1          7.0306   -1.6923   20.4101 N.am      1 UNL1        0.0000
     21 N2          8.1891   -0.5535   22.7749 N.4       1 UNL1        0.0000
     22 O1          5.5482   -3.0432   19.2368 O.2       1 UNL1        0.0000
     23 Cl1         5.0519    0.4568   19.5185 Cl        1 UNL1        0.0000
@<TRIPOS>BOND
     1    1    3 ar
     2    1    4 ar
     3    2    5 ar
     4    2    6 ar
     5    3    7 ar
     6    4    8 ar
     7    5    9 ar
     8    6   10 ar
     9    7   11 ar
    10    8   11 ar
    11    9   12 ar
    12   10   12 ar
    13   11   19 1
    14   12   19 1
    15   13   18 1
    16   13   20 am
    17   13   22 2
    18   14   16 1
    19   14   20 1
    20   15   17 1
    21   15   20 1
    22   16   21 1
    23   17   21 1
    24   18   23 1
    25   19   21 1
@<TRIPOS>MOLECULE
NIY-UNK-626-1
   33    36     0     0     0
SMALL
NO_CHARGES

@<TRIPOS>ATOM
      1 C1          3.5298    2.9077   19.7247 C.1       1 UNL1        0.0000
      2 C2          4.4893    2.1974   19.8539 C.1       1 UNL1        0.0000
      3 C3          8.6088   -3.7257   29.1519 C.ar      1 UNL1        0.0000
      4 C4          5.9968    0.4578   19.0102 C.ar      1 UNL1        0.0000
      5 C5          7.6136   -4.5931   28.7028 C.ar      1 UNL1        0.0000
      6 C6          9.4823   -3.1373   28.2411 C.ar      1 UNL1        0.0000
      7 C7          7.1135   -0.3515   19.1874 C.ar      1 UNL1        0.0000
      8 C8          9.8967   -0.5117   22.7464 C.2       1 UNL1        0.0000
      9 C9          6.4049    1.4015   21.1548 C.ar      1 UNL1        0.0000
     10 C10        10.9416   -2.1391   21.4571 C.2       1 UNL1        0.0000
     11 C11         5.6290    1.3537   20.0079 C.ar      1 UNL1        0.0000
     12 C12         7.4906   -4.8856   27.3378 C.ar      1 UNL1        0.0000
     13 C13         8.3596   -4.2789   26.4143 C.ar      1 UNL1        0.0000
     14 C14         9.3584   -3.4110   26.8791 C.ar      1 UNL1        0.0000
     15 C15         9.8979   -1.2425   21.5232 C.2       1 UNL1        0.0000
     16 C16        10.9396   -0.8779   23.5688 C.2       1 UNL1        0.0000
     17 C17         7.8231   -0.2271   20.3710 C.ar      1 UNL1        0.0000
     18 C18         6.5499   -5.4391   23.2833 C.2       1 UNL1        0.0000
     19 C19         6.3973   -5.8038   26.8606 C.3       1 UNL1        0.0000
     20 C20         8.2503   -4.5458   24.9325 C.3       1 UNL1        0.0000
     21 C21         6.7621   -6.4477   25.5289 C.3       1 UNL1        0.0000
     22 C22        10.3183   -2.7533   25.9392 C.3       1 UNL1        0.0000
     23 C23        11.2845   -0.3510   24.9275 C.3       1 UNL1        0.0000
     24 C24         7.1130   -4.4673   22.2755 C.3       1 UNL1        0.0000
     25 N1          7.4964    0.6315   21.3628 N.ar      1 UNL1        0.0000
     26 N2          7.1382   -5.4282   24.5503 N.am      1 UNL1        0.0000
     27 N3          8.9828   -1.0773   20.5404 N.pl3     1 UNL1        0.0000
     28 O1          5.6169   -6.1768   22.9568 O.2       1 UNL1        0.0000
     29 O2         10.5168   -0.6038   27.4134 O.2       1 UNL1        0.0000
     30 O3          8.7757   -0.6727   25.5870 O.2       1 UNL1        0.0000
     31 S1         11.9143   -2.0978   22.8659 S.3       1 UNL1        0.0000
     32 S2         10.1011   -1.0101   26.0806 S.o2      1 UNL1        0.0000
     33 Cl1         6.1681   -2.9899   22.4197 Cl        1 UNL1        0.0000
@<TRIPOS>BOND
     1    1    2 3
     2    2   11 1
     3    3    5 ar
     4    3    6 ar
     5    4    7 ar
     6    4   11 ar
     7    5   12 ar
     8    6   14 ar
     9    7   17 ar
    10    8   15 1
    11    8   16 2
    12    9   11 ar
    13    9   25 ar
    14   10   15 2
    15   10   31 1
    16   12   13 ar
    17   12   19 1
    18   13   14 ar
    19   13   20 1
    20   14   22 1
    21   15   27 1
    22   16   23 1
    23   16   31 1
    24   17   25 ar
    25   17   27 1
    26   18   24 1
    27   18   26 am
    28   18   28 2
    29   19   21 1
    30   20   26 1
    31   21   26 1
    32   22   32 1
    33   23   32 1
    34   24   33 1
    35   29   32 2
    36   30   32 2
@<TRIPOS>MOLECULE
DAV-CRI-d1e-4
   21    22     0     0     0
SMALL
NO_CHARGES

@<TRIPOS>ATOM
      1 C1         13.0970   -1.3896   21.5194 C.1       1 UNL1        0.0000
      2 C2         12.9492    0.4934   23.0950 C.2       1 UNL1        0.0000
      3 C3         12.4392   -0.6716   22.5657 C.2       1 UNL1        0.0000
      4 C4         11.2114   -1.0475   23.1832 C.2       1 UNL1        0.0000
      5 C5         10.8299   -0.1555   24.1613 C.2       1 UNL1        0.0000
      6 C6          6.0711   -2.1280   19.3903 C.2       1 UNL1        0.0000
      7 C7          6.8289   -2.8205   21.6413 C.3       1 UNL1        0.0000
      8 C8          7.6251   -0.6586   20.7665 C.3       1 UNL1        0.0000
      9 C9          8.2479   -3.2092   22.0299 C.3       1 UNL1        0.0000
     10 C10         9.0568   -1.0142   21.1439 C.3       1 UNL1        0.0000
     11 C11         7.7107    0.6525   26.0026 C.3       1 UNL1        0.0000
     12 C12        10.4256   -2.2706   22.8122 C.3       1 UNL1        0.0000
     13 C13         6.1305   -1.0979   18.2907 C.3       1 UNL1        0.0000
     14 C14         9.1349    0.9138   25.6478 C.3       1 UNL1        0.0000
     15 N1         13.6310   -1.9725   20.6698 N.1       1 UNL1        0.0000
     16 N2          6.8301   -1.8685   20.5305 N.am      1 UNL1        0.0000
     17 N3          9.7168   -0.2198   24.9362 N.pl3     1 UNL1        0.0000
     18 N4          9.0384   -1.9548   22.3280 N.4       1 UNL1        0.0000
     19 O1          5.3727   -3.1334   19.2374 O.2       1 UNL1        0.0000
     20 S1         11.9495    1.1289   24.3316 S.3       1 UNL1        0.0000
     21 Cl1         5.5121    0.4025   18.9722 Cl        1 UNL1        0.0000
@<TRIPOS>BOND
     1    1    3 1
     2    1   15 3
     3    2    3 2
     4    2   20 1
     5    3    4 1
     6    4    5 2
     7    4   12 1
     8    5   17 1
     9    5   20 1
    10    6   13 1
    11    6   16 am
    12    6   19 2
    13    7    9 1
    14    7   16 1
    15    8   10 1
    16    8   16 1
    17    9   18 1
    18   10   18 1
    19   11   14 1
    20   12   18 1
    21   13   21 1
    22   14   17 1
@<TRIPOS>MOLECULE
MAK-UNK-af8-29
   30    33     0     0     0
SMALL
NO_CHARGES

@<TRIPOS>ATOM
      1 C1         13.3094    3.2010   24.1645 C.ar      1 UNL1        0.0000
      2 C2         13.6341    4.4963   24.5521 C.ar      1 UNL1        0.0000
      3 C3         11.0466    3.8943   23.9288 C.ar      1 UNL1        0.0000
      4 C4         10.5875   -0.0204   22.4749 C.2       1 UNL1        0.0000
      5 C5         11.9933    2.8860   23.8452 C.ar      1 UNL1        0.0000
      6 C6         11.6284    1.5621   23.4427 C.2       1 UNL1        0.0000
      7 C7         12.6139    5.4325   24.6039 C.ar      1 UNL1        0.0000
      8 C8         12.2578    0.4082   23.8548 C.2       1 UNL1        0.0000
      9 C9         13.6171   -1.0891   24.8258 C.2       1 UNL1        0.0000
     10 C10        12.9501   -2.2737   24.1905 C.2       1 UNL1        0.0000
     11 C11        11.9123   -1.9718   23.3804 C.2       1 UNL1        0.0000
     12 C12         6.2677   -4.8335   24.6169 C.2       1 UNL1        0.0000
     13 C13         7.9682   -3.0497   24.8355 C.3       1 UNL1        0.0000
     14 C14         7.3678   -3.8046   22.5678 C.3       1 UNL1        0.0000
     15 C15         9.4488   -3.1769   24.5082 C.3       1 UNL1        0.0000
     16 C16         8.8405   -3.9415   22.2054 C.3       1 UNL1        0.0000
     17 C17        13.5263   -3.6070   24.5382 C.3       1 UNL1        0.0000
     18 C18        11.0110    7.9889   25.6714 C.3       1 UNL1        0.0000
     19 C19        11.1005   -2.9753   22.6463 C.3       1 UNL1        0.0000
     20 C20         6.0159   -6.1391   23.9058 C.3       1 UNL1        0.0000
     21 C21        12.1445    7.8808   24.7091 C.3       1 UNL1        0.0000
     22 N1         11.3240    5.1639   24.3013 N.ar      1 UNL1        0.0000
     23 N2         10.5951    1.2888   22.5884 N.2       1 UNL1        0.0000
     24 N3         13.3073    0.1624   24.6798 N.2       1 UNL1        0.0000
     25 N4         11.5763   -0.6183   23.2217 N.pl3     1 UNL1        0.0000
     26 N5          7.1680   -3.9570   24.0129 N.am      1 UNL1        0.0000
     27 N6         12.9609    6.7478   25.0006 N.pl3     1 UNL1        0.0000
     28 N7          9.6462   -2.9582   23.0248 N.4       1 UNL1        0.0000
     29 O1          5.6829   -4.6026   25.6784 O.2       1 UNL1        0.0000
     30 Cl1         4.6420   -5.8743   22.8380 Cl        1 UNL1        0.0000
@<TRIPOS>BOND
     1    1    2 ar
     2    1    5 ar
     3    2    7 ar
     4    3    5 ar
     5    3   22 ar
     6    4   23 2
     7    4   25 1
     8    5    6 1
     9    6    8 2
    10    6   23 1
    11    7   22 ar
    12    7   27 1
    13    8   24 1
    14    8   25 1
    15    9   10 1
    16    9   24 2
    17   10   11 2
    18   10   17 1
    19   11   19 1
    20   11   25 1
    21   12   20 1
    22   12   26 am
    23   12   29 2
    24   13   15 1
    25   13   26 1
    26   14   16 1
    27   14   26 1
    28   15   28 1
    29   16   28 1
    30   18   21 1
    31   19   28 1
    32   20   30 1
    33   21   27 1
@<TRIPOS>MOLECULE
JAN-GHE-bf4-13
   22    23     0     0     0
SMALL
NO_CHARGES

@<TRIPOS>ATOM
      1 C1          6.0225   -3.1492   20.2303 C.1       1 UNL1        0.0000
      2 C2          5.6687   -2.6196   22.6169 C.2       1 UNL1        0.0000
      3 C3          6.1330   -2.4195   23.8583 C.2       1 UNL1        0.0000
      4 C4          7.8785   -2.5299   21.6216 C.2       1 UNL1        0.0000
      5 C5          9.2038   -3.8612   24.2519 C.2       1 UNL1        0.0000
      6 C6          6.5635   -2.7726   21.4908 C.2       1 UNL1        0.0000
      7 C7          9.9292    3.7563   25.2286 C.2       1 UNL1        0.0000
      8 C8          9.6591    2.9890   24.1675 C.2       1 UNL1        0.0000
      9 C9         10.2931    1.6463   24.0356 C.2       1 UNL1        0.0000
     10 C10         8.5031   -2.0912   22.9283 C.3       1 UNL1        0.0000
     11 C11         7.6012   -2.3272   24.1622 C.3       1 UNL1        0.0000
     12 C12         9.7640   -2.8839   23.2681 C.3       1 UNL1        0.0000
     13 C13        12.4310    2.7293   23.4585 C.3       1 UNL1        0.0000
     14 C14        11.5263   -1.7215   21.5720 C.3       1 UNL1        0.0000
     15 C15        10.8404   -2.0468   23.9435 C.3       1 UNL1        0.0000
     16 C16        12.5041    0.4889   24.4931 C.3       1 UNL1        0.0000
     17 C17        12.7366   -0.5296   23.3931 C.3       1 UNL1        0.0000
     18 N1          5.5816   -3.4566   19.2023 N.1       1 UNL1        0.0000
     19 N2          8.0438   -3.6078   24.7624 N.2       1 UNL1        0.0000
     20 N3         11.6791    1.6091   23.9883 N.am      1 UNL1        0.0000
     21 N4         11.4151   -1.1136   22.9508 N.4       1 UNL1        0.0000
     22 O1          9.5845    0.6421   23.9493 O.2       1 UNL1        0.0000
@<TRIPOS>BOND
     1    1    6 1
     2    1   18 3
     3    2    3 2
     4    2    6 1
     5    3   11 1
     6    4    6 2
     7    4   10 1
     8    5   12 1
     9    5   19 2
    10    7    8 2
    11    8    9 1
    12    9   20 am
    13    9   22 2
    14   10   11 1
    15   10   12 1
    16   11   19 1
    17   12   15 1
    18   13   20 1
    19   14   21 1
    20   15   21 1
    21   16   17 1
    22   16   20 1
    23   17   21 1
@<TRIPOS>MOLECULE
NAU-LAT-f72-1
   27    29     0     0     0
SMALL
NO_CHARGES

@<TRIPOS>ATOM
      1 C1         13.2638   -0.2439   23.7117 C.ar      1 UNL1        0.0000
      2 C2         11.6598   -1.9410   23.0452 C.ar      1 UNL1        0.0000
      3 C3         10.7911    2.2214   24.7927 C.2       1 UNL1        0.0000
      4 C4         12.2007    0.6012   24.0875 C.ar      1 UNL1        0.0000
      5 C5         10.5891   -1.1203   23.4112 C.ar      1 UNL1        0.0000
      6 C6         12.1224    1.9129   24.6336 C.2       1 UNL1        0.0000
      7 C7         10.8906    0.1444   23.9288 C.ar      1 UNL1        0.0000
      8 C8         12.9773   -1.5116   23.1924 C.ar      1 UNL1        0.0000
      9 C9          6.7790   -4.8885   27.0065 C.2       1 UNL1        0.0000
     10 C10        12.8287    4.9767   22.8504 C.2       1 UNL1        0.0000
     11 C11         8.6778   -3.3541   26.6048 C.3       1 UNL1        0.0000
     12 C12         6.4735   -2.7301   25.6966 C.3       1 UNL1        0.0000
     13 C13         9.3342   -3.0718   25.2613 C.3       1 UNL1        0.0000
     14 C14         7.0974   -2.4364   24.3390 C.3       1 UNL1        0.0000
     15 C15        11.9770    5.6265   21.8109 C.3       1 UNL1        0.0000
     16 C16        13.2589    2.7931   24.9727 C.3       1 UNL1        0.0000
     17 C17         9.1832   -1.6149   23.2389 C.3       1 UNL1        0.0000
     18 C18         5.3181   -5.1878   26.7832 C.3       1 UNL1        0.0000
     19 C19        12.8627    4.2583   25.2306 C.3       1 UNL1        0.0000
     20 N1         10.0559    1.1485   24.3651 N.pl3     1 UNL1        0.0000
     21 N2          7.2700   -3.7147   26.4367 N.am      1 UNL1        0.0000
     22 N3         12.2214    4.8553   24.0900 N.am      1 UNL1        0.0000
     23 N4          8.5357   -2.0120   24.5356 N.4       1 UNL1        0.0000
     24 O1          7.4620   -5.6766   27.6656 O.2       1 UNL1        0.0000
     25 O2         13.9597    4.6055   22.5594 O.2       1 UNL1        0.0000
     26 F1         13.9829   -2.3212   22.8329 F         1 UNL1        0.0000
     27 Cl1         4.9924   -6.7261   27.5740 Cl        1 UNL1        0.0000
@<TRIPOS>BOND
     1    1    4 ar
     2    1    8 ar
     3    2    5 ar
     4    2    8 ar
     5    3    6 2
     6    3   20 1
     7    4    6 1
     8    4    7 ar
     9    5    7 ar
    10    5   17 1
    11    6   16 1
    12    7   20 1
    13    8   26 1
    14    9   18 1
    15    9   21 am
    16    9   24 2
    17   10   15 1
    18   10   22 am
    19   10   25 2
    20   11   13 1
    21   11   21 1
    22   12   14 1
    23   12   21 1
    24   13   23 1
    25   14   23 1
    26   16   19 1
    27   17   23 1
    28   18   27 1
    29   19   22 1
@<TRIPOS>MOLECULE
NIR-THE-99f-4
   25    27     0     0     0
SMALL
NO_CHARGES

@<TRIPOS>ATOM
      1 C1          8.5977   -2.0960   24.9370 C.ar      1 UNL1        0.0000
      2 C2          5.0715   -3.8723   24.4153 C.2       1 UNL1        0.0000
      3 C3          8.8793   -1.0476   25.7979 C.ar      1 UNL1        0.0000
      4 C4          4.0728   -4.4066   25.1993 C.2       1 UNL1        0.0000
      5 C5          5.3804   -6.1476   24.0554 C.2       1 UNL1        0.0000
      6 C6          9.5242   -2.3882   23.9423 C.ar      1 UNL1        0.0000
      7 C7          5.8290   -4.8808   23.7525 C.2       1 UNL1        0.0000
      8 C8         10.6877   -1.6336   23.8404 C.ar      1 UNL1        0.0000
      9 C9         10.8756   -0.6058   24.7504 C.ar      1 UNL1        0.0000
     10 C10         6.1933   -3.2795   20.8235 C.2       1 UNL1        0.0000
     11 C11        12.0508   -1.0389   21.8527 C.2       1 UNL1        0.0000
     12 C12         8.3574   -4.6636   23.5511 C.3       1 UNL1        0.0000
     13 C13         8.4953   -3.0548   21.7355 C.3       1 UNL1        0.0000
     14 C14         9.2381   -3.5334   22.9858 C.3       1 UNL1        0.0000
     15 C15         6.9931   -4.5912   22.8234 C.3       1 UNL1        0.0000
     16 C16         7.0188   -3.2471   22.0737 C.3       1 UNL1        0.0000
     17 C17        13.0818   -1.6746   20.9493 C.3       1 UNL1        0.0000
     18 N1          9.9984   -0.2922   25.7300 N.ar      1 UNL1        0.0000
     19 N2          6.2952   -2.1393   20.0620 N.am      1 UNL1        0.0000
     20 N3         11.6304   -1.9125   22.8472 N.am      1 UNL1        0.0000
     21 O1          5.5089   -4.2530   20.5182 O.2       1 UNL1        0.0000
     22 O2         11.6729    0.1110   21.6450 O.2       1 UNL1        0.0000
     23 S1          4.0511   -6.1176   25.1345 S.3       1 UNL1        0.0000
     24 Cl1        12.2711    0.4030   24.7340 Cl        1 UNL1        0.0000
     25 Cl2        12.2211   -2.4566   19.6139 Cl        1 UNL1        0.0000
@<TRIPOS>BOND
     1    1    3 ar
     2    1    6 ar
     3    2    4 2
     4    2    7 1
     5    3   18 ar
     6    4   23 1
     7    5    7 2
     8    5   23 1
     9    6    8 ar
    10    6   14 1
    11    7   15 1
    12    8    9 ar
    13    8   20 1
    14    9   18 ar
    15    9   24 1
    16   10   16 1
    17   10   19 am
    18   10   21 2
    19   11   17 1
    20   11   20 am
    21   11   22 2
    22   12   14 1
    23   12   15 1
    24   13   14 1
    25   13   16 1
    26   15   16 1
    27   17   25 1
@<TRIPOS>MOLECULE
DAN-LON-a5f-5
   24    26     0     0     0
SMALL
NO_CHARGES

@<TRIPOS>ATOM
      1 C1          3.9696   -5.0751   23.6738 C.ar      1 UNL1        0.0000
      2 C2          4.8445   -5.8738   22.9374 C.ar      1 UNL1        0.0000
      3 C3          4.1864   -3.6999   23.7609 C.ar      1 UNL1        0.0000
      4 C4         11.9938    0.7735   24.0591 C.ar      1 UNL1        0.0000
      5 C5          5.9361   -5.2973   22.2881 C.ar      1 UNL1        0.0000
      6 C6          5.2780   -3.1234   23.1116 C.ar      1 UNL1        0.0000
      7 C7         10.9572   -0.0189   24.5522 C.ar      1 UNL1        0.0000
      8 C8         12.8009    0.3013   23.0240 C.ar      1 UNL1        0.0000
      9 C9         11.5350   -1.7559   22.9755 C.ar      1 UNL1        0.0000
     10 C10         6.1529   -3.9221   22.3752 C.ar      1 UNL1        0.0000
     11 C11        10.7278   -1.2836   24.0105 C.ar      1 UNL1        0.0000
     12 C12        12.5715   -0.9634   22.4823 C.ar      1 UNL1        0.0000
     13 C13         6.2215   -1.9053   19.9532 C.2       1 UNL1        0.0000
     14 C14         7.8341   -0.8318   21.5785 C.3       1 UNL1        0.0000
     15 C15         8.0457   -0.8337   23.0860 C.3       1 UNL1        0.0000
     16 C16         8.5860   -3.2573   22.5673 C.3       1 UNL1        0.0000
     17 C17         7.3467   -3.2910   21.6655 C.3       1 UNL1        0.0000
     18 C18         9.6135   -2.1359   24.5423 C.3       1 UNL1        0.0000
     19 C19         6.1399   -0.5759   19.2456 C.3       1 UNL1        0.0000
     20 N1          7.0545   -1.9691   21.0790 N.am      1 UNL1        0.0000
     21 N2          8.4247   -2.1934   23.6222 N.4       1 UNL1        0.0000
     22 O1          5.5630   -2.8582   19.5277 O.2       1 UNL1        0.0000
     23 Cl1        13.5684   -1.5460   21.2061 Cl        1 UNL1        0.0000
     24 Cl2         4.7939    0.2977   19.9686 Cl        1 UNL1        0.0000
@<TRIPOS>BOND
     1    1    2 ar
     2    1    3 ar
     3    2    5 ar
     4    3    6 ar
     5    4    7 ar
     6    4    8 ar
     7    5   10 ar
     8    6   10 ar
     9    7   11 ar
    10    8   12 ar
    11    9   11 ar
    12    9   12 ar
    13   10   17 1
    14   11   18 1
    15   12   23 1
    16   13   19 1
    17   13   20 am
    18   13   22 2
    19   14   15 1
    20   14   20 1
    21   15   21 1
    22   16   17 1
    23   16   21 1
    24   17   20 1
    25   18   21 1
    26   19   24 1
@<TRIPOS>MOLECULE
NIR-THE-99f-1
   30    33     0     0     0
SMALL
NO_CHARGES

@<TRIPOS>ATOM
      1 C1         12.2583    4.3896   22.9559 C.ar      1 UNL1        0.0000
      2 C2         11.7345    3.2049   22.4470 C.ar      1 UNL1        0.0000
      3 C3          8.5759    4.6568   26.1245 C.ar      1 UNL1        0.0000
      4 C4         11.6072    5.0506   23.9978 C.ar      1 UNL1        0.0000
      5 C5         10.5576    2.6766   22.9781 C.ar      1 UNL1        0.0000
      6 C6          9.7528    5.1851   25.5934 C.ar      1 UNL1        0.0000
      7 C7          8.0520    3.4721   25.6156 C.ar      1 UNL1        0.0000
      8 C8         11.4568   -0.7613   22.2637 C.2       1 UNL1        0.0000
      9 C9         12.7254   -0.2873   22.0112 C.2       1 UNL1        0.0000
     10 C10        12.1113   -0.0654   24.3826 C.2       1 UNL1        0.0000
     11 C11        10.4215    4.5332   24.5445 C.ar      1 UNL1        0.0000
     12 C12         9.8888    3.3285   24.0270 C.ar      1 UNL1        0.0000
     13 C13        11.1010   -0.6326   23.6373 C.2       1 UNL1        0.0000
     14 C14         8.7031    2.8111   24.5737 C.ar      1 UNL1        0.0000
     15 C15         9.2295   -3.4556   23.6400 C.2       1 UNL1        0.0000
     16 C16         6.6507    2.1722   22.1474 C.2       1 UNL1        0.0000
     17 C17         8.9021   -2.5503   25.9358 C.3       1 UNL1        0.0000
     18 C18         9.2195   -1.2205   26.5980 C.3       1 UNL1        0.0000
     19 C19         9.7619   -1.0718   24.2118 C.3       1 UNL1        0.0000
     20 C20         9.7792   -2.5401   24.6895 C.3       1 UNL1        0.0000
     21 C21         9.3232   -0.2251   25.4373 C.3       1 UNL1        0.0000
     22 C22         5.2134    2.3718   21.7395 C.3       1 UNL1        0.0000
     23 C23         7.9844    0.4698   25.1790 C.3       1 UNL1        0.0000
     24 C24         8.0784    1.5267   24.0676 C.3       1 UNL1        0.0000
     25 N1          9.1473   -4.7691   24.0378 N.am      1 UNL1        0.0000
     26 N2          6.7883    1.7905   23.4703 N.am      1 UNL1        0.0000
     27 O1          8.8748   -3.0462   22.5373 O.2       1 UNL1        0.0000
     28 O2          7.5776    2.3258   21.3539 O.2       1 UNL1        0.0000
     29 S1         13.4818    0.3096   23.4268 S.3       1 UNL1        0.0000
     30 Cl1         4.7897    4.0630   22.0480 Cl        1 UNL1        0.0000
@<TRIPOS>BOND
     1    1    2 ar
     2    1    4 ar
     3    2    5 ar
     4    3    6 ar
     5    3    7 ar
     6    4   11 ar
     7    5   12 ar
     8    6   11 ar
     9    7   14 ar
    10    8    9 2
    11    8   13 1
    12    9   29 1
    13   10   13 2
    14   10   29 1
    15   11   12 ar
    16   12   14 ar
    17   13   19 1
    18   14   24 1
    19   15   20 1
    20   15   25 am
    21   15   27 2
    22   16   22 1
    23   16   26 am
    24   16   28 2
    25   17   18 1
    26   17   20 1
    27   18   21 1
    28   19   20 1
    29   19   21 1
    30   21   23 1
    31   22   30 1
    32   23   24 1
    33   24   26 1
@<TRIPOS>MOLECULE
NIM-UNI-594-2
   26    28     0     0     0
SMALL
NO_CHARGES

@<TRIPOS>ATOM
      1 C1         11.3662   -1.0953   23.3450 C.ar      1 UNL1        0.0000
      2 C2         13.1766    0.4658   23.6951 C.ar      1 UNL1        0.0000
      3 C3         12.0485   -1.6430   22.2587 C.ar      1 UNL1        0.0000
      4 C4         13.8590   -0.0820   22.6088 C.ar      1 UNL1        0.0000
      5 C5          8.8134    3.0225   24.2749 C.2       1 UNL1        0.0000
      6 C6         11.9302   -0.0408   24.0632 C.ar      1 UNL1        0.0000
      7 C7         13.2949   -1.1364   21.8906 C.ar      1 UNL1        0.0000
      8 C8         10.0667    2.7543   24.7651 C.2       1 UNL1        0.0000
      9 C9         10.5384    6.0124   24.9675 C.2       1 UNL1        0.0000
     10 C10        11.4203    3.8326   22.2213 C.3       1 UNL1        0.0000
     11 C11        12.4174    3.7800   21.0698 C.3       1 UNL1        0.0000
     12 C12        13.4316    4.5222   23.4216 C.3       1 UNL1        0.0000
     13 C13        11.9613    4.8766   23.2023 C.3       1 UNL1        0.0000
     14 C14        11.1952    0.5493   25.2362 C.3       1 UNL1        0.0000
     15 C15        11.2009    3.6426   25.1877 C.3       1 UNL1        0.0000
     16 C16         9.9963    6.9839   23.9382 C.3       1 UNL1        0.0000
     17 N1          8.1519    1.8496   24.0381 N.2       1 UNL1        0.0000
     18 N2          8.9618    0.8500   24.3698 N.2       1 UNL1        0.0000
     19 N3         10.1093    1.3946   24.8056 N.pl3     1 UNL1        0.0000
     20 N4         11.2232    4.8994   24.4345 N.am      1 UNL1        0.0000
     21 O1         10.3797    6.2024   26.1759 O.2       1 UNL1        0.0000
     22 O2         14.7194    5.0561   21.1816 O.2       1 UNL1        0.0000
     23 O3         14.6171    2.6536   21.9911 O.2       1 UNL1        0.0000
     24 S1         14.0232    3.9646   21.8303 S.o2      1 UNL1        0.0000
     25 Cl1        14.1365   -1.8124   20.5507 Cl        1 UNL1        0.0000
     26 Cl2         8.8174    6.1861   22.8780 Cl        1 UNL1        0.0000
@<TRIPOS>BOND
     1    1    3 ar
     2    1    6 ar
     3    2    4 ar
     4    2    6 ar
     5    3    7 ar
     6    4    7 ar
     7    5    8 2
     8    5   17 1
     9    6   14 1
    10    7   25 1
    11    8   15 1
    12    8   19 1
    13    9   16 1
    14    9   20 am
    15    9   21 2
    16   10   11 1
    17   10   13 1
    18   11   24 1
    19   12   13 1
    20   12   24 1
    21   13   20 1
    22   14   19 1
    23   15   20 1
    24   16   26 1
    25   17   18 2
    26   18   19 1
    27   22   24 2
    28   23   24 2
@<TRIPOS>MOLECULE
NIM-UNI-bb6-1
   26    28     0     0     0
SMALL
NO_CHARGES

@<TRIPOS>ATOM
      1 C1         11.3662   -1.0953   23.3450 C.ar      1 UNL1        0.0000
      2 C2         13.1766    0.4658   23.6951 C.ar      1 UNL1        0.0000
      3 C3         12.0485   -1.6430   22.2587 C.ar      1 UNL1        0.0000
      4 C4         13.8590   -0.0820   22.6088 C.ar      1 UNL1        0.0000
      5 C5          8.8134    3.0225   24.2749 C.2       1 UNL1        0.0000
      6 C6         11.9302   -0.0408   24.0632 C.ar      1 UNL1        0.0000
      7 C7         13.2949   -1.1364   21.8906 C.ar      1 UNL1        0.0000
      8 C8         10.0667    2.7543   24.7651 C.2       1 UNL1        0.0000
      9 C9         10.5384    6.0124   24.9675 C.2       1 UNL1        0.0000
     10 C10        11.4203    3.8326   22.2213 C.3       1 UNL1        0.0000
     11 C11        12.4174    3.7800   21.0698 C.3       1 UNL1        0.0000
     12 C12        13.4316    4.5222   23.4216 C.3       1 UNL1        0.0000
     13 C13        11.9613    4.8766   23.2023 C.3       1 UNL1        0.0000
     14 C14        11.1952    0.5493   25.2362 C.3       1 UNL1        0.0000
     15 C15        11.2009    3.6426   25.1877 C.3       1 UNL1        0.0000
     16 C16         9.9963    6.9839   23.9382 C.3       1 UNL1        0.0000
     17 N1          8.1519    1.8496   24.0381 N.2       1 UNL1        0.0000
     18 N2          8.9618    0.8500   24.3698 N.2       1 UNL1        0.0000
     19 N3         10.1093    1.3946   24.8056 N.pl3     1 UNL1        0.0000
     20 N4         11.2232    4.8994   24.4345 N.am      1 UNL1        0.0000
     21 O1         10.3797    6.2024   26.1759 O.2       1 UNL1        0.0000
     22 O2         14.7194    5.0561   21.1816 O.2       1 UNL1        0.0000
     23 O3         14.6171    2.6536   21.9911 O.2       1 UNL1        0.0000
     24 S1         14.0232    3.9646   21.8303 S.o2      1 UNL1        0.0000
     25 Cl1        14.1365   -1.8124   20.5507 Cl        1 UNL1        0.0000
     26 Cl2         8.8174    6.1861   22.8780 Cl        1 UNL1        0.0000
@<TRIPOS>BOND
     1    1    3 ar
     2    1    6 ar
     3    2    4 ar
     4    2    6 ar
     5    3    7 ar
     6    4    7 ar
     7    5    8 2
     8    5   17 1
     9    6   14 1
    10    7   25 1
    11    8   15 1
    12    8   19 1
    13    9   16 1
    14    9   20 am
    15    9   21 2
    16   10   11 1
    17   10   13 1
    18   11   24 1
    19   12   13 1
    20   12   24 1
    21   13   20 1
    22   14   19 1
    23   15   20 1
    24   16   26 1
    25   17   18 2
    26   18   19 1
    27   22   24 2
    28   23   24 2
@<TRIPOS>MOLECULE
PAU-UNI-b2b-1
   20    22     0     0     0
SMALL
NO_CHARGES

@<TRIPOS>ATOM
      1 C1         12.3863    0.8950   24.4521 C.ar      1 UNL1        0.0000
      2 C2         11.3709    0.3268   25.2911 C.ar      1 UNL1        0.0000
      3 C3         12.8221    0.3210   23.2377 C.ar      1 UNL1        0.0000
      4 C4         10.6864   -0.8741   25.0025 C.ar      1 UNL1        0.0000
      5 C5         12.3788   -1.6179   21.8381 C.2       1 UNL1        0.0000
      6 C6         12.1413   -0.8638   22.9606 C.ar      1 UNL1        0.0000
      7 C7         11.1226   -1.4339   23.8023 C.ar      1 UNL1        0.0000
      8 C8         10.6156   -2.6046   23.2952 C.2       1 UNL1        0.0000
      9 C9          6.0444   -2.3517   19.7142 C.2       1 UNL1        0.0000
     10 C10         6.8532   -4.1493   21.2093 C.3       1 UNL1        0.0000
     11 C11         6.5118   -1.9076   22.1743 C.3       1 UNL1        0.0000
     12 C12         8.2335   -4.2349   21.8441 C.3       1 UNL1        0.0000
     13 C13         7.8872   -1.9602   22.8256 C.3       1 UNL1        0.0000
     14 C14         9.5560   -3.5181   23.8372 C.3       1 UNL1        0.0000
     15 C15         6.3259   -0.9195   19.3359 C.3       1 UNL1        0.0000
     16 N1          6.4655   -2.7575   20.9797 N.am      1 UNL1        0.0000
     17 N2          8.2481   -3.4018   23.1062 N.4       1 UNL1        0.0000
     18 O1          5.4697   -3.0867   18.9069 O.2       1 UNL1        0.0000
     19 S1         11.3706   -3.0135   21.8024 S.3       1 UNL1        0.0000
     20 Cl1         8.0700   -0.7053   19.4372 Cl        1 UNL1        0.0000
@<TRIPOS>BOND
     1    1    2 ar
     2    1    3 ar
     3    2    4 ar
     4    3    6 ar
     5    4    7 ar
     6    5    6 2
     7    5   19 1
     8    6    7 ar
     9    7    8 2
    10    8   14 1
    11    8   19 1
    12    9   15 1
    13    9   16 am
    14    9   18 2
    15   10   12 1
    16   10   16 1
    17   11   13 1
    18   11   16 1
    19   12   17 1
    20   13   17 1
    21   14   17 1
    22   15   20 1
@<TRIPOS>MOLECULE
JAN-GHE-bf4-9
   22    24     0     0     0
SMALL
NO_CHARGES

@<TRIPOS>ATOM
      1 C1         10.2048    4.8342   24.0472 C.1       1 UNL1        0.0000
      2 C2         12.3057    3.6702   23.4702 C.2       1 UNL1        0.0000
      3 C3         13.0298    2.5507   23.3313 C.2       1 UNL1        0.0000
      4 C4         10.2132    2.4619   23.6784 C.2       1 UNL1        0.0000
      5 C5         11.6897    0.0034   25.1694 C.2       1 UNL1        0.0000
      6 C6         10.8861    3.6230   23.7436 C.2       1 UNL1        0.0000
      7 C7          6.3870   -0.2736   18.8648 C.2       1 UNL1        0.0000
      8 C8          5.5295   -1.1660   19.3643 C.2       1 UNL1        0.0000
      9 C9          6.0529   -2.2762   20.1852 C.2       1 UNL1        0.0000
     10 C10         7.0189   -0.5989   21.8516 C.3       1 UNL1        0.0000
     11 C11         7.2173   -3.0304   22.2215 C.3       1 UNL1        0.0000
     12 C12         8.4940   -0.4199   22.1905 C.3       1 UNL1        0.0000
     13 C13         8.6950   -2.8799   22.5468 C.3       1 UNL1        0.0000
     14 C14        10.8787    1.1497   23.3244 C.3       1 UNL1        0.0000
     15 C15        12.4209    1.1815   23.4353 C.3       1 UNL1        0.0000
     16 C16        10.4891    0.0214   24.2777 C.3       1 UNL1        0.0000
     17 C17        10.3492   -1.3290   23.5905 C.3       1 UNL1        0.0000
     18 N1          9.6489    5.8218   24.2948 N.1       1 UNL1        0.0000
     19 N2         12.7544    0.6124   24.7623 N.2       1 UNL1        0.0000
     20 N3          6.7456   -1.9527   21.3494 N.am      1 UNL1        0.0000
     21 N4          8.9268   -1.5104   23.1407 N.4       1 UNL1        0.0000
     22 O1          5.8406   -3.4244   19.7915 O.2       1 UNL1        0.0000
@<TRIPOS>BOND
     1    1    6 1
     2    1   18 3
     3    2    3 2
     4    2    6 1
     5    3   15 1
     6    4    6 2
     7    4   14 1
     8    5   16 1
     9    5   19 2
    10    7    8 2
    11    8    9 1
    12    9   20 am
    13    9   22 2
    14   10   12 1
    15   10   20 1
    16   11   13 1
    17   11   20 1
    18   12   21 1
    19   13   21 1
    20   14   15 1
    21   14   16 1
    22   15   19 1
    23   16   17 1
    24   17   21 1
@<TRIPOS>MOLECULE
TAM-UNI-d1c-9
   28    31     0     0     0
SMALL
NO_CHARGES

@<TRIPOS>ATOM
      1 C1          6.9985   -6.3857   25.6173 C.ar      1 UNL1        0.0000
      2 C2          7.5441   -5.3729   26.4008 C.ar      1 UNL1        0.0000
      3 C3         10.6562   -2.3630   22.7879 C.ar      1 UNL1        0.0000
      4 C4         12.3264   -0.5866   22.5479 C.ar      1 UNL1        0.0000
      5 C5          6.4843   -6.0904   24.3551 C.ar      1 UNL1        0.0000
      6 C6          7.5732   -4.0631   25.9244 C.ar      1 UNL1        0.0000
      7 C7          9.3837   -2.7792   23.1803 C.ar      1 UNL1        0.0000
      8 C8         12.7004    0.7484   22.7036 C.ar      1 UNL1        0.0000
      9 C9          8.8627   -0.5290   23.8821 C.ar      1 UNL1        0.0000
     10 C10        10.5329    1.2475   23.6420 C.ar      1 UNL1        0.0000
     11 C11        11.0496   -1.0231   22.9373 C.ar      1 UNL1        0.0000
     12 C12        10.1394   -0.0924   23.4926 C.ar      1 UNL1        0.0000
     13 C13         8.4887   -1.8640   23.7263 C.ar      1 UNL1        0.0000
     14 C14         6.5124   -4.7777   23.8602 C.ar      1 UNL1        0.0000
     15 C15         7.0555   -3.7525   24.6565 C.ar      1 UNL1        0.0000
     16 C16        11.8053    1.6637   23.2496 C.ar      1 UNL1        0.0000
     17 C17         6.2318   -2.7599   20.6730 C.2       1 UNL1        0.0000
     18 C18         5.9471   -4.5063   22.4869 C.3       1 UNL1        0.0000
     19 C19         6.0617   -2.0902   23.0452 C.3       1 UNL1        0.0000
     20 C20         7.1002   -2.3211   24.1547 C.3       1 UNL1        0.0000
     21 C21         7.0635   -1.5380   20.3714 C.3       1 UNL1        0.0000
     22 N1          6.1325   -3.1273   22.0169 N.am      1 UNL1        0.0000
     23 N2         11.7771    3.9883   21.9457 N.pl3     1 UNL1        0.0000
     24 O1          5.6832   -3.3618   19.7467 O.2       1 UNL1        0.0000
     25 O2         11.4658    3.9187   24.5038 O.2       1 UNL1        0.0000
     26 O3         13.7276    3.4000   23.5225 O.2       1 UNL1        0.0000
     27 S1         12.2750    3.3341   23.4436 S.o2      1 UNL1        0.0000
     28 Cl1         6.0008   -0.3945   19.5589 Cl        1 UNL1        0.0000
@<TRIPOS>BOND
     1    1    2 ar
     2    1    5 ar
     3    2    6 ar
     4    3    7 ar
     5    3   11 ar
     6    4    8 ar
     7    4   11 ar
     8    5   14 ar
     9    6   15 ar
    10    7   13 ar
    11    8   16 ar
    12    9   12 ar
    13    9   13 ar
    14   10   12 ar
    15   10   16 ar
    16   11   12 ar
    17   13   20 1
    18   14   15 ar
    19   14   18 1
    20   15   20 1
    21   16   27 1
    22   17   21 1
    23   17   22 am
    24   17   24 2
    25   18   22 1
    26   19   20 1
    27   19   22 1
    28   21   28 1
    29   23   27 1
    30   25   27 2
    31   26   27 2
@<TRIPOS>MOLECULE
NIY-UNK-626-4
   30    32     0     0     0
SMALL
NO_CHARGES

@<TRIPOS>ATOM
      1 C1          8.6964    0.8353   20.7994 C.1       1 UNL1        0.0000
      2 C2          8.2688    1.8852   21.1952 C.1       1 UNL1        0.0000
      3 C3          8.4694    3.8927   22.5892 C.ar      1 UNL1        0.0000
      4 C4         11.0211    6.0056   23.3285 C.2       1 UNL1        0.0000
      5 C5          6.5449    3.6230   21.2179 C.ar      1 UNL1        0.0000
      6 C6          6.7225    5.5052   22.5232 C.ar      1 UNL1        0.0000
      7 C7         10.4365    6.4316   25.5374 C.2       1 UNL1        0.0000
      8 C8          7.7612    3.1325   21.6651 C.ar      1 UNL1        0.0000
      9 C9          7.9470    5.1029   23.0317 C.ar      1 UNL1        0.0000
     10 C10         9.9680    6.1103   24.2825 C.2       1 UNL1        0.0000
     11 C11        12.2547    6.2512   23.8907 C.2       1 UNL1        0.0000
     12 C12        10.2154   -1.9659   23.9591 C.2       1 UNL1        0.0000
     13 C13        11.3822    0.1806   24.6571 C.3       1 UNL1        0.0000
     14 C14        12.3788   -1.3029   22.9629 C.3       1 UNL1        0.0000
     15 C15        11.7590    1.3820   23.7883 C.3       1 UNL1        0.0000
     16 C16        12.7307   -0.0746   22.1243 C.3       1 UNL1        0.0000
     17 C17         9.1595   -1.6824   24.9975 C.3       1 UNL1        0.0000
     18 C18        13.3256    2.2605   22.1808 C.3       1 UNL1        0.0000
     19 C19        13.2287    3.5533   22.9679 C.3       1 UNL1        0.0000
     20 N1          6.0054    4.7939   21.6246 N.ar      1 UNL1        0.0000
     21 N2         11.2467   -1.0344   23.8482 N.am      1 UNL1        0.0000
     22 N3         12.9565    1.0961   22.9846 N.3       1 UNL1        0.0000
     23 N4          8.6607    5.9176   23.9929 N.pl3     1 UNL1        0.0000
     24 N5         13.4972    6.2158   23.1662 N.pl3     1 UNL1        0.0000
     25 O1         10.1232   -2.9822   23.2659 O.2       1 UNL1        0.0000
     26 O2         12.7269    5.1363   20.9655 O.2       1 UNL1        0.0000
     27 O3         15.1227    4.8107   21.6721 O.2       1 UNL1        0.0000
     28 S1         12.1398    6.6059   25.5620 S.3       1 UNL1        0.0000
     29 S2         13.7179    4.9573   22.0156 S.o2      1 UNL1        0.0000
     30 Cl1         7.9286   -0.7017   24.2095 Cl        1 UNL1        0.0000
@<TRIPOS>BOND
     1    1    2 3
     2    2    8 1
     3    3    8 ar
     4    3    9 ar
     5    4   10 1
     6    4   11 2
     7    5    8 ar
     8    5   20 ar
     9    6    9 ar
    10    6   20 ar
    11    7   10 2
    12    7   28 1
    13    9   23 1
    14   10   23 1
    15   11   24 1
    16   11   28 1
    17   12   17 1
    18   12   21 am
    19   12   25 2
    20   13   15 1
    21   13   21 1
    22   14   16 1
    23   14   21 1
    24   15   22 1
    25   16   22 1
    26   17   30 1
    27   18   19 1
    28   18   22 1
    29   19   29 1
    30   24   29 1
    31   26   29 2
    32   27   29 2
@<TRIPOS>MOLECULE
DAV-CRI-f9b-2
   41    44     0     0     0
SMALL
NO_CHARGES

@<TRIPOS>ATOM
      1 C1         11.6343    5.7860   24.1687 C.ar      1 UNL1        0.0000
      2 C2         12.2236    4.5272   24.2101 C.ar      1 UNL1        0.0000
      3 C3         13.1947    1.7873   23.1096 C.ar      1 UNL1        0.0000
      4 C4         11.5548    1.0896   24.7409 C.ar      1 UNL1        0.0000
      5 C5         10.2992    5.9401   23.7871 C.ar      1 UNL1        0.0000
      6 C6         13.7710    0.5177   23.1458 C.ar      1 UNL1        0.0000
      7 C7         12.1311   -0.1801   24.7771 C.ar      1 UNL1        0.0000
      8 C8         12.0866    2.0734   23.9072 C.ar      1 UNL1        0.0000
      9 C9         11.4893    3.3875   23.8697 C.ar      1 UNL1        0.0000
     10 C10        10.1383    3.5151   23.4805 C.ar      1 UNL1        0.0000
     11 C11         9.5675    4.7910   23.4465 C.ar      1 UNL1        0.0000
     12 C12        13.2392   -0.4661   23.9796 C.ar      1 UNL1        0.0000
     13 C13         8.1079    2.9640   22.8166 C.2       1 UNL1        0.0000
     14 C14         5.5745    0.4791   19.3317 C.2       1 UNL1        0.0000
     15 C15         5.9887   -5.4213   20.6543 C.2       1 UNL1        0.0000
     16 C16         5.9989   -2.7835   22.1819 C.2       1 UNL1        0.0000
     17 C17         6.4908    1.1327   23.4634 C.3       1 UNL1        0.0000
     18 C18         5.3037    0.2996   22.9873 C.3       1 UNL1        0.0000
     19 C19         7.2068    1.3951   21.0481 C.3       1 UNL1        0.0000
     20 C20         6.9250    2.1225   22.3728 C.3       1 UNL1        0.0000
     21 C21         5.5660   -0.3926   21.6458 C.3       1 UNL1        0.0000
     22 C22         9.5212   -4.5488   25.1062 C.3       1 UNL1        0.0000
     23 C23         6.2567    1.3380   18.2966 C.3       1 UNL1        0.0000
     24 C24         6.6050   -5.2171   22.0272 C.3       1 UNL1        0.0000
     25 C25         7.1274   -3.7986   22.2565 C.3       1 UNL1        0.0000
     26 C26         9.1936   -4.2661   23.6422 C.3       1 UNL1        0.0000
     27 N1          9.2899    2.4792   23.1174 N.2       1 UNL1        0.0000
     28 N2          6.0729    0.5505   20.6367 N.am      1 UNL1        0.0000
     29 N3          5.4542   -6.6832   20.5034 N.am      1 UNL1        0.0000
     30 N4         10.1945   -3.3585   23.0904 N.3       1 UNL1        0.0000
     31 N5         15.1138   -1.8560   25.2675 N.pl3     1 UNL1        0.0000
     32 N6          6.4470   -1.5289   21.7977 N.am      1 UNL1        0.0000
     33 N7          7.7867   -3.7342   23.5937 N.4       1 UNL1        0.0000
     34 O1          4.6238   -0.2303   18.9917 O.2       1 UNL1        0.0000
     35 O2          5.9624   -4.5622   19.7780 O.2       1 UNL1        0.0000
     36 O3          4.8305   -3.0710   22.4323 O.2       1 UNL1        0.0000
     37 O4         12.9497   -3.0060   24.4677 O.2       1 UNL1        0.0000
     38 O5         14.6613   -2.2805   22.7671 O.2       1 UNL1        0.0000
     39 S1          7.9237    4.6599   22.9429 S.3       1 UNL1        0.0000
     40 S2         13.9599   -2.0559   24.0234 S.o2      1 UNL1        0.0000
     41 Cl1         7.5767    0.3786   17.6374 Cl        1 UNL1        0.0000
@<TRIPOS>BOND
     1    1    2 ar
     2    1    5 ar
     3    2    9 ar
     4    3    6 ar
     5    3    8 ar
     6    4    7 ar
     7    4    8 ar
     8    5   11 ar
     9    6   12 ar
    10    7   12 ar
    11    8    9 1
    12    9   10 ar
    13   10   11 ar
    14   10   27 1
    15   11   39 1
    16   12   40 1
    17   13   20 1
    18   13   27 2
    19   13   39 1
    20   14   23 1
    21   14   28 am
    22   14   34 2
    23   15   24 1
    24   15   29 am
    25   15   35 2
    26   16   25 1
    27   16   32 am
    28   16   36 2
    29   17   18 1
    30   17   20 1
    31   18   21 1
    32   19   20 1
    33   19   28 1
    34   21   28 1
    35   21   32 1
    36   22   26 1
    37   23   41 1
    38   24   25 1
    39   25   33 1
    40   26   30 1
    41   26   33 1
    42   31   40 1
    43   37   40 2
    44   38   40 2
@<TRIPOS>MOLECULE
TAM-UNI-d1c-23
   23    24     0     0     0
SMALL
NO_CHARGES

@<TRIPOS>ATOM
      1 C1          7.8679   -1.2205   22.9021 C.ar      1 UNL1        0.0000
      2 C2          8.9369   -0.4940   22.3652 C.ar      1 UNL1        0.0000
      3 C3         10.5374   -2.0980   23.2426 C.ar      1 UNL1        0.0000
      4 C4          8.1508   -4.3215   24.8164 C.2       1 UNL1        0.0000
      5 C5          8.1328   -2.4035   23.6203 C.ar      1 UNL1        0.0000
      6 C6         10.2503   -0.9278   22.5339 C.ar      1 UNL1        0.0000
      7 C7          7.3188   -3.3640   24.2835 C.2       1 UNL1        0.0000
      8 C8          9.4587   -2.8141   23.7737 C.ar      1 UNL1        0.0000
      9 C9          6.0484   -3.4064   20.8207 C.2       1 UNL1        0.0000
     10 C10        11.4744    1.5780   23.7426 C.2       1 UNL1        0.0000
     11 C11         6.3018   -2.3555   19.7914 C.3       1 UNL1        0.0000
     12 C12        12.7514   -0.7475   22.2118 C.3       1 UNL1        0.0000
     13 C13        10.6031   -4.7482   24.8936 C.3       1 UNL1        0.0000
     14 C14         5.8456   -3.3471   24.3861 C.3       1 UNL1        0.0000
     15 C15        11.4515    3.0667   23.9786 C.3       1 UNL1        0.0000
     16 C16         5.1217   -3.7788   23.0978 C.3       1 UNL1        0.0000
     17 C17        11.3700   -0.1307   21.9506 C.3       1 UNL1        0.0000
     18 N1          9.4396   -3.9810   24.5039 N.pl3     1 UNL1        0.0000
     19 N2          5.4542   -2.9359   21.9807 N.am      1 UNL1        0.0000
     20 N3         11.3534    1.2478   22.4079 N.am      1 UNL1        0.0000
     21 O1          6.3645   -4.5675   20.5892 O.2       1 UNL1        0.0000
     22 O2         11.6055    0.7767   24.6662 O.2       1 UNL1        0.0000
     23 Cl1         9.7675    3.5522   24.2300 Cl        1 UNL1        0.0000
@<TRIPOS>BOND
     1    1    2 ar
     2    1    5 ar
     3    2    6 ar
     4    3    6 ar
     5    3    8 ar
     6    4    7 2
     7    4   18 1
     8    5    7 1
     9    5    8 ar
    10    6   17 1
    11    7   14 1
    12    8   18 1
    13    9   11 1
    14    9   19 am
    15    9   21 2
    16   10   15 1
    17   10   20 am
    18   10   22 2
    19   12   17 1
    20   13   18 1
    21   14   16 1
    22   15   23 1
    23   16   19 1
    24   17   20 1
@<TRIPOS>MOLECULE
TAM-UNI-d1c-15
   23    25     0     0     0
SMALL
NO_CHARGES

@<TRIPOS>ATOM
      1 C1         13.1898   -0.8169   22.6496 C.ar      1 UNL1        0.0000
      2 C2         13.0457    0.4104   23.2988 C.ar      1 UNL1        0.0000
      3 C3         12.1819   -1.7754   22.7323 C.ar      1 UNL1        0.0000
      4 C4         10.8681   -0.2722   24.0962 C.ar      1 UNL1        0.0000
      5 C5         11.8879    0.6967   24.0352 C.ar      1 UNL1        0.0000
      6 C6         11.0220   -1.5084   23.4576 C.ar      1 UNL1        0.0000
      7 C7          9.6143   -0.0366   24.8537 C.2       1 UNL1        0.0000
      8 C8          5.8483   -2.3426   19.8936 C.2       1 UNL1        0.0000
      9 C9         11.7677    2.0089   24.7653 C.3       1 UNL1        0.0000
     10 C10        10.6948    2.9319   24.1847 C.3       1 UNL1        0.0000
     11 C11         9.4009    2.2320   23.7792 C.3       1 UNL1        0.0000
     12 C12         6.4372   -2.9586   22.2163 C.3       1 UNL1        0.0000
     13 C13         7.4366   -0.9131   21.2728 C.3       1 UNL1        0.0000
     14 C14         7.8015   -3.4259   22.7020 C.3       1 UNL1        0.0000
     15 C15         8.8166   -1.3490   21.7462 C.3       1 UNL1        0.0000
     16 C16        10.0011   -2.6038   23.5511 C.3       1 UNL1        0.0000
     17 C17         6.0404   -1.3838   18.7458 C.3       1 UNL1        0.0000
     18 N1          9.0003    1.1980   24.7167 N.am      1 UNL1        0.0000
     19 N2          6.5660   -2.0740   21.0583 N.am      1 UNL1        0.0000
     20 N3          8.6678   -2.2168   22.9758 N.4       1 UNL1        0.0000
     21 O1          9.1685   -0.9354   25.5632 O.2       1 UNL1        0.0000
     22 O2          5.0851   -3.3021   19.7564 O.2       1 UNL1        0.0000
     23 Cl1         7.4062   -1.9836   17.8116 Cl        1 UNL1        0.0000
@<TRIPOS>BOND
     1    1    2 ar
     2    1    3 ar
     3    2    5 ar
     4    3    6 ar
     5    4    5 ar
     6    4    6 ar
     7    4    7 1
     8    5    9 1
     9    6   16 1
    10    7   18 am
    11    7   21 2
    12    8   17 1
    13    8   19 am
    14    8   22 2
    15    9   10 1
    16   10   11 1
    17   11   18 1
    18   12   14 1
    19   12   19 1
    20   13   15 1
    21   13   19 1
    22   14   20 1
    23   15   20 1
    24   16   20 1
    25   17   23 1
@<TRIPOS>MOLECULE
JAN-GHE-641-8
   31    33     0     0     0
SMALL
NO_CHARGES

@<TRIPOS>ATOM
      1 C1         11.2514    5.9684   25.9461 C.ar      1 UNL1        0.0000
      2 C2         10.0832    6.5870   25.4860 C.ar      1 UNL1        0.0000
      3 C3         12.1141    5.3253   25.0607 C.ar      1 UNL1        0.0000
      4 C4          8.9714    6.7139   22.0063 C.2       1 UNL1        0.0000
      5 C5          9.7845    6.5538   24.1094 C.ar      1 UNL1        0.0000
      6 C6         11.8386    5.2795   23.6911 C.ar      1 UNL1        0.0000
      7 C7          8.7192    7.0608   23.3136 C.2       1 UNL1        0.0000
      8 C8         10.6672    5.9022   23.2454 C.ar      1 UNL1        0.0000
      9 C9         10.2746   -2.3791   22.2175 C.2       1 UNL1        0.0000
     10 C10        11.0219   -1.5812   22.9832 C.2       1 UNL1        0.0000
     11 C11        12.2164   -0.9425   22.3951 C.2       1 UNL1        0.0000
     12 C12         6.2004    4.5621   24.3556 C.2       1 UNL1        0.0000
     13 C13        11.9379    1.0477   23.9716 C.3       1 UNL1        0.0000
     14 C14        13.8253    0.9237   22.3870 C.3       1 UNL1        0.0000
     15 C15        11.6750    2.4904   23.5563 C.3       1 UNL1        0.0000
     16 C16        13.5724    2.3559   21.9436 C.3       1 UNL1        0.0000
     17 C17         7.8631    0.6184   22.8005 C.3       1 UNL1        0.0000
     18 C18         7.3405    0.3281   25.2177 C.3       1 UNL1        0.0000
     19 C19         7.5487    7.8226   23.7943 C.3       1 UNL1        0.0000
     20 C20        12.7893    4.5788   22.7658 C.3       1 UNL1        0.0000
     21 C21         6.3736    3.5903   25.5095 C.3       1 UNL1        0.0000
     22 C22         7.8202    3.1309   25.6744 C.3       1 UNL1        0.0000
     23 C23         6.2499    6.9990   23.8646 C.3       1 UNL1        0.0000
     24 C24         8.3299    2.4641   24.4059 C.3       1 UNL1        0.0000
     25 N1         10.1484    6.0151   21.9753 N.pl3     1 UNL1        0.0000
     26 N2         12.6059    0.2957   22.9001 N.am      1 UNL1        0.0000
     27 N3          6.3645    5.8815   24.7629 N.am      1 UNL1        0.0000
     28 N4         12.9657    3.1231   23.0948 N.4       1 UNL1        0.0000
     29 N5          7.4567    1.3114   24.0784 N.4       1 UNL1        0.0000
     30 O1         12.7999   -1.5476   21.4941 O.2       1 UNL1        0.0000
     31 O2          5.9446    4.2061   23.2084 O.2       1 UNL1        0.0000
@<TRIPOS>BOND
     1    1    2 ar
     2    1    3 ar
     3    2    5 ar
     4    3    6 ar
     5    4    7 2
     6    4   25 1
     7    5    7 1
     8    5    8 ar
     9    6    8 ar
    10    6   20 1
    11    7   19 1
    12    8   25 1
    13    9   10 2
    14   10   11 1
    15   11   26 am
    16   11   30 2
    17   12   21 1
    18   12   27 am
    19   12   31 2
    20   13   15 1
    21   13   26 1
    22   14   16 1
    23   14   26 1
    24   15   28 1
    25   16   28 1
    26   17   29 1
    27   18   29 1
    28   19   23 1
    29   20   28 1
    30   21   22 1
    31   22   24 1
    32   23   27 1
    33   24   29 1
@<TRIPOS>MOLECULE
STU-CHA-bc0-1
   27    29     0     0     0
SMALL
NO_CHARGES

@<TRIPOS>ATOM
      1 C1         10.8541    7.2515   25.7885 C.ar      1 UNL1        0.0000
      2 C2         12.4923    5.4915   25.4483 C.ar      1 UNL1        0.0000
      3 C3          9.1037    6.7685   22.6162 C.2       1 UNL1        0.0000
      4 C4         10.2822    6.9495   24.5366 C.ar      1 UNL1        0.0000
      5 C5         11.9418    5.1740   24.2033 C.ar      1 UNL1        0.0000
      6 C6          9.1886    7.4756   23.7934 C.2       1 UNL1        0.0000
      7 C7         10.8381    5.9198   23.7744 C.ar      1 UNL1        0.0000
      8 C8         11.9584    6.5139   26.2303 C.ar      1 UNL1        0.0000
      9 C9         11.2421   -1.2404   24.2994 C.2       1 UNL1        0.0000
     10 C10         7.1085    5.8867   25.7620 C.2       1 UNL1        0.0000
     11 C11        10.5588    1.0953   24.7453 C.3       1 UNL1        0.0000
     12 C12        11.3733    0.5389   22.4870 C.3       1 UNL1        0.0000
     13 C13        11.4810    2.3043   24.8024 C.3       1 UNL1        0.0000
     14 C14        12.3071    1.7415   22.5093 C.3       1 UNL1        0.0000
     15 C15         7.1878    5.1982   27.0841 C.3       1 UNL1        0.0000
     16 C16         8.2985    8.5809   24.2024 C.3       1 UNL1        0.0000
     17 C17        12.5423    4.0671   23.3877 C.3       1 UNL1        0.0000
     18 C18        11.1108   -2.3302   23.2656 C.3       1 UNL1        0.0000
     19 C19         6.9126    8.1224   24.6915 C.3       1 UNL1        0.0000
     20 N1         10.1025    5.8322   22.6140 N.pl3     1 UNL1        0.0000
     21 N2         11.0912    0.0699   23.8479 N.am      1 UNL1        0.0000
     22 N3          7.0004    7.2657   25.8436 N.am      1 UNL1        0.0000
     23 N4         11.7146    2.8128   23.3974 N.4       1 UNL1        0.0000
     24 O1         11.4744   -1.5463   25.4718 O.2       1 UNL1        0.0000
     25 O2          7.1436    5.2233   24.7322 O.2       1 UNL1        0.0000
     26 F1         12.5078    6.7950   27.4199 F         1 UNL1        0.0000
     27 Cl1         9.7943   -3.3713   23.7955 Cl        1 UNL1        0.0000
@<TRIPOS>BOND
     1    1    4 ar
     2    1    8 ar
     3    2    5 ar
     4    2    8 ar
     5    3    6 2
     6    3   20 1
     7    4    6 1
     8    4    7 ar
     9    5    7 ar
    10    5   17 1
    11    6   16 1
    12    7   20 1
    13    8   26 1
    14    9   18 1
    15    9   21 am
    16    9   24 2
    17   10   15 1
    18   10   22 am
    19   10   25 2
    20   11   13 1
    21   11   21 1
    22   12   14 1
    23   12   21 1
    24   13   23 1
    25   14   23 1
    26   16   19 1
    27   17   23 1
    28   18   27 1
    29   19   22 1
@<TRIPOS>MOLECULE
TAM-UNI-d1c-3
   25    27     0     0     0
SMALL
NO_CHARGES

@<TRIPOS>ATOM
      1 C1         12.9309    0.8811   23.5556 C.ar      1 UNL1        0.0000
      2 C2         12.4822    0.9235   24.8756 C.ar      1 UNL1        0.0000
      3 C3         12.3374    0.0069   22.6450 C.ar      1 UNL1        0.0000
      4 C4         11.4401    0.0917   25.2851 C.ar      1 UNL1        0.0000
      5 C5         11.2952   -0.8249   23.0545 C.ar      1 UNL1        0.0000
      6 C6         10.8465   -0.7825   24.3745 C.ar      1 UNL1        0.0000
      7 C7          7.8113   -0.2467   24.5182 C.2       1 UNL1        0.0000
      8 C8          5.8538   -1.2878   19.3660 C.2       1 UNL1        0.0000
      9 C9          8.8438   -3.5051   25.7615 C.3       1 UNL1        0.0000
     10 C10         7.7765   -2.4295   25.6657 C.3       1 UNL1        0.0000
     11 C11         9.8832   -3.0577   24.7399 C.3       1 UNL1        0.0000
     12 C12         7.0084   -2.4436   21.2240 C.3       1 UNL1        0.0000
     13 C13         7.4573   -0.0426   20.8976 C.3       1 UNL1        0.0000
     14 C14         8.5000   -2.7316   21.3124 C.3       1 UNL1        0.0000
     15 C15         8.9567   -0.2943   20.9830 C.3       1 UNL1        0.0000
     16 C16         8.5780   -1.1433   25.4367 C.3       1 UNL1        0.0000
     17 C17        10.6754   -1.7553   22.0539 C.3       1 UNL1        0.0000
     18 C18         6.1206   -0.3488   18.2167 C.3       1 UNL1        0.0000
     19 N1          9.8162   -1.5986   24.7972 N.pl3     1 UNL1        0.0000
     20 N2          6.7512   -1.2409   20.4318 N.am      1 UNL1        0.0000
     21 N3          8.0527    1.0916   24.7204 N.am      1 UNL1        0.0000
     22 N4          9.2071   -1.5077   21.8503 N.4       1 UNL1        0.0000
     23 O1          7.0535   -0.6877   23.6576 O.2       1 UNL1        0.0000
     24 O2          4.8782   -2.0413   19.3149 O.2       1 UNL1        0.0000
     25 Cl1         7.7261   -0.7388   17.6100 Cl        1 UNL1        0.0000
@<TRIPOS>BOND
     1    1    2 ar
     2    1    3 ar
     3    2    4 ar
     4    3    5 ar
     5    4    6 ar
     6    5    6 ar
     7    5   17 1
     8    6   19 1
     9    7   16 1
    10    7   21 am
    11    7   23 2
    12    8   18 1
    13    8   20 am
    14    8   24 2
    15    9   10 1
    16    9   11 1
    17   10   16 1
    18   11   19 1
    19   12   14 1
    20   12   20 1
    21   13   15 1
    22   13   20 1
    23   14   22 1
    24   15   22 1
    25   16   19 1
    26   17   22 1
    27   18   25 1
@<TRIPOS>MOLECULE
NIM-UNI-594-3
   26    28     0     0     0
SMALL
NO_CHARGES

@<TRIPOS>ATOM
      1 C1         13.8633    5.3826   21.6241 C.ar      1 UNL1        0.0000
      2 C2         14.0656    4.0028   21.6545 C.ar      1 UNL1        0.0000
      3 C3         12.9333    5.9702   22.4819 C.ar      1 UNL1        0.0000
      4 C4         12.4079    3.7981   23.4001 C.ar      1 UNL1        0.0000
      5 C5         12.9117    0.9352   23.3754 C.2       1 UNL1        0.0000
      6 C6         13.3379    3.2106   22.5424 C.ar      1 UNL1        0.0000
      7 C7         12.2056    5.1779   23.3698 C.ar      1 UNL1        0.0000
      8 C8         13.4657   -0.2654   23.0085 C.2       1 UNL1        0.0000
      9 C9          7.7187   -1.1150   22.7781 C.2       1 UNL1        0.0000
     10 C10         9.8070   -2.2199   21.8370 C.3       1 UNL1        0.0000
     11 C11         9.4535   -2.0558   24.2705 C.3       1 UNL1        0.0000
     12 C12        11.2244   -1.6849   21.9901 C.3       1 UNL1        0.0000
     13 C13        10.8640   -1.5172   24.4597 C.3       1 UNL1        0.0000
     14 C14        13.1820   -1.6397   23.5394 C.3       1 UNL1        0.0000
     15 C15         7.2437   -0.8941   21.3642 C.3       1 UNL1        0.0000
     16 N1         14.3875   -0.0628   22.0191 N.2       1 UNL1        0.0000
     17 N2         14.4254    1.2391   21.7570 N.2       1 UNL1        0.0000
     18 N3         13.5400    1.8357   22.5714 N.pl3     1 UNL1        0.0000
     19 N4          8.9496   -1.7515   22.9311 N.am      1 UNL1        0.0000
     20 N5         12.0207    6.2508   25.8029 N.pl3     1 UNL1        0.0000
     21 N6         11.7495   -2.0566   23.3587 N.4       1 UNL1        0.0000
     22 O1          7.0167   -0.7307   23.7170 O.2       1 UNL1        0.0000
     23 O2         10.6047    7.1716   23.8554 O.2       1 UNL1        0.0000
     24 O3         10.0561    4.9080   24.8159 O.2       1 UNL1        0.0000
     25 S1         11.0419    5.9132   24.4436 S.o2      1 UNL1        0.0000
     26 Cl1         7.8318    0.6918   20.8773 Cl        1 UNL1        0.0000
@<TRIPOS>BOND
     1    1    2 ar
     2    1    3 ar
     3    2    6 ar
     4    3    7 ar
     5    4    6 ar
     6    4    7 ar
     7    5    8 2
     8    5   18 1
     9    6   18 1
    10    7   25 1
    11    8   14 1
    12    8   16 1
    13    9   15 1
    14    9   19 am
    15    9   22 2
    16   10   12 1
    17   10   19 1
    18   11   13 1
    19   11   19 1
    20   12   21 1
    21   13   21 1
    22   14   21 1
    23   15   26 1
    24   16   17 2
    25   17   18 1
    26   20   25 1
    27   23   25 2
    28   24   25 2
@<TRIPOS>MOLECULE
NIM-UNI-bb6-3
   26    28     0     0     0
SMALL
NO_CHARGES

@<TRIPOS>ATOM
      1 C1         13.8633    5.3826   21.6241 C.ar      1 UNL1        0.0000
      2 C2         14.0656    4.0028   21.6545 C.ar      1 UNL1        0.0000
      3 C3         12.9333    5.9702   22.4819 C.ar      1 UNL1        0.0000
      4 C4         12.4079    3.7981   23.4001 C.ar      1 UNL1        0.0000
      5 C5         12.9117    0.9352   23.3754 C.2       1 UNL1        0.0000
      6 C6         13.3379    3.2106   22.5424 C.ar      1 UNL1        0.0000
      7 C7         12.2056    5.1779   23.3698 C.ar      1 UNL1        0.0000
      8 C8         13.4657   -0.2654   23.0085 C.2       1 UNL1        0.0000
      9 C9          7.7187   -1.1150   22.7781 C.2       1 UNL1        0.0000
     10 C10         9.8070   -2.2199   21.8370 C.3       1 UNL1        0.0000
     11 C11         9.4535   -2.0558   24.2705 C.3       1 UNL1        0.0000
     12 C12        11.2244   -1.6849   21.9901 C.3       1 UNL1        0.0000
     13 C13        10.8640   -1.5172   24.4597 C.3       1 UNL1        0.0000
     14 C14        13.1820   -1.6397   23.5394 C.3       1 UNL1        0.0000
     15 C15         7.2437   -0.8941   21.3642 C.3       1 UNL1        0.0000
     16 N1         14.3875   -0.0628   22.0191 N.2       1 UNL1        0.0000
     17 N2         14.4254    1.2391   21.7570 N.2       1 UNL1        0.0000
     18 N3         13.5400    1.8357   22.5714 N.pl3     1 UNL1        0.0000
     19 N4          8.9496   -1.7515   22.9311 N.am      1 UNL1        0.0000
     20 N5         12.0207    6.2508   25.8029 N.pl3     1 UNL1        0.0000
     21 N6         11.7495   -2.0566   23.3587 N.4       1 UNL1        0.0000
     22 O1          7.0167   -0.7307   23.7170 O.2       1 UNL1        0.0000
     23 O2         10.6047    7.1716   23.8554 O.2       1 UNL1        0.0000
     24 O3         10.0561    4.9080   24.8159 O.2       1 UNL1        0.0000
     25 S1         11.0419    5.9132   24.4436 S.o2      1 UNL1        0.0000
     26 Cl1         7.8318    0.6918   20.8773 Cl        1 UNL1        0.0000
@<TRIPOS>BOND
     1    1    2 ar
     2    1    3 ar
     3    2    6 ar
     4    3    7 ar
     5    4    6 ar
     6    4    7 ar
     7    5    8 2
     8    5   18 1
     9    6   18 1
    10    7   25 1
    11    8   14 1
    12    8   16 1
    13    9   15 1
    14    9   19 am
    15    9   22 2
    16   10   12 1
    17   10   19 1
    18   11   13 1
    19   11   19 1
    20   12   21 1
    21   13   21 1
    22   14   21 1
    23   15   26 1
    24   16   17 2
    25   17   18 1
    26   20   25 1
    27   23   25 2
    28   24   25 2
@<TRIPOS>MOLECULE
BRU-LEF-ae0-1
   22    23     0     0     0
SMALL
NO_CHARGES

@<TRIPOS>ATOM
      1 C1          8.0768   -4.5897   25.9139 C.1       1 UNL1        0.0000
      2 C2          9.4837   -2.6000   25.6337 C.ar      1 UNL1        0.0000
      3 C3          7.2203   -2.3321   26.3133 C.ar      1 UNL1        0.0000
      4 C4          8.2590   -3.1756   25.9534 C.ar      1 UNL1        0.0000
      5 C5          9.6302   -1.2182   25.6830 C.ar      1 UNL1        0.0000
      6 C6          8.5300   -0.4624   26.0548 C.ar      1 UNL1        0.0000
      7 C7         13.6306   -1.3788   21.0676 C.2       1 UNL1        0.0000
      8 C8         11.6725   -1.8282   22.5096 C.3       1 UNL1        0.0000
      9 C9         13.3518   -0.2027   23.3043 C.3       1 UNL1        0.0000
     10 C10        10.5473   -0.8651   22.8584 C.3       1 UNL1        0.0000
     11 C11        12.2484    0.7824   23.6667 C.3       1 UNL1        0.0000
     12 C12         6.9075    1.9472   27.3983 C.3       1 UNL1        0.0000
     13 C13        10.9533   -0.6005   25.3384 C.3       1 UNL1        0.0000
     14 C14        14.4310   -0.2396   20.4883 C.3       1 UNL1        0.0000
     15 C15         7.5611    1.8369   26.0629 C.3       1 UNL1        0.0000
     16 N1          7.9285   -5.7403   25.8820 N.1       1 UNL1        0.0000
     17 N2          7.3246   -0.9856   26.3724 N.ar      1 UNL1        0.0000
     18 N3         12.9189   -1.1118   22.2371 N.am      1 UNL1        0.0000
     19 N4          8.6747    0.9466   26.1069 N.pl3     1 UNL1        0.0000
     20 N5         10.9637    0.0532   23.9838 N.4       1 UNL1        0.0000
     21 O1         13.6367   -2.4716   20.4950 O.2       1 UNL1        0.0000
     22 Cl1        13.2820    1.0341   20.0941 Cl        1 UNL1        0.0000
@<TRIPOS>BOND
     1    1    4 1
     2    1   16 3
     3    2    4 ar
     4    2    5 ar
     5    3    4 ar
     6    3   17 ar
     7    5    6 ar
     8    5   13 1
     9    6   17 ar
    10    6   19 1
    11    7   14 1
    12    7   18 am
    13    7   21 2
    14    8   10 1
    15    8   18 1
    16    9   11 1
    17    9   18 1
    18   10   20 1
    19   11   20 1
    20   12   15 1
    21   13   20 1
    22   14   22 1
    23   15   19 1
@<TRIPOS>MOLECULE
DUN-NEW-f8c-24
   26    28     0     0     0
SMALL
NO_CHARGES

@<TRIPOS>ATOM
      1 C1         12.2094   -1.9578   22.6962 C.ar      1 UNL1        0.0000
      2 C2         12.5436   -0.8231   23.4443 C.ar      1 UNL1        0.0000
      3 C3         10.8898   -2.3990   22.6208 C.ar      1 UNL1        0.0000
      4 C4         10.1986    1.2423   25.3405 C.2       1 UNL1        0.0000
      5 C5         11.5268   -0.1252   24.1259 C.ar      1 UNL1        0.0000
      6 C6          9.8645   -1.7230   23.2883 C.ar      1 UNL1        0.0000
      7 C7         11.5022    1.0314   24.9545 C.2       1 UNL1        0.0000
      8 C8         10.2134   -0.5903   24.0323 C.ar      1 UNL1        0.0000
      9 C9          6.5996   -6.3378   26.4009 C.2       1 UNL1        0.0000
     10 C10        12.2924    5.1133   23.9053 C.2       1 UNL1        0.0000
     11 C11         8.4108   -4.6762   26.1182 C.3       1 UNL1        0.0000
     12 C12         6.0998   -3.9600   25.6497 C.3       1 UNL1        0.0000
     13 C13         8.8843   -4.0809   24.8003 C.3       1 UNL1        0.0000
     14 C14         6.5391   -3.3519   24.3246 C.3       1 UNL1        0.0000
     15 C15        11.1142    5.8923   23.4224 C.3       1 UNL1        0.0000
     16 C16        12.6613    1.8626   25.3381 C.3       1 UNL1        0.0000
     17 C17         8.4545   -2.2254   23.1854 C.3       1 UNL1        0.0000
     18 C18         5.1261   -6.6409   26.2986 C.3       1 UNL1        0.0000
     19 C19        13.1552    2.8032   24.2240 C.3       1 UNL1        0.0000
     20 N1          9.4287    0.2589   24.7795 N.pl3     1 UNL1        0.0000
     21 N2          6.9978   -5.0489   26.0492 N.am      1 UNL1        0.0000
     22 N3         12.1418    3.7388   23.8156 N.am      1 UNL1        0.0000
     23 N4          7.9852   -2.9221   24.4316 N.4       1 UNL1        0.0000
     24 O1          7.3722   -7.2220   26.7796 O.2       1 UNL1        0.0000
     25 O2         13.2763    5.7073   24.3306 O.2       1 UNL1        0.0000
     26 Cl1         4.4261   -6.2748   27.8715 Cl        1 UNL1        0.0000
@<TRIPOS>BOND
     1    1    2 ar
     2    1    3 ar
     3    2    5 ar
     4    3    6 ar
     5    4    7 2
     6    4   20 1
     7    5    7 1
     8    5    8 ar
     9    6    8 ar
    10    6   17 1
    11    7   16 1
    12    8   20 1
    13    9   18 1
    14    9   21 am
    15    9   24 2
    16   10   15 1
    17   10   22 am
    18   10   25 2
    19   11   13 1
    20   11   21 1
    21   12   14 1
    22   12   21 1
    23   13   23 1
    24   14   23 1
    25   16   19 1
    26   17   23 1
    27   18   26 1
    28   19   22 1
@<TRIPOS>MOLECULE
MAK-UNK-e4a-13
   21    22     0     0     0
SMALL
NO_CHARGES

@<TRIPOS>ATOM
      1 C1          5.8209   -1.9775   19.2364 C.2       1 UNL1        0.0000
      2 C2         12.7539    0.9786   23.6029 C.3       1 UNL1        0.0000
      3 C3         10.9020    2.6347   23.9988 C.3       1 UNL1        0.0000
      4 C4          6.4266   -2.3464   21.6066 C.3       1 UNL1        0.0000
      5 C5          7.6080   -0.5698   20.3733 C.3       1 UNL1        0.0000
      6 C6         11.9901   -0.0633   24.4052 C.3       1 UNL1        0.0000
      7 C7         10.1424    1.5890   24.8001 C.3       1 UNL1        0.0000
      8 C8          7.7489   -2.8983   22.1191 C.3       1 UNL1        0.0000
      9 C9          8.9489   -1.0942   20.8691 C.3       1 UNL1        0.0000
     10 C10        12.4093    2.3975   24.0457 C.3       1 UNL1        0.0000
     11 C11         5.5309   -0.8728   18.2519 C.3       1 UNL1        0.0000
     12 C12         9.9916   -2.2180   24.3246 C.3       1 UNL1        0.0000
     13 C13        10.0563   -2.2280   22.7987 C.3       1 UNL1        0.0000
     14 C14         9.6967   -0.8584   24.9783 C.3       1 UNL1        0.0000
     15 N1          6.6076   -1.6419   20.3373 N.am      1 UNL1        0.0000
     16 N2          8.2633   -0.5857   24.9144 N.3       1 UNL1        0.0000
     17 N3          8.7526   -1.7705   22.2075 N.4       1 UNL1        0.0000
     18 N4         10.5080    0.2110   24.2998 N.4       1 UNL1        0.0000
     19 O1          5.3634   -3.1045   19.0300 O.2       1 UNL1        0.0000
     20 O2         13.0681    3.3180   23.1834 O.3       1 UNL1        0.0000
     21 Cl1         4.6515    0.3704   19.1344 Cl        1 UNL1        0.0000
@<TRIPOS>BOND
     1    1   11 1
     2    1   15 am
     3    1   19 2
     4    2    6 1
     5    2   10 1
     6    3    7 1
     7    3   10 1
     8    4    8 1
     9    4   15 1
    10    5    9 1
    11    5   15 1
    12    6   18 1
    13    7   18 1
    14    8   17 1
    15    9   17 1
    16   10   20 1
    17   11   21 1
    18   12   13 1
    19   12   14 1
    20   13   17 1
    21   14   16 1
    22   14   18 1
@<TRIPOS>MOLECULE
JAN-GHE-641-7
   27    29     0     0     0
SMALL
NO_CHARGES

@<TRIPOS>ATOM
      1 C1         13.3720    1.8978   22.2457 C.ar      1 UNL1        0.0000
      2 C2         12.8184    3.1326   22.6031 C.ar      1 UNL1        0.0000
      3 C3         12.8987    0.7143   22.8088 C.ar      1 UNL1        0.0000
      4 C4         10.1012    3.6339   24.9961 C.2       1 UNL1        0.0000
      5 C5         11.7704    3.1694   23.5443 C.ar      1 UNL1        0.0000
      6 C6         11.8602    0.7260   23.7443 C.ar      1 UNL1        0.0000
      7 C7         10.9947    4.2120   24.1241 C.2       1 UNL1        0.0000
      8 C8         11.3164    1.9677   24.0920 C.ar      1 UNL1        0.0000
      9 C9          6.3145   -5.9733   22.1520 C.2       1 UNL1        0.0000
     10 C10         7.2518   -5.2016   22.7064 C.2       1 UNL1        0.0000
     11 C11         7.1933   -3.7420   22.4906 C.2       1 UNL1        0.0000
     12 C12         9.7370   -3.6048   22.6762 C.3       1 UNL1        0.0000
     13 C13         8.3777   -1.6005   22.2029 C.3       1 UNL1        0.0000
     14 C14        10.5184   -2.8337   23.7334 C.3       1 UNL1        0.0000
     15 C15         9.1313   -0.8150   23.2645 C.3       1 UNL1        0.0000
     16 C16         7.0331    4.9295   23.1315 C.3       1 UNL1        0.0000
     17 C17        11.1187    5.6576   23.8474 C.3       1 UNL1        0.0000
     18 C18        11.3747   -0.5669   24.3305 C.3       1 UNL1        0.0000
     19 C19         9.8290    6.3072   23.3139 C.3       1 UNL1        0.0000
     20 N1         10.3031    2.2800   24.9701 N.pl3     1 UNL1        0.0000
     21 N2          8.3949   -3.0378   22.4832 N.am      1 UNL1        0.0000
     22 N3          9.3846    5.7022   22.0869 N.pl3     1 UNL1        0.0000
     23 N4         10.5331   -1.3668   23.3765 N.4       1 UNL1        0.0000
     24 O1          6.0823   -3.2352   22.3252 O.2       1 UNL1        0.0000
     25 O2          7.4966    4.7997   20.5588 O.2       1 UNL1        0.0000
     26 O3          7.2158    7.0608   21.6383 O.2       1 UNL1        0.0000
     27 S1          7.7092    5.6975   21.6771 S.o2      1 UNL1        0.0000
@<TRIPOS>BOND
     1    1    2 ar
     2    1    3 ar
     3    2    5 ar
     4    3    6 ar
     5    4    7 2
     6    4   20 1
     7    5    7 1
     8    5    8 ar
     9    6    8 ar
    10    6   18 1
    11    7   17 1
    12    8   20 1
    13    9   10 2
    14   10   11 1
    15   11   21 am
    16   11   24 2
    17   12   14 1
    18   12   21 1
    19   13   15 1
    20   13   21 1
    21   14   23 1
    22   15   23 1
    23   16   27 1
    24   17   19 1
    25   18   23 1
    26   19   22 1
    27   22   27 1
    28   25   27 2
    29   26   27 2
@<TRIPOS>MOLECULE
BEN-VAN-d2b-19
   27    29     0     0     0
SMALL
NO_CHARGES

@<TRIPOS>ATOM
      1 C1         12.0522    3.8021   23.6471 C.2       1 UNL1        0.0000
      2 C2          6.6099    1.6571   23.6407 C.ar      1 UNL1        0.0000
      3 C3         11.1880    2.6696   23.6759 C.2       1 UNL1        0.0000
      4 C4          6.5857    0.5951   24.5215 C.ar      1 UNL1        0.0000
      5 C5          9.9109    3.0032   24.0699 C.2       1 UNL1        0.0000
      6 C6          7.7448    0.3902   25.2416 C.ar      1 UNL1        0.0000
      7 C7         11.4024    4.9583   24.0199 C.2       1 UNL1        0.0000
      8 C8          8.7471    2.1610   24.2283 C.ar      1 UNL1        0.0000
      9 C9          9.4555   -2.7433   24.6781 C.2       1 UNL1        0.0000
     10 C10         9.2380   -2.9781   23.3805 C.2       1 UNL1        0.0000
     11 C11         9.0022   -1.8492   22.4404 C.2       1 UNL1        0.0000
     12 C12        10.1436    0.1756   21.6173 C.2       1 UNL1        0.0000
     13 C13        13.3093   -0.3274   22.6960 C.3       1 UNL1        0.0000
     14 C14        13.1120    0.9069   23.5601 C.3       1 UNL1        0.0000
     15 C15        12.6100    0.0524   21.3980 C.3       1 UNL1        0.0000
     16 C16        11.6404    1.2696   23.3121 C.3       1 UNL1        0.0000
     17 C17        11.4232    0.9313   21.8178 C.3       1 UNL1        0.0000
     18 C18         5.5285   -1.6061   25.0343 C.3       1 UNL1        0.0000
     19 N1          7.6776    2.4637   23.4682 N.ar      1 UNL1        0.0000
     20 N2          8.8485    1.1566   25.1197 N.ar      1 UNL1        0.0000
     21 N3          5.4577   -0.2178   24.6707 N.pl3     1 UNL1        0.0000
     22 N4         10.0834   -0.9719   22.4063 N.am      1 UNL1        0.0000
     23 O1          7.9671   -1.7379   21.7916 O.2       1 UNL1        0.0000
     24 O2          9.2690    0.5726   20.8520 O.2       1 UNL1        0.0000
     25 F1          7.7989   -0.6248   26.1192 F         1 UNL1        0.0000
     26 F2         11.9876    6.1591   24.0761 F         1 UNL1        0.0000
     27 S1          9.7575    4.6759   24.4028 S.3       1 UNL1        0.0000
@<TRIPOS>BOND
     1    1    3 1
     2    1    7 2
     3    2    4 ar
     4    2   19 ar
     5    3    5 2
     6    3   16 1
     7    4    6 ar
     8    4   21 1
     9    5    8 1
    10    5   27 1
    11    6   20 ar
    12    6   25 1
    13    7   26 1
    14    7   27 1
    15    8   19 ar
    16    8   20 ar
    17    9   10 2
    18   10   11 1
    19   11   22 am
    20   11   23 2
    21   12   17 1
    22   12   22 am
    23   12   24 2
    24   13   14 1
    25   13   15 1
    26   14   16 1
    27   15   17 1
    28   16   17 1
    29   18   21 1
@<TRIPOS>MOLECULE
MAK-UNK-5e8-4
   22    23     0     0     0
SMALL
NO_CHARGES

@<TRIPOS>ATOM
      1 C1         13.4606   -1.6678   22.9102 C.2       1 UNL1        0.0000
      2 C2         14.2534    0.5032   22.0689 C.2       1 UNL1        0.0000
      3 C3         12.8318   -0.6113   23.5314 C.2       1 UNL1        0.0000
      4 C4         13.2908    0.6464   23.0440 C.2       1 UNL1        0.0000
      5 C5         13.2494    3.1646   23.0424 C.2       1 UNL1        0.0000
      6 C6          8.3656    0.8702   25.0164 C.3       1 UNL1        0.0000
      7 C7          8.4416   -0.3240   22.8035 C.3       1 UNL1        0.0000
      8 C8          9.6362    0.1525   25.4444 C.3       1 UNL1        0.0000
      9 C9          9.7121   -1.0388   23.2365 C.3       1 UNL1        0.0000
     10 C10         7.5717    0.0562   23.9990 C.3       1 UNL1        0.0000
     11 C11        11.7875   -0.7808   24.5952 C.3       1 UNL1        0.0000
     12 C12        12.5040    4.2680   23.7840 C.3       1 UNL1        0.0000
     13 C13        10.9959    4.2168   23.6026 C.3       1 UNL1        0.0000
     14 N1         10.8863    6.8643   23.7758 N.pl3     1 UNL1        0.0000
     15 N2         12.8470    1.8807   23.4755 N.am      1 UNL1        0.0000
     16 N3         10.4626   -0.1743   24.2225 N.4       1 UNL1        0.0000
     17 O1         14.0744    3.4084   22.1681 O.2       1 UNL1        0.0000
     18 O2          8.7636    5.4601   24.1489 O.2       1 UNL1        0.0000
     19 O3         10.5979    5.4224   25.8865 O.2       1 UNL1        0.0000
     20 O4          6.4622    0.8311   23.5594 O.3       1 UNL1        0.0000
     21 S1         14.5996   -1.1421   21.7445 S.3       1 UNL1        0.0000
     22 S2         10.1724    5.4960   24.4999 S.o2      1 UNL1        0.0000
@<TRIPOS>BOND
     1    1    3 2
     2    1   21 1
     3    2    4 2
     4    2   21 1
     5    3    4 1
     6    3   11 1
     7    4   15 1
     8    5   12 1
     9    5   15 am
    10    5   17 2
    11    6    8 1
    12    6   10 1
    13    7    9 1
    14    7   10 1
    15    8   16 1
    16    9   16 1
    17   10   20 1
    18   11   16 1
    19   12   13 1
    20   13   22 1
    21   14   22 1
    22   18   22 2
    23   19   22 2
@<TRIPOS>MOLECULE
STE-LAU-835-1
   28    29     0     0     0
SMALL
NO_CHARGES

@<TRIPOS>ATOM
      1 C1          5.4612   -4.1454   27.0202 C.ar      1 UNL1        0.0000
      2 C2         10.1998   -0.3122   25.1788 C.ar      1 UNL1        0.0000
      3 C3         10.4817   -2.2083   23.1519 C.ar      1 UNL1        0.0000
      4 C4          5.0545   -2.8408   26.8278 C.ar      1 UNL1        0.0000
      5 C5          9.1917   -1.2502   24.9561 C.ar      1 UNL1        0.0000
      6 C6          9.3327   -2.1983   23.9427 C.ar      1 UNL1        0.0000
      7 C7         11.3488   -0.3222   24.3880 C.ar      1 UNL1        0.0000
      8 C8         11.4898   -1.2702   23.3746 C.ar      1 UNL1        0.0000
      9 C9          6.7929   -4.3997   26.7629 C.ar      1 UNL1        0.0000
     10 C10         7.1509   -2.2270   26.1988 C.ar      1 UNL1        0.0000
     11 C11         7.1089   -6.3979   22.6222 C.2       1 UNL1        0.0000
     12 C12         7.1740   -5.1454   23.0845 C.2       1 UNL1        0.0000
     13 C13         7.3314   -5.7380   26.9314 C.2       1 UNL1        0.0000
     14 C14         8.4864   -4.4451   23.1968 C.2       1 UNL1        0.0000
     15 C15        11.4241    3.0954   23.2330 C.3       1 UNL1        0.0000
     16 C16        12.6942   -0.5293   21.3348 C.3       1 UNL1        0.0000
     17 C17        13.7976   -2.0812   22.9542 C.3       1 UNL1        0.0000
     18 C18        11.0644    2.7264   24.6652 C.3       1 UNL1        0.0000
     19 C19        12.1214    1.8544   25.3320 C.3       1 UNL1        0.0000
     20 N1          5.8757   -1.8526   26.4162 N.ar      1 UNL1        0.0000
     21 N2          7.6690   -3.4609   26.3491 N.ar      1 UNL1        0.0000
     22 N3          8.6827   -5.9337   26.6565 N.am      1 UNL1        0.0000
     23 N4          8.0361   -1.2220   25.7687 N.pl3     1 UNL1        0.0000
     24 N5          8.3356   -3.1476   23.7008 N.am      1 UNL1        0.0000
     25 N6         12.3398    0.6225   24.6256 N.pl3     1 UNL1        0.0000
     26 N7         12.6452   -1.2969   22.5617 N.pl3     1 UNL1        0.0000
     27 O1          6.6125   -6.6875   27.2927 O.2       1 UNL1        0.0000
     28 O2          9.5307   -4.9964   22.8698 O.2       1 UNL1        0.0000
@<TRIPOS>BOND
     1    1    4 ar
     2    1    9 ar
     3    2    5 ar
     4    2    7 ar
     5    3    6 ar
     6    3    8 ar
     7    4   20 ar
     8    5    6 ar
     9    5   23 1
    10    6   24 1
    11    7    8 ar
    12    7   25 1
    13    8   26 1
    14    9   13 1
    15    9   21 ar
    16   10   20 ar
    17   10   21 ar
    18   10   23 1
    19   11   12 2
    20   12   14 1
    21   13   22 am
    22   13   27 2
    23   14   24 am
    24   14   28 2
    25   15   18 1
    26   16   26 1
    27   17   26 1
    28   18   19 1
    29   19   25 1
@<TRIPOS>MOLECULE
AGN-NEW-cce-1
   23    24     0     0     0
SMALL
NO_CHARGES

@<TRIPOS>ATOM
      1 C1         12.9686    0.0465   22.5353 C.ar      1 UNL1        0.0000
      2 C2          5.8762    0.6897   17.9377 C.ar      1 UNL1        0.0000
      3 C3         13.0876    1.0315   23.5157 C.ar      1 UNL1        0.0000
      4 C4         11.7149   -0.4796   22.2237 C.ar      1 UNL1        0.0000
      5 C5          6.7476    0.2615   18.9331 C.ar      1 UNL1        0.0000
      6 C6          4.6776    1.2647   18.3284 C.ar      1 UNL1        0.0000
      7 C7         11.9529    1.4904   24.1846 C.ar      1 UNL1        0.0000
      8 C8         10.5801   -0.0207   22.8926 C.ar      1 UNL1        0.0000
      9 C9          6.3987    0.4191   20.2697 C.ar      1 UNL1        0.0000
     10 C10        10.6991    0.9643   23.8730 C.ar      1 UNL1        0.0000
     11 C11         5.1768    1.0064   20.5560 C.ar      1 UNL1        0.0000
     12 C12         7.7509    3.2126   26.0460 C.2       1 UNL1        0.0000
     13 C13         7.4298    2.3824   25.0487 C.2       1 UNL1        0.0000
     14 C14         8.4292    2.0383   23.9961 C.2       1 UNL1        0.0000
     15 C15         8.6763   -0.0730   21.2265 C.2       1 UNL1        0.0000
     16 C16        12.1124    2.5464   25.2301 C.3       1 UNL1        0.0000
     17 C17         9.2511   -0.6037   22.5359 C.3       1 UNL1        0.0000
     18 N1          4.3041    1.4347   19.6165 N.ar      1 UNL1        0.0000
     19 N2          9.5608    1.4243   24.5442 N.am      1 UNL1        0.0000
     20 N3          7.2860   -0.0163   21.2827 N.am      1 UNL1        0.0000
     21 O1          8.2210    2.2911   22.8153 O.2       1 UNL1        0.0000
     22 O2          9.3952    0.2437   20.2842 O.2       1 UNL1        0.0000
     23 Cl1         4.6278    1.2586   22.1681 Cl        1 UNL1        0.0000
@<TRIPOS>BOND
     1    1    3 ar
     2    1    4 ar
     3    2    5 ar
     4    2    6 ar
     5    3    7 ar
     6    4    8 ar
     7    5    9 ar
     8    6   18 ar
     9    7   10 ar
    10    7   16 1
    11    8   10 ar
    12    8   17 1
    13    9   11 ar
    14    9   20 1
    15   10   19 1
    16   11   18 ar
    17   11   23 1
    18   12   13 2
    19   13   14 1
    20   14   19 am
    21   14   21 2
    22   15   17 1
    23   15   20 am
    24   15   22 2
@<TRIPOS>MOLECULE
SEA-TRI-6cb-1
   30    32     0     0     0
SMALL
NO_CHARGES

@<TRIPOS>ATOM
      1 C1         14.2027   -1.4559   25.5769 C.2       1 UNL1        0.0000
      2 C2         13.1009   -0.6986   25.0844 C.2       1 UNL1        0.0000
      3 C3         11.1898    2.1056   23.9154 C.ar      1 UNL1        0.0000
      4 C4         12.0358    4.2906   23.3265 C.ar      1 UNL1        0.0000
      5 C5         12.9046    2.3224   22.2273 C.ar      1 UNL1        0.0000
      6 C6         14.9637   -1.9849   24.5577 C.2       1 UNL1        0.0000
      7 C7         11.1822    3.4900   24.0855 C.ar      1 UNL1        0.0000
      8 C8         12.0510    1.5218   22.9863 C.ar      1 UNL1        0.0000
      9 C9         12.8970    3.7068   22.3974 C.ar      1 UNL1        0.0000
     10 C10        13.0618   -0.6774   23.7075 C.2       1 UNL1        0.0000
     11 C11         6.2854   -3.3522   24.4175 C.2       1 UNL1        0.0000
     12 C12         6.1117   -2.5527   23.3634 C.2       1 UNL1        0.0000
     13 C13         8.3533   -0.6635   22.1480 C.3       1 UNL1        0.0000
     14 C14         9.4023   -2.7268   23.0079 C.3       1 UNL1        0.0000
     15 C15         9.7242   -0.0477   21.9151 C.3       1 UNL1        0.0000
     16 C16        10.7845   -2.1337   22.7836 C.3       1 UNL1        0.0000
     17 C17        10.2600    4.1138   25.0780 C.3       1 UNL1        0.0000
     18 C18         8.8931    4.4851   24.4968 C.3       1 UNL1        0.0000
     19 C19        12.0570    0.0133   22.8006 C.3       1 UNL1        0.0000
     20 N1          8.4416   -2.1473   22.0252 N.pl3     1 UNL1        0.0000
     21 N2          7.4251    6.2279   23.1334 N.pl3     1 UNL1        0.0000
     22 N3         10.7034   -0.6305   22.9067 N.4       1 UNL1        0.0000
     23 O1          7.2112   -4.3899   21.9186 O.2       1 UNL1        0.0000
     24 O2          6.2098   -2.3794   20.7883 O.2       1 UNL1        0.0000
     25 O3          9.9337    6.6642   23.4989 O.2       1 UNL1        0.0000
     26 O4          9.2103    4.8241   21.9253 O.2       1 UNL1        0.0000
     27 S1         14.3496   -1.5682   23.0145 S.3       1 UNL1        0.0000
     28 S2          6.9401   -2.9634   21.8992 S.o2      1 UNL1        0.0000
     29 S3          9.0112    5.6027   23.1353 S.o2      1 UNL1        0.0000
     30 Cl1        13.9511    4.6946   21.4618 Cl        1 UNL1        0.0000
@<TRIPOS>BOND
     1    1    2 1
     2    1    6 2
     3    2   10 2
     4    3    7 ar
     5    3    8 ar
     6    4    7 ar
     7    4    9 ar
     8    5    8 ar
     9    5    9 ar
    10    6   27 1
    11    7   17 1
    12    8   19 1
    13    9   30 1
    14   10   19 1
    15   10   27 1
    16   11   12 2
    17   12   28 1
    18   13   15 1
    19   13   20 1
    20   14   16 1
    21   14   20 1
    22   15   22 1
    23   16   22 1
    24   17   18 1
    25   18   29 1
    26   19   22 1
    27   20   28 1
    28   21   29 1
    29   23   28 2
    30   24   28 2
    31   25   29 2
    32   26   29 2
@<TRIPOS>MOLECULE
NIM-UNI-ed9-1
   27    28     0     0     0
SMALL
NO_CHARGES

@<TRIPOS>ATOM
      1 C1          5.9668    0.1783   21.2864 C.ar      1 UNL1        0.0000
      2 C2          7.2248    0.3799   19.2337 C.ar      1 UNL1        0.0000
      3 C3          4.9133    0.8882   20.7106 C.ar      1 UNL1        0.0000
      4 C4          6.1713    1.0898   18.6578 C.ar      1 UNL1        0.0000
      5 C5          7.1226   -0.0759   20.5480 C.ar      1 UNL1        0.0000
      6 C6          5.0155    1.3440   19.3962 C.ar      1 UNL1        0.0000
      7 C7          5.8445    7.8822   22.6645 C.2       1 UNL1        0.0000
      8 C8         11.6999   -0.2717   22.5021 C.2       1 UNL1        0.0000
      9 C9          8.7224    0.8350   23.0447 C.2       1 UNL1        0.0000
     10 C10         8.0149    6.9347   23.3808 C.3       1 UNL1        0.0000
     11 C11         6.7516    5.7417   21.6332 C.3       1 UNL1        0.0000
     12 C12         8.2172    5.6370   24.1492 C.3       1 UNL1        0.0000
     13 C13         6.9367    4.4248   22.3749 C.3       1 UNL1        0.0000
     14 C14        12.6820   -1.2519   23.0525 C.3       1 UNL1        0.0000
     15 C15         8.2639   -0.8456   21.1716 C.3       1 UNL1        0.0000
     16 C16         4.6260    7.7453   21.7869 C.3       1 UNL1        0.0000
     17 C17         8.5114    3.1747   23.8557 C.3       1 UNL1        0.0000
     18 C18         9.3064    0.0192   21.8948 C.3       1 UNL1        0.0000
     19 N1          6.8048    6.8768   22.5607 N.am      1 UNL1        0.0000
     20 N2          8.9367    2.1969   22.8836 N.am      1 UNL1        0.0000
     21 N3         10.4085   -0.7597   22.3985 N.am      1 UNL1        0.0000
     22 N4          8.2198    4.4816   23.1733 N.4       1 UNL1        0.0000
     23 O1          5.9371    8.8527   23.4206 O.2       1 UNL1        0.0000
     24 O2         12.0773    0.8521   22.1915 O.2       1 UNL1        0.0000
     25 O3          8.1599    0.3230   24.0106 O.2       1 UNL1        0.0000
     26 O4          3.9868    2.0356   18.8340 O.3       1 UNL1        0.0000
     27 Cl1         3.4536    6.7992   22.6969 Cl        1 UNL1        0.0000
@<TRIPOS>BOND
     1    1    3 ar
     2    1    5 ar
     3    2    4 ar
     4    2    5 ar
     5    3    6 ar
     6    4    6 ar
     7    5   15 1
     8    6   26 1
     9    7   16 1
    10    7   19 am
    11    7   23 2
    12    8   14 1
    13    8   21 am
    14    8   24 2
    15    9   18 1
    16    9   20 am
    17    9   25 2
    18   10   12 1
    19   10   19 1
    20   11   13 1
    21   11   19 1
    22   12   22 1
    23   13   22 1
    24   15   18 1
    25   16   27 1
    26   17   20 1
    27   17   22 1
    28   18   21 1
@<TRIPOS>MOLECULE
MAK-UNK-af8-25
   31    33     0     0     0
SMALL
NO_CHARGES

@<TRIPOS>ATOM
      1 C1          8.0665   -1.0112   24.1177 C.1       1 UNL1        0.0000
      2 C2          8.7201    0.9606   25.4198 C.ar      1 UNL1        0.0000
      3 C3          8.7367    2.3418   25.5790 C.ar      1 UNL1        0.0000
      4 C4          7.5130    1.2610   23.3927 C.ar      1 UNL1        0.0000
      5 C5          8.0986    0.4019   24.3086 C.ar      1 UNL1        0.0000
      6 C6          8.1227    3.1141   24.6062 C.ar      1 UNL1        0.0000
      7 C7         13.2957   -1.2979   22.5322 C.2       1 UNL1        0.0000
      8 C8         14.6013    0.8030   22.5827 C.3       1 UNL1        0.0000
      9 C9         12.5009    0.7147   23.8686 C.3       1 UNL1        0.0000
     10 C10        14.1897    2.1301   21.9622 C.3       1 UNL1        0.0000
     11 C11        12.0582    2.0423   23.2685 C.3       1 UNL1        0.0000
     12 C12        11.5478    6.3131   23.0464 C.3       1 UNL1        0.0000
     13 C13        11.1994    6.8874   24.4039 C.3       1 UNL1        0.0000
     14 C14        11.9800    4.8973   23.4068 C.3       1 UNL1        0.0000
     15 C15        12.1790    6.1917   25.3492 C.3       1 UNL1        0.0000
     16 C16        13.4005    7.0394   25.6747 C.3       1 UNL1        0.0000
     17 C17        12.0571   -2.0351   22.9753 C.3       1 UNL1        0.0000
     18 C18        12.9121    4.2275   22.4136 C.3       1 UNL1        0.0000
     19 C19         7.5156    6.8539   24.4860 C.3       1 UNL1        0.0000
     20 C20         7.2412    5.3990   24.1291 C.3       1 UNL1        0.0000
     21 C21         8.9109    7.3097   24.0763 C.3       1 UNL1        0.0000
     22 N1          8.0405   -2.1610   23.9625 N.1       1 UNL1        0.0000
     23 N2          7.5090    2.6075   23.5133 N.ar      1 UNL1        0.0000
     24 N3         13.4294    0.0184   22.9715 N.am      1 UNL1        0.0000
     25 N4          8.1472    4.4922   24.7797 N.pl3     1 UNL1        0.0000
     26 N5         13.2809    2.8629   22.9237 N.4       1 UNL1        0.0000
     27 O1         14.1170   -1.8754   21.8153 O.2       1 UNL1        0.0000
     28 O2         12.6376    4.9997   24.6806 O.3       1 UNL1        0.0000
     29 O3         12.6258    7.0415   22.4748 O.3       1 UNL1        0.0000
     30 O4          9.8690    6.4914   24.7301 O.3       1 UNL1        0.0000
     31 Cl1        10.8187   -1.7106   21.7675 Cl        1 UNL1        0.0000
@<TRIPOS>BOND
     1    1    5 1
     2    1   22 3
     3    2    3 ar
     4    2    5 ar
     5    3    6 ar
     6    4    5 ar
     7    4   23 ar
     8    6   23 ar
     9    6   25 1
    10    7   17 1
    11    7   24 am
    12    7   27 2
    13    8   10 1
    14    8   24 1
    15    9   11 1
    16    9   24 1
    17   10   26 1
    18   11   26 1
    19   12   13 1
    20   12   14 1
    21   12   29 1
    22   13   15 1
    23   13   30 1
    24   14   18 1
    25   14   28 1
    26   15   16 1
    27   15   28 1
    28   17   31 1
    29   18   26 1
    30   19   20 1
    31   19   21 1
    32   20   25 1
    33   21   30 1
@<TRIPOS>MOLECULE
DAV-CRI-b70-1
   33    37     0     0     0
SMALL
NO_CHARGES

@<TRIPOS>ATOM
      1 C1         12.9923    0.5604   23.2221 C.ar      1 UNL1        0.0000
      2 C2         12.3515    0.6102   24.4600 C.ar      1 UNL1        0.0000
      3 C3         12.5294   -0.3058   22.2314 C.ar      1 UNL1        0.0000
      4 C4         11.2446   -4.7560   26.0486 C.ar      1 UNL1        0.0000
      5 C5         10.2682   -5.7445   25.9816 C.ar      1 UNL1        0.0000
      6 C6         11.2479   -0.2062   24.7074 C.ar      1 UNL1        0.0000
      7 C7         11.4258   -1.1221   22.4788 C.ar      1 UNL1        0.0000
      8 C8         11.0438   -3.5279   25.4157 C.ar      1 UNL1        0.0000
      9 C9          9.0823   -5.5012   25.2930 C.ar      1 UNL1        0.0000
     10 C10        10.7850   -1.0724   23.7168 C.ar      1 UNL1        0.0000
     11 C11         9.8698   -3.2795   24.6882 C.ar      1 UNL1        0.0000
     12 C12         8.8711   -4.2714   24.6498 C.ar      1 UNL1        0.0000
     13 C13         4.1353   -5.4867   23.2566 C.2       1 UNL1        0.0000
     14 C14         6.6394   -3.1753   21.8270 C.2       1 UNL1        0.0000
     15 C15         3.9011   -6.9470   23.5652 C.3       1 UNL1        0.0000
     16 C16         3.8611   -6.9828   25.0882 C.3       1 UNL1        0.0000
     17 C17         4.7694   -5.8427   25.5031 C.3       1 UNL1        0.0000
     18 C18         8.8162   -2.2291   22.6732 C.3       1 UNL1        0.0000
     19 C19         6.7858   -1.9432   25.2558 C.3       1 UNL1        0.0000
     20 C20         4.2644   -2.7633   25.5674 C.3       1 UNL1        0.0000
     21 C21         9.5796   -1.9647   23.9864 C.3       1 UNL1        0.0000
     22 C22         7.5402   -3.9913   23.9819 C.3       1 UNL1        0.0000
     23 C23         6.5503   -3.4363   24.9975 C.3       1 UNL1        0.0000
     24 C24         5.0836   -3.5414   24.5388 C.3       1 UNL1        0.0000
     25 C25         6.4042   -1.9310   21.0055 C.3       1 UNL1        0.0000
     26 N1          4.6261   -4.8988   24.4201 N.am      1 UNL1        0.0000
     27 N2          7.6364   -3.0961   22.8111 N.am      1 UNL1        0.0000
     28 O1          3.9590   -4.9698   22.1636 O.2       1 UNL1        0.0000
     29 O2          5.9603   -4.1820   21.6090 O.2       1 UNL1        0.0000
     30 O3          4.8040   -0.2071   25.2003 O.2       1 UNL1        0.0000
     31 O4          5.4206   -1.2810   27.4144 O.2       1 UNL1        0.0000
     32 S1          5.2652   -1.3398   25.9759 S.o2      1 UNL1        0.0000
     33 Cl1         5.9011   -0.6731   22.1292 Cl        1 UNL1        0.0000
@<TRIPOS>BOND
     1    1    2 ar
     2    1    3 ar
     3    2    6 ar
     4    3    7 ar
     5    4    5 ar
     6    4    8 ar
     7    5    9 ar
     8    6   10 ar
     9    7   10 ar
    10    8   11 ar
    11    9   12 ar
    12   10   21 1
    13   11   12 ar
    14   11   21 1
    15   12   22 1
    16   13   15 1
    17   13   26 am
    18   13   28 2
    19   14   25 1
    20   14   27 am
    21   14   29 2
    22   15   16 1
    23   16   17 1
    24   17   26 1
    25   18   21 1
    26   18   27 1
    27   19   23 1
    28   19   32 1
    29   20   24 1
    30   20   32 1
    31   22   23 1
    32   22   27 1
    33   23   24 1
    34   24   26 1
    35   25   33 1
    36   30   32 2
    37   31   32 2
@<TRIPOS>MOLECULE
TOB-UNK-c2a-1
   13    13     0     0     0
SMALL
NO_CHARGES

@<TRIPOS>ATOM
      1 C1         12.5135   -0.0617   22.7933 C.1       1 UNL1        0.0000
      2 C2         11.6740   -0.8904   23.0165 C.1       1 UNL1        0.0000
      3 C3          6.4465   -1.7245   19.6943 C.2       1 UNL1        0.0000
      4 C4          7.0427   -2.1125   22.0639 C.3       1 UNL1        0.0000
      5 C5          8.1793   -0.2809   20.8695 C.3       1 UNL1        0.0000
      6 C6          8.3768   -2.6316   22.5798 C.3       1 UNL1        0.0000
      7 C7          9.5314   -0.7717   21.3693 C.3       1 UNL1        0.0000
      8 C8         10.6564   -1.9017   23.2910 C.3       1 UNL1        0.0000
      9 C9          6.6860   -0.9252   18.4383 C.3       1 UNL1        0.0000
     10 N1          7.2129   -1.3826   20.8076 N.am      1 UNL1        0.0000
     11 N2          9.3444   -1.4750   22.6951 N.4       1 UNL1        0.0000
     12 O1          5.6051   -2.6268   19.6836 O.2       1 UNL1        0.0000
     13 Cl1         5.5572    0.4247   18.4774 Cl        1 UNL1        0.0000
@<TRIPOS>BOND
     1    1    2 3
     2    2    8 1
     3    3    9 1
     4    3   10 am
     5    3   12 2
     6    4    6 1
     7    4   10 1
     8    5    7 1
     9    5   10 1
    10    6   11 1
    11    7   11 1
    12    8   11 1
    13    9   13 1
@<TRIPOS>MOLECULE
DAN-LON-a5f-9
   23    25     0     0     0
SMALL
NO_CHARGES

@<TRIPOS>ATOM
      1 C1         11.8830    0.2423   24.7163 C.ar      1 UNL1        0.0000
      2 C2          3.7966   -3.5246   24.8264 C.2       1 UNL1        0.0000
      3 C3         10.9566   -0.7941   24.8318 C.ar      1 UNL1        0.0000
      4 C4         12.7593    0.2769   23.6316 C.ar      1 UNL1        0.0000
      5 C5          4.8792   -3.9364   23.9966 C.2       1 UNL1        0.0000
      6 C6         11.7830   -1.7616   22.7780 C.ar      1 UNL1        0.0000
      7 C7          4.2070   -2.6716   25.8271 C.2       1 UNL1        0.0000
      8 C8         10.9067   -1.7960   23.8627 C.ar      1 UNL1        0.0000
      9 C9         12.7094   -0.7251   22.6625 C.ar      1 UNL1        0.0000
     10 C10         6.0760   -3.3820   24.3947 C.2       1 UNL1        0.0000
     11 C11         6.0052   -2.5778   20.7044 C.2       1 UNL1        0.0000
     12 C12         8.1593   -1.6168   21.6496 C.3       1 UNL1        0.0000
     13 C13         7.4190   -3.8748   22.2654 C.3       1 UNL1        0.0000
     14 C14         8.2733   -1.2158   23.1113 C.3       1 UNL1        0.0000
     15 C15         7.4612   -3.5661   23.7768 C.3       1 UNL1        0.0000
     16 C16         9.9109   -2.9112   23.9882 C.3       1 UNL1        0.0000
     17 C17         5.7846   -1.2766   19.9757 C.3       1 UNL1        0.0000
     18 N1          7.1567   -2.6687   21.4847 N.am      1 UNL1        0.0000
     19 N2          8.4789   -2.4276   24.0029 N.4       1 UNL1        0.0000
     20 O1          5.1765   -3.4839   20.5848 O.2       1 UNL1        0.0000
     21 S1          5.8914   -2.3701   25.7637 S.3       1 UNL1        0.0000
     22 Cl1        13.7916   -0.6826   21.3251 Cl        1 UNL1        0.0000
     23 Cl2         4.2952   -1.4606   19.0561 Cl        1 UNL1        0.0000
@<TRIPOS>BOND
     1    1    3 ar
     2    1    4 ar
     3    2    5 1
     4    2    7 2
     5    3    8 ar
     6    4    9 ar
     7    5   10 2
     8    6    8 ar
     9    6    9 ar
    10    7   21 1
    11    8   16 1
    12    9   22 1
    13   10   15 1
    14   10   21 1
    15   11   17 1
    16   11   18 am
    17   11   20 2
    18   12   14 1
    19   12   18 1
    20   13   15 1
    21   13   18 1
    22   14   19 1
    23   15   19 1
    24   16   19 1
    25   17   23 1
@<TRIPOS>MOLECULE
BEN-VAN-d2b-4
   26    28     0     0     0
SMALL
NO_CHARGES

@<TRIPOS>ATOM
      1 C1          7.5190   -1.3883   21.6718 C.ar      1 UNL1        0.0000
      2 C2          7.6996    0.5210   20.3383 C.ar      1 UNL1        0.0000
      3 C3         13.3145   -0.2973   21.9738 C.2       1 UNL1        0.0000
      4 C4         11.4126    0.5836   22.9782 C.2       1 UNL1        0.0000
      5 C5          6.9051   -0.5053   20.8072 C.ar      1 UNL1        0.0000
      6 C6         12.8327    0.4717   23.0101 C.2       1 UNL1        0.0000
      7 C7         10.8632   -0.1040   21.9183 C.2       1 UNL1        0.0000
      8 C8          9.4779   -0.2438   21.5298 C.ar      1 UNL1        0.0000
      9 C9         14.3326    5.8744   21.5505 C.2       1 UNL1        0.0000
     10 C10        13.7317    4.8505   22.1642 C.2       1 UNL1        0.0000
     11 C11        12.4677    5.0628   22.9200 C.2       1 UNL1        0.0000
     12 C12        10.4202    3.8334   23.5334 C.2       1 UNL1        0.0000
     13 C13         8.2026    0.9764   24.2835 C.3       1 UNL1        0.0000
     14 C14         9.5704    0.5174   24.7690 C.3       1 UNL1        0.0000
     15 C15         8.4088    2.4508   23.9869 C.3       1 UNL1        0.0000
     16 C16        10.5963    1.3655   23.9897 C.3       1 UNL1        0.0000
     17 C17         9.7820    2.4959   23.3214 C.3       1 UNL1        0.0000
     18 C18         4.9013    0.2651   19.5356 C.3       1 UNL1        0.0000
     19 N1          8.8084   -1.2872   22.0559 N.ar      1 UNL1        0.0000
     20 N2          8.9946    0.6826   20.6803 N.ar      1 UNL1        0.0000
     21 N3          5.5650   -0.6406   20.4322 N.pl3     1 UNL1        0.0000
     22 N4         11.6627    3.9263   22.9086 N.am      1 UNL1        0.0000
     23 O1         12.2015    6.1251   23.4725 O.2       1 UNL1        0.0000
     24 O2          9.8650    4.7229   24.1728 O.2       1 UNL1        0.0000
     25 S1         12.0573   -0.8804   20.9679 S.3       1 UNL1        0.0000
     26 Cl1        13.8192    1.2077   24.2002 Cl        1 UNL1        0.0000
@<TRIPOS>BOND
     1    1    5 ar
     2    1   19 ar
     3    2    5 ar
     4    2   20 ar
     5    3    6 2
     6    3   25 1
     7    4    6 1
     8    4    7 2
     9    4   16 1
    10    5   21 1
    11    6   26 1
    12    7    8 1
    13    7   25 1
    14    8   19 ar
    15    8   20 ar
    16    9   10 2
    17   10   11 1
    18   11   22 am
    19   11   23 2
    20   12   17 1
    21   12   22 am
    22   12   24 2
    23   13   14 1
    24   13   15 1
    25   14   16 1
    26   15   17 1
    27   16   17 1
    28   18   21 1
@<TRIPOS>MOLECULE
TAM-UNI-d1c-22
   22    23     0     0     0
SMALL
NO_CHARGES

@<TRIPOS>ATOM
      1 C1          7.6597   -1.3683   21.3071 C.ar      1 UNL1        0.0000
      2 C2          6.3907   -3.1402   22.4264 C.ar      1 UNL1        0.0000
      3 C3          8.8497   -0.6616   21.1315 C.ar      1 UNL1        0.0000
      4 C4          6.3297   -4.1803   23.3542 C.ar      1 UNL1        0.0000
      5 C5          9.9133   -2.0336   22.8089 C.ar      1 UNL1        0.0000
      6 C6          8.6444   -3.8056   23.9282 C.ar      1 UNL1        0.0000
      7 C7          7.5802   -2.4181   22.2366 C.ar      1 UNL1        0.0000
      8 C8          8.7239   -2.7557   22.9987 C.ar      1 UNL1        0.0000
      9 C9          9.9743   -0.9936   21.8810 C.ar      1 UNL1        0.0000
     10 C10         7.4544   -4.5123   24.1037 C.ar      1 UNL1        0.0000
     11 C11        11.2232    0.9214   23.8833 C.2       1 UNL1        0.0000
     12 C12        12.5000   -1.0843   21.9518 C.3       1 UNL1        0.0000
     13 C13         7.5523   -3.7702   27.0295 C.3       1 UNL1        0.0000
     14 C14        11.3097    2.2873   24.5151 C.3       1 UNL1        0.0000
     15 C15        11.2458   -0.2367   21.6924 C.3       1 UNL1        0.0000
     16 N1          7.3917   -5.5790   25.0508 N.pl3     1 UNL1        0.0000
     17 N2         11.2912    0.9665   22.5058 N.am      1 UNL1        0.0000
     18 O1         11.1202   -0.1007   24.5593 O.2       1 UNL1        0.0000
     19 O2          7.6306   -6.3262   27.5075 O.2       1 UNL1        0.0000
     20 O3          9.6153   -5.2485   26.3918 O.2       1 UNL1        0.0000
     21 S1          8.1814   -5.3685   26.5667 S.o2      1 UNL1        0.0000
     22 Cl1        12.0677    2.1048   26.1048 Cl        1 UNL1        0.0000
@<TRIPOS>BOND
     1    1    3 ar
     2    1    7 ar
     3    2    4 ar
     4    2    7 ar
     5    3    9 ar
     6    4   10 ar
     7    5    8 ar
     8    5    9 ar
     9    6    8 ar
    10    6   10 ar
    11    7    8 ar
    12    9   15 1
    13   10   16 1
    14   11   14 1
    15   11   17 am
    16   11   18 2
    17   12   15 1
    18   13   21 1
    19   14   22 1
    20   15   17 1
    21   16   21 1
    22   19   21 2
    23   20   21 2
@<TRIPOS>MOLECULE
BEN-VAN-d2b-2
   30    32     0     0     0
SMALL
NO_CHARGES

@<TRIPOS>ATOM
      1 C1         11.5613    4.7410   23.5198 C.1       1 UNL1        0.0000
      2 C2          9.5208    5.4643   22.4037 C.ar      1 UNL1        0.0000
      3 C3          9.8449   -0.9094   25.8260 C.2       1 UNL1        0.0000
      4 C4          8.7226    1.2704   25.6295 C.2       1 UNL1        0.0000
      5 C5         10.2241    4.4840   23.0850 C.ar      1 UNL1        0.0000
      6 C6         10.4882   -0.0744   24.9392 C.2       1 UNL1        0.0000
      7 C7          9.8383    1.1884   24.8254 C.2       1 UNL1        0.0000
      8 C8          9.5869    3.2708   23.3207 C.ar      1 UNL1        0.0000
      9 C9          8.2844    3.0777   22.8742 C.ar      1 UNL1        0.0000
     10 C10         7.6679    4.1210   22.2025 C.ar      1 UNL1        0.0000
     11 C11         6.2773   -3.1362   22.4047 C.2       1 UNL1        0.0000
     12 C12         7.5509   -2.8147   22.6514 C.2       1 UNL1        0.0000
     13 C13         8.1400   -1.5763   22.0742 C.2       1 UNL1        0.0000
     14 C14        10.2790   -0.3498   22.0543 C.2       1 UNL1        0.0000
     15 C15        13.6673    0.6931   23.2225 C.3       1 UNL1        0.0000
     16 C16        12.9563    0.4166   24.5405 C.3       1 UNL1        0.0000
     17 C17        12.5404    0.7245   22.2057 C.3       1 UNL1        0.0000
     18 C18        11.7402   -0.4687   24.1814 C.3       1 UNL1        0.0000
     19 C19        11.6564   -0.4417   22.6349 C.3       1 UNL1        0.0000
     20 C20         4.2672    2.7471   21.3836 C.3       1 UNL1        0.0000
     21 C21         5.6382    2.6891   21.9664 C.3       1 UNL1        0.0000
     22 N1         12.6470    4.9495   23.8727 N.1       1 UNL1        0.0000
     23 N2          8.2546    5.3135   21.9547 N.ar      1 UNL1        0.0000
     24 N3         10.2556    2.1984   24.0258 N.pl3     1 UNL1        0.0000
     25 N4          6.3406    3.9124   21.7527 N.pl3     1 UNL1        0.0000
     26 N5          9.4730   -1.4176   22.4453 N.am      1 UNL1        0.0000
     27 O1          7.4974   -0.8112   21.3626 O.2       1 UNL1        0.0000
     28 O2          9.9378    0.5887   21.3395 O.2       1 UNL1        0.0000
     29 F1          7.6477    1.9177   23.0878 F         1 UNL1        0.0000
     30 S1          8.4630   -0.1709   26.5169 S.3       1 UNL1        0.0000
@<TRIPOS>BOND
     1    1    5 1
     2    1   22 3
     3    2    5 ar
     4    2   23 ar
     5    3    6 2
     6    3   30 1
     7    4    7 2
     8    4   30 1
     9    5    8 ar
    10    6    7 1
    11    6   18 1
    12    7   24 1
    13    8    9 ar
    14    8   24 1
    15    9   10 ar
    16    9   29 1
    17   10   23 ar
    18   10   25 1
    19   11   12 2
    20   12   13 1
    21   13   26 am
    22   13   27 2
    23   14   19 1
    24   14   26 am
    25   14   28 2
    26   15   16 1
    27   15   17 1
    28   16   18 1
    29   17   19 1
    30   18   19 1
    31   20   21 1
    32   21   25 1
@<TRIPOS>MOLECULE
TAM-UNI-d1c-18
   23    24     0     0     0
SMALL
NO_CHARGES

@<TRIPOS>ATOM
      1 C1          5.5495   -5.7406   25.6571 C.1       1 UNL1        0.0000
      2 C2          5.2116   -5.1332   23.3127 C.ar      1 UNL1        0.0000
      3 C3          5.4612   -4.2898   22.2301 C.ar      1 UNL1        0.0000
      4 C4          6.6511   -3.7774   24.7008 C.ar      1 UNL1        0.0000
      5 C5          5.8065   -4.8770   24.5481 C.ar      1 UNL1        0.0000
      6 C6          6.9008   -2.9341   23.6182 C.ar      1 UNL1        0.0000
      7 C7          6.3058   -3.1902   22.3828 C.ar      1 UNL1        0.0000
      8 C8         12.4767   -0.0544   22.6476 C.2       1 UNL1        0.0000
      9 C9          6.0270   -2.4685   19.9900 C.2       1 UNL1        0.0000
     10 C10        10.4317    0.0064   24.0370 C.3       1 UNL1        0.0000
     11 C11        10.5364   -1.6337   22.1950 C.3       1 UNL1        0.0000
     12 C12         9.9373   -1.0696   24.9925 C.3       1 UNL1        0.0000
     13 C13        10.0403   -2.7325   23.1255 C.3       1 UNL1        0.0000
     14 C14         6.5259   -1.3624   19.0943 C.3       1 UNL1        0.0000
     15 C15         7.8122   -1.7580   23.8112 C.3       1 UNL1        0.0000
     16 C16        13.4866   -1.0188   22.0785 C.3       1 UNL1        0.0000
     17 N1          5.3408   -6.4419   26.5579 N.1       1 UNL1        0.0000
     18 N2         11.2165   -0.5725   22.9460 N.am      1 UNL1        0.0000
     19 N3          6.5416   -2.3560   21.2872 N.am      1 UNL1        0.0000
     20 N4          9.1997   -2.1515   24.2384 N.4       1 UNL1        0.0000
     21 O1         12.8006    1.1230   22.8233 O.2       1 UNL1        0.0000
     22 O2          5.2610   -3.3259   19.5622 O.2       1 UNL1        0.0000
     23 Cl1        13.7346   -2.2653   23.2961 Cl        1 UNL1        0.0000
@<TRIPOS>BOND
     1    1    5 1
     2    1   17 3
     3    2    3 ar
     4    2    5 ar
     5    3    7 ar
     6    4    5 ar
     7    4    6 ar
     8    6    7 ar
     9    6   15 1
    10    7   19 1
    11    8   16 1
    12    8   18 am
    13    8   21 2
    14    9   14 1
    15    9   19 am
    16    9   22 2
    17   10   12 1
    18   10   18 1
    19   11   13 1
    20   11   18 1
    21   12   20 1
    22   13   20 1
    23   15   20 1
    24   16   23 1
@<TRIPOS>MOLECULE
PAU-UNI-8cd-1
   19    20     0     0     0
SMALL
NO_CHARGES

@<TRIPOS>ATOM
      1 C1         10.8172   -2.1090   22.9558 C.ar      1 UNL1        0.0000
      2 C2          9.6640   -1.1945   24.8717 C.ar      1 UNL1        0.0000
      3 C3         11.7943   -0.2787   24.1936 C.ar      1 UNL1        0.0000
      4 C4          9.7227   -2.1095   23.8205 C.ar      1 UNL1        0.0000
      5 C5         11.8531   -1.1936   23.1424 C.ar      1 UNL1        0.0000
      6 C6         10.6998   -0.2791   25.0583 C.ar      1 UNL1        0.0000
      7 C7          5.8308   -2.1873   19.4373 C.2       1 UNL1        0.0000
      8 C8          6.4751   -3.6294   21.3402 C.3       1 UNL1        0.0000
      9 C9          7.5968   -1.4427   21.1079 C.3       1 UNL1        0.0000
     10 C10         6.2267   -3.3664   22.8182 C.3       1 UNL1        0.0000
     11 C11         7.3660   -1.1508   22.5846 C.3       1 UNL1        0.0000
     12 C12         8.6081   -3.0932   23.6181 C.3       1 UNL1        0.0000
     13 C13         5.4361   -0.7681   19.1147 C.3       1 UNL1        0.0000
     14 N1          6.5915   -2.3780   20.5907 N.am      1 UNL1        0.0000
     15 N2          7.2776   -2.4348   23.3759 N.4       1 UNL1        0.0000
     16 O1          5.4707   -3.0979   18.6869 O.2       1 UNL1        0.0000
     17 Cl1        13.2040   -1.1942   22.0762 Cl        1 UNL1        0.0000
     18 Cl2        10.6263    0.8504   26.3550 Cl        1 UNL1        0.0000
     19 Cl3         6.1546   -0.3878   17.5536 Cl        1 UNL1        0.0000
@<TRIPOS>BOND
     1    1    4 ar
     2    1    5 ar
     3    2    4 ar
     4    2    6 ar
     5    3    5 ar
     6    3    6 ar
     7    4   12 1
     8    5   17 1
     9    6   18 1
    10    7   13 1
    11    7   14 am
    12    7   16 2
    13    8   10 1
    14    8   14 1
    15    9   11 1
    16    9   14 1
    17   10   15 1
    18   11   15 1
    19   12   15 1
    20   13   19 1
@<TRIPOS>MOLECULE
TAM-UNI-d1c-8
   28    31     0     0     0
SMALL
NO_CHARGES

@<TRIPOS>ATOM
      1 C1          6.6276   -5.7477   26.0543 C.ar      1 UNL1        0.0000
      2 C2          7.1647   -4.6341   26.6938 C.ar      1 UNL1        0.0000
      3 C3          6.1727   -5.6450   24.7400 C.ar      1 UNL1        0.0000
      4 C4          7.2445   -3.4158   26.0209 C.ar      1 UNL1        0.0000
      5 C5          8.9792   -2.4134   22.6412 C.ar      1 UNL1        0.0000
      6 C6         10.2764   -2.0860   22.2476 C.ar      1 UNL1        0.0000
      7 C7          8.9176   -0.4629   24.0620 C.ar      1 UNL1        0.0000
      8 C8          8.3014   -1.6043   23.5497 C.ar      1 UNL1        0.0000
      9 C9         10.9099   -0.9483   22.7662 C.ar      1 UNL1        0.0000
     10 C10         6.2524   -4.4267   24.0484 C.ar      1 UNL1        0.0000
     11 C11         6.7867   -3.2988   24.6985 C.ar      1 UNL1        0.0000
     12 C12        10.2182   -0.1196   23.6671 C.ar      1 UNL1        0.0000
     13 C13         6.1507   -2.9286   20.5765 C.2       1 UNL1        0.0000
     14 C14        12.2996   -0.5895   22.3065 C.3       1 UNL1        0.0000
     15 C15         5.7504   -4.3641   22.6260 C.3       1 UNL1        0.0000
     16 C16        10.8712    1.1102   24.2496 C.3       1 UNL1        0.0000
     17 C17        13.0132    0.3350   23.2888 C.3       1 UNL1        0.0000
     18 C18         5.8996   -1.8927   22.8056 C.3       1 UNL1        0.0000
     19 C19         6.8860   -1.9647   23.9823 C.3       1 UNL1        0.0000
     20 C20        13.2075    2.3154   25.8541 C.3       1 UNL1        0.0000
     21 C21         7.0230   -1.7835   20.1253 C.3       1 UNL1        0.0000
     22 N1          5.9878   -3.0792   21.9555 N.am      1 UNL1        0.0000
     23 N2         12.1378    1.5075   23.5619 N.pl3     1 UNL1        0.0000
     24 O1          5.6263   -3.6588   19.7320 O.2       1 UNL1        0.0000
     25 O2         11.9645    3.9758   24.2650 O.2       1 UNL1        0.0000
     26 O3         14.2015    3.0431   23.5497 O.2       1 UNL1        0.0000
     27 S1         12.9188    2.8906   24.2007 S.o2      1 UNL1        0.0000
     28 Cl1         5.9579   -0.4024   19.8907 Cl        1 UNL1        0.0000
@<TRIPOS>BOND
     1    1    2 ar
     2    1    3 ar
     3    2    4 ar
     4    3   10 ar
     5    4   11 ar
     6    5    6 ar
     7    5    8 ar
     8    6    9 ar
     9    7    8 ar
    10    7   12 ar
    11    8   19 1
    12    9   12 ar
    13    9   14 1
    14   10   11 ar
    15   10   15 1
    16   11   19 1
    17   12   16 1
    18   13   21 1
    19   13   22 am
    20   13   24 2
    21   14   17 1
    22   15   22 1
    23   16   23 1
    24   17   23 1
    25   18   19 1
    26   18   22 1
    27   20   27 1
    28   21   28 1
    29   23   27 1
    30   25   27 2
    31   26   27 2
@<TRIPOS>MOLECULE
TAM-UNI-d1c-7
   30    33     0     0     0
SMALL
NO_CHARGES

@<TRIPOS>ATOM
      1 C1          7.9965   -5.7894   26.4751 C.ar      1 UNL1        0.0000
      2 C2          8.8676   -4.7825   26.8806 C.ar      1 UNL1        0.0000
      3 C3         10.7422   -2.6289   21.6062 C.ar      1 UNL1        0.0000
      4 C4          7.1675   -5.5914   25.3712 C.ar      1 UNL1        0.0000
      5 C5          8.9085   -3.5751   26.1849 C.ar      1 UNL1        0.0000
      6 C6          9.6054   -2.7697   22.4020 C.ar      1 UNL1        0.0000
      7 C7         11.6536   -1.6056   21.8668 C.ar      1 UNL1        0.0000
      8 C8         10.2912   -0.8637   23.7189 C.ar      1 UNL1        0.0000
      9 C9          9.3798   -1.8871   23.4584 C.ar      1 UNL1        0.0000
     10 C10         7.2023   -4.3836   24.6578 C.ar      1 UNL1        0.0000
     11 C11         8.0764   -3.3623   25.0739 C.ar      1 UNL1        0.0000
     12 C12        11.4281   -0.7230   22.9231 C.ar      1 UNL1        0.0000
     13 C13         6.2239   -2.8112   21.3596 C.2       1 UNL1        0.0000
     14 C14        11.2683    2.5684   22.9823 C.2       1 UNL1        0.0000
     15 C15         6.2888   -4.2158   23.4676 C.3       1 UNL1        0.0000
     16 C16        10.1404    4.7708   22.9293 C.3       1 UNL1        0.0000
     17 C17        10.6965    3.8296   25.1393 C.3       1 UNL1        0.0000
     18 C18         6.8514   -1.7987   23.5243 C.3       1 UNL1        0.0000
     19 C19         8.8103    5.2217   23.5122 C.3       1 UNL1        0.0000
     20 C20         9.3475    4.3470   25.6272 C.3       1 UNL1        0.0000
     21 C21         8.1388   -2.0424   24.3279 C.3       1 UNL1        0.0000
     22 C22        12.4024    0.3716   23.2012 C.3       1 UNL1        0.0000
     23 C23         6.4836   -1.4439   20.7772 C.3       1 UNL1        0.0000
     24 N1          6.4878   -2.9661   22.7223 N.am      1 UNL1        0.0000
     25 N2         10.6873    3.6395   23.6819 N.am      1 UNL1        0.0000
     26 N3         11.7689    1.5394   23.7714 N.am      1 UNL1        0.0000
     27 O1          5.7939   -3.7077   20.6297 O.2       1 UNL1        0.0000
     28 O2         11.3404    2.5354   21.7494 O.2       1 UNL1        0.0000
     29 O3          8.9609    5.5151   24.9024 O.3       1 UNL1        0.0000
     30 Cl1         6.1046   -1.5478   19.0619 Cl        1 UNL1        0.0000
@<TRIPOS>BOND
     1    1    2 ar
     2    1    4 ar
     3    2    5 ar
     4    3    6 ar
     5    3    7 ar
     6    4   10 ar
     7    5   11 ar
     8    6    9 ar
     9    7   12 ar
    10    8    9 ar
    11    8   12 ar
    12    9   21 1
    13   10   11 ar
    14   10   15 1
    15   11   21 1
    16   12   22 1
    17   13   23 1
    18   13   24 am
    19   13   27 2
    20   14   25 am
    21   14   26 am
    22   14   28 2
    23   15   24 1
    24   16   19 1
    25   16   25 1
    26   17   20 1
    27   17   25 1
    28   18   21 1
    29   18   24 1
    30   19   29 1
    31   20   29 1
    32   22   26 1
    33   23   30 1
@<TRIPOS>MOLECULE
PAU-WEI-b9b-8
   35    38     0     0     0
SMALL
NO_CHARGES

@<TRIPOS>ATOM
      1 C1         13.0769    0.6235   22.6748 C.ar      1 UNL1        0.0000
      2 C2         12.8933    1.9378   23.1196 C.ar      1 UNL1        0.0000
      3 C3         12.0059   -0.2660   22.6168 C.ar      1 UNL1        0.0000
      4 C4          5.6239   -1.5924   19.7691 C.ar      1 UNL1        0.0000
      5 C5          6.3065    0.6778   20.2355 C.ar      1 UNL1        0.0000
      6 C6          6.9399   -2.0228   19.9379 C.ar      1 UNL1        0.0000
      7 C7          7.6226    0.2474   20.4043 C.ar      1 UNL1        0.0000
      8 C8          9.7228    3.3904   24.2143 C.2       1 UNL1        0.0000
      9 C9         11.6064    2.3573   23.5113 C.ar      1 UNL1        0.0000
     10 C10         5.3072   -0.2421   19.9179 C.ar      1 UNL1        0.0000
     11 C11         7.9392   -1.1029   20.2555 C.ar      1 UNL1        0.0000
     12 C12        10.7206    0.1275   23.0002 C.ar      1 UNL1        0.0000
     13 C13        11.0684    3.5807   24.0000 C.2       1 UNL1        0.0000
     14 C14        10.5519    1.4443   23.4427 C.ar      1 UNL1        0.0000
     15 C15         8.5623   -4.9374   26.5382 C.2       1 UNL1        0.0000
     16 C16         9.9825    6.8283   22.7774 C.2       1 UNL1        0.0000
     17 C17        10.1709   -3.1618   25.9211 C.3       1 UNL1        0.0000
     18 C18         7.7656   -2.6438   25.7814 C.3       1 UNL1        0.0000
     19 C19        10.3941   -2.5994   24.5249 C.3       1 UNL1        0.0000
     20 C20         7.9531   -2.0715   24.3829 C.3       1 UNL1        0.0000
     21 C21         3.9005    0.2189   19.7376 C.3       1 UNL1        0.0000
     22 C22         8.8458    7.1119   21.8523 C.3       1 UNL1        0.0000
     23 C23         9.3611   -1.5692   20.4394 C.3       1 UNL1        0.0000
     24 C24        11.8118    4.8345   24.2387 C.3       1 UNL1        0.0000
     25 C25         7.2913   -5.1572   27.3192 C.3       1 UNL1        0.0000
     26 C26         9.7451   -1.9803   21.8715 C.3       1 UNL1        0.0000
     27 C27        12.1474    5.6187   22.9571 C.3       1 UNL1        0.0000
     28 C28         9.5809   -0.8638   22.9244 C.3       1 UNL1        0.0000
     29 N1          9.4207    2.0987   23.8756 N.pl3     1 UNL1        0.0000
     30 N2          8.7982   -3.6415   26.0814 N.am      1 UNL1        0.0000
     31 N3         10.9659    6.0144   22.2385 N.am      1 UNL1        0.0000
     32 N4          9.3594   -1.5305   24.2529 N.4       1 UNL1        0.0000
     33 O1          9.3199   -5.8904   26.3390 O.2       1 UNL1        0.0000
     34 O2          9.9793    7.3104   23.9041 O.2       1 UNL1        0.0000
     35 Cl1         6.0404   -5.5509   26.1453 Cl        1 UNL1        0.0000
@<TRIPOS>BOND
     1    1    2 ar
     2    1    3 ar
     3    2    9 ar
     4    3   12 ar
     5    4    6 ar
     6    4   10 ar
     7    5    7 ar
     8    5   10 ar
     9    6   11 ar
    10    7   11 ar
    11    8   13 2
    12    8   29 1
    13    9   13 1
    14    9   14 ar
    15   10   21 1
    16   11   23 1
    17   12   14 ar
    18   12   28 1
    19   13   24 1
    20   14   29 1
    21   15   25 1
    22   15   30 am
    23   15   33 2
    24   16   22 1
    25   16   31 am
    26   16   34 2
    27   17   19 1
    28   17   30 1
    29   18   20 1
    30   18   30 1
    31   19   32 1
    32   20   32 1
    33   23   26 1
    34   24   27 1
    35   25   35 1
    36   26   28 1
    37   27   31 1
    38   28   32 1
@<TRIPOS>MOLECULE
PED-UNI-89d-1
   24    25     0     0     0
SMALL
NO_CHARGES

@<TRIPOS>ATOM
      1 C1         12.4620    2.4103   23.5400 C.ar      1 UNL1        0.0000
      2 C2         13.0051    1.2626   22.9626 C.ar      1 UNL1        0.0000
      3 C3         10.3793    1.2414   23.9046 C.ar      1 UNL1        0.0000
      4 C4         10.9224    0.0936   23.3272 C.ar      1 UNL1        0.0000
      5 C5         11.1491    2.3997   24.0111 C.ar      1 UNL1        0.0000
      6 C6         12.2353    0.1043   22.8562 C.ar      1 UNL1        0.0000
      7 C7          6.0308   -3.5344   21.2506 C.2       1 UNL1        0.0000
      8 C8          7.6257   -1.3232   19.3020 C.3       1 UNL1        0.0000
      9 C9          6.2346   -1.4835   19.9047 C.3       1 UNL1        0.0000
     10 C10         6.5621   -1.3485   22.3917 C.3       1 UNL1        0.0000
     11 C11         8.4431   -0.1834   19.8915 C.3       1 UNL1        0.0000
     12 C12         7.3784   -0.0762   22.1915 C.3       1 UNL1        0.0000
     13 C13        10.0567   -1.1295   23.2341 C.3       1 UNL1        0.0000
     14 C14         6.1025   -4.1857   22.6104 C.3       1 UNL1        0.0000
     15 C15         9.5200   -1.3997   21.8321 C.3       1 UNL1        0.0000
     16 N1          6.2855   -2.1573   21.2012 N.am      1 UNL1        0.0000
     17 N2         11.7895    4.9156   24.6151 N.pl3     1 UNL1        0.0000
     18 N3          8.6361   -0.2696   21.3830 N.4       1 UNL1        0.0000
     19 O1          5.7635   -4.2256   20.2641 O.2       1 UNL1        0.0000
     20 O2          9.3928    4.3158   23.8789 O.2       1 UNL1        0.0000
     21 O3         10.2110    3.5683   26.1415 O.2       1 UNL1        0.0000
     22 S1         10.4699    3.8366   24.7338 S.o2      1 UNL1        0.0000
     23 Cl1         7.7582   -4.7468   22.8128 Cl        1 UNL1        0.0000
     24 Br1        13.0177   -1.4309   22.0640 Br        1 UNL1        0.0000
@<TRIPOS>BOND
     1    1    2 ar
     2    1    5 ar
     3    2    6 ar
     4    3    4 ar
     5    3    5 ar
     6    4    6 ar
     7    4   13 1
     8    5   22 1
     9    6   24 1
    10    7   14 1
    11    7   16 am
    12    7   19 2
    13    8    9 1
    14    8   11 1
    15    9   16 1
    16   10   12 1
    17   10   16 1
    18   11   18 1
    19   12   18 1
    20   13   15 1
    21   14   23 1
    22   15   18 1
    23   17   22 1
    24   20   22 2
    25   21   22 2
@<TRIPOS>MOLECULE
DAV-CRI-d1e-5
   21    22     0     0     0
SMALL
NO_CHARGES

@<TRIPOS>ATOM
      1 C1          9.7100   -0.5300   25.4712 C.1       1 UNL1        0.0000
      2 C2         11.6601    0.8610   24.9123 C.2       1 UNL1        0.0000
      3 C3         10.8488   -0.2242   24.6635 C.2       1 UNL1        0.0000
      4 C4         11.2860   -0.9709   23.5315 C.2       1 UNL1        0.0000
      5 C5         12.4147   -0.4277   22.9579 C.2       1 UNL1        0.0000
      6 C6          6.1300   -2.0294   19.7536 C.2       1 UNL1        0.0000
      7 C7          7.0254   -2.9298   21.8769 C.3       1 UNL1        0.0000
      8 C8          7.5959   -0.6100   21.2717 C.3       1 UNL1        0.0000
      9 C9          8.4861   -3.2322   22.1779 C.3       1 UNL1        0.0000
     10 C10         9.0659   -0.8772   21.5655 C.3       1 UNL1        0.0000
     11 C11        10.5987   -2.2040   23.0235 C.3       1 UNL1        0.0000
     12 C12         6.0591   -0.8667   18.7961 C.3       1 UNL1        0.0000
     13 C13        14.4659   -0.5625   21.5403 C.3       1 UNL1        0.0000
     14 N1          8.7854   -0.7784   26.1271 N.1       1 UNL1        0.0000
     15 N2          6.9031   -1.8482   20.8995 N.am      1 UNL1        0.0000
     16 N3         13.0830   -0.8925   21.8712 N.pl3     1 UNL1        0.0000
     17 N4          9.1727   -1.9584   22.6176 N.4       1 UNL1        0.0000
     18 O1          5.5182   -3.0673   19.4881 O.2       1 UNL1        0.0000
     19 O2         14.6216    0.8379   21.3441 O.3       1 UNL1        0.0000
     20 S1         12.9427    0.9764   23.7836 S.3       1 UNL1        0.0000
     21 Cl1         7.4080   -1.0501   17.6803 Cl        1 UNL1        0.0000
@<TRIPOS>BOND
     1    1    3 1
     2    1   14 3
     3    2    3 2
     4    2   20 1
     5    3    4 1
     6    4    5 2
     7    4   11 1
     8    5   16 1
     9    5   20 1
    10    6   12 1
    11    6   15 am
    12    6   18 2
    13    7    9 1
    14    7   15 1
    15    8   10 1
    16    8   15 1
    17    9   17 1
    18   10   17 1
    19   11   17 1
    20   12   21 1
    21   13   16 1
    22   13   19 1
@<TRIPOS>MOLECULE
STU-CHA-814-1
   28    30     0     0     0
SMALL
NO_CHARGES

@<TRIPOS>ATOM
      1 C1         14.1802    2.2279   22.0323 C.ar      1 UNL1        0.0000
      2 C2         11.8480    2.5263   23.5288 C.ar      1 UNL1        0.0000
      3 C3         13.4487    1.0912   22.4046 C.ar      1 UNL1        0.0000
      4 C4         12.2628    1.2441   23.1437 C.ar      1 UNL1        0.0000
      5 C5         13.7538    3.5000   22.4131 C.ar      1 UNL1        0.0000
      6 C6         12.5899    3.6489   23.1628 C.ar      1 UNL1        0.0000
      7 C7          6.0540   -3.6645   21.6251 C.2       1 UNL1        0.0000
      8 C8         13.9080   -0.2713   21.9512 C.3       1 UNL1        0.0000
      9 C9         11.4614    0.0460   23.5742 C.3       1 UNL1        0.0000
     10 C10         8.8688   -3.4421   23.9063 C.3       1 UNL1        0.0000
     11 C11         9.1701   -1.9259   21.9164 C.3       1 UNL1        0.0000
     12 C12         7.3560   -3.2738   23.7746 C.3       1 UNL1        0.0000
     13 C13         7.6523   -1.7869   21.8266 C.3       1 UNL1        0.0000
     14 C14        13.3162   -1.4111   22.7731 C.3       1 UNL1        0.0000
     15 C15         9.6169   -2.2180   23.3568 C.3       1 UNL1        0.0000
     16 C16         6.2825   -3.6887   20.1348 C.3       1 UNL1        0.0000
     17 C17        11.1275   -2.4286   23.4253 C.3       1 UNL1        0.0000
     18 C18        14.5683    4.6817   21.9991 C.3       1 UNL1        0.0000
     19 N1          6.9858   -2.9627   22.3888 N.am      1 UNL1        0.0000
     20 N2         10.6125    4.8114   24.5205 N.pl3     1 UNL1        0.0000
     21 N3         11.8209   -1.2306   22.8417 N.4       1 UNL1        0.0000
     22 O1          5.0748   -4.2504   22.0941 O.2       1 UNL1        0.0000
     23 O2         12.9992    5.7828   24.5954 O.2       1 UNL1        0.0000
     24 O3         11.6538    5.9801   22.4744 O.2       1 UNL1        0.0000
     25 F1         14.9891    5.3805   23.0851 F         1 UNL1        0.0000
     26 F2         13.8261    5.5388   21.2514 F         1 UNL1        0.0000
     27 S1         12.0290    5.2296   23.6630 S.o2      1 UNL1        0.0000
     28 Cl1         5.4071   -2.3147   19.4685 Cl        1 UNL1        0.0000
@<TRIPOS>BOND
     1    1    3 ar
     2    1    5 ar
     3    2    4 ar
     4    2    6 ar
     5    3    4 ar
     6    3    8 1
     7    4    9 1
     8    5    6 ar
     9    5   18 1
    10    6   27 1
    11    7   16 1
    12    7   19 am
    13    7   22 2
    14    8   14 1
    15    9   21 1
    16   10   12 1
    17   10   15 1
    18   11   13 1
    19   11   15 1
    20   12   19 1
    21   13   19 1
    22   14   21 1
    23   15   17 1
    24   16   28 1
    25   17   21 1
    26   18   25 1
    27   18   26 1
    28   20   27 1
    29   23   27 2
    30   24   27 2
@<TRIPOS>MOLECULE
BEN-VAN-d2b-10
   31    33     0     0     0
SMALL
NO_CHARGES

@<TRIPOS>ATOM
      1 C1          6.2885   -0.8780   20.9234 C.1       1 UNL1        0.0000
      2 C2          8.6228    1.1754   22.9863 C.ar      1 UNL1        0.0000
      3 C3          7.9560    0.8081   20.3659 C.ar      1 UNL1        0.0000
      4 C4          7.5243   -1.4075   27.1717 C.2       1 UNL1        0.0000
      5 C5          6.8982    0.5800   25.8650 C.2       1 UNL1        0.0000
      6 C6          7.2925    0.0578   21.3233 C.ar      1 UNL1        0.0000
      7 C7          7.4762   -1.6708   25.8204 C.2       1 UNL1        0.0000
      8 C8          7.6381    0.2509   22.6561 C.ar      1 UNL1        0.0000
      9 C9          7.1136   -0.5195   25.0634 C.2       1 UNL1        0.0000
     10 C10         9.2269    1.8756   21.9544 C.ar      1 UNL1        0.0000
     11 C11        13.6746    0.1075   22.2909 C.2       1 UNL1        0.0000
     12 C12        12.5655   -0.6338   22.3719 C.2       1 UNL1        0.0000
     13 C13        12.0177   -1.0263   23.6984 C.2       1 UNL1        0.0000
     14 C14        10.1322   -2.3020   24.6459 C.2       1 UNL1        0.0000
     15 C15         8.6546   -5.2637   25.2556 C.3       1 UNL1        0.0000
     16 C16         8.1692   -4.1598   26.1853 C.3       1 UNL1        0.0000
     17 C17         9.2717   -4.5527   24.0497 C.3       1 UNL1        0.0000
     18 C18         7.7763   -3.0297   25.2261 C.3       1 UNL1        0.0000
     19 C19         8.9194   -3.0674   24.1930 C.3       1 UNL1        0.0000
     20 C20        10.3504    6.0402   24.0168 C.3       1 UNL1        0.0000
     21 C21        10.6230    3.0500   23.6566 C.3       1 UNL1        0.0000
     22 C22        11.6855    4.1331   23.6952 C.3       1 UNL1        0.0000
     23 N1          5.4733   -1.6375   20.5987 N.1       1 UNL1        0.0000
     24 N2          8.9177    1.7153   20.6482 N.ar      1 UNL1        0.0000
     25 N3          6.9910   -0.4934   23.7151 N.pl3     1 UNL1        0.0000
     26 N4         10.2295    2.8135   22.3060 N.pl3     1 UNL1        0.0000
     27 N5         10.8625   -1.7941   23.5728 N.am      1 UNL1        0.0000
     28 O1         12.5471   -0.6940   24.7539 O.2       1 UNL1        0.0000
     29 O2         10.3959   -2.1494   25.8356 O.2       1 UNL1        0.0000
     30 O3         11.1707    5.3207   23.1065 O.3       1 UNL1        0.0000
     31 S1          7.1333    0.2222   27.5230 S.3       1 UNL1        0.0000
@<TRIPOS>BOND
     1    1    6 1
     2    1   23 3
     3    2    8 ar
     4    2   10 ar
     5    3    6 ar
     6    3   24 ar
     7    4    7 2
     8    4   31 1
     9    5    9 2
    10    5   31 1
    11    6    8 ar
    12    7    9 1
    13    7   18 1
    14    8   25 1
    15    9   25 1
    16   10   24 ar
    17   10   26 1
    18   11   12 2
    19   12   13 1
    20   13   27 am
    21   13   28 2
    22   14   19 1
    23   14   27 am
    24   14   29 2
    25   15   16 1
    26   15   17 1
    27   16   18 1
    28   17   19 1
    29   18   19 1
    30   20   30 1
    31   21   22 1
    32   21   26 1
    33   22   30 1
@<TRIPOS>MOLECULE
BEN-VAN-ed8-20
   27    28     0     0     0
SMALL
NO_CHARGES

@<TRIPOS>ATOM
      1 C1          9.4699   -0.7528   23.5257 C.ar      1 UNL1        0.0000
      2 C2          5.6450    1.0349   17.5184 C.ar      1 UNL1        0.0000
      3 C3          8.2799   -1.4604   23.3562 C.ar      1 UNL1        0.0000
      4 C4          5.2012    1.9130   18.5009 C.ar      1 UNL1        0.0000
      5 C5          9.5793   -0.3661   21.1434 C.ar      1 UNL1        0.0000
      6 C6          8.3893   -1.0737   20.9739 C.ar      1 UNL1        0.0000
      7 C7         10.1197   -0.2056   22.4193 C.ar      1 UNL1        0.0000
      8 C8          6.5104    0.0008   17.8575 C.ar      1 UNL1        0.0000
      9 C9          7.7396   -1.6208   22.0803 C.ar      1 UNL1        0.0000
     10 C10         6.8992   -0.1113   19.1827 C.ar      1 UNL1        0.0000
     11 C11         5.6484    1.7152   19.7973 C.ar      1 UNL1        0.0000
     12 C12        10.6798    5.8601   25.5540 C.2       1 UNL1        0.0000
     13 C13        11.1853    5.8871   24.3170 C.2       1 UNL1        0.0000
     14 C14        12.1674    4.8572   23.8825 C.2       1 UNL1        0.0000
     15 C15        12.3244    2.4086   23.6146 C.2       1 UNL1        0.0000
     16 C16         6.9278    3.1139   22.3763 C.3       1 UNL1        0.0000
     17 C17         7.8427   -1.2230   19.5908 C.3       1 UNL1        0.0000
     18 C18        11.4658    1.1767   23.8095 C.3       1 UNL1        0.0000
     19 C19         5.5762    2.5243   22.1565 C.3       1 UNL1        0.0000
     20 N1          6.4891    0.7223   20.1649 N.ar      1 UNL1        0.0000
     21 N2          5.1895    2.6200   20.7868 N.pl3     1 UNL1        0.0000
     22 N3         11.6348    3.5725   23.9578 N.am      1 UNL1        0.0000
     23 O1         13.3005    5.1435   23.5098 O.2       1 UNL1        0.0000
     24 O2         13.4805    2.3550   23.2042 O.2       1 UNL1        0.0000
     25 O3         11.2924    0.4921   22.5870 O.3       1 UNL1        0.0000
     26 F1          6.9495   -0.8527   16.9244 F         1 UNL1        0.0000
     27 Cl1         6.2629   -2.4981   21.9101 Cl        1 UNL1        0.0000
@<TRIPOS>BOND
     1    1    3 ar
     2    1    7 ar
     3    2    4 ar
     4    2    8 ar
     5    3    9 ar
     6    4   11 ar
     7    5    6 ar
     8    5    7 ar
     9    6    9 ar
    10    6   17 1
    11    7   25 1
    12    8   10 ar
    13    8   26 1
    14    9   27 1
    15   10   17 1
    16   10   20 ar
    17   11   20 ar
    18   11   21 1
    19   12   13 2
    20   13   14 1
    21   14   22 am
    22   14   23 2
    23   15   18 1
    24   15   22 am
    25   15   24 2
    26   16   19 1
    27   18   25 1
    28   19   21 1
@<TRIPOS>MOLECULE
MAK-UNK-c44-6
   32    33     0     0     0
SMALL
NO_CHARGES

@<TRIPOS>ATOM
      1 C1          6.5989    5.9712   22.4135 C.1       1 UNL1        0.0000
      2 C2          7.1238    6.9256   22.9185 C.1       1 UNL1        0.0000
      3 C3         14.1483   -0.6871   23.2557 C.ar      1 UNL1        0.0000
      4 C4         13.4403   -0.7337   22.0548 C.ar      1 UNL1        0.0000
      5 C5         13.5003   -0.9672   24.4587 C.ar      1 UNL1        0.0000
      6 C6         12.0842   -1.0602   22.0570 C.ar      1 UNL1        0.0000
      7 C7         12.1442   -1.2937   24.4609 C.ar      1 UNL1        0.0000
      8 C8          5.3130    1.0107   20.5631 C.ar      1 UNL1        0.0000
      9 C9          7.5204    0.2456   19.9473 C.ar      1 UNL1        0.0000
     10 C10         5.0014    1.1960   19.2163 C.ar      1 UNL1        0.0000
     11 C11         7.2088    0.4309   18.6004 C.ar      1 UNL1        0.0000
     12 C12        11.4361   -1.3402   23.2600 C.ar      1 UNL1        0.0000
     13 C13         6.5725    0.5355   20.9287 C.ar      1 UNL1        0.0000
     14 C14         5.9493    0.9061   18.2349 C.ar      1 UNL1        0.0000
     15 C15         9.5833    3.0770   22.8627 C.2       1 UNL1        0.0000
     16 C16         6.5844    2.7856   23.0837 C.2       1 UNL1        0.0000
     17 C17        10.7817    3.2451   21.9666 C.3       1 UNL1        0.0000
     18 C18         5.9557    4.8115   21.7972 C.3       1 UNL1        0.0000
     19 C19         9.9690   -1.6932   23.2631 C.3       1 UNL1        0.0000
     20 C20         6.9107    0.3336   22.3911 C.3       1 UNL1        0.0000
     21 C21         9.2573   -1.2700   24.5458 C.3       1 UNL1        0.0000
     22 C22         7.5386    1.5614   23.1143 C.3       1 UNL1        0.0000
     23 N1          6.7448    3.6173   21.9873 N.am      1 UNL1        0.0000
     24 N2          8.7776    2.0261   22.4547 N.am      1 UNL1        0.0000
     25 N3          9.3024    0.1836   24.7627 N.pl3     1 UNL1        0.0000
     26 O1          9.4081    3.8006   23.8381 O.2       1 UNL1        0.0000
     27 O2          5.7608    3.0005   23.9751 O.2       1 UNL1        0.0000
     28 O3          8.1313    2.2865   25.6687 O.2       1 UNL1        0.0000
     29 O4          6.8178    0.1878   25.3141 O.2       1 UNL1        0.0000
     30 O5          5.6447    1.0858   16.9205 O.3       1 UNL1        0.0000
     31 S1          7.8682    1.0941   24.8860 S.o2      1 UNL1        0.0000
     32 Br1         7.9545    8.4360   23.7180 Br        1 UNL1        0.0000
@<TRIPOS>BOND
     1    1    2 3
     2    1   18 1
     3    2   32 1
     4    3    4 ar
     5    3    5 ar
     6    4    6 ar
     7    5    7 ar
     8    6   12 ar
     9    7   12 ar
    10    8   10 ar
    11    8   13 ar
    12    9   11 ar
    13    9   13 ar
    14   10   14 ar
    15   11   14 ar
    16   12   19 1
    17   13   20 1
    18   14   30 1
    19   15   17 1
    20   15   24 am
    21   15   26 2
    22   16   22 1
    23   16   23 am
    24   16   27 2
    25   18   23 1
    26   19   21 1
    27   20   22 1
    28   21   25 1
    29   22   24 1
    30   22   31 1
    31   25   31 1
    32   28   31 2
    33   29   31 2
@<TRIPOS>MOLECULE
KAT-FAI-9b6-2
   29    32     0     0     0
SMALL
NO_CHARGES

@<TRIPOS>ATOM
      1 C1         14.0616   -2.1615   21.7388 C.ar      1 UNL1        0.0000
      2 C2         13.2076   -3.2244   21.4451 C.ar      1 UNL1        0.0000
      3 C3          6.3554   -0.9038   25.1338 C.ar      1 UNL1        0.0000
      4 C4          7.1297   -1.6849   24.2759 C.ar      1 UNL1        0.0000
      5 C5          6.9471   -0.2750   26.2294 C.ar      1 UNL1        0.0000
      6 C6         13.5502   -0.9892   22.2955 C.ar      1 UNL1        0.0000
      7 C7         11.8421   -3.1151   21.7079 C.ar      1 UNL1        0.0000
      8 C8          9.0874   -1.2085   25.6092 C.ar      1 UNL1        0.0000
      9 C9          8.4957   -1.8373   24.5136 C.ar      1 UNL1        0.0000
     10 C10         8.3131   -0.4274   26.4671 C.ar      1 UNL1        0.0000
     11 C11        12.1847   -0.8798   22.5583 C.ar      1 UNL1        0.0000
     12 C12        11.3306   -1.9428   22.2645 C.ar      1 UNL1        0.0000
     13 C13         6.5755   -4.1637   21.5380 C.2       1 UNL1        0.0000
     14 C14         9.0293   -1.3411   21.5102 C.3       1 UNL1        0.0000
     15 C15         8.3415   -2.5030   20.8007 C.3       1 UNL1        0.0000
     16 C16        12.1447    0.8061   24.4096 C.3       1 UNL1        0.0000
     17 C17        11.0634    1.3167   22.2689 C.3       1 UNL1        0.0000
     18 C18         8.6354   -3.8722   22.8679 C.3       1 UNL1        0.0000
     19 C19        13.0968    1.9731   24.1707 C.3       1 UNL1        0.0000
     20 C20        12.0461    2.4774   22.1075 C.3       1 UNL1        0.0000
     21 C21         9.3431   -2.6915   23.5729 C.3       1 UNL1        0.0000
     22 C22         8.9456    0.2444   27.6390 C.3       1 UNL1        0.0000
     23 C23         6.1476   -5.1208   22.6222 C.3       1 UNL1        0.0000
     24 N1         11.6962    0.2968   23.1118 N.pl3     1 UNL1        0.0000
     25 N2          9.9601   -1.8544   22.5197 N.pl3     1 UNL1        0.0000
     26 N3          7.7693   -3.4674   21.7516 N.am      1 UNL1        0.0000
     27 O1          5.8749   -4.0436   20.5295 O.2       1 UNL1        0.0000
     28 O2         12.4470    2.9810   23.3868 O.3       1 UNL1        0.0000
     29 S1          4.6031   -5.9125   22.1435 S.3       1 UNL1        0.0000
@<TRIPOS>BOND
     1    1    2 ar
     2    1    6 ar
     3    2    7 ar
     4    3    4 ar
     5    3    5 ar
     6    4    9 ar
     7    5   10 ar
     8    6   11 ar
     9    7   12 ar
    10    8    9 ar
    11    8   10 ar
    12    9   21 1
    13   10   22 1
    14   11   12 ar
    15   11   24 1
    16   12   25 1
    17   13   23 1
    18   13   26 am
    19   13   27 2
    20   14   15 1
    21   14   25 1
    22   15   26 1
    23   16   19 1
    24   16   24 1
    25   17   20 1
    26   17   24 1
    27   18   21 1
    28   18   26 1
    29   19   28 1
    30   20   28 1
    31   21   25 1
    32   23   29 1
@<TRIPOS>MOLECULE
JAN-GHE-bf4-10
   21    23     0     0     0
SMALL
NO_CHARGES

@<TRIPOS>ATOM
      1 C1          5.7752   -2.8937   20.2605 C.1       1 UNL1        0.0000
      2 C2          5.1533   -2.9923   22.6491 C.2       1 UNL1        0.0000
      3 C3          5.4529   -3.2340   23.9331 C.2       1 UNL1        0.0000
      4 C4          7.4751   -3.0381   21.9496 C.2       1 UNL1        0.0000
      5 C5          8.1851   -5.2681   24.1792 C.2       1 UNL1        0.0000
      6 C6          6.1728   -2.9884   21.6229 C.2       1 UNL1        0.0000
      7 C7          9.1267    2.1324   24.0911 C.2       1 UNL1        0.0000
      8 C8         10.4112    2.1850   24.4497 C.2       1 UNL1        0.0000
      9 C9         11.4054    1.4509   23.6460 C.2       1 UNL1        0.0000
     10 C10        10.2259   -0.8171   24.1114 C.3       1 UNL1        0.0000
     11 C11        12.0140   -0.9279   22.9357 C.3       1 UNL1        0.0000
     12 C12         7.9569   -3.1025   23.3828 C.3       1 UNL1        0.0000
     13 C13         6.8571   -3.5018   24.3942 C.3       1 UNL1        0.0000
     14 C14         9.0228   -4.1765   23.5929 C.3       1 UNL1        0.0000
     15 C15        10.8296   -1.8736   23.1752 C.3       1 UNL1        0.0000
     16 C16        10.0985   -3.7731   24.5907 C.3       1 UNL1        0.0000
     17 N1          5.4511   -2.8166   19.1493 N.1       1 UNL1        0.0000
     18 N2          7.0124   -4.9574   24.6247 N.2       1 UNL1        0.0000
     19 N3         11.2113    0.1020   23.5719 N.am      1 UNL1        0.0000
     20 N4         11.2050   -3.1154   23.8627 N.4       1 UNL1        0.0000
     21 O1         12.3250    2.0588   23.1039 O.2       1 UNL1        0.0000
@<TRIPOS>BOND
     1    1    6 1
     2    1   17 3
     3    2    3 2
     4    2    6 1
     5    3   13 1
     6    4    6 2
     7    4   12 1
     8    5   14 1
     9    5   18 2
    10    7    8 2
    11    8    9 1
    12    9   19 am
    13    9   21 2
    14   10   15 1
    15   10   19 1
    16   11   15 1
    17   11   19 1
    18   12   13 1
    19   12   14 1
    20   13   18 1
    21   14   16 1
    22   15   20 1
    23   16   20 1
@<TRIPOS>MOLECULE
DAN-LON-a5f-4
   21    22     0     0     0
SMALL
NO_CHARGES

@<TRIPOS>ATOM
      1 C1         12.5180   -1.9825   22.2967 C.ar      1 UNL1        0.0000
      2 C2         11.4433   -2.4568   23.0489 C.ar      1 UNL1        0.0000
      3 C3         12.8928   -0.6417   22.3843 C.ar      1 UNL1        0.0000
      4 C4         11.1180   -0.2496   23.9760 C.ar      1 UNL1        0.0000
      5 C5         10.7433   -1.5903   23.8885 C.ar      1 UNL1        0.0000
      6 C6         12.1928    0.2247   23.2239 C.ar      1 UNL1        0.0000
      7 C7          6.0049   -2.4379   20.3299 C.2       1 UNL1        0.0000
      8 C8          6.5278   -1.3182   22.5421 C.3       1 UNL1        0.0000
      9 C9          7.8358   -1.0508   23.2691 C.3       1 UNL1        0.0000
     10 C10         8.5644   -3.3838   22.8203 C.3       1 UNL1        0.0000
     11 C11         7.2607   -3.6664   22.0713 C.3       1 UNL1        0.0000
     12 C12         4.9777   -4.7095   22.1306 C.3       1 UNL1        0.0000
     13 C13         6.8947   -5.8158   23.3159 C.3       1 UNL1        0.0000
     14 C14         9.5867   -2.1010   24.6962 C.3       1 UNL1        0.0000
     15 C15         5.8056   -1.1015   19.6597 C.3       1 UNL1        0.0000
     16 C16         6.2714   -4.4852   22.9069 C.3       1 UNL1        0.0000
     17 N1          6.6279   -2.4272   21.5835 N.am      1 UNL1        0.0000
     18 N2          8.3488   -2.3297   23.8736 N.4       1 UNL1        0.0000
     19 O1          5.6222   -3.4613   19.7565 O.2       1 UNL1        0.0000
     20 Cl1        12.6549    1.8790   23.3307 Cl        1 UNL1        0.0000
     21 Cl2         7.4032   -0.3856   19.4790 Cl        1 UNL1        0.0000
@<TRIPOS>BOND
     1    1    2 ar
     2    1    3 ar
     3    2    5 ar
     4    3    6 ar
     5    4    5 ar
     6    4    6 ar
     7    5   14 1
     8    6   20 1
     9    7   15 1
    10    7   17 am
    11    7   19 2
    12    8    9 1
    13    8   17 1
    14    9   18 1
    15   10   11 1
    16   10   18 1
    17   11   16 1
    18   11   17 1
    19   12   16 1
    20   13   16 1
    21   14   18 1
    22   15   21 1
@<TRIPOS>MOLECULE
DAN-LON-a5f-2
   20    21     0     0     0
SMALL
NO_CHARGES

@<TRIPOS>ATOM
      1 C1         11.7073    0.0642   24.4455 C.ar      1 UNL1        0.0000
      2 C2         10.7429   -0.9376   24.5551 C.ar      1 UNL1        0.0000
      3 C3         12.6453    0.0194   23.4141 C.ar      1 UNL1        0.0000
      4 C4         11.6547   -2.0290   22.6020 C.ar      1 UNL1        0.0000
      5 C5         10.7166   -1.9842   23.6334 C.ar      1 UNL1        0.0000
      6 C6         12.6190   -1.0272   22.4924 C.ar      1 UNL1        0.0000
      7 C7          5.9580   -2.7547   19.7350 C.2       1 UNL1        0.0000
      8 C8          7.1937   -1.3678   21.4443 C.3       1 UNL1        0.0000
      9 C9          6.2280   -3.5628   22.0597 C.3       1 UNL1        0.0000
     10 C10         7.9526   -1.5649   22.7503 C.3       1 UNL1        0.0000
     11 C11         7.5341   -4.0793   22.7124 C.3       1 UNL1        0.0000
     12 C12         8.1217   -5.2258   21.8734 C.3       1 UNL1        0.0000
     13 C13         7.2228   -4.5650   24.1352 C.3       1 UNL1        0.0000
     14 C14         9.6798   -3.0620   23.7526 C.3       1 UNL1        0.0000
     15 C15         6.1822   -1.6244   18.7601 C.3       1 UNL1        0.0000
     16 N1          6.4765   -2.5711   21.0172 N.am      1 UNL1        0.0000
     17 N2          8.5810   -2.9403   22.7286 N.4       1 UNL1        0.0000
     18 O1          5.3531   -3.7643   19.3672 O.2       1 UNL1        0.0000
     19 Cl1        13.7773   -1.0824   21.2208 Cl        1 UNL1        0.0000
     20 Cl2         5.3791   -0.2109   19.4345 Cl        1 UNL1        0.0000
@<TRIPOS>BOND
     1    1    2 ar
     2    1    3 ar
     3    2    5 ar
     4    3    6 ar
     5    4    5 ar
     6    4    6 ar
     7    5   14 1
     8    6   19 1
     9    7   15 1
    10    7   16 am
    11    7   18 2
    12    8   10 1
    13    8   16 1
    14    9   11 1
    15    9   16 1
    16   10   17 1
    17   11   12 1
    18   11   13 1
    19   11   17 1
    20   14   17 1
    21   15   20 1
@<TRIPOS>MOLECULE
TOB-UNK-c2a-2
   13    13     0     0     0
SMALL
NO_CHARGES

@<TRIPOS>ATOM
      1 C1         12.5774   -0.7236   22.6004 C.1       1 UNL1        0.0000
      2 C2         11.7288   -1.5004   22.9437 C.1       1 UNL1        0.0000
      3 C3          6.2440   -0.7775   18.3084 C.2       1 UNL1        0.0000
      4 C4          5.5895   -0.9932   19.4514 C.2       1 UNL1        0.0000
      5 C5          6.0451   -2.0811   20.3399 C.2       1 UNL1        0.0000
      6 C6          8.0382   -0.7409   21.2087 C.3       1 UNL1        0.0000
      7 C7          6.9610   -2.4765   22.5929 C.3       1 UNL1        0.0000
      8 C8          9.4108   -1.3020   21.5610 C.3       1 UNL1        0.0000
      9 C9          8.3180   -3.0651   22.9452 C.3       1 UNL1        0.0000
     10 C10        10.7003   -2.4486   23.3640 C.3       1 UNL1        0.0000
     11 N1          6.9965   -1.7726   21.3092 N.am      1 UNL1        0.0000
     12 N2          9.3502   -1.9626   22.9172 N.4       1 UNL1        0.0000
     13 O1          5.5512   -3.1975   20.1720 O.2       1 UNL1        0.0000
@<TRIPOS>BOND
     1    1    2 3
     2    2   10 1
     3    3    4 2
     4    4    5 1
     5    5   11 am
     6    5   13 2
     7    6    8 1
     8    6   11 1
     9    7    9 1
    10    7   11 1
    11    8   12 1
    12    9   12 1
    13   10   12 1
@<TRIPOS>MOLECULE
PAU-UNI-f43-1
   28    30     0     0     0
SMALL
NO_CHARGES

@<TRIPOS>ATOM
      1 C1         13.3297    1.0791   24.8648 C.ar      1 UNL1        0.0000
      2 C2         14.1615    0.3563   25.7125 C.ar      1 UNL1        0.0000
      3 C3         12.9797   -1.6639   25.1149 C.ar      1 UNL1        0.0000
      4 C4         12.3099    0.4350   24.1426 C.ar      1 UNL1        0.0000
      5 C5         12.1239   -0.9658   24.2401 C.ar      1 UNL1        0.0000
      6 C6         13.9841   -1.0146   25.8399 C.ar      1 UNL1        0.0000
      7 C7          5.9800   -3.4029   20.4729 C.2       1 UNL1        0.0000
      8 C8         11.4485    1.2696   23.2259 C.3       1 UNL1        0.0000
      9 C9         10.1396    0.5619   22.9054 C.3       1 UNL1        0.0000
     10 C10         5.4926   -5.0037   23.6288 C.3       1 UNL1        0.0000
     11 C11         6.8703   -5.5800   23.9549 C.3       1 UNL1        0.0000
     12 C12        10.4231   -0.8649   22.4602 C.3       1 UNL1        0.0000
     13 C13         5.2083   -5.0682   22.1314 C.3       1 UNL1        0.0000
     14 C14         7.6228   -4.9700   21.6230 C.3       1 UNL1        0.0000
     15 C15         7.9649   -4.8997   23.1182 C.3       1 UNL1        0.0000
     16 C16         7.0418   -2.3528   20.2638 C.3       1 UNL1        0.0000
     17 C17         9.3274   -5.5310   23.3930 C.3       1 UNL1        0.0000
     18 C18         9.9176   -5.0240   24.7058 C.3       1 UNL1        0.0000
     19 C19        10.0760   -3.5036   24.6876 C.3       1 UNL1        0.0000
     20 C20        10.9697   -3.0527   23.5386 C.3       1 UNL1        0.0000
     21 N1         11.1182   -1.6047   23.5125 N.pl3     1 UNL1        0.0000
     22 N2          6.2815   -4.4265   21.3706 N.am      1 UNL1        0.0000
     23 N3         16.2862   -2.3581   25.8376 N.pl3     1 UNL1        0.0000
     24 O1          4.9144   -3.3132   19.8577 O.2       1 UNL1        0.0000
     25 O2         15.5476   -1.0306   27.9204 O.2       1 UNL1        0.0000
     26 O3         14.3190   -3.1422   27.3046 O.2       1 UNL1        0.0000
     27 S1         15.0218   -1.9314   26.9045 S.o2      1 UNL1        0.0000
     28 Cl1         6.3172   -0.8097   20.7014 Cl        1 UNL1        0.0000
@<TRIPOS>BOND
     1    1    2 ar
     2    1    4 ar
     3    2    6 ar
     4    3    5 ar
     5    3    6 ar
     6    4    5 ar
     7    4    8 1
     8    5   21 1
     9    6   27 1
    10    7   16 1
    11    7   22 am
    12    7   24 2
    13    8    9 1
    14    9   12 1
    15   10   11 1
    16   10   13 1
    17   11   15 1
    18   12   21 1
    19   13   22 1
    20   14   15 1
    21   14   22 1
    22   15   17 1
    23   16   28 1
    24   17   18 1
    25   18   19 1
    26   19   20 1
    27   20   21 1
    28   23   27 1
    29   25   27 2
    30   26   27 2
@<TRIPOS>MOLECULE
NIM-UNI-ed9-4
   34    36     0     0     0
SMALL
NO_CHARGES

@<TRIPOS>ATOM
      1 C1          6.3204   -5.1758   23.9458 C.ar      1 UNL1        0.0000
      2 C2          7.3784   -5.1823   23.0369 C.ar      1 UNL1        0.0000
      3 C3          6.0270   -4.0180   24.6663 C.ar      1 UNL1        0.0000
      4 C4          8.1432   -4.0311   22.8486 C.ar      1 UNL1        0.0000
      5 C5          6.7917   -2.8668   24.4780 C.ar      1 UNL1        0.0000
      6 C6          5.2996    2.2446   20.3712 C.ar      1 UNL1        0.0000
      7 C7          5.8325   -0.0847   20.7282 C.ar      1 UNL1        0.0000
      8 C8          5.2132    2.0144   18.9982 C.ar      1 UNL1        0.0000
      9 C9          5.7461   -0.3149   19.3552 C.ar      1 UNL1        0.0000
     10 C10         5.6093    1.1950   21.2362 C.ar      1 UNL1        0.0000
     11 C11         7.8498   -2.8733   23.5691 C.ar      1 UNL1        0.0000
     12 C12         5.4364    0.7347   18.4902 C.ar      1 UNL1        0.0000
     13 C13        14.8675    0.4700   23.0876 C.2       1 UNL1        0.0000
     14 C14         6.9423    4.2725   22.7092 C.2       1 UNL1        0.0000
     15 C15         8.1097    0.7392   22.8048 C.2       1 UNL1        0.0000
     16 C16        12.6535   -0.1150   22.1510 C.3       1 UNL1        0.0000
     17 C17        12.7247    0.9658   24.3646 C.3       1 UNL1        0.0000
     18 C18        11.7096   -1.1846   22.6808 C.3       1 UNL1        0.0000
     19 C19        11.7797   -0.0872   24.9276 C.3       1 UNL1        0.0000
     20 C20         7.5846    5.3959   21.9651 C.3       1 UNL1        0.0000
     21 C21         5.7023    1.4438   22.7219 C.3       1 UNL1        0.0000
     22 C22        15.6747    0.3618   24.3566 C.3       1 UNL1        0.0000
     23 C23         9.8719   -1.5811   24.3243 C.3       1 UNL1        0.0000
     24 C24         8.6801   -1.6227   23.3653 C.3       1 UNL1        0.0000
     25 C25         7.1151    1.8352   23.1702 C.3       1 UNL1        0.0000
     26 N1         13.4806    0.4350   23.2251 N.am      1 UNL1        0.0000
     27 N2          7.8566   -0.4401   23.4902 N.am      1 UNL1        0.0000
     28 N3          7.5689    3.0499   22.5410 N.am      1 UNL1        0.0000
     29 N4         10.8951   -0.6049   23.8156 N.4       1 UNL1        0.0000
     30 O1         15.4537    0.5796   22.0076 O.2       1 UNL1        0.0000
     31 O2          5.9483    4.4902   23.3921 O.2       1 UNL1        0.0000
     32 O3          9.0441    0.9161   22.0260 O.2       1 UNL1        0.0000
     33 O4          5.3508    0.5100   17.1505 O.3       1 UNL1        0.0000
     34 Cl1        15.2284   -1.1656   25.1088 Cl        1 UNL1        0.0000
@<TRIPOS>BOND
     1    1    2 ar
     2    1    3 ar
     3    2    4 ar
     4    3    5 ar
     5    4   11 ar
     6    5   11 ar
     7    6    8 ar
     8    6   10 ar
     9    7    9 ar
    10    7   10 ar
    11    8   12 ar
    12    9   12 ar
    13   10   21 1
    14   11   24 1
    15   12   33 1
    16   13   22 1
    17   13   26 am
    18   13   30 2
    19   14   20 1
    20   14   28 am
    21   14   31 2
    22   15   25 1
    23   15   27 am
    24   15   32 2
    25   16   18 1
    26   16   26 1
    27   17   19 1
    28   17   26 1
    29   18   29 1
    30   19   29 1
    31   21   25 1
    32   22   34 1
    33   23   24 1
    34   23   29 1
    35   24   27 1
    36   25   28 1
@<TRIPOS>MOLECULE
TAM-UNI-d1c-2
   25    27     0     0     0
SMALL
NO_CHARGES

@<TRIPOS>ATOM
      1 C1         12.1386   -0.2533   22.6163 C.2       1 UNL1        0.0000
      2 C2         11.0898   -0.0941   23.4887 C.2       1 UNL1        0.0000
      3 C3         10.3755   -1.3042   23.4048 C.2       1 UNL1        0.0000
      4 C4         10.6239    2.8450   22.6731 C.2       1 UNL1        0.0000
      5 C5          6.0703   -1.7447   19.5247 C.2       1 UNL1        0.0000
      6 C6         10.5319    2.2251   26.2559 C.3       1 UNL1        0.0000
      7 C7         10.6339    3.2172   25.1111 C.3       1 UNL1        0.0000
      8 C8         10.1377    0.9276   25.5594 C.3       1 UNL1        0.0000
      9 C9          6.4298   -2.8620   21.7027 C.3       1 UNL1        0.0000
     10 C10         6.5520   -0.4017   21.6300 C.3       1 UNL1        0.0000
     11 C11         7.7405   -2.9249   22.4730 C.3       1 UNL1        0.0000
     12 C12         7.8646   -0.4275   22.4014 C.3       1 UNL1        0.0000
     13 C13        11.2228    2.3880   23.9645 C.3       1 UNL1        0.0000
     14 C14        12.8593   -2.1204   21.1085 C.3       1 UNL1        0.0000
     15 C15         9.1289   -1.6932   24.1435 C.3       1 UNL1        0.0000
     16 C16         6.6646   -0.6830   18.6340 C.3       1 UNL1        0.0000
     17 N1         10.9240   -2.1684   22.5467 N.2       1 UNL1        0.0000
     18 N2         11.9942   -1.5004   22.0833 N.pl3     1 UNL1        0.0000
     19 N3         10.8116    1.0132   24.2651 N.pl3     1 UNL1        0.0000
     20 N4          6.3578   -1.6506   20.8856 N.am      1 UNL1        0.0000
     21 N5         11.5504    3.2823   21.7562 N.am      1 UNL1        0.0000
     22 N6          7.8982   -1.6567   23.2819 N.4       1 UNL1        0.0000
     23 O1          9.4135    2.8083   22.4656 O.2       1 UNL1        0.0000
     24 O2          5.3741   -2.6315   19.0238 O.2       1 UNL1        0.0000
     25 Cl1         5.4762    0.6112   18.5310 Cl        1 UNL1        0.0000
@<TRIPOS>BOND
     1    1    2 2
     2    1   18 1
     3    2    3 1
     4    2   19 1
     5    3   15 1
     6    3   17 2
     7    4   13 1
     8    4   21 am
     9    4   23 2
    10    5   16 1
    11    5   20 am
    12    5   24 2
    13    6    7 1
    14    6    8 1
    15    7   13 1
    16    8   19 1
    17    9   11 1
    18    9   20 1
    19   10   12 1
    20   10   20 1
    21   11   22 1
    22   12   22 1
    23   13   19 1
    24   14   18 1
    25   15   22 1
    26   16   25 1
    27   17   18 1
@<TRIPOS>MOLECULE
NIR-THE-ed2-2
   34    37     0     0     0
SMALL
NO_CHARGES

@<TRIPOS>ATOM
      1 C1          5.9298    0.2527   18.5177 C.1       1 UNL1        0.0000
      2 C2         11.0224   -3.8024   25.1592 C.ar      1 UNL1        0.0000
      3 C3          7.8020   -0.4609   20.6524 C.ar      1 UNL1        0.0000
      4 C4         10.0312   -4.7584   24.9376 C.ar      1 UNL1        0.0000
      5 C5         10.7787   -2.4623   24.8582 C.ar      1 UNL1        0.0000
      6 C6          8.6769   -0.7865   21.6903 C.ar      1 UNL1        0.0000
      7 C7          7.2731    0.4021   23.2547 C.ar      1 UNL1        0.0000
      8 C8          8.5527   -3.0344   24.1137 C.ar      1 UNL1        0.0000
      9 C9          4.6374    1.4000   20.2112 C.ar      1 UNL1        0.0000
     10 C10         5.7529    0.6444   19.8837 C.ar      1 UNL1        0.0000
     11 C11         6.6493    0.3016   20.9025 C.ar      1 UNL1        0.0000
     12 C12         6.3857    0.7356   22.2181 C.ar      1 UNL1        0.0000
     13 C13         8.7964   -4.3744   24.4148 C.ar      1 UNL1        0.0000
     14 C14         8.4131   -0.3560   22.9885 C.ar      1 UNL1        0.0000
     15 C15         9.5439   -2.0783   24.3354 C.ar      1 UNL1        0.0000
     16 C16         5.2307    1.4914   22.4280 C.ar      1 UNL1        0.0000
     17 C17         7.7544   -5.3814   24.1822 C.2       1 UNL1        0.0000
     18 C18         9.9299    0.3526   24.7624 C.2       1 UNL1        0.0000
     19 C19         5.4938   -6.0754   24.9018 C.3       1 UNL1        0.0000
     20 C20         7.1428   -5.5016   26.6533 C.3       1 UNL1        0.0000
     21 C21         4.4776   -5.0147   25.3082 C.3       1 UNL1        0.0000
     22 C22         6.3216   -4.3722   27.2638 C.3       1 UNL1        0.0000
     23 C23         2.5636    1.8591   24.1585 C.3       1 UNL1        0.0000
     24 C24        10.2084    1.6567   24.0323 C.3       1 UNL1        0.0000
     25 C25         3.7726    2.7227   24.0355 C.3       1 UNL1        0.0000
     26 N1          6.0732   -0.0647   17.4106 N.1       1 UNL1        0.0000
     27 N2          4.3528    1.8328   21.4579 N.ar      1 UNL1        0.0000
     28 N3          6.8586   -5.6545   25.2201 N.am      1 UNL1        0.0000
     29 N4          4.9311    1.9464   23.7373 N.pl3     1 UNL1        0.0000
     30 N5          9.2905   -0.6843   24.0226 N.am      1 UNL1        0.0000
     31 O1          7.7489   -5.9080   23.0706 O.2       1 UNL1        0.0000
     32 O2         10.2203    0.2423   25.9578 O.2       1 UNL1        0.0000
     33 S1          4.5349   -4.6877   27.0993 S.3       1 UNL1        0.0000
     34 Cl1         9.3044    2.9626   24.8322 Cl        1 UNL1        0.0000
@<TRIPOS>BOND
     1    1   10 1
     2    1   26 3
     3    2    4 ar
     4    2    5 ar
     5    3    6 ar
     6    3   11 ar
     7    4   13 ar
     8    5   15 ar
     9    6   14 ar
    10    7   12 ar
    11    7   14 ar
    12    8   13 ar
    13    8   15 ar
    14    9   10 ar
    15    9   27 ar
    16   10   11 ar
    17   11   12 ar
    18   12   16 ar
    19   13   17 1
    20   14   30 1
    21   15   30 1
    22   16   27 ar
    23   16   29 1
    24   17   28 am
    25   17   31 2
    26   18   24 1
    27   18   30 am
    28   18   32 2
    29   19   21 1
    30   19   28 1
    31   20   22 1
    32   20   28 1
    33   21   33 1
    34   22   33 1
    35   23   25 1
    36   24   34 1
    37   25   29 1
@<TRIPOS>MOLECULE
BEN-VAN-ed8-19
   27    28     0     0     0
SMALL
NO_CHARGES

@<TRIPOS>ATOM
      1 C1          6.8822   -2.2303   24.4031 C.ar      1 UNL1        0.0000
      2 C2         12.7202    2.0069   23.0005 C.ar      1 UNL1        0.0000
      3 C3          7.7194   -1.8823   25.4631 C.ar      1 UNL1        0.0000
      4 C4         11.6175    2.8304   22.8021 C.ar      1 UNL1        0.0000
      5 C5          8.7216   -1.9571   22.8607 C.ar      1 UNL1        0.0000
      6 C6          9.5588   -1.6091   23.9207 C.ar      1 UNL1        0.0000
      7 C7          7.3833   -2.2678   23.1019 C.ar      1 UNL1        0.0000
      8 C8         12.5324    0.6557   23.2690 C.ar      1 UNL1        0.0000
      9 C9          9.0576   -1.5717   25.2219 C.ar      1 UNL1        0.0000
     10 C10        11.2321    0.1808   23.3282 C.ar      1 UNL1        0.0000
     11 C11        10.3582    2.2582   22.8820 C.ar      1 UNL1        0.0000
     12 C12         3.5805    2.6397   19.4859 C.2       1 UNL1        0.0000
     13 C13         3.9980    1.3909   19.7150 C.2       1 UNL1        0.0000
     14 C14         5.4322    1.1173   20.0013 C.2       1 UNL1        0.0000
     15 C15         6.9164   -0.7938   20.5001 C.2       1 UNL1        0.0000
     16 C16         6.9335    3.7529   22.4816 C.3       1 UNL1        0.0000
     17 C17        10.9867   -1.2843   23.6208 C.3       1 UNL1        0.0000
     18 C18         6.8248   -2.2946   20.6702 C.3       1 UNL1        0.0000
     19 C19         7.8975    2.6447   22.7366 C.3       1 UNL1        0.0000
     20 N1         10.1362    0.9500   23.1410 N.ar      1 UNL1        0.0000
     21 N2          6.5507   -2.6151   22.0477 N.pl3     1 UNL1        0.0000
     22 N3          9.2444    3.1110   22.6804 N.pl3     1 UNL1        0.0000
     23 N4          5.6663   -0.2396   20.2116 N.am      1 UNL1        0.0000
     24 O1          6.2772    2.0057   20.0389 O.2       1 UNL1        0.0000
     25 O2          7.9651   -0.1635   20.6056 O.2       1 UNL1        0.0000
     26 F1         13.5822   -0.1515   23.4647 F         1 UNL1        0.0000
     27 Cl1        10.0631   -1.1453   26.5584 Cl        1 UNL1        0.0000
@<TRIPOS>BOND
     1    1    3 ar
     2    1    7 ar
     3    2    4 ar
     4    2    8 ar
     5    3    9 ar
     6    4   11 ar
     7    5    6 ar
     8    5    7 ar
     9    6    9 ar
    10    6   17 1
    11    7   21 1
    12    8   10 ar
    13    8   26 1
    14    9   27 1
    15   10   17 1
    16   10   20 ar
    17   11   20 ar
    18   11   22 1
    19   12   13 2
    20   13   14 1
    21   14   23 am
    22   14   24 2
    23   15   18 1
    24   15   23 am
    25   15   25 2
    26   16   19 1
    27   18   21 1
    28   19   22 1
@<TRIPOS>MOLECULE
MAK-UNK-cd9-1
   24    25     0     0     0
SMALL
NO_CHARGES

@<TRIPOS>ATOM
      1 C1         12.6826    1.9083   20.4784 C.ar      1 UNL1        0.0000
      2 C2         12.5834    0.6051   20.9655 C.ar      1 UNL1        0.0000
      3 C3         12.4706    2.9903   21.3328 C.ar      1 UNL1        0.0000
      4 C4         12.0602    1.4657   23.1616 C.ar      1 UNL1        0.0000
      5 C5         12.2722    0.3838   22.3071 C.ar      1 UNL1        0.0000
      6 C6         12.1594    2.7690   22.6744 C.ar      1 UNL1        0.0000
      7 C7         12.1694   -0.9752   22.8148 C.2       1 UNL1        0.0000
      8 C8          7.4863    7.2080   24.0481 C.2       1 UNL1        0.0000
      9 C9          9.7924    7.0710   23.1625 C.3       1 UNL1        0.0000
     10 C10         8.3458    5.0889   22.9350 C.3       1 UNL1        0.0000
     11 C11        10.9177    6.2113   23.7195 C.3       1 UNL1        0.0000
     12 C12         9.4507    4.1985   23.4873 C.3       1 UNL1        0.0000
     13 C13         7.1217   -0.0663   22.1953 C.3       1 UNL1        0.0000
     14 C14        11.9313    3.9327   23.5935 C.3       1 UNL1        0.0000
     15 C15         6.0638    6.8573   23.6916 C.3       1 UNL1        0.0000
     16 C16         8.9065   -1.8038   22.3807 C.3       1 UNL1        0.0000
     17 C17         9.8866   -2.4420   23.3513 C.3       1 UNL1        0.0000
     18 N1          8.4875    6.4641   23.4254 N.am      1 UNL1        0.0000
     19 N2         10.7931    4.8124   23.1584 N.4       1 UNL1        0.0000
     20 N3          8.0637   -0.8040   23.0808 N.4       1 UNL1        0.0000
     21 O1         12.8078   -1.9319   22.3709 O.2       1 UNL1        0.0000
     22 O2          7.6991    8.1142   24.8577 O.2       1 UNL1        0.0000
     23 S1         10.9823   -1.2248   24.1125 S.3       1 UNL1        0.0000
     24 Cl1         5.5586    5.5993   24.8142 Cl        1 UNL1        0.0000
@<TRIPOS>BOND
     1    1    2 ar
     2    1    3 ar
     3    2    5 ar
     4    3    6 ar
     5    4    5 ar
     6    4    6 ar
     7    5    7 1
     8    6   14 1
     9    7   21 2
    10    7   23 1
    11    8   15 1
    12    8   18 am
    13    8   22 2
    14    9   11 1
    15    9   18 1
    16   10   12 1
    17   10   18 1
    18   11   19 1
    19   12   19 1
    20   13   20 1
    21   14   19 1
    22   15   24 1
    23   16   17 1
    24   16   20 1
    25   17   23 1
@<TRIPOS>MOLECULE
DR -UNK-640-2
   30    33     0     0     0
SMALL
NO_CHARGES

@<TRIPOS>ATOM
      1 C1          3.4060    2.6290   20.7611 C.ar      1 UNL1        0.0000
      2 C2          3.4804    1.6327   21.7520 C.ar      1 UNL1        0.0000
      3 C3          4.1592    2.5293   19.5906 C.ar      1 UNL1        0.0000
      4 C4          4.3113    0.5191   21.5909 C.ar      1 UNL1        0.0000
      5 C5          8.2977   -0.0040   20.7841 C.ar      1 UNL1        0.0000
      6 C6          9.3852   -0.1711   21.6414 C.ar      1 UNL1        0.0000
      7 C7          7.1448   -1.8141   21.8938 C.ar      1 UNL1        0.0000
      8 C8          4.9723    1.4210   19.4563 C.ar      1 UNL1        0.0000
      9 C9          7.1774   -0.8255   20.9104 C.ar      1 UNL1        0.0000
     10 C10         5.0633    0.4264   20.4332 C.ar      1 UNL1        0.0000
     11 C11         9.3526   -1.1597   22.6248 C.ar      1 UNL1        0.0000
     12 C12         8.2324   -1.9813   22.7511 C.ar      1 UNL1        0.0000
     13 C13         5.8567    1.0592   18.3444 C.2       1 UNL1        0.0000
     14 C14        14.2054    0.0737   26.2604 C.2       1 UNL1        0.0000
     15 C15        14.5312    0.7733   25.1715 C.2       1 UNL1        0.0000
     16 C16        14.3540    0.1506   23.8442 C.2       1 UNL1        0.0000
     17 C17        11.5684   -2.1960   23.1488 C.3       1 UNL1        0.0000
     18 C18        10.7812   -0.2753   24.4542 C.3       1 UNL1        0.0000
     19 C19        12.7347   -1.3774   22.5917 C.3       1 UNL1        0.0000
     20 C20        11.9268    0.5755   23.9028 C.3       1 UNL1        0.0000
     21 C21         6.0148   -0.6462   19.9937 C.3       1 UNL1        0.0000
     22 N1          6.4520   -0.1457   18.6960 N.am      1 UNL1        0.0000
     23 N2         10.4492   -1.3073   23.4668 N.pl3     1 UNL1        0.0000
     24 N3         13.0690   -0.2485   23.4812 N.am      1 UNL1        0.0000
     25 N4          7.4586   -2.3695   25.2721 N.pl3     1 UNL1        0.0000
     26 O1          6.0049    1.7183   17.3324 O.2       1 UNL1        0.0000
     27 O2         15.3559    0.0155   23.1397 O.2       1 UNL1        0.0000
     28 O3          7.2124   -4.2476   23.5234 O.2       1 UNL1        0.0000
     29 O4          9.5117   -3.6091   24.3314 O.2       1 UNL1        0.0000
     30 S1          8.1530   -3.2333   23.9729 S.o2      1 UNL1        0.0000
@<TRIPOS>BOND
     1    1    2 ar
     2    1    3 ar
     3    2    4 ar
     4    3    8 ar
     5    4   10 ar
     6    5    6 ar
     7    5    9 ar
     8    6   11 ar
     9    7    9 ar
    10    7   12 ar
    11    8   10 ar
    12    8   13 1
    13    9   21 1
    14   10   21 1
    15   11   12 ar
    16   11   23 1
    17   12   30 1
    18   13   22 am
    19   13   26 2
    20   14   15 2
    21   15   16 1
    22   16   24 am
    23   16   27 2
    24   17   19 1
    25   17   23 1
    26   18   20 1
    27   18   23 1
    28   19   24 1
    29   20   24 1
    30   21   22 1
    31   25   30 1
    32   28   30 2
    33   29   30 2
@<TRIPOS>MOLECULE
DR -UNK-dd7-2
   30    33     0     0     0
SMALL
NO_CHARGES

@<TRIPOS>ATOM
      1 C1          3.4060    2.6290   20.7611 C.ar      1 UNL1        0.0000
      2 C2          3.4804    1.6327   21.7520 C.ar      1 UNL1        0.0000
      3 C3          4.1592    2.5293   19.5906 C.ar      1 UNL1        0.0000
      4 C4          4.3113    0.5191   21.5909 C.ar      1 UNL1        0.0000
      5 C5          8.2977   -0.0040   20.7841 C.ar      1 UNL1        0.0000
      6 C6          9.3852   -0.1711   21.6414 C.ar      1 UNL1        0.0000
      7 C7          7.1448   -1.8141   21.8938 C.ar      1 UNL1        0.0000
      8 C8          4.9723    1.4210   19.4563 C.ar      1 UNL1        0.0000
      9 C9          7.1774   -0.8255   20.9104 C.ar      1 UNL1        0.0000
     10 C10         5.0633    0.4264   20.4332 C.ar      1 UNL1        0.0000
     11 C11         9.3526   -1.1597   22.6248 C.ar      1 UNL1        0.0000
     12 C12         8.2324   -1.9813   22.7511 C.ar      1 UNL1        0.0000
     13 C13         5.8567    1.0592   18.3444 C.2       1 UNL1        0.0000
     14 C14        14.2054    0.0737   26.2604 C.2       1 UNL1        0.0000
     15 C15        14.5312    0.7733   25.1715 C.2       1 UNL1        0.0000
     16 C16        14.3540    0.1506   23.8442 C.2       1 UNL1        0.0000
     17 C17        11.5684   -2.1960   23.1488 C.3       1 UNL1        0.0000
     18 C18        10.7812   -0.2753   24.4542 C.3       1 UNL1        0.0000
     19 C19        12.7347   -1.3774   22.5917 C.3       1 UNL1        0.0000
     20 C20        11.9268    0.5755   23.9028 C.3       1 UNL1        0.0000
     21 C21         6.0148   -0.6462   19.9937 C.3       1 UNL1        0.0000
     22 N1          6.4520   -0.1457   18.6960 N.am      1 UNL1        0.0000
     23 N2         10.4492   -1.3073   23.4668 N.pl3     1 UNL1        0.0000
     24 N3         13.0690   -0.2485   23.4812 N.am      1 UNL1        0.0000
     25 N4          7.4586   -2.3695   25.2721 N.pl3     1 UNL1        0.0000
     26 O1          6.0049    1.7183   17.3324 O.2       1 UNL1        0.0000
     27 O2         15.3559    0.0155   23.1397 O.2       1 UNL1        0.0000
     28 O3          7.2124   -4.2476   23.5234 O.2       1 UNL1        0.0000
     29 O4          9.5117   -3.6091   24.3314 O.2       1 UNL1        0.0000
     30 S1          8.1530   -3.2333   23.9729 S.o2      1 UNL1        0.0000
@<TRIPOS>BOND
     1    1    2 ar
     2    1    3 ar
     3    2    4 ar
     4    3    8 ar
     5    4   10 ar
     6    5    6 ar
     7    5    9 ar
     8    6   11 ar
     9    7    9 ar
    10    7   12 ar
    11    8   10 ar
    12    8   13 1
    13    9   21 1
    14   10   21 1
    15   11   12 ar
    16   11   23 1
    17   12   30 1
    18   13   22 am
    19   13   26 2
    20   14   15 2
    21   15   16 1
    22   16   24 am
    23   16   27 2
    24   17   19 1
    25   17   23 1
    26   18   20 1
    27   18   23 1
    28   19   24 1
    29   20   24 1
    30   21   22 1
    31   25   30 1
    32   28   30 2
    33   29   30 2
@<TRIPOS>MOLECULE
BEN-VAN-d2b-6
   25    27     0     0     0
SMALL
NO_CHARGES

@<TRIPOS>ATOM
      1 C1         10.1205   -2.8782   23.0199 C.2       1 UNL1        0.0000
      2 C2          7.1624    2.0865   23.3029 C.ar      1 UNL1        0.0000
      3 C3          6.8749    1.4939   21.0618 C.ar      1 UNL1        0.0000
      4 C4          8.9562   -3.5393   23.3438 C.2       1 UNL1        0.0000
      5 C5          9.8861   -1.5123   22.6887 C.2       1 UNL1        0.0000
      6 C6          6.6866    2.4334   22.0548 C.ar      1 UNL1        0.0000
      7 C7          8.5514   -1.1816   22.7719 C.2       1 UNL1        0.0000
      8 C8          7.8994    0.0835   22.5206 C.ar      1 UNL1        0.0000
      9 C9         10.6962    6.6348   23.8179 C.2       1 UNL1        0.0000
     10 C10        10.9245    5.3324   24.0130 C.2       1 UNL1        0.0000
     11 C11        10.5799    4.3415   22.9579 C.2       1 UNL1        0.0000
     12 C12        10.6810    1.9094   22.5642 C.2       1 UNL1        0.0000
     13 C13        13.3308   -0.0573   22.4824 C.3       1 UNL1        0.0000
     14 C14        12.3742   -1.2148   22.2514 C.3       1 UNL1        0.0000
     15 C15        12.6386    0.7498   23.5713 C.3       1 UNL1        0.0000
     16 C16        10.9879   -0.5535   22.2941 C.3       1 UNL1        0.0000
     17 C17        11.1445    0.6559   23.2459 C.3       1 UNL1        0.0000
     18 C18         6.3593    4.8589   22.5401 C.3       1 UNL1        0.0000
     19 N1          7.7761    0.9155   23.5722 N.ar      1 UNL1        0.0000
     20 N2          7.4797    0.3043   21.2602 N.ar      1 UNL1        0.0000
     21 N3          6.0565    3.6576   21.8121 N.pl3     1 UNL1        0.0000
     22 N4         10.8924    3.0418   23.3490 N.am      1 UNL1        0.0000
     23 O1         10.0827    4.6680   21.8851 O.2       1 UNL1        0.0000
     24 O2         10.1977    1.8931   21.4353 O.2       1 UNL1        0.0000
     25 S1          7.5876   -2.5146   23.2479 S.3       1 UNL1        0.0000
@<TRIPOS>BOND
     1    1    4 2
     2    1    5 1
     3    2    6 ar
     4    2   19 ar
     5    3    6 ar
     6    3   20 ar
     7    4   25 1
     8    5    7 2
     9    5   16 1
    10    6   21 1
    11    7    8 1
    12    7   25 1
    13    8   19 ar
    14    8   20 ar
    15    9   10 2
    16   10   11 1
    17   11   22 am
    18   11   23 2
    19   12   17 1
    20   12   22 am
    21   12   24 2
    22   13   14 1
    23   13   15 1
    24   14   16 1
    25   15   17 1
    26   16   17 1
    27   18   21 1
@<TRIPOS>MOLECULE
AGN-NEW-5f0-1
   37    40     0     0     0
SMALL
NO_CHARGES

@<TRIPOS>ATOM
      1 C1          7.1827   -2.9201   24.7545 C.ar      1 UNL1        0.0000
      2 C2          8.8767   -2.8664   23.0480 C.ar      1 UNL1        0.0000
      3 C3          6.8289   -1.6374   24.3679 C.ar      1 UNL1        0.0000
      4 C4          4.0203    1.1672   18.5633 C.ar      1 UNL1        0.0000
      5 C5          8.2271   -3.5392   24.0769 C.ar      1 UNL1        0.0000
      6 C6          4.2330    1.9997   19.6503 C.ar      1 UNL1        0.0000
      7 C7          5.2656    1.6782   20.5241 C.ar      1 UNL1        0.0000
      8 C8          6.0429    0.5498   20.2877 C.ar      1 UNL1        0.0000
      9 C9          5.7491   -0.2179   19.1723 C.ar      1 UNL1        0.0000
     10 C10         8.4469   -1.5862   22.7376 C.ar      1 UNL1        0.0000
     11 C11        13.5258    5.5984   22.5559 C.2       1 UNL1        0.0000
     12 C12        12.9509    4.4009   22.4267 C.2       1 UNL1        0.0000
     13 C13        13.0011    3.4609   23.5611 C.2       1 UNL1        0.0000
     14 C14         8.4594    0.0691   20.8500 C.2       1 UNL1        0.0000
     15 C15        11.6754    1.6617   22.2357 C.3       1 UNL1        0.0000
     16 C16        12.3046    1.0858   24.1985 C.3       1 UNL1        0.0000
     17 C17         6.6597    6.1502   22.2797 C.3       1 UNL1        0.0000
     18 C18         7.5089    4.1620   23.5074 C.3       1 UNL1        0.0000
     19 C19         6.7712    6.9226   23.5832 C.3       1 UNL1        0.0000
     20 C20         7.5771    5.0373   24.7474 C.3       1 UNL1        0.0000
     21 C21        11.2235    0.5736   23.2287 C.3       1 UNL1        0.0000
     22 C22         8.6484   -4.9190   24.4526 C.3       1 UNL1        0.0000
     23 C23         3.3695    3.1964   19.8538 C.3       1 UNL1        0.0000
     24 C24         6.5466   -1.4435   18.8631 C.3       1 UNL1        0.0000
     25 C25         5.5350    2.5511   21.7155 C.3       1 UNL1        0.0000
     26 C26        11.3632   -0.8622   22.7628 C.3       1 UNL1        0.0000
     27 C27        10.5695   -1.1495   21.4939 C.3       1 UNL1        0.0000
     28 C28         6.2426    3.8587   21.3745 C.3       1 UNL1        0.0000
     29 N1          4.7544    0.0627   18.3009 N.ar      1 UNL1        0.0000
     30 N2          7.4363   -0.9521   23.3734 N.ar      1 UNL1        0.0000
     31 N3         12.3903    2.2592   23.3478 N.am      1 UNL1        0.0000
     32 N4          7.0858    0.2005   21.1495 N.am      1 UNL1        0.0000
     33 N5          9.1307   -0.8926   21.6626 N.am      1 UNL1        0.0000
     34 N6          6.4181    4.6958   22.6088 N.4       1 UNL1        0.0000
     35 O1         13.5677    3.7856   24.6015 O.2       1 UNL1        0.0000
     36 O2          9.0258    0.7292   19.9775 O.2       1 UNL1        0.0000
     37 O3          7.8275    6.3968   24.3881 O.3       1 UNL1        0.0000
@<TRIPOS>BOND
     1    1    3 ar
     2    1    5 ar
     3    2    5 ar
     4    2   10 ar
     5    3   30 ar
     6    4    6 ar
     7    4   29 ar
     8    5   22 1
     9    6    7 ar
    10    6   23 1
    11    7    8 ar
    12    7   25 1
    13    8    9 ar
    14    8   32 1
    15    9   24 1
    16    9   29 ar
    17   10   30 ar
    18   10   33 1
    19   11   12 2
    20   12   13 1
    21   13   31 am
    22   13   35 2
    23   14   32 am
    24   14   33 am
    25   14   36 2
    26   15   21 1
    27   15   31 1
    28   16   21 1
    29   16   31 1
    30   17   19 1
    31   17   34 1
    32   18   20 1
    33   18   34 1
    34   19   37 1
    35   20   37 1
    36   21   26 1
    37   25   28 1
    38   26   27 1
    39   27   33 1
    40   28   34 1
@<TRIPOS>MOLECULE
DAV-CRI-f9b-6
   74    77     0     0     0
SMALL
NO_CHARGES

@<TRIPOS>ATOM
      1 C1          6.4868   -5.5679   23.9086 C.ar      1 UNL1        0.0000
      2 C2          6.1226   -4.5944   22.9850 C.ar      1 UNL1        0.0000
      3 C3          6.6931   -1.2350   22.0204 C.ar      1 UNL1        0.0000
      4 C4          7.7616   -5.5722   24.4805 C.ar      1 UNL1        0.0000
      5 C5          6.3436   -0.2506   21.0961 C.ar      1 UNL1        0.0000
      6 C6          6.2879   -2.9403   20.3576 C.ar      1 UNL1        0.0000
      7 C7          6.6653   -2.5799   21.6512 C.ar      1 UNL1        0.0000
      8 C8          7.0278   -3.5977   22.6092 C.ar      1 UNL1        0.0000
      9 C9          8.3224   -3.5789   23.1718 C.ar      1 UNL1        0.0000
     10 C10         5.9383   -1.9559   19.4333 C.ar      1 UNL1        0.0000
     11 C11         8.6657   -4.5680   24.0985 C.ar      1 UNL1        0.0000
     12 C12         5.9661   -0.6110   19.8025 C.ar      1 UNL1        0.0000
     13 C13        10.3918   -2.9445   23.5987 C.2       1 UNL1        0.0000
     14 C14        14.0377   -0.9024   21.0369 C.2       1 UNL1        0.0000
     15 C15        13.0041    5.8692   22.5518 C.2       1 UNL1        0.0000
     16 C16        12.7472    2.7095   23.2926 C.2       1 UNL1        0.0000
     17 C17        11.7231   -1.0601   24.6332 C.3       1 UNL1        0.0000
     18 C18        13.0352   -0.2841   24.5590 C.3       1 UNL1        0.0000
     19 C19        11.9377   -1.5513   22.1616 C.3       1 UNL1        0.0000
     20 C20        11.6850   -2.1510   23.5530 C.3       1 UNL1        0.0000
     21 C21        13.3031    0.2880   23.1620 C.3       1 UNL1        0.0000
     22 C22         7.9467    3.6989   23.5158 C.3       1 UNL1        0.0000
     23 C23        15.2910   -0.0632   21.0484 C.3       1 UNL1        0.0000
     24 C24        12.0008    5.1065   23.3991 C.3       1 UNL1        0.0000
     25 C25        11.6866    3.7095   22.8629 C.3       1 UNL1        0.0000
     26 C26         9.1709    3.8449   22.6157 C.3       1 UNL1        0.0000
     27 N1          9.3212   -2.6564   22.8962 N.2       1 UNL1        0.0000
     28 N2         13.1689   -0.7508   22.1225 N.am      1 UNL1        0.0000
     29 N3         13.3299    7.0914   23.1004 N.am      1 UNL1        0.0000
     30 N4          8.9117    3.1881   21.3384 N.3       1 UNL1        0.0000
     31 N5          7.0653    1.0224   18.0057 N.pl3     1 UNL1        0.0000
     32 N6         12.4473    1.4191   22.8834 N.am      1 UNL1        0.0000
     33 N7         10.3480    3.2853   23.3680 N.4       1 UNL1        0.0000
     34 O1          5.5954   -2.3164   18.2505 O.3       1 UNL1        0.0000
     35 O2         13.8402   -1.6735   20.0940 O.2       1 UNL1        0.0000
     36 O3         13.4776    5.4474   21.5008 O.2       1 UNL1        0.0000
     37 O4         13.7497    3.0361   23.9240 O.2       1 UNL1        0.0000
     38 O5          4.6652    0.1407   17.6775 O.2       1 UNL1        0.0000
     39 O6          5.1204    1.8324   19.4882 O.2       1 UNL1        0.0000
     40 S1         10.2884   -4.3114   24.6219 S.3       1 UNL1        0.0000
     41 S2          5.5415    0.6894   18.6974 S.o2      1 UNL1        0.0000
     42 Cl1        14.9055    1.4286   20.1980 Cl        1 UNL1        0.0000
     43 H           6.4868   -5.5679   23.9086 H         1 UNL1        0.0000
     44 H           6.1226   -4.5944   22.9850 H         1 UNL1        0.0000
     45 H           6.6931   -1.2350   22.0204 H         1 UNL1        0.0000
     46 H           7.7616   -5.5722   24.4805 H         1 UNL1        0.0000
     47 H           6.3436   -0.2506   21.0961 H         1 UNL1        0.0000
     48 H           6.2879   -2.9403   20.3576 H         1 UNL1        0.0000
     49 H          11.7231   -1.0601   24.6332 H         1 UNL1        0.0000
     50 H          11.7231   -1.0601   24.6332 H         1 UNL1        0.0000
     51 H          13.0352   -0.2841   24.5590 H         1 UNL1        0.0000
     52 H          13.0352   -0.2841   24.5590 H         1 UNL1        0.0000
     53 H          11.9377   -1.5513   22.1616 H         1 UNL1        0.0000
     54 H          11.9377   -1.5513   22.1616 H         1 UNL1        0.0000
     55 H          11.6850   -2.1510   23.5530 H         1 UNL1        0.0000
     56 H          13.3031    0.2880   23.1620 H         1 UNL1        0.0000
     57 H           7.9467    3.6989   23.5158 H         1 UNL1        0.0000
     58 H           7.9467    3.6989   23.5158 H         1 UNL1        0.0000
     59 H           7.9467    3.6989   23.5158 H         1 UNL1        0.0000
     60 H          15.2910   -0.0632   21.0484 H         1 UNL1        0.0000
     61 H          15.2910   -0.0632   21.0484 H         1 UNL1        0.0000
     62 H          12.0008    5.1065   23.3991 H         1 UNL1        0.0000
     63 H          12.0008    5.1065   23.3991 H         1 UNL1        0.0000
     64 H          11.6866    3.7095   22.8629 H         1 UNL1        0.0000
     65 H           9.1709    3.8449   22.6157 H         1 UNL1        0.0000
     66 H          13.3299    7.0914   23.1004 H         1 UNL1        0.0000
     67 H          13.3299    7.0914   23.1004 H         1 UNL1        0.0000
     68 H           8.9117    3.1881   21.3384 H         1 UNL1        0.0000
     69 H           8.9117    3.1881   21.3384 H         1 UNL1        0.0000
     70 H           7.0653    1.0224   18.0057 H         1 UNL1        0.0000
     71 H           7.0653    1.0224   18.0057 H         1 UNL1        0.0000
     72 H          12.4473    1.4191   22.8834 H         1 UNL1        0.0000
     73 H          10.3480    3.2853   23.3680 H         1 UNL1        0.0000
     74 H          10.3480    3.2853   23.3680 H         1 UNL1        0.0000
@<TRIPOS>BOND
     1    1    2 ar
     2    1    4 ar
     3    2    8 ar
     4    3    5 ar
     5    3    7 ar
     6    4   11 ar
     7    5   12 ar
     8    6    7 ar
     9    6   10 ar
    10    7    8 1
    11    8    9 ar
    12    9   11 ar
    13    9   27 1
    14   10   12 ar
    15   10   34 1
    16   11   40 1
    17   12   41 1
    18   13   20 1
    19   13   27 2
    20   13   40 1
    21   14   23 1
    22   14   28 am
    23   14   35 2
    24   15   24 1
    25   15   29 am
    26   15   36 2
    27   16   25 1
    28   16   32 am
    29   16   37 2
    30   17   18 1
    31   17   20 1
    32   18   21 1
    33   19   20 1
    34   19   28 1
    35   21   28 1
    36   21   32 1
    37   22   26 1
    38   23   42 1
    39   24   25 1
    40   25   33 1
    41   26   30 1
    42   26   33 1
    43   31   41 1
    44   38   41 2
    45   39   41 2
    46    1   43 1
    47    2   44 1
    48    3   45 1
    49    4   46 1
    50    5   47 1
    51    6   48 1
    52   17   49 1
    53   17   50 1
    54   18   51 1
    55   18   52 1
    56   19   53 1
    57   19   54 1
    58   20   55 1
    59   21   56 1
    60   22   57 1
    61   22   58 1
    62   22   59 1
    63   23   60 1
    64   23   61 1
    65   24   62 1
    66   24   63 1
    67   25   64 1
    68   26   65 1
    69   29   66 1
    70   29   67 1
    71   30   68 1
    72   30   69 1
    73   31   70 1
    74   31   71 1
    75   32   72 1
    76   33   73 1
    77   33   74 1
@<TRIPOS>MOLECULE
MAK-UNK-e4a-2
   23    24     0     0     0
SMALL
NO_CHARGES

@<TRIPOS>ATOM
      1 C1          7.3049    0.8239   20.1649 C.2       1 UNL1        0.0000
      2 C2          6.9115    1.2515   18.9159 C.2       1 UNL1        0.0000
      3 C3          6.2764   -1.0876   19.3340 C.2       1 UNL1        0.0000
      4 C4          6.9372   -0.5312   20.4072 C.2       1 UNL1        0.0000
      5 C5         11.8054    2.4040   23.5789 C.2       1 UNL1        0.0000
      6 C6          6.0901   -3.3618   21.5511 C.2       1 UNL1        0.0000
      7 C7         11.2406    0.6915   21.8850 C.3       1 UNL1        0.0000
      8 C8          9.6542    1.0565   23.7352 C.3       1 UNL1        0.0000
      9 C9         11.1909   -0.8124   22.1117 C.3       1 UNL1        0.0000
     10 C10         9.5791   -0.4431   23.9888 C.3       1 UNL1        0.0000
     11 C11         3.9309   -3.6320   22.7529 C.3       1 UNL1        0.0000
     12 C12        11.4168    3.1038   24.8568 C.3       1 UNL1        0.0000
     13 C13         8.2039   -3.0051   22.9199 C.3       1 UNL1        0.0000
     14 C14         9.6907   -2.6651   22.8548 C.3       1 UNL1        0.0000
     15 C15         7.4277   -2.6392   21.6486 C.3       1 UNL1        0.0000
     16 N1         10.9336    1.4193   23.1164 N.am      1 UNL1        0.0000
     17 N2          7.2093   -1.2100   21.5818 N.pl3     1 UNL1        0.0000
     18 N3          5.2534   -3.0671   22.6178 N.am      1 UNL1        0.0000
     19 N4          9.8441   -1.1787   22.6942 N.4       1 UNL1        0.0000
     20 O1         12.8538    2.7225   23.0119 O.2       1 UNL1        0.0000
     21 O2          5.8059   -4.1182   20.6247 O.2       1 UNL1        0.0000
     22 S1          6.1021    0.0218   18.0413 S.3       1 UNL1        0.0000
     23 Cl1        10.4789    4.5185   24.3912 Cl        1 UNL1        0.0000
@<TRIPOS>BOND
     1    1    2 2
     2    1    4 1
     3    2   22 1
     4    3    4 2
     5    3   22 1
     6    4   17 1
     7    5   12 1
     8    5   16 am
     9    5   20 2
    10    6   15 1
    11    6   18 am
    12    6   21 2
    13    7    9 1
    14    7   16 1
    15    8   10 1
    16    8   16 1
    17    9   19 1
    18   10   19 1
    19   11   18 1
    20   12   23 1
    21   13   14 1
    22   13   15 1
    23   14   19 1
    24   15   17 1
@<TRIPOS>MOLECULE
DAN-LON-a5f-1
   21    22     0     0     0
SMALL
NO_CHARGES

@<TRIPOS>ATOM
      1 C1         11.4600    0.3719   24.7774 C.ar      1 UNL1        0.0000
      2 C2         10.5692   -0.6969   24.8766 C.ar      1 UNL1        0.0000
      3 C3         12.4270    0.3828   23.7721 C.ar      1 UNL1        0.0000
      4 C4         11.6125   -1.7439   22.9655 C.ar      1 UNL1        0.0000
      5 C5         10.6455   -1.7548   23.9707 C.ar      1 UNL1        0.0000
      6 C6         12.5033   -0.6751   22.8662 C.ar      1 UNL1        0.0000
      7 C7          6.7541   -0.6380   23.2516 C.2       1 UNL1        0.0000
      8 C8          6.3357   -3.1390   20.2378 C.2       1 UNL1        0.0000
      9 C9          7.4047   -4.1099   22.2403 C.3       1 UNL1        0.0000
     10 C10         8.1076   -1.8473   21.5237 C.3       1 UNL1        0.0000
     11 C11         7.3137   -3.6487   23.6859 C.3       1 UNL1        0.0000
     12 C12         8.0474   -1.3414   22.9647 C.3       1 UNL1        0.0000
     13 C13         9.6878   -2.9046   24.0788 C.3       1 UNL1        0.0000
     14 C14         6.1965   -1.9558   19.3132 C.3       1 UNL1        0.0000
     15 N1          7.2253   -3.0005   21.3048 N.am      1 UNL1        0.0000
     16 N2          6.5404    0.4711   22.4677 N.am      1 UNL1        0.0000
     17 N3          8.2457   -2.4873   23.9406 N.4       1 UNL1        0.0000
     18 O1          5.9652   -1.0433   24.1017 O.2       1 UNL1        0.0000
     19 O2          5.6708   -4.1548   20.0181 O.2       1 UNL1        0.0000
     20 Cl1        13.6973   -0.6616   21.6269 Cl        1 UNL1        0.0000
     21 Cl2         7.4210   -2.1464   18.0634 Cl        1 UNL1        0.0000
@<TRIPOS>BOND
     1    1    2 ar
     2    1    3 ar
     3    2    5 ar
     4    3    6 ar
     5    4    5 ar
     6    4    6 ar
     7    5   13 1
     8    6   20 1
     9    7   12 1
    10    7   16 am
    11    7   18 2
    12    8   14 1
    13    8   15 am
    14    8   19 2
    15    9   11 1
    16    9   15 1
    17   10   12 1
    18   10   15 1
    19   11   17 1
    20   12   17 1
    21   13   17 1
    22   14   21 1
@<TRIPOS>MOLECULE
JAN-GHE-bf4-11
   21    23     0     0     0
SMALL
NO_CHARGES

@<TRIPOS>ATOM
      1 C1         11.9860    3.0583   24.0375 C.1       1 UNL1        0.0000
      2 C2         13.3886    1.1005   23.4882 C.2       1 UNL1        0.0000
      3 C3         13.5268   -0.1897   23.1521 C.2       1 UNL1        0.0000
      4 C4         11.0094    1.1168   23.0176 C.2       1 UNL1        0.0000
      5 C5         10.7214   -1.9613   23.9612 C.2       1 UNL1        0.0000
      6 C6         12.0915    1.7404   23.5129 C.2       1 UNL1        0.0000
      7 C7          6.8722    0.1852   18.0569 C.2       1 UNL1        0.0000
      8 C8          5.7170   -0.4070   18.3747 C.2       1 UNL1        0.0000
      9 C9          5.6998   -1.5862   19.2809 C.2       1 UNL1        0.0000
     10 C10         7.1644   -1.8354   22.7879 C.3       1 UNL1        0.0000
     11 C11         7.3735   -3.3642   21.3413 C.3       1 UNL1        0.0000
     12 C12        11.0693   -0.2698   22.4141 C.3       1 UNL1        0.0000
     13 C13        12.3569   -1.0499   22.7678 C.3       1 UNL1        0.0000
     14 C14         9.9608   -1.1822   22.9359 C.3       1 UNL1        0.0000
     15 C15         6.3248   -2.2737   21.5834 C.3       1 UNL1        0.0000
     16 C16         9.4142   -2.1331   21.8811 C.3       1 UNL1        0.0000
     17 N1         11.9002    4.1332   24.4653 N.1       1 UNL1        0.0000
     18 N2         12.0124   -1.9236   23.9141 N.2       1 UNL1        0.0000
     19 N3          6.2278   -1.2822   20.5188 N.am      1 UNL1        0.0000
     20 N4          8.2079   -2.8091   22.4215 N.4       1 UNL1        0.0000
     21 O1          5.2645   -2.6794   18.9336 O.2       1 UNL1        0.0000
@<TRIPOS>BOND
     1    1    6 1
     2    1   17 3
     3    2    3 2
     4    2    6 1
     5    3   13 1
     6    4    6 2
     7    4   12 1
     8    5   14 1
     9    5   18 2
    10    7    8 2
    11    8    9 1
    12    9   19 am
    13    9   21 2
    14   10   15 1
    15   10   20 1
    16   11   15 1
    17   11   20 1
    18   12   13 1
    19   12   14 1
    20   13   18 1
    21   14   16 1
    22   15   19 1
    23   16   20 1
@<TRIPOS>MOLECULE
PAU-UNI-b6a-1
   31    34     0     0     0
SMALL
NO_CHARGES

@<TRIPOS>ATOM
      1 C1          7.5262   -4.7005   26.0442 C.ar      1 UNL1        0.0000
      2 C2          6.2877   -4.4759   25.4388 C.ar      1 UNL1        0.0000
      3 C3          8.7083   -4.2162   25.4701 C.ar      1 UNL1        0.0000
      4 C4          6.1843   -3.7612   24.2408 C.ar      1 UNL1        0.0000
      5 C5          4.3208    1.3282   18.9763 C.ar      1 UNL1        0.0000
      6 C6          5.2534    0.8522   18.0688 C.ar      1 UNL1        0.0000
      7 C7          6.8333    0.5582   19.7107 C.ar      1 UNL1        0.0000
      8 C8          4.6963    1.4109   20.3125 C.ar      1 UNL1        0.0000
      9 C9          8.6231   -3.4962   24.2664 C.ar      1 UNL1        0.0000
     10 C10         5.9748    1.0206   20.6951 C.ar      1 UNL1        0.0000
     11 C11         7.3746   -3.2885   23.6871 C.ar      1 UNL1        0.0000
     12 C12         8.9935   -2.3747   22.4875 C.2       1 UNL1        0.0000
     13 C13         6.2241    0.0676   22.8174 C.2       1 UNL1        0.0000
     14 C14        10.7867    1.3163   23.3721 C.2       1 UNL1        0.0000
     15 C15        12.1646   -1.6519   21.8322 C.3       1 UNL1        0.0000
     16 C16        11.0274   -2.1834   20.9635 C.3       1 UNL1        0.0000
     17 C17        12.1428   -0.1307   21.9007 C.3       1 UNL1        0.0000
     18 C18         9.6891   -0.0832   21.5576 C.3       1 UNL1        0.0000
     19 C19         9.6524   -1.6072   21.3407 C.3       1 UNL1        0.0000
     20 C20         3.7138    1.9190   21.3155 C.3       1 UNL1        0.0000
     21 C21         6.6358    0.0155   24.2716 C.3       1 UNL1        0.0000
     22 C22         5.6078   -1.1850   22.2158 C.3       1 UNL1        0.0000
     23 C23         9.6242    2.2768   23.3427 C.3       1 UNL1        0.0000
     24 C24         6.6641   -2.0996   21.5947 C.3       1 UNL1        0.0000
     25 N1          6.5045    0.4637   18.4028 N.ar      1 UNL1        0.0000
     26 N2          9.6165   -2.9213   23.5074 N.2       1 UNL1        0.0000
     27 N3          6.3991    1.0878   22.0309 N.2       1 UNL1        0.0000
     28 N4          7.6416   -2.5686   22.5508 N.pl3     1 UNL1        0.0000
     29 N5         10.8422    0.3679   22.3483 N.am      1 UNL1        0.0000
     30 O1         11.6169    1.4044   24.2804 O.2       1 UNL1        0.0000
     31 Cl1        10.1782    3.7619   24.1078 Cl        1 UNL1        0.0000
@<TRIPOS>BOND
     1    1    2 ar
     2    1    3 ar
     3    2    4 ar
     4    3    9 ar
     5    4   11 ar
     6    5    6 ar
     7    5    8 ar
     8    6   25 ar
     9    7   10 ar
    10    7   25 ar
    11    8   10 ar
    12    8   20 1
    13    9   11 ar
    14    9   26 1
    15   10   27 1
    16   11   28 1
    17   12   19 1
    18   12   26 2
    19   12   28 1
    20   13   21 1
    21   13   22 1
    22   13   27 2
    23   14   23 1
    24   14   29 am
    25   14   30 2
    26   15   16 1
    27   15   17 1
    28   16   19 1
    29   17   29 1
    30   18   19 1
    31   18   29 1
    32   22   24 1
    33   23   31 1
    34   24   28 1
@<TRIPOS>MOLECULE
TAM-UNI-d1c-13
   25    27     0     0     0
SMALL
NO_CHARGES

@<TRIPOS>ATOM
      1 C1          9.5669   -5.3080   25.8052 C.ar      1 UNL1        0.0000
      2 C2          8.1983   -5.4139   26.0508 C.ar      1 UNL1        0.0000
      3 C3         10.0361   -4.3816   24.8811 C.ar      1 UNL1        0.0000
      4 C4          7.2773   -4.5973   25.3726 C.ar      1 UNL1        0.0000
      5 C5          7.7553   -3.6567   24.4380 C.ar      1 UNL1        0.0000
      6 C6          9.1370   -3.5603   24.2027 C.ar      1 UNL1        0.0000
      7 C7          6.2584   -3.8393   21.5369 C.2       1 UNL1        0.0000
      8 C8         11.1492    2.6938   24.0997 C.2       1 UNL1        0.0000
      9 C9          5.8052   -4.7387   25.6845 C.3       1 UNL1        0.0000
     10 C10         6.8153   -2.7525   23.6791 C.3       1 UNL1        0.0000
     11 C11         4.9483   -5.1445   24.4815 C.3       1 UNL1        0.0000
     12 C12         4.6693   -3.9973   23.5099 C.3       1 UNL1        0.0000
     13 C13        10.0897    0.7084   25.1277 C.3       1 UNL1        0.0000
     14 C14        12.0984    0.3615   23.7428 C.3       1 UNL1        0.0000
     15 C15         9.3621   -0.4044   24.3876 C.3       1 UNL1        0.0000
     16 C16        11.4012   -0.7586   22.9825 C.3       1 UNL1        0.0000
     17 C17         7.1812   -2.8728   20.8378 C.3       1 UNL1        0.0000
     18 C18         9.7170   -2.5861   23.2259 C.3       1 UNL1        0.0000
     19 C19        12.2437    3.2348   23.2147 C.3       1 UNL1        0.0000
     20 N1          5.8858   -3.5175   22.8456 N.am      1 UNL1        0.0000
     21 N2         11.1223    1.3123   24.2855 N.am      1 UNL1        0.0000
     22 N3         10.3763   -1.4077   23.8856 N.4       1 UNL1        0.0000
     23 O1          5.8782   -4.8503   20.9404 O.2       1 UNL1        0.0000
     24 O2         10.3421    3.4766   24.6074 O.2       1 UNL1        0.0000
     25 Cl1        13.6033    3.6104   24.2674 Cl        1 UNL1        0.0000
@<TRIPOS>BOND
     1    1    2 ar
     2    1    3 ar
     3    2    4 ar
     4    3    6 ar
     5    4    5 ar
     6    4    9 1
     7    5    6 ar
     8    5   10 1
     9    6   18 1
    10    7   17 1
    11    7   20 am
    12    7   23 2
    13    8   19 1
    14    8   21 am
    15    8   24 2
    16    9   11 1
    17   10   20 1
    18   11   12 1
    19   12   20 1
    20   13   15 1
    21   13   21 1
    22   14   16 1
    23   14   21 1
    24   15   22 1
    25   16   22 1
    26   18   22 1
    27   19   25 1
@<TRIPOS>MOLECULE
TAM-UNI-d1c-21
   23    24     0     0     0
SMALL
NO_CHARGES

@<TRIPOS>ATOM
      1 C1          8.1706   -5.6037   25.7690 C.ar      1 UNL1        0.0000
      2 C2          7.0341   -4.8650   26.0978 C.ar      1 UNL1        0.0000
      3 C3          9.0698   -5.1154   24.8211 C.ar      1 UNL1        0.0000
      4 C4          6.7967   -3.6379   25.4786 C.ar      1 UNL1        0.0000
      5 C5          8.8324   -3.8883   24.2018 C.ar      1 UNL1        0.0000
      6 C6          7.6958   -3.1495   24.5306 C.ar      1 UNL1        0.0000
      7 C7          6.4748   -2.7414   21.7770 C.2       1 UNL1        0.0000
      8 C8         11.2813   -1.4260   22.7579 C.2       1 UNL1        0.0000
      9 C9         13.0927    0.2536   22.9120 C.3       1 UNL1        0.0000
     10 C10        11.0694    0.6336   24.2691 C.3       1 UNL1        0.0000
     11 C11        13.0994    1.7412   22.5972 C.3       1 UNL1        0.0000
     12 C12        11.1847    2.1112   23.9101 C.3       1 UNL1        0.0000
     13 C13         6.1306   -1.1695   24.3831 C.3       1 UNL1        0.0000
     14 C14         9.8146   -3.3820   23.1854 C.3       1 UNL1        0.0000
     15 C15         6.6131   -2.6760   20.2774 C.3       1 UNL1        0.0000
     16 C16         7.4201   -1.8335   23.8804 C.3       1 UNL1        0.0000
     17 N1         11.7467   -0.2020   23.2673 N.am      1 UNL1        0.0000
     18 N2          7.3863   -1.9382   22.4322 N.am      1 UNL1        0.0000
     19 N3         10.3788   -2.1066   23.5666 N.am      1 UNL1        0.0000
     20 O1          5.6173   -3.4360   22.3197 O.2       1 UNL1        0.0000
     21 O2         11.6475   -1.8795   21.6685 O.2       1 UNL1        0.0000
     22 O3         12.5484    2.4747   23.6926 O.3       1 UNL1        0.0000
     23 Cl1         6.3515   -0.9973   19.7791 Cl        1 UNL1        0.0000
@<TRIPOS>BOND
     1    1    2 ar
     2    1    3 ar
     3    2    4 ar
     4    3    5 ar
     5    4    6 ar
     6    5    6 ar
     7    5   14 1
     8    6   16 1
     9    7   15 1
    10    7   18 am
    11    7   20 2
    12    8   17 am
    13    8   19 am
    14    8   21 2
    15    9   11 1
    16    9   17 1
    17   10   12 1
    18   10   17 1
    19   11   22 1
    20   12   22 1
    21   13   16 1
    22   14   19 1
    23   15   23 1
    24   16   18 1
@<TRIPOS>MOLECULE
TAM-UNI-d1c-6
   26    28     0     0     0
SMALL
NO_CHARGES

@<TRIPOS>ATOM
      1 C1         12.7196    0.1121   22.3759 C.ar      1 UNL1        0.0000
      2 C2         13.1886    2.4875   22.7507 C.ar      1 UNL1        0.0000
      3 C3         11.8664   -0.9847   22.5000 C.ar      1 UNL1        0.0000
      4 C4         12.7976    3.7324   23.2443 C.ar      1 UNL1        0.0000
      5 C5         10.2359    0.4078   23.6093 C.ar      1 UNL1        0.0000
      6 C6         10.7048    2.7832   23.9840 C.ar      1 UNL1        0.0000
      7 C7         12.3425    1.3726   22.8670 C.ar      1 UNL1        0.0000
      8 C8         11.0820    1.5227   23.4929 C.ar      1 UNL1        0.0000
      9 C9         10.6269   -0.8371   23.1155 C.ar      1 UNL1        0.0000
     10 C10        11.5581    3.8800   23.8598 C.ar      1 UNL1        0.0000
     11 C11         5.8174   -2.4982   19.3373 C.2       1 UNL1        0.0000
     12 C12         6.2993   -2.8474   21.7388 C.3       1 UNL1        0.0000
     13 C13         7.1619   -0.8007   20.6711 C.3       1 UNL1        0.0000
     14 C14         7.6649   -3.1299   22.3478 C.3       1 UNL1        0.0000
     15 C15         8.5409   -1.0515   21.2660 C.3       1 UNL1        0.0000
     16 C16         9.1412    7.0431   23.3413 C.3       1 UNL1        0.0000
     17 C17         9.7114   -2.0183   23.2486 C.3       1 UNL1        0.0000
     18 C18         5.9964   -1.6280   18.1189 C.3       1 UNL1        0.0000
     19 N1          6.4233   -2.0581   20.5133 N.am      1 UNL1        0.0000
     20 N2         10.2788    6.1360   23.1320 N.pl3     1 UNL1        0.0000
     21 N3          8.3905   -1.8200   22.5598 N.4       1 UNL1        0.0000
     22 O1          5.1608   -3.5385   19.2441 O.2       1 UNL1        0.0000
     23 O2         10.0934    5.2378   25.5394 O.2       1 UNL1        0.0000
     24 O3         12.2780    6.2049   24.7542 O.2       1 UNL1        0.0000
     25 S1         11.0703    5.4388   24.4769 S.o2      1 UNL1        0.0000
     26 Cl1         7.4750   -2.1649   17.3293 Cl        1 UNL1        0.0000
@<TRIPOS>BOND
     1    1    3 ar
     2    1    7 ar
     3    2    4 ar
     4    2    7 ar
     5    3    9 ar
     6    4   10 ar
     7    5    8 ar
     8    5    9 ar
     9    6    8 ar
    10    6   10 ar
    11    7    8 ar
    12    9   17 1
    13   10   25 1
    14   11   18 1
    15   11   19 am
    16   11   22 2
    17   12   14 1
    18   12   19 1
    19   13   15 1
    20   13   19 1
    21   14   21 1
    22   15   21 1
    23   16   20 1
    24   17   21 1
    25   18   26 1
    26   20   25 1
    27   23   25 2
    28   24   25 2
@<TRIPOS>MOLECULE
DAN-LON-a5f-3
   22    23     0     0     0
SMALL
NO_CHARGES

@<TRIPOS>ATOM
      1 C1         11.6749    0.2776   24.6849 C.ar      1 UNL1        0.0000
      2 C2         10.6817   -0.6833   24.8745 C.ar      1 UNL1        0.0000
      3 C3         12.6117    0.1203   23.6635 C.ar      1 UNL1        0.0000
      4 C4         11.5622   -1.9589   23.0212 C.ar      1 UNL1        0.0000
      5 C5         10.6254   -1.8016   24.0427 C.ar      1 UNL1        0.0000
      6 C6         12.5554   -0.9980   22.8316 C.ar      1 UNL1        0.0000
      7 C7          5.9724   -2.8698   20.5900 C.2       1 UNL1        0.0000
      8 C8          7.0960   -3.9028   22.5335 C.3       1 UNL1        0.0000
      9 C9          8.0083   -1.7855   21.6565 C.3       1 UNL1        0.0000
     10 C10         7.1156   -3.3611   23.9539 C.3       1 UNL1        0.0000
     11 C11         8.0676   -1.1776   23.0603 C.3       1 UNL1        0.0000
     12 C12         5.7961    2.0170   23.1470 C.3       1 UNL1        0.0000
     13 C13         8.2742    1.7858   23.4096 C.3       1 UNL1        0.0000
     14 C14         9.5576   -2.8353   24.2479 C.3       1 UNL1        0.0000
     15 C15         5.9154   -1.7192   19.6169 C.3       1 UNL1        0.0000
     16 C16         6.8640   -0.2869   23.3666 C.3       1 UNL1        0.0000
     17 C17         7.0115    1.1449   22.8288 C.3       1 UNL1        0.0000
     18 N1          6.9801   -2.8252   21.5535 N.am      1 UNL1        0.0000
     19 N2          8.1620   -2.2795   24.1079 N.4       1 UNL1        0.0000
     20 O1          5.1430   -3.7784   20.4969 O.2       1 UNL1        0.0000
     21 Cl1        13.7121   -1.1921   21.5723 Cl        1 UNL1        0.0000
     22 Cl2         6.9583   -2.1499   18.2661 Cl        1 UNL1        0.0000
@<TRIPOS>BOND
     1    1    2 ar
     2    1    3 ar
     3    2    5 ar
     4    3    6 ar
     5    4    5 ar
     6    4    6 ar
     7    5   14 1
     8    6   21 1
     9    7   15 1
    10    7   18 am
    11    7   20 2
    12    8   10 1
    13    8   18 1
    14    9   11 1
    15    9   18 1
    16   10   19 1
    17   11   16 1
    18   11   19 1
    19   12   17 1
    20   13   17 1
    21   14   19 1
    22   15   22 1
    23   16   17 1
@<TRIPOS>MOLECULE
ANT-STE-dbb-3
   24    26     0     0     0
SMALL
NO_CHARGES

@<TRIPOS>ATOM
      1 C1         13.9299   -1.2187   21.0355 C.ar      1 UNL1        0.0000
      2 C2         14.5558   -0.0176   21.3689 C.ar      1 UNL1        0.0000
      3 C3         12.8124   -1.6454   21.7530 C.ar      1 UNL1        0.0000
      4 C4         14.0644    0.7567   22.4198 C.ar      1 UNL1        0.0000
      5 C5         10.5035   -2.4561   23.2915 C.2       1 UNL1        0.0000
      6 C6         12.3209   -0.8711   22.8039 C.ar      1 UNL1        0.0000
      7 C7         12.9468    0.3300   23.1374 C.ar      1 UNL1        0.0000
      8 C8          9.5187   -2.4149   24.2462 C.2       1 UNL1        0.0000
      9 C9          5.8890   -2.3313   19.7072 C.2       1 UNL1        0.0000
     10 C10         6.4418   -4.1182   21.3266 C.3       1 UNL1        0.0000
     11 C11         5.7484   -1.9263   22.2140 C.3       1 UNL1        0.0000
     12 C12         7.6413   -4.1408   22.2627 C.3       1 UNL1        0.0000
     13 C13         6.9372   -1.9167   23.1655 C.3       1 UNL1        0.0000
     14 C14        11.5098    2.0909   23.8374 C.3       1 UNL1        0.0000
     15 C15         8.4216   -3.4020   24.5167 C.3       1 UNL1        0.0000
     16 C16         6.1605   -0.8757   19.4223 C.3       1 UNL1        0.0000
     17 N1          9.6511   -1.2780   24.9942 N.2       1 UNL1        0.0000
     18 N2         10.6972   -0.6034   24.5298 N.2       1 UNL1        0.0000
     19 N3         11.2068   -1.3114   23.5088 N.pl3     1 UNL1        0.0000
     20 N4          6.0316   -2.7455   21.0307 N.am      1 UNL1        0.0000
     21 N5          7.3127   -3.3420   23.5042 N.4       1 UNL1        0.0000
     22 O1          5.5628   -3.0766   18.7798 O.2       1 UNL1        0.0000
     23 O2         12.4863    1.1039   24.1612 O.3       1 UNL1        0.0000
     24 Cl1         7.8175   -0.5640   19.9275 Cl        1 UNL1        0.0000
@<TRIPOS>BOND
     1    1    2 ar
     2    1    3 ar
     3    2    4 ar
     4    3    6 ar
     5    4    7 ar
     6    5    8 2
     7    5   19 1
     8    6    7 ar
     9    6   19 1
    10    7   23 1
    11    8   15 1
    12    8   17 1
    13    9   16 1
    14    9   20 am
    15    9   22 2
    16   10   12 1
    17   10   20 1
    18   11   13 1
    19   11   20 1
    20   12   21 1
    21   13   21 1
    22   14   23 1
    23   15   21 1
    24   16   24 1
    25   17   18 2
    26   18   19 1
@<TRIPOS>MOLECULE
MAK-UNK-e4a-14
   21    22     0     0     0
SMALL
NO_CHARGES

@<TRIPOS>ATOM
      1 C1         11.3960    0.1652   23.1008 C.2       1 UNL1        0.0000
      2 C2          6.9296   -4.5235   28.3697 C.3       1 UNL1        0.0000
      3 C3          9.3528   -4.3757   27.6725 C.3       1 UNL1        0.0000
      4 C4          9.0443   -0.6031   23.1175 C.3       1 UNL1        0.0000
      5 C5         10.6449   -1.7438   24.6041 C.3       1 UNL1        0.0000
      6 C6          6.8361   -5.9024   27.7254 C.3       1 UNL1        0.0000
      7 C7          9.2452   -5.7561   27.0342 C.3       1 UNL1        0.0000
      8 C8          8.5344   -1.9421   22.6050 C.3       1 UNL1        0.0000
      9 C9         10.1575   -3.1010   24.1150 C.3       1 UNL1        0.0000
     10 C10         8.3522   -4.1868   28.8122 C.3       1 UNL1        0.0000
     11 C11         8.2711   -6.7109   23.5648 C.3       1 UNL1        0.0000
     12 C12        12.7956   -0.0159   23.6320 C.3       1 UNL1        0.0000
     13 C13         7.4247   -5.3089   25.3439 C.3       1 UNL1        0.0000
     14 C14         8.1396   -4.3131   23.2817 C.3       1 UNL1        0.0000
     15 N1         10.4261   -0.7110   23.5857 N.am      1 UNL1        0.0000
     16 N2          8.3765   -5.4090   24.2301 N.3       1 UNL1        0.0000
     17 N3          7.8286   -6.0386   26.5966 N.4       1 UNL1        0.0000
     18 N4          8.7117   -2.9838   23.6870 N.4       1 UNL1        0.0000
     19 O1         11.1741    1.0572   22.2780 O.2       1 UNL1        0.0000
     20 O2          8.7020   -5.0341   29.9052 O.3       1 UNL1        0.0000
     21 Cl1        13.5904   -1.1751   22.5725 Cl        1 UNL1        0.0000
@<TRIPOS>BOND
     1    1   12 1
     2    1   15 am
     3    1   19 2
     4    2    6 1
     5    2   10 1
     6    3    7 1
     7    3   10 1
     8    4    8 1
     9    4   15 1
    10    5    9 1
    11    5   15 1
    12    6   17 1
    13    7   17 1
    14    8   18 1
    15    9   18 1
    16   10   20 1
    17   11   16 1
    18   12   21 1
    19   13   16 1
    20   13   17 1
    21   14   16 1
    22   14   18 1
@<TRIPOS>MOLECULE
DAV-CRI-f47-7
   36    40     0     0     0
SMALL
NO_CHARGES

@<TRIPOS>ATOM
      1 C1         12.3678    1.0420   23.8357 C.ar      1 UNL1        0.0000
      2 C2         11.2453    0.3202   24.2413 C.ar      1 UNL1        0.0000
      3 C3          9.3036   -5.3214   25.0844 C.ar      1 UNL1        0.0000
      4 C4         10.5142   -5.5897   25.7173 C.ar      1 UNL1        0.0000
      5 C5         13.1682    0.5625   22.7988 C.ar      1 UNL1        0.0000
      6 C6         11.2237   -3.3227   25.2896 C.ar      1 UNL1        0.0000
      7 C7         11.7235   -1.3607   22.5731 C.ar      1 UNL1        0.0000
      8 C8         10.9231   -0.8812   23.6100 C.ar      1 UNL1        0.0000
      9 C9          9.0517   -4.0529   24.5384 C.ar      1 UNL1        0.0000
     10 C10        10.0225   -3.0462   24.6141 C.ar      1 UNL1        0.0000
     11 C11        11.4720   -4.5879   25.8254 C.ar      1 UNL1        0.0000
     12 C12        12.8460   -0.6389   22.1675 C.ar      1 UNL1        0.0000
     13 C13         4.2812   -5.1849   23.2221 C.2       1 UNL1        0.0000
     14 C14         8.6563   -1.6711   22.9147 C.2       1 UNL1        0.0000
     15 C15         7.1064   -2.9706   21.5932 C.2       1 UNL1        0.0000
     16 C16         3.7932   -6.5705   23.5748 C.3       1 UNL1        0.0000
     17 C17         4.5076   -6.8721   24.8868 C.3       1 UNL1        0.0000
     18 C18         4.6863   -5.5094   25.5256 C.3       1 UNL1        0.0000
     19 C19         7.0051   -1.7124   25.2466 C.3       1 UNL1        0.0000
     20 C20         4.4806   -2.5117   25.5858 C.3       1 UNL1        0.0000
     21 C21         9.6942   -1.6718   24.0545 C.3       1 UNL1        0.0000
     22 C22         7.7145   -3.7416   23.9177 C.3       1 UNL1        0.0000
     23 C23         6.7487   -3.1972   24.9619 C.3       1 UNL1        0.0000
     24 C24         5.2731   -3.2770   24.5271 C.3       1 UNL1        0.0000
     25 C25        12.7625   -4.8620   26.5215 C.3       1 UNL1        0.0000
     26 C26         7.2053   -1.8801   20.5526 C.3       1 UNL1        0.0000
     27 N1          7.8426   -2.8067   22.7790 N.am      1 UNL1        0.0000
     28 N2          4.7985   -4.6267   24.3886 N.am      1 UNL1        0.0000
     29 O1          4.1783   -4.6713   22.1182 O.2       1 UNL1        0.0000
     30 O2          8.5443   -0.6707   22.1965 O.2       1 UNL1        0.0000
     31 O3          6.3606   -3.9293   21.3677 O.2       1 UNL1        0.0000
     32 O4          5.0421    0.0456   25.2618 O.2       1 UNL1        0.0000
     33 O5          5.6852   -1.0805   27.4421 O.2       1 UNL1        0.0000
     34 O6         13.6268   -1.1064   21.1552 O.3       1 UNL1        0.0000
     35 S1          5.5041   -1.1078   26.0056 S.o2      1 UNL1        0.0000
     36 Cl1         6.2126   -2.3920   19.1930 Cl        1 UNL1        0.0000
@<TRIPOS>BOND
     1    1    2 ar
     2    1    5 ar
     3    2    8 ar
     4    3    4 ar
     5    3    9 ar
     6    4   11 ar
     7    5   12 ar
     8    6   10 ar
     9    6   11 ar
    10    7    8 ar
    11    7   12 ar
    12    8   21 1
    13    9   10 ar
    14    9   22 1
    15   10   21 1
    16   11   25 1
    17   12   34 1
    18   13   16 1
    19   13   28 am
    20   13   29 2
    21   14   21 1
    22   14   27 am
    23   14   30 2
    24   15   26 1
    25   15   27 am
    26   15   31 2
    27   16   17 1
    28   17   18 1
    29   18   28 1
    30   19   23 1
    31   19   35 1
    32   20   24 1
    33   20   35 1
    34   22   23 1
    35   22   27 1
    36   23   24 1
    37   24   28 1
    38   26   36 1
    39   32   35 2
    40   33   35 2
@<TRIPOS>MOLECULE
DAV-CRI-f47-2
   34    38     0     0     0
SMALL
NO_CHARGES

@<TRIPOS>ATOM
      1 C1         13.0168    0.3916   22.9020 C.ar      1 UNL1        0.0000
      2 C2         12.3505    0.5543   24.1165 C.ar      1 UNL1        0.0000
      3 C3         12.5619   -0.5484   21.9773 C.ar      1 UNL1        0.0000
      4 C4         11.2292   -0.2232   24.4064 C.ar      1 UNL1        0.0000
      5 C5         11.4407   -1.3259   22.2672 C.ar      1 UNL1        0.0000
      6 C6          8.9705   -5.4207   25.3834 C.ar      1 UNL1        0.0000
      7 C7         10.1370   -5.6207   26.1173 C.ar      1 UNL1        0.0000
      8 C8         10.9578   -3.4697   25.3868 C.ar      1 UNL1        0.0000
      9 C9         10.7743   -1.1632   23.4817 C.ar      1 UNL1        0.0000
     10 C10         8.7920   -4.2465   24.6350 C.ar      1 UNL1        0.0000
     11 C11         9.8042   -3.2680   24.6137 C.ar      1 UNL1        0.0000
     12 C12        11.1261   -4.6428   26.1245 C.ar      1 UNL1        0.0000
     13 C13         4.0704   -5.5124   23.2386 C.2       1 UNL1        0.0000
     14 C14         6.6408   -3.3634   21.6786 C.2       1 UNL1        0.0000
     15 C15         3.8075   -6.9384   23.6627 C.3       1 UNL1        0.0000
     16 C16         3.7334   -6.8457   25.1821 C.3       1 UNL1        0.0000
     17 C17         4.6493   -5.6868   25.5211 C.3       1 UNL1        0.0000
     18 C18         8.8110   -2.3763   22.4940 C.3       1 UNL1        0.0000
     19 C19         6.7289   -1.8486   24.9954 C.3       1 UNL1        0.0000
     20 C20         4.1893   -2.6065   25.3159 C.3       1 UNL1        0.0000
     21 C21         9.5496   -2.0130   23.7978 C.3       1 UNL1        0.0000
     22 C22         7.4805   -4.0061   23.9152 C.3       1 UNL1        0.0000
     23 C23         6.4769   -3.3549   24.8576 C.3       1 UNL1        0.0000
     24 C24         5.0192   -3.4789   24.3753 C.3       1 UNL1        0.0000
     25 C25         6.4425   -2.1900   20.7496 C.3       1 UNL1        0.0000
     26 N1          4.5441   -4.8354   24.3600 N.am      1 UNL1        0.0000
     27 N2          7.6162   -3.2139   22.6761 N.am      1 UNL1        0.0000
     28 O1          3.9260   -5.0868   22.1024 O.2       1 UNL1        0.0000
     29 O2          5.9525   -4.3764   21.5298 O.2       1 UNL1        0.0000
     30 O3          4.7751   -0.0974   24.7488 O.2       1 UNL1        0.0000
     31 O4          5.3265   -0.9896   27.0588 O.2       1 UNL1        0.0000
     32 F1         12.2468   -4.8284   26.8370 F         1 UNL1        0.0000
     33 S1          5.2020   -1.1669   25.6270 S.o2      1 UNL1        0.0000
     34 Cl1         5.9324   -0.8353   21.7509 Cl        1 UNL1        0.0000
@<TRIPOS>BOND
     1    1    2 ar
     2    1    3 ar
     3    2    4 ar
     4    3    5 ar
     5    4    9 ar
     6    5    9 ar
     7    6    7 ar
     8    6   10 ar
     9    7   12 ar
    10    8   11 ar
    11    8   12 ar
    12    9   21 1
    13   10   11 ar
    14   10   22 1
    15   11   21 1
    16   12   32 1
    17   13   15 1
    18   13   26 am
    19   13   28 2
    20   14   25 1
    21   14   27 am
    22   14   29 2
    23   15   16 1
    24   16   17 1
    25   17   26 1
    26   18   21 1
    27   18   27 1
    28   19   23 1
    29   19   33 1
    30   20   24 1
    31   20   33 1
    32   22   23 1
    33   22   27 1
    34   23   24 1
    35   24   26 1
    36   25   34 1
    37   30   33 2
    38   31   33 2
@<TRIPOS>MOLECULE
NIY-UNK-626-2
   33    36     0     0     0
SMALL
NO_CHARGES

@<TRIPOS>ATOM
      1 C1          5.1689   -2.7395   22.3918 C.1       1 UNL1        0.0000
      2 C2          6.3581   -2.6976   22.5529 C.1       1 UNL1        0.0000
      3 C3         12.5978    6.9368   25.8418 C.ar      1 UNL1        0.0000
      4 C4          8.4776   -3.7705   23.1584 C.ar      1 UNL1        0.0000
      5 C5         11.2424    7.2608   25.8859 C.ar      1 UNL1        0.0000
      6 C6         13.0782    6.0850   24.8506 C.ar      1 UNL1        0.0000
      7 C7          9.8545   -3.6922   23.3356 C.ar      1 UNL1        0.0000
      8 C8         12.5383   -0.1053   22.7279 C.2       1 UNL1        0.0000
      9 C9          8.4815   -1.4788   22.5225 C.ar      1 UNL1        0.0000
     10 C10        14.1774   -1.6158   23.3865 C.2       1 UNL1        0.0000
     11 C11         7.7706   -2.6472   22.7443 C.ar      1 UNL1        0.0000
     12 C12        10.3573    6.7406   24.9320 C.ar      1 UNL1        0.0000
     13 C13        10.8363    5.8661   23.9411 C.ar      1 UNL1        0.0000
     14 C14        12.2026    5.5512   23.9053 C.ar      1 UNL1        0.0000
     15 C15        12.8339   -1.4365   23.1409 C.2       1 UNL1        0.0000
     16 C16        13.6673    0.6823   22.6737 C.2       1 UNL1        0.0000
     17 C17        10.4721   -2.4771   23.0871 C.ar      1 UNL1        0.0000
     18 C18         7.4411    4.8470   22.5780 C.2       1 UNL1        0.0000
     19 C19         8.8916    7.0761   25.0038 C.3       1 UNL1        0.0000
     20 C20         9.9166    5.2626   22.9073 C.3       1 UNL1        0.0000
     21 C21         8.2273    6.9349   23.6400 C.3       1 UNL1        0.0000
     22 C22        12.7649    4.6396   22.8612 C.3       1 UNL1        0.0000
     23 C23        13.7797    2.1254   22.2893 C.3       1 UNL1        0.0000
     24 C24         7.6770    3.3586   22.4982 C.3       1 UNL1        0.0000
     25 N1          9.8188   -1.3644   22.6838 N.ar      1 UNL1        0.0000
     26 N2         14.3077    3.3313   24.6075 N.2       1 UNL1        0.0000
     27 N3          8.4988    5.6163   23.0690 N.am      1 UNL1        0.0000
     28 N4         11.9061   -2.4119   23.2769 N.pl3     1 UNL1        0.0000
     29 O1          6.3538    5.3076   22.2217 O.2       1 UNL1        0.0000
     30 O2         11.8582    2.4826   23.9988 O.2       1 UNL1        0.0000
     31 S1         15.0762   -0.1829   23.1194 S.3       1 UNL1        0.0000
     32 S2         13.1271    3.0967   23.6321 S.o       1 UNL1        0.0000
     33 Cl1         6.1162    2.5879   22.7565 Cl        1 UNL1        0.0000
@<TRIPOS>BOND
     1    1    2 3
     2    2   11 1
     3    3    5 ar
     4    3    6 ar
     5    4    7 ar
     6    4   11 ar
     7    5   12 ar
     8    6   14 ar
     9    7   17 ar
    10    8   15 1
    11    8   16 2
    12    9   11 ar
    13    9   25 ar
    14   10   15 2
    15   10   31 1
    16   12   13 ar
    17   12   19 1
    18   13   14 ar
    19   13   20 1
    20   14   22 1
    21   15   28 1
    22   16   23 1
    23   16   31 1
    24   17   25 ar
    25   17   28 1
    26   18   24 1
    27   18   27 am
    28   18   29 2
    29   19   21 1
    30   20   27 1
    31   21   27 1
    32   22   32 1
    33   23   32 1
    34   24   33 1
    35   26   32 2
    36   30   32 2
@<TRIPOS>MOLECULE
DAR-DIA-cab-12
   32    35     0     0     0
SMALL
NO_CHARGES

@<TRIPOS>ATOM
      1 C1          8.6728   -2.6271   22.4333 C.1       1 UNL1        0.0000
      2 C2         15.0366   -1.1390   23.1832 C.ar      1 UNL1        0.0000
      3 C3         14.0466   -1.5895   24.0500 C.ar      1 UNL1        0.0000
      4 C4         14.8876    0.0858   22.5360 C.ar      1 UNL1        0.0000
      5 C5         12.8990   -0.8237   24.2582 C.ar      1 UNL1        0.0000
      6 C6         10.0318   -0.7123   23.1405 C.ar      1 UNL1        0.0000
      7 C7          7.8309   -0.9538   24.0091 C.ar      1 UNL1        0.0000
      8 C8          8.8437   -1.4326   23.1937 C.ar      1 UNL1        0.0000
      9 C9         13.7438    0.8718   22.7467 C.ar      1 UNL1        0.0000
     10 C10        12.7157    0.3995   23.5892 C.ar      1 UNL1        0.0000
     11 C11        10.1689    0.4484   23.8936 C.ar      1 UNL1        0.0000
     12 C12         9.0967    0.8432   24.6774 C.ar      1 UNL1        0.0000
     13 C13        12.8735    4.3907   22.9030 C.2       1 UNL1        0.0000
     14 C14         8.8460    4.5025   25.0742 C.2       1 UNL1        0.0000
     15 C15        13.6368    2.1998   22.0384 C.3       1 UNL1        0.0000
     16 C16         8.3612    6.8771   24.5722 C.3       1 UNL1        0.0000
     17 C17         6.7090    5.1989   23.8420 C.3       1 UNL1        0.0000
     18 C18        11.3158    2.3862   22.8176 C.3       1 UNL1        0.0000
     19 C19         8.1478    7.5901   23.2463 C.3       1 UNL1        0.0000
     20 C20         6.5540    6.0053   22.5570 C.3       1 UNL1        0.0000
     21 C21        11.4675    1.2423   23.8396 C.3       1 UNL1        0.0000
     22 C22         9.1873    2.0824   25.5063 C.3       1 UNL1        0.0000
     23 C23        12.1149    4.9990   24.0555 C.3       1 UNL1        0.0000
     24 N1          8.5338   -3.5991   21.8147 N.1       1 UNL1        0.0000
     25 N2          7.9272    0.1696   24.7550 N.ar      1 UNL1        0.0000
     26 N3         12.6007    3.0550   22.6135 N.am      1 UNL1        0.0000
     27 N4          8.0136    5.4581   24.4675 N.am      1 UNL1        0.0000
     28 N5          8.4411    3.1803   24.9336 N.am      1 UNL1        0.0000
     29 O1         13.6848    5.0819   22.2817 O.2       1 UNL1        0.0000
     30 O2          9.8682    4.8059   25.6985 O.2       1 UNL1        0.0000
     31 O3          6.8070    7.3905   22.7948 O.3       1 UNL1        0.0000
     32 Cl1        13.1741    6.2076   24.7727 Cl        1 UNL1        0.0000
@<TRIPOS>BOND
     1    1    8 1
     2    1   24 3
     3    2    3 ar
     4    2    4 ar
     5    3    5 ar
     6    4    9 ar
     7    5   10 ar
     8    6    8 ar
     9    6   11 ar
    10    7    8 ar
    11    7   25 ar
    12    9   10 ar
    13    9   15 1
    14   10   21 1
    15   11   12 ar
    16   11   21 1
    17   12   22 1
    18   12   25 ar
    19   13   23 1
    20   13   26 am
    21   13   29 2
    22   14   27 am
    23   14   28 am
    24   14   30 2
    25   15   26 1
    26   16   19 1
    27   16   27 1
    28   17   20 1
    29   17   27 1
    30   18   21 1
    31   18   26 1
    32   19   31 1
    33   20   31 1
    34   22   28 1
    35   23   32 1
@<TRIPOS>MOLECULE
BEN-VAN-d2b-18
   26    28     0     0     0
SMALL
NO_CHARGES

@<TRIPOS>ATOM
      1 C1          7.4944   -2.9564   23.9250 C.2       1 UNL1        0.0000
      2 C2         12.7506   -1.4539   21.7169 C.ar      1 UNL1        0.0000
      3 C3          7.9949   -4.1808   23.5404 C.2       1 UNL1        0.0000
      4 C4          8.4524   -1.9134   23.7685 C.2       1 UNL1        0.0000
      5 C5         13.1219   -0.3182   22.4073 C.ar      1 UNL1        0.0000
      6 C6          9.6489   -2.3804   23.2702 C.2       1 UNL1        0.0000
      7 C7         12.2572    0.0834   23.4049 C.ar      1 UNL1        0.0000
      8 C8         10.8644   -1.6592   22.9687 C.ar      1 UNL1        0.0000
      9 C9          9.7863    4.5123   24.7078 C.2       1 UNL1        0.0000
     10 C10        10.6642    3.7410   24.0592 C.2       1 UNL1        0.0000
     11 C11        10.2398    2.9535   22.8703 C.2       1 UNL1        0.0000
     12 C12         8.6338    1.1812   22.2703 C.2       1 UNL1        0.0000
     13 C13         5.9076    0.3184   24.6084 C.3       1 UNL1        0.0000
     14 C14         7.1505   -0.2733   25.2584 C.3       1 UNL1        0.0000
     15 C15         6.4679    1.1700   23.4835 C.3       1 UNL1        0.0000
     16 C16         8.1686   -0.4643   24.1157 C.3       1 UNL1        0.0000
     17 C17         7.5949    0.3142   22.9106 C.3       1 UNL1        0.0000
     18 C18        14.8804    0.4200   20.7984 C.3       1 UNL1        0.0000
     19 N1         11.6245   -2.1518   21.9722 N.ar      1 UNL1        0.0000
     20 N2         11.1154   -0.5657   23.7135 N.ar      1 UNL1        0.0000
     21 N3         14.2985    0.3771   22.1114 N.pl3     1 UNL1        0.0000
     22 N4          9.2265    2.0510   23.1841 N.am      1 UNL1        0.0000
     23 O1         10.7456    3.1080   21.7635 O.2       1 UNL1        0.0000
     24 O2          8.9132    1.0858   21.0783 O.2       1 UNL1        0.0000
     25 F1         12.5497    1.1808   24.1214 F         1 UNL1        0.0000
     26 S1          9.6138   -4.0699   22.9932 S.3       1 UNL1        0.0000
@<TRIPOS>BOND
     1    1    3 2
     2    1    4 1
     3    2    5 ar
     4    2   19 ar
     5    3   26 1
     6    4    6 2
     7    4   16 1
     8    5    7 ar
     9    5   21 1
    10    6    8 1
    11    6   26 1
    12    7   20 ar
    13    7   25 1
    14    8   19 ar
    15    8   20 ar
    16    9   10 2
    17   10   11 1
    18   11   22 am
    19   11   23 2
    20   12   17 1
    21   12   22 am
    22   12   24 2
    23   13   14 1
    24   13   15 1
    25   14   16 1
    26   15   17 1
    27   16   17 1
    28   18   21 1
@<TRIPOS>MOLECULE
AVI-UNI-a66-2
   34    36     0     0     0
SMALL
NO_CHARGES

@<TRIPOS>ATOM
      1 C1          9.1113   -1.3028   18.2640 C.ar      1 UNL1        0.0000
      2 C2         10.0395   -2.0618   18.9738 C.ar      1 UNL1        0.0000
      3 C3         13.7531   -1.8559   21.5465 C.ar      1 UNL1        0.0000
      4 C4         14.6447   -0.9036   22.0351 C.ar      1 UNL1        0.0000
      5 C5         12.8356    0.1561   23.2224 C.ar      1 UNL1        0.0000
      6 C6          8.4483   -0.2277   20.3147 C.ar      1 UNL1        0.0000
      7 C7         11.9176   -0.7995   22.7467 C.ar      1 UNL1        0.0000
      8 C8          8.3083   -0.3908   18.9363 C.ar      1 UNL1        0.0000
      9 C9          9.4100   -0.9479   21.0450 C.ar      1 UNL1        0.0000
     10 C10        12.3942   -1.8030   21.8926 C.ar      1 UNL1        0.0000
     11 C11        10.1889   -1.8976   20.3610 C.ar      1 UNL1        0.0000
     12 C12        14.1849    0.1068   22.8701 C.ar      1 UNL1        0.0000
     13 C13        10.5093   -0.7155   23.1983 C.cat     1 UNL1        0.0000
     14 C14         7.3156    0.4047   18.1966 C.2       1 UNL1        0.0000
     15 C15         9.2266    0.1186   25.0786 C.2       1 UNL1        0.0000
     16 C16         9.2461    0.1423   26.5867 C.3       1 UNL1        0.0000
     17 N1          9.4395   -0.7326   22.3975 N.pl3     1 UNL1        0.0000
     18 N2         10.3190   -0.5530   24.5098 N.am      1 UNL1        0.0000
     19 O1          6.5842    1.2428   18.8460 O.co2     1 UNL1        0.0000
     20 O2          7.2102    0.2369   16.9239 O.co2     1 UNL1        0.0000
     21 O3          8.3137    0.6380   24.4380 O.2       1 UNL1        0.0000
     22 S1         11.2972   -3.0177   21.2024 S.3       1 UNL1        0.0000
     23 Cl1        15.2753    1.2984   23.4634 Cl        1 UNL1        0.0000
     24 Cl2         7.5702    0.2232   27.1523 Cl        1 UNL1        0.0000
     25 H           9.1113   -1.3028   18.2640 H         1 UNL1        0.0000
     26 H          10.0395   -2.0618   18.9738 H         1 UNL1        0.0000
     27 H          13.7531   -1.8559   21.5465 H         1 UNL1        0.0000
     28 H          14.6447   -0.9036   22.0351 H         1 UNL1        0.0000
     29 H          12.8356    0.1561   23.2224 H         1 UNL1        0.0000
     30 H           8.4483   -0.2277   20.3147 H         1 UNL1        0.0000
     31 H           9.2461    0.1423   26.5867 H         1 UNL1        0.0000
     32 H           9.2461    0.1423   26.5867 H         1 UNL1        0.0000
     33 H           9.4395   -0.7326   22.3975 H         1 UNL1        0.0000
     34 H          10.3190   -0.5530   24.5098 H         1 UNL1        0.0000
@<TRIPOS>BOND
     1    1    2 ar
     2    1    8 ar
     3    2   11 ar
     4    3    4 ar
     5    3   10 ar
     6    4   12 ar
     7    5    7 ar
     8    5   12 ar
     9    6    8 ar
    10    6    9 ar
    11    7   10 ar
    12    7   13 1
    13    8   14 1
    14    9   11 ar
    15    9   17 1
    16   10   22 1
    17   11   22 1
    18   12   23 1
    19   13   17 2
    20   13   18 1
    21   14   19 1
    22   14   20 2
    23   15   16 1
    24   15   18 am
    25   15   21 2
    26   16   24 1
    27    1   25 1
    28    2   26 1
    29    3   27 1
    30    4   28 1
    31    5   29 1
    32    6   30 1
    33   16   31 1
    34   16   32 1
    35   17   33 1
    36   18   34 1
@<TRIPOS>MOLECULE
WAR-XCH-b03-3
   21    23     0     0     0
SMALL
NO_CHARGES

@<TRIPOS>ATOM
      1 C1          3.7582   -6.5686   27.5700 C.ar      1 UNL1        0.0000
      2 C2          4.7546   -7.5329   27.6799 C.ar      1 UNL1        0.0000
      3 C3          4.0997   -5.2815   27.1634 C.ar      1 UNL1        0.0000
      4 C4          5.4489   -5.0752   26.8972 C.ar      1 UNL1        0.0000
      5 C5          6.3892   -6.0906   27.0298 C.ar      1 UNL1        0.0000
      6 C6          7.4834   -4.3806   26.3912 C.2       1 UNL1        0.0000
      7 C7          6.5778   -4.2733   20.8732 C.2       1 UNL1        0.0000
      8 C8          7.1841   -2.5679   24.0198 C.3       1 UNL1        0.0000
      9 C9          8.7797   -4.4897   23.6880 C.3       1 UNL1        0.0000
     10 C10         7.1141   -2.3962   22.5033 C.3       1 UNL1        0.0000
     11 C11         8.6790   -4.2776   22.1794 C.3       1 UNL1        0.0000
     12 C12         8.5250   -3.1811   24.4512 C.3       1 UNL1        0.0000
     13 C13         3.0620   -4.2220   27.0356 C.3       1 UNL1        0.0000
     14 C14         8.5545   -3.4168   25.9594 C.3       1 UNL1        0.0000
     15 C15         6.6286   -5.7787   20.8016 C.3       1 UNL1        0.0000
     16 N1          6.0715   -7.3488   27.4246 N.ar      1 UNL1        0.0000
     17 N2          7.6478   -5.6454   26.7124 N.2       1 UNL1        0.0000
     18 N3          6.1747   -3.9902   26.4868 N.pl3     1 UNL1        0.0000
     19 N4          7.3984   -3.6649   21.8223 N.am      1 UNL1        0.0000
     20 O1          5.8325   -3.6583   20.1063 O.2       1 UNL1        0.0000
     21 Cl1         6.1736   -6.3744   22.3941 Cl        1 UNL1        0.0000
@<TRIPOS>BOND
     1    1    2 ar
     2    1    3 ar
     3    2   16 ar
     4    3    4 ar
     5    3   13 1
     6    4    5 ar
     7    4   18 1
     8    5   16 ar
     9    5   17 1
    10    6   14 1
    11    6   17 2
    12    6   18 1
    13    7   15 1
    14    7   19 am
    15    7   20 2
    16    8   10 1
    17    8   12 1
    18    9   11 1
    19    9   12 1
    20   10   19 1
    21   11   19 1
    22   12   14 1
    23   15   21 1
@<TRIPOS>MOLECULE
PAU-WEI-b9b-1
   26    28     0     0     0
SMALL
NO_CHARGES

@<TRIPOS>ATOM
      1 C1         10.7189   -1.9923   24.0883 C.ar      1 UNL1        0.0000
      2 C2         11.3370   -1.0926   24.9566 C.ar      1 UNL1        0.0000
      3 C3         10.6538   -1.7116   22.7234 C.ar      1 UNL1        0.0000
      4 C4          8.4123    1.6465   26.2251 C.ar      1 UNL1        0.0000
      5 C5         11.8899    0.0879   24.4602 C.ar      1 UNL1        0.0000
      6 C6         11.2067   -0.5311   22.2270 C.ar      1 UNL1        0.0000
      7 C7          9.5048    2.3790   25.7610 C.ar      1 UNL1        0.0000
      8 C8          7.5520    1.0271   25.3185 C.ar      1 UNL1        0.0000
      9 C9          8.8767    1.8730   23.4836 C.ar      1 UNL1        0.0000
     10 C10        11.8248    0.3686   23.0954 C.ar      1 UNL1        0.0000
     11 C11         9.7370    2.4923   24.3903 C.ar      1 UNL1        0.0000
     12 C12         7.7842    1.1404   23.9478 C.ar      1 UNL1        0.0000
     13 C13         8.2635    8.0391   24.9144 C.2       1 UNL1        0.0000
     14 C14        10.4772    6.9345   24.9430 C.3       1 UNL1        0.0000
     15 C15         8.9771    6.4713   23.0434 C.3       1 UNL1        0.0000
     16 C16        10.7348    5.4464   25.1291 C.3       1 UNL1        0.0000
     17 C17         9.2138    4.9752   23.1999 C.3       1 UNL1        0.0000
     18 C18        12.4220    1.6445   22.5582 C.3       1 UNL1        0.0000
     19 C19         8.3232    8.1547   26.4166 C.3       1 UNL1        0.0000
     20 C20        11.4727    2.8545   22.5130 C.3       1 UNL1        0.0000
     21 C21        10.9210    3.2878   23.8878 C.3       1 UNL1        0.0000
     22 N1          9.1751    7.1686   24.3186 N.am      1 UNL1        0.0000
     23 N2         10.5857    4.7498   23.7950 N.4       1 UNL1        0.0000
     24 O1          7.4330    8.7051   24.2909 O.2       1 UNL1        0.0000
     25 Cl1         6.7217    0.3770   22.8297 Cl        1 UNL1        0.0000
     26 Cl2         7.9781    6.5528   27.0592 Cl        1 UNL1        0.0000
@<TRIPOS>BOND
     1    1    2 ar
     2    1    3 ar
     3    2    5 ar
     4    3    6 ar
     5    4    7 ar
     6    4    8 ar
     7    5   10 ar
     8    6   10 ar
     9    7   11 ar
    10    8   12 ar
    11    9   11 ar
    12    9   12 ar
    13   10   18 1
    14   11   21 1
    15   12   25 1
    16   13   19 1
    17   13   22 am
    18   13   24 2
    19   14   16 1
    20   14   22 1
    21   15   17 1
    22   15   22 1
    23   16   23 1
    24   17   23 1
    25   18   20 1
    26   19   26 1
    27   20   21 1
    28   21   23 1
@<TRIPOS>MOLECULE
DUN-NEW-f8c-21
   21    22     0     0     0
SMALL
NO_CHARGES

@<TRIPOS>ATOM
      1 C1          9.5261   -0.8166   26.0957 C.ar      1 UNL1        0.0000
      2 C2          9.6818   -0.7803   24.7053 C.ar      1 UNL1        0.0000
      3 C3          9.1532   -1.9939   26.7411 C.ar      1 UNL1        0.0000
      4 C4          9.1902   -3.6022   22.4346 C.2       1 UNL1        0.0000
      5 C5          9.4567   -1.9533   23.9576 C.ar      1 UNL1        0.0000
      6 C6          8.9245   -3.1696   26.0205 C.ar      1 UNL1        0.0000
      7 C7          9.5195   -2.2735   22.5725 C.2       1 UNL1        0.0000
      8 C8          9.0840   -3.1185   24.6311 C.ar      1 UNL1        0.0000
      9 C9         12.9145   -1.0388   23.3182 C.2       1 UNL1        0.0000
     10 C10         6.5214   -5.7924   27.2115 C.2       1 UNL1        0.0000
     11 C11        13.3046   -0.2495   24.5237 C.3       1 UNL1        0.0000
     12 C12         9.8727   -1.3528   21.4729 C.3       1 UNL1        0.0000
     13 C13         8.5265   -4.4131   26.7435 C.3       1 UNL1        0.0000
     14 C14         5.0462   -5.8960   26.9195 C.3       1 UNL1        0.0000
     15 C15        11.3792   -1.0559   21.3624 C.3       1 UNL1        0.0000
     16 N1          8.9289   -4.1032   23.6816 N.pl3     1 UNL1        0.0000
     17 N2          7.1261   -4.7122   26.5869 N.am      1 UNL1        0.0000
     18 N3         11.9046   -0.4639   22.5635 N.am      1 UNL1        0.0000
     19 O1         13.4843   -2.0969   23.0784 O.2       1 UNL1        0.0000
     20 O2          7.0948   -6.5933   27.9478 O.2       1 UNL1        0.0000
     21 Cl1         4.1802   -4.9698   28.1552 Cl        1 UNL1        0.0000
@<TRIPOS>BOND
     1    1    2 ar
     2    1    3 ar
     3    2    5 ar
     4    3    6 ar
     5    4    7 2
     6    4   16 1
     7    5    7 1
     8    5    8 ar
     9    6    8 ar
    10    6   13 1
    11    7   12 1
    12    8   16 1
    13    9   11 1
    14    9   18 am
    15    9   19 2
    16   10   14 1
    17   10   17 am
    18   10   20 2
    19   12   15 1
    20   13   17 1
    21   14   21 1
    22   15   18 1
@<TRIPOS>MOLECULE
TOB-UNK-c2a-6
   13    13     0     0     0
SMALL
NO_CHARGES

@<TRIPOS>ATOM
      1 C1         11.1355   -0.2915   24.5660 C.1       1 UNL1        0.0000
      2 C2         10.7157   -1.2805   24.0307 C.1       1 UNL1        0.0000
      3 C3          6.5558   -5.4028   22.4420 C.2       1 UNL1        0.0000
      4 C4          7.3996   -4.5651   21.8364 C.2       1 UNL1        0.0000
      5 C5          8.0338   -2.7310   24.7189 C.3       1 UNL1        0.0000
      6 C6          9.3842   -3.3508   24.3445 C.3       1 UNL1        0.0000
      7 C7          7.5863   -1.6252   23.7724 C.3       1 UNL1        0.0000
      8 C8          9.3929   -2.1590   22.1106 C.3       1 UNL1        0.0000
      9 C9         10.1999   -2.4965   23.3720 C.3       1 UNL1        0.0000
     10 N1          7.9336   -1.9609   22.3727 N.pl3     1 UNL1        0.0000
     11 O1          7.0222   -2.6902   20.1004 O.2       1 UNL1        0.0000
     12 O2          5.5329   -2.8035   22.1232 O.2       1 UNL1        0.0000
     13 S1          6.8430   -2.9569   21.5165 S.o2      1 UNL1        0.0000
@<TRIPOS>BOND
     1    1    2 3
     2    2    9 1
     3    3    4 2
     4    4   13 1
     5    5    6 1
     6    5    7 1
     7    6    9 1
     8    7   10 1
     9    8    9 1
    10    8   10 1
    11   10   13 1
    12   11   13 2
    13   12   13 2
@<TRIPOS>MOLECULE
MAK-UNK-af8-14
   32    33     0     0     0
SMALL
NO_CHARGES

@<TRIPOS>ATOM
      1 C1         11.8044    1.1241   22.5997 C.ar      1 UNL1        0.0000
      2 C2         11.9071    2.4857   22.3150 C.ar      1 UNL1        0.0000
      3 C3         11.8308    1.6167   24.9648 C.ar      1 UNL1        0.0000
      4 C4         11.7663    0.6896   23.9247 C.ar      1 UNL1        0.0000
      5 C5         11.9716    3.4128   23.3551 C.ar      1 UNL1        0.0000
      6 C6         11.9335    2.9783   24.6801 C.ar      1 UNL1        0.0000
      7 C7          7.0632   -3.7351   25.1437 C.2       1 UNL1        0.0000
      8 C8         13.3683    5.1963   22.2667 C.2       1 UNL1        0.0000
      9 C9          7.9313   -1.4508   24.7571 C.3       1 UNL1        0.0000
     10 C10         8.8911   -3.2932   23.4315 C.3       1 UNL1        0.0000
     11 C11         9.3247   -0.9495   25.1073 C.3       1 UNL1        0.0000
     12 C12        10.2999   -2.8182   23.7605 C.3       1 UNL1        0.0000
     13 C13        12.0016    3.9526   25.8101 C.3       1 UNL1        0.0000
     14 C14        14.6683    6.9207   21.2973 C.3       1 UNL1        0.0000
     15 C15        11.6563   -0.7751   24.2307 C.3       1 UNL1        0.0000
     16 C16         7.1440   -5.2004   24.7976 C.3       1 UNL1        0.0000
     17 C17        12.0824    4.8653   23.0257 C.3       1 UNL1        0.0000
     18 N1          7.9444   -2.8863   24.4754 N.am      1 UNL1        0.0000
     19 N2          7.5486    2.8075   25.2562 N.pl3     1 UNL1        0.0000
     20 N3         10.9106    5.3482   22.3245 N.pl3     1 UNL1        0.0000
     21 N4          8.8181    4.5006   23.7020 N.pl3     1 UNL1        0.0000
     22 N5         10.2776   -1.3242   23.9942 N.4       1 UNL1        0.0000
     23 O1          6.2430   -3.3585   25.9848 O.2       1 UNL1        0.0000
     24 O2         14.2087    4.3463   21.9906 O.2       1 UNL1        0.0000
     25 O3          8.1686    5.1381   26.1369 O.2       1 UNL1        0.0000
     26 O4          6.3622    4.9224   24.3869 O.2       1 UNL1        0.0000
     27 O5         10.1245    6.6314   24.4232 O.2       1 UNL1        0.0000
     28 O6          8.6933    6.6968   22.3511 O.2       1 UNL1        0.0000
     29 O7         13.4724    6.5243   21.9768 O.3       1 UNL1        0.0000
     30 S1          7.6262    4.4959   24.9553 S.o2      1 UNL1        0.0000
     31 S2          9.5873    5.9820   23.2424 S.o2      1 UNL1        0.0000
     32 Cl1         5.9586   -6.0223   25.8061 Cl        1 UNL1        0.0000
@<TRIPOS>BOND
     1    1    2 ar
     2    1    4 ar
     3    2    5 ar
     4    3    4 ar
     5    3    6 ar
     6    4   15 1
     7    5    6 ar
     8    5   17 1
     9    6   13 1
    10    7   16 1
    11    7   18 am
    12    7   23 2
    13    8   17 1
    14    8   24 2
    15    8   29 1
    16    9   11 1
    17    9   18 1
    18   10   12 1
    19   10   18 1
    20   11   22 1
    21   12   22 1
    22   14   29 1
    23   15   22 1
    24   16   32 1
    25   17   20 1
    26   19   30 1
    27   20   31 1
    28   21   30 1
    29   21   31 1
    30   25   30 2
    31   26   30 2
    32   27   31 2
    33   28   31 2
@<TRIPOS>MOLECULE
TAM-UNI-d1c-10
   27    29     0     0     0
SMALL
NO_CHARGES

@<TRIPOS>ATOM
      1 C1         11.4533   -2.1692   23.1609 C.1       1 UNL1        0.0000
      2 C2          7.7635   -3.5014   26.0889 C.ar      1 UNL1        0.0000
      3 C3          8.4654   -2.3598   26.4590 C.ar      1 UNL1        0.0000
      4 C4         12.7319   -0.1302   23.5272 C.ar      1 UNL1        0.0000
      5 C5          7.4347   -3.7095   24.7512 C.ar      1 UNL1        0.0000
      6 C6          8.8542   -1.4342   25.4899 C.ar      1 UNL1        0.0000
      7 C7         12.8006    1.2532   23.6918 C.ar      1 UNL1        0.0000
      8 C8         10.4008    1.4006   23.4553 C.ar      1 UNL1        0.0000
      9 C9         11.4976   -0.7482   23.3265 C.ar      1 UNL1        0.0000
     10 C10         7.8108   -2.7809   23.7671 C.ar      1 UNL1        0.0000
     11 C11         8.5625   -1.6449   24.1304 C.ar      1 UNL1        0.0000
     12 C12        10.3320    0.0172   23.2906 C.ar      1 UNL1        0.0000
     13 C13        11.6351    2.0186   23.6559 C.ar      1 UNL1        0.0000
     14 C14         6.8235   -1.5451   20.3719 C.2       1 UNL1        0.0000
     15 C15         7.3965   -3.0428   22.3386 C.3       1 UNL1        0.0000
     16 C16         8.9091   -1.2186   21.6564 C.3       1 UNL1        0.0000
     17 C17         8.9676   -0.6225   23.0740 C.3       1 UNL1        0.0000
     18 C18        12.5490    3.3022   26.4513 C.3       1 UNL1        0.0000
     19 C19         7.2612   -0.3458   19.5685 C.3       1 UNL1        0.0000
     20 N1         11.4174   -3.3214   23.0265 N.1       1 UNL1        0.0000
     21 N2          7.6418   -1.9100   21.4414 N.am      1 UNL1        0.0000
     22 N3         11.5648    3.9268   25.5558 N.pl3     1 UNL1        0.0000
     23 O1          5.7898   -2.1393   20.0555 O.2       1 UNL1        0.0000
     24 O2         13.0486    4.2042   23.4682 O.2       1 UNL1        0.0000
     25 O3         10.5490    4.3332   23.2243 O.2       1 UNL1        0.0000
     26 S1         11.7213    3.7502   23.8631 S.o2      1 UNL1        0.0000
     27 Cl1         6.0776   -0.1432   18.2821 Cl        1 UNL1        0.0000
@<TRIPOS>BOND
     1    1    9 1
     2    1   20 3
     3    2    3 ar
     4    2    5 ar
     5    3    6 ar
     6    4    7 ar
     7    4    9 ar
     8    5   10 ar
     9    6   11 ar
    10    7   13 ar
    11    8   12 ar
    12    8   13 ar
    13    9   12 ar
    14   10   11 ar
    15   10   15 1
    16   11   17 1
    17   12   17 1
    18   13   26 1
    19   14   19 1
    20   14   21 am
    21   14   23 2
    22   15   21 1
    23   16   17 1
    24   16   21 1
    25   18   22 1
    26   19   27 1
    27   22   26 1
    28   24   26 2
    29   25   26 2
@<TRIPOS>MOLECULE
MAK-UNK-e4a-26
   27    29     0     0     0
SMALL
NO_CHARGES

@<TRIPOS>ATOM
      1 C1          7.7721   -4.5654   29.1182 C.ar      1 UNL1        0.0000
      2 C2          6.6199   -4.9888   28.4559 C.ar      1 UNL1        0.0000
      3 C3          8.9755   -4.4532   28.4217 C.ar      1 UNL1        0.0000
      4 C4          7.8743   -5.1880   26.4007 C.ar      1 UNL1        0.0000
      5 C5          6.6710   -5.3002   27.0972 C.ar      1 UNL1        0.0000
      6 C6          9.0266   -4.7646   27.0630 C.ar      1 UNL1        0.0000
      7 C7          7.9282   -5.5154   24.9708 C.2       1 UNL1        0.0000
      8 C8         12.0437   -0.6475   22.8946 C.2       1 UNL1        0.0000
      9 C9          6.9988   -4.5710   21.6496 C.3       1 UNL1        0.0000
     10 C10         7.0216   -2.5230   23.1280 C.3       1 UNL1        0.0000
     11 C11         6.6281   -5.4136   22.8707 C.3       1 UNL1        0.0000
     12 C12         6.6470   -3.4118   24.3146 C.3       1 UNL1        0.0000
     13 C13        11.1928   -2.9678   23.0100 C.3       1 UNL1        0.0000
     14 C14        10.1762   -1.2870   24.4981 C.3       1 UNL1        0.0000
     15 C15        11.3631   -3.9287   24.1776 C.3       1 UNL1        0.0000
     16 C16        10.3295   -2.2240   25.6886 C.3       1 UNL1        0.0000
     17 C17         6.5393   -3.1177   21.8019 C.3       1 UNL1        0.0000
     18 C18         5.4200   -5.7508   26.4154 C.3       1 UNL1        0.0000
     19 C19        10.3354   -4.6342   26.3412 C.3       1 UNL1        0.0000
     20 C20        11.9696    0.7609   23.4278 C.3       1 UNL1        0.0000
     21 N1          7.1181   -4.7860   24.0978 N.am      1 UNL1        0.0000
     22 N2         11.1803   -1.5790   23.4695 N.am      1 UNL1        0.0000
     23 N3         10.2847   -3.6553   25.2021 N.4       1 UNL1        0.0000
     24 O1          8.7026   -6.4153   24.6488 O.2       1 UNL1        0.0000
     25 O2         12.8472   -0.9105   21.9960 O.2       1 UNL1        0.0000
     26 O3          5.1156   -3.0547   21.7621 O.3       1 UNL1        0.0000
     27 Cl1        10.7991    1.6164   22.4299 Cl        1 UNL1        0.0000
@<TRIPOS>BOND
     1    1    2 ar
     2    1    3 ar
     3    2    5 ar
     4    3    6 ar
     5    4    5 ar
     6    4    6 ar
     7    4    7 1
     8    5   18 1
     9    6   19 1
    10    7   21 am
    11    7   24 2
    12    8   20 1
    13    8   22 am
    14    8   25 2
    15    9   11 1
    16    9   17 1
    17   10   12 1
    18   10   17 1
    19   11   21 1
    20   12   21 1
    21   13   15 1
    22   13   22 1
    23   14   16 1
    24   14   22 1
    25   15   23 1
    26   16   23 1
    27   17   26 1
    28   19   23 1
    29   20   27 1
@<TRIPOS>MOLECULE
STE-NAN-baf-3
   42    46     0     0     0
SMALL
NO_CHARGES

@<TRIPOS>ATOM
      1 C1         13.0473    1.6892   25.0677 C.ar      1 UNL1        0.0000
      2 C2         12.7427    3.0435   25.0819 C.ar      1 UNL1        0.0000
      3 C3         10.8213    2.5920   23.6893 C.ar      1 UNL1        0.0000
      4 C4         12.2455    0.7770   24.3548 C.ar      1 UNL1        0.0000
      5 C5         11.0928    1.2072   23.6512 C.ar      1 UNL1        0.0000
      6 C6         11.6296    3.4947   24.3908 C.ar      1 UNL1        0.0000
      7 C7          8.4617   -5.1993   23.9982 C.2       1 UNL1        0.0000
      8 C8          7.5996   -4.1855   24.1180 C.2       1 UNL1        0.0000
      9 C9          7.1659   -4.0214   25.4745 C.2       1 UNL1        0.0000
     10 C10         7.7643   -4.9520   26.2371 C.2       1 UNL1        0.0000
     11 C11         6.2963   -2.4834   27.1345 C.2       1 UNL1        0.0000
     12 C12        12.6274   -0.6778   24.4223 C.3       1 UNL1        0.0000
     13 C13         8.6601   -5.8052   25.3624 C.3       1 UNL1        0.0000
     14 C14        11.9943   -1.4614   23.2899 C.3       1 UNL1        0.0000
     15 C15         8.3764   -0.2030   21.4028 C.3       1 UNL1        0.0000
     16 C16         9.8790   -2.0328   22.1155 C.3       1 UNL1        0.0000
     17 C17         8.9707    0.7315   22.4537 C.3       1 UNL1        0.0000
     18 C18         6.1465   -5.6165   29.6358 C.3       1 UNL1        0.0000
     19 C19         5.6033   -6.5833   27.3738 C.3       1 UNL1        0.0000
     20 C20         4.6982   -5.5882   30.0942 C.3       1 UNL1        0.0000
     21 C21         4.1076   -6.6400   27.6346 C.3       1 UNL1        0.0000
     22 C22         8.4300   -1.6748   21.7961 C.3       1 UNL1        0.0000
     23 C23        10.4990   -1.1449   23.2035 C.3       1 UNL1        0.0000
     24 C24         4.5145   -3.2607   22.9517 C.3       1 UNL1        0.0000
     25 C25         5.2284   -1.4321   27.3062 C.3       1 UNL1        0.0000
     26 C26         7.4765   -2.0059   22.9447 C.3       1 UNL1        0.0000
     27 C27         7.6538   -5.2082   27.6963 C.3       1 UNL1        0.0000
     28 N1         10.2893    0.2934   22.9362 N.pl3     1 UNL1        0.0000
     29 N2         12.4935    5.8192   25.3681 N.pl3     1 UNL1        0.0000
     30 N3          6.2916   -3.0642   25.8699 N.am      1 UNL1        0.0000
     31 N4          7.2121   -3.4044   22.9611 N.pl3     1 UNL1        0.0000
     32 N5          6.2323   -5.4401   28.1370 N.4       1 UNL1        0.0000
     33 O1          7.0807   -2.7588   28.0413 O.2       1 UNL1        0.0000
     34 O2         11.3842    5.7080   23.0437 O.2       1 UNL1        0.0000
     35 O3          9.9703    5.3723   25.1019 O.2       1 UNL1        0.0000
     36 O4          5.8195   -3.6482   20.7226 O.2       1 UNL1        0.0000
     37 O5          5.7722   -5.4881   22.4330 O.2       1 UNL1        0.0000
     38 O6          8.5518   -6.2569   28.0575 O.3       1 UNL1        0.0000
     39 S1          3.7416   -6.9553   29.3831 S.3       1 UNL1        0.0000
     40 S2         11.2326    5.1961   24.3982 S.o2      1 UNL1        0.0000
     41 S3          5.8544   -4.0759   22.1089 S.o2      1 UNL1        0.0000
     42 Cl1         5.5379   -0.1438   26.1316 Cl        1 UNL1        0.0000
@<TRIPOS>BOND
     1    1    2 ar
     2    1    4 ar
     3    2    6 ar
     4    3    5 ar
     5    3    6 ar
     6    4    5 ar
     7    4   12 1
     8    5   28 1
     9    6   40 1
    10    7    8 2
    11    7   13 1
    12    8    9 1
    13    8   31 1
    14    9   10 2
    15    9   30 1
    16   10   13 1
    17   10   27 1
    18   11   25 1
    19   11   30 am
    20   11   33 2
    21   12   14 1
    22   14   23 1
    23   15   17 1
    24   15   22 1
    25   16   22 1
    26   16   23 1
    27   17   28 1
    28   18   20 1
    29   18   32 1
    30   19   21 1
    31   19   32 1
    32   20   39 1
    33   21   39 1
    34   22   26 1
    35   23   28 1
    36   24   41 1
    37   25   42 1
    38   26   31 1
    39   27   32 1
    40   27   38 1
    41   29   40 1
    42   31   41 1
    43   34   40 2
    44   35   40 2
    45   36   41 2
    46   37   41 2
@<TRIPOS>MOLECULE
TAM-UNI-d1c-12
   27    29     0     0     0
SMALL
NO_CHARGES

@<TRIPOS>ATOM
      1 C1          8.7570   -4.0032   24.5287 C.ar      1 UNL1        0.0000
      2 C2          7.5426   -3.7595   23.8873 C.ar      1 UNL1        0.0000
      3 C3          9.8806   -3.2416   24.2075 C.ar      1 UNL1        0.0000
      4 C4          8.5753   -1.9926   22.6034 C.ar      1 UNL1        0.0000
      5 C5          7.4518   -2.7542   22.9246 C.ar      1 UNL1        0.0000
      6 C6          9.7898   -2.2363   23.2448 C.ar      1 UNL1        0.0000
      7 C7         12.2734    3.7516   24.4307 C.2       1 UNL1        0.0000
      8 C8          5.9368   -2.1167   19.7966 C.2       1 UNL1        0.0000
      9 C9         11.4374    2.3643   22.5605 C.3       1 UNL1        0.0000
     10 C10        10.6191    1.8617   24.8300 C.3       1 UNL1        0.0000
     11 C11         5.7997   -1.5965   17.3808 C.3       1 UNL1        0.0000
     12 C12         6.8602    0.0780   18.8473 C.3       1 UNL1        0.0000
     13 C13        11.7497    0.8937   22.3251 C.3       1 UNL1        0.0000
     14 C14        10.9175    0.3822   24.6280 C.3       1 UNL1        0.0000
     15 C15         5.1218   -0.4502   16.6469 C.3       1 UNL1        0.0000
     16 C16         6.1504    1.1504   18.0277 C.3       1 UNL1        0.0000
     17 C17         6.1525   -2.4933   22.2403 C.3       1 UNL1        0.0000
     18 C18        10.9985   -1.4175   22.8989 C.3       1 UNL1        0.0000
     19 C19        12.2702    4.0189   25.9147 C.3       1 UNL1        0.0000
     20 N1         11.4861    2.6905   23.9858 N.am      1 UNL1        0.0000
     21 N2          6.1554   -1.2080   18.7475 N.am      1 UNL1        0.0000
     22 N3          6.3080   -1.6725   21.0603 N.am      1 UNL1        0.0000
     23 N4         10.8085    0.0508   23.1564 N.4       1 UNL1        0.0000
     24 O1         12.9576    4.4637   23.6913 O.2       1 UNL1        0.0000
     25 O2          5.4538   -3.2398   19.6188 O.2       1 UNL1        0.0000
     26 O3          5.9522    0.7119   16.6832 O.3       1 UNL1        0.0000
     27 Cl1        13.5518    3.0311   26.6073 Cl        1 UNL1        0.0000
@<TRIPOS>BOND
     1    1    2 ar
     2    1    3 ar
     3    2    5 ar
     4    3    6 ar
     5    4    5 ar
     6    4    6 ar
     7    5   17 1
     8    6   18 1
     9    7   19 1
    10    7   20 am
    11    7   24 2
    12    8   21 am
    13    8   22 am
    14    8   25 2
    15    9   13 1
    16    9   20 1
    17   10   14 1
    18   10   20 1
    19   11   15 1
    20   11   21 1
    21   12   16 1
    22   12   21 1
    23   13   23 1
    24   14   23 1
    25   15   26 1
    26   16   26 1
    27   17   22 1
    28   18   23 1
    29   19   27 1
@<TRIPOS>MOLECULE
SIM-SYN-f15-2
   24    26     0     0     0
SMALL
NO_CHARGES

@<TRIPOS>ATOM
      1 C1         10.3669   -5.3279   25.4664 C.ar      1 UNL1        0.0000
      2 C2          9.2037   -5.8585   26.0242 C.ar      1 UNL1        0.0000
      3 C3         10.3021   -4.1750   24.6838 C.ar      1 UNL1        0.0000
      4 C4          9.7605    0.1622   24.0427 C.2       1 UNL1        0.0000
      5 C5          9.7516    1.1219   25.0958 C.2       1 UNL1        0.0000
      6 C6          7.9109   -4.0836   25.0166 C.ar      1 UNL1        0.0000
      7 C7          7.9757   -5.2364   25.7993 C.ar      1 UNL1        0.0000
      8 C8          9.0740   -3.5529   24.4589 C.ar      1 UNL1        0.0000
      9 C9          9.1882   -1.0310   24.4252 C.2       1 UNL1        0.0000
     10 C10         9.1726    0.6256   26.2432 C.2       1 UNL1        0.0000
     11 C11         6.0457   -2.0822   18.9261 C.2       1 UNL1        0.0000
     12 C12         6.4069   -3.3637   21.0114 C.3       1 UNL1        0.0000
     13 C13         6.4269   -0.9032   21.1470 C.3       1 UNL1        0.0000
     14 C14         7.7029   -3.4386   21.8052 C.3       1 UNL1        0.0000
     15 C15         7.7232   -0.9411   21.9450 C.3       1 UNL1        0.0000
     16 C16         6.7327   -5.8036   26.3972 C.3       1 UNL1        0.0000
     17 C17         6.6131   -0.9262   18.1416 C.3       1 UNL1        0.0000
     18 C18         9.0034   -2.2972   23.6055 C.3       1 UNL1        0.0000
     19 N1          6.3008   -2.0917   20.2966 N.am      1 UNL1        0.0000
     20 N2          7.7903   -2.2377   22.7205 N.4       1 UNL1        0.0000
     21 O1          5.3980   -2.9509   18.3363 O.2       1 UNL1        0.0000
     22 S1          8.6433   -0.9912   26.0482 S.3       1 UNL1        0.0000
     23 Cl1         8.9526    1.4289   27.7410 Cl        1 UNL1        0.0000
     24 Cl2         5.3736    0.3232   18.1182 Cl        1 UNL1        0.0000
@<TRIPOS>BOND
     1    1    2 ar
     2    1    3 ar
     3    2    7 ar
     4    3    8 ar
     5    4    5 1
     6    4    9 2
     7    5   10 2
     8    6    7 ar
     9    6    8 ar
    10    7   16 1
    11    8   18 1
    12    9   18 1
    13    9   22 1
    14   10   22 1
    15   10   23 1
    16   11   17 1
    17   11   19 am
    18   11   21 2
    19   12   14 1
    20   12   19 1
    21   13   15 1
    22   13   19 1
    23   14   20 1
    24   15   20 1
    25   17   24 1
    26   18   20 1
@<TRIPOS>MOLECULE
TOB-UNK-c2a-3
   14    14     0     0     0
SMALL
NO_CHARGES

@<TRIPOS>ATOM
      1 C1          6.2241   -0.8764   18.2755 C.1       1 UNL1        0.0000
      2 C2          6.2366   -1.6593   19.1855 C.1       1 UNL1        0.0000
      3 C3         11.0995    0.4191   24.6351 C.2       1 UNL1        0.0000
      4 C4         11.0708   -0.9103   24.7463 C.2       1 UNL1        0.0000
      5 C5          7.5764   -2.2084   23.8494 C.3       1 UNL1        0.0000
      6 C6          8.2452   -0.2388   22.5184 C.3       1 UNL1        0.0000
      7 C7          7.1754   -2.9489   22.5839 C.3       1 UNL1        0.0000
      8 C8          7.8533   -0.9519   21.2344 C.3       1 UNL1        0.0000
      9 C9          6.2501   -2.6160   20.2892 C.3       1 UNL1        0.0000
     10 N1          8.6515   -1.2207   23.5604 N.pl3     1 UNL1        0.0000
     11 N2          6.7527   -1.9440   21.5360 N.4       1 UNL1        0.0000
     12 O1         10.8210   -1.4151   22.2255 O.2       1 UNL1        0.0000
     13 O2         10.2338   -3.2008   23.8955 O.2       1 UNL1        0.0000
     14 S1         10.2555   -1.8022   23.5058 S.o2      1 UNL1        0.0000
@<TRIPOS>BOND
     1    1    2 3
     2    2    9 1
     3    3    4 2
     4    4   14 1
     5    5    7 1
     6    5   10 1
     7    6    8 1
     8    6   10 1
     9    7   11 1
    10    8   11 1
    11    9   11 1
    12   10   14 1
    13   12   14 2
    14   13   14 2
@<TRIPOS>MOLECULE
STE-LAU-a2c-2
   30    31     0     0     0
SMALL
NO_CHARGES

@<TRIPOS>ATOM
      1 C1          4.6595   -4.7520   26.7011 C.ar      1 UNL1        0.0000
      2 C2          8.4930   -0.7995   23.9566 C.ar      1 UNL1        0.0000
      3 C3          9.6572   -2.8515   22.4678 C.ar      1 UNL1        0.0000
      4 C4          3.9681   -3.7013   26.1333 C.ar      1 UNL1        0.0000
      5 C5          7.7699   -1.9611   23.6853 C.ar      1 UNL1        0.0000
      6 C6          8.3520   -2.9871   22.9409 C.ar      1 UNL1        0.0000
      7 C7          9.7981   -0.6639   23.4834 C.ar      1 UNL1        0.0000
      8 C8         10.3802   -1.6899   22.7390 C.ar      1 UNL1        0.0000
      9 C9          5.9938   -4.8419   26.3609 C.ar      1 UNL1        0.0000
     10 C10         5.8339   -2.9969   25.0427 C.ar      1 UNL1        0.0000
     11 C11         7.2575   -7.4668   21.1917 C.2       1 UNL1        0.0000
     12 C12         7.0299   -6.3244   21.8474 C.2       1 UNL1        0.0000
     13 C13         6.8194   -5.9087   26.8994 C.2       1 UNL1        0.0000
     14 C14         8.0846   -5.2726   21.9281 C.2       1 UNL1        0.0000
     15 C15        11.3481    3.3424   23.3061 C.3       1 UNL1        0.0000
     16 C16        11.9325   -2.0397   19.8822 C.3       1 UNL1        0.0000
     17 C17        13.3289   -0.9144   23.9210 C.3       1 UNL1        0.0000
     18 C18        10.9515    2.7521   24.6519 C.3       1 UNL1        0.0000
     19 C19        11.9482   -0.9944   20.9452 C.3       1 UNL1        0.0000
     20 C20        12.8206   -2.0152   23.0536 C.3       1 UNL1        0.0000
     21 C21         9.9637    1.5991   24.5213 C.3       1 UNL1        0.0000
     22 N1          4.5259   -2.8018   25.2967 N.ar      1 UNL1        0.0000
     23 N2          6.6158   -3.9785   25.5313 N.ar      1 UNL1        0.0000
     24 N3          8.1589   -5.9478   26.5200 N.am      1 UNL1        0.0000
     25 N4          6.4492   -2.0774   24.1740 N.pl3     1 UNL1        0.0000
     26 N5          7.6466   -4.1598   22.6562 N.am      1 UNL1        0.0000
     27 N6         10.4998    0.5024   23.7636 N.pl3     1 UNL1        0.0000
     28 N7         11.7005   -1.5721   22.2497 N.pl3     1 UNL1        0.0000
     29 O1          6.3493   -6.7729   27.6616 O.2       1 UNL1        0.0000
     30 O2          9.1787   -5.4280   21.3987 O.2       1 UNL1        0.0000
@<TRIPOS>BOND
     1    1    4 ar
     2    1    9 ar
     3    2    5 ar
     4    2    7 ar
     5    3    6 ar
     6    3    8 ar
     7    4   22 ar
     8    5    6 ar
     9    5   25 1
    10    6   26 1
    11    7    8 ar
    12    7   27 1
    13    8   28 1
    14    9   13 1
    15    9   23 ar
    16   10   22 ar
    17   10   23 ar
    18   10   25 1
    19   11   12 2
    20   12   14 1
    21   13   24 am
    22   13   29 2
    23   14   26 am
    24   14   30 2
    25   15   18 1
    26   16   19 1
    27   17   20 1
    28   18   21 1
    29   19   28 1
    30   20   28 1
    31   21   27 1
@<TRIPOS>MOLECULE
DAR-DIA-fb2-16
   29    31     0     0     0
SMALL
NO_CHARGES

@<TRIPOS>ATOM
      1 C1         13.4933   -1.3179   20.7872 C.1       1 UNL1        0.0000
      2 C2         13.0468    0.2498   22.6098 C.ar      1 UNL1        0.0000
      3 C3         12.4134    0.5631   23.8123 C.ar      1 UNL1        0.0000
      4 C4         12.0085   -1.9317   22.6312 C.ar      1 UNL1        0.0000
      5 C5         12.8444   -0.9976   22.0192 C.ar      1 UNL1        0.0000
      6 C6         11.5775   -0.3709   24.4244 C.ar      1 UNL1        0.0000
      7 C7         11.3751   -1.6183   23.8338 C.ar      1 UNL1        0.0000
      8 C8          5.9232   -4.8719   23.9615 C.2       1 UNL1        0.0000
      9 C9          8.5771    0.1031   26.5505 C.2       1 UNL1        0.0000
     10 C10         7.8902   -4.2493   25.3249 C.3       1 UNL1        0.0000
     11 C11         7.8510   -3.5536   22.9567 C.3       1 UNL1        0.0000
     12 C12         6.2039    0.2632   27.2348 C.3       1 UNL1        0.0000
     13 C13         6.7539    0.8161   24.8957 C.3       1 UNL1        0.0000
     14 C14         8.3088   -2.8492   25.7491 C.3       1 UNL1        0.0000
     15 C15         8.2721   -2.1436   23.3486 C.3       1 UNL1        0.0000
     16 C16         5.2463    1.4443   27.2357 C.3       1 UNL1        0.0000
     17 C17         5.7500    1.9595   24.9980 C.3       1 UNL1        0.0000
     18 C18        10.9100   -0.0124   25.7113 C.3       1 UNL1        0.0000
     19 C19        10.4799   -2.6384   24.4733 C.3       1 UNL1        0.0000
     20 C20         5.5515   -5.4124   22.6037 C.3       1 UNL1        0.0000
     21 N1         14.0204   -1.5781   19.7866 N.1       1 UNL1        0.0000
     22 N2          7.1539   -4.2229   24.0606 N.am      1 UNL1        0.0000
     23 N3          7.2514    0.4370   26.2258 N.am      1 UNL1        0.0000
     24 N4          9.5075    0.2912   25.5351 N.am      1 UNL1        0.0000
     25 N5          9.0630   -2.1601   24.6358 N.4       1 UNL1        0.0000
     26 O1          5.1409   -5.0206   24.9038 O.2       1 UNL1        0.0000
     27 O2          8.9043   -0.3347   27.6585 O.2       1 UNL1        0.0000
     28 O3          4.7119    1.6407   25.9253 O.3       1 UNL1        0.0000
     29 Cl1         4.6537   -4.1400   21.7835 Cl        1 UNL1        0.0000
@<TRIPOS>BOND
     1    1    5 1
     2    1   21 3
     3    2    3 ar
     4    2    5 ar
     5    3    6 ar
     6    4    5 ar
     7    4    7 ar
     8    6    7 ar
     9    6   18 1
    10    7   19 1
    11    8   20 1
    12    8   22 am
    13    8   26 2
    14    9   23 am
    15    9   24 am
    16    9   27 2
    17   10   14 1
    18   10   22 1
    19   11   15 1
    20   11   22 1
    21   12   16 1
    22   12   23 1
    23   13   17 1
    24   13   23 1
    25   14   25 1
    26   15   25 1
    27   16   28 1
    28   17   28 1
    29   18   24 1
    30   19   25 1
    31   20   29 1
@<TRIPOS>MOLECULE
TAM-UNI-d1c-16
   23    24     0     0     0
SMALL
NO_CHARGES

@<TRIPOS>ATOM
      1 C1         14.2094   -0.5565   22.2522 C.1       1 UNL1        0.0000
      2 C2         11.9913   -1.3436   22.9161 C.ar      1 UNL1        0.0000
      3 C3         12.5974    0.9658   23.2850 C.ar      1 UNL1        0.0000
      4 C4         10.4092    0.1729   23.9331 C.ar      1 UNL1        0.0000
      5 C5         12.9227   -0.3095   22.8230 C.ar      1 UNL1        0.0000
      6 C6         10.7345   -1.1024   23.4711 C.ar      1 UNL1        0.0000
      7 C7         11.3407    1.2070   23.8401 C.ar      1 UNL1        0.0000
      8 C8          6.0031   -2.4774   19.4850 C.2       1 UNL1        0.0000
      9 C9          9.8142    2.9119   24.8830 C.2       1 UNL1        0.0000
     10 C10         6.3461   -2.8259   21.9103 C.3       1 UNL1        0.0000
     11 C11         7.3991   -0.8591   20.8635 C.3       1 UNL1        0.0000
     12 C12         7.6584   -3.1942   22.5869 C.3       1 UNL1        0.0000
     13 C13         8.7278   -1.1969   21.5263 C.3       1 UNL1        0.0000
     14 C14         9.8607    4.3747   25.2469 C.3       1 UNL1        0.0000
     15 C15         9.7332   -2.2151   23.5727 C.3       1 UNL1        0.0000
     16 C16         6.2998   -1.6388   18.2675 C.3       1 UNL1        0.0000
     17 N1         15.2542   -0.7570   21.7885 N.1       1 UNL1        0.0000
     18 N2          6.5825   -2.0642   20.6839 N.am      1 UNL1        0.0000
     19 N3         11.0145    2.4829   24.3010 N.am      1 UNL1        0.0000
     20 N4          8.4632   -1.9350   22.8195 N.4       1 UNL1        0.0000
     21 O1          5.2803   -3.4707   19.3714 O.2       1 UNL1        0.0000
     22 O2          8.8111    2.2412   25.1041 O.2       1 UNL1        0.0000
     23 Cl1         5.6695   -0.0292   18.5987 Cl        1 UNL1        0.0000
@<TRIPOS>BOND
     1    1    5 1
     2    1   17 3
     3    2    5 ar
     4    2    6 ar
     5    3    5 ar
     6    3    7 ar
     7    4    6 ar
     8    4    7 ar
     9    6   15 1
    10    7   19 1
    11    8   16 1
    12    8   18 am
    13    8   21 2
    14    9   14 1
    15    9   19 am
    16    9   22 2
    17   10   12 1
    18   10   18 1
    19   11   13 1
    20   11   18 1
    21   12   20 1
    22   13   20 1
    23   15   20 1
    24   16   23 1
@<TRIPOS>MOLECULE
WAR-XCH-72a-10
   27    29     0     0     0
SMALL
NO_CHARGES

@<TRIPOS>ATOM
      1 C1          6.6842   -4.2741   22.0180 C.1       1 UNL1        0.0000
      2 C2          8.9532   -4.8725   24.8995 C.ar      1 UNL1        0.0000
      3 C3          9.2179   -3.5690   25.3193 C.ar      1 UNL1        0.0000
      4 C4          8.1148   -5.0969   23.8075 C.ar      1 UNL1        0.0000
      5 C5          8.6440   -2.4898   24.6472 C.ar      1 UNL1        0.0000
      6 C6          7.5410   -4.0177   23.1354 C.ar      1 UNL1        0.0000
      7 C7          7.8056   -2.7141   23.5552 C.ar      1 UNL1        0.0000
      8 C8         14.4287   -0.2130   24.9949 C.2       1 UNL1        0.0000
      9 C9         13.1632   -0.6182   24.8696 C.2       1 UNL1        0.0000
     10 C10        12.1238    0.3791   24.5452 C.2       1 UNL1        0.0000
     11 C11         7.7546    0.1096   19.4831 C.3       1 UNL1        0.0000
     12 C12         5.8674   -1.4546   20.1198 C.3       1 UNL1        0.0000
     13 C13         6.8430    0.7935   18.4618 C.3       1 UNL1        0.0000
     14 C14         4.9549   -0.7688   19.1012 C.3       1 UNL1        0.0000
     15 C15        10.2188   -1.5756   22.1100 C.3       1 UNL1        0.0000
     16 C16         9.0345    0.5571   22.7306 C.3       1 UNL1        0.0000
     17 C17        11.5585   -0.8993   22.4062 C.3       1 UNL1        0.0000
     18 C18        10.3916    1.2026   22.9969 C.3       1 UNL1        0.0000
     19 C19         6.9406   -0.4936   20.6253 C.3       1 UNL1        0.0000
     20 C20         9.1696   -0.5500   21.6879 C.3       1 UNL1        0.0000
     21 C21         5.7452   -0.1408   17.9511 C.3       1 UNL1        0.0000
     22 C22         7.2064   -1.5290   22.8571 C.3       1 UNL1        0.0000
     23 N1          5.9895   -4.4820   21.1119 N.1       1 UNL1        0.0000
     24 N2         11.3969    0.2016   23.3700 N.am      1 UNL1        0.0000
     25 N3          7.8590   -1.2323   21.5322 N.4       1 UNL1        0.0000
     26 O1         11.9655    1.3127   25.3338 O.2       1 UNL1        0.0000
     27 O2          6.3479   -1.1660   17.1639 O.3       1 UNL1        0.0000
@<TRIPOS>BOND
     1    1    6 1
     2    1   23 3
     3    2    3 ar
     4    2    4 ar
     5    3    5 ar
     6    4    6 ar
     7    5    7 ar
     8    6    7 ar
     9    7   22 1
    10    8    9 2
    11    9   10 1
    12   10   24 am
    13   10   26 2
    14   11   13 1
    15   11   19 1
    16   12   14 1
    17   12   19 1
    18   13   21 1
    19   14   21 1
    20   15   17 1
    21   15   20 1
    22   16   18 1
    23   16   20 1
    24   17   24 1
    25   18   24 1
    26   19   25 1
    27   20   25 1
    28   21   27 1
    29   22   25 1
@<TRIPOS>MOLECULE
DAV-CRI-d1e-6
   22    23     0     0     0
SMALL
NO_CHARGES

@<TRIPOS>ATOM
      1 C1         13.0842   -0.9971   21.7786 C.1       1 UNL1        0.0000
      2 C2         12.7560    0.9586   23.2329 C.2       1 UNL1        0.0000
      3 C3         12.3936   -0.3050   22.8212 C.2       1 UNL1        0.0000
      4 C4         11.2776   -0.8064   23.5515 C.2       1 UNL1        0.0000
      5 C5         10.8297    0.0932   24.4938 C.2       1 UNL1        0.0000
      6 C6          6.2115   -2.2383   20.0231 C.2       1 UNL1        0.0000
      7 C7          9.3810    0.9798   26.3484 C.2       1 UNL1        0.0000
      8 C8          7.2365   -3.2597   22.0298 C.3       1 UNL1        0.0000
      9 C9          7.4443   -0.8215   21.7380 C.3       1 UNL1        0.0000
     10 C10         8.7266   -3.3731   22.3169 C.3       1 UNL1        0.0000
     11 C11         8.9382   -0.8979   22.0229 C.3       1 UNL1        0.0000
     12 C12         8.1985    0.5122   27.1594 C.3       1 UNL1        0.0000
     13 C13        10.6576   -2.1540   23.3271 C.3       1 UNL1        0.0000
     14 C14         5.9624   -0.9856   19.2215 C.3       1 UNL1        0.0000
     15 N1         13.6449   -1.5589   20.9320 N.1       1 UNL1        0.0000
     16 N2          6.9489   -2.0918   21.1971 N.am      1 UNL1        0.0000
     17 N3          9.8022    0.0189   25.3945 N.am      1 UNL1        0.0000
     18 N4          9.2104   -2.0776   22.9293 N.4       1 UNL1        0.0000
     19 O1          5.7657   -3.3138   19.6151 O.2       1 UNL1        0.0000
     20 O2          9.8765    2.0855   26.5404 O.2       1 UNL1        0.0000
     21 S1         11.7529    1.5354   24.4952 S.3       1 UNL1        0.0000
     22 Cl1         7.5424   -0.3296   18.8080 Cl        1 UNL1        0.0000
@<TRIPOS>BOND
     1    1    3 1
     2    1   15 3
     3    2    3 2
     4    2   21 1
     5    3    4 1
     6    4    5 2
     7    4   13 1
     8    5   17 1
     9    5   21 1
    10    6   14 1
    11    6   16 am
    12    6   19 2
    13    7   12 1
    14    7   17 am
    15    7   20 2
    16    8   10 1
    17    8   16 1
    18    9   11 1
    19    9   16 1
    20   10   18 1
    21   11   18 1
    22   13   18 1
    23   14   22 1
@<TRIPOS>MOLECULE
DAV-CRI-d1e-2
   22    23     0     0     0
SMALL
NO_CHARGES

@<TRIPOS>ATOM
      1 C1         10.9221   -2.7305   23.9708 C.1       1 UNL1        0.0000
      2 C2         11.0481    0.9893   23.7455 C.ar      1 UNL1        0.0000
      3 C3         12.7399   -1.1473   23.6092 C.ar      1 UNL1        0.0000
      4 C4         11.3929   -1.3896   23.8255 C.ar      1 UNL1        0.0000
      5 C5         10.5376   -0.2955   23.8937 C.ar      1 UNL1        0.0000
      6 C6         12.4105    1.1251   23.5330 C.ar      1 UNL1        0.0000
      7 C7          6.6156   -2.5690   20.1769 C.2       1 UNL1        0.0000
      8 C8          6.6835   -1.8103   22.5297 C.3       1 UNL1        0.0000
      9 C9          8.7107   -1.5104   21.1534 C.3       1 UNL1        0.0000
     10 C10         6.7886   -0.3774   23.0308 C.3       1 UNL1        0.0000
     11 C11         8.8452   -0.0730   21.6382 C.3       1 UNL1        0.0000
     12 C12        12.8780    4.8433   23.2506 C.3       1 UNL1        0.0000
     13 C13         9.0648   -0.4645   24.1248 C.3       1 UNL1        0.0000
     14 C14         6.9485   -2.1087   18.7800 C.3       1 UNL1        0.0000
     15 C15        12.0832    3.5971   23.4454 C.3       1 UNL1        0.0000
     16 N1         10.5396   -3.8198   24.0887 N.1       1 UNL1        0.0000
     17 N2         13.2726    0.0863   23.4607 N.ar      1 UNL1        0.0000
     18 N3          7.3163   -1.9619   21.2190 N.am      1 UNL1        0.0000
     19 N4         12.9161    2.4405   23.3841 N.pl3     1 UNL1        0.0000
     20 N5          8.2253    0.0898   23.0064 N.4       1 UNL1        0.0000
     21 O1          5.7564   -3.4401   20.3352 O.2       1 UNL1        0.0000
     22 Cl1         6.5617   -0.3931   18.7093 Cl        1 UNL1        0.0000
@<TRIPOS>BOND
     1    1    4 1
     2    1   16 3
     3    2    5 ar
     4    2    6 ar
     5    3    4 ar
     6    3   17 ar
     7    4    5 ar
     8    5   13 1
     9    6   17 ar
    10    6   19 1
    11    7   14 1
    12    7   18 am
    13    7   21 2
    14    8   10 1
    15    8   18 1
    16    9   11 1
    17    9   18 1
    18   10   20 1
    19   11   20 1
    20   12   15 1
    21   13   20 1
    22   14   22 1
    23   15   19 1
@<TRIPOS>MOLECULE
STE-LAU-a2c-3
   32    33     0     0     0
SMALL
NO_CHARGES

@<TRIPOS>ATOM
      1 C1         13.1961   -0.3003   23.7593 C.ar      1 UNL1        0.0000
      2 C2          8.4354   -4.1561   24.3236 C.ar      1 UNL1        0.0000
      3 C3          6.6340   -2.1509   23.6050 C.ar      1 UNL1        0.0000
      4 C4         13.3926   -1.4455   23.0149 C.ar      1 UNL1        0.0000
      5 C5          8.8627   -3.0814   23.5438 C.ar      1 UNL1        0.0000
      6 C6          7.9620   -2.0788   23.1845 C.ar      1 UNL1        0.0000
      7 C7          7.1074   -4.2282   24.7440 C.ar      1 UNL1        0.0000
      8 C8          6.2066   -3.2256   24.3847 C.ar      1 UNL1        0.0000
      9 C9         11.9276   -0.1350   24.2770 C.ar      1 UNL1        0.0000
     10 C10        11.2380   -2.0904   23.3453 C.ar      1 UNL1        0.0000
     11 C11         8.6932    2.4935   21.6475 C.2       1 UNL1        0.0000
     12 C12         8.5630    1.1816   21.4265 C.2       1 UNL1        0.0000
     13 C13        11.6067    1.0343   25.0765 C.2       1 UNL1        0.0000
     14 C14         7.8593    0.3120   22.4134 C.2       1 UNL1        0.0000
     15 C15         2.7918   -2.9974   23.5613 C.3       1 UNL1        0.0000
     16 C16         4.2811   -1.2105   25.9229 C.3       1 UNL1        0.0000
     17 C17         5.9912   -6.5147   28.5924 C.3       1 UNL1        0.0000
     18 C18         7.0397   -4.5319   29.6739 C.3       1 UNL1        0.0000
     19 C19         3.8659   -3.9437   23.9781 C.3       1 UNL1        0.0000
     20 C20         4.4535   -2.6853   26.0565 C.3       1 UNL1        0.0000
     21 C21         7.6665   -6.1287   26.2610 C.3       1 UNL1        0.0000
     22 C22         8.0132   -5.4692   27.5824 C.3       1 UNL1        0.0000
     23 N1         12.4322   -2.3654   22.7870 N.ar      1 UNL1        0.0000
     24 N2         10.9209   -1.0133   24.0889 N.ar      1 UNL1        0.0000
     25 N3         10.3099    1.1463   25.5720 N.am      1 UNL1        0.0000
     26 N4         10.2123   -3.0283   23.1286 N.pl3     1 UNL1        0.0000
     27 N5          8.3673   -0.9926   22.4035 N.am      1 UNL1        0.0000
     28 N6          6.7093   -5.2902   25.5053 N.pl3     1 UNL1        0.0000
     29 N7          4.8570   -3.2802   24.7993 N.pl3     1 UNL1        0.0000
     30 N8          6.7609   -5.2424   28.3802 N.4       1 UNL1        0.0000
     31 O1         12.4518    1.9197   25.3019 O.2       1 UNL1        0.0000
     32 O2          6.9552    0.7499   23.1151 O.2       1 UNL1        0.0000
@<TRIPOS>BOND
     1    1    4 ar
     2    1    9 ar
     3    2    5 ar
     4    2    7 ar
     5    3    6 ar
     6    3    8 ar
     7    4   23 ar
     8    5    6 ar
     9    5   26 1
    10    6   27 1
    11    7    8 ar
    12    7   28 1
    13    8   29 1
    14    9   13 1
    15    9   24 ar
    16   10   23 ar
    17   10   24 ar
    18   10   26 1
    19   11   12 2
    20   12   14 1
    21   13   25 am
    22   13   31 2
    23   14   27 am
    24   14   32 2
    25   15   19 1
    26   16   20 1
    27   17   30 1
    28   18   30 1
    29   19   29 1
    30   20   29 1
    31   21   22 1
    32   21   28 1
    33   22   30 1
@<TRIPOS>MOLECULE
WAR-XCH-bdd-27
   29    32     0     0     0
SMALL
NO_CHARGES

@<TRIPOS>ATOM
      1 C1          6.7277   -4.2826   26.7190 C.2       1 UNL1        0.0000
      2 C2          5.8030   -3.8077   27.6969 C.2       1 UNL1        0.0000
      3 C3          5.3810   -2.5237   27.4085 C.2       1 UNL1        0.0000
      4 C4          6.9648   -3.3504   25.7318 C.2       1 UNL1        0.0000
      5 C5          7.9109   -2.3187   23.6698 C.2       1 UNL1        0.0000
      6 C6          5.8012   -1.7579   19.0552 C.2       1 UNL1        0.0000
      7 C7          5.3342   -4.5460   28.9123 C.3       1 UNL1        0.0000
      8 C8          4.3928   -1.7417   28.2160 C.3       1 UNL1        0.0000
      9 C9          4.0772   -3.9036   29.5197 C.3       1 UNL1        0.0000
     10 C10         4.2071   -2.3757   29.6038 C.3       1 UNL1        0.0000
     11 C11         9.6143   -4.7118   25.5796 C.3       1 UNL1        0.0000
     12 C12         7.7586   -5.8363   24.2814 C.3       1 UNL1        0.0000
     13 C13        10.4601   -5.9808   25.4702 C.3       1 UNL1        0.0000
     14 C14         8.6036   -7.1064   24.1733 C.3       1 UNL1        0.0000
     15 C15         7.3781   -3.6407   21.6302 C.3       1 UNL1        0.0000
     16 C16         8.4989   -1.3674   21.4317 C.3       1 UNL1        0.0000
     17 C17         6.0708   -2.9878   21.1849 C.3       1 UNL1        0.0000
     18 C18         7.1595   -0.7885   20.9739 C.3       1 UNL1        0.0000
     19 C19         8.3466   -2.6408   22.2700 C.3       1 UNL1        0.0000
     20 C20         8.6330   -4.5868   24.4121 C.3       1 UNL1        0.0000
     21 C21         9.5992   -7.2363   25.3257 C.3       1 UNL1        0.0000
     22 C22         6.1230   -0.5232   18.2516 C.3       1 UNL1        0.0000
     23 N1          6.3342   -1.8223   20.3420 N.am      1 UNL1        0.0000
     24 N2          7.8176   -3.4057   24.5615 N.am      1 UNL1        0.0000
     25 O1          7.6983   -1.1362   23.9497 O.2       1 UNL1        0.0000
     26 O2          5.0989   -2.6386   18.5519 O.2       1 UNL1        0.0000
     27 O3          8.8749   -7.4668   26.5322 O.3       1 UNL1        0.0000
     28 S1          6.0774   -1.9074   25.9826 S.3       1 UNL1        0.0000
     29 Cl1         7.6288   -0.8532   17.4023 Cl        1 UNL1        0.0000
@<TRIPOS>BOND
     1    1    2 1
     2    1    4 2
     3    2    3 2
     4    2    7 1
     5    3    8 1
     6    3   28 1
     7    4   24 1
     8    4   28 1
     9    5   19 1
    10    5   24 am
    11    5   25 2
    12    6   22 1
    13    6   23 am
    14    6   26 2
    15    7    9 1
    16    8   10 1
    17    9   10 1
    18   11   13 1
    19   11   20 1
    20   12   14 1
    21   12   20 1
    22   13   21 1
    23   14   21 1
    24   15   17 1
    25   15   19 1
    26   16   18 1
    27   16   19 1
    28   17   23 1
    29   18   23 1
    30   20   24 1
    31   21   27 1
    32   22   29 1
@<TRIPOS>MOLECULE
FAR-UNI-9a7-2
   30    31     0     0     0
SMALL
NO_CHARGES

@<TRIPOS>ATOM
      1 C1          5.5410    0.4434   21.0168 C.ar      1 UNL1        0.0000
      2 C2          4.4647    1.2243   20.5957 C.ar      1 UNL1        0.0000
      3 C3          5.2784    1.1202   18.3232 C.ar      1 UNL1        0.0000
      4 C4          6.4861    0.0010   20.0912 C.ar      1 UNL1        0.0000
      5 C5          4.3334    1.5627   19.2489 C.ar      1 UNL1        0.0000
      6 C6          6.3547    0.3393   18.7444 C.ar      1 UNL1        0.0000
      7 C7          9.9795   -1.9928   25.4285 C.2       1 UNL1        0.0000
      8 C8         12.0627   -0.0693   24.1229 C.2       1 UNL1        0.0000
      9 C9          7.3887   -3.6032   26.6490 C.2       1 UNL1        0.0000
     10 C10         7.8644   -1.2218   21.8190 C.2       1 UNL1        0.0000
     11 C11        10.8931   -3.3154   22.7289 C.3       1 UNL1        0.0000
     12 C12        11.9643   -2.2375   22.8134 C.3       1 UNL1        0.0000
     13 C13        10.0145   -1.4876   24.0163 C.3       1 UNL1        0.0000
     14 C14         9.5869   -2.5711   23.0277 C.3       1 UNL1        0.0000
     15 C15         8.0317   -0.5107   25.9340 C.3       1 UNL1        0.0000
     16 C16        12.0952    2.2285   22.4815 C.3       1 UNL1        0.0000
     17 C17        13.4584    0.1213   23.5848 C.3       1 UNL1        0.0000
     18 C18         8.3450   -2.5861   27.2278 C.3       1 UNL1        0.0000
     19 N1         11.4157   -1.2244   23.7105 N.am      1 UNL1        0.0000
     20 N2          7.8278   -4.8972   26.8298 N.am      1 UNL1        0.0000
     21 N3          7.5768   -0.7903   20.5211 N.am      1 UNL1        0.0000
     22 N4          9.0361   -1.9867   21.8283 N.am      1 UNL1        0.0000
     23 N5          8.8306   -1.7070   26.1671 N.am      1 UNL1        0.0000
     24 O1         10.9451   -2.6243   25.8660 O.2       1 UNL1        0.0000
     25 O2         11.5692    0.7661   24.8823 O.2       1 UNL1        0.0000
     26 O3          6.3194   -3.3145   26.1187 O.2       1 UNL1        0.0000
     27 O4          7.2094   -0.9861   22.8314 O.2       1 UNL1        0.0000
     28 F1          3.2991    2.3119   18.8446 F         1 UNL1        0.0000
     29 F2          7.2579   -0.0790   17.8461 F         1 UNL1        0.0000
     30 S1         13.3826    1.0375   22.0361 S.3       1 UNL1        0.0000
@<TRIPOS>BOND
     1    1    2 ar
     2    1    4 ar
     3    2    5 ar
     4    3    5 ar
     5    3    6 ar
     6    4    6 ar
     7    4   21 1
     8    5   28 1
     9    6   29 1
    10    7   13 1
    11    7   23 am
    12    7   24 2
    13    8   17 1
    14    8   19 am
    15    8   25 2
    16    9   18 1
    17    9   20 am
    18    9   26 2
    19   10   21 am
    20   10   22 am
    21   10   27 2
    22   11   12 1
    23   11   14 1
    24   12   19 1
    25   13   14 1
    26   13   19 1
    27   14   22 1
    28   15   23 1
    29   16   30 1
    30   17   30 1
    31   18   23 1
@<TRIPOS>MOLECULE
DAV-CRI-d1e-3
   22    23     0     0     0
SMALL
NO_CHARGES

@<TRIPOS>ATOM
      1 C1          9.3644   -0.6166   24.9524 C.1       1 UNL1        0.0000
      2 C2         12.3126   -1.0550   22.7120 C.ar      1 UNL1        0.0000
      3 C3         11.4690    0.5907   24.7184 C.ar      1 UNL1        0.0000
      4 C4         10.6320   -0.4385   24.3183 C.ar      1 UNL1        0.0000
      5 C5         11.0693   -1.2725   23.2953 C.ar      1 UNL1        0.0000
      6 C6         13.0742    0.0020   23.1839 C.ar      1 UNL1        0.0000
      7 C7          6.1265   -1.7526   19.1342 C.2       1 UNL1        0.0000
      8 C8          6.6874   -2.6320   21.3777 C.3       1 UNL1        0.0000
      9 C9          7.6828   -0.4836   20.6947 C.3       1 UNL1        0.0000
     10 C10         8.0485   -3.1437   21.8261 C.3       1 UNL1        0.0000
     11 C11         9.0596   -0.9625   21.1349 C.3       1 UNL1        0.0000
     12 C12        10.2288   -2.4118   22.7987 C.3       1 UNL1        0.0000
     13 C13         6.3269   -0.6649   18.1093 C.3       1 UNL1        0.0000
     14 C14        15.2189    1.2632   22.9726 C.3       1 UNL1        0.0000
     15 N1          8.3346   -0.7614   25.4676 N.1       1 UNL1        0.0000
     16 N2         12.6831    0.8333   24.1757 N.ar      1 UNL1        0.0000
     17 N3          6.8252   -1.6172   20.3330 N.am      1 UNL1        0.0000
     18 N4         14.3387    0.2113   22.5795 N.pl3     1 UNL1        0.0000
     19 N5          8.9006   -1.9691   22.2524 N.4       1 UNL1        0.0000
     20 O1          5.3734   -2.6946   18.8743 O.2       1 UNL1        0.0000
     21 O2         16.0141    1.6430   21.8558 O.3       1 UNL1        0.0000
     22 Cl1         5.0769    0.5391   18.4016 Cl        1 UNL1        0.0000
@<TRIPOS>BOND
     1    1    4 1
     2    1   15 3
     3    2    5 ar
     4    2    6 ar
     5    3    4 ar
     6    3   16 ar
     7    4    5 ar
     8    5   12 1
     9    6   16 ar
    10    6   18 1
    11    7   13 1
    12    7   17 am
    13    7   20 2
    14    8   10 1
    15    8   17 1
    16    9   11 1
    17    9   17 1
    18   10   19 1
    19   11   19 1
    20   12   19 1
    21   13   22 1
    22   14   18 1
    23   14   21 1
@<TRIPOS>MOLECULE
JAN-GHE-bf4-4
   36    40     0     0     0
SMALL
NO_CHARGES

@<TRIPOS>ATOM
      1 C1          6.5640    5.4269   27.1986 C.1       1 UNL1        0.0000
      2 C2         13.7669   -2.9268   21.0016 C.ar      1 UNL1        0.0000
      3 C3         13.2376   -4.0664   21.6071 C.ar      1 UNL1        0.0000
      4 C4          7.8069    3.5835   26.1653 C.ar      1 UNL1        0.0000
      5 C5         13.2890   -1.6643   21.3531 C.ar      1 UNL1        0.0000
      6 C6         10.7462    0.3501   21.9434 C.ar      1 UNL1        0.0000
      7 C7         12.4167    0.5002   23.6824 C.ar      1 UNL1        0.0000
      8 C8         10.2913    1.6276   22.2702 C.ar      1 UNL1        0.0000
      9 C9         11.9618    1.7777   24.0091 C.ar      1 UNL1        0.0000
     10 C10        12.2303   -3.9436   22.5641 C.ar      1 UNL1        0.0000
     11 C11         8.7767    3.1425   25.2718 C.ar      1 UNL1        0.0000
     12 C12         8.2914    5.8173   25.5077 C.ar      1 UNL1        0.0000
     13 C13         7.5535    4.9448   26.2915 C.ar      1 UNL1        0.0000
     14 C14        11.8088   -0.2136   22.6496 C.ar      1 UNL1        0.0000
     15 C15        12.2817   -1.5415   22.3101 C.ar      1 UNL1        0.0000
     16 C16        10.8991    2.3414   23.3030 C.ar      1 UNL1        0.0000
     17 C17        11.7523   -2.6811   22.9156 C.ar      1 UNL1        0.0000
     18 C18         9.4596    4.0955   24.5336 C.ar      1 UNL1        0.0000
     19 C19         7.7091    0.2079   18.5750 C.2       1 UNL1        0.0000
     20 C20         6.4204   -0.1347   18.6304 C.2       1 UNL1        0.0000
     21 C21         6.0472   -1.4029   19.2880 C.2       1 UNL1        0.0000
     22 C22         6.0741   -2.7448   21.3678 C.3       1 UNL1        0.0000
     23 C23         7.0830   -0.5588   21.4602 C.3       1 UNL1        0.0000
     24 C24         8.3149   -3.1488   22.5486 C.3       1 UNL1        0.0000
     25 C25         8.2933   -1.0042   23.6830 C.3       1 UNL1        0.0000
     26 C26         6.8740   -2.6393   22.6565 C.3       1 UNL1        0.0000
     27 C27         7.0149   -1.1351   22.8754 C.3       1 UNL1        0.0000
     28 N1          5.7589    5.8192   27.9366 N.1       1 UNL1        0.0000
     29 N2          9.2413    5.4263   24.6289 N.ar      1 UNL1        0.0000
     30 N3          6.3895   -1.5343   20.6205 N.am      1 UNL1        0.0000
     31 N4          9.1658   -2.0929   23.1700 N.pl3     1 UNL1        0.0000
     32 N5         10.4393    3.6330   23.6334 N.pl3     1 UNL1        0.0000
     33 O1          5.4648   -2.2630   18.6280 O.2       1 UNL1        0.0000
     34 O2         10.2388   -3.9280   24.6267 O.2       1 UNL1        0.0000
     35 O3         10.8256   -1.5151   25.0524 O.2       1 UNL1        0.0000
     36 S1         10.4747   -2.5830   24.1335 S.o2      1 UNL1        0.0000
@<TRIPOS>BOND
     1    1   13 1
     2    1   28 3
     3    2    3 ar
     4    2    5 ar
     5    3   10 ar
     6    4   11 ar
     7    4   13 ar
     8    5   15 ar
     9    6    8 ar
    10    6   14 ar
    11    7    9 ar
    12    7   14 ar
    13    8   16 ar
    14    9   16 ar
    15   10   17 ar
    16   11   18 ar
    17   12   13 ar
    18   12   29 ar
    19   14   15 1
    20   15   17 ar
    21   16   32 1
    22   17   36 1
    23   18   29 ar
    24   18   32 1
    25   19   20 2
    26   20   21 1
    27   21   30 am
    28   21   33 2
    29   22   26 1
    30   22   30 1
    31   23   27 1
    32   23   30 1
    33   24   26 1
    34   24   31 1
    35   25   27 1
    36   25   31 1
    37   26   27 1
    38   31   36 1
    39   34   36 2
    40   35   36 2
@<TRIPOS>MOLECULE
STE-LAU-a2c-1
   30    31     0     0     0
SMALL
NO_CHARGES

@<TRIPOS>ATOM
      1 C1          5.6369   -4.2296   27.2880 C.ar      1 UNL1        0.0000
      2 C2         10.3770   -0.4499   25.3428 C.ar      1 UNL1        0.0000
      3 C3         10.5934   -2.3489   23.3107 C.ar      1 UNL1        0.0000
      4 C4          5.2408   -2.9205   27.1041 C.ar      1 UNL1        0.0000
      5 C5          9.3538   -1.3765   25.1424 C.ar      1 UNL1        0.0000
      6 C6          9.4620   -2.3260   24.1264 C.ar      1 UNL1        0.0000
      7 C7         11.5083   -0.4727   24.5271 C.ar      1 UNL1        0.0000
      8 C8         11.6165   -1.4223   23.5111 C.ar      1 UNL1        0.0000
      9 C9          6.9597   -4.4988   27.0017 C.ar      1 UNL1        0.0000
     10 C10         7.3297   -2.3303   26.4295 C.ar      1 UNL1        0.0000
     11 C11         6.9198   -6.0811   22.1868 C.2       1 UNL1        0.0000
     12 C12         7.1480   -5.0691   23.0298 C.2       1 UNL1        0.0000
     13 C13         7.4868   -5.8431   27.1588 C.2       1 UNL1        0.0000
     14 C14         8.4062   -4.2731   22.9368 C.2       1 UNL1        0.0000
     15 C15        12.7844   -0.6949   21.4454 C.3       1 UNL1        0.0000
     16 C16        13.9053   -2.2591   23.0407 C.3       1 UNL1        0.0000
     17 C17        10.1691    2.7127   23.7494 C.3       1 UNL1        0.0000
     18 C18        11.8673    3.9380   22.4021 C.3       1 UNL1        0.0000
     19 C19        12.2656    1.7068   25.4768 C.3       1 UNL1        0.0000
     20 C20        12.5128    2.8981   24.5706 C.3       1 UNL1        0.0000
     21 N1          6.0639   -1.9416   26.6746 N.ar      1 UNL1        0.0000
     22 N2          7.8372   -3.5699   26.5687 N.ar      1 UNL1        0.0000
     23 N3          8.8294   -6.0540   26.8545 N.am      1 UNL1        0.0000
     24 N4          8.2166   -1.3352   25.9799 N.pl3     1 UNL1        0.0000
     25 N5          8.4493   -3.2641   23.9065 N.am      1 UNL1        0.0000
     26 N6         12.4977    0.4449   24.7392 N.pl3     1 UNL1        0.0000
     27 N7         12.7536   -1.4619   22.6732 N.pl3     1 UNL1        0.0000
     28 N8         11.6181    2.8141   23.3670 N.4       1 UNL1        0.0000
     29 O1          6.7652   -6.7844   27.5359 O.2       1 UNL1        0.0000
     30 O2          9.2563   -4.5248   22.0909 O.2       1 UNL1        0.0000
@<TRIPOS>BOND
     1    1    4 ar
     2    1    9 ar
     3    2    5 ar
     4    2    7 ar
     5    3    6 ar
     6    3    8 ar
     7    4   21 ar
     8    5    6 ar
     9    5   24 1
    10    6   25 1
    11    7    8 ar
    12    7   26 1
    13    8   27 1
    14    9   13 1
    15    9   22 ar
    16   10   21 ar
    17   10   22 ar
    18   10   24 1
    19   11   12 2
    20   12   14 1
    21   13   23 am
    22   13   29 2
    23   14   25 am
    24   14   30 2
    25   15   27 1
    26   16   27 1
    27   17   28 1
    28   18   28 1
    29   19   20 1
    30   19   26 1
    31   20   28 1
@<TRIPOS>MOLECULE
MAK-UNK-e4a-18
   30    32     0     0     0
SMALL
NO_CHARGES

@<TRIPOS>ATOM
      1 C1         10.7512   -1.3474   25.3148 C.ar      1 UNL1        0.0000
      2 C2         10.9601   -0.0966   24.7341 C.ar      1 UNL1        0.0000
      3 C3         11.4520   -2.4164   23.2646 C.ar      1 UNL1        0.0000
      4 C4         10.9972   -2.5073   24.5801 C.ar      1 UNL1        0.0000
      5 C5         11.6608   -1.1655   22.6838 C.ar      1 UNL1        0.0000
      6 C6         11.4148   -0.0056   23.4186 C.ar      1 UNL1        0.0000
      7 C7          5.7787   -6.2307   25.5182 C.2       1 UNL1        0.0000
      8 C8          5.1094    1.4626   19.0578 C.3       1 UNL1        0.0000
      9 C9          7.2589    0.3639   18.3498 C.3       1 UNL1        0.0000
     10 C10         7.7415   -5.5100   26.8408 C.3       1 UNL1        0.0000
     11 C11         6.9559   -4.0288   25.0347 C.3       1 UNL1        0.0000
     12 C12         5.6081    1.5068   20.4938 C.3       1 UNL1        0.0000
     13 C13         7.7528    0.4108   19.7873 C.3       1 UNL1        0.0000
     14 C14         9.1727   -5.4012   26.3356 C.3       1 UNL1        0.0000
     15 C15         8.3766   -3.8961   24.5030 C.3       1 UNL1        0.0000
     16 C16         5.7350    0.3104   18.2772 C.3       1 UNL1        0.0000
     17 C17        12.1483   -1.0971   21.2731 C.3       1 UNL1        0.0000
     18 C18        10.7725   -3.8526   25.2053 C.3       1 UNL1        0.0000
     19 C19         4.8350   -5.9339   24.3802 C.3       1 UNL1        0.0000
     20 C20        11.0157    2.4568   23.3632 C.3       1 UNL1        0.0000
     21 C21         9.4992    2.4094   23.2826 C.3       1 UNL1        0.0000
     22 C22         7.6602    1.7477   21.8906 C.3       1 UNL1        0.0000
     23 N1          6.7833   -5.2939   25.7567 N.am      1 UNL1        0.0000
     24 N2         11.6206    1.2693   22.8470 N.pl3     1 UNL1        0.0000
     25 N3          9.0365    2.2430   21.9314 N.3       1 UNL1        0.0000
     26 N4          9.3519   -4.0671   25.6462 N.4       1 UNL1        0.0000
     27 N5          7.1171    1.5829   20.4978 N.4       1 UNL1        0.0000
     28 O1          5.6275   -7.2655   26.1726 O.2       1 UNL1        0.0000
     29 O2          5.3148    0.3963   16.9204 O.3       1 UNL1        0.0000
     30 Cl1         5.5574   -6.6274   22.9328 Cl        1 UNL1        0.0000
@<TRIPOS>BOND
     1    1    2 ar
     2    1    4 ar
     3    2    6 ar
     4    3    4 ar
     5    3    5 ar
     6    4   18 1
     7    5    6 ar
     8    5   17 1
     9    6   24 1
    10    7   19 1
    11    7   23 am
    12    7   28 2
    13    8   12 1
    14    8   16 1
    15    9   13 1
    16    9   16 1
    17   10   14 1
    18   10   23 1
    19   11   15 1
    20   11   23 1
    21   12   27 1
    22   13   27 1
    23   14   26 1
    24   15   26 1
    25   16   29 1
    26   18   26 1
    27   19   30 1
    28   20   21 1
    29   20   24 1
    30   21   25 1
    31   22   25 1
    32   22   27 1
@<TRIPOS>MOLECULE
DAV-CRI-f9b-4
   41    44     0     0     0
SMALL
NO_CHARGES

@<TRIPOS>ATOM
      1 C1         14.5123   -1.1403   26.4862 C.ar      1 UNL1        0.0000
      2 C2         11.1910    2.5361   23.5189 C.ar      1 UNL1        0.0000
      3 C3         13.6711   -0.1283   26.0371 C.ar      1 UNL1        0.0000
      4 C4         12.0444    1.5315   23.9749 C.ar      1 UNL1        0.0000
      5 C5         14.1825   -2.4844   26.2944 C.ar      1 UNL1        0.0000
      6 C6          9.8834    2.6114   23.9987 C.ar      1 UNL1        0.0000
      7 C7         10.2826    0.6774   25.3905 C.ar      1 UNL1        0.0000
      8 C8         11.5903    0.6021   24.9107 C.ar      1 UNL1        0.0000
      9 C9         12.4749   -0.4369   25.3828 C.ar      1 UNL1        0.0000
     10 C10        12.1178   -1.7870   25.1759 C.ar      1 UNL1        0.0000
     11 C11        12.9796   -2.7871   25.6362 C.ar      1 UNL1        0.0000
     12 C12         9.4292    1.6821   24.9345 C.ar      1 UNL1        0.0000
     13 C13        10.9655   -3.5546   24.5320 C.2       1 UNL1        0.0000
     14 C14         6.5521   -5.6610   24.8652 C.2       1 UNL1        0.0000
     15 C15         7.6997   -1.3814   20.1507 C.2       1 UNL1        0.0000
     16 C16         5.8863   -3.3861   21.0994 C.2       1 UNL1        0.0000
     17 C17         9.7239   -4.1609   22.4145 C.3       1 UNL1        0.0000
     18 C18         8.6081   -5.0279   21.8378 C.3       1 UNL1        0.0000
     19 C19         8.5187   -4.1856   24.6378 C.3       1 UNL1        0.0000
     20 C20         9.8620   -4.4018   23.9248 C.3       1 UNL1        0.0000
     21 C21         7.2745   -4.8356   22.5696 C.3       1 UNL1        0.0000
     22 C22         2.1613   -1.4742   22.9665 C.3       1 UNL1        0.0000
     23 C23         5.4667   -6.4623   24.1906 C.3       1 UNL1        0.0000
     24 C24         6.5115   -0.9546   20.9948 C.3       1 UNL1        0.0000
     25 C25         5.3630   -1.9638   20.9859 C.3       1 UNL1        0.0000
     26 C26         3.0597   -2.2404   21.9990 C.3       1 UNL1        0.0000
     27 N1         10.9688   -2.2422   24.5456 N.2       1 UNL1        0.0000
     28 N2          7.4393   -4.9748   24.0295 N.am      1 UNL1        0.0000
     29 N3          8.8989   -0.9597   20.6845 N.am      1 UNL1        0.0000
     30 N4          2.9789   -3.6677   22.2931 N.3       1 UNL1        0.0000
     31 N5          8.0044    2.7965   26.8922 N.pl3     1 UNL1        0.0000
     32 N6          6.6662   -3.5688   22.2311 N.am      1 UNL1        0.0000
     33 N7          4.4442   -1.6638   22.1229 N.4       1 UNL1        0.0000
     34 O1          6.6128   -5.6504   26.0975 O.2       1 UNL1        0.0000
     35 O2          7.6080   -2.0320   19.1139 O.2       1 UNL1        0.0000
     36 O3          5.6265   -4.2564   20.2716 O.2       1 UNL1        0.0000
     37 O4          6.9805    2.4745   24.5484 O.2       1 UNL1        0.0000
     38 O5          7.3927    0.4579   26.0014 O.2       1 UNL1        0.0000
     39 S1         12.3080   -4.3289   25.2560 S.3       1 UNL1        0.0000
     40 S2          7.7929    1.7786   25.5363 S.o2      1 UNL1        0.0000
     41 Cl1         4.5402   -7.2338   25.4727 Cl        1 UNL1        0.0000
@<TRIPOS>BOND
     1    1    3 ar
     2    1    5 ar
     3    2    4 ar
     4    2    6 ar
     5    3    9 ar
     6    4    8 ar
     7    5   11 ar
     8    6   12 ar
     9    7    8 ar
    10    7   12 ar
    11    8    9 1
    12    9   10 ar
    13   10   11 ar
    14   10   27 1
    15   11   39 1
    16   12   40 1
    17   13   20 1
    18   13   27 2
    19   13   39 1
    20   14   23 1
    21   14   28 am
    22   14   34 2
    23   15   24 1
    24   15   29 am
    25   15   35 2
    26   16   25 1
    27   16   32 am
    28   16   36 2
    29   17   18 1
    30   17   20 1
    31   18   21 1
    32   19   20 1
    33   19   28 1
    34   21   28 1
    35   21   32 1
    36   22   26 1
    37   23   41 1
    38   24   25 1
    39   25   33 1
    40   26   30 1
    41   26   33 1
    42   31   40 1
    43   37   40 2
    44   38   40 2
@<TRIPOS>MOLECULE
JAN-GHE-bf4-1
   33    35     0     0     0
SMALL
NO_CHARGES

@<TRIPOS>ATOM
      1 C1          8.3505    5.7288   26.7835 C.1       1 UNL1        0.0000
      2 C2         12.2656   -4.1278   23.1943 C.ar      1 UNL1        0.0000
      3 C3          9.9992    6.0399   24.9958 C.ar      1 UNL1        0.0000
      4 C4         12.2817   -2.7743   22.8575 C.ar      1 UNL1        0.0000
      5 C5         11.2468   -4.6336   24.0017 C.ar      1 UNL1        0.0000
      6 C6         10.7844    5.5040   23.9812 C.ar      1 UNL1        0.0000
      7 C7          9.1555    3.8579   25.4244 C.ar      1 UNL1        0.0000
      8 C8          9.1665    5.2080   25.7359 C.ar      1 UNL1        0.0000
      9 C9         11.2789   -1.9266   23.3281 C.ar      1 UNL1        0.0000
     10 C10        10.2441   -3.7858   24.4723 C.ar      1 UNL1        0.0000
     11 C11        10.2601   -2.4323   24.1356 C.ar      1 UNL1        0.0000
     12 C12        10.7012    4.1407   23.7484 C.ar      1 UNL1        0.0000
     13 C13         7.3468   -2.3719   17.7630 C.2       1 UNL1        0.0000
     14 C14         6.4862   -1.8767   18.6550 C.2       1 UNL1        0.0000
     15 C15         6.1404   -2.6902   19.8434 C.2       1 UNL1        0.0000
     16 C16         6.1290   -2.8590   22.3036 C.3       1 UNL1        0.0000
     17 C17         6.9941   -0.7874   21.2765 C.3       1 UNL1        0.0000
     18 C18         7.3441   -2.9157   23.2223 C.3       1 UNL1        0.0000
     19 C19         8.2099   -0.8390   22.1962 C.3       1 UNL1        0.0000
     20 C20        12.5525    1.4399   23.1582 C.3       1 UNL1        0.0000
     21 C21        11.5181    2.2299   22.3674 C.3       1 UNL1        0.0000
     22 C22        12.6001   -0.0314   22.7638 C.3       1 UNL1        0.0000
     23 N1          7.6867    6.1526   27.6359 N.1       1 UNL1        0.0000
     24 N2          9.9041    3.3008   24.4462 N.ar      1 UNL1        0.0000
     25 N3          6.4378   -2.1292   21.0760 N.am      1 UNL1        0.0000
     26 N4          7.8425   -1.5287   23.4703 N.pl3     1 UNL1        0.0000
     27 N5         11.4912    3.6203   22.7310 N.pl3     1 UNL1        0.0000
     28 O1          5.6246   -3.7753   19.6096 O.2       1 UNL1        0.0000
     29 O2          8.4374   -1.9804   25.9375 O.2       1 UNL1        0.0000
     30 O3          9.4911   -0.0217   24.7537 O.2       1 UNL1        0.0000
     31 O4         11.3150   -0.6080   22.9865 O.3       1 UNL1        0.0000
     32 F1          9.2709   -4.2845   25.2476 F         1 UNL1        0.0000
     33 S1          8.9819   -1.3760   24.7409 S.o2      1 UNL1        0.0000
@<TRIPOS>BOND
     1    1    8 1
     2    1   23 3
     3    2    4 ar
     4    2    5 ar
     5    3    6 ar
     6    3    8 ar
     7    4    9 ar
     8    5   10 ar
     9    6   12 ar
    10    7    8 ar
    11    7   24 ar
    12    9   11 ar
    13    9   31 1
    14   10   11 ar
    15   10   32 1
    16   11   33 1
    17   12   24 ar
    18   12   27 1
    19   13   14 2
    20   14   15 1
    21   15   25 am
    22   15   28 2
    23   16   18 1
    24   16   25 1
    25   17   19 1
    26   17   25 1
    27   18   26 1
    28   19   26 1
    29   20   21 1
    30   20   22 1
    31   21   27 1
    32   22   31 1
    33   26   33 1
    34   29   33 2
    35   30   33 2
@<TRIPOS>MOLECULE
DAV-CRI-f9b-8
   74    77     0     0     0
SMALL
NO_CHARGES

@<TRIPOS>ATOM
      1 C1         14.4948   -1.1658   26.5542 C.ar      1 UNL1        0.0000
      2 C2         13.6691   -0.1554   26.0739 C.ar      1 UNL1        0.0000
      3 C3         12.0724    1.4689   23.9601 C.ar      1 UNL1        0.0000
      4 C4         11.2338    2.4712   23.4727 C.ar      1 UNL1        0.0000
      5 C5         14.1476   -2.5101   26.3980 C.ar      1 UNL1        0.0000
      6 C6         10.2942    0.6767   25.3909 C.ar      1 UNL1        0.0000
      7 C7         11.6026    0.5716   24.9192 C.ar      1 UNL1        0.0000
      8 C8         12.4714   -0.4658   25.4233 C.ar      1 UNL1        0.0000
      9 C9         12.0968   -1.8161   25.2522 C.ar      1 UNL1        0.0000
     10 C10         9.9253    2.5763   23.9444 C.ar      1 UNL1        0.0000
     11 C11        12.9433   -2.8147   25.7434 C.ar      1 UNL1        0.0000
     12 C12         9.4555    1.6791   24.9035 C.ar      1 UNL1        0.0000
     13 C13        10.9231   -3.5852   24.6523 C.2       1 UNL1        0.0000
     14 C14         6.4805   -5.6222   25.0247 C.2       1 UNL1        0.0000
     15 C15         7.7037   -1.4898   20.1993 C.2       1 UNL1        0.0000
     16 C16         5.8598   -3.4431   21.1951 C.2       1 UNL1        0.0000
     17 C17         9.6815   -4.2328   22.5471 C.3       1 UNL1        0.0000
     18 C18         8.5563   -5.1004   21.9897 C.3       1 UNL1        0.0000
     19 C19         8.4677   -4.1802   24.7652 C.3       1 UNL1        0.0000
     20 C20         9.8106   -4.4339   24.0640 C.3       1 UNL1        0.0000
     21 C21         7.2227   -4.8702   22.7104 C.3       1 UNL1        0.0000
     22 C22         2.1539   -1.4308   22.9934 C.3       1 UNL1        0.0000
     23 C23         5.3868   -6.4271   24.3680 C.3       1 UNL1        0.0000
     24 C24         6.5182   -1.0240   21.0264 C.3       1 UNL1        0.0000
     25 C25         5.3562   -2.0176   21.0404 C.3       1 UNL1        0.0000
     26 C26         3.0456   -2.2353   22.0512 C.3       1 UNL1        0.0000
     27 N1         10.9442   -2.2731   24.6298 N.2       1 UNL1        0.0000
     28 N2          7.3800   -4.9712   24.1742 N.am      1 UNL1        0.0000
     29 N3          8.9065   -1.0697   20.7263 N.am      1 UNL1        0.0000
     30 N4          2.9443   -3.6528   22.3840 N.3       1 UNL1        0.0000
     31 N5          7.8613    0.4332   26.6388 N.pl3     1 UNL1        0.0000
     32 N6          6.6329   -3.6050   22.3347 N.am      1 UNL1        0.0000
     33 N7          4.4372   -1.6741   22.1649 N.4       1 UNL1        0.0000
     34 O1          9.1770    3.5083   23.4778 O.3       1 UNL1        0.0000
     35 O2          6.5366   -5.5785   26.2566 O.2       1 UNL1        0.0000
     36 O3          7.6071   -2.1674   19.1804 O.2       1 UNL1        0.0000
     37 O4          5.5914   -4.3324   20.3905 O.2       1 UNL1        0.0000
     38 O5          7.6849    2.9822   26.2965 O.2       1 UNL1        0.0000
     39 O6          6.8988    1.4355   24.4695 O.2       1 UNL1        0.0000
     40 S1         12.2523   -4.3572   25.4028 S.3       1 UNL1        0.0000
     41 S2          7.8205    1.7449   25.5483 S.o2      1 UNL1        0.0000
     42 Cl1         4.4452   -7.1506   25.6669 Cl        1 UNL1        0.0000
     43 H          14.4948   -1.1658   26.5542 H         1 UNL1        0.0000
     44 H          13.6691   -0.1554   26.0739 H         1 UNL1        0.0000
     45 H          12.0724    1.4689   23.9601 H         1 UNL1        0.0000
     46 H          11.2338    2.4712   23.4727 H         1 UNL1        0.0000
     47 H          14.1476   -2.5101   26.3980 H         1 UNL1        0.0000
     48 H          10.2942    0.6767   25.3909 H         1 UNL1        0.0000
     49 H           9.6815   -4.2328   22.5471 H         1 UNL1        0.0000
     50 H           9.6815   -4.2328   22.5471 H         1 UNL1        0.0000
     51 H           8.5563   -5.1004   21.9897 H         1 UNL1        0.0000
     52 H           8.5563   -5.1004   21.9897 H         1 UNL1        0.0000
     53 H           8.4677   -4.1802   24.7652 H         1 UNL1        0.0000
     54 H           8.4677   -4.1802   24.7652 H         1 UNL1        0.0000
     55 H           9.8106   -4.4339   24.0640 H         1 UNL1        0.0000
     56 H           7.2227   -4.8702   22.7104 H         1 UNL1        0.0000
     57 H           2.1539   -1.4308   22.9934 H         1 UNL1        0.0000
     58 H           2.1539   -1.4308   22.9934 H         1 UNL1        0.0000
     59 H           2.1539   -1.4308   22.9934 H         1 UNL1        0.0000
     60 H           5.3868   -6.4271   24.3680 H         1 UNL1        0.0000
     61 H           5.3868   -6.4271   24.3680 H         1 UNL1        0.0000
     62 H           6.5182   -1.0240   21.0264 H         1 UNL1        0.0000
     63 H           6.5182   -1.0240   21.0264 H         1 UNL1        0.0000
     64 H           5.3562   -2.0176   21.0404 H         1 UNL1        0.0000
     65 H           3.0456   -2.2353   22.0512 H         1 UNL1        0.0000
     66 H           8.9065   -1.0697   20.7263 H         1 UNL1        0.0000
     67 H           8.9065   -1.0697   20.7263 H         1 UNL1        0.0000
     68 H           2.9443   -3.6528   22.3840 H         1 UNL1        0.0000
     69 H           2.9443   -3.6528   22.3840 H         1 UNL1        0.0000
     70 H           7.8613    0.4332   26.6388 H         1 UNL1        0.0000
     71 H           7.8613    0.4332   26.6388 H         1 UNL1        0.0000
     72 H           6.6329   -3.6050   22.3347 H         1 UNL1        0.0000
     73 H           4.4372   -1.6741   22.1649 H         1 UNL1        0.0000
     74 H           4.4372   -1.6741   22.1649 H         1 UNL1        0.0000
@<TRIPOS>BOND
     1    1    2 ar
     2    1    5 ar
     3    2    8 ar
     4    3    4 ar
     5    3    7 ar
     6    4   10 ar
     7    5   11 ar
     8    6    7 ar
     9    6   12 ar
    10    7    8 1
    11    8    9 ar
    12    9   11 ar
    13    9   27 1
    14   10   12 ar
    15   10   34 1
    16   11   40 1
    17   12   41 1
    18   13   20 1
    19   13   27 2
    20   13   40 1
    21   14   23 1
    22   14   28 am
    23   14   35 2
    24   15   24 1
    25   15   29 am
    26   15   36 2
    27   16   25 1
    28   16   32 am
    29   16   37 2
    30   17   18 1
    31   17   20 1
    32   18   21 1
    33   19   20 1
    34   19   28 1
    35   21   28 1
    36   21   32 1
    37   22   26 1
    38   23   42 1
    39   24   25 1
    40   25   33 1
    41   26   30 1
    42   26   33 1
    43   31   41 1
    44   38   41 2
    45   39   41 2
    46    1   43 1
    47    2   44 1
    48    3   45 1
    49    4   46 1
    50    5   47 1
    51    6   48 1
    52   17   49 1
    53   17   50 1
    54   18   51 1
    55   18   52 1
    56   19   53 1
    57   19   54 1
    58   20   55 1
    59   21   56 1
    60   22   57 1
    61   22   58 1
    62   22   59 1
    63   23   60 1
    64   23   61 1
    65   24   62 1
    66   24   63 1
    67   25   64 1
    68   26   65 1
    69   29   66 1
    70   29   67 1
    71   30   68 1
    72   30   69 1
    73   31   70 1
    74   31   71 1
    75   32   72 1
    76   33   73 1
    77   33   74 1
@<TRIPOS>MOLECULE
MAK-UNK-e4a-24
   25    27     0     0     0
SMALL
NO_CHARGES

@<TRIPOS>ATOM
      1 C1          8.1834   -2.0973   21.8450 C.2       1 UNL1        0.0000
      2 C2          8.5241   -1.1306   20.9247 C.2       1 UNL1        0.0000
      3 C3          7.4202   -0.1740   22.9036 C.2       1 UNL1        0.0000
      4 C4          7.5438   -1.5433   22.9914 C.2       1 UNL1        0.0000
      5 C5         13.0507   -0.6571   22.6995 C.2       1 UNL1        0.0000
      6 C6          6.7677   -5.3013   27.3762 C.3       1 UNL1        0.0000
      7 C7          7.0469   -4.7238   25.9937 C.3       1 UNL1        0.0000
      8 C8          8.9051   -4.2652   28.2365 C.3       1 UNL1        0.0000
      9 C9         11.3200   -2.2823   23.3956 C.3       1 UNL1        0.0000
     10 C10        11.1608    0.0195   24.2612 C.3       1 UNL1        0.0000
     11 C11        11.1291   -2.8444   24.7968 C.3       1 UNL1        0.0000
     12 C12        10.9655   -0.5083   25.6761 C.3       1 UNL1        0.0000
     13 C13         8.0661   -5.5482   28.1537 C.3       1 UNL1        0.0000
     14 C14         9.1931   -3.6788   26.8466 C.3       1 UNL1        0.0000
     15 C15         7.8878   -3.4492   26.0671 C.3       1 UNL1        0.0000
     16 C16         7.7628   -6.0854   29.5514 C.3       1 UNL1        0.0000
     17 C17         7.0630   -2.3573   24.1566 C.3       1 UNL1        0.0000
     18 C18        13.2323   -1.4268   21.4157 C.3       1 UNL1        0.0000
     19 C19        10.0005   -2.4062   26.9807 C.3       1 UNL1        0.0000
     20 N1         11.9057   -0.9425   23.4419 N.am      1 UNL1        0.0000
     21 N2         10.3090   -1.8692   25.6114 N.4       1 UNL1        0.0000
     22 O1         13.9004    0.1742   23.0296 O.2       1 UNL1        0.0000
     23 O2          8.1665   -3.0424   24.7300 O.3       1 UNL1        0.0000
     24 S1          8.0733    0.4378   21.4437 S.3       1 UNL1        0.0000
     25 Cl1        14.7218   -0.8408   20.6835 Cl        1 UNL1        0.0000
@<TRIPOS>BOND
     1    1    2 2
     2    1    4 1
     3    2   24 1
     4    3    4 2
     5    3   24 1
     6    4   17 1
     7    5   18 1
     8    5   20 am
     9    5   22 2
    10    6    7 1
    11    6   13 1
    12    7   15 1
    13    8   13 1
    14    8   14 1
    15    9   11 1
    16    9   20 1
    17   10   12 1
    18   10   20 1
    19   11   21 1
    20   12   21 1
    21   13   16 1
    22   14   15 1
    23   14   19 1
    24   15   23 1
    25   17   23 1
    26   18   25 1
    27   19   21 1
@<TRIPOS>MOLECULE
SEA-TRI-825-1
   25    27     0     0     0
SMALL
NO_CHARGES

@<TRIPOS>ATOM
      1 C1          6.1016    1.7829   20.1437 C.ar      1 UNL1        0.0000
      2 C2          6.4283   -0.5867   19.8046 C.ar      1 UNL1        0.0000
      3 C3          5.7727    1.9304   18.7962 C.ar      1 UNL1        0.0000
      4 C4          6.0993   -0.4393   18.4571 C.ar      1 UNL1        0.0000
      5 C5          8.3312    6.7722   23.0277 C.2       1 UNL1        0.0000
      6 C6          7.2641    7.5422   23.5742 C.2       1 UNL1        0.0000
      7 C7          6.4295    0.5244   20.6479 C.ar      1 UNL1        0.0000
      8 C8          5.7715    0.8193   17.9530 C.ar      1 UNL1        0.0000
      9 C9          7.9615    5.4652   22.7983 C.2       1 UNL1        0.0000
     10 C10         6.1192    6.7943   23.7413 C.2       1 UNL1        0.0000
     11 C11         8.9912   -0.9691   24.1612 C.2       1 UNL1        0.0000
     12 C12         8.3569    1.4308   24.6705 C.3       1 UNL1        0.0000
     13 C13         8.8856    2.7592   24.1536 C.3       1 UNL1        0.0000
     14 C14         8.8050    1.8879   21.8274 C.3       1 UNL1        0.0000
     15 C15         8.2877    0.5390   22.3311 C.3       1 UNL1        0.0000
     16 C16         6.7832    0.3653   22.0990 C.3       1 UNL1        0.0000
     17 C17         8.7874    4.3460   22.2360 C.3       1 UNL1        0.0000
     18 C18         9.8638   -1.7598   23.2188 C.3       1 UNL1        0.0000
     19 N1          8.6237    0.3172   23.7497 N.am      1 UNL1        0.0000
     20 N2          8.3807    2.9948   22.7558 N.4       1 UNL1        0.0000
     21 O1          8.6432   -1.4793   25.2295 O.2       1 UNL1        0.0000
     22 O2          5.4492    0.9632   16.6385 O.3       1 UNL1        0.0000
     23 S1          6.3336    5.1708   23.2408 S.3       1 UNL1        0.0000
     24 Cl1         4.6080    7.3114   24.3625 Cl        1 UNL1        0.0000
     25 Cl2         8.7800   -2.6825   22.1836 Cl        1 UNL1        0.0000
@<TRIPOS>BOND
     1    1    3 ar
     2    1    7 ar
     3    2    4 ar
     4    2    7 ar
     5    3    8 ar
     6    4    8 ar
     7    5    6 1
     8    5    9 2
     9    6   10 2
    10    7   16 1
    11    8   22 1
    12    9   17 1
    13    9   23 1
    14   10   23 1
    15   10   24 1
    16   11   18 1
    17   11   19 am
    18   11   21 2
    19   12   13 1
    20   12   19 1
    21   13   20 1
    22   14   15 1
    23   14   20 1
    24   15   16 1
    25   15   19 1
    26   17   20 1
    27   18   25 1
@<TRIPOS>MOLECULE
JAN-GHE-bf4-12
   24    27     0     0     0
SMALL
NO_CHARGES

@<TRIPOS>ATOM
      1 C1         10.1679    4.8762   25.2734 C.1       1 UNL1        0.0000
      2 C2         11.7167    4.1567   23.4887 C.2       1 UNL1        0.0000
      3 C3         12.3257    3.1985   22.7762 C.2       1 UNL1        0.0000
      4 C4         10.1249    2.6136   24.4722 C.2       1 UNL1        0.0000
      5 C5         12.3112    0.2328   24.4697 C.2       1 UNL1        0.0000
      6 C6         10.6594    3.8453   24.4256 C.2       1 UNL1        0.0000
      7 C7          6.7724   -1.4792   17.6250 C.2       1 UNL1        0.0000
      8 C8          5.9968   -1.3428   18.7025 C.2       1 UNL1        0.0000
      9 C9          5.8789   -2.4739   19.6440 C.2       1 UNL1        0.0000
     10 C10         6.7923   -0.9412   21.3587 C.3       1 UNL1        0.0000
     11 C11         6.2884   -3.1930   22.0567 C.3       1 UNL1        0.0000
     12 C12         8.0123   -0.2885   23.5178 C.3       1 UNL1        0.0000
     13 C13         8.5146   -2.6564   23.1876 C.3       1 UNL1        0.0000
     14 C14        10.5827    1.4887   23.5692 C.3       1 UNL1        0.0000
     15 C15        11.9471    1.7493   22.8894 C.3       1 UNL1        0.0000
     16 C16        10.8225    0.1875   24.3328 C.3       1 UNL1        0.0000
     17 C17         6.8215   -0.9925   22.8851 C.3       1 UNL1        0.0000
     18 C18         7.0060   -2.4776   23.1908 C.3       1 UNL1        0.0000
     19 C19        10.4242   -1.0549   23.5498 C.3       1 UNL1        0.0000
     20 N1          9.7672    5.7170   25.9650 N.1       1 UNL1        0.0000
     21 N2         12.9630    1.0557   23.7158 N.2       1 UNL1        0.0000
     22 N3          6.2819   -2.2416   20.9455 N.am      1 UNL1        0.0000
     23 N4          9.0004   -1.3918   23.8526 N.4       1 UNL1        0.0000
     24 O1          5.4393   -3.5461   19.2295 O.2       1 UNL1        0.0000
@<TRIPOS>BOND
     1    1    6 1
     2    1   20 3
     3    2    3 2
     4    2    6 1
     5    3   15 1
     6    4    6 2
     7    4   14 1
     8    5   16 1
     9    5   21 2
    10    7    8 2
    11    8    9 1
    12    9   22 am
    13    9   24 2
    14   10   17 1
    15   10   22 1
    16   11   18 1
    17   11   22 1
    18   12   17 1
    19   12   23 1
    20   13   18 1
    21   13   23 1
    22   14   15 1
    23   14   16 1
    24   15   21 1
    25   16   19 1
    26   17   18 1
    27   19   23 1
@<TRIPOS>MOLECULE
TAM-UNI-d1c-19
   27    29     0     0     0
SMALL
NO_CHARGES

@<TRIPOS>ATOM
      1 C1          8.2009   -4.1746   23.3550 C.ar      1 UNL1        0.0000
      2 C2          9.4451   -3.5964   23.0782 C.ar      1 UNL1        0.0000
      3 C3          8.4736   -2.2125   21.3331 C.ar      1 UNL1        0.0000
      4 C4          5.0628   -3.3871   21.6541 C.2       1 UNL1        0.0000
      5 C5          7.0741   -3.7688   22.6126 C.ar      1 UNL1        0.0000
      6 C6          9.5771   -2.6306   22.0824 C.ar      1 UNL1        0.0000
      7 C7          5.6979   -4.1306   22.6221 C.2       1 UNL1        0.0000
      8 C8          7.2361   -2.7991   21.6208 C.ar      1 UNL1        0.0000
      9 C9         11.7582    2.8936   24.2066 C.2       1 UNL1        0.0000
     10 C10         6.8298   -5.1284   26.3292 C.2       1 UNL1        0.0000
     11 C11        10.6705    0.6886   24.4825 C.3       1 UNL1        0.0000
     12 C12        12.9310    0.7495   23.5029 C.3       1 UNL1        0.0000
     13 C13        10.1868   -0.2196   23.3615 C.3       1 UNL1        0.0000
     14 C14        12.4815   -0.1599   22.3673 C.3       1 UNL1        0.0000
     15 C15         8.0645   -4.5220   26.9089 C.3       1 UNL1        0.0000
     16 C16         5.7123   -1.6586   19.9833 C.3       1 UNL1        0.0000
     17 C17         5.0558   -5.1226   23.5079 C.3       1 UNL1        0.0000
     18 C18        10.9242   -2.0300   21.8078 C.3       1 UNL1        0.0000
     19 C19        12.9604    3.6659   23.7252 C.3       1 UNL1        0.0000
     20 C20         4.8259   -4.6239   24.9462 C.3       1 UNL1        0.0000
     21 N1          5.9989   -2.5872   21.0555 N.pl3     1 UNL1        0.0000
     22 N2         11.7992    1.5096   24.0441 N.am      1 UNL1        0.0000
     23 N3          6.0546   -4.2474   25.5923 N.am      1 UNL1        0.0000
     24 N4         11.3519   -1.0398   22.8542 N.4       1 UNL1        0.0000
     25 O1         10.8111    3.5039   24.7092 O.2       1 UNL1        0.0000
     26 O2          6.5874   -6.3129   26.5287 O.2       1 UNL1        0.0000
     27 Cl1        12.6179    5.3668   24.0209 Cl        1 UNL1        0.0000
@<TRIPOS>BOND
     1    1    2 ar
     2    1    5 ar
     3    2    6 ar
     4    3    6 ar
     5    3    8 ar
     6    4    7 2
     7    4   21 1
     8    5    7 1
     9    5    8 ar
    10    6   18 1
    11    7   17 1
    12    8   21 1
    13    9   19 1
    14    9   22 am
    15    9   25 2
    16   10   15 1
    17   10   23 am
    18   10   26 2
    19   11   13 1
    20   11   22 1
    21   12   14 1
    22   12   22 1
    23   13   24 1
    24   14   24 1
    25   16   21 1
    26   17   20 1
    27   18   24 1
    28   19   27 1
    29   20   23 1
@<TRIPOS>MOLECULE
DAV-CRI-8c8-1
   32    36     0     0     0
SMALL
NO_CHARGES

@<TRIPOS>ATOM
      1 C1          3.5706   -5.4347   22.7483 C.ar      1 UNL1        0.0000
      2 C2          3.1801   -4.1932   23.2499 C.ar      1 UNL1        0.0000
      3 C3          4.9252   -5.7532   22.6515 C.ar      1 UNL1        0.0000
      4 C4          8.6756   -4.3526   26.6242 C.ar      1 UNL1        0.0000
      5 C5          9.9013   -4.4671   25.9774 C.ar      1 UNL1        0.0000
      6 C6         12.4388   -0.9679   21.7059 C.ar      1 UNL1        0.0000
      7 C7          4.1442   -3.2700   23.6547 C.ar      1 UNL1        0.0000
      8 C8          5.8893   -4.8300   23.0563 C.ar      1 UNL1        0.0000
      9 C9          7.6055   -3.7339   25.9806 C.ar      1 UNL1        0.0000
     10 C10        10.0587   -3.9579   24.6889 C.ar      1 UNL1        0.0000
     11 C11        11.4466   -1.9449   21.7862 C.ar      1 UNL1        0.0000
     12 C12        12.2774    0.2466   22.3727 C.ar      1 UNL1        0.0000
     13 C13        10.1314   -0.4930   23.2000 C.ar      1 UNL1        0.0000
     14 C14         5.4989   -3.5884   23.5579 C.ar      1 UNL1        0.0000
     15 C15        10.2929   -1.7075   22.5332 C.ar      1 UNL1        0.0000
     16 C16         7.7499   -3.2155   24.6819 C.ar      1 UNL1        0.0000
     17 C17         8.9928   -3.3193   24.0292 C.ar      1 UNL1        0.0000
     18 C18        11.1236    0.4841   23.1198 C.ar      1 UNL1        0.0000
     19 C19         9.8580    2.1118   24.5910 C.2       1 UNL1        0.0000
     20 C20         7.8093   -2.4801   20.5854 C.2       1 UNL1        0.0000
     21 C21        10.0914    3.5438   25.0160 C.3       1 UNL1        0.0000
     22 C22        11.5868    3.7210   24.8442 C.3       1 UNL1        0.0000
     23 C23        11.9175    2.8076   23.6824 C.3       1 UNL1        0.0000
     24 C24         6.9709   -1.6667   22.8372 C.3       1 UNL1        0.0000
     25 C25         6.5525   -2.5804   23.9996 C.3       1 UNL1        0.0000
     26 C26         9.2068   -2.7776   22.6208 C.3       1 UNL1        0.0000
     27 C27         6.5388   -1.9497   19.9701 C.3       1 UNL1        0.0000
     28 N1         10.9592    1.7258   23.8020 N.am      1 UNL1        0.0000
     29 N2          7.9595   -2.3160   21.9676 N.am      1 UNL1        0.0000
     30 O1          8.8396    1.4988   24.8765 O.2       1 UNL1        0.0000
     31 O2          8.6441   -3.0269   19.8594 O.2       1 UNL1        0.0000
     32 Cl1         6.8498   -0.2717   19.5396 Cl        1 UNL1        0.0000
@<TRIPOS>BOND
     1    1    2 ar
     2    1    3 ar
     3    2    7 ar
     4    3    8 ar
     5    4    5 ar
     6    4    9 ar
     7    5   10 ar
     8    6   11 ar
     9    6   12 ar
    10    7   14 ar
    11    8   14 ar
    12    9   16 ar
    13   10   17 ar
    14   11   15 ar
    15   12   18 ar
    16   13   15 ar
    17   13   18 ar
    18   14   25 1
    19   15   26 1
    20   16   17 ar
    21   16   25 1
    22   17   26 1
    23   18   28 1
    24   19   21 1
    25   19   28 am
    26   19   30 2
    27   20   27 1
    28   20   29 am
    29   20   31 2
    30   21   22 1
    31   22   23 1
    32   23   28 1
    33   24   25 1
    34   24   29 1
    35   26   29 1
    36   27   32 1
@<TRIPOS>MOLECULE
INS-INS-9c6-1
   38    42     0     0     0
SMALL
NO_CHARGES

@<TRIPOS>ATOM
      1 C1         10.7933    1.4072   25.1211 C.ar      1 UNL1        0.0000
      2 C2         11.3077    2.6339   25.5417 C.ar      1 UNL1        0.0000
      3 C3          7.0982   -5.4437   22.4532 C.ar      1 UNL1        0.0000
      4 C4         13.1522    2.3890   24.0037 C.ar      1 UNL1        0.0000
      5 C5         13.3072    0.3992   22.5826 C.ar      1 UNL1        0.0000
      6 C6         11.6156   -1.3175   22.7198 C.ar      1 UNL1        0.0000
      7 C7          7.7190   -6.4465   23.1698 C.ar      1 UNL1        0.0000
      8 C8          8.3106   -4.9815   24.8040 C.ar      1 UNL1        0.0000
      9 C9         11.4517    0.6540   24.1355 C.ar      1 UNL1        0.0000
     10 C10        12.6488    1.1523   23.5684 C.ar      1 UNL1        0.0000
     11 C11        12.4849    3.1239   24.9841 C.ar      1 UNL1        0.0000
     12 C12        12.7928   -0.8275   22.1621 C.ar      1 UNL1        0.0000
     13 C13        10.9483   -0.5827   23.7002 C.ar      1 UNL1        0.0000
     14 C14         7.1410   -4.1880   23.0237 C.ar      1 UNL1        0.0000
     15 C15         5.2952    2.5017   22.9017 C.2       1 UNL1        0.0000
     16 C16         7.1128    3.0951   21.8754 C.2       1 UNL1        0.0000
     17 C17         6.0180   -1.7889   19.4575 C.2       1 UNL1        0.0000
     18 C18         7.0089    0.1168   20.7983 C.3       1 UNL1        0.0000
     19 C19         8.1708    0.3835   23.0675 C.3       1 UNL1        0.0000
     20 C20         8.7620   -1.8641   22.0606 C.3       1 UNL1        0.0000
     21 C21         6.8719    0.5465   22.2703 C.3       1 UNL1        0.0000
     22 C22         7.4741   -2.3294   21.3677 C.3       1 UNL1        0.0000
     23 C23        13.0344    4.4354   25.4341 C.3       1 UNL1        0.0000
     24 C24        13.5054   -1.6141   21.1143 C.3       1 UNL1        0.0000
     25 C25         4.2732    1.6489   23.5343 C.3       1 UNL1        0.0000
     26 C26         8.4162    3.0010   21.1942 C.3       1 UNL1        0.0000
     27 C27         9.6858   -1.1690   24.2597 C.3       1 UNL1        0.0000
     28 C28         6.4919   -3.0317   22.3170 C.3       1 UNL1        0.0000
     29 C29         5.9889   -0.9443   18.2074 C.3       1 UNL1        0.0000
     30 N1          8.3371   -6.2500   24.3528 N.ar      1 UNL1        0.0000
     31 N2          7.7407   -3.9200   24.2023 N.ar      1 UNL1        0.0000
     32 N3          5.2697    3.8095   22.7781 N.2       1 UNL1        0.0000
     33 N4          6.4261    4.1870   22.1253 N.2       1 UNL1        0.0000
     34 N5          6.4379    2.0103   22.3471 N.pl3     1 UNL1        0.0000
     35 N6          6.7871   -1.3170   20.5392 N.am      1 UNL1        0.0000
     36 N7          8.5120   -1.0623   23.3120 N.4       1 UNL1        0.0000
     37 O1          5.3755   -2.8434   19.4748 O.2       1 UNL1        0.0000
     38 Cl1         7.6562   -0.7904   17.6661 Cl        1 UNL1        0.0000
@<TRIPOS>BOND
     1    1    2 ar
     2    1    9 ar
     3    2   11 ar
     4    3    7 ar
     5    3   14 ar
     6    4   10 ar
     7    4   11 ar
     8    5   10 ar
     9    5   12 ar
    10    6   12 ar
    11    6   13 ar
    12    7   30 ar
    13    8   30 ar
    14    8   31 ar
    15    9   10 ar
    16    9   13 ar
    17   11   23 1
    18   12   24 1
    19   13   27 1
    20   14   28 1
    21   14   31 ar
    22   15   25 1
    23   15   32 2
    24   15   34 1
    25   16   26 1
    26   16   33 2
    27   16   34 1
    28   17   29 1
    29   17   35 am
    30   17   37 2
    31   18   21 1
    32   18   35 1
    33   19   21 1
    34   19   36 1
    35   20   22 1
    36   20   36 1
    37   21   34 1
    38   22   28 1
    39   22   35 1
    40   27   36 1
    41   29   38 1
    42   32   33 1
@<TRIPOS>MOLECULE
CHA-KIN-87c-2
   43    45     0     0     0
SMALL
NO_CHARGES

@<TRIPOS>ATOM
      1 C1          6.3261    8.0300   25.4355 C.ar      1 UNL1        0.0000
      2 C2          7.6739    7.7535   25.6645 C.ar      1 UNL1        0.0000
      3 C3          5.6103    7.2839   24.4991 C.ar      1 UNL1        0.0000
      4 C4         12.5590    0.3270   24.7196 C.ar      1 UNL1        0.0000
      5 C5         12.8005   -0.0609   22.3472 C.ar      1 UNL1        0.0000
      6 C6         13.2591   -0.8502   24.9833 C.ar      1 UNL1        0.0000
      7 C7         13.5007   -1.2381   22.6109 C.ar      1 UNL1        0.0000
      8 C8         12.3295    0.7216   23.4015 C.ar      1 UNL1        0.0000
      9 C9          8.3060    6.7309   24.9571 C.ar      1 UNL1        0.0000
     10 C10         6.2424    6.2613   23.7918 C.ar      1 UNL1        0.0000
     11 C11         7.5903    5.9848   24.0207 C.ar      1 UNL1        0.0000
     12 C12        13.7301   -1.6327   23.9290 C.ar      1 UNL1        0.0000
     13 C13         4.5104    1.7472   21.5400 C.2       1 UNL1        0.0000
     14 C14         9.4430   -0.9941   26.4023 C.2       1 UNL1        0.0000
     15 C15         9.7457    0.8749   21.8011 C.2       1 UNL1        0.0000
     16 C16         8.8470    3.8032   23.8164 C.2       1 UNL1        0.0000
     17 C17         6.7992    1.4138   18.7802 C.3       1 UNL1        0.0000
     18 C18         5.3430    1.4571   19.2305 C.3       1 UNL1        0.0000
     19 C19         7.4198    0.0415   19.0045 C.3       1 UNL1        0.0000
     20 C20         5.7843   -0.3380   20.8645 C.3       1 UNL1        0.0000
     21 C21         9.7510    6.4584   25.2244 C.3       1 UNL1        0.0000
     22 C22        11.5723    1.9958   23.1159 C.3       1 UNL1        0.0000
     23 C23         5.4485    5.4797   22.7957 C.3       1 UNL1        0.0000
     24 C24         4.4135    1.1867   22.9366 C.3       1 UNL1        0.0000
     25 C25         8.5224   -1.7694   25.4783 C.3       1 UNL1        0.0000
     26 C26         8.4228   -1.1770   24.0717 C.3       1 UNL1        0.0000
     27 C27         9.7632   -1.0818   23.3461 C.3       1 UNL1        0.0000
     28 C28         9.3853   -1.4670   20.9450 C.3       1 UNL1        0.0000
     29 C29         7.8936   -1.6702   20.7582 C.3       1 UNL1        0.0000
     30 C30        10.0591    1.7761   22.9973 C.3       1 UNL1        0.0000
     31 N1          5.2049    0.9789   20.6057 N.am      1 UNL1        0.0000
     32 N2         10.0370   -1.8014   27.3488 N.am      1 UNL1        0.0000
     33 N3          8.2312    4.9481   23.3031 N.am      1 UNL1        0.0000
     34 N4          9.3639    3.0243   22.7767 N.am      1 UNL1        0.0000
     35 N5          9.6379   -0.4903   22.0278 N.am      1 UNL1        0.0000
     36 N6          7.2369   -0.3545   20.4506 N.4       1 UNL1        0.0000
     37 O1          3.9856    2.8352   21.2892 O.2       1 UNL1        0.0000
     38 O2          9.6220    0.2183   26.3336 O.2       1 UNL1        0.0000
     39 O3          9.6367    1.3658   20.6721 O.2       1 UNL1        0.0000
     40 O4          8.9412    3.4906   25.0009 O.2       1 UNL1        0.0000
     41 O5         14.4144   -2.7807   24.1866 O.3       1 UNL1        0.0000
     42 O6          5.8080    5.8899   21.4831 O.3       1 UNL1        0.0000
     43 Cl1         5.8315    1.7586   23.8083 Cl        1 UNL1        0.0000
@<TRIPOS>BOND
     1    1    2 ar
     2    1    3 ar
     3    2    9 ar
     4    3   10 ar
     5    4    6 ar
     6    4    8 ar
     7    5    7 ar
     8    5    8 ar
     9    6   12 ar
    10    7   12 ar
    11    8   22 1
    12    9   11 ar
    13    9   21 1
    14   10   11 ar
    15   10   23 1
    16   11   33 1
    17   12   41 1
    18   13   24 1
    19   13   31 am
    20   13   37 2
    21   14   25 1
    22   14   32 am
    23   14   38 2
    24   15   30 1
    25   15   35 am
    26   15   39 2
    27   16   33 am
    28   16   34 am
    29   16   40 2
    30   17   18 1
    31   17   19 1
    32   18   31 1
    33   19   36 1
    34   20   31 1
    35   20   36 1
    36   22   30 1
    37   23   42 1
    38   24   43 1
    39   25   26 1
    40   26   27 1
    41   27   35 1
    42   28   29 1
    43   28   35 1
    44   29   36 1
    45   30   34 1
@<TRIPOS>MOLECULE
BEN-VAN-d2b-1
   29    31     0     0     0
SMALL
NO_CHARGES

@<TRIPOS>ATOM
      1 C1         13.2133    0.1952   23.7313 C.1       1 UNL1        0.0000
      2 C2         10.7466    2.9940   23.6739 C.ar      1 UNL1        0.0000
      3 C3         13.3728    2.5396   23.0890 C.ar      1 UNL1        0.0000
      4 C4          7.0153   -0.3353   25.0553 C.2       1 UNL1        0.0000
      5 C5          8.4212    1.6740   25.2451 C.2       1 UNL1        0.0000
      6 C6         12.6135    1.4818   23.5624 C.ar      1 UNL1        0.0000
      7 C7          8.2997   -0.5585   24.6101 C.2       1 UNL1        0.0000
      8 C8         11.2762    1.7216   23.8580 C.ar      1 UNL1        0.0000
      9 C9          9.1142    0.6053   24.7201 C.2       1 UNL1        0.0000
     10 C10        11.5896    3.9842   23.1957 C.ar      1 UNL1        0.0000
     11 C11         4.8643    1.5176   20.4366 C.2       1 UNL1        0.0000
     12 C12         5.5856    0.5690   21.0417 C.2       1 UNL1        0.0000
     13 C13         7.0721    0.6049   20.9883 C.2       1 UNL1        0.0000
     14 C14         9.0096   -0.6892   21.7957 C.2       1 UNL1        0.0000
     15 C15        10.9025   -3.0911   23.9360 C.3       1 UNL1        0.0000
     16 C16         9.9003   -2.5153   24.9275 C.3       1 UNL1        0.0000
     17 C17        10.8115   -2.1521   22.7465 C.3       1 UNL1        0.0000
     18 C18         8.7744   -1.8926   24.0695 C.3       1 UNL1        0.0000
     19 C19         9.3123   -1.9043   22.6169 C.3       1 UNL1        0.0000
     20 C20         9.4662    5.7950   24.7630 C.3       1 UNL1        0.0000
     21 C21         9.6718    5.5768   23.3026 C.3       1 UNL1        0.0000
     22 N1         13.7003   -0.8492   23.8684 N.1       1 UNL1        0.0000
     23 N2         12.8937    3.7891   22.8973 N.ar      1 UNL1        0.0000
     24 N3         10.4168    0.6691   24.3560 N.pl3     1 UNL1        0.0000
     25 N4         11.0362    5.2762   23.0142 N.pl3     1 UNL1        0.0000
     26 N5          7.6390   -0.4655   21.6760 N.am      1 UNL1        0.0000
     27 O1          7.6888    1.4874   20.4005 O.2       1 UNL1        0.0000
     28 O2          9.8999    0.0113   21.3215 O.2       1 UNL1        0.0000
     29 S1          6.7955    1.2723   25.6030 S.3       1 UNL1        0.0000
@<TRIPOS>BOND
     1    1    6 1
     2    1   22 3
     3    2    8 ar
     4    2   10 ar
     5    3    6 ar
     6    3   23 ar
     7    4    7 2
     8    4   29 1
     9    5    9 2
    10    5   29 1
    11    6    8 ar
    12    7    9 1
    13    7   18 1
    14    8   24 1
    15    9   24 1
    16   10   23 ar
    17   10   25 1
    18   11   12 2
    19   12   13 1
    20   13   26 am
    21   13   27 2
    22   14   19 1
    23   14   26 am
    24   14   28 2
    25   15   16 1
    26   15   17 1
    27   16   18 1
    28   17   19 1
    29   18   19 1
    30   20   21 1
    31   21   25 1
@<TRIPOS>MOLECULE
JIA-UNI-93b-1
   22    23     0     0     0
SMALL
NO_CHARGES

@<TRIPOS>ATOM
      1 C1         11.4296   -1.3032   22.4823 C.ar      1 UNL1        0.0000
      2 C2         10.6584   -1.0887   24.7619 C.ar      1 UNL1        0.0000
      3 C3         12.1714   -0.1304   22.6229 C.ar      1 UNL1        0.0000
      4 C4         11.4003    0.0842   24.9024 C.ar      1 UNL1        0.0000
      5 C5         10.6730   -1.7823   23.5518 C.ar      1 UNL1        0.0000
      6 C6         12.1568    0.5633   23.8329 C.ar      1 UNL1        0.0000
      7 C7          5.8854   -2.5630   20.2603 C.2       1 UNL1        0.0000
      8 C8          7.4265   -3.9492   21.6091 C.3       1 UNL1        0.0000
      9 C9          7.7656   -1.5040   21.6046 C.3       1 UNL1        0.0000
     10 C10         7.5446   -3.9819   23.1258 C.3       1 UNL1        0.0000
     11 C11         7.8912   -1.5037   23.1223 C.3       1 UNL1        0.0000
     12 C12         9.8748   -3.0438   23.4015 C.3       1 UNL1        0.0000
     13 C13        12.9517    1.8163   23.9829 C.3       1 UNL1        0.0000
     14 C14         5.4667   -1.1808   19.8266 C.3       1 UNL1        0.0000
     15 N1          6.9641   -2.6421   21.1409 N.am      1 UNL1        0.0000
     16 N2          8.4004   -2.8374   23.6168 N.4       1 UNL1        0.0000
     17 O1          5.2693   -3.5416   19.8303 O.2       1 UNL1        0.0000
     18 O2         10.7962    3.2642   23.6373 O.2       1 UNL1        0.0000
     19 O3         12.3419    2.8803   21.6681 O.2       1 UNL1        0.0000
     20 F1         12.9009    4.4363   23.4321 F         1 UNL1        0.0000
     21 S1         12.1273    3.0924   23.0870 S.o2      1 UNL1        0.0000
     22 Cl1         6.4142   -0.7935   18.3947 Cl        1 UNL1        0.0000
@<TRIPOS>BOND
     1    1    3 ar
     2    1    5 ar
     3    2    4 ar
     4    2    5 ar
     5    3    6 ar
     6    4    6 ar
     7    5   12 1
     8    6   13 1
     9    7   14 1
    10    7   15 am
    11    7   17 2
    12    8   10 1
    13    8   15 1
    14    9   11 1
    15    9   15 1
    16   10   16 1
    17   11   16 1
    18   12   16 1
    19   13   21 1
    20   14   22 1
    21   18   21 2
    22   19   21 2
    23   20   21 1
@<TRIPOS>MOLECULE
WAR-XCH-79d-5
   23    25     0     0     0
SMALL
NO_CHARGES

@<TRIPOS>ATOM
      1 C1          7.2411   -6.5161   21.1209 C.ar      1 UNL1        0.0000
      2 C2          7.7808   -5.6242   22.0410 C.ar      1 UNL1        0.0000
      3 C3          6.1446   -6.1015   20.3822 C.ar      1 UNL1        0.0000
      4 C4          6.1204   -4.0446   21.4053 C.ar      1 UNL1        0.0000
      5 C5          7.2156   -4.3629   22.1921 C.ar      1 UNL1        0.0000
      6 C6          3.7820   -6.3425   27.0668 C.2       1 UNL1        0.0000
      7 C7          9.9919   -1.7402   21.9388 C.3       1 UNL1        0.0000
      8 C8          8.5260   -1.4198   21.6663 C.3       1 UNL1        0.0000
      9 C9         10.1920   -3.2005   22.3300 C.3       1 UNL1        0.0000
     10 C10         7.6220   -1.8548   22.8252 C.3       1 UNL1        0.0000
     11 C11         9.2943   -3.5861   23.5074 C.3       1 UNL1        0.0000
     12 C12         6.2447   -5.8486   24.5101 C.3       1 UNL1        0.0000
     13 C13         7.0229   -4.7522   26.6548 C.3       1 UNL1        0.0000
     14 C14         4.8004   -5.5935   24.9406 C.3       1 UNL1        0.0000
     15 C15         5.5592   -4.5235   27.0354 C.3       1 UNL1        0.0000
     16 C16         7.2318   -4.8649   25.1428 C.3       1 UNL1        0.0000
     17 C17         7.7890   -3.3538   23.1999 C.3       1 UNL1        0.0000
     18 C18         4.1506   -6.7620   28.4674 C.3       1 UNL1        0.0000
     19 N1          5.5683   -4.8844   20.5011 N.ar      1 UNL1        0.0000
     20 N2          4.6922   -5.5233   26.3992 N.am      1 UNL1        0.0000
     21 N3          7.0597   -3.5219   24.5189 N.4       1 UNL1        0.0000
     22 O1          2.7173   -6.7339   26.5817 O.2       1 UNL1        0.0000
     23 Cl1         3.5269   -5.5191   29.5462 Cl        1 UNL1        0.0000
@<TRIPOS>BOND
     1    1    2 ar
     2    1    3 ar
     3    2    5 ar
     4    3   19 ar
     5    4    5 ar
     6    4   19 ar
     7    5   17 1
     8    6   18 1
     9    6   20 am
    10    6   22 2
    11    7    8 1
    12    7    9 1
    13    8   10 1
    14    9   11 1
    15   10   17 1
    16   11   17 1
    17   12   14 1
    18   12   16 1
    19   13   15 1
    20   13   16 1
    21   14   20 1
    22   15   20 1
    23   16   21 1
    24   17   21 1
    25   18   23 1
@<TRIPOS>MOLECULE
PED-UNI-d0b-1
   32    35     0     0     0
SMALL
NO_CHARGES

@<TRIPOS>ATOM
      1 C1          6.4362   -1.6825   22.1283 C.ar      1 UNL1        0.0000
      2 C2          6.0812   -1.2196   20.8632 C.ar      1 UNL1        0.0000
      3 C3         13.4431    0.1998   23.5349 C.2       1 UNL1        0.0000
      4 C4         14.6332    0.3230   22.7612 C.2       1 UNL1        0.0000
      5 C5          8.3828   -0.6235   20.4427 C.ar      1 UNL1        0.0000
      6 C6          7.7708   -1.6270   22.5556 C.ar      1 UNL1        0.0000
      7 C7          8.7584   -1.0721   21.7177 C.ar      1 UNL1        0.0000
      8 C8          7.0547   -0.6942   20.0190 C.ar      1 UNL1        0.0000
      9 C9         12.4315    1.0052   23.0601 C.2       1 UNL1        0.0000
     10 C10        14.4857    1.2180   21.7242 C.2       1 UNL1        0.0000
     11 C11         9.9131    6.3030   25.3455 C.2       1 UNL1        0.0000
     12 C12         8.1319   -2.1216   23.9338 C.3       1 UNL1        0.0000
     13 C13         9.6206   -2.4539   24.0298 C.3       1 UNL1        0.0000
     14 C14         9.4201    3.8491   25.7958 C.3       1 UNL1        0.0000
     15 C15        11.6857    4.5863   25.1652 C.3       1 UNL1        0.0000
     16 C16         9.4727    2.7406   24.7531 C.3       1 UNL1        0.0000
     17 C17        11.7715    3.4906   24.1128 C.3       1 UNL1        0.0000
     18 C18        10.4978   -1.3310   23.4673 C.3       1 UNL1        0.0000
     19 C19         8.4747    6.5759   24.9849 C.3       1 UNL1        0.0000
     20 C20        10.4856   -0.0721   24.3326 C.3       1 UNL1        0.0000
     21 C21        11.0250    1.1648   23.5948 C.3       1 UNL1        0.0000
     22 N1         10.0889   -0.9985   22.1107 N.pl3     1 UNL1        0.0000
     23 N2         10.2953    4.9643   25.4189 N.am      1 UNL1        0.0000
     24 N3          6.8164   -1.5489   17.5055 N.pl3     1 UNL1        0.0000
     25 N4         10.9114    2.3239   24.5445 N.4       1 UNL1        0.0000
     26 O1         10.6732    7.2523   25.5529 O.2       1 UNL1        0.0000
     27 O2          5.2031    0.2308   18.4412 O.2       1 UNL1        0.0000
     28 O3          7.6036    0.8542   17.9977 O.2       1 UNL1        0.0000
     29 S1         12.9177    1.9052   21.6868 S.3       1 UNL1        0.0000
     30 S2          6.6151   -0.1248   18.4280 S.o2      1 UNL1        0.0000
     31 Cl1         8.4471    8.1348   24.1682 Cl        1 UNL1        0.0000
     32 Br1        15.8497    1.6501   20.4752 Br        1 UNL1        0.0000
@<TRIPOS>BOND
     1    1    2 ar
     2    1    6 ar
     3    2    8 ar
     4    3    4 1
     5    3    9 2
     6    4   10 2
     7    5    7 ar
     8    5    8 ar
     9    6    7 ar
    10    6   12 1
    11    7   22 1
    12    8   30 1
    13    9   21 1
    14    9   29 1
    15   10   29 1
    16   10   32 1
    17   11   19 1
    18   11   23 am
    19   11   26 2
    20   12   13 1
    21   13   18 1
    22   14   16 1
    23   14   23 1
    24   15   17 1
    25   15   23 1
    26   16   25 1
    27   17   25 1
    28   18   20 1
    29   18   22 1
    30   19   31 1
    31   20   21 1
    32   21   25 1
    33   24   30 1
    34   27   30 2
    35   28   30 2
@<TRIPOS>MOLECULE
DAV-CRI-f9b-10
   42    45     0     0     0
SMALL
NO_CHARGES

@<TRIPOS>ATOM
      1 C1         13.4690    0.5759   23.0883 C.ar      1 UNL1        0.0000
      2 C2         13.3308   -0.3742   24.1001 C.ar      1 UNL1        0.0000
      3 C3         12.8559   -3.5254   25.6626 C.ar      1 UNL1        0.0000
      4 C4         12.4951   -4.7963   25.2078 C.ar      1 UNL1        0.0000
      5 C5         12.7458    1.7672   23.1467 C.ar      1 UNL1        0.0000
      6 C6         10.5725   -2.7500   25.4430 C.ar      1 UNL1        0.0000
      7 C7         11.7460    1.0582   25.2287 C.ar      1 UNL1        0.0000
      8 C8         11.9087   -2.5141   25.7794 C.ar      1 UNL1        0.0000
      9 C9         12.4693   -0.1331   25.1703 C.ar      1 UNL1        0.0000
     10 C10        10.1811   -4.0252   24.9808 C.ar      1 UNL1        0.0000
     11 C11        11.1513   -5.0261   24.8715 C.ar      1 UNL1        0.0000
     12 C12        11.8843    2.0084   24.2169 C.ar      1 UNL1        0.0000
     13 C13         8.9028   -5.6606   24.2336 C.2       1 UNL1        0.0000
     14 C14         4.8473   -4.0801   24.6708 C.2       1 UNL1        0.0000
     15 C15         6.5068    0.1258   19.5212 C.2       1 UNL1        0.0000
     16 C16         6.5858   -2.8142   20.9170 C.2       1 UNL1        0.0000
     17 C17         7.5841   -6.4352   22.2191 C.3       1 UNL1        0.0000
     18 C18         6.2425   -5.9399   21.6861 C.3       1 UNL1        0.0000
     19 C19         6.3412   -6.0221   24.4304 C.3       1 UNL1        0.0000
     20 C20         7.6698   -6.4207   23.7603 C.3       1 UNL1        0.0000
     21 C21         5.7945   -4.6577   22.3880 C.3       1 UNL1        0.0000
     22 C22        11.3849   -2.2232   21.4960 C.3       1 UNL1        0.0000
     23 C23        12.3197   -1.1656   26.2690 C.3       1 UNL1        0.0000
     24 C24         4.1600   -2.8968   24.0336 C.3       1 UNL1        0.0000
     25 C25         7.5582   -0.9700   19.5145 C.3       1 UNL1        0.0000
     26 C26         7.6515   -1.7339   20.8356 C.3       1 UNL1        0.0000
     27 C27        10.0964   -1.4095   21.4060 C.3       1 UNL1        0.0000
     28 N1          8.8986   -4.4037   24.6116 N.2       1 UNL1        0.0000
     29 N2          5.6681   -4.8570   23.8431 N.am      1 UNL1        0.0000
     30 N3          6.3879    0.7441   18.2945 N.am      1 UNL1        0.0000
     31 N4          9.8360   -0.7744   22.6940 N.3       1 UNL1        0.0000
     32 N5          9.5546    3.0554   23.4546 N.pl3     1 UNL1        0.0000
     33 N6          6.6953   -3.5724   22.0727 N.am      1 UNL1        0.0000
     34 N7          9.0088   -2.3437   20.9490 N.4       1 UNL1        0.0000
     35 O1          4.6544   -4.3154   25.8668 O.2       1 UNL1        0.0000
     36 O2          5.8337    0.4266   20.5025 O.2       1 UNL1        0.0000
     37 O3          5.7323   -2.9708   20.0467 O.2       1 UNL1        0.0000
     38 O4         10.6434    3.7667   25.6804 O.2       1 UNL1        0.0000
     39 O5         11.6825    4.5065   23.5077 O.2       1 UNL1        0.0000
     40 S1         10.4092   -6.4691   24.2886 S.3       1 UNL1        0.0000
     41 S2         10.9784    3.4990   24.2887 S.o2      1 UNL1        0.0000
     42 Cl1         5.2334   -1.5181   24.2442 Cl        1 UNL1        0.0000
@<TRIPOS>BOND
     1    1    2 ar
     2    1    5 ar
     3    2    9 ar
     4    3    4 ar
     5    3    8 ar
     6    4   11 ar
     7    5   12 ar
     8    6    8 ar
     9    6   10 ar
    10    7    9 ar
    11    7   12 ar
    12    8   23 1
    13    9   23 1
    14   10   11 ar
    15   10   28 1
    16   11   40 1
    17   12   41 1
    18   13   20 1
    19   13   28 2
    20   13   40 1
    21   14   24 1
    22   14   29 am
    23   14   35 2
    24   15   25 1
    25   15   30 am
    26   15   36 2
    27   16   26 1
    28   16   33 am
    29   16   37 2
    30   17   18 1
    31   17   20 1
    32   18   21 1
    33   19   20 1
    34   19   29 1
    35   21   29 1
    36   21   33 1
    37   22   27 1
    38   24   42 1
    39   25   26 1
    40   26   34 1
    41   27   31 1
    42   27   34 1
    43   32   41 1
    44   38   41 2
    45   39   41 2
@<TRIPOS>MOLECULE
BEN-VAN-d2b-14
   30    32     0     0     0
SMALL
NO_CHARGES

@<TRIPOS>ATOM
      1 C1          6.6402   -0.2204   23.7877 C.1       1 UNL1        0.0000
      2 C2          7.5815   -2.6481   26.4600 C.ar      1 UNL1        0.0000
      3 C3          5.4703   -2.0888   24.8242 C.ar      1 UNL1        0.0000
      4 C4         10.4447    2.2742   24.4605 C.2       1 UNL1        0.0000
      5 C5          6.6030   -1.2967   24.7277 C.ar      1 UNL1        0.0000
      6 C6         10.4145    0.9120   24.6630 C.2       1 UNL1        0.0000
      7 C7          7.6743   -1.5883   25.5647 C.ar      1 UNL1        0.0000
      8 C8          9.1788    0.4820   25.2272 C.2       1 UNL1        0.0000
      9 C9          6.4049   -3.3795   26.4791 C.ar      1 UNL1        0.0000
     10 C10         8.3116    1.5322   25.4347 C.2       1 UNL1        0.0000
     11 C11         7.3859   -4.8828   22.4761 C.2       1 UNL1        0.0000
     12 C12         8.4916   -4.1764   22.7306 C.2       1 UNL1        0.0000
     13 C13         8.6034   -2.7638   22.2771 C.2       1 UNL1        0.0000
     14 C14        10.2087   -0.8933   22.3458 C.2       1 UNL1        0.0000
     15 C15        13.3538    1.0554   22.9879 C.3       1 UNL1        0.0000
     16 C16        12.9628    0.6454   24.4109 C.3       1 UNL1        0.0000
     17 C17        12.2872    0.4856   22.0579 C.3       1 UNL1        0.0000
     18 C18        11.5739   -0.0096   24.3184 C.3       1 UNL1        0.0000
     19 C19        11.5669   -0.5709   22.8858 C.3       1 UNL1        0.0000
     20 C20         5.1375   -6.3184   26.4411 C.3       1 UNL1        0.0000
     21 C21         5.1685   -5.2837   27.5140 C.3       1 UNL1        0.0000
     22 N1          6.6705    0.6533   23.0245 N.1       1 UNL1        0.0000
     23 N2          5.3431   -3.1264   25.6814 N.ar      1 UNL1        0.0000
     24 N3          8.8919   -0.8090   25.5242 N.pl3     1 UNL1        0.0000
     25 N4          6.3243   -4.4559   27.3975 N.pl3     1 UNL1        0.0000
     26 N5          9.8259   -2.2016   22.6366 N.am      1 UNL1        0.0000
     27 O1          7.7054   -2.1962   21.6637 O.2       1 UNL1        0.0000
     28 O2          9.5366   -0.0616   21.7418 O.2       1 UNL1        0.0000
     29 S1          8.9875    3.0289   24.9499 S.3       1 UNL1        0.0000
     30 Cl1         6.7234    1.4982   26.0878 Cl        1 UNL1        0.0000
@<TRIPOS>BOND
     1    1    5 1
     2    1   22 3
     3    2    7 ar
     4    2    9 ar
     5    3    5 ar
     6    3   23 ar
     7    4    6 2
     8    4   29 1
     9    5    7 ar
    10    6    8 1
    11    6   18 1
    12    7   24 1
    13    8   10 2
    14    8   24 1
    15    9   23 ar
    16    9   25 1
    17   10   29 1
    18   10   30 1
    19   11   12 2
    20   12   13 1
    21   13   26 am
    22   13   27 2
    23   14   19 1
    24   14   26 am
    25   14   28 2
    26   15   16 1
    27   15   17 1
    28   16   18 1
    29   17   19 1
    30   18   19 1
    31   20   21 1
    32   21   25 1
@<TRIPOS>MOLECULE
MAK-UNK-e4a-27
   28    30     0     0     0
SMALL
NO_CHARGES

@<TRIPOS>ATOM
      1 C1         11.6539   -0.4124   25.4823 C.ar      1 UNL1        0.0000
      2 C2         11.6092   -1.8027   25.3784 C.ar      1 UNL1        0.0000
      3 C3         11.5728    0.3758   24.3343 C.ar      1 UNL1        0.0000
      4 C4         11.4022   -1.6166   22.9784 C.ar      1 UNL1        0.0000
      5 C5         11.4833   -2.4048   24.1265 C.ar      1 UNL1        0.0000
      6 C6         11.4470   -0.2263   23.0824 C.ar      1 UNL1        0.0000
      7 C7          9.2513   -4.6516   24.7844 C.2       1 UNL1        0.0000
      8 C8          8.3766   -3.8111   25.3807 C.2       1 UNL1        0.0000
      9 C9          9.3086   -6.0585   25.2990 C.2       1 UNL1        0.0000
     10 C10         7.5987   -5.3735   26.8515 C.2       1 UNL1        0.0000
     11 C11         6.3248   -0.7073   20.5444 C.2       1 UNL1        0.0000
     12 C12         6.9998   -2.5480   22.0516 C.3       1 UNL1        0.0000
     13 C13         7.2723   -0.2297   22.8548 C.3       1 UNL1        0.0000
     14 C14         6.3452   -2.9467   23.3661 C.3       1 UNL1        0.0000
     15 C15         6.6234   -0.5977   24.1824 C.3       1 UNL1        0.0000
     16 C16         6.7185   -5.8215   27.9819 C.3       1 UNL1        0.0000
     17 C17        11.4357   -3.9012   24.0147 C.3       1 UNL1        0.0000
     18 C18         8.2173   -2.3928   24.9705 C.3       1 UNL1        0.0000
     19 C19         6.1653    0.7787   20.3432 C.3       1 UNL1        0.0000
     20 N1          7.5386   -4.1549   26.4218 N.2       1 UNL1        0.0000
     21 N2          8.4427   -6.3262   26.3372 N.am      1 UNL1        0.0000
     22 N3          6.8204   -1.1212   21.7807 N.am      1 UNL1        0.0000
     23 N4         10.1053   -4.3791   23.7556 N.pl3     1 UNL1        0.0000
     24 N5          6.8305   -2.0621   24.4910 N.4       1 UNL1        0.0000
     25 O1         10.0732   -6.8923   24.8202 O.2       1 UNL1        0.0000
     26 O2          6.0151   -1.4755   19.6301 O.2       1 UNL1        0.0000
     27 O3         11.3672    0.5429   21.9622 O.3       1 UNL1        0.0000
     28 Cl1         5.5653    1.0035   18.7039 Cl        1 UNL1        0.0000
@<TRIPOS>BOND
     1    1    2 ar
     2    1    3 ar
     3    2    5 ar
     4    3    6 ar
     5    4    5 ar
     6    4    6 ar
     7    5   17 1
     8    6   27 1
     9    7    8 2
    10    7    9 1
    11    7   23 1
    12    8   18 1
    13    8   20 1
    14    9   21 am
    15    9   25 2
    16   10   16 1
    17   10   20 2
    18   10   21 1
    19   11   19 1
    20   11   22 am
    21   11   26 2
    22   12   14 1
    23   12   22 1
    24   13   15 1
    25   13   22 1
    26   14   24 1
    27   15   24 1
    28   17   23 1
    29   18   24 1
    30   19   28 1
@<TRIPOS>MOLECULE
MAK-UNK-702-7
   43    48     0     0     0
SMALL
NO_CHARGES

@<TRIPOS>ATOM
      1 C1          5.0981   -6.2392   22.0079 C.ar      1 UNL1        0.0000
      2 C2          7.1645   -0.4722   18.8941 C.ar      1 UNL1        0.0000
      3 C3          4.1067   -5.8503   22.9086 C.ar      1 UNL1        0.0000
      4 C4          6.4381   -5.9699   22.2865 C.ar      1 UNL1        0.0000
      5 C5          6.3920   -6.8771   29.0418 C.ar      1 UNL1        0.0000
      6 C6          5.1565   -6.5015   28.5243 C.ar      1 UNL1        0.0000
      7 C7          6.4154    0.6209   18.4587 C.ar      1 UNL1        0.0000
      8 C8         12.6712   -0.9498   22.0181 C.ar      1 UNL1        0.0000
      9 C9          7.4231   -0.6432   20.2541 C.ar      1 UNL1        0.0000
     10 C10         4.4552   -5.1920   24.0880 C.ar      1 UNL1        0.0000
     11 C11         6.7866   -5.3116   23.4658 C.ar      1 UNL1        0.0000
     12 C12         7.5648   -6.3897   28.4661 C.ar      1 UNL1        0.0000
     13 C13         5.0940   -5.6367   27.4328 C.ar      1 UNL1        0.0000
     14 C14         5.9251    1.5431   19.3833 C.ar      1 UNL1        0.0000
     15 C15        11.4744   -0.2732   21.8108 C.ar      1 UNL1        0.0000
     16 C16         6.4632   -0.5894   23.5242 C.2       1 UNL1        0.0000
     17 C17        13.3817   -0.6715   23.1746 C.ar      1 UNL1        0.0000
     18 C18        11.8147    0.8548   23.8768 C.ar      1 UNL1        0.0000
     19 C19         8.2743    0.2723   24.5476 C.2       1 UNL1        0.0000
     20 C20         6.9328    0.2790   21.1787 C.ar      1 UNL1        0.0000
     21 C21         5.7951   -4.9227   24.3666 C.ar      1 UNL1        0.0000
     22 C22         7.5164   -5.5212   27.3644 C.ar      1 UNL1        0.0000
     23 C23         6.2691   -5.1372   26.8469 C.ar      1 UNL1        0.0000
     24 C24         7.1402   -0.4790   24.7638 C.2       1 UNL1        0.0000
     25 C25         6.1837    1.3721   20.7433 C.ar      1 UNL1        0.0000
     26 C26        11.0308    0.6481   22.7531 C.ar      1 UNL1        0.0000
     27 C27         7.2043    0.0976   22.5882 C.2       1 UNL1        0.0000
     28 C28         9.7404   -3.9329   24.7003 C.2       1 UNL1        0.0000
     29 C29         8.8125   -5.0249   26.7783 C.3       1 UNL1        0.0000
     30 C30         6.1772   -4.2021   25.6569 C.3       1 UNL1        0.0000
     31 C31         7.4616   -3.3711   25.4604 C.3       1 UNL1        0.0000
     32 C32         6.7037   -1.0704   26.0717 C.3       1 UNL1        0.0000
     33 C33        11.0433   -4.6300   25.0071 C.3       1 UNL1        0.0000
     34 N1         12.9829    0.2165   24.1127 N.ar      1 UNL1        0.0000
     35 N2          8.3031    0.6170   23.2215 N.pl3     1 UNL1        0.0000
     36 N3          8.6854   -4.1645   25.5925 N.am      1 UNL1        0.0000
     37 N4          7.4959   -2.2613   26.4642 N.4       1 UNL1        0.0000
     38 O1          9.6595   -3.2163   23.6996 O.2       1 UNL1        0.0000
     39 O2          9.5679    2.7634   23.3084 O.2       1 UNL1        0.0000
     40 O3          9.2783    1.5749   21.0776 O.2       1 UNL1        0.0000
     41 F1          5.7050    2.2675   21.6195 F         1 UNL1        0.0000
     42 S1          9.5091    1.5308   22.5234 S.o2      1 UNL1        0.0000
     43 Cl1        11.9823   -3.5240   26.0027 Cl        1 UNL1        0.0000
@<TRIPOS>BOND
     1    1    3 ar
     2    1    4 ar
     3    2    7 ar
     4    2    9 ar
     5    3   10 ar
     6    4   11 ar
     7    5    6 ar
     8    5   12 ar
     9    6   13 ar
    10    7   14 ar
    11    8   15 ar
    12    8   17 ar
    13    9   20 ar
    14   10   21 ar
    15   11   21 ar
    16   12   22 ar
    17   13   23 ar
    18   14   25 ar
    19   15   26 ar
    20   16   24 1
    21   16   27 2
    22   17   34 ar
    23   18   26 ar
    24   18   34 ar
    25   19   24 2
    26   19   35 1
    27   20   25 ar
    28   20   27 1
    29   21   30 1
    30   22   23 ar
    31   22   29 1
    32   23   30 1
    33   24   32 1
    34   25   41 1
    35   26   42 1
    36   27   35 1
    37   28   33 1
    38   28   36 am
    39   28   38 2
    40   29   36 1
    41   30   31 1
    42   31   36 1
    43   31   37 1
    44   32   37 1
    45   33   43 1
    46   35   42 1
    47   39   42 2
    48   40   42 2
@<TRIPOS>MOLECULE
DAV-CRI-f9b-3
   41    44     0     0     0
SMALL
NO_CHARGES

@<TRIPOS>ATOM
      1 C1         14.6663    0.4111   24.0618 C.ar      1 UNL1        0.0000
      2 C2         14.0291   -0.7876   24.3824 C.ar      1 UNL1        0.0000
      3 C3         12.6250   -3.0115   25.6129 C.ar      1 UNL1        0.0000
      4 C4         12.0082   -4.2195   25.9480 C.ar      1 UNL1        0.0000
      5 C5         13.9125    1.5626   23.8347 C.ar      1 UNL1        0.0000
      6 C6         10.6936   -2.3327   24.3199 C.ar      1 UNL1        0.0000
      7 C7         11.8844    0.3167   24.2487 C.ar      1 UNL1        0.0000
      8 C8         11.9781   -2.0790   24.8095 C.ar      1 UNL1        0.0000
      9 C9         12.6382   -0.8348   24.4759 C.ar      1 UNL1        0.0000
     10 C10        10.0476   -3.5456   24.6433 C.ar      1 UNL1        0.0000
     11 C11        10.7180   -4.4678   25.4526 C.ar      1 UNL1        0.0000
     12 C12        12.5216    1.5154   23.9281 C.ar      1 UNL1        0.0000
     13 C13         8.5033   -5.1192   24.7205 C.2       1 UNL1        0.0000
     14 C14         4.6083   -3.1287   24.7739 C.2       1 UNL1        0.0000
     15 C15         6.4270   -0.5788   18.6786 C.2       1 UNL1        0.0000
     16 C16         6.3135   -3.0466   20.7988 C.2       1 UNL1        0.0000
     17 C17         7.0567   -6.2744   22.9971 C.3       1 UNL1        0.0000
     18 C18         5.7424   -5.8197   22.3684 C.3       1 UNL1        0.0000
     19 C19         5.9291   -5.1896   25.0361 C.3       1 UNL1        0.0000
     20 C20         7.1966   -5.8650   24.4789 C.3       1 UNL1        0.0000
     21 C21         5.4255   -4.3642   22.7129 C.3       1 UNL1        0.0000
     22 C22        10.0161   -4.8725   20.9926 C.3       1 UNL1        0.0000
     23 C23         3.9985   -2.0974   23.8556 C.3       1 UNL1        0.0000
     24 C24         7.3844   -1.7264   18.9484 C.3       1 UNL1        0.0000
     25 C25         7.4606   -2.1233   20.4229 C.3       1 UNL1        0.0000
     26 C26         8.8336   -4.2438   20.2601 C.3       1 UNL1        0.0000
     27 N1          8.7806   -3.9330   24.2320 N.2       1 UNL1        0.0000
     28 N2          5.3336   -4.1641   24.1705 N.am      1 UNL1        0.0000
     29 N3          6.3166   -0.2949   17.3339 N.am      1 UNL1        0.0000
     30 N4          8.9944   -4.4439   18.8234 N.3       1 UNL1        0.0000
     31 N5         11.3068    2.8447   21.9629 N.pl3     1 UNL1        0.0000
     32 N6          6.4006   -3.4828   22.1120 N.am      1 UNL1        0.0000
     33 N7          8.7665   -2.7994   20.6769 N.4       1 UNL1        0.0000
     34 O1          4.4383   -3.0250   25.9918 O.2       1 UNL1        0.0000
     35 O2          5.8151    0.0262   19.5539 O.2       1 UNL1        0.0000
     36 O3          5.4204   -3.3496   20.0108 O.2       1 UNL1        0.0000
     37 O4         10.3058    2.8173   24.3384 O.2       1 UNL1        0.0000
     38 O5         12.4198    4.1180   23.9063 O.2       1 UNL1        0.0000
     39 S1          9.7112   -5.8475   25.6883 S.3       1 UNL1        0.0000
     40 S2         11.5790    2.9579   23.6459 S.o2      1 UNL1        0.0000
     41 Cl1         2.4028   -2.6956   23.4163 Cl        1 UNL1        0.0000
@<TRIPOS>BOND
     1    1    2 ar
     2    1    5 ar
     3    2    9 ar
     4    3    4 ar
     5    3    8 ar
     6    4   11 ar
     7    5   12 ar
     8    6    8 ar
     9    6   10 ar
    10    7    9 ar
    11    7   12 ar
    12    8    9 1
    13   10   11 ar
    14   10   27 1
    15   11   39 1
    16   12   40 1
    17   13   20 1
    18   13   27 2
    19   13   39 1
    20   14   23 1
    21   14   28 am
    22   14   34 2
    23   15   24 1
    24   15   29 am
    25   15   35 2
    26   16   25 1
    27   16   32 am
    28   16   36 2
    29   17   18 1
    30   17   20 1
    31   18   21 1
    32   19   20 1
    33   19   28 1
    34   21   28 1
    35   21   32 1
    36   22   26 1
    37   23   41 1
    38   24   25 1
    39   25   33 1
    40   26   30 1
    41   26   33 1
    42   31   40 1
    43   37   40 2
    44   38   40 2
@<TRIPOS>MOLECULE
STU-CHA-7b3-1
   28    30     0     0     0
SMALL
NO_CHARGES

@<TRIPOS>ATOM
      1 C1          7.6063    3.7934   26.4891 C.ar      1 UNL1        0.0000
      2 C2          8.3695    4.9585   26.4145 C.ar      1 UNL1        0.0000
      3 C3          9.4938    4.0966   24.4573 C.ar      1 UNL1        0.0000
      4 C4          7.7869    2.7798   25.5480 C.ar      1 UNL1        0.0000
      5 C5          8.7306    2.9315   24.5321 C.ar      1 UNL1        0.0000
      6 C6          9.3133    5.1102   25.3986 C.ar      1 UNL1        0.0000
      7 C7          5.3789    0.3269   24.1612 C.2       1 UNL1        0.0000
      8 C8         13.3928   -0.3245   22.2975 C.2       1 UNL1        0.0000
      9 C9          5.5298    1.8994   21.4016 C.3       1 UNL1        0.0000
     10 C10         4.8825    0.5567   21.7319 C.3       1 UNL1        0.0000
     11 C11        12.0642    1.3227   23.5771 C.3       1 UNL1        0.0000
     12 C12        10.8723   -0.1626   22.0063 C.3       1 UNL1        0.0000
     13 C13        11.0369    1.0320   24.6613 C.3       1 UNL1        0.0000
     14 C14         9.8264   -0.4718   23.0692 C.3       1 UNL1        0.0000
     15 C15         4.6140    3.0519   21.7831 C.3       1 UNL1        0.0000
     16 C16         3.5151    1.7982   23.4676 C.3       1 UNL1        0.0000
     17 C17         4.2946    0.5260   23.1422 C.3       1 UNL1        0.0000
     18 C18         6.9590    1.5409   25.6484 C.3       1 UNL1        0.0000
     19 C19         8.9434    1.8543   23.5096 C.3       1 UNL1        0.0000
     20 C20        13.3976   -1.4587   21.3038 C.3       1 UNL1        0.0000
     21 N1         12.1497    0.2209   22.6178 N.am      1 UNL1        0.0000
     22 N2          5.9111    1.5033   24.6612 N.am      1 UNL1        0.0000
     23 N3          9.7037    0.6731   24.0474 N.4       1 UNL1        0.0000
     24 O1          5.7111   -0.8100   24.4755 O.2       1 UNL1        0.0000
     25 O2         14.4625    0.0620   22.7755 O.2       1 UNL1        0.0000
     26 O3          4.2662    2.9744   23.1636 O.3       1 UNL1        0.0000
     27 Cl1        10.2558    6.5469   25.3079 Cl        1 UNL1        0.0000
     28 Cl2        13.5231   -0.7290   19.7071 Cl        1 UNL1        0.0000
@<TRIPOS>BOND
     1    1    2 ar
     2    1    4 ar
     3    2    6 ar
     4    3    5 ar
     5    3    6 ar
     6    4    5 ar
     7    4   18 1
     8    5   19 1
     9    6   27 1
    10    7   17 1
    11    7   22 am
    12    7   24 2
    13    8   20 1
    14    8   21 am
    15    8   25 2
    16    9   10 1
    17    9   15 1
    18   10   17 1
    19   11   13 1
    20   11   21 1
    21   12   14 1
    22   12   21 1
    23   13   23 1
    24   14   23 1
    25   15   26 1
    26   16   17 1
    27   16   26 1
    28   18   22 1
    29   19   23 1
    30   20   28 1
@<TRIPOS>MOLECULE
PAU-WEI-b9b-7
   34    37     0     0     0
SMALL
NO_CHARGES

@<TRIPOS>ATOM
      1 C1         13.9182    1.5346   21.8452 C.ar      1 UNL1        0.0000
      2 C2         12.6316    1.6908   21.3295 C.ar      1 UNL1        0.0000
      3 C3         14.3184    0.3014   22.3597 C.ar      1 UNL1        0.0000
      4 C4         11.7550    1.3086   25.5474 C.ar      1 UNL1        0.0000
      5 C5         11.2910    2.6192   25.3866 C.ar      1 UNL1        0.0000
      6 C6         11.7452    0.6138   21.3284 C.ar      1 UNL1        0.0000
      7 C7         13.4320   -0.7756   22.3587 C.ar      1 UNL1        0.0000
      8 C8         11.1335    0.2467   24.8933 C.ar      1 UNL1        0.0000
      9 C9          8.4559    3.6336   23.3144 C.2       1 UNL1        0.0000
     10 C10        10.1816    2.8579   24.5512 C.ar      1 UNL1        0.0000
     11 C11        12.1454   -0.6194   21.8430 C.ar      1 UNL1        0.0000
     12 C12        10.0317    0.4591   24.0599 C.ar      1 UNL1        0.0000
     13 C13         9.4625    4.0242   24.1672 C.2       1 UNL1        0.0000
     14 C14         9.5788    1.7745   23.9085 C.ar      1 UNL1        0.0000
     15 C15         5.9269   -4.3698   25.6913 C.2       1 UNL1        0.0000
     16 C16        12.4669    6.3702   22.9469 C.2       1 UNL1        0.0000
     17 C17         7.4101   -2.4429   26.1478 C.3       1 UNL1        0.0000
     18 C18         6.0184   -2.3760   24.1151 C.3       1 UNL1        0.0000
     19 C19         8.6399   -2.0474   25.3437 C.3       1 UNL1        0.0000
     20 C20         7.2278   -1.9774   23.2801 C.3       1 UNL1        0.0000
     21 C21        13.4920    5.8235   22.0095 C.3       1 UNL1        0.0000
     22 C22        11.1878   -1.7839   21.8424 C.3       1 UNL1        0.0000
     23 C23         9.7379    5.4090   24.6007 C.3       1 UNL1        0.0000
     24 C24         4.9228   -5.0090   24.7656 C.3       1 UNL1        0.0000
     25 C25        10.3084   -1.9211   23.0975 C.3       1 UNL1        0.0000
     26 C26        10.0307    6.3820   23.4442 C.3       1 UNL1        0.0000
     27 C27         9.3815   -0.7165   23.3652 C.3       1 UNL1        0.0000
     28 N1          8.5340    2.2749   23.1646 N.pl3     1 UNL1        0.0000
     29 N2          6.4293   -3.1278   25.3057 N.am      1 UNL1        0.0000
     30 N3         11.1694    5.9728   22.6665 N.am      1 UNL1        0.0000
     31 N4          8.2058   -1.2227   24.1526 N.4       1 UNL1        0.0000
     32 O1          6.2553   -4.9592   26.7241 O.2       1 UNL1        0.0000
     33 O2         12.8172    7.1016   23.8656 O.2       1 UNL1        0.0000
     34 Cl1         5.8422   -5.9584   23.6034 Cl        1 UNL1        0.0000
@<TRIPOS>BOND
     1    1    2 ar
     2    1    3 ar
     3    2    6 ar
     4    3    7 ar
     5    4    5 ar
     6    4    8 ar
     7    5   10 ar
     8    6   11 ar
     9    7   11 ar
    10    8   12 ar
    11    9   13 2
    12    9   28 1
    13   10   13 1
    14   10   14 ar
    15   11   22 1
    16   12   14 ar
    17   12   27 1
    18   13   23 1
    19   14   28 1
    20   15   24 1
    21   15   29 am
    22   15   32 2
    23   16   21 1
    24   16   30 am
    25   16   33 2
    26   17   19 1
    27   17   29 1
    28   18   20 1
    29   18   29 1
    30   19   31 1
    31   20   31 1
    32   22   25 1
    33   23   26 1
    34   24   34 1
    35   25   27 1
    36   26   30 1
    37   27   31 1
@<TRIPOS>MOLECULE
MAK-UNK-af8-33
   37    40     0     0     0
SMALL
NO_CHARGES

@<TRIPOS>ATOM
      1 C1          6.1927   -6.6082   23.1408 C.ar      1 UNL1        0.0000
      2 C2          6.3634   -4.8657   21.4759 C.ar      1 UNL1        0.0000
      3 C3          5.3471   -5.7996   23.9004 C.ar      1 UNL1        0.0000
      4 C4          5.5178   -4.0572   22.2355 C.ar      1 UNL1        0.0000
      5 C5         11.4210   -1.2123   22.8364 C.ar      1 UNL1        0.0000
      6 C6         10.8096    0.2683   24.6449 C.ar      1 UNL1        0.0000
      7 C7         12.3601    1.0109   22.9475 C.ar      1 UNL1        0.0000
      8 C8         10.7004   -0.9663   24.0051 C.ar      1 UNL1        0.0000
      9 C9          6.7009   -6.1412   21.9286 C.ar      1 UNL1        0.0000
     10 C10        12.2509   -0.2237   22.3076 C.ar      1 UNL1        0.0000
     11 C11        11.6394    1.2570   24.1161 C.ar      1 UNL1        0.0000
     12 C12         5.0097   -4.5242   23.4477 C.ar      1 UNL1        0.0000
     13 C13         8.6624   -1.0649   26.6499 C.2       1 UNL1        0.0000
     14 C14         8.9044    7.0612   23.2179 C.2       1 UNL1        0.0000
     15 C15         9.6595   -2.0722   26.1128 C.3       1 UNL1        0.0000
     16 C16        11.1748    6.1875   23.6685 C.3       1 UNL1        0.0000
     17 C17         9.5819    4.7193   22.4937 C.3       1 UNL1        0.0000
     18 C18        11.5291    5.0656   24.6334 C.3       1 UNL1        0.0000
     19 C19         9.9138    3.5738   23.4405 C.3       1 UNL1        0.0000
     20 C20         8.4166   -2.0470   23.9085 C.3       1 UNL1        0.0000
     21 C21         9.7931   -2.0472   24.5824 C.3       1 UNL1        0.0000
     22 C22         7.3633   -0.8834   25.8998 C.3       1 UNL1        0.0000
     23 C23         7.6044   -7.0057   21.1162 C.3       1 UNL1        0.0000
     24 C24        13.0215   -0.4861   21.0578 C.3       1 UNL1        0.0000
     25 C25        11.7566    2.5848   24.8047 C.3       1 UNL1        0.0000
     26 C26         7.5327    6.8009   22.6485 C.3       1 UNL1        0.0000
     27 C27         6.3386   -1.9344   26.2952 C.3       1 UNL1        0.0000
     28 C28         4.9226   -1.5090   25.9084 C.3       1 UNL1        0.0000
     29 C29         3.9003   -2.5820   26.2765 C.3       1 UNL1        0.0000
     30 C30         4.2123   -3.9106   25.6026 C.3       1 UNL1        0.0000
     31 N1          9.8231    6.0158   23.1360 N.am      1 UNL1        0.0000
     32 N2          7.5943   -0.9097   24.4204 N.4       1 UNL1        0.0000
     33 N3         11.3326    3.7370   23.9380 N.4       1 UNL1        0.0000
     34 O1          8.8549   -0.4987   27.7273 O.2       1 UNL1        0.0000
     35 O2          9.1492    8.1602   23.7223 O.2       1 UNL1        0.0000
     36 O3          4.1776   -3.7302   24.1936 O.3       1 UNL1        0.0000
     37 Cl1         6.5698    6.1100   23.9498 Cl        1 UNL1        0.0000
@<TRIPOS>BOND
     1    1    3 ar
     2    1    9 ar
     3    2    4 ar
     4    2    9 ar
     5    3   12 ar
     6    4   12 ar
     7    5    8 ar
     8    5   10 ar
     9    6    8 ar
    10    6   11 ar
    11    7   10 ar
    12    7   11 ar
    13    8   21 1
    14    9   23 1
    15   10   24 1
    16   11   25 1
    17   12   36 1
    18   13   15 1
    19   13   22 1
    20   13   34 2
    21   14   26 1
    22   14   31 am
    23   14   35 2
    24   15   21 1
    25   16   18 1
    26   16   31 1
    27   17   19 1
    28   17   31 1
    29   18   33 1
    30   19   33 1
    31   20   21 1
    32   20   32 1
    33   22   27 1
    34   22   32 1
    35   25   33 1
    36   26   37 1
    37   27   28 1
    38   28   29 1
    39   29   30 1
    40   30   36 1
@<TRIPOS>MOLECULE
MAK-UNK-af8-16
   73    75     0     0     0
SMALL
NO_CHARGES

@<TRIPOS>ATOM
      1 C1          9.6321   -0.4616   22.6764 C.ar      1 UNL1        0.0000
      2 C2          9.8197    0.9094   22.5008 C.ar      1 UNL1        0.0000
      3 C3         10.3413   -0.2640   24.9775 C.ar      1 UNL1        0.0000
      4 C4          9.8928   -1.0483   23.9147 C.ar      1 UNL1        0.0000
      5 C5         10.2681    1.6937   23.5635 C.ar      1 UNL1        0.0000
      6 C6         10.5290    1.1070   24.8019 C.ar      1 UNL1        0.0000
      7 C7          5.0487   -4.5527   26.3432 C.2       1 UNL1        0.0000
      8 C8         11.8649    3.4918   22.8495 C.2       1 UNL1        0.0000
      9 C9          6.0671   -2.5450   25.3168 C.3       1 UNL1        0.0000
     10 C10         6.5833   -4.7406   24.3238 C.3       1 UNL1        0.0000
     11 C11         7.5446   -2.1814   25.3319 C.3       1 UNL1        0.0000
     12 C12         8.0695   -4.4090   24.3222 C.3       1 UNL1        0.0000
     13 C13         7.1472    6.3088   23.3963 C.3       1 UNL1        0.0000
     14 C14         7.1129    3.9038   22.1225 C.3       1 UNL1        0.0000
     15 C15         8.4774    5.5551   23.4230 C.3       1 UNL1        0.0000
     16 C16         8.3157    4.0771   23.0439 C.3       1 UNL1        0.0000
     17 C17         5.8250    4.4190   22.7808 C.3       1 UNL1        0.0000
     18 C18        11.0102    1.9266   25.9540 C.3       1 UNL1        0.0000
     19 C19         5.8034    2.1666   20.8954 C.3       1 UNL1        0.0000
     20 C20         9.6914   -2.5230   24.1031 C.3       1 UNL1        0.0000
     21 C21         5.4025   -5.9382   26.8216 C.3       1 UNL1        0.0000
     22 C22        10.4627    3.1592   23.3514 C.3       1 UNL1        0.0000
     23 N1          5.8819   -3.9951   25.3744 N.am      1 UNL1        0.0000
     24 N2         14.2611    5.9570   23.4882 N.pl3     1 UNL1        0.0000
     25 N3         12.0510    4.8860   22.5692 N.am      1 UNL1        0.0000
     26 N4          8.2432   -2.9111   24.2064 N.4       1 UNL1        0.0000
     27 N5          6.9427    2.4570   21.8027 N.4       1 UNL1        0.0000
     28 O1          4.0629   -3.9839   26.8191 O.2       1 UNL1        0.0000
     29 O2         12.7437    2.6486   22.7048 O.2       1 UNL1        0.0000
     30 O3         14.2936    4.5784   21.3122 O.2       1 UNL1        0.0000
     31 O4         13.1717    6.8346   21.3337 O.2       1 UNL1        0.0000
     32 O5          6.0812    5.4340   23.7608 O.3       1 UNL1        0.0000
     33 O6          9.0211    5.5983   24.7447 O.3       1 UNL1        0.0000
     34 O7          4.9478    4.8896   21.7606 O.3       1 UNL1        0.0000
     35 O8          9.5094    3.6312   22.4035 O.3       1 UNL1        0.0000
     36 S1         13.5036    5.5858   21.9931 S.o2      1 UNL1        0.0000
     37 Cl1         7.0330   -5.8436   27.4776 Cl        1 UNL1        0.0000
     38 H           9.6321   -0.4616   22.6764 H         1 UNL1        0.0000
     39 H           9.8197    0.9094   22.5008 H         1 UNL1        0.0000
     40 H          10.3413   -0.2640   24.9775 H         1 UNL1        0.0000
     41 H           6.0671   -2.5450   25.3168 H         1 UNL1        0.0000
     42 H           6.0671   -2.5450   25.3168 H         1 UNL1        0.0000
     43 H           6.5833   -4.7406   24.3238 H         1 UNL1        0.0000
     44 H           6.5833   -4.7406   24.3238 H         1 UNL1        0.0000
     45 H           7.5446   -2.1814   25.3319 H         1 UNL1        0.0000
     46 H           7.5446   -2.1814   25.3319 H         1 UNL1        0.0000
     47 H           8.0695   -4.4090   24.3222 H         1 UNL1        0.0000
     48 H           8.0695   -4.4090   24.3222 H         1 UNL1        0.0000
     49 H           7.1472    6.3088   23.3963 H         1 UNL1        0.0000
     50 H           7.1472    6.3088   23.3963 H         1 UNL1        0.0000
     51 H           7.1129    3.9038   22.1225 H         1 UNL1        0.0000
     52 H           8.4774    5.5551   23.4230 H         1 UNL1        0.0000
     53 H           8.3157    4.0771   23.0439 H         1 UNL1        0.0000
     54 H           5.8250    4.4190   22.7808 H         1 UNL1        0.0000
     55 H          11.0102    1.9266   25.9540 H         1 UNL1        0.0000
     56 H          11.0102    1.9266   25.9540 H         1 UNL1        0.0000
     57 H          11.0102    1.9266   25.9540 H         1 UNL1        0.0000
     58 H           5.8034    2.1666   20.8954 H         1 UNL1        0.0000
     59 H           5.8034    2.1666   20.8954 H         1 UNL1        0.0000
     60 H           5.8034    2.1666   20.8954 H         1 UNL1        0.0000
     61 H           9.6914   -2.5230   24.1031 H         1 UNL1        0.0000
     62 H           9.6914   -2.5230   24.1031 H         1 UNL1        0.0000
     63 H           5.4025   -5.9382   26.8216 H         1 UNL1        0.0000
     64 H           5.4025   -5.9382   26.8216 H         1 UNL1        0.0000
     65 H          10.4627    3.1592   23.3514 H         1 UNL1        0.0000
     66 H          14.2611    5.9570   23.4882 H         1 UNL1        0.0000
     67 H          14.2611    5.9570   23.4882 H         1 UNL1        0.0000
     68 H          12.0510    4.8860   22.5692 H         1 UNL1        0.0000
     69 H           8.2432   -2.9111   24.2064 H         1 UNL1        0.0000
     70 H           6.9427    2.4570   21.8027 H         1 UNL1        0.0000
     71 H           6.9427    2.4570   21.8027 H         1 UNL1        0.0000
     72 H           9.0211    5.5983   24.7447 H         1 UNL1        0.0000
     73 H           4.9478    4.8896   21.7606 H         1 UNL1        0.0000
@<TRIPOS>BOND
     1    1    2 ar
     2    1    4 ar
     3    2    5 ar
     4    3    4 ar
     5    3    6 ar
     6    4   20 1
     7    5    6 ar
     8    5   22 1
     9    6   18 1
    10    7   21 1
    11    7   23 am
    12    7   28 2
    13    8   22 1
    14    8   25 am
    15    8   29 2
    16    9   11 1
    17    9   23 1
    18   10   12 1
    19   10   23 1
    20   11   26 1
    21   12   26 1
    22   13   15 1
    23   13   32 1
    24   14   16 1
    25   14   17 1
    26   14   27 1
    27   15   16 1
    28   15   33 1
    29   16   35 1
    30   17   32 1
    31   17   34 1
    32   19   27 1
    33   20   26 1
    34   21   37 1
    35   22   35 1
    36   24   36 1
    37   25   36 1
    38   30   36 2
    39   31   36 2
    40    1   38 1
    41    2   39 1
    42    3   40 1
    43    9   41 1
    44    9   42 1
    45   10   43 1
    46   10   44 1
    47   11   45 1
    48   11   46 1
    49   12   47 1
    50   12   48 1
    51   13   49 1
    52   13   50 1
    53   14   51 1
    54   15   52 1
    55   16   53 1
    56   17   54 1
    57   18   55 1
    58   18   56 1
    59   18   57 1
    60   19   58 1
    61   19   59 1
    62   19   60 1
    63   20   61 1
    64   20   62 1
    65   21   63 1
    66   21   64 1
    67   22   65 1
    68   24   66 1
    69   24   67 1
    70   25   68 1
    71   26   69 1
    72   27   70 1
    73   27   71 1
    74   33   72 1
    75   34   73 1
@<TRIPOS>MOLECULE
BEN-VAN-d2b-9
   29    31     0     0     0
SMALL
NO_CHARGES

@<TRIPOS>ATOM
      1 C1         12.8881    0.7950   23.5043 C.1       1 UNL1        0.0000
      2 C2          9.9652    3.1099   23.6442 C.ar      1 UNL1        0.0000
      3 C3         12.6627    3.2065   23.2445 C.ar      1 UNL1        0.0000
      4 C4          6.8147   -0.9802   24.1519 C.2       1 UNL1        0.0000
      5 C5          7.8199    1.1766   24.7743 C.2       1 UNL1        0.0000
      6 C6         12.0778    1.9724   23.4782 C.ar      1 UNL1        0.0000
      7 C7          8.1442   -0.9080   23.7987 C.2       1 UNL1        0.0000
      8 C8         10.7028    1.9318   23.6808 C.ar      1 UNL1        0.0000
      9 C9          8.7266    0.3414   24.1594 C.2       1 UNL1        0.0000
     10 C10        10.6447    4.2931   23.4033 C.ar      1 UNL1        0.0000
     11 C11         4.6668    1.2260   19.6897 C.2       1 UNL1        0.0000
     12 C12         5.5069    0.3247   20.2076 C.2       1 UNL1        0.0000
     13 C13         6.9629    0.6177   20.2981 C.2       1 UNL1        0.0000
     14 C14         9.0459   -0.4489   21.0751 C.2       1 UNL1        0.0000
     15 C15        11.1991   -2.8207   22.9911 C.3       1 UNL1        0.0000
     16 C16        10.0477   -2.5937   23.9617 C.3       1 UNL1        0.0000
     17 C17        11.0170   -1.7260   21.9550 C.3       1 UNL1        0.0000
     18 C18         8.8856   -2.0350   23.1079 C.3       1 UNL1        0.0000
     19 C19         9.5092   -1.7152   21.7265 C.3       1 UNL1        0.0000
     20 C20        10.7552    6.8853   21.6172 C.3       1 UNL1        0.0000
     21 C21        10.6861    6.6530   23.1115 C.3       1 UNL1        0.0000
     22 N1         13.5459   -0.1608   23.5254 N.1       1 UNL1        0.0000
     23 N2         11.9792    4.3721   23.2017 N.ar      1 UNL1        0.0000
     24 N3         10.0171    0.6822   23.9313 N.pl3     1 UNL1        0.0000
     25 N4          7.6680   -0.4414   20.8645 N.am      1 UNL1        0.0000
     26 O1          7.4467    1.6764   19.9110 O.2       1 UNL1        0.0000
     27 O2          9.8238    0.4599   20.7973 O.2       1 UNL1        0.0000
     28 O3          9.9403    5.4676   23.3621 O.3       1 UNL1        0.0000
     29 S1          6.2737    0.4542   24.9150 S.3       1 UNL1        0.0000
@<TRIPOS>BOND
     1    1    6 1
     2    1   22 3
     3    2    8 ar
     4    2   10 ar
     5    3    6 ar
     6    3   23 ar
     7    4    7 2
     8    4   29 1
     9    5    9 2
    10    5   29 1
    11    6    8 ar
    12    7    9 1
    13    7   18 1
    14    8   24 1
    15    9   24 1
    16   10   23 ar
    17   10   28 1
    18   11   12 2
    19   12   13 1
    20   13   25 am
    21   13   26 2
    22   14   19 1
    23   14   25 am
    24   14   27 2
    25   15   16 1
    26   15   17 1
    27   16   18 1
    28   17   19 1
    29   18   19 1
    30   20   21 1
    31   21   28 1
@<TRIPOS>MOLECULE
MAK-UNK-e4a-22
   24    26     0     0     0
SMALL
NO_CHARGES

@<TRIPOS>ATOM
      1 C1         13.0031    0.2306   23.9487 C.2       1 UNL1        0.0000
      2 C2         10.8133   -2.5123   25.5280 C.ar      1 UNL1        0.0000
      3 C3         13.9848   -0.1569   23.0634 C.2       1 UNL1        0.0000
      4 C4         11.8690   -1.3502   22.6770 C.2       1 UNL1        0.0000
      5 C5         11.7774   -0.4607   23.7250 C.2       1 UNL1        0.0000
      6 C6          9.9762   -1.4765   25.1667 C.ar      1 UNL1        0.0000
      7 C7          8.6348   -1.6762   25.4219 C.ar      1 UNL1        0.0000
      8 C8          9.0551   -3.7332   26.2930 C.ar      1 UNL1        0.0000
      9 C9          4.7826   -5.7890   22.9282 C.2       1 UNL1        0.0000
     10 C10         7.0264   -6.6070   23.8023 C.3       1 UNL1        0.0000
     11 C11         5.2066   -6.0149   25.3552 C.3       1 UNL1        0.0000
     12 C12         8.0094   -5.7689   24.6083 C.3       1 UNL1        0.0000
     13 C13         6.1614   -5.1672   26.1831 C.3       1 UNL1        0.0000
     14 C14        10.5197   -0.2407   24.5454 C.3       1 UNL1        0.0000
     15 C15         8.5403   -4.9943   26.9220 C.3       1 UNL1        0.0000
     16 C16         5.3044   -5.9725   21.5254 C.3       1 UNL1        0.0000
     17 N1         10.3851   -3.6591   26.0954 N.ar      1 UNL1        0.0000
     18 N2          8.1377   -2.7965   25.9858 N.ar      1 UNL1        0.0000
     19 N3          5.6564   -6.1091   23.9663 N.am      1 UNL1        0.0000
     20 N4          7.7262   -0.6469   25.0723 N.pl3     1 UNL1        0.0000
     21 N5          7.5595   -5.7286   26.0516 N.4       1 UNL1        0.0000
     22 O1          3.6337   -5.3715   23.0943 O.2       1 UNL1        0.0000
     23 S1         13.4278   -1.3496   21.9681 S.3       1 UNL1        0.0000
     24 Cl1         6.0204   -4.4367   21.0495 Cl        1 UNL1        0.0000
@<TRIPOS>BOND
     1    1    3 2
     2    1    5 1
     3    2    6 ar
     4    2   17 ar
     5    3   23 1
     6    4    5 2
     7    4   23 1
     8    5   14 1
     9    6    7 ar
    10    6   14 1
    11    7   18 ar
    12    7   20 1
    13    8   15 1
    14    8   17 ar
    15    8   18 ar
    16    9   16 1
    17    9   19 am
    18    9   22 2
    19   10   12 1
    20   10   19 1
    21   11   13 1
    22   11   19 1
    23   12   21 1
    24   13   21 1
    25   15   21 1
    26   16   24 1
@<TRIPOS>MOLECULE
DAN-LON-a5f-7
   25    26     0     0     0
SMALL
NO_CHARGES

@<TRIPOS>ATOM
      1 C1         12.4204    0.7181   23.9037 C.ar      1 UNL1        0.0000
      2 C2         11.3718   -0.1715   24.1376 C.ar      1 UNL1        0.0000
      3 C3         13.4310    0.3835   23.0023 C.ar      1 UNL1        0.0000
      4 C4         12.3443   -1.7303   22.5687 C.ar      1 UNL1        0.0000
      5 C5         11.3338   -1.3957   23.4701 C.ar      1 UNL1        0.0000
      6 C6         13.3929   -0.8407   22.3348 C.ar      1 UNL1        0.0000
      7 C7          7.5573   -0.6698   21.5947 C.2       1 UNL1        0.0000
      8 C8          6.0332   -4.2456   21.4595 C.2       1 UNL1        0.0000
      9 C9          7.3799   -3.7855   23.5619 C.3       1 UNL1        0.0000
     10 C10         8.2062   -3.0727   21.3407 C.3       1 UNL1        0.0000
     11 C11         7.7264   -2.4257   24.1489 C.3       1 UNL1        0.0000
     12 C12         8.6017   -1.7036   21.8884 C.3       1 UNL1        0.0000
     13 C13         5.2831   -0.5391   18.6077 C.3       1 UNL1        0.0000
     14 C14         4.6956    0.0293   20.9784 C.3       1 UNL1        0.0000
     15 C15         6.3900    1.4018   19.7400 C.3       1 UNL1        0.0000
     16 C16        10.2062   -2.3525   23.7231 C.3       1 UNL1        0.0000
     17 C17         5.0227   -4.9691   22.3136 C.3       1 UNL1        0.0000
     18 C18         5.8225   -0.0081   19.9408 C.3       1 UNL1        0.0000
     19 N1          7.1365   -3.7008   22.1192 N.am      1 UNL1        0.0000
     20 N2          6.8716   -0.8825   20.4139 N.am      1 UNL1        0.0000
     21 N3          8.8549   -1.7766   23.3824 N.4       1 UNL1        0.0000
     22 O1          7.3832    0.2537   22.3812 O.2       1 UNL1        0.0000
     23 O2          5.8442   -4.1647   20.2429 O.2       1 UNL1        0.0000
     24 Cl1        14.6406   -1.2534   21.2236 Cl        1 UNL1        0.0000
     25 Cl2         3.8603   -3.7615   22.8505 Cl        1 UNL1        0.0000
@<TRIPOS>BOND
     1    1    2 ar
     2    1    3 ar
     3    2    5 ar
     4    3    6 ar
     5    4    5 ar
     6    4    6 ar
     7    5   16 1
     8    6   24 1
     9    7   12 1
    10    7   20 am
    11    7   22 2
    12    8   17 1
    13    8   19 am
    14    8   23 2
    15    9   11 1
    16    9   19 1
    17   10   12 1
    18   10   19 1
    19   11   21 1
    20   12   21 1
    21   13   18 1
    22   14   18 1
    23   15   18 1
    24   16   21 1
    25   17   25 1
    26   18   20 1
@<TRIPOS>MOLECULE
MAK-UNK-e4a-25
   27    29     0     0     0
SMALL
NO_CHARGES

@<TRIPOS>ATOM
      1 C1         11.8322   -1.2805   24.7911 C.2       1 UNL1        0.0000
      2 C2         11.7459   -0.1519   24.0060 C.2       1 UNL1        0.0000
      3 C3         10.9722   -2.1633   22.8205 C.2       1 UNL1        0.0000
      4 C4         11.3841   -2.4458   24.1045 C.2       1 UNL1        0.0000
      5 C5          8.6480   -3.9650   25.8999 C.2       1 UNL1        0.0000
      6 C6          7.7479   -3.4966   25.0074 C.2       1 UNL1        0.0000
      7 C7          8.5816   -5.4176   26.2572 C.2       1 UNL1        0.0000
      8 C8          6.7406   -5.5229   24.7052 C.2       1 UNL1        0.0000
      9 C9          6.3456    0.0409   19.6579 C.2       1 UNL1        0.0000
     10 C10         6.7550   -2.0625   20.8945 C.3       1 UNL1        0.0000
     11 C11         5.4927   -0.2779   22.0325 C.3       1 UNL1        0.0000
     12 C12         7.6563   -2.2280   22.1093 C.3       1 UNL1        0.0000
     13 C13         6.3745   -0.4179   23.2660 C.3       1 UNL1        0.0000
     14 C14         5.7155   -6.4237   24.0798 C.3       1 UNL1        0.0000
     15 C15        11.3631   -3.8256   24.7140 C.3       1 UNL1        0.0000
     16 C16         9.7418   -3.1811   26.5631 C.3       1 UNL1        0.0000
     17 C17         7.6878   -2.0696   24.6011 C.3       1 UNL1        0.0000
     18 C18         5.7569    1.4290   19.6719 C.3       1 UNL1        0.0000
     19 C19        11.1061   -3.7669   26.2248 C.3       1 UNL1        0.0000
     20 N1          6.7816   -4.2675   24.3940 N.2       1 UNL1        0.0000
     21 N2          7.5925   -6.1196   25.6021 N.am      1 UNL1        0.0000
     22 N3          6.2083   -0.7073   20.8262 N.am      1 UNL1        0.0000
     23 N4          6.8861   -1.8386   23.3512 N.4       1 UNL1        0.0000
     24 O1          9.3507   -5.9226   27.0702 O.2       1 UNL1        0.0000
     25 O2          6.9123   -0.3634   18.6393 O.2       1 UNL1        0.0000
     26 S1         11.1267   -0.4992   22.4477 S.3       1 UNL1        0.0000
     27 Cl1         4.1072    1.2826   19.0760 Cl        1 UNL1        0.0000
@<TRIPOS>BOND
     1    1    2 2
     2    1    4 1
     3    2   26 1
     4    3    4 2
     5    3   26 1
     6    4   15 1
     7    5    6 2
     8    5    7 1
     9    5   16 1
    10    6   17 1
    11    6   20 1
    12    7   21 am
    13    7   24 2
    14    8   14 1
    15    8   20 2
    16    8   21 1
    17    9   18 1
    18    9   22 am
    19    9   25 2
    20   10   12 1
    21   10   22 1
    22   11   13 1
    23   11   22 1
    24   12   23 1
    25   13   23 1
    26   15   19 1
    27   16   19 1
    28   17   23 1
    29   18   27 1
@<TRIPOS>MOLECULE
PAU-WEI-f73-2
   35    38     0     0     0
SMALL
NO_CHARGES

@<TRIPOS>ATOM
      1 C1          8.8786    3.7998   25.9286 C.1       1 UNL1        0.0000
      2 C2          9.2927    1.6558   27.0290 C.ar      1 UNL1        0.0000
      3 C3          9.5829    0.2933   26.9602 C.ar      1 UNL1        0.0000
      4 C4         12.1043   -1.2590   22.4537 C.2       1 UNL1        0.0000
      5 C5         13.4011   -0.8333   22.0447 C.2       1 UNL1        0.0000
      6 C6          9.3499    1.7898   24.6174 C.ar      1 UNL1        0.0000
      7 C7          9.1762    2.4041   25.8575 C.ar      1 UNL1        0.0000
      8 C8          9.7566   -0.3211   25.7201 C.ar      1 UNL1        0.0000
      9 C9          9.6401    0.4271   24.5486 C.ar      1 UNL1        0.0000
     10 C10        11.2724   -0.1953   22.7259 C.2       1 UNL1        0.0000
     11 C11        13.5109    0.5397   22.0197 C.2       1 UNL1        0.0000
     12 C12         6.1974   -2.3832   20.3256 C.2       1 UNL1        0.0000
     13 C13         8.9544   -3.4117   24.1666 C.2       1 UNL1        0.0000
     14 C14         6.9340   -1.2410   22.3917 C.3       1 UNL1        0.0000
     15 C15         8.6209   -1.6839   20.6446 C.3       1 UNL1        0.0000
     16 C16         7.7055   -5.0117   22.7504 C.3       1 UNL1        0.0000
     17 C17         6.4770   -3.9178   24.5871 C.3       1 UNL1        0.0000
     18 C18         7.4210    0.1945   22.5248 C.3       1 UNL1        0.0000
     19 C19         9.1332   -0.2541   20.7559 C.3       1 UNL1        0.0000
     20 C20         6.9856   -6.3031   23.1056 C.3       1 UNL1        0.0000
     21 C21         5.7944   -5.2574   24.8418 C.3       1 UNL1        0.0000
     22 C22        10.0664   -1.7813   25.6717 C.3       1 UNL1        0.0000
     23 C23         6.2913   -2.2796   18.8242 C.3       1 UNL1        0.0000
     24 C24         9.8244   -0.2205   23.1860 C.3       1 UNL1        0.0000
     25 N1          8.6369    4.9334   25.9864 N.1       1 UNL1        0.0000
     26 N2          7.2165   -1.7758   21.0592 N.am      1 UNL1        0.0000
     27 N3          7.7634   -4.1086   23.9021 N.am      1 UNL1        0.0000
     28 N4          8.9228   -2.5710   25.2731 N.am      1 UNL1        0.0000
     29 N5          8.8781    0.2990   22.1386 N.4       1 UNL1        0.0000
     30 O1          5.2450   -2.9839   20.8296 O.2       1 UNL1        0.0000
     31 O2          9.9658   -3.5259   23.4663 O.2       1 UNL1        0.0000
     32 O3          5.6903   -6.0108   23.6331 O.3       1 UNL1        0.0000
     33 S1         12.0547    1.3093   22.4882 S.3       1 UNL1        0.0000
     34 Cl1         7.2395   -3.6599   18.2823 Cl        1 UNL1        0.0000
     35 Br1        15.0837    1.4834   21.5265 Br        1 UNL1        0.0000
@<TRIPOS>BOND
     1    1    7 1
     2    1   25 3
     3    2    3 ar
     4    2    7 ar
     5    3    8 ar
     6    4    5 1
     7    4   10 2
     8    5   11 2
     9    6    7 ar
    10    6    9 ar
    11    8    9 ar
    12    8   22 1
    13    9   24 1
    14   10   24 1
    15   10   33 1
    16   11   33 1
    17   11   35 1
    18   12   23 1
    19   12   26 am
    20   12   30 2
    21   13   27 am
    22   13   28 am
    23   13   31 2
    24   14   18 1
    25   14   26 1
    26   15   19 1
    27   15   26 1
    28   16   20 1
    29   16   27 1
    30   17   21 1
    31   17   27 1
    32   18   29 1
    33   19   29 1
    34   20   32 1
    35   21   32 1
    36   22   28 1
    37   23   34 1
    38   24   29 1
@<TRIPOS>MOLECULE
DR -UNK-640-3
   31    34     0     0     0
SMALL
NO_CHARGES

@<TRIPOS>ATOM
      1 C1          3.2762    2.7336   20.2879 C.ar      1 UNL1        0.0000
      2 C2          3.2787    1.8151   21.3538 C.ar      1 UNL1        0.0000
      3 C3          4.0514    2.5083   19.1496 C.ar      1 UNL1        0.0000
      4 C4          4.0585    0.6550   21.3015 C.ar      1 UNL1        0.0000
      5 C5          8.0330   -0.1133   20.6474 C.ar      1 UNL1        0.0000
      6 C6          9.0904   -0.2633   21.5446 C.ar      1 UNL1        0.0000
      7 C7          6.7679   -1.7762   21.8603 C.ar      1 UNL1        0.0000
      8 C8          4.8131    1.3565   19.1232 C.ar      1 UNL1        0.0000
      9 C9          6.8717   -0.8697   20.8053 C.ar      1 UNL1        0.0000
     10 C10         4.8325    0.4378   20.1755 C.ar      1 UNL1        0.0000
     11 C11         8.9866   -1.1698   22.5996 C.ar      1 UNL1        0.0000
     12 C12         7.8253   -1.9263   22.7575 C.ar      1 UNL1        0.0000
     13 C13         5.7052    0.8686   18.0670 C.2       1 UNL1        0.0000
     14 C14        15.2810   -1.0055   25.4122 C.2       1 UNL1        0.0000
     15 C15        15.1866    0.0358   24.5833 C.2       1 UNL1        0.0000
     16 C16        10.5561   -0.1807   24.2788 C.3       1 UNL1        0.0000
     17 C17        11.0110   -2.4055   23.3389 C.3       1 UNL1        0.0000
     18 C18        11.8204    0.3774   23.6291 C.3       1 UNL1        0.0000
     19 C19        12.2864   -1.8726   22.6818 C.3       1 UNL1        0.0000
     20 C20         5.7413   -0.7087   19.8459 C.3       1 UNL1        0.0000
     21 N1          6.2331   -0.3316   18.5262 N.am      1 UNL1        0.0000
     22 N2         10.0544   -1.3020   23.4803 N.pl3     1 UNL1        0.0000
     23 N3         12.8230   -0.7241   23.4780 N.pl3     1 UNL1        0.0000
     24 N4          6.0885   -3.6791   23.7656 N.pl3     1 UNL1        0.0000
     25 O1          5.9092    1.4393   17.0119 O.2       1 UNL1        0.0000
     26 O2          8.6225   -4.1425   23.8649 O.2       1 UNL1        0.0000
     27 O3          7.6412   -2.3372   25.3230 O.2       1 UNL1        0.0000
     28 O4         14.2967    1.0632   22.3868 O.2       1 UNL1        0.0000
     29 O5         15.0650   -1.3310   22.3952 O.2       1 UNL1        0.0000
     30 S1          7.6564   -3.0743   24.0690 S.o2      1 UNL1        0.0000
     31 S2         14.4061   -0.2199   23.0586 S.o2      1 UNL1        0.0000
@<TRIPOS>BOND
     1    1    2 ar
     2    1    3 ar
     3    2    4 ar
     4    3    8 ar
     5    4   10 ar
     6    5    6 ar
     7    5    9 ar
     8    6   11 ar
     9    7    9 ar
    10    7   12 ar
    11    8   10 ar
    12    8   13 1
    13    9   20 1
    14   10   20 1
    15   11   12 ar
    16   11   22 1
    17   12   30 1
    18   13   21 am
    19   13   25 2
    20   14   15 2
    21   15   31 1
    22   16   18 1
    23   16   22 1
    24   17   19 1
    25   17   22 1
    26   18   23 1
    27   19   23 1
    28   20   21 1
    29   23   31 1
    30   24   30 1
    31   26   30 2
    32   27   30 2
    33   28   31 2
    34   29   31 2
@<TRIPOS>MOLECULE
DR -UNK-dd7-3
   31    34     0     0     0
SMALL
NO_CHARGES

@<TRIPOS>ATOM
      1 C1          3.2762    2.7336   20.2879 C.ar      1 UNL1        0.0000
      2 C2          3.2787    1.8151   21.3538 C.ar      1 UNL1        0.0000
      3 C3          4.0514    2.5083   19.1496 C.ar      1 UNL1        0.0000
      4 C4          4.0585    0.6550   21.3015 C.ar      1 UNL1        0.0000
      5 C5          8.0330   -0.1133   20.6474 C.ar      1 UNL1        0.0000
      6 C6          9.0904   -0.2633   21.5446 C.ar      1 UNL1        0.0000
      7 C7          6.7679   -1.7762   21.8603 C.ar      1 UNL1        0.0000
      8 C8          4.8131    1.3565   19.1232 C.ar      1 UNL1        0.0000
      9 C9          6.8717   -0.8697   20.8053 C.ar      1 UNL1        0.0000
     10 C10         4.8325    0.4378   20.1755 C.ar      1 UNL1        0.0000
     11 C11         8.9866   -1.1698   22.5996 C.ar      1 UNL1        0.0000
     12 C12         7.8253   -1.9263   22.7575 C.ar      1 UNL1        0.0000
     13 C13         5.7052    0.8686   18.0670 C.2       1 UNL1        0.0000
     14 C14        15.2810   -1.0055   25.4122 C.2       1 UNL1        0.0000
     15 C15        15.1866    0.0358   24.5833 C.2       1 UNL1        0.0000
     16 C16        10.5561   -0.1807   24.2788 C.3       1 UNL1        0.0000
     17 C17        11.0110   -2.4055   23.3389 C.3       1 UNL1        0.0000
     18 C18        11.8204    0.3774   23.6291 C.3       1 UNL1        0.0000
     19 C19        12.2864   -1.8726   22.6818 C.3       1 UNL1        0.0000
     20 C20         5.7413   -0.7087   19.8459 C.3       1 UNL1        0.0000
     21 N1          6.2331   -0.3316   18.5262 N.am      1 UNL1        0.0000
     22 N2         10.0544   -1.3020   23.4803 N.pl3     1 UNL1        0.0000
     23 N3         12.8230   -0.7241   23.4780 N.pl3     1 UNL1        0.0000
     24 N4          6.0885   -3.6791   23.7656 N.pl3     1 UNL1        0.0000
     25 O1          5.9092    1.4393   17.0119 O.2       1 UNL1        0.0000
     26 O2          8.6225   -4.1425   23.8649 O.2       1 UNL1        0.0000
     27 O3          7.6412   -2.3372   25.3230 O.2       1 UNL1        0.0000
     28 O4         14.2967    1.0632   22.3868 O.2       1 UNL1        0.0000
     29 O5         15.0650   -1.3310   22.3952 O.2       1 UNL1        0.0000
     30 S1          7.6564   -3.0743   24.0690 S.o2      1 UNL1        0.0000
     31 S2         14.4061   -0.2199   23.0586 S.o2      1 UNL1        0.0000
@<TRIPOS>BOND
     1    1    2 ar
     2    1    3 ar
     3    2    4 ar
     4    3    8 ar
     5    4   10 ar
     6    5    6 ar
     7    5    9 ar
     8    6   11 ar
     9    7    9 ar
    10    7   12 ar
    11    8   10 ar
    12    8   13 1
    13    9   20 1
    14   10   20 1
    15   11   12 ar
    16   11   22 1
    17   12   30 1
    18   13   21 am
    19   13   25 2
    20   14   15 2
    21   15   31 1
    22   16   18 1
    23   16   22 1
    24   17   19 1
    25   17   22 1
    26   18   23 1
    27   19   23 1
    28   20   21 1
    29   23   31 1
    30   24   30 1
    31   26   30 2
    32   27   30 2
    33   28   31 2
    34   29   31 2
@<TRIPOS>MOLECULE
WAR-XCH-bdd-24
   20    22     0     0     0
SMALL
NO_CHARGES

@<TRIPOS>ATOM
      1 C1          9.6489    0.0799   21.3901 C.ar      1 UNL1        0.0000
      2 C2          9.6521   -0.8686   22.4128 C.ar      1 UNL1        0.0000
      3 C3          8.6987    0.0044   20.3717 C.ar      1 UNL1        0.0000
      4 C4          7.7549   -1.9684   21.3986 C.ar      1 UNL1        0.0000
      5 C5          8.8635   -4.2412   23.3916 C.2       1 UNL1        0.0000
      6 C6          8.7051   -1.8928   22.4170 C.ar      1 UNL1        0.0000
      7 C7          8.8050   -4.8697   24.6716 C.2       1 UNL1        0.0000
      8 C8          7.7518   -1.0198   20.3759 C.ar      1 UNL1        0.0000
      9 C9          8.7077   -2.8743   23.4761 C.2       1 UNL1        0.0000
     10 C10         8.6118   -3.9432   25.6787 C.2       1 UNL1        0.0000
     11 C11         5.8062   -2.0576   19.2355 C.2       1 UNL1        0.0000
     12 C12         8.9541   -6.3328   24.9533 C.3       1 UNL1        0.0000
     13 C13         8.4788   -4.2695   27.1333 C.3       1 UNL1        0.0000
     14 C14         8.4627   -6.6945   26.3637 C.3       1 UNL1        0.0000
     15 C15         8.9736   -5.6973   27.4139 C.3       1 UNL1        0.0000
     16 C16         4.9559   -1.8333   18.0067 C.3       1 UNL1        0.0000
     17 N1          6.8028   -1.0958   19.3561 N.am      1 UNL1        0.0000
     18 O1          5.5849   -3.0140   19.9733 O.2       1 UNL1        0.0000
     19 S1          8.4930   -2.3495   25.0920 S.3       1 UNL1        0.0000
     20 Cl1         4.9318   -0.0937   17.6767 Cl        1 UNL1        0.0000
@<TRIPOS>BOND
     1    1    2 ar
     2    1    3 ar
     3    2    6 ar
     4    3    8 ar
     5    4    6 ar
     6    4    8 ar
     7    5    7 1
     8    5    9 2
     9    6    9 1
    10    7   10 2
    11    7   12 1
    12    8   17 1
    13    9   19 1
    14   10   13 1
    15   10   19 1
    16   11   16 1
    17   11   17 am
    18   11   18 2
    19   12   14 1
    20   13   15 1
    21   14   15 1
    22   16   20 1
@<TRIPOS>MOLECULE
KAT-FAI-9b6-3
   29    32     0     0     0
SMALL
NO_CHARGES

@<TRIPOS>ATOM
      1 C1          6.5536   -3.9922   20.7015 C.2       1 UNL1        0.0000
      2 C2         13.3994   -0.7119   21.1028 C.3       1 UNL1        0.0000
      3 C3         13.7338   -0.4149   22.5615 C.3       1 UNL1        0.0000
      4 C4          6.6900    0.6544   18.2256 C.3       1 UNL1        0.0000
      5 C5          7.7393   -0.4267   18.4696 C.3       1 UNL1        0.0000
      6 C6          5.5130    0.5246   19.1885 C.3       1 UNL1        0.0000
      7 C7         12.0709   -1.4516   20.9690 C.3       1 UNL1        0.0000
      8 C8         12.6056    0.3497   23.2488 C.3       1 UNL1        0.0000
      9 C9          7.0292   -0.5657   20.8916 C.3       1 UNL1        0.0000
     10 C10         8.5097   -3.5018   22.2152 C.3       1 UNL1        0.0000
     11 C11         9.8536   -2.7726   22.1972 C.3       1 UNL1        0.0000
     12 C12         8.5989   -2.9200   19.8088 C.3       1 UNL1        0.0000
     13 C13        10.3450    1.9184   23.3253 C.3       1 UNL1        0.0000
     14 C14        10.1210    0.3203   25.2167 C.3       1 UNL1        0.0000
     15 C15         9.1868    2.6948   23.9284 C.3       1 UNL1        0.0000
     16 C16         8.9746    1.1796   25.7224 C.3       1 UNL1        0.0000
     17 C17         8.2167   -0.4323   19.9273 C.3       1 UNL1        0.0000
     18 C18         5.9765    0.5258   20.6507 C.3       1 UNL1        0.0000
     19 C19        10.9266   -0.6985   21.6559 C.3       1 UNL1        0.0000
     20 C20         9.2312   -1.5578   20.1594 C.3       1 UNL1        0.0000
     21 C21        11.2756   -0.3914   23.1178 C.3       1 UNL1        0.0000
     22 C22         4.7877    0.3458   21.5929 C.3       1 UNL1        0.0000
     23 C23         5.8777   -4.6092   21.9020 C.3       1 UNL1        0.0000
     24 N1          7.8284   -3.4693   20.9199 N.am      1 UNL1        0.0000
     25 N2          9.7057   -1.4652   21.5555 N.3       1 UNL1        0.0000
     26 N3         10.1973    0.4664   23.7150 N.4       1 UNL1        0.0000
     27 O1          5.9695   -3.9709   19.6160 O.2       1 UNL1        0.0000
     28 O2          9.1685    2.5445   25.3487 O.3       1 UNL1        0.0000
     29 S1          6.3023   -6.3570   21.9951 S.3       1 UNL1        0.0000
@<TRIPOS>BOND
     1    1   23 1
     2    1   24 am
     3    1   27 2
     4    2    3 1
     5    2    7 1
     6    3    8 1
     7    4    5 1
     8    4    6 1
     9    5   17 1
    10    6   18 1
    11    7   19 1
    12    8   21 1
    13    9   17 1
    14    9   18 1
    15   10   11 1
    16   10   24 1
    17   11   25 1
    18   12   20 1
    19   12   24 1
    20   13   15 1
    21   13   26 1
    22   14   16 1
    23   14   26 1
    24   15   28 1
    25   16   28 1
    26   17   20 1
    27   18   22 1
    28   19   21 1
    29   19   25 1
    30   20   25 1
    31   21   26 1
    32   23   29 1
@<TRIPOS>MOLECULE
TAM-UNI-d1c-4
   28    29     0     0     0
SMALL
NO_CHARGES

@<TRIPOS>ATOM
      1 C1          6.1329   -2.6973   21.5850 C.ar      1 UNL1        0.0000
      2 C2          6.8090   -2.9444   22.7797 C.ar      1 UNL1        0.0000
      3 C3          8.1909   -1.9292   20.5791 C.ar      1 UNL1        0.0000
      4 C4          6.8239   -2.1897   20.4846 C.ar      1 UNL1        0.0000
      5 C5          8.1760   -2.6839   22.8742 C.ar      1 UNL1        0.0000
      6 C6          8.8670   -2.1763   21.7739 C.ar      1 UNL1        0.0000
      7 C7          6.1188   -1.9331   19.2386 C.2       1 UNL1        0.0000
      8 C8         12.8205    2.8959   23.1249 C.2       1 UNL1        0.0000
      9 C9         10.6310    1.8253   22.6990 C.3       1 UNL1        0.0000
     10 C10        12.2912    0.5769   24.0250 C.3       1 UNL1        0.0000
     11 C11        10.3840    0.6063   21.8224 C.3       1 UNL1        0.0000
     12 C12        12.0676   -0.6624   23.1690 C.3       1 UNL1        0.0000
     13 C13         5.4302   -0.2913   17.4747 C.3       1 UNL1        0.0000
     14 C14         6.7535    0.4901   19.4079 C.3       1 UNL1        0.0000
     15 C15         7.3766   -1.2300   26.2833 C.3       1 UNL1        0.0000
     16 C16         8.8788   -2.9573   24.1634 C.3       1 UNL1        0.0000
     17 C17        10.3378   -1.8902   21.8516 C.3       1 UNL1        0.0000
     18 C18        12.1585    4.2474   23.0300 C.3       1 UNL1        0.0000
     19 N1         11.9763    1.7963   23.2729 N.am      1 UNL1        0.0000
     20 N2          9.4880   -1.7743   24.7142 N.pl3     1 UNL1        0.0000
     21 N3          6.1007   -0.6240   18.7238 N.am      1 UNL1        0.0000
     22 N4         10.6550   -0.6439   22.6292 N.4       1 UNL1        0.0000
     23 O1          5.5784   -2.9023   18.6895 O.2       1 UNL1        0.0000
     24 O2         14.0508    2.8221   23.0714 O.2       1 UNL1        0.0000
     25 O3          7.7599    0.0270   24.0198 O.2       1 UNL1        0.0000
     26 O4          9.3033    0.4982   25.9569 O.2       1 UNL1        0.0000
     27 S1          8.5114   -0.4296   25.1725 S.o2      1 UNL1        0.0000
     28 Cl1        13.2754    5.4064   23.7420 Cl        1 UNL1        0.0000
@<TRIPOS>BOND
     1    1    2 ar
     2    1    4 ar
     3    2    5 ar
     4    3    4 ar
     5    3    6 ar
     6    4    7 1
     7    5    6 ar
     8    5   16 1
     9    6   17 1
    10    7   21 am
    11    7   23 2
    12    8   18 1
    13    8   19 am
    14    8   24 2
    15    9   11 1
    16    9   19 1
    17   10   12 1
    18   10   19 1
    19   11   22 1
    20   12   22 1
    21   13   21 1
    22   14   21 1
    23   15   27 1
    24   16   20 1
    25   17   22 1
    26   18   28 1
    27   20   27 1
    28   25   27 2
    29   26   27 2
@<TRIPOS>MOLECULE
DAR-DIA-fb2-18
   29    31     0     0     0
SMALL
NO_CHARGES

@<TRIPOS>ATOM
      1 C1         12.1720   -1.9922   22.8264 C.ar      1 UNL1        0.0000
      2 C2         12.8133    0.2635   22.4300 C.ar      1 UNL1        0.0000
      3 C3         11.4926   -1.5674   23.9628 C.ar      1 UNL1        0.0000
      4 C4         12.8475   -1.0656   22.0400 C.ar      1 UNL1        0.0000
      5 C5         11.5193   -0.2159   24.2669 C.ar      1 UNL1        0.0000
      6 C6          6.5977   -5.5065   24.8835 C.2       1 UNL1        0.0000
      7 C7          8.4836    0.2441   26.3457 C.2       1 UNL1        0.0000
      8 C8          8.4458   -4.3401   26.0409 C.3       1 UNL1        0.0000
      9 C9          8.3043   -4.1412   23.5844 C.3       1 UNL1        0.0000
     10 C10         6.1134    0.1964   27.0566 C.3       1 UNL1        0.0000
     11 C11         6.5739    0.3350   24.6383 C.3       1 UNL1        0.0000
     12 C12         8.6465   -2.8373   26.1701 C.3       1 UNL1        0.0000
     13 C13         8.5059   -2.6348   23.6800 C.3       1 UNL1        0.0000
     14 C14         4.9922    1.2024   26.8493 C.3       1 UNL1        0.0000
     15 C15         5.4127    1.3185   24.5392 C.3       1 UNL1        0.0000
     16 C16        13.4946   -2.8409   20.5959 C.3       1 UNL1        0.0000
     17 C17        10.7619   -2.5623   24.8155 C.3       1 UNL1        0.0000
     18 C18        10.8074    0.2975   25.4756 C.3       1 UNL1        0.0000
     19 C19         5.8974   -5.8018   23.5810 C.3       1 UNL1        0.0000
     20 N1         12.1643    0.7139   23.5271 N.ar      1 UNL1        0.0000
     21 N2          7.7155   -4.6748   24.8178 N.am      1 UNL1        0.0000
     22 N3          7.1230    0.3103   26.0015 N.am      1 UNL1        0.0000
     23 N4          9.3753    0.3536   25.2851 N.am      1 UNL1        0.0000
     24 N5          9.2887   -2.2779   24.9219 N.4       1 UNL1        0.0000
     25 O1          6.1614   -5.9990   25.9271 O.2       1 UNL1        0.0000
     26 O2          8.8728    0.0928   27.5085 O.2       1 UNL1        0.0000
     27 O3          4.4336    1.0489   25.5432 O.3       1 UNL1        0.0000
     28 O4         13.5156   -1.4502   20.9247 O.3       1 UNL1        0.0000
     29 Cl1         4.5660   -6.8888   23.9601 Cl        1 UNL1        0.0000
@<TRIPOS>BOND
     1    1    3 ar
     2    1    4 ar
     3    2    4 ar
     4    2   20 ar
     5    3    5 ar
     6    3   17 1
     7    4   28 1
     8    5   18 1
     9    5   20 ar
    10    6   19 1
    11    6   21 am
    12    6   25 2
    13    7   22 am
    14    7   23 am
    15    7   26 2
    16    8   12 1
    17    8   21 1
    18    9   13 1
    19    9   21 1
    20   10   14 1
    21   10   22 1
    22   11   15 1
    23   11   22 1
    24   12   24 1
    25   13   24 1
    26   14   27 1
    27   15   27 1
    28   16   28 1
    29   17   24 1
    30   18   23 1
    31   19   29 1
@<TRIPOS>MOLECULE
WAR-XCH-bdd-19
   26    28     0     0     0
SMALL
NO_CHARGES

@<TRIPOS>ATOM
      1 C1          5.4892   -3.5190   27.0062 C.1       1 UNL1        0.0000
      2 C2          8.2683   -5.5336   28.4464 C.ar      1 UNL1        0.0000
      3 C3          7.1389   -4.7203   28.3530 C.ar      1 UNL1        0.0000
      4 C4          8.9047   -5.9791   27.2878 C.ar      1 UNL1        0.0000
      5 C5          9.7323   -2.7891   24.9967 C.ar      1 UNL1        0.0000
      6 C6          7.2823   -4.7981   25.9425 C.ar      1 UNL1        0.0000
      7 C7          9.2735   -3.4286   22.7240 C.ar      1 UNL1        0.0000
      8 C8          9.2785   -1.5203   24.6744 C.ar      1 UNL1        0.0000
      9 C9          6.6459   -4.3526   27.1010 C.ar      1 UNL1        0.0000
     10 C10         8.4117   -5.6113   26.0359 C.ar      1 UNL1        0.0000
     11 C11         9.7266   -3.7557   23.9972 C.ar      1 UNL1        0.0000
     12 C12         8.8400   -2.1312   22.5035 C.ar      1 UNL1        0.0000
     13 C13         5.7438   -2.4560   18.6942 C.2       1 UNL1        0.0000
     14 C14         8.1212    0.1076   19.4106 C.3       1 UNL1        0.0000
     15 C15         8.6518   -0.2658   20.7959 C.3       1 UNL1        0.0000
     16 C16         6.6373   -0.2238   19.2792 C.3       1 UNL1        0.0000
     17 C17         6.8369   -2.0293   20.9528 C.3       1 UNL1        0.0000
     18 C18         8.3380   -1.7375   21.1238 C.3       1 UNL1        0.0000
     19 C19         9.1005   -6.0936   24.7825 C.3       1 UNL1        0.0000
     20 C20        10.2049   -5.1371   24.2903 C.3       1 UNL1        0.0000
     21 C21         5.9503   -2.1346   17.2355 C.3       1 UNL1        0.0000
     22 N1          4.5498   -2.8419   26.9293 N.1       1 UNL1        0.0000
     23 N2          8.8309   -1.1651   23.4492 N.ar      1 UNL1        0.0000
     24 N3          6.3852   -1.6267   19.6135 N.am      1 UNL1        0.0000
     25 O1          5.0315   -3.4141   19.0052 O.2       1 UNL1        0.0000
     26 Cl1         7.6840   -2.2153   16.9422 Cl        1 UNL1        0.0000
@<TRIPOS>BOND
     1    1    9 1
     2    1   22 3
     3    2    3 ar
     4    2    4 ar
     5    3    9 ar
     6    4   10 ar
     7    5    8 ar
     8    5   11 ar
     9    6    9 ar
    10    6   10 ar
    11    7   11 ar
    12    7   12 ar
    13    8   23 ar
    14   10   19 1
    15   11   20 1
    16   12   18 1
    17   12   23 ar
    18   13   21 1
    19   13   24 am
    20   13   25 2
    21   14   15 1
    22   14   16 1
    23   15   18 1
    24   16   24 1
    25   17   18 1
    26   17   24 1
    27   19   20 1
    28   21   26 1
@<TRIPOS>MOLECULE
JAN-GHE-bf4-2
   34    37     0     0     0
SMALL
NO_CHARGES

@<TRIPOS>ATOM
      1 C1         12.2054    6.0687   24.9014 C.1       1 UNL1        0.0000
      2 C2          8.5371   -5.8542   24.9497 C.ar      1 UNL1        0.0000
      3 C3          7.1883   -5.8152   24.5965 C.ar      1 UNL1        0.0000
      4 C4         13.2490    4.2699   23.6029 C.ar      1 UNL1        0.0000
      5 C5          9.3546   -4.7509   24.7042 C.ar      1 UNL1        0.0000
      6 C6         10.3978   -2.3844   22.6586 C.ar      1 UNL1        0.0000
      7 C7          9.8543   -1.4945   24.8380 C.ar      1 UNL1        0.0000
      8 C8         11.2439   -1.3001   22.4268 C.ar      1 UNL1        0.0000
      9 C9         10.7006   -0.4102   24.6063 C.ar      1 UNL1        0.0000
     10 C10         6.6570   -4.6730   23.9976 C.ar      1 UNL1        0.0000
     11 C11        13.2541    2.9474   23.1736 C.ar      1 UNL1        0.0000
     12 C12        11.2598    3.8115   24.8235 C.ar      1 UNL1        0.0000
     13 C13        12.2363    4.7182   24.4437 C.ar      1 UNL1        0.0000
     14 C14         9.7029   -2.4817   23.8642 C.ar      1 UNL1        0.0000
     15 C15         8.8233   -3.6087   24.1052 C.ar      1 UNL1        0.0000
     16 C16        11.3954   -0.3130   23.4006 C.ar      1 UNL1        0.0000
     17 C17         7.4745   -3.5697   23.7519 C.ar      1 UNL1        0.0000
     18 C18        12.2321    2.1200   23.6104 C.ar      1 UNL1        0.0000
     19 C19         6.8445   -2.2137   16.6433 C.2       1 UNL1        0.0000
     20 C20         5.8808   -1.3267   16.8998 C.2       1 UNL1        0.0000
     21 C21         6.0814   -0.3486   17.9939 C.2       1 UNL1        0.0000
     22 C22         5.7166   -2.1514   19.7318 C.3       1 UNL1        0.0000
     23 C23         7.0133   -0.1109   20.2643 C.3       1 UNL1        0.0000
     24 C24         6.7929   -3.0037   20.3952 C.3       1 UNL1        0.0000
     25 C25         8.0886   -0.9658   20.9232 C.3       1 UNL1        0.0000
     26 N1         12.1802    7.1676   25.2737 N.1       1 UNL1        0.0000
     27 N2         11.2315    2.5194   24.4271 N.ar      1 UNL1        0.0000
     28 N3          6.2759   -0.8785   19.2610 N.am      1 UNL1        0.0000
     29 N4          7.4942   -2.2251   21.4561 N.pl3     1 UNL1        0.0000
     30 N5         12.2509    0.7835   23.1663 N.pl3     1 UNL1        0.0000
     31 O1          6.0508    0.8292   17.6620 O.2       1 UNL1        0.0000
     32 O2          5.3339   -2.4024   22.8416 O.2       1 UNL1        0.0000
     33 O3          7.2312   -0.9772   23.6883 O.2       1 UNL1        0.0000
     34 S1          6.7509   -2.1507   22.9913 S.o2      1 UNL1        0.0000
@<TRIPOS>BOND
     1    1   13 1
     2    1   26 3
     3    2    3 ar
     4    2    5 ar
     5    3   10 ar
     6    4   11 ar
     7    4   13 ar
     8    5   15 ar
     9    6    8 ar
    10    6   14 ar
    11    7    9 ar
    12    7   14 ar
    13    8   16 ar
    14    9   16 ar
    15   10   17 ar
    16   11   18 ar
    17   12   13 ar
    18   12   27 ar
    19   14   15 1
    20   15   17 ar
    21   16   30 1
    22   17   34 1
    23   18   27 ar
    24   18   30 1
    25   19   20 2
    26   20   21 1
    27   21   28 am
    28   21   31 2
    29   22   24 1
    30   22   28 1
    31   23   25 1
    32   23   28 1
    33   24   29 1
    34   25   29 1
    35   29   34 1
    36   32   34 2
    37   33   34 2
@<TRIPOS>MOLECULE
WAR-XCH-b03-7
   25    27     0     0     0
SMALL
NO_CHARGES

@<TRIPOS>ATOM
      1 C1          7.4302   -1.8955   25.5691 C.1       1 UNL1        0.0000
      2 C2          7.5215   -3.0929   25.5678 C.1       1 UNL1        0.0000
      3 C3          6.0970   -2.7121   19.9740 C.2       1 UNL1        0.0000
      4 C4          8.5555    2.2620   25.5791 C.3       1 UNL1        0.0000
      5 C5          9.1305   -5.4090   27.9864 C.3       1 UNL1        0.0000
      6 C6          7.9172    1.6823   26.8377 C.3       1 UNL1        0.0000
      7 C7          7.9270    1.6856   24.3140 C.3       1 UNL1        0.0000
      8 C8          9.8523   -4.7740   26.8013 C.3       1 UNL1        0.0000
      9 C9          7.6810   -4.9422   28.0848 C.3       1 UNL1        0.0000
     10 C10         7.9567    0.1555   26.8376 C.3       1 UNL1        0.0000
     11 C11         7.9669    0.1589   24.3103 C.3       1 UNL1        0.0000
     12 C12         9.1010   -5.0115   25.4888 C.3       1 UNL1        0.0000
     13 C13         6.9207   -5.1803   26.7776 C.3       1 UNL1        0.0000
     14 C14         8.1377   -3.5339   22.8035 C.3       1 UNL1        0.0000
     15 C15         7.0155   -5.6300   21.9347 C.3       1 UNL1        0.0000
     16 C16         6.9444   -2.7233   22.2979 C.3       1 UNL1        0.0000
     17 C17         5.8484   -4.7693   21.4485 C.3       1 UNL1        0.0000
     18 C18         7.3183   -0.4270   25.5706 C.3       1 UNL1        0.0000
     19 C19         7.7784   -4.9921   23.0982 C.3       1 UNL1        0.0000
     20 C20         7.6342   -4.5627   25.5656 C.3       1 UNL1        0.0000
     21 C21         6.5861   -1.2867   19.9221 C.3       1 UNL1        0.0000
     22 N1          6.2912   -3.3966   21.1736 N.am      1 UNL1        0.0000
     23 N2          6.9424   -5.0558   24.3310 N.4       1 UNL1        0.0000
     24 O1          5.5572   -3.2000   18.9777 O.2       1 UNL1        0.0000
     25 Cl1         6.2451   -0.6958   18.2996 Cl        1 UNL1        0.0000
@<TRIPOS>BOND
     1    1    2 3
     2    1   18 1
     3    2   20 1
     4    3   21 1
     5    3   22 am
     6    3   24 2
     7    4    6 1
     8    4    7 1
     9    5    8 1
    10    5    9 1
    11    6   10 1
    12    7   11 1
    13    8   12 1
    14    9   13 1
    15   10   18 1
    16   11   18 1
    17   12   20 1
    18   13   20 1
    19   14   16 1
    20   14   19 1
    21   15   17 1
    22   15   19 1
    23   16   22 1
    24   17   22 1
    25   19   23 1
    26   20   23 1
    27   21   25 1
@<TRIPOS>MOLECULE
WAR-XCH-79d-6
   21    22     0     0     0
SMALL
NO_CHARGES

@<TRIPOS>ATOM
      1 C1          3.9016   -2.0626   25.4436 C.ar      1 UNL1        0.0000
      2 C2          5.0463   -1.2832   25.6103 C.ar      1 UNL1        0.0000
      3 C3          5.2814   -3.9859   24.9599 C.ar      1 UNL1        0.0000
      4 C4          4.0191   -3.4139   25.1184 C.ar      1 UNL1        0.0000
      5 C5          6.3086   -1.8552   25.4518 C.ar      1 UNL1        0.0000
      6 C6          6.4262   -3.2065   25.1266 C.ar      1 UNL1        0.0000
      7 C7          6.5878   -2.3571   19.5012 C.2       1 UNL1        0.0000
      8 C8          8.2926   -2.2014   21.2806 C.3       1 UNL1        0.0000
      9 C9          6.5674   -3.9870   21.4362 C.3       1 UNL1        0.0000
     10 C10         8.2635   -2.2804   22.8006 C.3       1 UNL1        0.0000
     11 C11         7.6161   -4.6642   22.3086 C.3       1 UNL1        0.0000
     12 C12         2.7948   -4.2471   24.9417 C.3       1 UNL1        0.0000
     13 C13         7.5142   -0.9928   25.6372 C.3       1 UNL1        0.0000
     14 C14         7.2848   -1.1597   18.9035 C.3       1 UNL1        0.0000
     15 N1          7.1194   -2.8488   20.6934 N.am      1 UNL1        0.0000
     16 N2          8.2478   -3.6991   23.2524 N.pl3     1 UNL1        0.0000
     17 O1          5.6036   -2.8362   18.9331 O.2       1 UNL1        0.0000
     18 O2          8.9724   -3.1822   25.6647 O.2       1 UNL1        0.0000
     19 O3          7.8571   -5.3828   25.1538 O.2       1 UNL1        0.0000
     20 S1          8.0078   -3.9627   24.9204 S.o2      1 UNL1        0.0000
     21 Cl1         6.4390   -0.7792   17.4076 Cl        1 UNL1        0.0000
@<TRIPOS>BOND
     1    1    2 ar
     2    1    4 ar
     3    2    5 ar
     4    3    4 ar
     5    3    6 ar
     6    4   12 1
     7    5    6 ar
     8    5   13 1
     9    6   20 1
    10    7   14 1
    11    7   15 am
    12    7   17 2
    13    8   10 1
    14    8   15 1
    15    9   11 1
    16    9   15 1
    17   10   16 1
    18   11   16 1
    19   14   21 1
    20   16   20 1
    21   18   20 2
    22   19   20 2
@<TRIPOS>MOLECULE
DAR-DIA-fb2-17
   29    31     0     0     0
SMALL
NO_CHARGES

@<TRIPOS>ATOM
      1 C1         13.3058    6.1811   22.9359 C.1       1 UNL1        0.0000
      2 C2         12.0164    4.2448   23.7115 C.ar      1 UNL1        0.0000
      3 C3         10.8709    6.0725   22.7095 C.ar      1 UNL1        0.0000
      4 C4         12.0652    5.5014   23.1183 C.ar      1 UNL1        0.0000
      5 C5         10.7919    3.6067   23.8755 C.ar      1 UNL1        0.0000
      6 C6          9.6545    4.2627   23.4330 C.ar      1 UNL1        0.0000
      7 C7         13.2314   -2.4496   22.9819 C.2       1 UNL1        0.0000
      8 C8          7.0853    2.6328   21.6687 C.2       1 UNL1        0.0000
      9 C9         11.0727   -1.2409   22.9984 C.3       1 UNL1        0.0000
     10 C10        13.1146    0.0439   22.4953 C.3       1 UNL1        0.0000
     11 C11         5.9546    1.5069   19.7767 C.3       1 UNL1        0.0000
     12 C12         7.7614    0.2770   20.9179 C.3       1 UNL1        0.0000
     13 C13        10.6389   -0.1934   24.0133 C.3       1 UNL1        0.0000
     14 C14        12.7103    1.1124   23.5020 C.3       1 UNL1        0.0000
     15 C15         6.5028    0.9868   18.4572 C.3       1 UNL1        0.0000
     16 C16         8.2120   -0.2069   19.5437 C.3       1 UNL1        0.0000
     17 C17        10.7322    2.2509   24.5151 C.3       1 UNL1        0.0000
     18 C18         8.3122    3.6255   23.5843 C.3       1 UNL1        0.0000
     19 C19        14.7279   -2.3754   22.8126 C.3       1 UNL1        0.0000
     20 N1         14.3152    6.7341   22.7874 N.1       1 UNL1        0.0000
     21 N2          9.6624    5.4834   22.8520 N.ar      1 UNL1        0.0000
     22 N3         12.5276   -1.2540   22.8455 N.am      1 UNL1        0.0000
     23 N4          6.9958    1.5268   20.8068 N.am      1 UNL1        0.0000
     24 N5          8.0956    2.5691   22.6211 N.am      1 UNL1        0.0000
     25 N6         11.2020    1.1499   23.6065 N.4       1 UNL1        0.0000
     26 O1         12.7060   -3.5378   23.2306 O.2       1 UNL1        0.0000
     27 O2          6.3192    3.5995   21.5980 O.2       1 UNL1        0.0000
     28 O3          7.1024   -0.2958   18.6492 O.3       1 UNL1        0.0000
     29 Cl1        15.3980   -2.0245   24.4018 Cl        1 UNL1        0.0000
@<TRIPOS>BOND
     1    1    4 1
     2    1   20 3
     3    2    4 ar
     4    2    5 ar
     5    3    4 ar
     6    3   21 ar
     7    5    6 ar
     8    5   17 1
     9    6   18 1
    10    6   21 ar
    11    7   19 1
    12    7   22 am
    13    7   26 2
    14    8   23 am
    15    8   24 am
    16    8   27 2
    17    9   13 1
    18    9   22 1
    19   10   14 1
    20   10   22 1
    21   11   15 1
    22   11   23 1
    23   12   16 1
    24   12   23 1
    25   13   25 1
    26   14   25 1
    27   15   28 1
    28   16   28 1
    29   17   25 1
    30   18   24 1
    31   19   29 1
@<TRIPOS>MOLECULE
MAK-UNK-69e-1
   34    37     0     0     0
SMALL
NO_CHARGES

@<TRIPOS>ATOM
      1 C1         13.7383    2.9766   20.9964 C.ar      1 UNL1        0.0000
      2 C2         13.8591    1.6245   21.3170 C.ar      1 UNL1        0.0000
      3 C3         13.0001    3.8257   21.8209 C.ar      1 UNL1        0.0000
      4 C4          5.9818   -0.7820   25.2054 C.ar      1 UNL1        0.0000
      5 C5          5.5487   -1.8522   24.4173 C.ar      1 UNL1        0.0000
      6 C6          7.8100   -2.2665   23.6351 C.ar      1 UNL1        0.0000
      7 C7         12.5035    1.9705   23.2867 C.ar      1 UNL1        0.0000
      8 C8          9.3765    0.4367   25.5323 C.2       1 UNL1        0.0000
      9 C9          8.2700   -1.1917   24.4216 C.ar      1 UNL1        0.0000
     10 C10        13.2417    1.1215   22.4622 C.ar      1 UNL1        0.0000
     11 C11        12.3827    3.3227   22.9661 C.ar      1 UNL1        0.0000
     12 C12         7.3471   -0.4757   25.1871 C.ar      1 UNL1        0.0000
     13 C13         9.5462   -0.6049   24.6495 C.2       1 UNL1        0.0000
     14 C14         6.4470   -2.5844   23.6435 C.ar      1 UNL1        0.0000
     15 C15         6.4893    6.2685   23.1036 C.2       1 UNL1        0.0000
     16 C16         8.8997    6.8177   23.0067 C.3       1 UNL1        0.0000
     17 C17         8.1792    4.6177   22.1617 C.3       1 UNL1        0.0000
     18 C18        10.0023    6.1645   23.8272 C.3       1 UNL1        0.0000
     19 C19         9.2729    3.9310   22.9686 C.3       1 UNL1        0.0000
     20 C20        12.3471   -1.2090   20.6866 C.3       1 UNL1        0.0000
     21 C21        13.3726   -0.3241   22.8051 C.3       1 UNL1        0.0000
     22 C22        11.5883    4.2359   23.8526 C.3       1 UNL1        0.0000
     23 C23         5.4063    5.2520   22.8436 C.3       1 UNL1        0.0000
     24 C24        12.5538   -2.7705   22.6453 C.3       1 UNL1        0.0000
     25 C25        10.8616   -0.9257   22.6944 C.3       1 UNL1        0.0000
     26 C26        12.2878   -1.3043   22.2312 C.3       1 UNL1        0.0000
     27 N1          8.0469    0.5066   25.8509 N.pl3     1 UNL1        0.0000
     28 N2          7.7917    5.8894   22.7815 N.am      1 UNL1        0.0000
     29 N3         10.4328    4.8854   23.1444 N.4       1 UNL1        0.0000
     30 O1          6.1853    7.3647   23.5810 O.2       1 UNL1        0.0000
     31 O2         13.8294   -3.2086   22.1960 O.3       1 UNL1        0.0000
     32 O3         10.7509   -0.9744   24.1109 O.3       1 UNL1        0.0000
     33 F1          6.0018   -3.6052   22.8981 F         1 UNL1        0.0000
     34 Cl1         5.2748    4.2724   24.3000 Cl        1 UNL1        0.0000
@<TRIPOS>BOND
     1    1    2 ar
     2    1    3 ar
     3    2   10 ar
     4    3   11 ar
     5    4    5 ar
     6    4   12 ar
     7    5   14 ar
     8    6    9 ar
     9    6   14 ar
    10    7   10 ar
    11    7   11 ar
    12    8   13 2
    13    8   27 1
    14    9   12 ar
    15    9   13 1
    16   10   21 1
    17   11   22 1
    18   12   27 1
    19   13   32 1
    20   14   33 1
    21   15   23 1
    22   15   28 am
    23   15   30 2
    24   16   18 1
    25   16   28 1
    26   17   19 1
    27   17   28 1
    28   18   29 1
    29   19   29 1
    30   20   26 1
    31   21   26 1
    32   22   29 1
    33   23   34 1
    34   24   26 1
    35   24   31 1
    36   25   26 1
    37   25   32 1
@<TRIPOS>MOLECULE
VIR-GIT-7b3-2
   18    19     0     0     0
SMALL
NO_CHARGES

@<TRIPOS>ATOM
      1 C1          7.3469   -4.5460   26.1924 C.2       1 UNL1        0.0000
      2 C2          6.4872   -3.5631   21.2573 C.2       1 UNL1        0.0000
      3 C3          7.2223   -4.7393   30.3957 C.3       1 UNL1        0.0000
      4 C4          7.6622   -5.8947   29.4980 C.3       1 UNL1        0.0000
      5 C5          6.4208   -3.7072   29.6039 C.3       1 UNL1        0.0000
      6 C6          8.2674   -3.1952   24.3164 C.3       1 UNL1        0.0000
      7 C7          5.7685   -3.2102   24.7839 C.3       1 UNL1        0.0000
      8 C8          8.4048   -5.3847   28.2660 C.3       1 UNL1        0.0000
      9 C9          7.1862   -3.2384   28.3684 C.3       1 UNL1        0.0000
     10 C10         8.0076   -4.1194   23.1281 C.3       1 UNL1        0.0000
     11 C11         5.5842   -4.1197   23.5683 C.3       1 UNL1        0.0000
     12 C12         7.1749   -3.2917   25.3861 C.3       1 UNL1        0.0000
     13 C13         7.5950   -2.7640   20.6185 C.3       1 UNL1        0.0000
     14 N1          7.6092   -4.3835   27.5523 N.am      1 UNL1        0.0000
     15 N2          6.6614   -3.9133   22.5956 N.am      1 UNL1        0.0000
     16 O1          7.2491   -5.6408   25.6320 O.2       1 UNL1        0.0000
     17 O2          5.4987   -3.8676   20.5849 O.2       1 UNL1        0.0000
     18 Cl1         7.7119   -1.2560   21.5186 Cl        1 UNL1        0.0000
@<TRIPOS>BOND
     1    1   12 1
     2    1   14 am
     3    1   16 2
     4    2   13 1
     5    2   15 am
     6    2   17 2
     7    3    4 1
     8    3    5 1
     9    4    8 1
    10    5    9 1
    11    6   10 1
    12    6   12 1
    13    7   11 1
    14    7   12 1
    15    8   14 1
    16    9   14 1
    17   10   15 1
    18   11   15 1
    19   13   18 1
@<TRIPOS>MOLECULE
STU-CHA-6d5-1
   29    31     0     0     0
SMALL
NO_CHARGES

@<TRIPOS>ATOM
      1 C1         12.3272    2.0903   23.7942 C.ar      1 UNL1        0.0000
      2 C2         12.4296    3.3846   23.2844 C.ar      1 UNL1        0.0000
      3 C3         10.2420    3.9055   24.1678 C.ar      1 UNL1        0.0000
      4 C4         11.1823    1.7036   24.4907 C.ar      1 UNL1        0.0000
      5 C5         10.1397    2.6112   24.6775 C.ar      1 UNL1        0.0000
      6 C6         11.3870    4.2922   23.4712 C.ar      1 UNL1        0.0000
      7 C7          4.3184    0.5867   22.7649 C.2       1 UNL1        0.0000
      8 C8          6.7477    0.9821   22.5134 C.3       1 UNL1        0.0000
      9 C9          5.9575   -0.0824   24.5907 C.3       1 UNL1        0.0000
     10 C10        11.5133   -2.8830   22.6780 C.3       1 UNL1        0.0000
     11 C11        12.1519   -0.9455   21.3032 C.3       1 UNL1        0.0000
     12 C12         7.5832    1.9708   23.3135 C.3       1 UNL1        0.0000
     13 C13         6.7831    0.8897   25.4227 C.3       1 UNL1        0.0000
     14 C14        12.9768   -3.3018   22.6751 C.3       1 UNL1        0.0000
     15 C15        13.5885   -1.4461   21.3579 C.3       1 UNL1        0.0000
     16 C16        11.0946    0.3124   25.0267 C.3       1 UNL1        0.0000
     17 C17         8.8980    2.2174   25.4220 C.3       1 UNL1        0.0000
     18 C18         4.1973    0.4857   21.2653 C.3       1 UNL1        0.0000
     19 N1          5.6057    0.5062   23.2941 N.am      1 UNL1        0.0000
     20 N2         11.4390   -1.3996   22.5330 N.pl3     1 UNL1        0.0000
     21 N3          9.9699   -0.4094   24.4901 N.pl3     1 UNL1        0.0000
     22 N4          7.9884    1.3285   24.6214 N.4       1 UNL1        0.0000
     23 O1          3.2984    0.7301   23.4439 O.2       1 UNL1        0.0000
     24 O2          8.8954   -1.7337   22.5299 O.2       1 UNL1        0.0000
     25 O3          9.8344    0.5623   22.0927 O.2       1 UNL1        0.0000
     26 O4         13.6139   -2.8707   21.4704 O.3       1 UNL1        0.0000
     27 S1          9.8920   -0.7108   22.7854 S.o2      1 UNL1        0.0000
     28 Cl1        11.5129    5.8882   22.8406 Cl        1 UNL1        0.0000
     29 Cl2         4.2768    2.1296   20.6417 Cl        1 UNL1        0.0000
@<TRIPOS>BOND
     1    1    2 ar
     2    1    4 ar
     3    2    6 ar
     4    3    5 ar
     5    3    6 ar
     6    4    5 ar
     7    4   16 1
     8    5   17 1
     9    6   28 1
    10    7   18 1
    11    7   19 am
    12    7   23 2
    13    8   12 1
    14    8   19 1
    15    9   13 1
    16    9   19 1
    17   10   14 1
    18   10   20 1
    19   11   15 1
    20   11   20 1
    21   12   22 1
    22   13   22 1
    23   14   26 1
    24   15   26 1
    25   16   21 1
    26   17   22 1
    27   18   29 1
    28   20   27 1
    29   21   27 1
    30   24   27 2
    31   25   27 2
@<TRIPOS>MOLECULE
WAR-XCH-79d-7
   22    24     0     0     0
SMALL
NO_CHARGES

@<TRIPOS>ATOM
      1 C1          2.0805   -1.2643   24.9196 C.ar      1 UNL1        0.0000
      2 C2          2.1397   -2.5919   24.4959 C.ar      1 UNL1        0.0000
      3 C3          3.2206   -0.6435   25.4300 C.ar      1 UNL1        0.0000
      4 C4          3.3390   -3.2989   24.5829 C.ar      1 UNL1        0.0000
      5 C5          4.4199   -1.3505   25.5170 C.ar      1 UNL1        0.0000
      6 C6          4.4791   -2.6782   25.0934 C.ar      1 UNL1        0.0000
      7 C7          6.7093   -2.3191   19.8444 C.2       1 UNL1        0.0000
      8 C8          7.7156   -5.1462   26.8055 C.3       1 UNL1        0.0000
      9 C9          6.9222   -5.7515   25.6558 C.3       1 UNL1        0.0000
     10 C10         7.9775   -3.6630   26.5852 C.3       1 UNL1        0.0000
     11 C11         5.6213   -4.9848   25.4072 C.3       1 UNL1        0.0000
     12 C12         6.6851   -2.8836   26.3308 C.3       1 UNL1        0.0000
     13 C13         7.3965   -1.7656   22.1558 C.3       1 UNL1        0.0000
     14 C14         6.9690   -4.1306   21.6105 C.3       1 UNL1        0.0000
     15 C15         6.5276   -1.8741   23.4003 C.3       1 UNL1        0.0000
     16 C16         6.0945   -4.2753   22.8487 C.3       1 UNL1        0.0000
     17 C17         5.8019   -3.4574   25.1898 C.3       1 UNL1        0.0000
     18 C18         7.4619   -1.1097   19.3497 C.3       1 UNL1        0.0000
     19 N1          6.9892   -2.7402   21.1436 N.am      1 UNL1        0.0000
     20 N2          6.5644   -3.2996   23.9044 N.4       1 UNL1        0.0000
     21 O1          5.8994   -2.8728   19.0964 O.2       1 UNL1        0.0000
     22 Cl1         6.2529    0.0948   18.9194 Cl        1 UNL1        0.0000
@<TRIPOS>BOND
     1    1    2 ar
     2    1    3 ar
     3    2    4 ar
     4    3    5 ar
     5    4    6 ar
     6    5    6 ar
     7    6   17 1
     8    7   18 1
     9    7   19 am
    10    7   21 2
    11    8    9 1
    12    8   10 1
    13    9   11 1
    14   10   12 1
    15   11   17 1
    16   12   17 1
    17   13   15 1
    18   13   19 1
    19   14   16 1
    20   14   19 1
    21   15   20 1
    22   16   20 1
    23   17   20 1
    24   18   22 1
@<TRIPOS>MOLECULE
DAN-LON-a5f-6
   25    27     0     0     0
SMALL
NO_CHARGES

@<TRIPOS>ATOM
      1 C1          5.8554   -2.4507   23.0343 C.ar      1 UNL1        0.0000
      2 C2          8.7653   -0.4913   22.2791 C.ar      1 UNL1        0.0000
      3 C3          9.5422   -2.1782   20.7339 C.ar      1 UNL1        0.0000
      4 C4          6.9291   -2.3332   23.9168 C.ar      1 UNL1        0.0000
      5 C5          5.8464   -3.4663   22.0781 C.ar      1 UNL1        0.0000
      6 C6          7.8492   -0.0420   21.3281 C.ar      1 UNL1        0.0000
      7 C7          8.6260   -1.7290   19.7829 C.ar      1 UNL1        0.0000
      8 C8          7.9850   -4.2467   22.8869 C.ar      1 UNL1        0.0000
      9 C9          9.6119   -1.5594   21.9820 C.ar      1 UNL1        0.0000
     10 C10         7.9939   -3.2311   23.8431 C.ar      1 UNL1        0.0000
     11 C11         7.7795   -0.6608   20.0800 C.ar      1 UNL1        0.0000
     12 C12         6.9112   -4.3643   22.0044 C.ar      1 UNL1        0.0000
     13 C13        12.4924    1.0576   23.3300 C.2       1 UNL1        0.0000
     14 C14        11.8609   -0.4719   25.2331 C.3       1 UNL1        0.0000
     15 C15        11.9627   -1.3212   22.9013 C.3       1 UNL1        0.0000
     16 C16        11.1660   -1.8043   25.4748 C.3       1 UNL1        0.0000
     17 C17        10.6078   -2.0497   23.0172 C.3       1 UNL1        0.0000
     18 C18         9.1491   -3.1033   24.7919 C.3       1 UNL1        0.0000
     19 C19        13.3321    1.0385   22.0758 C.3       1 UNL1        0.0000
     20 N1         12.0829   -0.1866   23.8136 N.am      1 UNL1        0.0000
     21 N2         10.0687   -1.9600   24.4515 N.4       1 UNL1        0.0000
     22 O1         12.2213    2.1353   23.8644 O.2       1 UNL1        0.0000
     23 Cl1         6.6492   -0.1065   18.9071 Cl        1 UNL1        0.0000
     24 Cl2         6.9001   -5.6164   20.8238 Cl        1 UNL1        0.0000
     25 Cl3        12.2121    1.0914   20.7192 Cl        1 UNL1        0.0000
@<TRIPOS>BOND
     1    1    4 ar
     2    1    5 ar
     3    2    6 ar
     4    2    9 ar
     5    3    7 ar
     6    3    9 ar
     7    4   10 ar
     8    5   12 ar
     9    6   11 ar
    10    7   11 ar
    11    8   10 ar
    12    8   12 ar
    13    9   17 1
    14   10   18 1
    15   11   23 1
    16   12   24 1
    17   13   19 1
    18   13   20 am
    19   13   22 2
    20   14   16 1
    21   14   20 1
    22   15   17 1
    23   15   20 1
    24   16   21 1
    25   17   21 1
    26   18   21 1
    27   19   25 1
@<TRIPOS>MOLECULE
BEN-VAN-77c-11
   30    32     0     0     0
SMALL
NO_CHARGES

@<TRIPOS>ATOM
      1 C1          6.7360   -6.0352   24.4716 C.1       1 UNL1        0.0000
      2 C2          5.3497   -4.7966   22.8734 C.ar      1 UNL1        0.0000
      3 C3          5.2217   -3.7859   21.9271 C.ar      1 UNL1        0.0000
      4 C4          9.3229   -1.2080   24.4591 C.ar      1 UNL1        0.0000
      5 C5          6.7032   -0.7764   23.6027 C.ar      1 UNL1        0.0000
      6 C6          7.6328   -4.1863   23.1404 C.ar      1 UNL1        0.0000
      7 C7          6.5748   -5.0071   23.4962 C.ar      1 UNL1        0.0000
      8 C8          9.0795   -0.7404   23.1678 C.ar      1 UNL1        0.0000
      9 C9          7.7696   -0.5246   22.7396 C.ar      1 UNL1        0.0000
     10 C10         8.2565   -1.4599   25.3223 C.ar      1 UNL1        0.0000
     11 C11         6.9467   -1.2441   24.8941 C.ar      1 UNL1        0.0000
     12 C12         6.3403   -3.0196   21.6416 C.ar      1 UNL1        0.0000
     13 C13        13.3242    3.5553   25.3338 C.2       1 UNL1        0.0000
     14 C14        12.5741    2.4514   25.3308 C.2       1 UNL1        0.0000
     15 C15        11.5534    2.2849   24.2751 C.2       1 UNL1        0.0000
     16 C16        12.7427    0.1737   23.5379 C.3       1 UNL1        0.0000
     17 C17        10.7300    0.9847   22.3456 C.3       1 UNL1        0.0000
     18 C18        12.6004   -0.9115   22.4805 C.3       1 UNL1        0.0000
     19 C19        10.2548   -0.4750   22.2479 C.3       1 UNL1        0.0000
     20 C20         6.9893   -0.5822   18.9190 C.3       1 UNL1        0.0000
     21 C21         7.4842   -0.0239   21.3619 C.3       1 UNL1        0.0000
     22 C22         7.2977   -1.1403   20.3084 C.3       1 UNL1        0.0000
     23 N1          6.8672   -6.8718   25.2652 N.1       1 UNL1        0.0000
     24 N2          7.5468   -3.1944   22.2258 N.ar      1 UNL1        0.0000
     25 N3         11.6773    1.1764   23.4416 N.am      1 UNL1        0.0000
     26 N4          6.1984   -2.0256   20.7043 N.pl3     1 UNL1        0.0000
     27 O1         10.6597    3.1285   24.1965 O.2       1 UNL1        0.0000
     28 O2         11.2804   -1.4449   22.5068 O.3       1 UNL1        0.0000
     29 F1          8.4904   -1.9080   26.5628 F         1 UNL1        0.0000
     30 F2          5.9227   -1.4876   25.7227 F         1 UNL1        0.0000
@<TRIPOS>BOND
     1    1    7 1
     2    1   23 3
     3    2    3 ar
     4    2    7 ar
     5    3   12 ar
     6    4    8 ar
     7    4   10 ar
     8    5    9 ar
     9    5   11 ar
    10    6    7 ar
    11    6   24 ar
    12    8    9 ar
    13    8   19 1
    14    9   21 1
    15   10   11 ar
    16   10   29 1
    17   11   30 1
    18   12   24 ar
    19   12   26 1
    20   13   14 2
    21   14   15 1
    22   15   25 am
    23   15   27 2
    24   16   18 1
    25   16   25 1
    26   17   19 1
    27   17   25 1
    28   18   28 1
    29   19   28 1
    30   20   22 1
    31   21   22 1
    32   22   26 1
@<TRIPOS>MOLECULE
DAV-CRI-f9b-7
   74    77     0     0     0
SMALL
NO_CHARGES

@<TRIPOS>ATOM
      1 C1         13.3543    0.0635   24.8374 C.ar      1 UNL1        0.0000
      2 C2         12.4217   -2.5689   25.6339 C.ar      1 UNL1        0.0000
      3 C3         13.7441    1.3993   24.7420 C.ar      1 UNL1        0.0000
      4 C4         12.0535   -3.9124   25.7413 C.ar      1 UNL1        0.0000
      5 C5         10.3776   -2.0579   24.4408 C.ar      1 UNL1        0.0000
      6 C6         11.0354    0.7412   24.8547 C.ar      1 UNL1        0.0000
      7 C7         11.5962   -1.6521   24.9925 C.ar      1 UNL1        0.0000
      8 C8         12.0000   -0.2656   24.8936 C.ar      1 UNL1        0.0000
      9 C9          9.9815   -3.4096   24.5353 C.ar      1 UNL1        0.0000
     10 C10        12.7795    2.4062   24.7031 C.ar      1 UNL1        0.0000
     11 C11        10.8282   -4.3131   25.1848 C.ar      1 UNL1        0.0000
     12 C12        11.4252    2.0771   24.7594 C.ar      1 UNL1        0.0000
     13 C13         8.7698   -5.2390   24.3067 C.2       1 UNL1        0.0000
     14 C14         4.5659   -4.0728   24.6287 C.2       1 UNL1        0.0000
     15 C15         5.7735   -0.1971   19.1075 C.2       1 UNL1        0.0000
     16 C16         6.1667   -2.9724   20.7631 C.2       1 UNL1        0.0000
     17 C17         7.5478   -6.3311   22.3803 C.3       1 UNL1        0.0000
     18 C18         6.1619   -6.0342   21.8144 C.3       1 UNL1        0.0000
     19 C19         6.2619   -5.8558   24.5542 C.3       1 UNL1        0.0000
     20 C20         7.6275   -6.1677   23.9132 C.3       1 UNL1        0.0000
     21 C21         5.5760   -4.7495   22.4007 C.3       1 UNL1        0.0000
     22 C22        10.9220   -1.7985   20.8553 C.3       1 UNL1        0.0000
     23 C23         3.7562   -3.0334   23.8920 C.3       1 UNL1        0.0000
     24 C24         6.9374   -1.1689   19.1923 C.3       1 UNL1        0.0000
     25 C25         7.1094   -1.7952   20.5765 C.3       1 UNL1        0.0000
     26 C26         9.5575   -1.1530   20.6278 C.3       1 UNL1        0.0000
     27 N1          8.8069   -3.9549   24.0378 N.2       1 UNL1        0.0000
     28 N2          5.4681   -4.8283   23.8688 N.am      1 UNL1        0.0000
     29 N3          5.9570    0.7544   18.1267 N.am      1 UNL1        0.0000
     30 N4          9.3754   -0.0616   21.5795 N.3       1 UNL1        0.0000
     31 N5          8.7687    2.2890   24.8152 N.pl3     1 UNL1        0.0000
     32 N6          6.3547   -3.6064   21.9818 N.am      1 UNL1        0.0000
     33 N7          8.5245   -2.2420   20.7347 N.4       1 UNL1        0.0000
     34 O1         13.1678    3.6259   24.6152 O.3       1 UNL1        0.0000
     35 O2          4.3966   -4.2180   25.8424 O.2       1 UNL1        0.0000
     36 O3          4.7787   -0.2517   19.8245 O.2       1 UNL1        0.0000
     37 O4          5.3374   -3.2987   19.9168 O.2       1 UNL1        0.0000
     38 O5         10.2485    4.0847   25.9250 O.2       1 UNL1        0.0000
     39 O6         10.1792    3.9252   23.4115 O.2       1 UNL1        0.0000
     40 S1         10.1088   -5.8798   25.1567 S.3       1 UNL1        0.0000
     41 S2         10.1492    3.2868   24.7156 S.o2      1 UNL1        0.0000
     42 Cl1         2.2992   -3.8404   23.3237 Cl        1 UNL1        0.0000
     43 H          13.3543    0.0635   24.8374 H         1 UNL1        0.0000
     44 H          12.4217   -2.5689   25.6339 H         1 UNL1        0.0000
     45 H          13.7441    1.3993   24.7420 H         1 UNL1        0.0000
     46 H          12.0535   -3.9124   25.7413 H         1 UNL1        0.0000
     47 H          10.3776   -2.0579   24.4408 H         1 UNL1        0.0000
     48 H          11.0354    0.7412   24.8547 H         1 UNL1        0.0000
     49 H           7.5478   -6.3311   22.3803 H         1 UNL1        0.0000
     50 H           7.5478   -6.3311   22.3803 H         1 UNL1        0.0000
     51 H           6.1619   -6.0342   21.8144 H         1 UNL1        0.0000
     52 H           6.1619   -6.0342   21.8144 H         1 UNL1        0.0000
     53 H           6.2619   -5.8558   24.5542 H         1 UNL1        0.0000
     54 H           6.2619   -5.8558   24.5542 H         1 UNL1        0.0000
     55 H           7.6275   -6.1677   23.9132 H         1 UNL1        0.0000
     56 H           5.5760   -4.7495   22.4007 H         1 UNL1        0.0000
     57 H          10.9220   -1.7985   20.8553 H         1 UNL1        0.0000
     58 H          10.9220   -1.7985   20.8553 H         1 UNL1        0.0000
     59 H          10.9220   -1.7985   20.8553 H         1 UNL1        0.0000
     60 H           3.7562   -3.0334   23.8920 H         1 UNL1        0.0000
     61 H           3.7562   -3.0334   23.8920 H         1 UNL1        0.0000
     62 H           6.9374   -1.1689   19.1923 H         1 UNL1        0.0000
     63 H           6.9374   -1.1689   19.1923 H         1 UNL1        0.0000
     64 H           7.1094   -1.7952   20.5765 H         1 UNL1        0.0000
     65 H           9.5575   -1.1530   20.6278 H         1 UNL1        0.0000
     66 H           5.9570    0.7544   18.1267 H         1 UNL1        0.0000
     67 H           5.9570    0.7544   18.1267 H         1 UNL1        0.0000
     68 H           9.3754   -0.0616   21.5795 H         1 UNL1        0.0000
     69 H           9.3754   -0.0616   21.5795 H         1 UNL1        0.0000
     70 H           8.7687    2.2890   24.8152 H         1 UNL1        0.0000
     71 H           8.7687    2.2890   24.8152 H         1 UNL1        0.0000
     72 H           6.3547   -3.6064   21.9818 H         1 UNL1        0.0000
     73 H           8.5245   -2.2420   20.7347 H         1 UNL1        0.0000
     74 H           8.5245   -2.2420   20.7347 H         1 UNL1        0.0000
@<TRIPOS>BOND
     1    1    3 ar
     2    1    8 ar
     3    2    4 ar
     4    2    7 ar
     5    3   10 ar
     6    4   11 ar
     7    5    7 ar
     8    5    9 ar
     9    6    8 ar
    10    6   12 ar
    11    7    8 1
    12    9   11 ar
    13    9   27 1
    14   10   12 ar
    15   10   34 1
    16   11   40 1
    17   12   41 1
    18   13   20 1
    19   13   27 2
    20   13   40 1
    21   14   23 1
    22   14   28 am
    23   14   35 2
    24   15   24 1
    25   15   29 am
    26   15   36 2
    27   16   25 1
    28   16   32 am
    29   16   37 2
    30   17   18 1
    31   17   20 1
    32   18   21 1
    33   19   20 1
    34   19   28 1
    35   21   28 1
    36   21   32 1
    37   22   26 1
    38   23   42 1
    39   24   25 1
    40   25   33 1
    41   26   30 1
    42   26   33 1
    43   31   41 1
    44   38   41 2
    45   39   41 2
    46    1   43 1
    47    2   44 1
    48    3   45 1
    49    4   46 1
    50    5   47 1
    51    6   48 1
    52   17   49 1
    53   17   50 1
    54   18   51 1
    55   18   52 1
    56   19   53 1
    57   19   54 1
    58   20   55 1
    59   21   56 1
    60   22   57 1
    61   22   58 1
    62   22   59 1
    63   23   60 1
    64   23   61 1
    65   24   62 1
    66   24   63 1
    67   25   64 1
    68   26   65 1
    69   29   66 1
    70   29   67 1
    71   30   68 1
    72   30   69 1
    73   31   70 1
    74   31   71 1
    75   32   72 1
    76   33   73 1
    77   33   74 1
@<TRIPOS>MOLECULE
VIR-GIT-7b3-3
   17    17     0     0     0
SMALL
NO_CHARGES

@<TRIPOS>ATOM
      1 C1          6.7730   -4.3549   26.0073 C.2       1 UNL1        0.0000
      2 C2          6.4699   -4.1263   20.9165 C.2       1 UNL1        0.0000
      3 C3          7.0407   -2.7320   24.1402 C.3       1 UNL1        0.0000
      4 C4          5.0185   -4.2703   24.2256 C.3       1 UNL1        0.0000
      5 C5          7.6227   -3.6275   23.0480 C.3       1 UNL1        0.0000
      6 C6          5.6555   -5.1082   23.1162 C.3       1 UNL1        0.0000
      7 C7          6.0433   -3.4716   25.0375 C.3       1 UNL1        0.0000
      8 C8          9.7488   -4.8566   26.1586 C.3       1 UNL1        0.0000
      9 C9          8.4497   -5.6161   28.1788 C.3       1 UNL1        0.0000
     10 C10         7.5615   -2.3502   27.2743 C.3       1 UNL1        0.0000
     11 C11         7.5161   -3.2513   20.2733 C.3       1 UNL1        0.0000
     12 C12         8.8901   -4.4261   27.3389 C.3       1 UNL1        0.0000
     13 N1          6.5565   -4.2906   22.2984 N.am      1 UNL1        0.0000
     14 N2          7.7042   -3.7341   26.8406 N.am      1 UNL1        0.0000
     15 O1          6.5240   -5.5633   26.0256 O.2       1 UNL1        0.0000
     16 O2          5.6039   -4.6488   20.2101 O.2       1 UNL1        0.0000
     17 Cl1         6.8606   -1.6181   20.2479 Cl        1 UNL1        0.0000
@<TRIPOS>BOND
     1    1    7 1
     2    1   14 am
     3    1   15 2
     4    2   11 1
     5    2   13 am
     6    2   16 2
     7    3    5 1
     8    3    7 1
     9    4    6 1
    10    4    7 1
    11    5   13 1
    12    6   13 1
    13    8   12 1
    14    9   12 1
    15   10   14 1
    16   11   17 1
    17   12   14 1
@<TRIPOS>MOLECULE
JAN-GHE-bf4-3
   35    38     0     0     0
SMALL
NO_CHARGES

@<TRIPOS>ATOM
      1 C1          6.1766   -3.4442   27.6101 C.1       1 UNL1        0.0000
      2 C2         13.8216   -0.8583   22.6786 C.ar      1 UNL1        0.0000
      3 C3          8.3837   -2.4081   27.3535 C.ar      1 UNL1        0.0000
      4 C4         13.0427    0.2624   22.9662 C.ar      1 UNL1        0.0000
      5 C5         13.2850   -1.9080   21.9328 C.ar      1 UNL1        0.0000
      6 C6          9.1678   -1.3489   26.9099 C.ar      1 UNL1        0.0000
      7 C7          6.4662   -1.2629   26.5361 C.ar      1 UNL1        0.0000
      8 C8          7.0064   -2.3720   27.1669 C.ar      1 UNL1        0.0000
      9 C9         11.7270    0.3335   22.5082 C.ar      1 UNL1        0.0000
     10 C10        11.9694   -1.8369   21.4748 C.ar      1 UNL1        0.0000
     11 C11        11.1904   -0.7161   21.7625 C.ar      1 UNL1        0.0000
     12 C12         8.5309   -0.2857   26.2905 C.ar      1 UNL1        0.0000
     13 C13         5.5331   -7.0765   19.5643 C.2       1 UNL1        0.0000
     14 C14         5.7784   -5.9467   20.2311 C.2       1 UNL1        0.0000
     15 C15         6.5680   -6.0110   21.4769 C.2       1 UNL1        0.0000
     16 C16         7.5651   -4.7596   23.3663 C.3       1 UNL1        0.0000
     17 C17         6.3486   -3.4816   21.7240 C.3       1 UNL1        0.0000
     18 C18         9.0690   -2.7566   22.8411 C.3       1 UNL1        0.0000
     19 C19         7.2219   -1.2061   22.5403 C.3       1 UNL1        0.0000
     20 C20         7.8485   -3.2841   23.5936 C.3       1 UNL1        0.0000
     21 C21         6.6799   -2.5774   22.9124 C.3       1 UNL1        0.0000
     22 C22        10.0061    2.7461   24.5579 C.3       1 UNL1        0.0000
     23 C23         8.9221    1.7192   24.8576 C.3       1 UNL1        0.0000
     24 C24        11.2848    2.1154   24.0198 C.3       1 UNL1        0.0000
     25 N1          5.5016   -4.3165   27.9707 N.1       1 UNL1        0.0000
     26 N2          7.1955   -0.2150   26.0915 N.ar      1 UNL1        0.0000
     27 N3          6.7944   -4.8143   22.1297 N.am      1 UNL1        0.0000
     28 N4          8.7045   -1.3611   22.4759 N.pl3     1 UNL1        0.0000
     29 N5          9.3276    0.7652   25.8534 N.pl3     1 UNL1        0.0000
     30 O1          6.9794   -7.1053   21.8614 O.2       1 UNL1        0.0000
     31 O2          9.1569    0.7560   21.0764 O.2       1 UNL1        0.0000
     32 O3          9.4346   -1.5096   20.0098 O.2       1 UNL1        0.0000
     33 O4         10.9847    1.4378   22.8014 O.3       1 UNL1        0.0000
     34 F1         11.4658   -2.8524   20.7594 F         1 UNL1        0.0000
     35 S1          9.5254   -0.6450   21.1726 S.o2      1 UNL1        0.0000
@<TRIPOS>BOND
     1    1    8 1
     2    1   25 3
     3    2    4 ar
     4    2    5 ar
     5    3    6 ar
     6    3    8 ar
     7    4    9 ar
     8    5   10 ar
     9    6   12 ar
    10    7    8 ar
    11    7   26 ar
    12    9   11 ar
    13    9   33 1
    14   10   11 ar
    15   10   34 1
    16   11   35 1
    17   12   26 ar
    18   12   29 1
    19   13   14 2
    20   14   15 1
    21   15   27 am
    22   15   30 2
    23   16   20 1
    24   16   27 1
    25   17   21 1
    26   17   27 1
    27   18   20 1
    28   18   28 1
    29   19   21 1
    30   19   28 1
    31   20   21 1
    32   22   23 1
    33   22   24 1
    34   23   29 1
    35   24   33 1
    36   28   35 1
    37   31   35 2
    38   32   35 2
@<TRIPOS>MOLECULE
MAK-UNK-e4a-7
   30    32     0     0     0
SMALL
NO_CHARGES

@<TRIPOS>ATOM
      1 C1          9.6784    0.2531   25.9057 C.ar      1 UNL1        0.0000
      2 C2          8.9820   -0.7573   25.2426 C.ar      1 UNL1        0.0000
      3 C3         11.0502    0.4037   25.7028 C.ar      1 UNL1        0.0000
      4 C4         11.0293   -1.4666   24.1735 C.ar      1 UNL1        0.0000
      5 C5          9.6575   -1.6171   24.3765 C.ar      1 UNL1        0.0000
      6 C6         11.7257   -0.4562   24.8367 C.ar      1 UNL1        0.0000
      7 C7         11.7247    1.9243   22.6534 C.2       1 UNL1        0.0000
      8 C8          6.0140   -1.8126   19.0226 C.2       1 UNL1        0.0000
      9 C9          7.7357    3.4624   21.4885 C.3       1 UNL1        0.0000
     10 C10         7.4519    3.9979   23.9301 C.3       1 UNL1        0.0000
     11 C11         5.8805   -2.6994   21.3285 C.3       1 UNL1        0.0000
     12 C12         7.1701   -0.6326   20.9563 C.3       1 UNL1        0.0000
     13 C13         9.2449    3.5667   21.6437 C.3       1 UNL1        0.0000
     14 C14         8.9617    4.1008   24.0798 C.3       1 UNL1        0.0000
     15 C15         7.0293   -3.2968   22.1277 C.3       1 UNL1        0.0000
     16 C16         8.3385   -1.1986   21.7520 C.3       1 UNL1        0.0000
     17 C17         7.0012    4.3267   22.5090 C.3       1 UNL1        0.0000
     18 C18         8.9074   -2.7027   23.6624 C.3       1 UNL1        0.0000
     19 C19        13.1927   -0.2955   24.6203 C.3       1 UNL1        0.0000
     20 C20        11.1217    3.1793   23.2400 C.3       1 UNL1        0.0000
     21 C21        13.2175    1.7566   22.8025 C.3       1 UNL1        0.0000
     22 C22         6.5605   -0.7543   18.0980 C.3       1 UNL1        0.0000
     23 N1          6.3674   -1.7098   20.3673 N.am      1 UNL1        0.0000
     24 N2          7.8121   -2.1777   22.7775 N.4       1 UNL1        0.0000
     25 N3          9.6287    3.2073   23.0602 N.4       1 UNL1        0.0000
     26 O1         11.0502    1.0841   22.0570 O.2       1 UNL1        0.0000
     27 O2          5.2970   -2.7043   18.5614 O.2       1 UNL1        0.0000
     28 O3          5.6030    4.0950   22.3822 O.3       1 UNL1        0.0000
     29 S1         13.6117   -0.0053   22.8744 S.3       1 UNL1        0.0000
     30 Cl1         5.3643    0.5358   18.0461 Cl        1 UNL1        0.0000
@<TRIPOS>BOND
     1    1    2 ar
     2    1    3 ar
     3    2    5 ar
     4    3    6 ar
     5    4    5 ar
     6    4    6 ar
     7    5   18 1
     8    6   19 1
     9    7   20 1
    10    7   21 1
    11    7   26 2
    12    8   22 1
    13    8   23 am
    14    8   27 2
    15    9   13 1
    16    9   17 1
    17   10   14 1
    18   10   17 1
    19   11   15 1
    20   11   23 1
    21   12   16 1
    22   12   23 1
    23   13   25 1
    24   14   25 1
    25   15   24 1
    26   16   24 1
    27   17   28 1
    28   18   24 1
    29   19   29 1
    30   20   25 1
    31   21   29 1
    32   22   30 1
@<TRIPOS>MOLECULE
BEN-VAN-77c-10
   29    31     0     0     0
SMALL
NO_CHARGES

@<TRIPOS>ATOM
      1 C1          6.7875   -6.3380   25.4372 C.1       1 UNL1        0.0000
      2 C2          5.3115   -4.9941   24.0138 C.ar      1 UNL1        0.0000
      3 C3          9.9582   -1.9522   24.5944 C.ar      1 UNL1        0.0000
      4 C4          9.0453   -1.9970   25.6481 C.ar      1 UNL1        0.0000
      5 C5          5.1497   -4.0269   23.0281 C.ar      1 UNL1        0.0000
      6 C6          7.3088   -1.1842   24.1779 C.ar      1 UNL1        0.0000
      7 C7          7.6661   -4.7143   23.8287 C.ar      1 UNL1        0.0000
      8 C8          6.5903   -5.3501   24.4274 C.ar      1 UNL1        0.0000
      9 C9          9.5465   -1.5234   23.3326 C.ar      1 UNL1        0.0000
     10 C10         8.2218   -1.1395   23.1243 C.ar      1 UNL1        0.0000
     11 C11         7.7206   -1.6130   25.4398 C.ar      1 UNL1        0.0000
     12 C12         6.2899   -3.4502   22.4922 C.ar      1 UNL1        0.0000
     13 C13        13.6346    1.3763   25.9129 C.2       1 UNL1        0.0000
     14 C14        13.7768    1.2321   24.5937 C.2       1 UNL1        0.0000
     15 C15        12.5664    1.1611   23.7488 C.2       1 UNL1        0.0000
     16 C16        13.3044   -1.1379   22.9842 C.3       1 UNL1        0.0000
     17 C17        11.2345   -0.1053   22.1014 C.3       1 UNL1        0.0000
     18 C18        12.8252   -2.2453   22.0568 C.3       1 UNL1        0.0000
     19 C19        10.5573   -1.4825   22.2036 C.3       1 UNL1        0.0000
     20 C20         6.7506   -1.2820   19.5153 C.3       1 UNL1        0.0000
     21 C21         7.7581   -0.6751   21.7827 C.3       1 UNL1        0.0000
     22 C22         7.2311   -1.8056   20.8689 C.3       1 UNL1        0.0000
     23 N1          6.9481   -7.1417   26.2588 N.1       1 UNL1        0.0000
     24 N2          7.5484   -3.7701   22.8684 N.ar      1 UNL1        0.0000
     25 N3         12.3844    0.0035   22.9966 N.am      1 UNL1        0.0000
     26 N4          6.1139   -2.4969   21.5191 N.pl3     1 UNL1        0.0000
     27 O1         11.7953    2.1212   23.7612 O.2       1 UNL1        0.0000
     28 O2         11.4730   -2.5772   22.3551 O.3       1 UNL1        0.0000
     29 F1          6.8436   -1.6565   26.4513 F         1 UNL1        0.0000
@<TRIPOS>BOND
     1    1    8 1
     2    1   23 3
     3    2    5 ar
     4    2    8 ar
     5    3    4 ar
     6    3    9 ar
     7    4   11 ar
     8    5   12 ar
     9    6   10 ar
    10    6   11 ar
    11    7    8 ar
    12    7   24 ar
    13    9   10 ar
    14    9   19 1
    15   10   21 1
    16   11   29 1
    17   12   24 ar
    18   12   26 1
    19   13   14 2
    20   14   15 1
    21   15   25 am
    22   15   27 2
    23   16   18 1
    24   16   25 1
    25   17   19 1
    26   17   25 1
    27   18   28 1
    28   19   28 1
    29   20   22 1
    30   21   22 1
    31   22   26 1
@<TRIPOS>MOLECULE
DAV-CRI-f47-4
   35    39     0     0     0
SMALL
NO_CHARGES

@<TRIPOS>ATOM
      1 C1         12.7054    0.9686   23.3652 C.ar      1 UNL1        0.0000
      2 C2         12.6451   -0.3656   22.9630 C.ar      1 UNL1        0.0000
      3 C3         11.6178    1.5505   24.0166 C.ar      1 UNL1        0.0000
      4 C4         11.4973   -1.1180   23.2121 C.ar      1 UNL1        0.0000
      5 C5         10.4700    0.7981   24.2658 C.ar      1 UNL1        0.0000
      6 C6          8.6854   -5.0983   24.7159 C.ar      1 UNL1        0.0000
      7 C7          9.8523   -5.4494   25.3890 C.ar      1 UNL1        0.0000
      8 C8         10.5948   -3.1560   25.2688 C.ar      1 UNL1        0.0000
      9 C9         10.4097   -0.5362   23.8635 C.ar      1 UNL1        0.0000
     10 C10         8.4729   -3.7733   24.3036 C.ar      1 UNL1        0.0000
     11 C11         9.4401   -2.7919   24.5548 C.ar      1 UNL1        0.0000
     12 C12        10.8043   -4.4765   25.6711 C.ar      1 UNL1        0.0000
     13 C13         3.7927   -4.6985   22.5683 C.2       1 UNL1        0.0000
     14 C14         8.1894   -1.2182   22.9410 C.2       1 UNL1        0.0000
     15 C15         6.7230   -2.3426   21.3845 C.2       1 UNL1        0.0000
     16 C16         3.2788   -6.1101   22.7289 C.3       1 UNL1        0.0000
     17 C17         3.9070   -6.5664   24.0404 C.3       1 UNL1        0.0000
     18 C18         4.0488   -5.2872   24.8406 C.3       1 UNL1        0.0000
     19 C19         6.3926   -1.5075   25.1440 C.3       1 UNL1        0.0000
     20 C20         3.8491   -2.3139   25.2298 C.3       1 UNL1        0.0000
     21 C21         9.1524   -1.3594   24.1364 C.3       1 UNL1        0.0000
     22 C22         7.1790   -3.3795   23.6394 C.3       1 UNL1        0.0000
     23 C23         6.1502   -2.9475   24.6759 C.3       1 UNL1        0.0000
     24 C24         4.7052   -2.9620   24.1427 C.3       1 UNL1        0.0000
     25 C25         6.8916   -1.1419   20.4836 C.3       1 UNL1        0.0000
     26 N1          7.3825   -2.3225   22.6254 N.am      1 UNL1        0.0000
     27 N2          4.2362   -4.2821   23.8213 N.am      1 UNL1        0.0000
     28 O1          3.7621   -4.0615   21.5260 O.2       1 UNL1        0.0000
     29 O2          8.1266   -0.1414   22.3361 O.2       1 UNL1        0.0000
     30 O3          5.9901   -3.2617   21.0044 O.2       1 UNL1        0.0000
     31 O4          4.4381    0.2577   25.2361 O.2       1 UNL1        0.0000
     32 O5          4.9372   -1.1159   27.3097 O.2       1 UNL1        0.0000
     33 F1         11.9196   -4.8035   26.3373 F         1 UNL1        0.0000
     34 S1          4.8481   -0.9776   25.8710 S.o2      1 UNL1        0.0000
     35 Cl1         5.9861   -1.4854   19.0146 Cl        1 UNL1        0.0000
@<TRIPOS>BOND
     1    1    2 ar
     2    1    3 ar
     3    2    4 ar
     4    3    5 ar
     5    4    9 ar
     6    5    9 ar
     7    6    7 ar
     8    6   10 ar
     9    7   12 ar
    10    8   11 ar
    11    8   12 ar
    12    9   21 1
    13   10   11 ar
    14   10   22 1
    15   11   21 1
    16   12   33 1
    17   13   16 1
    18   13   27 am
    19   13   28 2
    20   14   21 1
    21   14   26 am
    22   14   29 2
    23   15   25 1
    24   15   26 am
    25   15   30 2
    26   16   17 1
    27   17   18 1
    28   18   27 1
    29   19   23 1
    30   19   34 1
    31   20   24 1
    32   20   34 1
    33   22   23 1
    34   22   26 1
    35   23   24 1
    36   24   27 1
    37   25   35 1
    38   31   34 2
    39   32   34 2
@<TRIPOS>MOLECULE
MAK-UNK-8fd-4
   40    43     0     0     0
SMALL
NO_CHARGES

@<TRIPOS>ATOM
      1 C1         13.7996    0.3963   22.8064 C.ar      1 UNL1        0.0000
      2 C2         14.3847   -0.6685   22.1213 C.ar      1 UNL1        0.0000
      3 C3          7.5354    0.4842   28.0466 C.ar      1 UNL1        0.0000
      4 C4         12.4108    0.4845   22.9031 C.ar      1 UNL1        0.0000
      5 C5         13.5812   -1.6450   21.5328 C.ar      1 UNL1        0.0000
      6 C6          8.5407    0.4867   27.0860 C.ar      1 UNL1        0.0000
      7 C7          6.3255    1.0755   27.7206 C.ar      1 UNL1        0.0000
      8 C8          7.0639    1.6368   25.6188 C.ar      1 UNL1        0.0000
      9 C9         11.6073   -0.4920   22.3146 C.ar      1 UNL1        0.0000
     10 C10        12.1924   -1.5568   21.6295 C.ar      1 UNL1        0.0000
     11 C11         8.3085    1.0721   25.8463 C.ar      1 UNL1        0.0000
     12 C12         9.2854   -0.3001   21.3726 C.2       1 UNL1        0.0000
     13 C13         7.8852   -0.2822   23.1552 C.2       1 UNL1        0.0000
     14 C14        10.1317   -0.3933   22.4206 C.2       1 UNL1        0.0000
     15 C15         7.9155   -0.2328   21.8178 C.2       1 UNL1        0.0000
     16 C16         7.9549   -3.6395   24.1123 C.2       1 UNL1        0.0000
     17 C17         4.0599   -6.9224   23.7786 C.2       1 UNL1        0.0000
     18 C18         7.3862   -5.8468   23.1144 C.3       1 UNL1        0.0000
     19 C19         5.7933   -3.8799   22.8756 C.3       1 UNL1        0.0000
     20 C20         6.4499   -6.4215   24.1759 C.3       1 UNL1        0.0000
     21 C21         4.8961   -4.5259   23.9321 C.3       1 UNL1        0.0000
     22 C22         7.2553   -4.3267   22.9759 C.3       1 UNL1        0.0000
     23 C23         9.2935   -0.4028   23.6960 C.3       1 UNL1        0.0000
     24 C24        10.8078   -1.8381   25.1126 C.3       1 UNL1        0.0000
     25 C25         9.8765   -3.0750   22.6174 C.3       1 UNL1        0.0000
     26 C26         5.6516    1.2628   19.1274 C.3       1 UNL1        0.0000
     27 C27         6.7742   -0.1213   20.8775 C.3       1 UNL1        0.0000
     28 C28         2.6708   -6.3843   23.5450 C.3       1 UNL1        0.0000
     29 C29         9.3987   -1.6480   24.5704 C.3       1 UNL1        0.0000
     30 N1          6.0629    1.6538   26.5272 N.ar      1 UNL1        0.0000
     31 N2          5.0744   -5.9810   23.9473 N.am      1 UNL1        0.0000
     32 N3          9.0343   -2.8204   23.7791 N.am      1 UNL1        0.0000
     33 N4          6.8174    1.1030   20.0376 N.4       1 UNL1        0.0000
     34 O1          7.5551   -3.8240   25.2649 O.2       1 UNL1        0.0000
     35 O2          4.2363   -8.1432   23.8078 O.2       1 UNL1        0.0000
     36 O3          9.2756    2.2219   23.7304 O.2       1 UNL1        0.0000
     37 O4         10.8516    0.9883   25.2601 O.2       1 UNL1        0.0000
     38 F1         11.4335   -2.5036   21.0583 F         1 UNL1        0.0000
     39 S1          9.5622    1.0945   24.6000 S.o2      1 UNL1        0.0000
     40 Cl1         1.6190   -7.7796   23.3337 Cl        1 UNL1        0.0000
@<TRIPOS>BOND
     1    1    2 ar
     2    1    4 ar
     3    2    5 ar
     4    3    6 ar
     5    3    7 ar
     6    4    9 ar
     7    5   10 ar
     8    6   11 ar
     9    7   30 ar
    10    8   11 ar
    11    8   30 ar
    12    9   10 ar
    13    9   14 1
    14   10   38 1
    15   11   39 1
    16   12   14 2
    17   12   15 1
    18   13   15 2
    19   13   23 1
    20   14   23 1
    21   15   27 1
    22   16   22 1
    23   16   32 am
    24   16   34 2
    25   17   28 1
    26   17   31 am
    27   17   35 2
    28   18   20 1
    29   18   22 1
    30   19   21 1
    31   19   22 1
    32   20   31 1
    33   21   31 1
    34   23   29 1
    35   23   39 1
    36   24   29 1
    37   25   32 1
    38   26   33 1
    39   27   33 1
    40   28   40 1
    41   29   32 1
    42   36   39 2
    43   37   39 2
@<TRIPOS>MOLECULE
BEN-VAN-77c-12
   30    32     0     0     0
SMALL
NO_CHARGES

@<TRIPOS>ATOM
      1 C1          7.2398   -7.0640   24.2492 C.1       1 UNL1        0.0000
      2 C2          5.5531   -5.7331   23.0685 C.ar      1 UNL1        0.0000
      3 C3          9.6042   -2.1240   24.3967 C.ar      1 UNL1        0.0000
      4 C4          8.7155   -2.5365   25.3894 C.ar      1 UNL1        0.0000
      5 C5          5.2259   -4.6296   22.2883 C.ar      1 UNL1        0.0000
      6 C6          7.8232   -5.0252   23.0253 C.ar      1 UNL1        0.0000
      7 C7          6.8742   -5.9419   23.4483 C.ar      1 UNL1        0.0000
      8 C8          9.1212   -1.5261   23.2327 C.ar      1 UNL1        0.0000
      9 C9          7.7493   -1.3409   23.0614 C.ar      1 UNL1        0.0000
     10 C10         7.3436   -2.3513   25.2181 C.ar      1 UNL1        0.0000
     11 C11         6.8605   -1.7535   24.0541 C.ar      1 UNL1        0.0000
     12 C12         6.2487   -3.7716   21.9174 C.ar      1 UNL1        0.0000
     13 C13        13.5040    2.7395   25.1713 C.2       1 UNL1        0.0000
     14 C14        12.8092    1.6001   25.1573 C.2       1 UNL1        0.0000
     15 C15        11.6279    1.4951   24.2755 C.2       1 UNL1        0.0000
     16 C16        12.7537   -0.4413   23.0932 C.3       1 UNL1        0.0000
     17 C17        10.5338    0.3788   22.3654 C.3       1 UNL1        0.0000
     18 C18        12.4728   -1.4039   21.9484 C.3       1 UNL1        0.0000
     19 C19        10.1071   -1.0859   22.1687 C.3       1 UNL1        0.0000
     20 C20         6.3265   -1.0039   19.4458 C.3       1 UNL1        0.0000
     21 C21         7.2124   -0.7022   21.8224 C.3       1 UNL1        0.0000
     22 C22         6.8903   -1.6990   20.6852 C.3       1 UNL1        0.0000
     23 N1          7.5373   -7.9770   24.9009 N.1       1 UNL1        0.0000
     24 N2          7.5435   -3.9416   22.2669 N.ar      1 UNL1        0.0000
     25 N3         11.6489    0.4996   23.3022 N.am      1 UNL1        0.0000
     26 N4          5.9100   -2.6865   21.1463 N.pl3     1 UNL1        0.0000
     27 O1         10.7014    2.2867   24.4532 O.2       1 UNL1        0.0000
     28 O2         11.1998   -2.0155   22.1295 O.3       1 UNL1        0.0000
     29 F1          6.4901   -2.7462   26.1716 F         1 UNL1        0.0000
     30 F2          5.5404   -1.5793   23.8997 F         1 UNL1        0.0000
@<TRIPOS>BOND
     1    1    7 1
     2    1   23 3
     3    2    5 ar
     4    2    7 ar
     5    3    4 ar
     6    3    8 ar
     7    4   10 ar
     8    5   12 ar
     9    6    7 ar
    10    6   24 ar
    11    8    9 ar
    12    8   19 1
    13    9   11 ar
    14    9   21 1
    15   10   11 ar
    16   10   29 1
    17   11   30 1
    18   12   24 ar
    19   12   26 1
    20   13   14 2
    21   14   15 1
    22   15   25 am
    23   15   27 2
    24   16   18 1
    25   16   25 1
    26   17   19 1
    27   17   25 1
    28   18   28 1
    29   19   28 1
    30   20   22 1
    31   21   22 1
    32   22   26 1
@<TRIPOS>MOLECULE
WAR-XCH-bdd-25
   28    31     0     0     0
SMALL
NO_CHARGES

@<TRIPOS>ATOM
      1 C1          6.6430   -0.4673   18.8068 C.ar      1 UNL1        0.0000
      2 C2          7.5242   -3.8924   22.6873 C.2       1 UNL1        0.0000
      3 C3          6.4477   -1.5593   17.9766 C.ar      1 UNL1        0.0000
      4 C4          5.9191   -2.9241   19.7475 C.ar      1 UNL1        0.0000
      5 C5          7.9206   -4.6222   23.8479 C.2       1 UNL1        0.0000
      6 C6          6.4587   -0.6472   20.1731 C.ar      1 UNL1        0.0000
      7 C7          6.0899   -1.8961   20.6607 C.ar      1 UNL1        0.0000
      8 C8          7.1786   -4.2511   24.9533 C.2       1 UNL1        0.0000
      9 C9          6.5093   -2.9994   22.9564 C.2       1 UNL1        0.0000
     10 C10        10.1636   -1.9879   23.6373 C.2       1 UNL1        0.0000
     11 C11         8.9760   -5.6822   23.9161 C.3       1 UNL1        0.0000
     12 C12         7.3579   -4.8020   26.3333 C.3       1 UNL1        0.0000
     13 C13         9.3971   -5.9752   25.3647 C.3       1 UNL1        0.0000
     14 C14         8.1808   -6.0995   26.2940 C.3       1 UNL1        0.0000
     15 C15         7.8994    0.3446   24.6058 C.3       1 UNL1        0.0000
     16 C16         9.3887    0.0616   24.7796 C.3       1 UNL1        0.0000
     17 C17        10.2604    0.2611   22.4726 C.3       1 UNL1        0.0000
     18 C18         7.5472    1.1411   23.3507 C.3       1 UNL1        0.0000
     19 C19         9.1090    0.3745   21.4790 C.3       1 UNL1        0.0000
     20 C20         6.6624    0.5183   21.0955 C.3       1 UNL1        0.0000
     21 C21        10.7901   -2.6010   22.4098 C.3       1 UNL1        0.0000
     22 N1          6.0892   -2.7874   18.4133 N.ar      1 UNL1        0.0000
     23 N2          9.9827   -0.6041   23.6204 N.am      1 UNL1        0.0000
     24 N3          5.8940   -2.1263   22.0339 N.pl3     1 UNL1        0.0000
     25 N4          7.7446    0.2798   22.1195 N.4       1 UNL1        0.0000
     26 O1          9.8510   -2.7138   24.5844 O.2       1 UNL1        0.0000
     27 S1          6.0339   -3.0413   24.6011 S.3       1 UNL1        0.0000
     28 Cl1        12.5309   -2.5636   22.6631 Cl        1 UNL1        0.0000
@<TRIPOS>BOND
     1    1    3 ar
     2    1    6 ar
     3    2    5 1
     4    2    9 2
     5    3   22 ar
     6    4    7 ar
     7    4   22 ar
     8    5    8 2
     9    5   11 1
    10    6    7 ar
    11    6   20 1
    12    7   24 1
    13    8   12 1
    14    8   27 1
    15    9   24 1
    16    9   27 1
    17   10   21 1
    18   10   23 am
    19   10   26 2
    20   11   13 1
    21   12   14 1
    22   13   14 1
    23   15   16 1
    24   15   18 1
    25   16   23 1
    26   17   19 1
    27   17   23 1
    28   18   25 1
    29   19   25 1
    30   20   25 1
    31   21   28 1
@<TRIPOS>MOLECULE
MAK-UNK-e4a-23
   24    26     0     0     0
SMALL
NO_CHARGES

@<TRIPOS>ATOM
      1 C1         11.7064   -0.1646   23.6423 C.2       1 UNL1        0.0000
      2 C2         11.5391   -3.7026   24.3405 C.ar      1 UNL1        0.0000
      3 C3         12.3345    0.5627   22.6553 C.2       1 UNL1        0.0000
      4 C4         11.9429   -1.7690   21.9774 C.2       1 UNL1        0.0000
      5 C5         11.4797   -1.5154   23.2498 C.2       1 UNL1        0.0000
      6 C6         10.8525   -2.5484   24.0230 C.ar      1 UNL1        0.0000
      7 C7          9.5582   -2.4745   24.4957 C.ar      1 UNL1        0.0000
      8 C8          9.7425   -4.5215   25.4669 C.ar      1 UNL1        0.0000
      9 C9          4.7557   -5.9797   22.8865 C.2       1 UNL1        0.0000
     10 C10         6.8495   -7.0994   23.5818 C.3       1 UNL1        0.0000
     11 C11         5.4455   -6.0807   25.3323 C.3       1 UNL1        0.0000
     12 C12         8.0863   -6.4172   24.1479 C.3       1 UNL1        0.0000
     13 C13         6.6623   -5.3842   25.9263 C.3       1 UNL1        0.0000
     14 C14         7.3749   -1.3444   24.0697 C.3       1 UNL1        0.0000
     15 C15         9.1233   -5.6227   26.2760 C.3       1 UNL1        0.0000
     16 C16         3.5342   -5.1989   23.3012 C.3       1 UNL1        0.0000
     17 N1         11.0129   -4.7130   25.0633 N.ar      1 UNL1        0.0000
     18 N2          8.9692   -3.4461   25.2233 N.ar      1 UNL1        0.0000
     19 N3          5.6389   -6.3431   23.9022 N.am      1 UNL1        0.0000
     20 N4          8.7939   -1.3152   24.2107 N.pl3     1 UNL1        0.0000
     21 N5          7.8969   -6.2073   25.6337 N.4       1 UNL1        0.0000
     22 O1          4.9196   -6.2550   21.6951 O.2       1 UNL1        0.0000
     23 S1         12.6481   -0.3822   21.2620 S.3       1 UNL1        0.0000
     24 Cl1         4.1149   -3.7336   24.0844 Cl        1 UNL1        0.0000
@<TRIPOS>BOND
     1    1    3 2
     2    1    5 1
     3    2    6 ar
     4    2   17 ar
     5    3   23 1
     6    4    5 2
     7    4   23 1
     8    5    6 1
     9    6    7 ar
    10    7   18 ar
    11    7   20 1
    12    8   15 1
    13    8   17 ar
    14    8   18 ar
    15    9   16 1
    16    9   19 am
    17    9   22 2
    18   10   12 1
    19   10   19 1
    20   11   13 1
    21   11   19 1
    22   12   21 1
    23   13   21 1
    24   14   20 1
    25   15   21 1
    26   16   24 1
@<TRIPOS>MOLECULE
WAR-XCH-bdd-20
   28    31     0     0     0
SMALL
NO_CHARGES

@<TRIPOS>ATOM
      1 C1          5.1866   -4.5000   26.2712 C.ar      1 UNL1        0.0000
      2 C2          5.4647   -4.5230   27.6427 C.ar      1 UNL1        0.0000
      3 C3          6.1941   -4.7256   25.3353 C.ar      1 UNL1        0.0000
      4 C4          8.2991   -1.8737   25.0236 C.ar      1 UNL1        0.0000
      5 C5          7.4082   -4.8735   29.3470 C.2       1 UNL1        0.0000
      6 C6          8.5303   -2.4808   22.7079 C.ar      1 UNL1        0.0000
      7 C7          7.6337   -0.7336   24.6024 C.ar      1 UNL1        0.0000
      8 C8          8.7404   -5.1472   29.1396 C.2       1 UNL1        0.0000
      9 C9          6.7821   -4.7780   28.0726 C.ar      1 UNL1        0.0000
     10 C10         7.5081   -4.9806   25.7381 C.ar      1 UNL1        0.0000
     11 C11         8.7528   -2.7588   24.0520 C.ar      1 UNL1        0.0000
     12 C12         7.7714   -5.0005   27.1124 C.ar      1 UNL1        0.0000
     13 C13         7.8544   -1.3137   22.3904 C.ar      1 UNL1        0.0000
     14 C14         5.5640   -2.3779   18.1761 C.2       1 UNL1        0.0000
     15 C15         6.6830    0.9756   19.5518 C.3       1 UNL1        0.0000
     16 C16         7.6264    0.5430   20.6754 C.3       1 UNL1        0.0000
     17 C17         6.5730   -0.0789   18.4573 C.3       1 UNL1        0.0000
     18 C18         6.2969   -1.6160   20.4118 C.3       1 UNL1        0.0000
     19 C19         7.5933   -0.9771   20.9314 C.3       1 UNL1        0.0000
     20 C20        10.2411   -5.4962   27.1948 C.3       1 UNL1        0.0000
     21 C21         8.5560   -5.2172   24.6779 C.3       1 UNL1        0.0000
     22 C22         9.4753   -4.0006   24.4506 C.3       1 UNL1        0.0000
     23 C23         5.4226   -2.0576   16.7080 C.3       1 UNL1        0.0000
     24 N1          7.3988   -0.4297   23.3063 N.ar      1 UNL1        0.0000
     25 N2          8.9500   -5.2217   27.7886 N.pl3     1 UNL1        0.0000
     26 N3          6.1255   -1.3791   18.9741 N.am      1 UNL1        0.0000
     27 O1          5.1852   -3.4725   18.5997 O.2       1 UNL1        0.0000
     28 Cl1         6.9256   -2.5523   15.9371 Cl        1 UNL1        0.0000
@<TRIPOS>BOND
     1    1    2 ar
     2    1    3 ar
     3    2    9 ar
     4    3   10 ar
     5    4    7 ar
     6    4   11 ar
     7    5    8 2
     8    5    9 1
     9    6   11 ar
    10    6   13 ar
    11    7   24 ar
    12    8   25 1
    13    9   12 ar
    14   10   12 ar
    15   10   21 1
    16   11   22 1
    17   12   25 1
    18   13   19 1
    19   13   24 ar
    20   14   23 1
    21   14   26 am
    22   14   27 2
    23   15   16 1
    24   15   17 1
    25   16   19 1
    26   17   26 1
    27   18   19 1
    28   18   26 1
    29   20   25 1
    30   21   22 1
    31   23   28 1
@<TRIPOS>MOLECULE
BEN-VAN-d2b-11
   33    35     0     0     0
SMALL
NO_CHARGES

@<TRIPOS>ATOM
      1 C1          7.9691    0.8763   21.1452 C.1       1 UNL1        0.0000
      2 C2          8.9009    5.1349   22.5653 C.2       1 UNL1        0.0000
      3 C3          7.1480    3.4354   22.2677 C.2       1 UNL1        0.0000
      4 C4          7.4982    0.0885   22.2417 C.ar      1 UNL1        0.0000
      5 C5          9.1033    4.0363   23.3714 C.2       1 UNL1        0.0000
      6 C6          8.0879    3.0517   23.1990 C.2       1 UNL1        0.0000
      7 C7          7.5270    0.5567   23.5507 C.ar      1 UNL1        0.0000
      8 C8          7.0569   -0.2490   24.5818 C.ar      1 UNL1        0.0000
      9 C9          6.5719   -1.5048   24.2540 C.ar      1 UNL1        0.0000
     10 C10         6.9937   -1.1826   22.0187 C.ar      1 UNL1        0.0000
     11 C11        10.7053   -2.6670   23.1884 C.2       1 UNL1        0.0000
     12 C12        10.9336   -1.4316   23.6447 C.2       1 UNL1        0.0000
     13 C13        10.9597   -0.2761   22.7078 C.2       1 UNL1        0.0000
     14 C14        11.2922    2.1668   22.7516 C.2       1 UNL1        0.0000
     15 C15        12.0220    5.6214   24.0302 C.3       1 UNL1        0.0000
     16 C16        10.8063    5.2408   24.8805 C.3       1 UNL1        0.0000
     17 C17        12.3046    4.4361   23.1123 C.3       1 UNL1        0.0000
     18 C18        10.2783    3.9058   24.3277 C.3       1 UNL1        0.0000
     19 C19        11.5460    3.2693   23.7317 C.3       1 UNL1        0.0000
     20 C20         8.5939   -5.4851   26.1041 C.3       1 UNL1        0.0000
     21 C21         5.5739   -3.6281   25.1034 C.3       1 UNL1        0.0000
     22 C22         6.7171   -4.6195   24.9855 C.3       1 UNL1        0.0000
     23 N1          8.3513    1.5157   20.2553 N.1       1 UNL1        0.0000
     24 N2          6.5280   -1.9941   22.9945 N.ar      1 UNL1        0.0000
     25 N3          8.0389    1.8734   23.8644 N.pl3     1 UNL1        0.0000
     26 N4          6.0969   -2.3174   25.3130 N.pl3     1 UNL1        0.0000
     27 N5         11.2117    0.9216   23.3726 N.am      1 UNL1        0.0000
     28 O1         10.7761   -0.4022   21.5015 O.2       1 UNL1        0.0000
     29 O2         11.1554    2.3852   21.5508 O.2       1 UNL1        0.0000
     30 O3          7.5039   -4.5758   26.1692 O.3       1 UNL1        0.0000
     31 F1          7.0736    0.1785   25.8521 F         1 UNL1        0.0000
     32 F2          6.9528   -1.6625   20.7642 F         1 UNL1        0.0000
     33 S1          7.4915    4.9769   21.6058 S.3       1 UNL1        0.0000
@<TRIPOS>BOND
     1    1    4 1
     2    1   23 3
     3    2    5 2
     4    2   33 1
     5    3    6 2
     6    3   33 1
     7    4    7 ar
     8    4   10 ar
     9    5    6 1
    10    5   18 1
    11    6   25 1
    12    7    8 ar
    13    7   25 1
    14    8    9 ar
    15    8   31 1
    16    9   24 ar
    17    9   26 1
    18   10   24 ar
    19   10   32 1
    20   11   12 2
    21   12   13 1
    22   13   27 am
    23   13   28 2
    24   14   19 1
    25   14   27 am
    26   14   29 2
    27   15   16 1
    28   15   17 1
    29   16   18 1
    30   17   19 1
    31   18   19 1
    32   20   30 1
    33   21   22 1
    34   21   26 1
    35   22   30 1
@<TRIPOS>MOLECULE
TAM-UNI-d1c-1
   29    31     0     0     0
SMALL
NO_CHARGES

@<TRIPOS>ATOM
      1 C1         11.7631    3.6078   23.2409 C.1       1 UNL1        0.0000
      2 C2         11.8258    2.0797   25.1487 C.ar      1 UNL1        0.0000
      3 C3         11.6863    0.7982   25.6814 C.ar      1 UNL1        0.0000
      4 C4         11.2756    1.2281   22.9557 C.ar      1 UNL1        0.0000
      5 C5         11.6204    2.2947   23.7859 C.ar      1 UNL1        0.0000
      6 C6         11.3415   -0.2684   24.8513 C.ar      1 UNL1        0.0000
      7 C7         11.1362   -0.0535   23.4884 C.ar      1 UNL1        0.0000
      8 C8          6.3125   -1.7334   19.3244 C.2       1 UNL1        0.0000
      9 C9          9.3088   -3.1765   24.9918 C.2       1 UNL1        0.0000
     10 C10         7.3410   -2.4624   21.4533 C.3       1 UNL1        0.0000
     11 C11         7.5477   -0.0895   20.8209 C.3       1 UNL1        0.0000
     12 C12         7.3261   -4.6102   24.6188 C.3       1 UNL1        0.0000
     13 C13         6.9948   -2.5131   25.8726 C.3       1 UNL1        0.0000
     14 C14         8.8315   -2.5342   21.7510 C.3       1 UNL1        0.0000
     15 C15         9.0421   -0.1251   21.1112 C.3       1 UNL1        0.0000
     16 C16         6.3894   -5.2890   25.6056 C.3       1 UNL1        0.0000
     17 C17         6.0520   -3.2858   26.7889 C.3       1 UNL1        0.0000
     18 C18        11.1977   -1.6314   25.4446 C.3       1 UNL1        0.0000
     19 C19        10.7639   -1.1852   22.5764 C.3       1 UNL1        0.0000
     20 C20         6.0618   -0.6061   18.3549 C.3       1 UNL1        0.0000
     21 N1         11.8791    4.6742   22.7981 N.1       1 UNL1        0.0000
     22 N2          7.0518   -1.4232   20.4650 N.am      1 UNL1        0.0000
     23 N3          7.9430   -3.4217   25.2124 N.am      1 UNL1        0.0000
     24 N4          9.8135   -2.0248   25.5843 N.am      1 UNL1        0.0000
     25 N5          9.3161   -1.1654   22.1742 N.4       1 UNL1        0.0000
     26 O1          5.8662   -2.8557   19.0726 O.2       1 UNL1        0.0000
     27 O2         10.0215   -3.9239   24.3137 O.2       1 UNL1        0.0000
     28 O3          5.4201   -4.3533   26.0815 O.3       1 UNL1        0.0000
     29 Cl1         4.5363    0.1342   18.8268 Cl        1 UNL1        0.0000
@<TRIPOS>BOND
     1    1    5 1
     2    1   21 3
     3    2    3 ar
     4    2    5 ar
     5    3    6 ar
     6    4    5 ar
     7    4    7 ar
     8    6    7 ar
     9    6   18 1
    10    7   19 1
    11    8   20 1
    12    8   22 am
    13    8   26 2
    14    9   23 am
    15    9   24 am
    16    9   27 2
    17   10   14 1
    18   10   22 1
    19   11   15 1
    20   11   22 1
    21   12   16 1
    22   12   23 1
    23   13   17 1
    24   13   23 1
    25   14   25 1
    26   15   25 1
    27   16   28 1
    28   17   28 1
    29   18   24 1
    30   19   25 1
    31   20   29 1
@<TRIPOS>MOLECULE
MAK-UNK-8fd-25
   40    43     0     0     0
SMALL
NO_CHARGES

@<TRIPOS>ATOM
      1 C1         12.5100   -0.8102   20.9126 C.ar      1 UNL1        0.0000
      2 C2         13.4117   -1.5850   21.6422 C.ar      1 UNL1        0.0000
      3 C3          7.5182    1.1506   28.0708 C.ar      1 UNL1        0.0000
      4 C4         11.9241    0.3131   21.4963 C.ar      1 UNL1        0.0000
      5 C5         13.7274   -1.2366   22.9554 C.ar      1 UNL1        0.0000
      6 C6          8.7635    0.8894   27.5103 C.ar      1 UNL1        0.0000
      7 C7         11.6992    3.1407   23.0023 C.2       1 UNL1        0.0000
      8 C8          6.4229    1.1989   27.2235 C.ar      1 UNL1        0.0000
      9 C9         10.4223    3.0417   24.8542 C.2       1 UNL1        0.0000
     10 C10        12.2398    0.6615   22.8095 C.ar      1 UNL1        0.0000
     11 C11        10.9358    3.9091   23.9155 C.2       1 UNL1        0.0000
     12 C12        13.1414   -0.1133   23.5391 C.ar      1 UNL1        0.0000
     13 C13         8.8741    0.6873   26.1391 C.ar      1 UNL1        0.0000
     14 C14        11.6288    1.8271   23.4107 C.2       1 UNL1        0.0000
     15 C15         7.7181    0.7562   25.3783 C.ar      1 UNL1        0.0000
     16 C16         8.3041   -0.6562   23.4103 C.2       1 UNL1        0.0000
     17 C17         5.9725   -5.1800   23.0127 C.2       1 UNL1        0.0000
     18 C18         6.7428   -2.1274   24.6710 C.3       1 UNL1        0.0000
     19 C19         8.8554   -3.0865   23.6318 C.3       1 UNL1        0.0000
     20 C20         5.9458   -2.7614   23.5324 C.3       1 UNL1        0.0000
     21 C21         7.9895   -3.7072   22.5347 C.3       1 UNL1        0.0000
     22 C22         8.2041   -1.8669   24.2918 C.3       1 UNL1        0.0000
     23 C23         6.1509    1.0650   22.2386 C.3       1 UNL1        0.0000
     24 C24         8.4115    2.1766   22.2363 C.3       1 UNL1        0.0000
     25 C25         9.1796    7.2426   23.2951 C.3       1 UNL1        0.0000
     26 C26        10.7281    5.3693   23.8708 C.3       1 UNL1        0.0000
     27 C27         6.7476   -6.3547   22.4712 C.3       1 UNL1        0.0000
     28 C28         7.2813    1.6225   23.0914 C.3       1 UNL1        0.0000
     29 N1          6.4910    1.0077   25.8869 N.ar      1 UNL1        0.0000
     30 N2         10.8499    1.7788   24.5372 N.pl3     1 UNL1        0.0000
     31 N3          6.6278   -3.9494   23.0208 N.am      1 UNL1        0.0000
     32 N4          7.8130    0.5505   23.9470 N.am      1 UNL1        0.0000
     33 N5          9.3698    5.7747   23.3945 N.4       1 UNL1        0.0000
     34 O1          8.8316   -0.7910   22.3034 O.2       1 UNL1        0.0000
     35 O2          4.8201   -5.3535   23.4177 O.2       1 UNL1        0.0000
     36 O3         11.4601    0.3472   26.4846 O.2       1 UNL1        0.0000
     37 O4         10.3028   -0.7036   24.4773 O.2       1 UNL1        0.0000
     38 F1         13.4555    0.2083   24.8027 F         1 UNL1        0.0000
     39 S1         10.4453    0.3661   25.4467 S.o2      1 UNL1        0.0000
     40 Cl1         7.6243   -7.0492   23.8302 Cl        1 UNL1        0.0000
@<TRIPOS>BOND
     1    1    2 ar
     2    1    4 ar
     3    2    5 ar
     4    3    6 ar
     5    3    8 ar
     6    4   10 ar
     7    5   12 ar
     8    6   13 ar
     9    7   11 1
    10    7   14 2
    11    8   29 ar
    12    9   11 2
    13    9   30 1
    14   10   12 ar
    15   10   14 1
    16   11   26 1
    17   12   38 1
    18   13   15 ar
    19   13   39 1
    20   14   30 1
    21   15   29 ar
    22   15   32 1
    23   16   22 1
    24   16   32 am
    25   16   34 2
    26   17   27 1
    27   17   31 am
    28   17   35 2
    29   18   20 1
    30   18   22 1
    31   19   21 1
    32   19   22 1
    33   20   31 1
    34   21   31 1
    35   23   28 1
    36   24   28 1
    37   25   33 1
    38   26   33 1
    39   27   40 1
    40   28   32 1
    41   30   39 1
    42   36   39 2
    43   37   39 2
@<TRIPOS>MOLECULE
DAV-CRI-f9b-9
   42    45     0     0     0
SMALL
NO_CHARGES

@<TRIPOS>ATOM
      1 C1         13.1661   -2.5817   25.8085 C.ar      1 UNL1        0.0000
      2 C2         12.3141    1.0166   24.3055 C.ar      1 UNL1        0.0000
      3 C3         10.3342    1.2025   25.6775 C.ar      1 UNL1        0.0000
      4 C4         13.0697   -3.9072   25.3776 C.ar      1 UNL1        0.0000
      5 C5         11.7862    1.9531   23.4167 C.ar      1 UNL1        0.0000
      6 C6          9.8063    2.1391   24.7888 C.ar      1 UNL1        0.0000
      7 C7         10.7666   -2.3049   25.6377 C.ar      1 UNL1        0.0000
      8 C8         11.5880    0.6412   25.4358 C.ar      1 UNL1        0.0000
      9 C9         12.0308   -1.7892   25.9375 C.ar      1 UNL1        0.0000
     10 C10        10.6411   -3.6413   25.2001 C.ar      1 UNL1        0.0000
     11 C11        11.7968   -4.4187   25.0780 C.ar      1 UNL1        0.0000
     12 C12        10.5323    2.5144   23.6584 C.ar      1 UNL1        0.0000
     13 C13         9.7176   -5.5201   24.5044 C.2       1 UNL1        0.0000
     14 C14         5.4317   -4.8164   25.0255 C.2       1 UNL1        0.0000
     15 C15         6.0577   -0.4420   19.7876 C.2       1 UNL1        0.0000
     16 C16         6.7822   -3.2768   21.2147 C.2       1 UNL1        0.0000
     17 C17         8.5460   -6.5867   22.5328 C.3       1 UNL1        0.0000
     18 C18         7.1189   -6.3921   22.0281 C.3       1 UNL1        0.0000
     19 C19         7.2937   -6.4064   24.7699 C.3       1 UNL1        0.0000
     20 C20         8.6610   -6.5291   24.0711 C.3       1 UNL1        0.0000
     21 C21         6.4279   -5.2206   22.7263 C.3       1 UNL1        0.0000
     22 C22        11.3594   -1.5097   21.1907 C.3       1 UNL1        0.0000
     23 C23        12.1608   -0.3766   26.4010 C.3       1 UNL1        0.0000
     24 C24         4.4976   -3.8137   24.3922 C.3       1 UNL1        0.0000
     25 C25         7.3150   -1.2934   19.7670 C.3       1 UNL1        0.0000
     26 C26         7.5957   -1.9989   21.0941 C.3       1 UNL1        0.0000
     27 C27         9.9304   -1.1607   21.5988 C.3       1 UNL1        0.0000
     28 N1          9.4584   -4.2859   24.8679 N.2       1 UNL1        0.0000
     29 N2          6.3785   -5.4178   24.1864 N.am      1 UNL1        0.0000
     30 N3          5.7845    0.1173   18.5573 N.am      1 UNL1        0.0000
     31 N4          9.8940   -0.8717   23.0289 N.3       1 UNL1        0.0000
     32 N5          9.0276    2.6723   21.4640 N.pl3     1 UNL1        0.0000
     33 N6          7.0739   -3.9762   22.3759 N.am      1 UNL1        0.0000
     34 N7          9.0529   -2.3093   21.1802 N.4       1 UNL1        0.0000
     35 O1          5.3190   -5.0669   26.2286 O.2       1 UNL1        0.0000
     36 O2          5.3585   -0.2725   20.7821 O.2       1 UNL1        0.0000
     37 O3          5.9614   -3.6230   20.3681 O.2       1 UNL1        0.0000
     38 O4          8.9102    4.5115   23.2665 O.2       1 UNL1        0.0000
     39 O5         10.9734    4.3197   21.8334 O.2       1 UNL1        0.0000
     40 S1         11.3609   -5.9945   24.5307 S.3       1 UNL1        0.0000
     41 S2          9.8723    3.6882   22.5473 S.o2      1 UNL1        0.0000
     42 Cl1         3.1100   -4.7213   23.8024 Cl        1 UNL1        0.0000
@<TRIPOS>BOND
     1    1    4 ar
     2    1    9 ar
     3    2    5 ar
     4    2    8 ar
     5    3    6 ar
     6    3    8 ar
     7    4   11 ar
     8    5   12 ar
     9    6   12 ar
    10    7    9 ar
    11    7   10 ar
    12    8   23 1
    13    9   23 1
    14   10   11 ar
    15   10   28 1
    16   11   40 1
    17   12   41 1
    18   13   20 1
    19   13   28 2
    20   13   40 1
    21   14   24 1
    22   14   29 am
    23   14   35 2
    24   15   25 1
    25   15   30 am
    26   15   36 2
    27   16   26 1
    28   16   33 am
    29   16   37 2
    30   17   18 1
    31   17   20 1
    32   18   21 1
    33   19   20 1
    34   19   29 1
    35   21   29 1
    36   21   33 1
    37   22   27 1
    38   24   42 1
    39   25   26 1
    40   26   34 1
    41   27   31 1
    42   27   34 1
    43   32   41 1
    44   38   41 2
    45   39   41 2
@<TRIPOS>MOLECULE
NIM-UNI-ed9-2
   28    29     0     0     0
SMALL
NO_CHARGES

@<TRIPOS>ATOM
      1 C1          5.3387    3.5913   20.8386 C.ar      1 UNL1        0.0000
      2 C2          5.0210    1.2284   21.2291 C.ar      1 UNL1        0.0000
      3 C3          5.0267    3.4106   19.4912 C.ar      1 UNL1        0.0000
      4 C4          4.7090    1.0476   19.8817 C.ar      1 UNL1        0.0000
      5 C5          5.3360    2.5002   21.7076 C.ar      1 UNL1        0.0000
      6 C6          4.7118    2.1388   19.0127 C.ar      1 UNL1        0.0000
      7 C7         13.8932   -0.6111   23.6157 C.2       1 UNL1        0.0000
      8 C8          8.3232    4.7361   23.2597 C.2       1 UNL1        0.0000
      9 C9          7.6517    1.1575   23.0323 C.2       1 UNL1        0.0000
     10 C10        11.6416   -0.5757   22.5910 C.3       1 UNL1        0.0000
     11 C11        11.8643    0.1915   24.9223 C.3       1 UNL1        0.0000
     12 C12        10.4677   -1.4649   22.9741 C.3       1 UNL1        0.0000
     13 C13        10.6917   -0.6853   25.3404 C.3       1 UNL1        0.0000
     14 C14         9.1499    5.5740   22.3417 C.3       1 UNL1        0.0000
     15 C15         5.6729    2.6956   23.1657 C.3       1 UNL1        0.0000
     16 C16        14.2951   -1.6964   22.6491 C.3       1 UNL1        0.0000
     17 C17         7.3796   -1.2497   23.6235 C.3       1 UNL1        0.0000
     18 C18         8.5275   -1.6370   24.5366 C.3       1 UNL1        0.0000
     19 C19         7.1707    2.5414   23.4538 C.3       1 UNL1        0.0000
     20 N1         12.5281   -0.3541   23.7335 N.am      1 UNL1        0.0000
     21 N2          7.0548    0.1847   23.7886 N.am      1 UNL1        0.0000
     22 N3          7.9653    3.5059   22.7359 N.am      1 UNL1        0.0000
     23 N4          9.7575   -0.8582   24.1636 N.4       1 UNL1        0.0000
     24 O1         14.7678   -0.0093   24.2442 O.2       1 UNL1        0.0000
     25 O2          8.0269    5.1664   24.3682 O.2       1 UNL1        0.0000
     26 O3          8.4963    0.9806   22.1569 O.2       1 UNL1        0.0000
     27 O4          4.4061    1.9629   17.6981 O.3       1 UNL1        0.0000
     28 Cl1        13.5542   -3.1849   23.2265 Cl        1 UNL1        0.0000
@<TRIPOS>BOND
     1    1    3 ar
     2    1    5 ar
     3    2    4 ar
     4    2    5 ar
     5    3    6 ar
     6    4    6 ar
     7    5   15 1
     8    6   27 1
     9    7   16 1
    10    7   20 am
    11    7   24 2
    12    8   14 1
    13    8   22 am
    14    8   25 2
    15    9   19 1
    16    9   21 am
    17    9   26 2
    18   10   12 1
    19   10   20 1
    20   11   13 1
    21   11   20 1
    22   12   23 1
    23   13   23 1
    24   15   19 1
    25   16   28 1
    26   17   18 1
    27   17   21 1
    28   18   23 1
    29   19   22 1
@<TRIPOS>MOLECULE
DAV-CRI-f47-6
   35    39     0     0     0
SMALL
NO_CHARGES

@<TRIPOS>ATOM
      1 C1         13.0413    1.1336   23.4591 C.ar      1 UNL1        0.0000
      2 C2         13.0084   -0.2021   23.0587 C.ar      1 UNL1        0.0000
      3 C3         11.9414    1.6946   24.1081 C.ar      1 UNL1        0.0000
      4 C4         11.8754   -0.9769   23.3071 C.ar      1 UNL1        0.0000
      5 C5         10.8084    0.9198   24.3566 C.ar      1 UNL1        0.0000
      6 C6          9.1413   -5.0105   24.8122 C.ar      1 UNL1        0.0000
      7 C7         10.3139   -5.3373   25.4876 C.ar      1 UNL1        0.0000
      8 C8         11.0106   -3.0297   25.3653 C.ar      1 UNL1        0.0000
      9 C9         10.7754   -0.4160   23.9561 C.ar      1 UNL1        0.0000
     10 C10         8.9030   -3.6905   24.3977 C.ar      1 UNL1        0.0000
     11 C11         9.8499   -2.6897   24.6491 C.ar      1 UNL1        0.0000
     12 C12        11.2459   -4.3452   25.7697 C.ar      1 UNL1        0.0000
     13 C13         4.2448   -4.7113   22.6567 C.2       1 UNL1        0.0000
     14 C14         8.5706   -1.1435   23.0312 C.2       1 UNL1        0.0000
     15 C15         7.1293   -2.2990   21.4741 C.2       1 UNL1        0.0000
     16 C16         3.7590   -6.1327   22.8186 C.3       1 UNL1        0.0000
     17 C17         4.3942   -6.5746   24.1316 C.3       1 UNL1        0.0000
     18 C18         4.5091   -5.2917   24.9303 C.3       1 UNL1        0.0000
     19 C19         6.7766   -1.4656   25.2319 C.3       1 UNL1        0.0000
     20 C20         4.2496   -2.3225   25.3150 C.3       1 UNL1        0.0000
     21 C21         9.5344   -1.2638   24.2283 C.3       1 UNL1        0.0000
     22 C22         7.6025   -3.3235   23.7311 C.3       1 UNL1        0.0000
     23 C23         6.5637   -2.9108   24.7655 C.3       1 UNL1        0.0000
     24 C24         5.1200   -2.9548   24.2301 C.3       1 UNL1        0.0000
     25 C25        12.4944   -4.6842   26.5124 C.3       1 UNL1        0.0000
     26 C26         7.2753   -1.0964   20.5718 C.3       1 UNL1        0.0000
     27 N1          7.7864   -2.2640   22.7159 N.am      1 UNL1        0.0000
     28 N2          4.6780   -4.2845   23.9098 N.am      1 UNL1        0.0000
     29 O1          4.2030   -4.0765   21.6136 O.2       1 UNL1        0.0000
     30 O2          8.4872   -0.0690   22.4248 O.2       1 UNL1        0.0000
     31 O3          6.4155   -3.2330   21.0941 O.2       1 UNL1        0.0000
     32 O4          4.7871    0.2604   25.3187 O.2       1 UNL1        0.0000
     33 O5          5.3103   -1.1002   27.3949 O.2       1 UNL1        0.0000
     34 S1          5.2206   -0.9656   25.9559 S.o2      1 UNL1        0.0000
     35 Cl1         6.3790   -1.4598   19.1018 Cl        1 UNL1        0.0000
@<TRIPOS>BOND
     1    1    2 ar
     2    1    3 ar
     3    2    4 ar
     4    3    5 ar
     5    4    9 ar
     6    5    9 ar
     7    6    7 ar
     8    6   10 ar
     9    7   12 ar
    10    8   11 ar
    11    8   12 ar
    12    9   21 1
    13   10   11 ar
    14   10   22 1
    15   11   21 1
    16   12   25 1
    17   13   16 1
    18   13   28 am
    19   13   29 2
    20   14   21 1
    21   14   27 am
    22   14   30 2
    23   15   26 1
    24   15   27 am
    25   15   31 2
    26   16   17 1
    27   17   18 1
    28   18   28 1
    29   19   23 1
    30   19   34 1
    31   20   24 1
    32   20   34 1
    33   22   23 1
    34   22   27 1
    35   23   24 1
    36   24   28 1
    37   26   35 1
    38   32   34 2
    39   33   34 2
@<TRIPOS>MOLECULE
DAV-CRI-f47-5
   35    39     0     0     0
SMALL
NO_CHARGES

@<TRIPOS>ATOM
      1 C1         12.5806    1.0659   23.2561 C.ar      1 UNL1        0.0000
      2 C2         12.5472   -0.2703   22.8574 C.ar      1 UNL1        0.0000
      3 C3         11.4807    1.6281   23.9041 C.ar      1 UNL1        0.0000
      4 C4         11.4139   -1.0444   23.1067 C.ar      1 UNL1        0.0000
      5 C5         10.3474    0.8541   24.1533 C.ar      1 UNL1        0.0000
      6 C6          8.6780   -5.0749   24.6166 C.ar      1 UNL1        0.0000
      7 C7          9.8503   -5.4013   25.2927 C.ar      1 UNL1        0.0000
      8 C8         10.5479   -3.0941   25.1674 C.ar      1 UNL1        0.0000
      9 C9         10.3140   -0.4822   23.7546 C.ar      1 UNL1        0.0000
     10 C10         8.4402   -3.7554   24.2003 C.ar      1 UNL1        0.0000
     11 C11         9.3875   -2.7546   24.4505 C.ar      1 UNL1        0.0000
     12 C12        10.7826   -4.4091   25.5737 C.ar      1 UNL1        0.0000
     13 C13         3.7821   -4.7769   22.4595 C.2       1 UNL1        0.0000
     14 C14         8.1091   -1.2101   22.8302 C.2       1 UNL1        0.0000
     15 C15         6.6678   -2.3672   21.2743 C.2       1 UNL1        0.0000
     16 C16         3.2957   -6.1978   22.6232 C.3       1 UNL1        0.0000
     17 C17         3.9304   -6.6382   23.9369 C.3       1 UNL1        0.0000
     18 C18         4.0457   -5.3543   24.7339 C.3       1 UNL1        0.0000
     19 C19         6.3145   -1.5285   25.0309 C.3       1 UNL1        0.0000
     20 C20         3.7871   -2.3845   25.1146 C.3       1 UNL1        0.0000
     21 C21         9.0726   -1.3291   24.0277 C.3       1 UNL1        0.0000
     22 C22         7.1400   -3.3888   23.5328 C.3       1 UNL1        0.0000
     23 C23         6.1012   -2.9743   24.5664 C.3       1 UNL1        0.0000
     24 C24         4.6576   -3.0185   24.0307 C.3       1 UNL1        0.0000
     25 C25         6.8144   -1.1659   20.3704 C.3       1 UNL1        0.0000
     26 N1          7.3246   -2.3308   22.5162 N.am      1 UNL1        0.0000
     27 N2          4.2152   -4.3485   23.7121 N.am      1 UNL1        0.0000
     28 O1          3.7409   -4.1434   21.4155 O.2       1 UNL1        0.0000
     29 O2          8.0263   -0.1364   22.2223 O.2       1 UNL1        0.0000
     30 O3          5.9537   -3.3015   20.8954 O.2       1 UNL1        0.0000
     31 O4          4.3256    0.1982   25.1149 O.2       1 UNL1        0.0000
     32 O5          4.8479   -1.1597   27.1931 O.2       1 UNL1        0.0000
     33 O6         11.9216   -4.7175   26.2527 O.3       1 UNL1        0.0000
     34 S1          4.7586   -1.0271   25.7538 S.o2      1 UNL1        0.0000
     35 Cl1         5.9183   -1.5311   18.9008 Cl        1 UNL1        0.0000
@<TRIPOS>BOND
     1    1    2 ar
     2    1    3 ar
     3    2    4 ar
     4    3    5 ar
     5    4    9 ar
     6    5    9 ar
     7    6    7 ar
     8    6   10 ar
     9    7   12 ar
    10    8   11 ar
    11    8   12 ar
    12    9   21 1
    13   10   11 ar
    14   10   22 1
    15   11   21 1
    16   12   33 1
    17   13   16 1
    18   13   27 am
    19   13   28 2
    20   14   21 1
    21   14   26 am
    22   14   29 2
    23   15   25 1
    24   15   26 am
    25   15   30 2
    26   16   17 1
    27   17   18 1
    28   18   27 1
    29   19   23 1
    30   19   34 1
    31   20   24 1
    32   20   34 1
    33   22   23 1
    34   22   26 1
    35   23   24 1
    36   24   27 1
    37   25   35 1
    38   31   34 2
    39   32   34 2
@<TRIPOS>MOLECULE
TAM-UNI-d1c-11
   31    34     0     0     0
SMALL
NO_CHARGES

@<TRIPOS>ATOM
      1 C1          8.3030   -6.5307   25.4617 C.ar      1 UNL1        0.0000
      2 C2          8.4579   -5.4312   26.3010 C.ar      1 UNL1        0.0000
      3 C3          8.8378    0.5841   23.7044 C.ar      1 UNL1        0.0000
      4 C4          7.6851   -6.3790   24.2207 C.ar      1 UNL1        0.0000
      5 C5          7.9920   -4.1793   25.9018 C.ar      1 UNL1        0.0000
      6 C6          7.8324   -0.3192   24.0682 C.ar      1 UNL1        0.0000
      7 C7          9.1353   -2.1902   23.2278 C.ar      1 UNL1        0.0000
      8 C8         12.0071   -0.2895   22.1067 C.2       1 UNL1        0.0000
      9 C9         10.0105    0.0976   23.0933 C.ar      1 UNL1        0.0000
     10 C10         7.9810   -1.6846   23.8326 C.ar      1 UNL1        0.0000
     11 C11         7.2169   -5.1238   23.8033 C.ar      1 UNL1        0.0000
     12 C12         7.3652   -4.0144   24.6561 C.ar      1 UNL1        0.0000
     13 C13        11.2009    0.7069   22.6068 C.2       1 UNL1        0.0000
     14 C14        10.1320   -1.2755   22.8695 C.ar      1 UNL1        0.0000
     15 C15         6.1356   -3.1851   20.7404 C.2       1 UNL1        0.0000
     16 C16         9.9634    4.9377   24.3934 C.2       1 UNL1        0.0000
     17 C17         6.5574   -5.0071   22.4502 C.3       1 UNL1        0.0000
     18 C18         5.7906   -2.7517   23.1484 C.3       1 UNL1        0.0000
     19 C19         6.8685   -2.6426   24.2387 C.3       1 UNL1        0.0000
     20 C20         8.8947    5.8336   23.8607 C.3       1 UNL1        0.0000
     21 C21        11.8849   -2.7648   21.8626 C.3       1 UNL1        0.0000
     22 C22        11.5240    2.1478   22.6307 C.3       1 UNL1        0.0000
     23 C23         6.4527   -1.7287   20.5077 C.3       1 UNL1        0.0000
     24 C24        12.0197    2.6824   23.9956 C.3       1 UNL1        0.0000
     25 C25        12.3015    4.1836   24.0101 C.3       1 UNL1        0.0000
     26 N1         11.3537   -1.4816   22.2694 N.pl3     1 UNL1        0.0000
     27 N2          6.2117   -3.6339   22.0609 N.am      1 UNL1        0.0000
     28 N3         11.1458    4.9667   23.6700 N.am      1 UNL1        0.0000
     29 O1          5.8236   -3.8967   19.7825 O.2       1 UNL1        0.0000
     30 O2          9.7435    4.2626   25.3921 O.2       1 UNL1        0.0000
     31 Cl1         7.1631   -1.6193   18.9014 Cl        1 UNL1        0.0000
@<TRIPOS>BOND
     1    1    2 ar
     2    1    4 ar
     3    2    5 ar
     4    3    6 ar
     5    3    9 ar
     6    4   11 ar
     7    5   12 ar
     8    6   10 ar
     9    7   10 ar
    10    7   14 ar
    11    8   13 2
    12    8   26 1
    13    9   13 1
    14    9   14 ar
    15   10   19 1
    16   11   12 ar
    17   11   17 1
    18   12   19 1
    19   13   22 1
    20   14   26 1
    21   15   23 1
    22   15   27 am
    23   15   29 2
    24   16   20 1
    25   16   28 am
    26   16   30 2
    27   17   27 1
    28   18   19 1
    29   18   27 1
    30   21   26 1
    31   22   24 1
    32   23   31 1
    33   24   25 1
    34   25   28 1
@<TRIPOS>MOLECULE
BEN-VAN-d2b-13
   30    32     0     0     0
SMALL
NO_CHARGES

@<TRIPOS>ATOM
      1 C1          9.7169    4.4358   23.0190 C.1       1 UNL1        0.0000
      2 C2          7.2551    1.6461   22.7394 C.ar      1 UNL1        0.0000
      3 C3          7.5598    4.2267   21.9067 C.ar      1 UNL1        0.0000
      4 C4         10.1171   -1.0824   26.1161 C.2       1 UNL1        0.0000
      5 C5          8.5625    3.6639   22.6798 C.ar      1 UNL1        0.0000
      6 C6         10.4243   -0.2034   25.1010 C.2       1 UNL1        0.0000
      7 C7          8.3996    2.3486   23.1001 C.ar      1 UNL1        0.0000
      8 C8          9.3661    0.7176   24.8520 C.2       1 UNL1        0.0000
      9 C9          6.3109    2.2992   21.9638 C.ar      1 UNL1        0.0000
     10 C10         8.2902    0.5073   25.6863 C.2       1 UNL1        0.0000
     11 C11         7.6036   -4.8782   23.1722 C.2       1 UNL1        0.0000
     12 C12         8.6763   -4.0946   23.3195 C.2       1 UNL1        0.0000
     13 C13         8.7869   -2.8195   22.5608 C.2       1 UNL1        0.0000
     14 C14        10.3457   -0.9283   22.2885 C.2       1 UNL1        0.0000
     15 C15        13.1291    1.3999   23.1628 C.3       1 UNL1        0.0000
     16 C16        12.5558    1.0726   24.5352 C.3       1 UNL1        0.0000
     17 C17        12.0719    0.8891   22.2003 C.3       1 UNL1        0.0000
     18 C18        11.7393   -0.2273   24.3476 C.3       1 UNL1        0.0000
     19 C19        11.6610   -0.4444   22.8159 C.3       1 UNL1        0.0000
     20 C20         4.4569    2.1025   19.3622 C.3       1 UNL1        0.0000
     21 C21         4.1047    2.1303   20.8106 C.3       1 UNL1        0.0000
     22 N1         10.6542    5.0623   23.2943 N.1       1 UNL1        0.0000
     23 N2          6.4341    3.5759   21.5365 N.ar      1 UNL1        0.0000
     24 N3          9.4017    1.6894   23.9094 N.pl3     1 UNL1        0.0000
     25 N4          5.1492    1.5710   21.6051 N.pl3     1 UNL1        0.0000
     26 N5          9.9726   -2.1484   22.8499 N.am      1 UNL1        0.0000
     27 O1          7.9177   -2.4381   21.7839 O.2       1 UNL1        0.0000
     28 O2          9.6957   -0.2799   21.4728 O.2       1 UNL1        0.0000
     29 F1          7.1652    1.2310   25.6633 F         1 UNL1        0.0000
     30 S1          8.5582   -0.7959   26.7643 S.3       1 UNL1        0.0000
@<TRIPOS>BOND
     1    1    5 1
     2    1   22 3
     3    2    7 ar
     4    2    9 ar
     5    3    5 ar
     6    3   23 ar
     7    4    6 2
     8    4   30 1
     9    5    7 ar
    10    6    8 1
    11    6   18 1
    12    7   24 1
    13    8   10 2
    14    8   24 1
    15    9   23 ar
    16    9   25 1
    17   10   29 1
    18   10   30 1
    19   11   12 2
    20   12   13 1
    21   13   26 am
    22   13   27 2
    23   14   19 1
    24   14   26 am
    25   14   28 2
    26   15   16 1
    27   15   17 1
    28   16   18 1
    29   17   19 1
    30   18   19 1
    31   20   21 1
    32   21   25 1
@<TRIPOS>MOLECULE
ANT-STE-dbb-1
   24    26     0     0     0
SMALL
NO_CHARGES

@<TRIPOS>ATOM
      1 C1         12.6035   -1.3377   21.9452 C.ar      1 UNL1        0.0000
      2 C2         12.5857    0.5001   23.5134 C.ar      1 UNL1        0.0000
      3 C3         13.6666   -0.7456   21.2634 C.ar      1 UNL1        0.0000
      4 C4         13.6489    1.0922   22.8317 C.ar      1 UNL1        0.0000
      5 C5         10.3897   -2.4797   23.4419 C.2       1 UNL1        0.0000
      6 C6         12.0630   -0.7148   23.0702 C.ar      1 UNL1        0.0000
      7 C7         14.1894    0.4693   21.7067 C.ar      1 UNL1        0.0000
      8 C8          9.4262   -2.6029   24.4111 C.2       1 UNL1        0.0000
      9 C9          5.7016   -2.4188   19.9527 C.2       1 UNL1        0.0000
     10 C10         6.4315   -4.2896   21.3979 C.3       1 UNL1        0.0000
     11 C11         5.5846   -2.2479   22.4875 C.3       1 UNL1        0.0000
     12 C12         7.6495   -4.2960   22.3101 C.3       1 UNL1        0.0000
     13 C13         6.7898   -2.2246   23.4180 C.3       1 UNL1        0.0000
     14 C14        15.7327    0.3566   19.9007 C.3       1 UNL1        0.0000
     15 C15         8.4180   -3.6962   24.6090 C.3       1 UNL1        0.0000
     16 C16         5.8492   -0.9266   19.7946 C.3       1 UNL1        0.0000
     17 N1          9.4838   -1.5289   25.2554 N.2       1 UNL1        0.0000
     18 N2         10.4619   -0.7330   24.8373 N.2       1 UNL1        0.0000
     19 N3         11.0037   -1.3047   23.7497 N.pl3     1 UNL1        0.0000
     20 N4          5.9062   -2.9344   21.2318 N.am      1 UNL1        0.0000
     21 N5          7.2856   -3.6386   23.6226 N.4       1 UNL1        0.0000
     22 O1          5.4155   -3.1041   18.9676 O.2       1 UNL1        0.0000
     23 O2         15.2273    1.0472   21.0424 O.3       1 UNL1        0.0000
     24 Cl1         7.4867   -0.5260   20.3006 Cl        1 UNL1        0.0000
@<TRIPOS>BOND
     1    1    3 ar
     2    1    6 ar
     3    2    4 ar
     4    2    6 ar
     5    3    7 ar
     6    4    7 ar
     7    5    8 2
     8    5   19 1
     9    6   19 1
    10    7   23 1
    11    8   15 1
    12    8   17 1
    13    9   16 1
    14    9   20 am
    15    9   22 2
    16   10   12 1
    17   10   20 1
    18   11   13 1
    19   11   20 1
    20   12   21 1
    21   13   21 1
    22   14   23 1
    23   15   21 1
    24   16   24 1
    25   17   18 2
    26   18   19 1
@<TRIPOS>MOLECULE
JAN-GHE-bf4-8
   32    34     0     0     0
SMALL
NO_CHARGES

@<TRIPOS>ATOM
      1 C1          5.8709   -3.8500   20.4063 C.1       1 UNL1        0.0000
      2 C2         10.4554    2.6915   24.9751 C.ar      1 UNL1        0.0000
      3 C3          5.3627   -2.3182   22.2518 C.ar      1 UNL1        0.0000
      4 C4         10.2319    1.4923   25.6516 C.ar      1 UNL1        0.0000
      5 C5         10.9429    2.6746   23.6682 C.ar      1 UNL1        0.0000
      6 C6          5.4709   -1.9823   23.5967 C.ar      1 UNL1        0.0000
      7 C7          6.6602   -4.2634   22.6869 C.ar      1 UNL1        0.0000
      8 C8          5.9658   -3.4788   21.7802 C.ar      1 UNL1        0.0000
      9 C9         10.4960    0.2763   25.0213 C.ar      1 UNL1        0.0000
     10 C10        11.2070    1.4586   23.0380 C.ar      1 UNL1        0.0000
     11 C11        10.9836    0.2594   23.7145 C.ar      1 UNL1        0.0000
     12 C12         6.1872   -2.8339   24.4221 C.ar      1 UNL1        0.0000
     13 C13         6.5308   -0.3029   17.6866 C.2       1 UNL1        0.0000
     14 C14         5.7665   -0.1665   18.7722 C.2       1 UNL1        0.0000
     15 C15         6.3197    0.5262   19.9500 C.2       1 UNL1        0.0000
     16 C16         8.2413   -1.2078   20.1709 C.3       1 UNL1        0.0000
     17 C17         8.1985    0.3165   21.6694 C.3       1 UNL1        0.0000
     18 C18         9.2794   -0.6509   21.1603 C.3       1 UNL1        0.0000
     19 C19         8.7051   -2.6296   26.2037 C.3       1 UNL1        0.0000
     20 C20         7.2956   -2.9929   26.6519 C.3       1 UNL1        0.0000
     21 C21         8.9367   -1.1245   26.1447 C.3       1 UNL1        0.0000
     22 N1          5.7937   -4.1518   19.2884 N.1       1 UNL1        0.0000
     23 N2          6.7869   -3.9698   24.0004 N.ar      1 UNL1        0.0000
     24 N3          7.4364   -0.0442   20.4884 N.am      1 UNL1        0.0000
     25 N4          6.2869   -2.4844   25.7630 N.pl3     1 UNL1        0.0000
     26 N5          9.8440   -1.6152   22.1570 N.pl3     1 UNL1        0.0000
     27 O1          5.7741    1.5407   20.3769 O.2       1 UNL1        0.0000
     28 O2         12.3325   -1.0232   21.8855 O.2       1 UNL1        0.0000
     29 O3         11.5573   -2.2597   23.9335 O.2       1 UNL1        0.0000
     30 O4         10.2704   -0.8825   25.7016 O.3       1 UNL1        0.0000
     31 F1         11.6754    1.4564   21.7820 F         1 UNL1        0.0000
     32 S1         11.3241   -1.2711   22.8982 S.o2      1 UNL1        0.0000
@<TRIPOS>BOND
     1    1    8 1
     2    1   22 3
     3    2    4 ar
     4    2    5 ar
     5    3    6 ar
     6    3    8 ar
     7    4    9 ar
     8    5   10 ar
     9    6   12 ar
    10    7    8 ar
    11    7   23 ar
    12    9   11 ar
    13    9   30 1
    14   10   11 ar
    15   10   31 1
    16   11   32 1
    17   12   23 ar
    18   12   25 1
    19   13   14 2
    20   14   15 1
    21   15   24 am
    22   15   27 2
    23   16   18 1
    24   16   24 1
    25   17   18 1
    26   17   24 1
    27   18   26 1
    28   19   20 1
    29   19   21 1
    30   20   25 1
    31   21   30 1
    32   26   32 1
    33   28   32 2
    34   29   32 2
@<TRIPOS>MOLECULE
MAK-UNK-8fd-13
   40    43     0     0     0
SMALL
NO_CHARGES

@<TRIPOS>ATOM
      1 C1          7.0148    0.2472   20.9100 C.ar      1 UNL1        0.0000
      2 C2          9.1214    0.6719   24.6237 C.ar      1 UNL1        0.0000
      3 C3          8.0637    0.7445   25.5301 C.ar      1 UNL1        0.0000
      4 C4          7.8396   -0.4875   21.7545 C.ar      1 UNL1        0.0000
      5 C5          9.0383   -1.0569   26.8116 C.ar      1 UNL1        0.0000
      6 C6         12.4315    0.3373   23.8986 C.2       1 UNL1        0.0000
      7 C7          7.3042    0.2420   19.5550 C.ar      1 UNL1        0.0000
      8 C8          9.1178   -1.1358   19.8566 C.ar      1 UNL1        0.0000
      9 C9         12.3960   -0.9751   22.0694 C.2       1 UNL1        0.0000
     10 C10        10.1375   -0.2652   24.8112 C.ar      1 UNL1        0.0000
     11 C11         8.0221   -0.1199   26.6241 C.ar      1 UNL1        0.0000
     12 C12        13.1692   -0.0672   22.7588 C.2       1 UNL1        0.0000
     13 C13        10.0960   -1.1296   25.9052 C.ar      1 UNL1        0.0000
     14 C14         8.9135   -1.1949   21.2257 C.ar      1 UNL1        0.0000
     15 C15        11.2301   -0.3358   23.8712 C.2       1 UNL1        0.0000
     16 C16         5.8197   -2.2239   26.9857 C.2       1 UNL1        0.0000
     17 C17         4.8880   -6.3313   24.1011 C.2       1 UNL1        0.0000
     18 C18         4.4993   -2.9079   24.9907 C.3       1 UNL1        0.0000
     19 C19         4.4870   -4.3387   27.0921 C.3       1 UNL1        0.0000
     20 C20         5.4353   -3.9315   24.3504 C.3       1 UNL1        0.0000
     21 C21         5.4093   -5.3284   26.3789 C.3       1 UNL1        0.0000
     22 C22         4.5736   -2.9197   26.5209 C.3       1 UNL1        0.0000
     23 C23         7.2878   -0.4399   29.0221 C.3       1 UNL1        0.0000
     24 C24         4.5106   -0.0965   26.9064 C.3       1 UNL1        0.0000
     25 C25        13.7622    2.3107   20.9615 C.3       1 UNL1        0.0000
     26 C26        14.5171    0.3974   22.3787 C.3       1 UNL1        0.0000
     27 C27         4.7655   -6.0371   22.6272 C.3       1 UNL1        0.0000
     28 C28         6.8739   -0.0414   27.6070 C.3       1 UNL1        0.0000
     29 N1          8.3382   -0.4330   19.0045 N.ar      1 UNL1        0.0000
     30 N2         11.2196   -1.1309   22.7550 N.pl3     1 UNL1        0.0000
     31 N3          5.2238   -5.2589   24.9263 N.am      1 UNL1        0.0000
     32 N4          5.7371   -0.8419   27.1592 N.am      1 UNL1        0.0000
     33 N5         14.5730    1.0711   21.0448 N.4       1 UNL1        0.0000
     34 O1          6.8395   -2.8880   27.1896 O.2       1 UNL1        0.0000
     35 O2          4.6928   -7.4807   24.5045 O.2       1 UNL1        0.0000
     36 O3          9.2598   -2.4827   23.4939 O.2       1 UNL1        0.0000
     37 O4         10.5575   -3.1938   21.4243 O.2       1 UNL1        0.0000
     38 F1         11.0651   -2.0361   26.0992 F         1 UNL1        0.0000
     39 S1          9.9877   -2.1435   22.2715 S.o2      1 UNL1        0.0000
     40 Cl1         4.3743   -7.5619   21.8400 Cl        1 UNL1        0.0000
@<TRIPOS>BOND
     1    1    4 ar
     2    1    7 ar
     3    2    3 ar
     4    2   10 ar
     5    3   11 ar
     6    4   14 ar
     7    5   11 ar
     8    5   13 ar
     9    6   12 1
    10    6   15 2
    11    7   29 ar
    12    8   14 ar
    13    8   29 ar
    14    9   12 2
    15    9   30 1
    16   10   13 ar
    17   10   15 1
    18   11   28 1
    19   12   26 1
    20   13   38 1
    21   14   39 1
    22   15   30 1
    23   16   22 1
    24   16   32 am
    25   16   34 2
    26   17   27 1
    27   17   31 am
    28   17   35 2
    29   18   20 1
    30   18   22 1
    31   19   21 1
    32   19   22 1
    33   20   31 1
    34   21   31 1
    35   23   28 1
    36   24   32 1
    37   25   33 1
    38   26   33 1
    39   27   40 1
    40   28   32 1
    41   30   39 1
    42   36   39 2
    43   37   39 2
@<TRIPOS>MOLECULE
STU-CHA-6ca-1
   28    30     0     0     0
SMALL
NO_CHARGES

@<TRIPOS>ATOM
      1 C1          4.0957    0.2189   23.3313 C.ar      1 UNL1        0.0000
      2 C2          3.7925    0.7394   22.0732 C.ar      1 UNL1        0.0000
      3 C3          5.9483    1.8277   22.0038 C.ar      1 UNL1        0.0000
      4 C4          5.3253    0.5030   23.9257 C.ar      1 UNL1        0.0000
      5 C5          6.2516    1.3073   23.2619 C.ar      1 UNL1        0.0000
      6 C6          4.7187    1.5437   21.4094 C.ar      1 UNL1        0.0000
      7 C7         12.5550    0.5739   23.4952 C.2       1 UNL1        0.0000
      8 C8          7.3979   -1.4970   26.2606 C.2       1 UNL1        0.0000
      9 C9         10.6091    1.4043   24.7758 C.3       1 UNL1        0.0000
     10 C10        10.2292    0.6118   22.4690 C.3       1 UNL1        0.0000
     11 C11         9.1736   -3.0035   27.0991 C.3       1 UNL1        0.0000
     12 C12         8.4115   -3.3246   24.7763 C.3       1 UNL1        0.0000
     13 C13         9.4204    0.5935   25.2705 C.3       1 UNL1        0.0000
     14 C14         9.0325   -0.2084   22.9321 C.3       1 UNL1        0.0000
     15 C15         9.2082   -4.5168   27.2435 C.3       1 UNL1        0.0000
     16 C16         8.5052   -4.8268   25.0217 C.3       1 UNL1        0.0000
     17 C17         5.6277   -0.0645   25.2736 C.3       1 UNL1        0.0000
     18 C18         7.5797    1.6277   23.8820 C.3       1 UNL1        0.0000
     19 C19        13.1872    0.6484   22.1282 C.3       1 UNL1        0.0000
     20 N1         11.1835    0.8188   23.5640 N.am      1 UNL1        0.0000
     21 N2          8.2437   -2.5977   26.0428 N.am      1 UNL1        0.0000
     22 N3          6.5519   -1.1743   25.2061 N.am      1 UNL1        0.0000
     23 N4          8.4088    0.4047   24.1641 N.4       1 UNL1        0.0000
     24 O1         13.2599    0.3035   24.4709 O.2       1 UNL1        0.0000
     25 O2          7.4017   -0.8485   27.3122 O.2       1 UNL1        0.0000
     26 O3          9.5169   -5.1204   25.9858 O.3       1 UNL1        0.0000
     27 Cl1         4.3435    2.1869   19.8583 Cl        1 UNL1        0.0000
     28 Cl2        13.1261   -0.9770   21.4557 Cl        1 UNL1        0.0000
@<TRIPOS>BOND
     1    1    2 ar
     2    1    4 ar
     3    2    6 ar
     4    3    5 ar
     5    3    6 ar
     6    4    5 ar
     7    4   17 1
     8    5   18 1
     9    6   27 1
    10    7   19 1
    11    7   20 am
    12    7   24 2
    13    8   21 am
    14    8   22 am
    15    8   25 2
    16    9   13 1
    17    9   20 1
    18   10   14 1
    19   10   20 1
    20   11   15 1
    21   11   21 1
    22   12   16 1
    23   12   21 1
    24   13   23 1
    25   14   23 1
    26   15   26 1
    27   16   26 1
    28   17   22 1
    29   18   23 1
    30   19   28 1
@<TRIPOS>MOLECULE
MAK-UNK-8fd-21
   40    43     0     0     0
SMALL
NO_CHARGES

@<TRIPOS>ATOM
      1 C1         14.3347   -1.8790   23.4574 C.ar      1 UNL1        0.0000
      2 C2         14.1249   -2.2921   22.1418 C.ar      1 UNL1        0.0000
      3 C3         13.7779   -0.6828   23.9100 C.ar      1 UNL1        0.0000
      4 C4         13.3584   -1.5090   21.2787 C.ar      1 UNL1        0.0000
      5 C5          7.0381    1.0408   25.6092 C.ar      1 UNL1        0.0000
      6 C6         12.6446    2.6185   23.0508 C.2       1 UNL1        0.0000
      7 C7          6.9088    1.3128   26.9616 C.ar      1 UNL1        0.0000
      8 C8          9.1259    0.8583   27.3564 C.ar      1 UNL1        0.0000
      9 C9         11.1949    2.7231   24.7705 C.2       1 UNL1        0.0000
     10 C10        13.0114    0.1003   23.0470 C.ar      1 UNL1        0.0000
     11 C11        11.8589    3.4931   23.8412 C.2       1 UNL1        0.0000
     12 C12         8.2900    0.6603   25.1387 C.ar      1 UNL1        0.0000
     13 C13        12.8016   -0.3128   21.7313 C.ar      1 UNL1        0.0000
     14 C14         9.3591    0.5648   26.0226 C.ar      1 UNL1        0.0000
     15 C15        12.4366    1.3405   23.5210 C.2       1 UNL1        0.0000
     16 C16         8.8812   -0.8970   23.2849 C.2       1 UNL1        0.0000
     17 C17         6.2369   -5.2521   22.9684 C.2       1 UNL1        0.0000
     18 C18         7.1399   -2.1781   24.5168 C.3       1 UNL1        0.0000
     19 C19         9.2304   -3.3455   23.6623 C.3       1 UNL1        0.0000
     20 C20         6.3652   -2.8132   23.3634 C.3       1 UNL1        0.0000
     21 C21         8.3857   -3.9600   22.5453 C.3       1 UNL1        0.0000
     22 C22         8.6367   -2.0470   24.2179 C.3       1 UNL1        0.0000
     23 C23         6.9395    0.9111   21.8949 C.3       1 UNL1        0.0000
     24 C24         9.2749    1.8517   21.9794 C.3       1 UNL1        0.0000
     25 C25        10.4271    6.8975   22.8708 C.3       1 UNL1        0.0000
     26 C26        11.7677    4.9588   23.6971 C.3       1 UNL1        0.0000
     27 C27         6.9503   -6.5084   22.5364 C.3       1 UNL1        0.0000
     28 C28         8.0570    1.4298   22.7882 C.3       1 UNL1        0.0000
     29 N1          7.9240    1.2311   27.8506 N.ar      1 UNL1        0.0000
     30 N2         11.5534    1.4162   24.5661 N.pl3     1 UNL1        0.0000
     31 N3          6.9831   -4.0744   22.9561 N.am      1 UNL1        0.0000
     32 N4          8.4533    0.3701   23.7284 N.am      1 UNL1        0.0000
     33 N5         10.4951    5.4287   23.0680 N.4       1 UNL1        0.0000
     34 O1          9.4614   -1.1307   22.2216 O.2       1 UNL1        0.0000
     35 O2          5.0527   -5.3179   23.3081 O.2       1 UNL1        0.0000
     36 O3         11.8683    0.0670   26.6385 O.2       1 UNL1        0.0000
     37 O4         10.8292   -1.0210   24.5867 O.2       1 UNL1        0.0000
     38 F1         12.0670    0.4287   20.8892 F         1 UNL1        0.0000
     39 S1         10.9587    0.0936   25.5067 S.o2      1 UNL1        0.0000
     40 Cl1         6.6878   -6.6660   20.8032 Cl        1 UNL1        0.0000
@<TRIPOS>BOND
     1    1    2 ar
     2    1    3 ar
     3    2    4 ar
     4    3   10 ar
     5    4   13 ar
     6    5    7 ar
     7    5   12 ar
     8    6   11 1
     9    6   15 2
    10    7   29 ar
    11    8   14 ar
    12    8   29 ar
    13    9   11 2
    14    9   30 1
    15   10   13 ar
    16   10   15 1
    17   11   26 1
    18   12   14 ar
    19   12   32 1
    20   13   38 1
    21   14   39 1
    22   15   30 1
    23   16   22 1
    24   16   32 am
    25   16   34 2
    26   17   27 1
    27   17   31 am
    28   17   35 2
    29   18   20 1
    30   18   22 1
    31   19   21 1
    32   19   22 1
    33   20   31 1
    34   21   31 1
    35   23   28 1
    36   24   28 1
    37   25   33 1
    38   26   33 1
    39   27   40 1
    40   28   32 1
    41   30   39 1
    42   36   39 2
    43   37   39 2
@<TRIPOS>MOLECULE
WAR-XCH-72a-6
   27    29     0     0     0
SMALL
NO_CHARGES

@<TRIPOS>ATOM
      1 C1          8.1804    0.1148   20.9806 C.1       1 UNL1        0.0000
      2 C2          5.7374   -2.3274   19.6106 C.ar      1 UNL1        0.0000
      3 C3          6.2941   -3.5378   20.0236 C.ar      1 UNL1        0.0000
      4 C4          6.3672   -1.1247   19.9309 C.ar      1 UNL1        0.0000
      5 C5          7.4805   -3.5455   20.7571 C.ar      1 UNL1        0.0000
      6 C6          7.5536   -1.1324   20.6644 C.ar      1 UNL1        0.0000
      7 C7          8.1103   -2.3428   21.0775 C.ar      1 UNL1        0.0000
      8 C8         13.1948    2.0722   23.8083 C.2       1 UNL1        0.0000
      9 C9          7.0334   -2.3380   23.8500 C.3       1 UNL1        0.0000
     10 C10         9.0140   -3.8817   24.1782 C.3       1 UNL1        0.0000
     11 C11         6.1990   -3.2083   24.7924 C.3       1 UNL1        0.0000
     12 C12         8.1810   -4.7501   25.1230 C.3       1 UNL1        0.0000
     13 C13        10.4469   -0.0632   24.6461 C.3       1 UNL1        0.0000
     14 C14        11.5185   -0.8730   22.5084 C.3       1 UNL1        0.0000
     15 C15        11.8054    0.4755   25.0905 C.3       1 UNL1        0.0000
     16 C16        12.8552   -0.3149   22.9963 C.3       1 UNL1        0.0000
     17 C17         8.5194   -2.4372   24.1857 C.3       1 UNL1        0.0000
     18 C18        10.6246   -1.2438   23.6917 C.3       1 UNL1        0.0000
     19 C19         6.6840   -4.6585   24.8198 C.3       1 UNL1        0.0000
     20 C20         9.3848   -2.3902   21.8677 C.3       1 UNL1        0.0000
     21 C21        14.5122    2.1709   23.0812 C.3       1 UNL1        0.0000
     22 N1          8.6888    1.1260   21.2368 N.1       1 UNL1        0.0000
     23 N2         12.6438    0.7973   23.9327 N.am      1 UNL1        0.0000
     24 N3          9.2923   -1.6591   23.1813 N.4       1 UNL1        0.0000
     25 O1         12.6719    3.0986   24.2499 O.2       1 UNL1        0.0000
     26 O2          6.4112   -5.2551   23.5533 O.3       1 UNL1        0.0000
     27 Cl1        15.6684    1.2145   24.0013 Cl        1 UNL1        0.0000
@<TRIPOS>BOND
     1    1    6 1
     2    1   22 3
     3    2    3 ar
     4    2    4 ar
     5    3    5 ar
     6    4    6 ar
     7    5    7 ar
     8    6    7 ar
     9    7   20 1
    10    8   21 1
    11    8   23 am
    12    8   25 2
    13    9   11 1
    14    9   17 1
    15   10   12 1
    16   10   17 1
    17   11   19 1
    18   12   19 1
    19   13   15 1
    20   13   18 1
    21   14   16 1
    22   14   18 1
    23   15   23 1
    24   16   23 1
    25   17   24 1
    26   18   24 1
    27   19   26 1
    28   20   24 1
    29   21   27 1
@<TRIPOS>MOLECULE
DAV-CRI-f47-8
   36    40     0     0     0
SMALL
NO_CHARGES

@<TRIPOS>ATOM
      1 C1          8.7797   -5.4306   24.6518 C.ar      1 UNL1        0.0000
      2 C2         11.3505   -0.0163   24.1198 C.ar      1 UNL1        0.0000
      3 C3         11.6370   -1.7008   22.4118 C.ar      1 UNL1        0.0000
      4 C4          9.8789   -5.8062   25.4194 C.ar      1 UNL1        0.0000
      5 C5         12.5660    0.5617   23.7537 C.ar      1 UNL1        0.0000
      6 C6         12.8525   -1.1228   22.0456 C.ar      1 UNL1        0.0000
      7 C7         10.7833   -3.5819   25.1851 C.ar      1 UNL1        0.0000
      8 C8         10.8860   -1.1476   23.4489 C.ar      1 UNL1        0.0000
      9 C9          8.6819   -4.1288   24.1353 C.ar      1 UNL1        0.0000
     10 C10         9.6979   -3.1970   24.3780 C.ar      1 UNL1        0.0000
     11 C11        10.8784   -4.8792   25.6913 C.ar      1 UNL1        0.0000
     12 C12        13.3170    0.0085   22.7166 C.ar      1 UNL1        0.0000
     13 C13         4.7984   -5.6557   24.0263 C.2       1 UNL1        0.0000
     14 C14         8.5627   -1.5958   22.6879 C.2       1 UNL1        0.0000
     15 C15         7.1061   -2.8383   21.0966 C.2       1 UNL1        0.0000
     16 C16         3.9497   -6.7588   23.4387 C.3       1 UNL1        0.0000
     17 C17         3.5066   -6.1856   22.0979 C.3       1 UNL1        0.0000
     18 C18         3.4571   -4.6903   22.3397 C.3       1 UNL1        0.0000
     19 C19         6.6386   -1.7505   24.7341 C.3       1 UNL1        0.0000
     20 C20         4.0643   -2.4518   24.6440 C.3       1 UNL1        0.0000
     21 C21         9.5552   -1.7800   23.8491 C.3       1 UNL1        0.0000
     22 C22         7.4607   -3.7086   23.3641 C.3       1 UNL1        0.0000
     23 C23         6.3728   -3.1967   24.2990 C.3       1 UNL1        0.0000
     24 C24         4.9749   -3.1745   23.6524 C.3       1 UNL1        0.0000
     25 C25        12.0482   -5.2679   26.5309 C.3       1 UNL1        0.0000
     26 C26         7.7318   -2.1344   19.9165 C.3       1 UNL1        0.0000
     27 N1          7.7789   -2.7075   22.3328 N.am      1 UNL1        0.0000
     28 N2          4.4770   -4.4864   23.3410 N.am      1 UNL1        0.0000
     29 O1          5.5742   -5.7972   24.9596 O.2       1 UNL1        0.0000
     30 O2          8.4705   -0.4911   22.1425 O.2       1 UNL1        0.0000
     31 O3          6.0543   -3.4634   20.9392 O.2       1 UNL1        0.0000
     32 O4          4.7597    0.0928   24.6072 O.2       1 UNL1        0.0000
     33 O5          5.0353   -1.2188   26.7611 O.2       1 UNL1        0.0000
     34 O6         14.5024    0.5734   22.3586 O.3       1 UNL1        0.0000
     35 S1          5.0656   -1.1324   25.3159 S.o2      1 UNL1        0.0000
     36 Cl1         6.5241   -1.0109   19.3040 Cl        1 UNL1        0.0000
@<TRIPOS>BOND
     1    1    4 ar
     2    1    9 ar
     3    2    5 ar
     4    2    8 ar
     5    3    6 ar
     6    3    8 ar
     7    4   11 ar
     8    5   12 ar
     9    6   12 ar
    10    7   10 ar
    11    7   11 ar
    12    8   21 1
    13    9   10 ar
    14    9   22 1
    15   10   21 1
    16   11   25 1
    17   12   34 1
    18   13   16 1
    19   13   28 am
    20   13   29 2
    21   14   21 1
    22   14   27 am
    23   14   30 2
    24   15   26 1
    25   15   27 am
    26   15   31 2
    27   16   17 1
    28   17   18 1
    29   18   28 1
    30   19   23 1
    31   19   35 1
    32   20   24 1
    33   20   35 1
    34   22   23 1
    35   22   27 1
    36   23   24 1
    37   24   28 1
    38   26   36 1
    39   32   35 2
    40   33   35 2
@<TRIPOS>MOLECULE
DAV-CRI-f9b-1
   41    44     0     0     0
SMALL
NO_CHARGES

@<TRIPOS>ATOM
      1 C1         12.3072   -2.7218   25.1216 C.ar      1 UNL1        0.0000
      2 C2         13.4044   -0.2362   24.0932 C.ar      1 UNL1        0.0000
      3 C3         11.1371    0.5982   24.0771 C.ar      1 UNL1        0.0000
      4 C4         11.8498   -4.0225   25.3473 C.ar      1 UNL1        0.0000
      5 C5         13.8818    1.0570   23.8805 C.ar      1 UNL1        0.0000
      6 C6         11.6145    1.8915   23.8645 C.ar      1 UNL1        0.0000
      7 C7         10.2838   -2.1728   23.9102 C.ar      1 UNL1        0.0000
      8 C8         12.0320   -0.4656   24.1915 C.ar      1 UNL1        0.0000
      9 C9         11.5361   -1.8073   24.4126 C.ar      1 UNL1        0.0000
     10 C10         9.7978   -3.4808   24.1240 C.ar      1 UNL1        0.0000
     11 C11        10.5911   -4.3827   24.8396 C.ar      1 UNL1        0.0000
     12 C12        12.9869    2.1209   23.7662 C.ar      1 UNL1        0.0000
     13 C13         8.4604   -5.2344   24.0651 C.2       1 UNL1        0.0000
     14 C14         4.3518   -3.7559   24.3292 C.2       1 UNL1        0.0000
     15 C15         5.7322   -0.4543   18.4848 C.2       1 UNL1        0.0000
     16 C16         5.9615   -3.1003   20.3675 C.2       1 UNL1        0.0000
     17 C17         7.1357   -6.3980   22.2517 C.3       1 UNL1        0.0000
     18 C18         5.7643   -6.0544   21.6768 C.3       1 UNL1        0.0000
     19 C19         5.9205   -5.6523   24.3900 C.3       1 UNL1        0.0000
     20 C20         7.2511   -6.1114   23.7641 C.3       1 UNL1        0.0000
     21 C21         5.2771   -4.6872   22.1570 C.3       1 UNL1        0.0000
     22 C22         9.8635   -4.4626   20.3661 C.3       1 UNL1        0.0000
     23 C23         3.6033   -2.7288   23.5147 C.3       1 UNL1        0.0000
     24 C24         6.8282   -1.4940   18.6404 C.3       1 UNL1        0.0000
     25 C25         6.9794   -2.0114   20.0713 C.3       1 UNL1        0.0000
     26 C26         8.5995   -3.9213   19.7031 C.3       1 UNL1        0.0000
     27 N1          8.5808   -3.9833   23.6869 N.2       1 UNL1        0.0000
     28 N2          5.1879   -4.6338   23.6274 N.am      1 UNL1        0.0000
     29 N3          5.1064   -0.5337   17.2588 N.am      1 UNL1        0.0000
     30 N4          8.7576   -3.9679   18.2529 N.3       1 UNL1        0.0000
     31 N5         13.6200    3.7990   21.7944 N.pl3     1 UNL1        0.0000
     32 N6          6.1254   -3.6404   21.6340 N.am      1 UNL1        0.0000
     33 N7          8.3629   -2.5405   20.2526 N.4       1 UNL1        0.0000
     34 O1          4.1925   -3.7858   25.5526 O.2       1 UNL1        0.0000
     35 O2          5.4309    0.3618   19.3507 O.2       1 UNL1        0.0000
     36 O3          5.0983   -3.4386   19.5608 O.2       1 UNL1        0.0000
     37 O4         12.5861    4.6831   23.9841 O.2       1 UNL1        0.0000
     38 O5         14.9513    3.8152   23.9998 O.2       1 UNL1        0.0000
     39 S1          9.7660   -5.8924   24.9529 S.3       1 UNL1        0.0000
     40 S2         13.5851    3.7398   23.5016 S.o2      1 UNL1        0.0000
     41 Cl1         2.0855   -3.4778   23.0324 Cl        1 UNL1        0.0000
@<TRIPOS>BOND
     1    1    4 ar
     2    1    9 ar
     3    2    5 ar
     4    2    8 ar
     5    3    6 ar
     6    3    8 ar
     7    4   11 ar
     8    5   12 ar
     9    6   12 ar
    10    7    9 ar
    11    7   10 ar
    12    8    9 1
    13   10   11 ar
    14   10   27 1
    15   11   39 1
    16   12   40 1
    17   13   20 1
    18   13   27 2
    19   13   39 1
    20   14   23 1
    21   14   28 am
    22   14   34 2
    23   15   24 1
    24   15   29 am
    25   15   35 2
    26   16   25 1
    27   16   32 am
    28   16   36 2
    29   17   18 1
    30   17   20 1
    31   18   21 1
    32   19   20 1
    33   19   28 1
    34   21   28 1
    35   21   32 1
    36   22   26 1
    37   23   41 1
    38   24   25 1
    39   25   33 1
    40   26   30 1
    41   26   33 1
    42   31   40 1
    43   37   40 2
    44   38   40 2
@<TRIPOS>MOLECULE
BEN-VAN-77c-4
   29    31     0     0     0
SMALL
NO_CHARGES

@<TRIPOS>ATOM
      1 C1          8.5948   -4.1330   26.5341 C.ar      1 UNL1        0.0000
      2 C2          8.8557   -0.0993   21.0938 C.ar      1 UNL1        0.0000
      3 C3          7.7700   -4.1288   25.4147 C.ar      1 UNL1        0.0000
      4 C4          7.6158   -0.1313   20.4558 C.ar      1 UNL1        0.0000
      5 C5          8.6897   -2.4688   21.5354 C.ar      1 UNL1        0.0000
      6 C6          9.0378   -2.9126   27.0179 C.ar      1 UNL1        0.0000
      7 C7          9.3928   -1.2681   21.6335 C.ar      1 UNL1        0.0000
      8 C8          7.4497   -2.5008   20.8975 C.ar      1 UNL1        0.0000
      9 C9          7.4184   -2.9213   24.8218 C.ar      1 UNL1        0.0000
     10 C10         6.9127   -1.3320   20.3577 C.ar      1 UNL1        0.0000
     11 C11         7.9139   -1.7551   25.3824 C.ar      1 UNL1        0.0000
     12 C12        11.9183    2.2812   26.4266 C.2       1 UNL1        0.0000
     13 C13        11.6737    1.2498   25.6156 C.2       1 UNL1        0.0000
     14 C14        12.7451    0.7822   24.7133 C.2       1 UNL1        0.0000
     15 C15        13.4072   -0.2563   22.5818 C.3       1 UNL1        0.0000
     16 C16        11.0013    0.1374   22.9647 C.3       1 UNL1        0.0000
     17 C17        13.0447   -1.6062   21.9844 C.3       1 UNL1        0.0000
     18 C18        10.7382   -1.2332   22.3253 C.3       1 UNL1        0.0000
     19 C19         4.7866   -4.5376   23.8087 C.3       1 UNL1        0.0000
     20 C20         6.6995   -3.7858   20.7950 C.3       1 UNL1        0.0000
     21 C21         6.0383   -4.0909   23.0609 C.3       1 UNL1        0.0000
     22 N1          8.7175   -1.7195   26.4689 N.ar      1 UNL1        0.0000
     23 N2         12.3680    0.2105   23.5008 N.am      1 UNL1        0.0000
     24 N3          6.5972   -2.9151   23.7066 N.pl3     1 UNL1        0.0000
     25 O1         13.9103    0.9312   25.0856 O.2       1 UNL1        0.0000
     26 O2         11.7582   -1.5466   21.3695 O.3       1 UNL1        0.0000
     27 O3          5.6213   -3.7785   21.7224 O.3       1 UNL1        0.0000
     28 F1          5.7211   -1.3525   19.7442 F         1 UNL1        0.0000
     29 Cl1         7.5532   -0.1977   24.7438 Cl        1 UNL1        0.0000
@<TRIPOS>BOND
     1    1    3 ar
     2    1    6 ar
     3    2    4 ar
     4    2    7 ar
     5    3    9 ar
     6    4   10 ar
     7    5    7 ar
     8    5    8 ar
     9    6   22 ar
    10    7   18 1
    11    8   10 ar
    12    8   20 1
    13    9   11 ar
    14    9   24 1
    15   10   28 1
    16   11   22 ar
    17   11   29 1
    18   12   13 2
    19   13   14 1
    20   14   23 am
    21   14   25 2
    22   15   17 1
    23   15   23 1
    24   16   18 1
    25   16   23 1
    26   17   26 1
    27   18   26 1
    28   19   21 1
    29   20   27 1
    30   21   24 1
    31   21   27 1
@<TRIPOS>MOLECULE
DAN-LON-a5f-10
   25    27     0     0     0
SMALL
NO_CHARGES

@<TRIPOS>ATOM
      1 C1          4.5931   -0.3700   18.3247 C.ar      1 UNL1        0.0000
      2 C2          5.9309   -0.6030   18.0061 C.ar      1 UNL1        0.0000
      3 C3          4.1919   -0.3242   19.6599 C.ar      1 UNL1        0.0000
      4 C4         12.7094    0.5070   24.4994 C.ar      1 UNL1        0.0000
      5 C5          6.8675   -0.7904   19.0226 C.ar      1 UNL1        0.0000
      6 C6          5.1285   -0.5116   20.6764 C.ar      1 UNL1        0.0000
      7 C7         11.7499   -0.4121   24.9238 C.ar      1 UNL1        0.0000
      8 C8         13.2772    0.3870   23.2309 C.ar      1 UNL1        0.0000
      9 C9         11.9259   -1.5713   22.8114 C.ar      1 UNL1        0.0000
     10 C10         6.4664   -0.7447   20.3578 C.ar      1 UNL1        0.0000
     11 C11        11.3581   -1.4513   24.0798 C.ar      1 UNL1        0.0000
     12 C12        12.8854   -0.6522   22.3869 C.ar      1 UNL1        0.0000
     13 C13         5.3302   -3.3844   22.0595 C.2       1 UNL1        0.0000
     14 C14         6.5300   -2.4751   24.0979 C.3       1 UNL1        0.0000
     15 C15         7.8714   -2.8123   24.7291 C.3       1 UNL1        0.0000
     16 C16         8.9437   -2.7494   22.4879 C.3       1 UNL1        0.0000
     17 C17         7.5992   -2.4256   21.8335 C.3       1 UNL1        0.0000
     18 C18         7.4744   -0.9467   21.4529 C.3       1 UNL1        0.0000
     19 C19        10.3269   -2.4402   24.5375 C.3       1 UNL1        0.0000
     20 C20         4.1184   -3.5966   22.9322 C.3       1 UNL1        0.0000
     21 N1          6.4636   -2.8427   22.6768 N.am      1 UNL1        0.0000
     22 N2          8.9819   -2.2269   23.8996 N.4       1 UNL1        0.0000
     23 O1          5.2736   -3.6933   20.8662 O.2       1 UNL1        0.0000
     24 Cl1        13.5871   -0.8004   20.8225 Cl        1 UNL1        0.0000
     25 Cl2         4.2355   -5.2341   23.5666 Cl        1 UNL1        0.0000
@<TRIPOS>BOND
     1    1    2 ar
     2    1    3 ar
     3    2    5 ar
     4    3    6 ar
     5    4    7 ar
     6    4    8 ar
     7    5   10 ar
     8    6   10 ar
     9    7   11 ar
    10    8   12 ar
    11    9   11 ar
    12    9   12 ar
    13   10   18 1
    14   11   19 1
    15   12   24 1
    16   13   20 1
    17   13   21 am
    18   13   23 2
    19   14   15 1
    20   14   21 1
    21   15   22 1
    22   16   17 1
    23   16   22 1
    24   17   18 1
    25   17   21 1
    26   19   22 1
    27   20   25 1
@<TRIPOS>MOLECULE
JUA-UNI-bc0-3
   24    25     0     0     0
SMALL
NO_CHARGES

@<TRIPOS>ATOM
      1 C1         13.1890    1.7683   22.3927 C.2       1 UNL1        0.0000
      2 C2         14.2884    1.1655   22.9632 C.2       1 UNL1        0.0000
      3 C3         12.2976    0.8186   21.8149 C.2       1 UNL1        0.0000
      4 C4         12.7500   -0.4739   21.9656 C.2       1 UNL1        0.0000
      5 C5          9.5658   -2.1079   20.3609 C.2       1 UNL1        0.0000
      6 C6          9.7191   -2.3301   21.8256 C.2       1 UNL1        0.0000
      7 C7          8.6117   -1.0067   18.6106 C.2       1 UNL1        0.0000
      8 C8          9.5553    0.9656   24.6007 C.3       1 UNL1        0.0000
      9 C9          8.6863   -1.3077   25.1093 C.3       1 UNL1        0.0000
     10 C10         8.1208    1.3816   24.3226 C.3       1 UNL1        0.0000
     11 C11         7.2966   -0.7740   24.8055 C.3       1 UNL1        0.0000
     12 C12         7.4284    1.0983   19.3645 C.3       1 UNL1        0.0000
     13 C13        12.1205   -1.7579   21.5082 C.3       1 UNL1        0.0000
     14 C14         8.2584    0.4338   18.2806 C.3       1 UNL1        0.0000
     15 C15        11.2843   -2.3135   23.7659 C.3       1 UNL1        0.0000
     16 C16        11.0918   -1.0027   24.5049 C.3       1 UNL1        0.0000
     17 N1          8.7438   -1.1993   19.9701 N.2       1 UNL1        0.0000
     18 N2         10.9938   -2.1407   22.3458 N.am      1 UNL1        0.0000
     19 N3          9.6871   -0.5102   24.3064 N.4       1 UNL1        0.0000
     20 O1          8.7009   -2.6501   22.4262 O.2       1 UNL1        0.0000
     21 O2          8.7516   -1.8597   17.7369 O.2       1 UNL1        0.0000
     22 O3          7.2143    0.6171   25.1188 O.3       1 UNL1        0.0000
     23 S1         14.2433   -0.5386   22.8011 S.3       1 UNL1        0.0000
     24 Br1        10.7018    1.3409   20.9587 Br        1 UNL1        0.0000
@<TRIPOS>BOND
     1    1    2 2
     2    1    3 1
     3    2   23 1
     4    3    4 2
     5    3   24 1
     6    4   13 1
     7    4   23 1
     8    5    6 1
     9    5   17 2
    10    6   18 am
    11    6   20 2
    12    7   14 1
    13    7   17 1
    14    7   21 2
    15    8   10 1
    16    8   19 1
    17    9   11 1
    18    9   19 1
    19   10   22 1
    20   11   22 1
    21   12   14 1
    22   13   18 1
    23   15   16 1
    24   15   18 1
    25   16   19 1
@<TRIPOS>MOLECULE
WAR-XCH-79d-9
   22    24     0     0     0
SMALL
NO_CHARGES

@<TRIPOS>ATOM
      1 C1          5.8437   -5.9708   24.6111 C.2       1 UNL1        0.0000
      2 C2          5.4812   -4.6528   24.7939 C.2       1 UNL1        0.0000
      3 C3          3.6723   -6.1936   24.3986 C.2       1 UNL1        0.0000
      4 C4          7.3432   -3.1706   19.6188 C.2       1 UNL1        0.0000
      5 C5          6.6241   -2.9442   28.0227 C.3       1 UNL1        0.0000
      6 C6          7.4489   -4.0172   27.3196 C.3       1 UNL1        0.0000
      7 C7          5.3285   -2.6428   27.2770 C.3       1 UNL1        0.0000
      8 C8          7.6769   -3.6839   25.8410 C.3       1 UNL1        0.0000
      9 C9          5.6017   -2.2867   25.8144 C.3       1 UNL1        0.0000
     10 C10         6.1098   -2.1091   21.4824 C.3       1 UNL1        0.0000
     11 C11         8.4240   -2.8472   21.8981 C.3       1 UNL1        0.0000
     12 C12         5.6394   -2.7986   22.7547 C.3       1 UNL1        0.0000
     13 C13         7.9885   -3.5467   23.1786 C.3       1 UNL1        0.0000
     14 C14         6.3570   -3.4189   25.0646 C.3       1 UNL1        0.0000
     15 C15         2.3424   -6.8077   24.1913 C.3       1 UNL1        0.0000
     16 C16         8.6910   -3.1653   18.9427 C.3       1 UNL1        0.0000
     17 N1          4.8078   -6.8559   24.3847 N.2       1 UNL1        0.0000
     18 N2          7.3101   -2.7528   20.9484 N.am      1 UNL1        0.0000
     19 N3          6.7808   -2.8351   23.7463 N.4       1 UNL1        0.0000
     20 O1          6.3514   -3.5378   18.9835 O.2       1 UNL1        0.0000
     21 S1          3.7766   -4.5036   24.6779 S.3       1 UNL1        0.0000
     22 Cl1         9.2552   -1.4982   18.9571 Cl        1 UNL1        0.0000
@<TRIPOS>BOND
     1    1    2 2
     2    1   17 1
     3    2   14 1
     4    2   21 1
     5    3   15 1
     6    3   17 2
     7    3   21 1
     8    4   16 1
     9    4   18 am
    10    4   20 2
    11    5    6 1
    12    5    7 1
    13    6    8 1
    14    7    9 1
    15    8   14 1
    16    9   14 1
    17   10   12 1
    18   10   18 1
    19   11   13 1
    20   11   18 1
    21   12   19 1
    22   13   19 1
    23   14   19 1
    24   16   22 1
@<TRIPOS>MOLECULE
MAK-UNK-c44-8
   32    33     0     0     0
SMALL
NO_CHARGES

@<TRIPOS>ATOM
      1 C1          6.5720    5.4007   23.3267 C.1       1 UNL1        0.0000
      2 C2          6.4970    6.2153   22.4480 C.1       1 UNL1        0.0000
      3 C3          3.2627   -5.8817   27.3051 C.ar      1 UNL1        0.0000
      4 C4          3.9249   -5.1912   28.3201 C.ar      1 UNL1        0.0000
      5 C5          3.9687   -6.3219   26.1855 C.ar      1 UNL1        0.0000
      6 C6          5.2931   -4.9407   28.2154 C.ar      1 UNL1        0.0000
      7 C7          5.3369   -6.0714   26.0808 C.ar      1 UNL1        0.0000
      8 C8         12.0649   -0.0869   24.5248 C.ar      1 UNL1        0.0000
      9 C9         12.5049    1.0233   22.4246 C.ar      1 UNL1        0.0000
     10 C10        12.7799   -1.2011   24.0857 C.ar      1 UNL1        0.0000
     11 C11        13.2200   -0.0909   21.9854 C.ar      1 UNL1        0.0000
     12 C12         5.9991   -5.3808   27.0958 C.ar      1 UNL1        0.0000
     13 C13        11.9273    1.0253   23.6943 C.ar      1 UNL1        0.0000
     14 C14        13.3575   -1.2031   22.8160 C.ar      1 UNL1        0.0000
     15 C15         8.9131   -0.2127   23.7189 C.2       1 UNL1        0.0000
     16 C16         8.9319    3.3838   24.3484 C.2       1 UNL1        0.0000
     17 C17         6.6604    4.4112   24.3998 C.3       1 UNL1        0.0000
     18 C18         7.4792   -5.1099   26.9819 C.3       1 UNL1        0.0000
     19 C19        11.1542    2.2312   24.1695 C.3       1 UNL1        0.0000
     20 C20         8.2058   -1.2462   24.5603 C.3       1 UNL1        0.0000
     21 C21         7.7907   -3.7866   26.2871 C.3       1 UNL1        0.0000
     22 C22         9.6640    2.1565   23.8173 C.3       1 UNL1        0.0000
     23 N1          7.5762    3.3481   24.0533 N.am      1 UNL1        0.0000
     24 N2          9.0262    0.9983   24.3908 N.am      1 UNL1        0.0000
     25 N3          7.2378   -3.7203   24.9224 N.pl3     1 UNL1        0.0000
     26 O1          9.3332   -0.4312   22.5862 O.2       1 UNL1        0.0000
     27 O2          9.5033    4.3050   24.9278 O.2       1 UNL1        0.0000
     28 O3          7.1993   -2.6270   22.5777 O.2       1 UNL1        0.0000
     29 O4          9.3955   -3.3516   23.5818 O.2       1 UNL1        0.0000
     30 O5         14.0563   -2.2900   22.3882 O.3       1 UNL1        0.0000
     31 S1          8.0590   -2.7967   23.7398 S.o2      1 UNL1        0.0000
     32 Br1         6.3786    7.5047   21.0572 Br        1 UNL1        0.0000
@<TRIPOS>BOND
     1    1    2 3
     2    1   17 1
     3    2   32 1
     4    3    4 ar
     5    3    5 ar
     6    4    6 ar
     7    5    7 ar
     8    6   12 ar
     9    7   12 ar
    10    8   10 ar
    11    8   13 ar
    12    9   11 ar
    13    9   13 ar
    14   10   14 ar
    15   11   14 ar
    16   12   18 1
    17   13   19 1
    18   14   30 1
    19   15   20 1
    20   15   24 am
    21   15   26 2
    22   16   22 1
    23   16   23 am
    24   16   27 2
    25   17   23 1
    26   18   21 1
    27   19   22 1
    28   20   31 1
    29   21   25 1
    30   22   24 1
    31   25   31 1
    32   28   31 2
    33   29   31 2
@<TRIPOS>MOLECULE
WAR-XCH-b03-18
   20    21     0     0     0
SMALL
NO_CHARGES

@<TRIPOS>ATOM
      1 C1          2.9540   -7.1727   28.9317 C.2       1 UNL1        0.0000
      2 C2          6.6087   -4.1127   21.1991 C.2       1 UNL1        0.0000
      3 C3          4.1088   -7.0241   25.5420 C.3       1 UNL1        0.0000
      4 C4          5.9616   -6.2808   27.0983 C.3       1 UNL1        0.0000
      5 C5          3.0906   -6.5008   26.5550 C.3       1 UNL1        0.0000
      6 C6          4.8991   -5.7755   28.0756 C.3       1 UNL1        0.0000
      7 C7          5.0323   -5.3082   22.6829 C.3       1 UNL1        0.0000
      8 C8          7.2805   -4.7840   23.5574 C.3       1 UNL1        0.0000
      9 C9          4.3923   -4.7820   23.9591 C.3       1 UNL1        0.0000
     10 C10         6.6708   -4.2527   24.8478 C.3       1 UNL1        0.0000
     11 C11         5.4644   -6.3223   25.6513 C.3       1 UNL1        0.0000
     12 C12         3.5883   -7.1484   30.2994 C.3       1 UNL1        0.0000
     13 C13         7.9681   -3.4820   21.0311 C.3       1 UNL1        0.0000
     14 N1          3.6431   -6.5180   27.9109 N.am      1 UNL1        0.0000
     15 N2          6.3320   -4.6801   22.4429 N.am      1 UNL1        0.0000
     16 N3          5.3432   -4.9182   25.1255 N.4       1 UNL1        0.0000
     17 O1          1.8792   -7.7582   28.7768 O.2       1 UNL1        0.0000
     18 O2          5.8169   -4.0981   20.2531 O.2       1 UNL1        0.0000
     19 Cl1         2.4945   -8.0084   31.3774 Cl        1 UNL1        0.0000
     20 Cl2         7.7958   -1.7878   21.4759 Cl        1 UNL1        0.0000
@<TRIPOS>BOND
     1    1   12 1
     2    1   14 am
     3    1   17 2
     4    2   13 1
     5    2   15 am
     6    2   18 2
     7    3    5 1
     8    3   11 1
     9    4    6 1
    10    4   11 1
    11    5   14 1
    12    6   14 1
    13    7    9 1
    14    7   15 1
    15    8   10 1
    16    8   15 1
    17    9   16 1
    18   10   16 1
    19   11   16 1
    20   12   19 1
    21   13   20 1
@<TRIPOS>MOLECULE
DAV-CRI-f47-1
   34    38     0     0     0
SMALL
NO_CHARGES

@<TRIPOS>ATOM
      1 C1          8.1862   -0.8930   20.7850 C.ar      1 UNL1        0.0000
      2 C2          6.8499   -1.1806   21.0625 C.ar      1 UNL1        0.0000
      3 C3          9.2006   -1.5790   21.4531 C.ar      1 UNL1        0.0000
      4 C4          6.5278   -2.1540   22.0082 C.ar      1 UNL1        0.0000
      5 C5          8.8785   -2.5524   22.3988 C.ar      1 UNL1        0.0000
      6 C6          3.6370   -5.3233   23.5949 C.ar      1 UNL1        0.0000
      7 C7          3.7465   -6.2440   22.5529 C.ar      1 UNL1        0.0000
      8 C8          6.0698   -5.6623   22.2905 C.ar      1 UNL1        0.0000
      9 C9          7.5421   -2.8400   22.6763 C.ar      1 UNL1        0.0000
     10 C10         4.7448   -4.5620   24.0067 C.ar      1 UNL1        0.0000
     11 C11         5.9730   -4.7303   23.3387 C.ar      1 UNL1        0.0000
     12 C12         4.9635   -6.4155   21.9027 C.ar      1 UNL1        0.0000
     13 C13         2.5031   -2.1276   27.3626 C.2       1 UNL1        0.0000
     14 C14         5.5383   -1.3598   25.7345 C.2       1 UNL1        0.0000
     15 C15         1.9977   -0.7809   27.8247 C.3       1 UNL1        0.0000
     16 C16         3.2759   -0.0205   28.1572 C.3       1 UNL1        0.0000
     17 C17         4.2427   -1.1050   28.5888 C.3       1 UNL1        0.0000
     18 C18         7.0613   -3.2935   25.1137 C.3       1 UNL1        0.0000
     19 C19         5.1103   -5.5598   26.6143 C.3       1 UNL1        0.0000
     20 C20         4.4675   -4.3511   28.9062 C.3       1 UNL1        0.0000
     21 C21         7.1911   -3.9032   23.7096 C.3       1 UNL1        0.0000
     22 C22         4.5828   -3.5709   25.1471 C.3       1 UNL1        0.0000
     23 C23         4.2855   -4.2758   26.4640 C.3       1 UNL1        0.0000
     24 C24         4.6308   -3.4258   27.7013 C.3       1 UNL1        0.0000
     25 C25         5.0827   -7.3991   20.7884 C.3       1 UNL1        0.0000
     26 C26         6.7686   -0.5299   26.0022 C.3       1 UNL1        0.0000
     27 N1          3.8111   -2.2516   27.8251 N.am      1 UNL1        0.0000
     28 N2          5.7453   -2.6758   25.3104 N.am      1 UNL1        0.0000
     29 O1          1.8389   -2.9442   26.7421 O.2       1 UNL1        0.0000
     30 O2          4.4240   -0.8546   25.8953 O.2       1 UNL1        0.0000
     31 O3          6.4579   -6.0806   28.8182 O.2       1 UNL1        0.0000
     32 O4          4.0804   -6.9413   28.6124 O.2       1 UNL1        0.0000
     33 S1          5.0913   -5.9352   28.3617 S.o2      1 UNL1        0.0000
     34 Cl1         7.2010    0.2363   24.4778 Cl        1 UNL1        0.0000
@<TRIPOS>BOND
     1    1    2 ar
     2    1    3 ar
     3    2    4 ar
     4    3    5 ar
     5    4    9 ar
     6    5    9 ar
     7    6    7 ar
     8    6   10 ar
     9    7   12 ar
    10    8   11 ar
    11    8   12 ar
    12    9   21 1
    13   10   11 ar
    14   10   22 1
    15   11   21 1
    16   12   25 1
    17   13   15 1
    18   13   27 am
    19   13   29 2
    20   14   26 1
    21   14   28 am
    22   14   30 2
    23   15   16 1
    24   16   17 1
    25   17   27 1
    26   18   21 1
    27   18   28 1
    28   19   23 1
    29   19   33 1
    30   20   24 1
    31   20   33 1
    32   22   23 1
    33   22   28 1
    34   23   24 1
    35   24   27 1
    36   26   34 1
    37   31   33 2
    38   32   33 2
@<TRIPOS>MOLECULE
INS-INS-abe-1
   44    48     0     0     0
SMALL
NO_CHARGES

@<TRIPOS>ATOM
      1 C1         13.1129    0.4966   23.4065 C.ar      1 UNL1        0.0000
      2 C2         13.0137   -0.2511   22.2332 C.ar      1 UNL1        0.0000
      3 C3         12.1070    0.4197   24.3698 C.ar      1 UNL1        0.0000
      4 C4          9.7132   -4.2391   25.9154 C.ar      1 UNL1        0.0000
      5 C5         11.9084   -1.0757   22.0230 C.ar      1 UNL1        0.0000
      6 C6         11.0017   -0.4048   24.1596 C.ar      1 UNL1        0.0000
      7 C7         10.1393   -3.4299   24.8616 C.ar      1 UNL1        0.0000
      8 C8          8.3682   -4.5620   26.0418 C.ar      1 UNL1        0.0000
      9 C9          8.8495    1.2072   22.1671 C.ar      1 UNL1        0.0000
     10 C10         6.8420    1.3434   23.9451 C.ar      1 UNL1        0.0000
     11 C11        10.9024   -1.1525   22.9863 C.ar      1 UNL1        0.0000
     12 C12         9.2246   -2.9057   23.9295 C.ar      1 UNL1        0.0000
     13 C13         7.4552   -4.0926   25.1011 C.ar      1 UNL1        0.0000
     14 C14         7.8742   -3.2838   24.0304 C.ar      1 UNL1        0.0000
     15 C15         8.1616    0.0867   22.5862 C.ar      1 UNL1        0.0000
     16 C16         8.4382    2.4022   22.7212 C.ar      1 UNL1        0.0000
     17 C17         6.1682   -6.4471   23.4576 C.2       1 UNL1        0.0000
     18 C18         6.6049   -2.2418   20.6639 C.2       1 UNL1        0.0000
     19 C19         6.3727   -6.8892   19.7572 C.2       1 UNL1        0.0000
     20 C20         8.8777    4.8847   22.7415 C.2       1 UNL1        0.0000
     21 C21         6.8398   -2.8530   23.0251 C.3       1 UNL1        0.0000
     22 C22         5.5329   -5.5628   26.3379 C.3       1 UNL1        0.0000
     23 C23         9.6909   -2.0557   22.7565 C.3       1 UNL1        0.0000
     24 C24         5.9336   -4.5077   25.2729 C.3       1 UNL1        0.0000
     25 C25         8.5440   -1.2855   22.0282 C.3       1 UNL1        0.0000
     26 C26         5.2717   -5.4535   24.2168 C.3       1 UNL1        0.0000
     27 C27         4.4128   -6.0242   25.3819 C.3       1 UNL1        0.0000
     28 C28         6.4883   -8.7245   21.4605 C.3       1 UNL1        0.0000
     29 C29         6.6917   -1.0818   19.7043 C.3       1 UNL1        0.0000
     30 C30         6.7603   -7.2548   21.1817 C.3       1 UNL1        0.0000
     31 N1          7.1489    0.1185   23.4771 N.ar      1 UNL1        0.0000
     32 N2          7.4342    2.5073   23.6163 N.ar      1 UNL1        0.0000
     33 N3          7.3574   -2.1567   21.8441 N.am      1 UNL1        0.0000
     34 N4          7.1269   -7.5503   18.8109 N.am      1 UNL1        0.0000
     35 N5          9.7486    5.7727   22.1246 N.am      1 UNL1        0.0000
     36 N6          9.1078    3.5660   22.3252 N.am      1 UNL1        0.0000
     37 N7          6.0149   -6.4076   22.0848 N.am      1 UNL1        0.0000
     38 O1          6.9276   -7.1765   24.0844 O.2       1 UNL1        0.0000
     39 O2          5.8950   -3.2081   20.3694 O.2       1 UNL1        0.0000
     40 O3          5.5073   -6.0635   19.4759 O.2       1 UNL1        0.0000
     41 O4          8.0312    5.2682   23.5447 O.2       1 UNL1        0.0000
     42 F1          3.2152   -5.4196   25.5618 F         1 UNL1        0.0000
     43 F2          4.1765   -7.3544   25.3522 F         1 UNL1        0.0000
     44 Cl1         8.0449   -1.4182   18.6312 Cl        1 UNL1        0.0000
@<TRIPOS>BOND
     1    1    2 ar
     2    1    3 ar
     3    2    5 ar
     4    3    6 ar
     5    4    7 ar
     6    4    8 ar
     7    5   11 ar
     8    6   11 ar
     9    7   12 ar
    10    8   13 ar
    11    9   15 ar
    12    9   16 ar
    13   10   31 ar
    14   10   32 ar
    15   11   23 1
    16   12   14 ar
    17   12   23 1
    18   13   14 ar
    19   13   24 1
    20   14   21 1
    21   15   25 1
    22   15   31 ar
    23   16   32 ar
    24   16   36 1
    25   17   26 1
    26   17   37 am
    27   17   38 2
    28   18   29 1
    29   18   33 am
    30   18   39 2
    31   19   30 1
    32   19   34 am
    33   19   40 2
    34   20   35 am
    35   20   36 am
    36   20   41 2
    37   21   33 1
    38   22   24 1
    39   22   27 1
    40   23   25 1
    41   24   26 1
    42   25   33 1
    43   26   27 1
    44   27   42 1
    45   27   43 1
    46   28   30 1
    47   29   44 1
    48   30   37 1
@<TRIPOS>MOLECULE
INS-INS-9a4-1
   44    48     0     0     0
SMALL
NO_CHARGES

@<TRIPOS>ATOM
      1 C1         13.1129    0.4966   23.4065 C.ar      1 UNL1        0.0000
      2 C2         13.0137   -0.2511   22.2332 C.ar      1 UNL1        0.0000
      3 C3         12.1070    0.4197   24.3698 C.ar      1 UNL1        0.0000
      4 C4          9.7132   -4.2391   25.9154 C.ar      1 UNL1        0.0000
      5 C5         11.9084   -1.0757   22.0230 C.ar      1 UNL1        0.0000
      6 C6         11.0017   -0.4048   24.1596 C.ar      1 UNL1        0.0000
      7 C7         10.1393   -3.4299   24.8616 C.ar      1 UNL1        0.0000
      8 C8          8.3682   -4.5620   26.0418 C.ar      1 UNL1        0.0000
      9 C9          8.8495    1.2072   22.1671 C.ar      1 UNL1        0.0000
     10 C10         6.8420    1.3434   23.9451 C.ar      1 UNL1        0.0000
     11 C11        10.9024   -1.1525   22.9863 C.ar      1 UNL1        0.0000
     12 C12         9.2246   -2.9057   23.9295 C.ar      1 UNL1        0.0000
     13 C13         7.4552   -4.0926   25.1011 C.ar      1 UNL1        0.0000
     14 C14         7.8742   -3.2838   24.0304 C.ar      1 UNL1        0.0000
     15 C15         8.1616    0.0867   22.5862 C.ar      1 UNL1        0.0000
     16 C16         8.4382    2.4022   22.7212 C.ar      1 UNL1        0.0000
     17 C17         6.1682   -6.4471   23.4576 C.2       1 UNL1        0.0000
     18 C18         6.6049   -2.2418   20.6639 C.2       1 UNL1        0.0000
     19 C19         6.3727   -6.8892   19.7572 C.2       1 UNL1        0.0000
     20 C20         8.8777    4.8847   22.7415 C.2       1 UNL1        0.0000
     21 C21         6.8398   -2.8530   23.0251 C.3       1 UNL1        0.0000
     22 C22         5.5329   -5.5628   26.3379 C.3       1 UNL1        0.0000
     23 C23         9.6909   -2.0557   22.7565 C.3       1 UNL1        0.0000
     24 C24         5.9336   -4.5077   25.2729 C.3       1 UNL1        0.0000
     25 C25         8.5440   -1.2855   22.0282 C.3       1 UNL1        0.0000
     26 C26         5.2717   -5.4535   24.2168 C.3       1 UNL1        0.0000
     27 C27         4.4128   -6.0242   25.3819 C.3       1 UNL1        0.0000
     28 C28         6.4883   -8.7245   21.4605 C.3       1 UNL1        0.0000
     29 C29         6.6917   -1.0818   19.7043 C.3       1 UNL1        0.0000
     30 C30         6.7603   -7.2548   21.1817 C.3       1 UNL1        0.0000
     31 N1          7.1489    0.1185   23.4771 N.ar      1 UNL1        0.0000
     32 N2          7.4342    2.5073   23.6163 N.ar      1 UNL1        0.0000
     33 N3          7.3574   -2.1567   21.8441 N.am      1 UNL1        0.0000
     34 N4          7.1269   -7.5503   18.8109 N.am      1 UNL1        0.0000
     35 N5          9.7486    5.7727   22.1246 N.am      1 UNL1        0.0000
     36 N6          9.1078    3.5660   22.3252 N.am      1 UNL1        0.0000
     37 N7          6.0149   -6.4076   22.0848 N.am      1 UNL1        0.0000
     38 O1          6.9276   -7.1765   24.0844 O.2       1 UNL1        0.0000
     39 O2          5.8950   -3.2081   20.3694 O.2       1 UNL1        0.0000
     40 O3          5.5073   -6.0635   19.4759 O.2       1 UNL1        0.0000
     41 O4          8.0312    5.2682   23.5447 O.2       1 UNL1        0.0000
     42 F1          3.2152   -5.4196   25.5618 F         1 UNL1        0.0000
     43 F2          4.1765   -7.3544   25.3522 F         1 UNL1        0.0000
     44 Cl1         8.0449   -1.4182   18.6312 Cl        1 UNL1        0.0000
@<TRIPOS>BOND
     1    1    2 ar
     2    1    3 ar
     3    2    5 ar
     4    3    6 ar
     5    4    7 ar
     6    4    8 ar
     7    5   11 ar
     8    6   11 ar
     9    7   12 ar
    10    8   13 ar
    11    9   15 ar
    12    9   16 ar
    13   10   31 ar
    14   10   32 ar
    15   11   23 1
    16   12   14 ar
    17   12   23 1
    18   13   14 ar
    19   13   24 1
    20   14   21 1
    21   15   25 1
    22   15   31 ar
    23   16   32 ar
    24   16   36 1
    25   17   26 1
    26   17   37 am
    27   17   38 2
    28   18   29 1
    29   18   33 am
    30   18   39 2
    31   19   30 1
    32   19   34 am
    33   19   40 2
    34   20   35 am
    35   20   36 am
    36   20   41 2
    37   21   33 1
    38   22   24 1
    39   22   27 1
    40   23   25 1
    41   24   26 1
    42   25   33 1
    43   26   27 1
    44   27   42 1
    45   27   43 1
    46   28   30 1
    47   29   44 1
    48   30   37 1
@<TRIPOS>MOLECULE
AVI-UNI-a66-3
   36    38     0     0     0
SMALL
NO_CHARGES

@<TRIPOS>ATOM
      1 C1         14.7052   -1.8182   22.3609 C.ar      1 UNL1        0.0000
      2 C2         13.5917   -2.0500   21.5532 C.ar      1 UNL1        0.0000
      3 C3          9.1389    0.0281   24.4083 C.ar      1 UNL1        0.0000
      4 C4          8.1545   -0.8572   24.8415 C.ar      1 UNL1        0.0000
      5 C5          8.4755   -2.1649   22.8434 C.ar      1 UNL1        0.0000
      6 C6         13.5466    0.0139   23.4058 C.ar      1 UNL1        0.0000
      7 C7          9.4687   -1.2801   22.3820 C.ar      1 UNL1        0.0000
      8 C8         14.6789   -0.7904   23.2946 C.ar      1 UNL1        0.0000
      9 C9         12.4206   -1.2820   21.6797 C.ar      1 UNL1        0.0000
     10 C10         9.7998   -0.1829   23.1885 C.ar      1 UNL1        0.0000
     11 C11        12.4203   -0.2183   22.5988 C.ar      1 UNL1        0.0000
     12 C12         7.8253   -1.9577   24.0605 C.ar      1 UNL1        0.0000
     13 C13        10.0858   -1.5346   21.0596 C.cat     1 UNL1        0.0000
     14 C14        15.8391   -0.5370   24.1341 C.2       1 UNL1        0.0000
     15 C15         7.9385   -1.2947   19.9601 C.2       1 UNL1        0.0000
     16 C16         7.2088   -1.7337   18.7151 C.3       1 UNL1        0.0000
     17 N1         11.3992   -1.5762   20.8155 N.pl3     1 UNL1        0.0000
     18 N2         16.9531   -1.3537   23.9629 N.am      1 UNL1        0.0000
     19 N3          9.2447   -1.7976   20.0565 N.am      1 UNL1        0.0000
     20 O1         15.8359    0.3661   24.9890 O.2       1 UNL1        0.0000
     21 O2          7.4119   -0.5518   20.7872 O.2       1 UNL1        0.0000
     22 S1         11.0777    0.9545   22.7106 S.3       1 UNL1        0.0000
     23 Cl1         6.6155   -3.0609   24.5900 Cl        1 UNL1        0.0000
     24 Cl2         8.1044   -1.1239   17.3147 Cl        1 UNL1        0.0000
     25 H          14.7052   -1.8182   22.3609 H         1 UNL1        0.0000
     26 H          13.5917   -2.0500   21.5532 H         1 UNL1        0.0000
     27 H           9.1389    0.0281   24.4083 H         1 UNL1        0.0000
     28 H           8.1545   -0.8572   24.8415 H         1 UNL1        0.0000
     29 H           8.4755   -2.1649   22.8434 H         1 UNL1        0.0000
     30 H          13.5466    0.0139   23.4058 H         1 UNL1        0.0000
     31 H           7.2088   -1.7337   18.7151 H         1 UNL1        0.0000
     32 H           7.2088   -1.7337   18.7151 H         1 UNL1        0.0000
     33 H          11.3992   -1.5762   20.8155 H         1 UNL1        0.0000
     34 H          16.9531   -1.3537   23.9629 H         1 UNL1        0.0000
     35 H          16.9531   -1.3537   23.9629 H         1 UNL1        0.0000
     36 H           9.2447   -1.7976   20.0565 H         1 UNL1        0.0000
@<TRIPOS>BOND
     1    1    2 ar
     2    1    8 ar
     3    2    9 ar
     4    3    4 ar
     5    3   10 ar
     6    4   12 ar
     7    5    7 ar
     8    5   12 ar
     9    6    8 ar
    10    6   11 ar
    11    7   10 ar
    12    7   13 1
    13    8   14 1
    14    9   11 ar
    15    9   17 1
    16   10   22 1
    17   11   22 1
    18   12   23 1
    19   13   17 2
    20   13   19 1
    21   14   18 am
    22   14   20 2
    23   15   16 1
    24   15   19 am
    25   15   21 2
    26   16   24 1
    27    1   25 1
    28    2   26 1
    29    3   27 1
    30    4   28 1
    31    5   29 1
    32    6   30 1
    33   16   31 1
    34   16   32 1
    35   17   33 1
    36   18   34 1
    37   18   35 1
    38   19   36 1
@<TRIPOS>MOLECULE
WAR-XCH-79d-4
   21    22     0     0     0
SMALL
NO_CHARGES

@<TRIPOS>ATOM
      1 C1          3.6636   -4.9728   25.4659 C.ar      1 UNL1        0.0000
      2 C2          3.3339   -2.5882   25.6710 C.ar      1 UNL1        0.0000
      3 C3          5.0398   -4.7947   25.6074 C.ar      1 UNL1        0.0000
      4 C4          4.7101   -2.4101   25.8125 C.ar      1 UNL1        0.0000
      5 C5          2.8106   -3.8696   25.4977 C.ar      1 UNL1        0.0000
      6 C6          5.5630   -3.5134   25.7807 C.ar      1 UNL1        0.0000
      7 C7          6.8978   -2.6068   19.4162 C.2       1 UNL1        0.0000
      8 C8          8.3073   -1.4791   22.5622 C.3       1 UNL1        0.0000
      9 C9          5.9678   -2.3854   22.8692 C.3       1 UNL1        0.0000
     10 C10         8.4948   -2.4416   21.3887 C.3       1 UNL1        0.0000
     11 C11         6.2060   -3.3189   21.6821 C.3       1 UNL1        0.0000
     12 C12         7.2721   -1.9884   23.5717 C.3       1 UNL1        0.0000
     13 C13         1.3392   -4.0596   25.3457 C.3       1 UNL1        0.0000
     14 C14         7.9926   -2.0635   18.5330 C.3       1 UNL1        0.0000
     15 N1          7.2039   -2.7612   20.7680 N.am      1 UNL1        0.0000
     16 N2          7.8036   -3.0817   24.3525 N.pl3     1 UNL1        0.0000
     17 O1          5.8034   -2.8830   18.9181 O.2       1 UNL1        0.0000
     18 O2          7.5244   -2.0561   26.6968 O.2       1 UNL1        0.0000
     19 O3          7.8456   -4.5390   26.4596 O.2       1 UNL1        0.0000
     20 S1          7.3068   -3.2877   25.9622 S.o2      1 UNL1        0.0000
     21 Cl1         7.7999   -0.3141   18.5098 Cl        1 UNL1        0.0000
@<TRIPOS>BOND
     1    1    3 ar
     2    1    5 ar
     3    2    4 ar
     4    2    5 ar
     5    3    6 ar
     6    4    6 ar
     7    5   13 1
     8    6   20 1
     9    7   14 1
    10    7   15 am
    11    7   17 2
    12    8   10 1
    13    8   12 1
    14    9   11 1
    15    9   12 1
    16   10   15 1
    17   11   15 1
    18   12   16 1
    19   14   21 1
    20   16   20 1
    21   18   20 2
    22   19   20 2
@<TRIPOS>MOLECULE
MAK-UNK-8fd-15
   40    43     0     0     0
SMALL
NO_CHARGES

@<TRIPOS>ATOM
      1 C1          9.9646   -3.9322   25.3091 C.ar      1 UNL1        0.0000
      2 C2         14.1387    0.0700   20.4400 C.ar      1 UNL1        0.0000
      3 C3          9.5801   -2.8371   26.0827 C.ar      1 UNL1        0.0000
      4 C4         10.1502   -3.7844   23.9345 C.ar      1 UNL1        0.0000
      5 C5         13.4401    0.6735   21.4797 C.ar      1 UNL1        0.0000
      6 C6          8.2109    0.3467   22.9172 C.2       1 UNL1        0.0000
      7 C7         14.2093   -1.3136   20.4233 C.ar      1 UNL1        0.0000
      8 C8         12.9703   -1.4894   22.3499 C.ar      1 UNL1        0.0000
      9 C9          9.8536    1.8652   22.6616 C.2       1 UNL1        0.0000
     10 C10         9.5666   -1.4463   24.1072 C.ar      1 UNL1        0.0000
     11 C11         9.3811   -1.5942   25.4817 C.ar      1 UNL1        0.0000
     12 C12         8.5197    1.6326   22.4090 C.2       1 UNL1        0.0000
     13 C13         9.9512   -2.5414   23.3336 C.ar      1 UNL1        0.0000
     14 C14        12.8418   -0.1139   22.4571 C.ar      1 UNL1        0.0000
     15 C15         9.3656   -0.1672   23.4650 C.2       1 UNL1        0.0000
     16 C16         6.6599   -1.1400   25.6853 C.2       1 UNL1        0.0000
     17 C17         4.0542   -5.2153   27.3169 C.2       1 UNL1        0.0000
     18 C18         4.4621   -2.2637   25.3717 C.3       1 UNL1        0.0000
     19 C19         5.3851   -1.8757   27.7085 C.3       1 UNL1        0.0000
     20 C20         4.8569   -3.7334   25.5058 C.3       1 UNL1        0.0000
     21 C21         5.7344   -3.3630   27.7772 C.3       1 UNL1        0.0000
     22 C22         5.2945   -1.3467   26.2735 C.3       1 UNL1        0.0000
     23 C23         9.5085   -0.5418   27.7770 C.3       1 UNL1        0.0000
     24 C24         7.0149    0.8517   27.1526 C.3       1 UNL1        0.0000
     25 C25         8.0337    1.7500   19.4113 C.3       1 UNL1        0.0000
     26 C26         7.5859    2.5539   21.7334 C.3       1 UNL1        0.0000
     27 C27         4.1038   -5.5743   28.7806 C.3       1 UNL1        0.0000
     28 C28         8.9640   -0.4301   26.3545 C.3       1 UNL1        0.0000
     29 N1         13.6411   -2.1117   21.3548 N.ar      1 UNL1        0.0000
     30 N2         10.3575    0.7646   23.3041 N.pl3     1 UNL1        0.0000
     31 N3          4.8504   -4.1461   26.9086 N.am      1 UNL1        0.0000
     32 N4          7.5119   -0.2732   26.3707 N.am      1 UNL1        0.0000
     33 N5          7.9869    2.9083   20.3370 N.4       1 UNL1        0.0000
     34 O1          6.9632   -1.7314   24.6457 O.2       1 UNL1        0.0000
     35 O2          3.3274   -5.8655   26.5612 O.2       1 UNL1        0.0000
     36 O3         11.9180   -0.3291   24.9113 O.2       1 UNL1        0.0000
     37 O4         12.4971    1.9641   23.9738 O.2       1 UNL1        0.0000
     38 F1         10.1341   -2.4172   22.0106 F         1 UNL1        0.0000
     39 S1         11.9422    0.6199   23.7986 S.o2      1 UNL1        0.0000
     40 Cl1         2.9880   -6.9163   29.0082 Cl        1 UNL1        0.0000
@<TRIPOS>BOND
     1    1    3 ar
     2    1    4 ar
     3    2    5 ar
     4    2    7 ar
     5    3   11 ar
     6    4   13 ar
     7    5   14 ar
     8    6   12 1
     9    6   15 2
    10    7   29 ar
    11    8   14 ar
    12    8   29 ar
    13    9   12 2
    14    9   30 1
    15   10   11 ar
    16   10   13 ar
    17   10   15 1
    18   11   28 1
    19   12   26 1
    20   13   38 1
    21   14   39 1
    22   15   30 1
    23   16   22 1
    24   16   32 am
    25   16   34 2
    26   17   27 1
    27   17   31 am
    28   17   35 2
    29   18   20 1
    30   18   22 1
    31   19   21 1
    32   19   22 1
    33   20   31 1
    34   21   31 1
    35   23   28 1
    36   24   32 1
    37   25   33 1
    38   26   33 1
    39   27   40 1
    40   28   32 1
    41   30   39 1
    42   36   39 2
    43   37   39 2
@<TRIPOS>MOLECULE
SIM-SYN-7db-1
   27    29     0     0     0
SMALL
NO_CHARGES

@<TRIPOS>ATOM
      1 C1         12.5051    1.9226   24.6350 C.ar      1 UNL1        0.0000
      2 C2          8.4851   -1.9431   25.9284 C.ar      1 UNL1        0.0000
      3 C3         12.2885    0.5627   24.8573 C.ar      1 UNL1        0.0000
      4 C4         11.9299    2.5488   23.5292 C.ar      1 UNL1        0.0000
      5 C5          9.5137   -2.6130   25.2660 C.ar      1 UNL1        0.0000
      6 C6          7.2387   -1.8015   25.3184 C.ar      1 UNL1        0.0000
      7 C7         11.4968   -0.1710   23.9738 C.ar      1 UNL1        0.0000
      8 C8         11.1382    1.8151   22.6457 C.ar      1 UNL1        0.0000
      9 C9          9.2960   -3.1411   23.9935 C.ar      1 UNL1        0.0000
     10 C10         7.0210   -2.3296   24.0459 C.ar      1 UNL1        0.0000
     11 C11        10.9217    0.4552   22.8680 C.ar      1 UNL1        0.0000
     12 C12         8.0496   -2.9994   23.3834 C.ar      1 UNL1        0.0000
     13 C13        10.0785   -0.3264   21.9270 C.2       1 UNL1        0.0000
     14 C14         5.4025   -2.0910   18.0336 C.2       1 UNL1        0.0000
     15 C15         7.2808    0.8107   19.6697 C.3       1 UNL1        0.0000
     16 C16         6.4223    0.1517   18.5872 C.3       1 UNL1        0.0000
     17 C17         5.9860   -1.5340   20.3703 C.3       1 UNL1        0.0000
     18 C18         8.1990   -0.2293   20.3108 C.3       1 UNL1        0.0000
     19 C19         7.3693   -1.3280   20.9956 C.3       1 UNL1        0.0000
     20 C20         7.8148   -3.5670   22.0146 C.3       1 UNL1        0.0000
     21 C21         5.3032   -1.6084   16.6067 C.3       1 UNL1        0.0000
     22 N1          5.9587   -1.1946   18.9489 N.am      1 UNL1        0.0000
     23 N2          9.1111    0.3920   21.2407 N.am      1 UNL1        0.0000
     24 N3          8.1316   -2.6079   20.9243 N.4       1 UNL1        0.0000
     25 O1         10.2604   -1.5365   21.8219 O.2       1 UNL1        0.0000
     26 O2          5.0087   -3.2238   18.3207 O.2       1 UNL1        0.0000
     27 Cl1         6.8179   -2.0416   15.8219 Cl        1 UNL1        0.0000
@<TRIPOS>BOND
     1    1    3 ar
     2    1    4 ar
     3    2    5 ar
     4    2    6 ar
     5    3    7 ar
     6    4    8 ar
     7    5    9 ar
     8    6   10 ar
     9    7   11 ar
    10    8   11 ar
    11    9   12 ar
    12   10   12 ar
    13   11   13 1
    14   12   20 1
    15   13   23 am
    16   13   25 2
    17   14   21 1
    18   14   22 am
    19   14   26 2
    20   15   16 1
    21   15   18 1
    22   16   22 1
    23   17   19 1
    24   17   22 1
    25   18   19 1
    26   18   23 1
    27   19   24 1
    28   20   24 1
    29   21   27 1
@<TRIPOS>MOLECULE
MAK-UNK-915-1
   30    32     0     0     0
SMALL
NO_CHARGES

@<TRIPOS>ATOM
      1 C1          1.1297   -5.3404   27.0958 C.ar      1 UNL1        0.0000
      2 C2          9.2641   -1.2514   22.4978 C.ar      1 UNL1        0.0000
      3 C3          1.5355   -4.1042   27.5986 C.ar      1 UNL1        0.0000
      4 C4          8.6576   -0.7074   21.3657 C.ar      1 UNL1        0.0000
      5 C5          1.5360   -5.7433   25.8237 C.ar      1 UNL1        0.0000
      6 C6          8.6712   -2.3280   23.1575 C.ar      1 UNL1        0.0000
      7 C7          2.7538   -3.6738   25.5572 C.ar      1 UNL1        0.0000
      8 C8          6.8650   -2.3164   21.5529 C.ar      1 UNL1        0.0000
      9 C9          2.3475   -3.2709   26.8293 C.ar      1 UNL1        0.0000
     10 C10         7.4580   -1.2399   20.8932 C.ar      1 UNL1        0.0000
     11 C11         2.3481   -4.9100   25.0544 C.ar      1 UNL1        0.0000
     12 C12         7.4716   -2.8604   22.6851 C.ar      1 UNL1        0.0000
     13 C13         6.0354   -1.3667   18.8014 C.2       1 UNL1        0.0000
     14 C14         2.7705   -1.9821   27.3533 C.2       1 UNL1        0.0000
     15 C15         5.6848   -4.6032   23.0239 C.2       1 UNL1        0.0000
     16 C16         5.6963   -0.3873   17.7007 C.3       1 UNL1        0.0000
     17 C17         5.9271    0.9628   18.3496 C.3       1 UNL1        0.0000
     18 C18         7.0483    0.6935   19.3313 C.3       1 UNL1        0.0000
     19 C19         2.1460   -0.1876   28.7965 C.3       1 UNL1        0.0000
     20 C20         5.4079   -5.7196   24.0059 C.3       1 UNL1        0.0000
     21 N1          6.8386   -0.6834   19.7352 N.am      1 UNL1        0.0000
     22 N2          6.8791   -3.9372   23.3453 N.am      1 UNL1        0.0000
     23 N3          2.7665   -5.3269   23.7424 N.pl3     1 UNL1        0.0000
     24 O1          5.6836   -2.5370   18.7716 O.2       1 UNL1        0.0000
     25 O2          3.8353   -1.4221   27.0603 O.2       1 UNL1        0.0000
     26 O3          4.9359   -4.3519   22.0859 O.2       1 UNL1        0.0000
     27 O4          3.6735   -7.5157   24.7366 O.2       1 UNL1        0.0000
     28 O5          4.0124   -7.1001   22.2754 O.2       1 UNL1        0.0000
     29 O6          1.8434   -1.4596   28.2134 O.3       1 UNL1        0.0000
     30 S1          3.9251   -6.5942   23.6370 S.o2      1 UNL1        0.0000
@<TRIPOS>BOND
     1    1    3 ar
     2    1    5 ar
     3    2    4 ar
     4    2    6 ar
     5    3    9 ar
     6    4   10 ar
     7    5   11 ar
     8    6   12 ar
     9    7    9 ar
    10    7   11 ar
    11    8   10 ar
    12    8   12 ar
    13    9   14 1
    14   10   21 1
    15   11   23 1
    16   12   22 1
    17   13   16 1
    18   13   21 am
    19   13   24 2
    20   14   25 2
    21   14   29 1
    22   15   20 1
    23   15   22 am
    24   15   26 2
    25   16   17 1
    26   17   18 1
    27   18   21 1
    28   19   29 1
    29   20   30 1
    30   23   30 1
    31   27   30 2
    32   28   30 2
@<TRIPOS>MOLECULE
TOB-UNK-c2a-7
   25    28     0     0     0
SMALL
NO_CHARGES

@<TRIPOS>ATOM
      1 C1         12.0357    0.4777   24.7259 C.ar      1 UNL1        0.0000
      2 C2         10.8659   -0.2776   24.8594 C.ar      1 UNL1        0.0000
      3 C3         11.3164   -1.4762   22.7885 C.ar      1 UNL1        0.0000
      4 C4          8.5522   -2.4837   23.0938 C.2       1 UNL1        0.0000
      5 C5         14.3364    0.1398   21.9910 C.2       1 UNL1        0.0000
      6 C6         12.4951   -0.7264   22.6384 C.ar      1 UNL1        0.0000
      7 C7         12.8225    0.2233   23.6022 C.ar      1 UNL1        0.0000
      8 C8         10.5107   -1.2378   23.9091 C.ar      1 UNL1        0.0000
      9 C9          7.5418   -3.1048   23.7840 C.2       1 UNL1        0.0000
     10 C10         6.4583   -0.1357   19.5230 C.2       1 UNL1        0.0000
     11 C11         5.7070   -1.0756   18.9462 C.2       1 UNL1        0.0000
     12 C12         4.4604   -2.1454   23.0027 C.3       1 UNL1        0.0000
     13 C13         5.0029   -3.3343   23.7915 C.3       1 UNL1        0.0000
     14 C14         4.4247   -2.4406   21.5093 C.3       1 UNL1        0.0000
     15 C15         6.3222   -4.0240   21.7136 C.3       1 UNL1        0.0000
     16 C16         6.3347   -3.8729   23.2429 C.3       1 UNL1        0.0000
     17 N1         13.4471   -0.7641   21.6456 N.2       1 UNL1        0.0000
     18 N2          7.7424   -2.9528   25.1279 N.2       1 UNL1        0.0000
     19 N3          8.8563   -2.2489   25.2973 N.2       1 UNL1        0.0000
     20 N4         14.0046    0.7617   23.1625 N.pl3     1 UNL1        0.0000
     21 N5          9.3402   -1.9684   24.0765 N.pl3     1 UNL1        0.0000
     22 N6          5.7920   -2.8001   21.0431 N.pl3     1 UNL1        0.0000
     23 O1          5.0242   -3.5565   18.7219 O.2       1 UNL1        0.0000
     24 O2          7.4436   -2.9816   19.0940 O.2       1 UNL1        0.0000
     25 S1          6.0373   -2.7268   19.3494 S.o2      1 UNL1        0.0000
@<TRIPOS>BOND
     1    1    2 ar
     2    1    7 ar
     3    2    8 ar
     4    3    6 ar
     5    3    8 ar
     6    4    9 2
     7    4   21 1
     8    5   17 2
     9    5   20 1
    10    6    7 ar
    11    6   17 1
    12    7   20 1
    13    8   21 1
    14    9   16 1
    15    9   18 1
    16   10   11 2
    17   11   25 1
    18   12   13 1
    19   12   14 1
    20   13   16 1
    21   14   22 1
    22   15   16 1
    23   15   22 1
    24   18   19 2
    25   19   21 1
    26   22   25 1
    27   23   25 2
    28   24   25 2
@<TRIPOS>MOLECULE
PED-UNI-b79-2
   39    42     0     0     0
SMALL
NO_CHARGES

@<TRIPOS>ATOM
      1 C1          5.7145   -5.4510   24.4186 C.1       1 UNL1        0.0000
      2 C2          8.0706   -4.8203   24.5954 C.ar      1 UNL1        0.0000
      3 C3          6.8008   -4.1596   22.6490 C.ar      1 UNL1        0.0000
      4 C4          9.1999   -4.1904   24.0725 C.ar      1 UNL1        0.0000
      5 C5          7.9302   -3.5297   22.1261 C.ar      1 UNL1        0.0000
      6 C6          6.3700    0.6290   26.5477 C.ar      1 UNL1        0.0000
      7 C7          7.5579    0.0612   27.0082 C.ar      1 UNL1        0.0000
      8 C8          7.6120    2.4936   25.6432 C.ar      1 UNL1        0.0000
      9 C9          6.8710   -4.8050   23.8836 C.ar      1 UNL1        0.0000
     10 C10         9.1297   -3.5451   22.8379 C.ar      1 UNL1        0.0000
     11 C11         8.7999    1.9257   26.1038 C.ar      1 UNL1        0.0000
     12 C12         6.3971    1.8452   25.8651 C.ar      1 UNL1        0.0000
     13 C13         8.7728    0.7095   26.7864 C.ar      1 UNL1        0.0000
     14 C14         5.6676   -0.5907   20.4550 C.2       1 UNL1        0.0000
     15 C15        11.6966   -0.8068   22.5866 C.2       1 UNL1        0.0000
     16 C16         5.5782    1.7759   21.3838 C.3       1 UNL1        0.0000
     17 C17         4.0878    0.0199   22.2596 C.3       1 UNL1        0.0000
     18 C18         5.9434    2.1799   22.8090 C.3       1 UNL1        0.0000
     19 C19         4.4501    0.4154   23.6867 C.3       1 UNL1        0.0000
     20 C20        12.9504    1.2782   23.0258 C.3       1 UNL1        0.0000
     21 C21        11.0553    0.7459   24.5204 C.3       1 UNL1        0.0000
     22 C22        12.5178    2.7339   23.0819 C.3       1 UNL1        0.0000
     23 C23        10.7194    2.2404   24.5214 C.3       1 UNL1        0.0000
     24 C24        10.0903    2.6568   25.8441 C.3       1 UNL1        0.0000
     25 C25        10.3449   -2.8657   22.2758 C.3       1 UNL1        0.0000
     26 C26         6.7255   -0.1293   19.4847 C.3       1 UNL1        0.0000
     27 N1          4.7749   -5.9758   24.8530 N.1       1 UNL1        0.0000
     28 N2          5.1654    0.3685   21.3327 N.am      1 UNL1        0.0000
     29 N3         11.8359    0.3788   23.3298 N.am      1 UNL1        0.0000
     30 N4          4.8039    1.8666   23.7236 N.pl3     1 UNL1        0.0000
     31 N5         10.6192   -1.6111   22.9400 N.am      1 UNL1        0.0000
     32 O1          5.3019   -1.7687   20.4338 O.2       1 UNL1        0.0000
     33 O2         12.4768   -1.1257   21.6833 O.2       1 UNL1        0.0000
     34 O3          3.8131    2.0476   26.1010 O.2       1 UNL1        0.0000
     35 O4          5.1052    3.9924   25.1546 O.2       1 UNL1        0.0000
     36 O5         11.9051    3.0188   24.3383 O.3       1 UNL1        0.0000
     37 S1          4.9099    2.5556   25.2888 S.o2      1 UNL1        0.0000
     38 Cl1        10.2222   -0.0232   27.3707 Cl        1 UNL1        0.0000
     39 Cl2         5.8827    0.3871   18.0284 Cl        1 UNL1        0.0000
@<TRIPOS>BOND
     1    1    9 1
     2    1   27 3
     3    2    4 ar
     4    2    9 ar
     5    3    5 ar
     6    3    9 ar
     7    4   10 ar
     8    5   10 ar
     9    6    7 ar
    10    6   12 ar
    11    7   13 ar
    12    8   11 ar
    13    8   12 ar
    14   10   25 1
    15   11   13 ar
    16   11   24 1
    17   12   37 1
    18   13   38 1
    19   14   26 1
    20   14   28 am
    21   14   32 2
    22   15   29 am
    23   15   31 am
    24   15   33 2
    25   16   18 1
    26   16   28 1
    27   17   19 1
    28   17   28 1
    29   18   30 1
    30   19   30 1
    31   20   22 1
    32   20   29 1
    33   21   23 1
    34   21   29 1
    35   22   36 1
    36   23   24 1
    37   23   36 1
    38   25   31 1
    39   26   39 1
    40   30   37 1
    41   34   37 2
    42   35   37 2
@<TRIPOS>MOLECULE
BEN-VAN-77c-5
   30    32     0     0     0
SMALL
NO_CHARGES

@<TRIPOS>ATOM
      1 C1          8.0617   -3.7613   26.4872 C.ar      1 UNL1        0.0000
      2 C2          7.3411   -3.8446   25.3010 C.ar      1 UNL1        0.0000
      3 C3          8.6759   -2.6301   21.3772 C.ar      1 UNL1        0.0000
      4 C4          8.9856   -0.3270   20.7165 C.ar      1 UNL1        0.0000
      5 C5          8.5135   -2.5134   26.8853 C.ar      1 UNL1        0.0000
      6 C6          9.4200   -1.4511   21.4189 C.ar      1 UNL1        0.0000
      7 C7          7.4974   -2.6851   20.6330 C.ar      1 UNL1        0.0000
      8 C8          7.0976   -2.6937   24.5597 C.ar      1 UNL1        0.0000
      9 C9          7.8071   -0.3819   19.9723 C.ar      1 UNL1        0.0000
     10 C10         7.0630   -1.5610   19.9306 C.ar      1 UNL1        0.0000
     11 C11         7.5924   -1.4936   25.0442 C.ar      1 UNL1        0.0000
     12 C12        11.6601    2.4904   26.0446 C.2       1 UNL1        0.0000
     13 C13        11.4437    1.3889   25.3225 C.2       1 UNL1        0.0000
     14 C14        12.5700    0.7923   24.5767 C.2       1 UNL1        0.0000
     15 C15        13.3740   -0.4861   22.6327 C.3       1 UNL1        0.0000
     16 C16        10.9633    0.0291   22.7464 C.3       1 UNL1        0.0000
     17 C17        13.0071   -1.8778   22.1434 C.3       1 UNL1        0.0000
     18 C18        10.6982   -1.3909   22.2269 C.3       1 UNL1        0.0000
     19 C19         4.4976   -4.3135   23.4729 C.3       1 UNL1        0.0000
     20 C20         6.7031   -3.9466   20.5905 C.3       1 UNL1        0.0000
     21 C21         5.8296   -3.9910   22.8041 C.3       1 UNL1        0.0000
     22 N1          8.2966   -1.3733   26.1919 N.ar      1 UNL1        0.0000
     23 N2         12.2783    0.1103   23.3982 N.am      1 UNL1        0.0000
     24 N3          6.3802   -2.7748   23.3778 N.pl3     1 UNL1        0.0000
     25 O1         13.7025    0.9388   25.0398 O.2       1 UNL1        0.0000
     26 O2         11.7849   -1.8381   21.4076 O.3       1 UNL1        0.0000
     27 O3          5.5477   -3.8052   21.4080 O.3       1 UNL1        0.0000
     28 F1          7.3902    0.6978   19.2983 F         1 UNL1        0.0000
     29 F2          5.9318   -1.6043   19.2131 F         1 UNL1        0.0000
     30 Cl1         7.3595    0.0006   24.2217 Cl        1 UNL1        0.0000
@<TRIPOS>BOND
     1    1    2 ar
     2    1    5 ar
     3    2    8 ar
     4    3    6 ar
     5    3    7 ar
     6    4    6 ar
     7    4    9 ar
     8    5   22 ar
     9    6   18 1
    10    7   10 ar
    11    7   20 1
    12    8   11 ar
    13    8   24 1
    14    9   10 ar
    15    9   28 1
    16   10   29 1
    17   11   22 ar
    18   11   30 1
    19   12   13 2
    20   13   14 1
    21   14   23 am
    22   14   25 2
    23   15   17 1
    24   15   23 1
    25   16   18 1
    26   16   23 1
    27   17   26 1
    28   18   26 1
    29   19   21 1
    30   20   27 1
    31   21   24 1
    32   21   27 1
@<TRIPOS>MOLECULE
DAV-CRI-f47-3
   34    38     0     0     0
SMALL
NO_CHARGES

@<TRIPOS>ATOM
      1 C1         12.9694   -0.0778   23.3367 C.ar      1 UNL1        0.0000
      2 C2         12.4132   -1.1045   22.5739 C.ar      1 UNL1        0.0000
      3 C3         12.2671    0.4427   24.4237 C.ar      1 UNL1        0.0000
      4 C4         11.1545   -1.6109   22.8980 C.ar      1 UNL1        0.0000
      5 C5         11.0084   -0.0636   24.7478 C.ar      1 UNL1        0.0000
      6 C6          8.1645   -5.0719   22.9007 C.ar      1 UNL1        0.0000
      7 C7          8.8323   -5.9220   23.7820 C.ar      1 UNL1        0.0000
      8 C8          9.6232   -4.0108   25.0176 C.ar      1 UNL1        0.0000
      9 C9         10.4521   -1.0904   23.9850 C.ar      1 UNL1        0.0000
     10 C10         8.2092   -3.6768   23.0681 C.ar      1 UNL1        0.0000
     11 C11         8.9554   -3.1425   24.1362 C.ar      1 UNL1        0.0000
     12 C12         9.5593   -5.3917   24.8420 C.ar      1 UNL1        0.0000
     13 C13         5.5935   -2.6016   19.2976 C.2       1 UNL1        0.0000
     14 C14         7.8216   -0.5404   21.0977 C.2       1 UNL1        0.0000
     15 C15         5.5501   -1.9659   17.9278 C.3       1 UNL1        0.0000
     16 C16         5.6936   -0.4782   18.2255 C.3       1 UNL1        0.0000
     17 C17         5.0671   -0.3192   19.5964 C.3       1 UNL1        0.0000
     18 C18         7.9640   -0.8755   23.6099 C.3       1 UNL1        0.0000
     19 C19         5.5039   -3.1430   23.6378 C.3       1 UNL1        0.0000
     20 C20         3.6953   -2.0625   21.9980 C.3       1 UNL1        0.0000
     21 C21         9.0772   -1.6428   24.3395 C.3       1 UNL1        0.0000
     22 C22         7.4664   -2.7863   22.0860 C.3       1 UNL1        0.0000
     23 C23         5.9591   -2.9815   22.1823 C.3       1 UNL1        0.0000
     24 C24         5.1541   -1.7870   21.6366 C.3       1 UNL1        0.0000
     25 C25         8.0419    0.9343   21.3228 C.3       1 UNL1        0.0000
     26 N1          5.3182   -1.5961   20.2214 N.am      1 UNL1        0.0000
     27 N2          7.7957   -1.3548   22.2337 N.am      1 UNL1        0.0000
     28 O1          5.7899   -3.7892   19.5074 O.2       1 UNL1        0.0000
     29 O2          7.6784   -0.9593   19.9458 O.2       1 UNL1        0.0000
     30 O3          3.4835   -1.7584   24.6100 O.2       1 UNL1        0.0000
     31 O4          3.0231   -4.0412   23.6037 O.2       1 UNL1        0.0000
     32 O5         10.2117   -6.2191   25.7030 O.3       1 UNL1        0.0000
     33 S1          3.7517   -2.7899   23.6297 S.o2      1 UNL1        0.0000
     34 Cl1         9.7830    1.1917   21.3075 Cl        1 UNL1        0.0000
@<TRIPOS>BOND
     1    1    2 ar
     2    1    3 ar
     3    2    4 ar
     4    3    5 ar
     5    4    9 ar
     6    5    9 ar
     7    6    7 ar
     8    6   10 ar
     9    7   12 ar
    10    8   11 ar
    11    8   12 ar
    12    9   21 1
    13   10   11 ar
    14   10   22 1
    15   11   21 1
    16   12   32 1
    17   13   15 1
    18   13   26 am
    19   13   28 2
    20   14   25 1
    21   14   27 am
    22   14   29 2
    23   15   16 1
    24   16   17 1
    25   17   26 1
    26   18   21 1
    27   18   27 1
    28   19   23 1
    29   19   33 1
    30   20   24 1
    31   20   33 1
    32   22   23 1
    33   22   27 1
    34   23   24 1
    35   24   26 1
    36   25   34 1
    37   30   33 2
    38   31   33 2
@<TRIPOS>MOLECULE
INS-INS-68e-1
   42    47     0     0     0
SMALL
NO_CHARGES

@<TRIPOS>ATOM
      1 C1          9.2687   -6.8641   24.3145 C.ar      1 UNL1        0.0000
      2 C2         11.8822   -1.3635   24.7684 C.ar      1 UNL1        0.0000
      3 C3          8.5863   -6.7329   25.5239 C.ar      1 UNL1        0.0000
      4 C4          9.4363   -5.7557   23.4844 C.ar      1 UNL1        0.0000
      5 C5         11.0692   -2.4072   24.3245 C.ar      1 UNL1        0.0000
      6 C6         11.6343   -0.0638   24.3465 C.ar      1 UNL1        0.0000
      7 C7          8.2390   -4.3849   25.0732 C.ar      1 UNL1        0.0000
      8 C8          6.3219   -4.4829   27.5212 C.2       1 UNL1        0.0000
      9 C9          5.4573   -3.4569   23.2016 C.ar      1 UNL1        0.0000
     10 C10         7.6334   -6.1312   28.2555 C.2       1 UNL1        0.0000
     11 C11         5.6597   -1.5761   25.1073 C.ar      1 UNL1        0.0000
     12 C12         8.0715   -5.4933   25.9033 C.ar      1 UNL1        0.0000
     13 C13         7.3687   -5.3594   27.1482 C.2       1 UNL1        0.0000
     14 C14         8.9214   -4.5161   23.8638 C.ar      1 UNL1        0.0000
     15 C15         9.9750   -2.1669   23.4729 C.ar      1 UNL1        0.0000
     16 C16        10.5867    0.1860   23.4638 C.ar      1 UNL1        0.0000
     17 C17         9.7643   -0.8584   23.0053 C.ar      1 UNL1        0.0000
     18 C18         6.5742   -2.6564   23.3286 C.ar      1 UNL1        0.0000
     19 C19         6.0214   -4.7819   28.8298 C.2       1 UNL1        0.0000
     20 C20         4.4513   -3.2278   24.1179 C.ar      1 UNL1        0.0000
     21 C21         7.1514   -1.5694   20.3110 C.2       1 UNL1        0.0000
     22 C22         3.0147   -5.0374   23.1091 C.2       1 UNL1        0.0000
     23 C23         8.6891   -0.5193   22.0066 C.3       1 UNL1        0.0000
     24 C24         9.5770    2.6673   23.9168 C.3       1 UNL1        0.0000
     25 C25        11.5365    2.7043   23.0868 C.3       1 UNL1        0.0000
     26 C26         9.1067   -3.3018   22.9543 C.3       1 UNL1        0.0000
     27 C27        10.3564    1.6935   22.9846 C.3       1 UNL1        0.0000
     28 C28         7.7430   -2.8346   22.3598 C.3       1 UNL1        0.0000
     29 C29        10.9331    3.2082   24.4137 C.3       1 UNL1        0.0000
     30 C30         5.0450   -4.2417   29.7864 C.3       1 UNL1        0.0000
     31 C31         7.1919   -0.2523   19.5745 C.3       1 UNL1        0.0000
     32 N1          6.7094   -1.7027   24.2733 N.ar      1 UNL1        0.0000
     33 N2          4.5194   -2.2923   25.0877 N.ar      1 UNL1        0.0000
     34 N3          7.9036   -1.6486   21.4940 N.am      1 UNL1        0.0000
     35 N4          1.7631   -5.5935   23.3369 N.am      1 UNL1        0.0000
     36 N5          3.2986   -4.0168   24.0273 N.am      1 UNL1        0.0000
     37 O1          6.4802   -2.4966   19.8506 O.2       1 UNL1        0.0000
     38 O2          3.7382   -5.4340   22.1992 O.2       1 UNL1        0.0000
     39 O3          6.8164   -5.7856   29.2848 O.3       1 UNL1        0.0000
     40 F1         11.4176    2.6191   25.5313 F         1 UNL1        0.0000
     41 F2         10.9942    4.5426   24.6175 F         1 UNL1        0.0000
     42 Cl1         5.6594   -0.1063   18.7225 Cl        1 UNL1        0.0000
@<TRIPOS>BOND
     1    1    3 ar
     2    1    4 ar
     3    2    5 ar
     4    2    6 ar
     5    3   12 ar
     6    4   14 ar
     7    5   15 ar
     8    6   16 ar
     9    7   12 ar
    10    7   14 ar
    11    8   13 1
    12    8   19 2
    13    9   18 ar
    14    9   20 ar
    15   10   13 2
    16   10   39 1
    17   11   32 ar
    18   11   33 ar
    19   12   13 1
    20   14   26 1
    21   15   17 ar
    22   15   26 1
    23   16   17 ar
    24   16   27 1
    25   17   23 1
    26   18   28 1
    27   18   32 ar
    28   19   30 1
    29   19   39 1
    30   20   33 ar
    31   20   36 1
    32   21   31 1
    33   21   34 am
    34   21   37 2
    35   22   35 am
    36   22   36 am
    37   22   38 2
    38   23   34 1
    39   24   27 1
    40   24   29 1
    41   25   27 1
    42   25   29 1
    43   26   28 1
    44   28   34 1
    45   29   40 1
    46   29   41 1
    47   31   42 1
@<TRIPOS>MOLECULE
JUA-UNI-bc0-1
   24    25     0     0     0
SMALL
NO_CHARGES

@<TRIPOS>ATOM
      1 C1          7.3697   -2.1294   25.8311 C.ar      1 UNL1        0.0000
      2 C2          7.1253   -0.9992   25.0510 C.ar      1 UNL1        0.0000
      3 C3          8.6587   -2.6567   25.9104 C.ar      1 UNL1        0.0000
      4 C4         13.5656   -1.3715   19.3308 C.2       1 UNL1        0.0000
      5 C5          8.1699   -0.3964   24.3501 C.ar      1 UNL1        0.0000
      6 C6          9.7032   -2.0540   25.2095 C.ar      1 UNL1        0.0000
      7 C7         13.0702   -0.6457   20.4524 C.2       1 UNL1        0.0000
      8 C8         14.7657   -1.9901   19.6038 C.2       1 UNL1        0.0000
      9 C9          9.4588   -0.9238   24.4293 C.ar      1 UNL1        0.0000
     10 C10        13.9106   -0.7376   21.5402 C.2       1 UNL1        0.0000
     11 C11         9.9245   -2.4079   21.9474 C.2       1 UNL1        0.0000
     12 C12        11.3282   -2.3001   22.4332 C.2       1 UNL1        0.0000
     13 C13         8.1393   -1.5397   20.8315 C.2       1 UNL1        0.0000
     14 C14         8.5755   -0.0428   18.8394 C.3       1 UNL1        0.0000
     15 C15        10.5835   -0.2756   23.6749 C.3       1 UNL1        0.0000
     16 C16         7.7021   -0.3108   20.0520 C.3       1 UNL1        0.0000
     17 C17        12.9340   -1.0182   23.8450 C.3       1 UNL1        0.0000
     18 C18        13.7471   -0.1195   22.9098 C.3       1 UNL1        0.0000
     19 N1          9.4411   -1.4254   21.2730 N.2       1 UNL1        0.0000
     20 N2         11.6037   -1.2375   23.2856 N.am      1 UNL1        0.0000
     21 O1         12.0979   -3.1666   22.0375 O.2       1 UNL1        0.0000
     22 O2          7.3873   -2.4936   21.0192 O.2       1 UNL1        0.0000
     23 O3         13.0932    1.1410   22.7605 O.3       1 UNL1        0.0000
     24 S1         15.2904   -1.6954   21.2070 S.3       1 UNL1        0.0000
@<TRIPOS>BOND
     1    1    2 ar
     2    1    3 ar
     3    2    5 ar
     4    3    6 ar
     5    4    7 1
     6    4    8 2
     7    5    9 ar
     8    6    9 ar
     9    7   10 2
    10    8   24 1
    11    9   15 1
    12   10   18 1
    13   10   24 1
    14   11   12 1
    15   11   19 2
    16   12   20 am
    17   12   21 2
    18   13   16 1
    19   13   19 1
    20   13   22 2
    21   14   16 1
    22   15   20 1
    23   17   18 1
    24   17   20 1
    25   18   23 1
@<TRIPOS>MOLECULE
BEN-VAN-77c-6
   30    32     0     0     0
SMALL
NO_CHARGES

@<TRIPOS>ATOM
      1 C1          3.6452   -3.8024   27.1217 C.ar      1 UNL1        0.0000
      2 C2          3.8266   -4.3944   25.8767 C.ar      1 UNL1        0.0000
      3 C3          7.2485   -4.1812   21.1446 C.ar      1 UNL1        0.0000
      4 C4          8.1423   -3.2152   23.6044 C.ar      1 UNL1        0.0000
      5 C5          3.8861   -2.4426   27.2345 C.ar      1 UNL1        0.0000
      6 C6          7.9301   -2.9661   21.2107 C.ar      1 UNL1        0.0000
      7 C7          7.0137   -4.9134   22.3085 C.ar      1 UNL1        0.0000
      8 C8          4.2376   -3.6195   24.7979 C.ar      1 UNL1        0.0000
      9 C9          8.3770   -2.4831   22.4405 C.ar      1 UNL1        0.0000
     10 C10         7.4606   -4.4304   23.5384 C.ar      1 UNL1        0.0000
     11 C11         4.4517   -2.2678   25.0147 C.ar      1 UNL1        0.0000
     12 C12         5.3429    1.8368   19.5175 C.2       1 UNL1        0.0000
     13 C13         6.6268    1.6821   19.1870 C.2       1 UNL1        0.0000
     14 C14         6.9712    0.7887   18.0628 C.2       1 UNL1        0.0000
     15 C15         7.5458   -1.4650   17.2562 C.3       1 UNL1        0.0000
     16 C16         7.0278   -1.2053   19.6550 C.3       1 UNL1        0.0000
     17 C17         8.6808   -2.3968   17.6489 C.3       1 UNL1        0.0000
     18 C18         8.1824   -2.1741   19.9461 C.3       1 UNL1        0.0000
     19 C19         2.7340   -5.8725   23.0012 C.3       1 UNL1        0.0000
     20 C20         6.2843   -6.2122   22.2351 C.3       1 UNL1        0.0000
     21 C21         4.2161   -5.6130   23.2491 C.3       1 UNL1        0.0000
     22 N1          4.2861   -1.6573   26.2094 N.ar      1 UNL1        0.0000
     23 N2          7.2090   -0.5530   18.3503 N.am      1 UNL1        0.0000
     24 N3          4.4190   -4.2074   23.5571 N.pl3     1 UNL1        0.0000
     25 O1          7.0222    1.2836   16.9355 O.2       1 UNL1        0.0000
     26 O2          8.3604   -3.0867   18.8563 O.3       1 UNL1        0.0000
     27 O3          4.8980   -5.9648   22.0350 O.3       1 UNL1        0.0000
     28 F1          9.0316   -1.3157   22.5135 F         1 UNL1        0.0000
     29 F2          7.2384   -5.1254   24.6627 F         1 UNL1        0.0000
     30 Cl1         4.9613   -1.2012   23.7633 Cl        1 UNL1        0.0000
@<TRIPOS>BOND
     1    1    2 ar
     2    1    5 ar
     3    2    8 ar
     4    3    6 ar
     5    3    7 ar
     6    4    9 ar
     7    4   10 ar
     8    5   22 ar
     9    6    9 ar
    10    6   18 1
    11    7   10 ar
    12    7   20 1
    13    8   11 ar
    14    8   24 1
    15    9   28 1
    16   10   29 1
    17   11   22 ar
    18   11   30 1
    19   12   13 2
    20   13   14 1
    21   14   23 am
    22   14   25 2
    23   15   17 1
    24   15   23 1
    25   16   18 1
    26   16   23 1
    27   17   26 1
    28   18   26 1
    29   19   21 1
    30   20   27 1
    31   21   24 1
    32   21   27 1
@<TRIPOS>MOLECULE
ANT-STE-dbb-2
   24    26     0     0     0
SMALL
NO_CHARGES

@<TRIPOS>ATOM
      1 C1         13.2404   -1.0821   21.6780 C.ar      1 UNL1        0.0000
      2 C2         12.0395   -1.4430   22.2889 C.ar      1 UNL1        0.0000
      3 C3         14.1259   -0.2256   22.3323 C.ar      1 UNL1        0.0000
      4 C4         12.6094   -0.0908   24.2082 C.ar      1 UNL1        0.0000
      5 C5          9.8472   -2.4745   23.9995 C.2       1 UNL1        0.0000
      6 C6         11.7240   -0.9474   23.5539 C.ar      1 UNL1        0.0000
      7 C7         13.8104    0.2701   23.5973 C.ar      1 UNL1        0.0000
      8 C8          8.7513   -2.3248   24.8117 C.2       1 UNL1        0.0000
      9 C9          5.7172   -2.8184   19.8787 C.2       1 UNL1        0.0000
     10 C10         6.0491   -4.3917   21.7590 C.3       1 UNL1        0.0000
     11 C11         5.2681   -2.1133   22.2806 C.3       1 UNL1        0.0000
     12 C12         7.1222   -4.2920   22.8333 C.3       1 UNL1        0.0000
     13 C13         6.3290   -1.9799   23.3648 C.3       1 UNL1        0.0000
     14 C14        14.2897    1.5756   25.5265 C.3       1 UNL1        0.0000
     15 C15         7.6212   -3.2796   25.0607 C.3       1 UNL1        0.0000
     16 C16         6.0339   -1.4062   19.4555 C.3       1 UNL1        0.0000
     17 N1          8.7987   -1.1047   25.4269 N.2       1 UNL1        0.0000
     18 N2          9.8999   -0.4840   25.0184 N.2       1 UNL1        0.0000
     19 N3         10.5271   -1.3069   24.1624 N.pl3     1 UNL1        0.0000
     20 N4          5.6901   -3.0680   21.2500 N.am      1 UNL1        0.0000
     21 N5          6.6478   -3.3509   23.9180 N.4       1 UNL1        0.0000
     22 O1          5.5031   -3.6730   19.0151 O.2       1 UNL1        0.0000
     23 O2         14.6746    1.1059   24.2355 O.3       1 UNL1        0.0000
     24 Cl1         7.6173   -1.0237   20.1221 Cl        1 UNL1        0.0000
@<TRIPOS>BOND
     1    1    2 ar
     2    1    3 ar
     3    2    6 ar
     4    3    7 ar
     5    4    6 ar
     6    4    7 ar
     7    5    8 2
     8    5   19 1
     9    6   19 1
    10    7   23 1
    11    8   15 1
    12    8   17 1
    13    9   16 1
    14    9   20 am
    15    9   22 2
    16   10   12 1
    17   10   20 1
    18   11   13 1
    19   11   20 1
    20   12   21 1
    21   13   21 1
    22   14   23 1
    23   15   21 1
    24   16   24 1
    25   17   18 2
    26   18   19 1
@<TRIPOS>MOLECULE
JAN-GHE-bf4-5
   33    36     0     0     0
SMALL
NO_CHARGES

@<TRIPOS>ATOM
      1 C1         12.1793    5.6408   24.6787 C.1       1 UNL1        0.0000
      2 C2          7.8765   -5.8642   21.8870 C.ar      1 UNL1        0.0000
      3 C3          6.5590   -5.7023   22.3155 C.ar      1 UNL1        0.0000
      4 C4         11.0611    3.5050   24.2329 C.ar      1 UNL1        0.0000
      5 C5          8.8294   -4.8878   22.1774 C.ar      1 UNL1        0.0000
      6 C6          9.7033   -1.7101   22.2819 C.ar      1 UNL1        0.0000
      7 C7         10.2375   -2.8435   24.3476 C.ar      1 UNL1        0.0000
      8 C8         10.6814   -0.7535   22.5538 C.ar      1 UNL1        0.0000
      9 C9         11.2156   -1.8869   24.6195 C.ar      1 UNL1        0.0000
     10 C10         6.1943   -4.5639   23.0344 C.ar      1 UNL1        0.0000
     11 C11        11.1306    2.1267   24.0635 C.ar      1 UNL1        0.0000
     12 C12        13.4125    3.5274   24.5897 C.ar      1 UNL1        0.0000
     13 C13        12.2193    4.2261   24.5013 C.ar      1 UNL1        0.0000
     14 C14         9.4814   -2.7551   23.1788 C.ar      1 UNL1        0.0000
     15 C15         8.4647   -3.7494   22.8963 C.ar      1 UNL1        0.0000
     16 C16        11.4375   -0.8419   23.7226 C.ar      1 UNL1        0.0000
     17 C17         7.1472   -3.5874   23.3248 C.ar      1 UNL1        0.0000
     18 C18        12.3726    1.5220   24.1712 C.ar      1 UNL1        0.0000
     19 C19         7.0819    0.8661   17.8486 C.2       1 UNL1        0.0000
     20 C20         6.0821   -0.0045   17.6943 C.2       1 UNL1        0.0000
     21 C21         6.1218   -1.2742   18.4421 C.2       1 UNL1        0.0000
     22 C22         6.1469   -0.0277   20.7210 C.3       1 UNL1        0.0000
     23 C23         6.2581   -2.1596   20.8353 C.3       1 UNL1        0.0000
     24 C24         5.8749   -1.0549   21.8334 C.3       1 UNL1        0.0000
     25 N1         12.1467    6.7919   24.8231 N.1       1 UNL1        0.0000
     26 N2         13.5194    2.1891   24.4310 N.ar      1 UNL1        0.0000
     27 N3          6.1492   -1.1481   19.8006 N.am      1 UNL1        0.0000
     28 N4         12.4265    0.1253   23.9977 N.pl3     1 UNL1        0.0000
     29 N5          6.7115   -0.9447   23.0704 N.pl3     1 UNL1        0.0000
     30 O1          6.1299   -2.3426   17.8358 O.2       1 UNL1        0.0000
     31 O2          5.2519   -2.3671   24.6397 O.2       1 UNL1        0.0000
     32 O3          7.6518   -1.9097   25.2363 O.2       1 UNL1        0.0000
     33 S1          6.6309   -2.1647   24.2381 S.o2      1 UNL1        0.0000
@<TRIPOS>BOND
     1    1   13 1
     2    1   25 3
     3    2    3 ar
     4    2    5 ar
     5    3   10 ar
     6    4   11 ar
     7    4   13 ar
     8    5   15 ar
     9    6    8 ar
    10    6   14 ar
    11    7    9 ar
    12    7   14 ar
    13    8   16 ar
    14    9   16 ar
    15   10   17 ar
    16   11   18 ar
    17   12   13 ar
    18   12   26 ar
    19   14   15 1
    20   15   17 ar
    21   16   28 1
    22   17   33 1
    23   18   26 ar
    24   18   28 1
    25   19   20 2
    26   20   21 1
    27   21   27 am
    28   21   30 2
    29   22   24 1
    30   22   27 1
    31   23   24 1
    32   23   27 1
    33   24   29 1
    34   29   33 1
    35   31   33 2
    36   32   33 2
@<TRIPOS>MOLECULE
GIA-UNK-a79-1
   19    20     0     0     0
SMALL
NO_CHARGES

@<TRIPOS>ATOM
      1 C1          7.2730   -0.4179   28.1879 C.ar      1 UNL1        0.0000
      2 C2          5.9642   -0.8546   28.2096 C.ar      1 UNL1        0.0000
      3 C3          8.1491   -1.1935   27.4564 C.ar      1 UNL1        0.0000
      4 C4          6.4825   -2.6322   26.8910 C.ar      1 UNL1        0.0000
      5 C5          6.5269   -4.0956   20.8050 C.2       1 UNL1        0.0000
      6 C6          5.6912   -5.0335   24.1614 C.3       1 UNL1        0.0000
      7 C7          7.2949   -3.0901   24.2099 C.3       1 UNL1        0.0000
      8 C8          6.3165   -5.4821   22.8433 C.3       1 UNL1        0.0000
      9 C9          7.8886   -3.5776   22.8898 C.3       1 UNL1        0.0000
     10 C10         6.6961   -4.2504   25.0122 C.3       1 UNL1        0.0000
     11 C11         4.9436   -0.0809   28.9748 C.3       1 UNL1        0.0000
     12 C12         9.5861   -0.8009   27.3743 C.3       1 UNL1        0.0000
     13 C13         7.1682   -2.9056   20.1369 C.3       1 UNL1        0.0000
     14 N1          5.5326   -1.9614   27.5701 N.ar      1 UNL1        0.0000
     15 N2          7.7867   -2.3111   26.7932 N.ar      1 UNL1        0.0000
     16 N3          6.8981   -4.3460   22.1257 N.am      1 UNL1        0.0000
     17 N4          6.0755   -3.7723   26.2230 N.pl3     1 UNL1        0.0000
     18 O1          5.7188   -4.7794   20.1713 O.2       1 UNL1        0.0000
     19 Cl1         6.1043   -1.5331   20.4236 Cl        1 UNL1        0.0000
@<TRIPOS>BOND
     1    1    2 ar
     2    1    3 ar
     3    2   11 1
     4    2   14 ar
     5    3   12 1
     6    3   15 ar
     7    4   14 ar
     8    4   15 ar
     9    4   17 1
    10    5   13 1
    11    5   16 am
    12    5   18 2
    13    6    8 1
    14    6   10 1
    15    7    9 1
    16    7   10 1
    17    8   16 1
    18    9   16 1
    19   10   17 1
    20   13   19 1
@<TRIPOS>MOLECULE
MAK-UNK-e4a-8
   31    34     0     0     0
SMALL
NO_CHARGES

@<TRIPOS>ATOM
      1 C1         13.0662    0.0720   23.2058 C.ar      1 UNL1        0.0000
      2 C2         12.1657   -0.9930   23.2296 C.ar      1 UNL1        0.0000
      3 C3         12.6895    1.3153   23.7137 C.ar      1 UNL1        0.0000
      4 C4          5.8005    6.8262   26.9888 C.2       1 UNL1        0.0000
      5 C5         10.5118    0.4287   24.2690 C.ar      1 UNL1        0.0000
      6 C6         11.5611    6.3501   25.6842 C.2       1 UNL1        0.0000
      7 C7          4.8117    6.7833   26.0306 C.2       1 UNL1        0.0000
      8 C8          7.0392    7.1237   25.0447 C.2       1 UNL1        0.0000
      9 C9         10.8885   -0.8147   23.7611 C.ar      1 UNL1        0.0000
     10 C10         7.0909    7.0235   26.4178 C.2       1 UNL1        0.0000
     11 C11        11.4123    1.4936   24.2452 C.ar      1 UNL1        0.0000
     12 C12        11.1162    5.0644   25.4585 C.2       1 UNL1        0.0000
     13 C13         9.5597    6.5348   26.5619 C.2       1 UNL1        0.0000
     14 C14        11.7946    3.9235   24.8198 C.2       1 UNL1        0.0000
     15 C15         5.9666   -2.6465   19.9669 C.2       1 UNL1        0.0000
     16 C16         6.3931   -2.4437   22.3955 C.3       1 UNL1        0.0000
     17 C17         7.6502   -0.9693   20.8727 C.3       1 UNL1        0.0000
     18 C18         7.6770   -2.8285   23.1160 C.3       1 UNL1        0.0000
     19 C19         8.9537   -1.3307   21.5719 C.3       1 UNL1        0.0000
     20 C20         8.3731    7.1118   27.2303 C.3       1 UNL1        0.0000
     21 C21         9.9204   -1.9605   23.7865 C.3       1 UNL1        0.0000
     22 C22         5.7432   -1.8061   18.7350 C.3       1 UNL1        0.0000
     23 N1         10.6698    7.1949   26.3165 N.2       1 UNL1        0.0000
     24 N2          6.6644   -2.0462   21.0140 N.am      1 UNL1        0.0000
     25 N3         11.0360    2.7372   24.7537 N.am      1 UNL1        0.0000
     26 N4          8.6617   -1.6852   23.0129 N.4       1 UNL1        0.0000
     27 O1         12.9511    4.0210   24.4150 O.2       1 UNL1        0.0000
     28 O2          5.5355   -3.8021   19.9948 O.2       1 UNL1        0.0000
     29 S1          5.4399    6.9804   24.4498 S.3       1 UNL1        0.0000
     30 S2          9.5191    4.8943   26.0598 S.3       1 UNL1        0.0000
     31 Cl1         4.7888   -0.4161   19.2398 Cl        1 UNL1        0.0000
@<TRIPOS>BOND
     1    1    2 ar
     2    1    3 ar
     3    2    9 ar
     4    3   11 ar
     5    4    7 2
     6    4   10 1
     7    5    9 ar
     8    5   11 ar
     9    6   12 2
    10    6   23 1
    11    7   29 1
    12    8   10 2
    13    8   29 1
    14    9   21 1
    15   10   20 1
    16   11   25 1
    17   12   14 1
    18   12   30 1
    19   13   20 1
    20   13   23 2
    21   13   30 1
    22   14   25 am
    23   14   27 2
    24   15   22 1
    25   15   24 am
    26   15   28 2
    27   16   18 1
    28   16   24 1
    29   17   19 1
    30   17   24 1
    31   18   26 1
    32   19   26 1
    33   21   26 1
    34   22   31 1
@<TRIPOS>MOLECULE
MAK-UNK-8fd-20
   40    43     0     0     0
SMALL
NO_CHARGES

@<TRIPOS>ATOM
      1 C1          8.0934   -2.7889   22.0081 C.ar      1 UNL1        0.0000
      2 C2          8.8527   -3.2054   20.9147 C.ar      1 UNL1        0.0000
      3 C3         13.7630    0.0423   20.9066 C.ar      1 UNL1        0.0000
      4 C4          8.1101   -1.4501   22.3994 C.ar      1 UNL1        0.0000
      5 C5          9.6288   -2.2832   20.2127 C.ar      1 UNL1        0.0000
      6 C6         12.8858    0.6174   21.8193 C.ar      1 UNL1        0.0000
      7 C7          8.0778    1.8851   21.6973 C.2       1 UNL1        0.0000
      8 C8         13.8807   -1.3383   20.9018 C.ar      1 UNL1        0.0000
      9 C9         12.3526   -1.5640   22.6024 C.ar      1 UNL1        0.0000
     10 C10         9.5475    2.7098   23.1905 C.2       1 UNL1        0.0000
     11 C11         8.8861   -0.5279   21.6974 C.ar      1 UNL1        0.0000
     12 C12         8.4869    3.0556   22.3825 C.2       1 UNL1        0.0000
     13 C13         9.6455   -0.9444   20.6040 C.ar      1 UNL1        0.0000
     14 C14        12.1634   -0.1940   22.6870 C.ar      1 UNL1        0.0000
     15 C15         8.9007    0.8595   22.1076 C.2       1 UNL1        0.0000
     16 C16        10.2979   -0.7407   24.7879 C.2       1 UNL1        0.0000
     17 C17         8.7375   -1.4149   26.5624 C.2       1 UNL1        0.0000
     18 C18         6.6937   -6.1132   28.0196 C.2       1 UNL1        0.0000
     19 C19         9.2661   -3.8406   26.6730 C.3       1 UNL1        0.0000
     20 C20         6.9976   -3.0400   25.8101 C.3       1 UNL1        0.0000
     21 C21         8.5284   -5.1741   26.6574 C.3       1 UNL1        0.0000
     22 C22         6.4736   -3.8007   27.0259 C.3       1 UNL1        0.0000
     23 C23         8.5003   -2.7490   25.9134 C.3       1 UNL1        0.0000
     24 C24         9.3515    1.2697   27.5212 C.3       1 UNL1        0.0000
     25 C25         7.4964    1.1164   25.8239 C.3       1 UNL1        0.0000
     26 C26         6.3890    6.1218   23.2650 C.3       1 UNL1        0.0000
     27 C27         7.8885    4.3984   22.2551 C.3       1 UNL1        0.0000
     28 C28         5.3145   -5.9177   28.6001 C.3       1 UNL1        0.0000
     29 C29         8.9881    0.9552   26.0773 C.3       1 UNL1        0.0000
     30 N1         13.1957   -2.1592   21.7291 N.ar      1 UNL1        0.0000
     31 N2          9.7900    1.3723   23.0154 N.pl3     1 UNL1        0.0000
     32 N3          7.1985   -5.0563   27.2596 N.am      1 UNL1        0.0000
     33 N4          9.3742   -0.4254   25.7752 N.am      1 UNL1        0.0000
     34 N5          7.0366    4.7959   23.4180 N.4       1 UNL1        0.0000
     35 O1          8.3570   -1.2421   27.7241 O.2       1 UNL1        0.0000
     36 O2          7.2985   -7.1675   28.2284 O.2       1 UNL1        0.0000
     37 O3         11.7449    1.3738   24.7595 O.2       1 UNL1        0.0000
     38 F1         10.3967   -0.0701   19.9184 F         1 UNL1        0.0000
     39 S1         11.0539    0.4915   23.8451 S.o       1 UNL1        0.0000
     40 Cl1         5.2508   -6.8700   30.0789 Cl        1 UNL1        0.0000
@<TRIPOS>BOND
     1    1    2 ar
     2    1    4 ar
     3    2    5 ar
     4    3    6 ar
     5    3    8 ar
     6    4   11 ar
     7    5   13 ar
     8    6   14 ar
     9    7   12 1
    10    7   15 2
    11    8   30 ar
    12    9   14 ar
    13    9   30 ar
    14   10   12 2
    15   10   31 1
    16   11   13 ar
    17   11   15 1
    18   12   27 1
    19   13   38 1
    20   14   39 1
    21   15   31 1
    22   16   33 1
    23   16   39 2
    24   17   23 1
    25   17   33 am
    26   17   35 2
    27   18   28 1
    28   18   32 am
    29   18   36 2
    30   19   21 1
    31   19   23 1
    32   20   22 1
    33   20   23 1
    34   21   32 1
    35   22   32 1
    36   24   29 1
    37   25   29 1
    38   26   34 1
    39   27   34 1
    40   28   40 1
    41   29   33 1
    42   31   39 1
    43   37   39 2
@<TRIPOS>MOLECULE
NIM-UNI-ed9-3
   33    35     0     0     0
SMALL
NO_CHARGES

@<TRIPOS>ATOM
      1 C1          6.0323   -0.5122   20.3552 C.ar      1 UNL1        0.0000
      2 C2          5.6972   -0.3267   21.6964 C.ar      1 UNL1        0.0000
      3 C3          7.3252   -0.2302   19.9139 C.ar      1 UNL1        0.0000
      4 C4          6.6548    0.1410   22.5963 C.ar      1 UNL1        0.0000
      5 C5          8.2828    0.2376   20.8139 C.ar      1 UNL1        0.0000
      6 C6          6.9462    5.1605   20.8729 C.ar      1 UNL1        0.0000
      7 C7          5.6555    3.5450   22.1224 C.ar      1 UNL1        0.0000
      8 C8          6.4883    4.6030   19.6791 C.ar      1 UNL1        0.0000
      9 C9          5.1976    2.9875   20.9286 C.ar      1 UNL1        0.0000
     10 C10         6.5299    4.6314   22.0946 C.ar      1 UNL1        0.0000
     11 C11         7.9476    0.4232   22.1551 C.ar      1 UNL1        0.0000
     12 C12         5.6140    3.5166   19.7069 C.ar      1 UNL1        0.0000
     13 C13        13.8588   -1.6126   23.8176 C.2       1 UNL1        0.0000
     14 C14        10.7257    4.8690   23.3380 C.2       1 UNL1        0.0000
     15 C15         8.1703    3.0947   24.0771 C.2       1 UNL1        0.0000
     16 C16        11.8921   -1.4192   22.3290 C.3       1 UNL1        0.0000
     17 C17        12.7936    0.6447   23.3295 C.3       1 UNL1        0.0000
     18 C18        10.4822   -1.0324   22.7511 C.3       1 UNL1        0.0000
     19 C19        11.3961    1.0637   23.7654 C.3       1 UNL1        0.0000
     20 C20        11.6696    5.0621   22.1977 C.3       1 UNL1        0.0000
     21 C21         7.0247    5.2348   23.3862 C.3       1 UNL1        0.0000
     22 C22        14.3683   -1.1539   25.1607 C.3       1 UNL1        0.0000
     23 C23         8.9851    0.9300   23.1291 C.3       1 UNL1        0.0000
     24 C24         8.3199    4.6013   23.9060 C.3       1 UNL1        0.0000
     25 N1         12.8898   -0.8142   23.2117 N.am      1 UNL1        0.0000
     26 N2          8.9727    2.3826   23.1962 N.am      1 UNL1        0.0000
     27 N3          9.3958    4.7886   22.9645 N.am      1 UNL1        0.0000
     28 N4         10.3816    0.4755   22.8103 N.4       1 UNL1        0.0000
     29 O1         14.3080   -2.6506   23.3248 O.2       1 UNL1        0.0000
     30 O2         11.1646    4.7955   24.4797 O.2       1 UNL1        0.0000
     31 O3          7.3924    2.5938   24.8869 O.2       1 UNL1        0.0000
     32 O4          5.1662    2.9736   18.5419 O.3       1 UNL1        0.0000
     33 Cl1        12.9708   -1.0690   26.2273 Cl        1 UNL1        0.0000
@<TRIPOS>BOND
     1    1    2 ar
     2    1    3 ar
     3    2    4 ar
     4    3    5 ar
     5    4   11 ar
     6    5   11 ar
     7    6    8 ar
     8    6   10 ar
     9    7    9 ar
    10    7   10 ar
    11    8   12 ar
    12    9   12 ar
    13   10   21 1
    14   11   23 1
    15   12   32 1
    16   13   22 1
    17   13   25 am
    18   13   29 2
    19   14   20 1
    20   14   27 am
    21   14   30 2
    22   15   24 1
    23   15   26 am
    24   15   31 2
    25   16   18 1
    26   16   25 1
    27   17   19 1
    28   17   25 1
    29   18   28 1
    30   19   28 1
    31   21   24 1
    32   22   33 1
    33   23   26 1
    34   23   28 1
    35   24   27 1
@<TRIPOS>MOLECULE
WAR-XCH-bdd-22
   28    31     0     0     0
SMALL
NO_CHARGES

@<TRIPOS>ATOM
      1 C1          5.3759   -2.7687   21.4950 C.ar      1 UNL1        0.0000
      2 C2          5.3261   -2.1412   20.2450 C.ar      1 UNL1        0.0000
      3 C3          6.4516   -2.5594   22.3557 C.ar      1 UNL1        0.0000
      4 C4         10.6714   -1.0043   24.6211 C.ar      1 UNL1        0.0000
      5 C5          6.6542   -0.5104   18.7020 C.2       1 UNL1        0.0000
      6 C6          9.3969   -2.5783   23.3240 C.ar      1 UNL1        0.0000
      7 C7          9.8317   -0.0117   24.1421 C.ar      1 UNL1        0.0000
      8 C8          7.8574    0.1269   18.9000 C.2       1 UNL1        0.0000
      9 C9          6.3808   -1.2893   19.8611 C.ar      1 UNL1        0.0000
     10 C10         7.5092   -1.7188   21.9965 C.ar      1 UNL1        0.0000
     11 C11        10.4431   -2.3094   24.1994 C.ar      1 UNL1        0.0000
     12 C12         7.4458   -1.0982   20.7439 C.ar      1 UNL1        0.0000
     13 C13         8.6140   -1.5153   22.9033 C.ar      1 UNL1        0.0000
     14 C14         7.2245   -6.7714   28.6665 C.2       1 UNL1        0.0000
     15 C15         9.8638   -4.7700   27.1816 C.3       1 UNL1        0.0000
     16 C16         8.3448   -5.7466   25.4241 C.3       1 UNL1        0.0000
     17 C17         8.6866   -4.7542   28.1553 C.3       1 UNL1        0.0000
     18 C18         7.1989   -5.7089   26.4324 C.3       1 UNL1        0.0000
     19 C19         9.3860   -4.6581   25.7257 C.3       1 UNL1        0.0000
     20 C20         9.5799    0.2538   20.6721 C.3       1 UNL1        0.0000
     21 C21        11.3273   -3.4280   24.6898 C.3       1 UNL1        0.0000
     22 C22         6.8186   -8.0813   28.0394 C.3       1 UNL1        0.0000
     23 C23        10.5639   -4.7497   24.7587 C.3       1 UNL1        0.0000
     24 N1          8.8052   -0.2344   23.2910 N.ar      1 UNL1        0.0000
     25 N2          8.3272   -0.2340   20.1343 N.pl3     1 UNL1        0.0000
     26 N3          7.7063   -5.7881   27.8032 N.am      1 UNL1        0.0000
     27 O1          7.1138   -6.6276   29.8868 O.2       1 UNL1        0.0000
     28 Cl1         5.1064   -7.9466   27.6548 Cl        1 UNL1        0.0000
@<TRIPOS>BOND
     1    1    2 ar
     2    1    3 ar
     3    2    9 ar
     4    3   10 ar
     5    4    7 ar
     6    4   11 ar
     7    5    8 2
     8    5    9 1
     9    6   11 ar
    10    6   13 ar
    11    7   24 ar
    12    8   25 1
    13    9   12 ar
    14   10   12 ar
    15   10   13 1
    16   11   21 1
    17   12   25 1
    18   13   24 ar
    19   14   22 1
    20   14   26 am
    21   14   27 2
    22   15   17 1
    23   15   19 1
    24   16   18 1
    25   16   19 1
    26   17   26 1
    27   18   26 1
    28   19   23 1
    29   20   25 1
    30   21   23 1
    31   22   28 1
@<TRIPOS>MOLECULE
WAR-XCH-bdd-16
   26    29     0     0     0
SMALL
NO_CHARGES

@<TRIPOS>ATOM
      1 C1         12.7123   -1.9798   22.1134 C.ar      1 UNL1        0.0000
      2 C2         13.3261   -2.7490   23.0957 C.ar      1 UNL1        0.0000
      3 C3          6.3202   -5.2963   26.8804 C.ar      1 UNL1        0.0000
      4 C4         11.3238   -1.9580   22.0264 C.ar      1 UNL1        0.0000
      5 C5          7.0444   -4.5236   25.9795 C.ar      1 UNL1        0.0000
      6 C6         12.5507   -3.4943   23.9888 C.ar      1 UNL1        0.0000
      7 C7          6.9071   -6.4572   27.3576 C.ar      1 UNL1        0.0000
      8 C8          8.8132   -6.1069   26.1238 C.ar      1 UNL1        0.0000
      9 C9         10.5511   -2.7102   22.9282 C.ar      1 UNL1        0.0000
     10 C10         8.3155   -4.9297   25.5887 C.ar      1 UNL1        0.0000
     11 C11        11.1594   -3.4909   23.9247 C.ar      1 UNL1        0.0000
     12 C12         9.1597   -2.7321   22.8956 C.ar      1 UNL1        0.0000
     13 C13         9.0898   -4.1515   24.6571 C.ar      1 UNL1        0.0000
     14 C14         5.9258   -2.2737   19.2166 C.2       1 UNL1        0.0000
     15 C15         7.2941    0.2798   21.3010 C.3       1 UNL1        0.0000
     16 C16         8.0964   -0.4961   22.3470 C.3       1 UNL1        0.0000
     17 C17         6.0247   -0.4712   20.9091 C.3       1 UNL1        0.0000
     18 C18         7.0726   -2.6390   21.4593 C.3       1 UNL1        0.0000
     19 C19         8.3772   -1.9323   21.8667 C.3       1 UNL1        0.0000
     20 C20         5.8142   -1.2269   18.1370 C.3       1 UNL1        0.0000
     21 N1          8.1394   -6.8839   27.0012 N.ar      1 UNL1        0.0000
     22 N2         10.4301   -4.2139   24.7924 N.ar      1 UNL1        0.0000
     23 N3          8.3993   -3.4444   23.7483 N.ar      1 UNL1        0.0000
     24 N4          6.3386   -1.8333   20.4735 N.am      1 UNL1        0.0000
     25 O1          5.6516   -3.4465   18.9495 O.2       1 UNL1        0.0000
     26 Cl1         6.1864   -2.0302   16.6157 Cl        1 UNL1        0.0000
@<TRIPOS>BOND
     1    1    2 ar
     2    1    4 ar
     3    2    6 ar
     4    3    5 ar
     5    3    7 ar
     6    4    9 ar
     7    5   10 ar
     8    6   11 ar
     9    7   21 ar
    10    8   10 ar
    11    8   21 ar
    12    9   11 ar
    13    9   12 ar
    14   10   13 1
    15   11   22 ar
    16   12   19 1
    17   12   23 ar
    18   13   22 ar
    19   13   23 ar
    20   14   20 1
    21   14   24 am
    22   14   25 2
    23   15   16 1
    24   15   17 1
    25   16   19 1
    26   17   24 1
    27   18   19 1
    28   18   24 1
    29   20   26 1
@<TRIPOS>MOLECULE
MAK-UNK-8fd-19
   40    43     0     0     0
SMALL
NO_CHARGES

@<TRIPOS>ATOM
      1 C1          6.1807   -0.8464   21.7374 C.ar      1 UNL1        0.0000
      2 C2          6.2181   -0.5737   20.3700 C.ar      1 UNL1        0.0000
      3 C3         12.2352   -1.5945   20.0929 C.ar      1 UNL1        0.0000
      4 C4          7.2758   -0.5309   22.5417 C.ar      1 UNL1        0.0000
      5 C5          7.3506    0.0145   19.8068 C.ar      1 UNL1        0.0000
      6 C6         11.2857   -1.7613   21.0949 C.ar      1 UNL1        0.0000
      7 C7         13.5566   -1.4243   20.4735 C.ar      1 UNL1        0.0000
      8 C8         13.0272   -1.5758   22.7040 C.ar      1 UNL1        0.0000
      9 C9          8.4084    0.0572   21.9786 C.ar      1 UNL1        0.0000
     10 C10         8.4458    0.3299   20.6111 C.ar      1 UNL1        0.0000
     11 C11        11.6810   -1.7529   22.4279 C.ar      1 UNL1        0.0000
     12 C12        10.4345    1.4018   22.6304 C.2       1 UNL1        0.0000
     13 C13        11.2030    0.4347   24.5374 C.2       1 UNL1        0.0000
     14 C14         9.5664    0.3896   22.8358 C.2       1 UNL1        0.0000
     15 C15        11.4387    1.4281   23.6685 C.2       1 UNL1        0.0000
     16 C16         8.4721   -1.3316   25.8034 C.2       1 UNL1        0.0000
     17 C17         5.6847   -4.2979   28.8841 C.2       1 UNL1        0.0000
     18 C18         6.1070   -1.7121   26.4763 C.3       1 UNL1        0.0000
     19 C19         7.9324   -1.5397   28.2375 C.3       1 UNL1        0.0000
     20 C20         6.0986   -3.2241   26.6940 C.3       1 UNL1        0.0000
     21 C21         7.8537   -3.0568   28.4140 C.3       1 UNL1        0.0000
     22 C22         7.4428   -1.0697   26.8639 C.3       1 UNL1        0.0000
     23 C23         9.9781   -0.3255   24.1085 C.3       1 UNL1        0.0000
     24 C24         8.8883    1.4490   26.9104 C.3       1 UNL1        0.0000
     25 C25         7.0683    1.2677   25.1782 C.3       1 UNL1        0.0000
     26 C26        13.1237    4.8570   23.7276 C.3       1 UNL1        0.0000
     27 C27        12.5310    2.4308   23.6959 C.3       1 UNL1        0.0000
     28 C28         4.3607   -4.7235   28.3012 C.3       1 UNL1        0.0000
     29 C29         8.5593    1.1448   25.4561 C.3       1 UNL1        0.0000
     30 N1         13.9785   -1.4106   21.7578 N.ar      1 UNL1        0.0000
     31 N2          6.5226   -3.5545   28.0539 N.am      1 UNL1        0.0000
     32 N3          8.9882   -0.2159   25.1431 N.am      1 UNL1        0.0000
     33 N4         12.0450    3.8330   23.7568 N.4       1 UNL1        0.0000
     34 O1          8.8098   -2.4945   25.5664 O.2       1 UNL1        0.0000
     35 O2          5.9647   -4.6192   30.0419 O.2       1 UNL1        0.0000
     36 O3          9.3810   -2.7005   23.1674 O.2       1 UNL1        0.0000
     37 O4         11.2085   -2.4888   24.8883 O.2       1 UNL1        0.0000
     38 F1          9.5273    0.8950   20.0548 F         1 UNL1        0.0000
     39 S1         10.5013   -1.9622   23.7307 S.o2      1 UNL1        0.0000
     40 Cl1         3.5422   -5.6636   29.5438 Cl        1 UNL1        0.0000
@<TRIPOS>BOND
     1    1    2 ar
     2    1    4 ar
     3    2    5 ar
     4    3    6 ar
     5    3    7 ar
     6    4    9 ar
     7    5   10 ar
     8    6   11 ar
     9    7   30 ar
    10    8   11 ar
    11    8   30 ar
    12    9   10 ar
    13    9   14 1
    14   10   38 1
    15   11   39 1
    16   12   14 2
    17   12   15 1
    18   13   15 2
    19   13   23 1
    20   14   23 1
    21   15   27 1
    22   16   22 1
    23   16   32 am
    24   16   34 2
    25   17   28 1
    26   17   31 am
    27   17   35 2
    28   18   20 1
    29   18   22 1
    30   19   21 1
    31   19   22 1
    32   20   31 1
    33   21   31 1
    34   23   32 1
    35   23   39 1
    36   24   29 1
    37   25   29 1
    38   26   33 1
    39   27   33 1
    40   28   40 1
    41   29   32 1
    42   36   39 2
    43   37   39 2
@<TRIPOS>MOLECULE
WAR-XCH-b03-19
   26    29     0     0     0
SMALL
NO_CHARGES

@<TRIPOS>ATOM
      1 C1          7.1203   -6.3661   26.9566 C.ar      1 UNL1        0.0000
      2 C2          7.1724   -5.8012   28.2260 C.ar      1 UNL1        0.0000
      3 C3          8.6094    2.0555   25.7554 C.ar      1 UNL1        0.0000
      4 C4          7.2151   -5.5466   25.8361 C.ar      1 UNL1        0.0000
      5 C5          8.4818    0.6855   25.5551 C.ar      1 UNL1        0.0000
      6 C6          7.3195   -4.4187   28.3725 C.ar      1 UNL1        0.0000
      7 C7          8.0358    2.6009   26.8927 C.ar      1 UNL1        0.0000
      8 C8          7.2574    0.5549   27.5899 C.ar      1 UNL1        0.0000
      9 C9          7.3629   -4.1573   25.9918 C.ar      1 UNL1        0.0000
     10 C10         7.7943   -0.0863   26.4851 C.ar      1 UNL1        0.0000
     11 C11         7.4170   -3.5750   27.2687 C.ar      1 UNL1        0.0000
     12 C12         7.4636   -3.2826   24.9137 C.ar      1 UNL1        0.0000
     13 C13         7.6448   -1.5070   26.3055 C.ar      1 UNL1        0.0000
     14 C14         5.9914   -2.3701   19.5912 C.2       1 UNL1        0.0000
     15 C15         8.3066   -2.9594   22.5241 C.3       1 UNL1        0.0000
     16 C16         5.9760   -3.9259   22.9642 C.3       1 UNL1        0.0000
     17 C17         7.5096   -2.0509   21.5895 C.3       1 UNL1        0.0000
     18 C18         5.9455   -3.9977   21.4425 C.3       1 UNL1        0.0000
     19 C19         7.4188   -3.7810   23.4839 C.3       1 UNL1        0.0000
     20 C20         5.9824   -0.8836   19.3324 C.3       1 UNL1        0.0000
     21 N1          7.3607    1.8833   27.8184 N.ar      1 UNL1        0.0000
     22 N2          7.5583   -2.2476   27.4292 N.ar      1 UNL1        0.0000
     23 N3          7.6055   -1.9496   25.0384 N.ar      1 UNL1        0.0000
     24 N4          6.4842   -2.7803   20.8316 N.am      1 UNL1        0.0000
     25 O1          5.5782   -3.1417   18.7221 O.2       1 UNL1        0.0000
     26 Cl1         4.9359   -0.1662   20.5522 Cl        1 UNL1        0.0000
@<TRIPOS>BOND
     1    1    2 ar
     2    1    4 ar
     3    2    6 ar
     4    3    5 ar
     5    3    7 ar
     6    4    9 ar
     7    5   10 ar
     8    6   11 ar
     9    7   21 ar
    10    8   10 ar
    11    8   21 ar
    12    9   11 ar
    13    9   12 ar
    14   10   13 1
    15   11   22 ar
    16   12   19 1
    17   12   23 ar
    18   13   22 ar
    19   13   23 ar
    20   14   20 1
    21   14   24 am
    22   14   25 2
    23   15   17 1
    24   15   19 1
    25   16   18 1
    26   16   19 1
    27   17   24 1
    28   18   24 1
    29   20   26 1
@<TRIPOS>MOLECULE
WAR-XCH-bdd-26
   27    30     0     0     0
SMALL
NO_CHARGES

@<TRIPOS>ATOM
      1 C1          7.0750   -0.3742   18.9744 C.ar      1 UNL1        0.0000
      2 C2          5.9796   -3.4144   24.0649 C.2       1 UNL1        0.0000
      3 C3          6.4424   -1.1068   17.9829 C.ar      1 UNL1        0.0000
      4 C4          5.4102   -2.4657   19.5211 C.ar      1 UNL1        0.0000
      5 C5          6.8255   -4.3975   24.6603 C.2       1 UNL1        0.0000
      6 C6          6.8416   -0.7323   20.2975 C.ar      1 UNL1        0.0000
      7 C7          5.9946   -1.7970   20.5846 C.ar      1 UNL1        0.0000
      8 C8          7.8171   -4.8034   23.7873 C.2       1 UNL1        0.0000
      9 C9          6.3559   -3.1192   22.7721 C.2       1 UNL1        0.0000
     10 C10        11.9718   -1.3905   24.3515 C.2       1 UNL1        0.0000
     11 C11         6.7196   -4.9383   26.0526 C.3       1 UNL1        0.0000
     12 C12         8.8534   -5.8412   24.0860 C.3       1 UNL1        0.0000
     13 C13         7.5337   -6.2301   26.2260 C.3       1 UNL1        0.0000
     14 C14         8.9296   -6.1086   25.5976 C.3       1 UNL1        0.0000
     15 C15         9.4440   -1.1391   24.4731 C.3       1 UNL1        0.0000
     16 C16        10.5260   -2.0526   22.4560 C.3       1 UNL1        0.0000
     17 C17         8.6175   -0.1873   23.6190 C.3       1 UNL1        0.0000
     18 C18         9.7174   -1.1141   21.5724 C.3       1 UNL1        0.0000
     19 C19         7.5127    0.0443   21.3917 C.3       1 UNL1        0.0000
     20 C20        12.0546   -0.8635   25.7618 C.3       1 UNL1        0.0000
     21 N1          5.6130   -2.1470   18.2231 N.ar      1 UNL1        0.0000
     22 N2         10.6966   -1.4950   23.7978 N.am      1 UNL1        0.0000
     23 N3          5.7300   -2.1967   21.9065 N.pl3     1 UNL1        0.0000
     24 N4          8.4038   -0.8041   22.2548 N.4       1 UNL1        0.0000
     25 O1         13.0103   -1.6973   23.7606 O.2       1 UNL1        0.0000
     26 S1          7.7247   -4.0218   22.2778 S.3       1 UNL1        0.0000
     27 Cl1        11.9164   -2.2563   26.8290 Cl        1 UNL1        0.0000
@<TRIPOS>BOND
     1    1    3 ar
     2    1    6 ar
     3    2    5 1
     4    2    9 2
     5    3   21 ar
     6    4    7 ar
     7    4   21 ar
     8    5    8 2
     9    5   11 1
    10    6    7 ar
    11    6   19 1
    12    7   23 1
    13    8   12 1
    14    8   26 1
    15    9   23 1
    16    9   26 1
    17   10   20 1
    18   10   22 am
    19   10   25 2
    20   11   13 1
    21   12   14 1
    22   13   14 1
    23   15   17 1
    24   15   22 1
    25   16   18 1
    26   16   22 1
    27   17   24 1
    28   18   24 1
    29   19   24 1
    30   20   27 1
@<TRIPOS>MOLECULE
MAK-UNK-8fd-11
   40    43     0     0     0
SMALL
NO_CHARGES

@<TRIPOS>ATOM
      1 C1          6.0859   -1.1204   27.8553 C.ar      1 UNL1        0.0000
      2 C2          6.8009   -0.1079   28.4949 C.ar      1 UNL1        0.0000
      3 C3          7.9822   -6.7319   25.0605 C.ar      1 UNL1        0.0000
      4 C4          6.3727   -1.4463   26.5296 C.ar      1 UNL1        0.0000
      5 C5          7.8028    0.5788   27.8090 C.ar      1 UNL1        0.0000
      6 C6          8.7129   -5.5947   24.7344 C.ar      1 UNL1        0.0000
      7 C7          7.0925   -0.6054   23.3209 C.2       1 UNL1        0.0000
      8 C8          7.1541   -6.6747   26.1699 C.ar      1 UNL1        0.0000
      9 C9          7.7391   -4.4961   26.6055 C.ar      1 UNL1        0.0000
     10 C10         8.5975   -2.1761   22.7397 C.2       1 UNL1        0.0000
     11 C11         7.3745   -0.7596   25.8437 C.ar      1 UNL1        0.0000
     12 C12         8.0896    0.2529   26.4834 C.ar      1 UNL1        0.0000
     13 C13         7.6907   -1.2757   22.2255 C.2       1 UNL1        0.0000
     14 C14         8.5948   -4.4513   25.5166 C.ar      1 UNL1        0.0000
     15 C15         7.6521   -1.1164   24.4712 C.2       1 UNL1        0.0000
     16 C16        10.9616    2.4621   24.1338 C.2       1 UNL1        0.0000
     17 C17        13.1990   -1.2882   21.4902 C.2       1 UNL1        0.0000
     18 C18        13.0449    1.9938   22.8564 C.3       1 UNL1        0.0000
     19 C19        10.7778    1.3677   21.8914 C.3       1 UNL1        0.0000
     20 C20        13.2675    0.5175   23.1799 C.3       1 UNL1        0.0000
     21 C21        11.0793   -0.0932   22.2283 C.3       1 UNL1        0.0000
     22 C22        11.5597    2.3574   22.7611 C.3       1 UNL1        0.0000
     23 C23         8.7701    3.4601   26.3904 C.3       1 UNL1        0.0000
     24 C24         9.0090    3.7201   23.2113 C.3       1 UNL1        0.0000
     25 C25         5.8273   -1.4597   18.8976 C.3       1 UNL1        0.0000
     26 C26         9.1808    1.0183   25.7739 C.3       1 UNL1        0.0000
     27 C27         7.3974   -1.0520   20.7968 C.3       1 UNL1        0.0000
     28 C28        12.4243   -2.5281   21.1208 C.3       1 UNL1        0.0000
     29 C29         8.7387    2.4084   25.2813 C.3       1 UNL1        0.0000
     30 N1          7.0132   -5.5822   26.9536 N.ar      1 UNL1        0.0000
     31 N2          8.5658   -2.0702   24.1057 N.pl3     1 UNL1        0.0000
     32 N3         12.5251   -0.3343   22.2517 N.am      1 UNL1        0.0000
     33 N4          9.6228    2.8488   24.2052 N.am      1 UNL1        0.0000
     34 N5          6.0961   -1.6347   20.3460 N.4       1 UNL1        0.0000
     35 O1         11.6626    2.2079   25.1168 O.2       1 UNL1        0.0000
     36 O2         14.3671   -1.1720   21.1106 O.2       1 UNL1        0.0000
     37 O3          9.6397   -2.1858   26.3524 O.2       1 UNL1        0.0000
     38 O4         10.6989   -3.4228   24.3976 O.2       1 UNL1        0.0000
     39 S1          9.5108   -2.9815   25.1320 S.o2      1 UNL1        0.0000
     40 Cl1        11.6055   -2.1769   19.6029 Cl        1 UNL1        0.0000
@<TRIPOS>BOND
     1    1    2 ar
     2    1    4 ar
     3    2    5 ar
     4    3    6 ar
     5    3    8 ar
     6    4   11 ar
     7    5   12 ar
     8    6   14 ar
     9    7   13 1
    10    7   15 2
    11    8   30 ar
    12    9   14 ar
    13    9   30 ar
    14   10   13 2
    15   10   31 1
    16   11   12 ar
    17   11   15 1
    18   12   26 1
    19   13   27 1
    20   14   39 1
    21   15   31 1
    22   16   22 1
    23   16   33 am
    24   16   35 2
    25   17   28 1
    26   17   32 am
    27   17   36 2
    28   18   20 1
    29   18   22 1
    30   19   21 1
    31   19   22 1
    32   20   32 1
    33   21   32 1
    34   23   29 1
    35   24   33 1
    36   25   34 1
    37   26   29 1
    38   27   34 1
    39   28   40 1
    40   29   33 1
    41   31   39 1
    42   37   39 2
    43   38   39 2
@<TRIPOS>MOLECULE
JAN-GHE-bf4-6
   33    36     0     0     0
SMALL
NO_CHARGES

@<TRIPOS>ATOM
      1 C1         12.7845    6.0873   24.2738 C.1       1 UNL1        0.0000
      2 C2          7.7802   -5.4705   24.0368 C.ar      1 UNL1        0.0000
      3 C3          6.4848   -5.1276   23.6497 C.ar      1 UNL1        0.0000
      4 C4         11.5387    3.9789   24.1588 C.ar      1 UNL1        0.0000
      5 C5          8.7925   -4.5111   24.0124 C.ar      1 UNL1        0.0000
      6 C6         10.3643   -2.0758   22.4404 C.ar      1 UNL1        0.0000
      7 C7          9.8454   -1.4678   24.7204 C.ar      1 UNL1        0.0000
      8 C8         11.4005   -1.1422   22.4273 C.ar      1 UNL1        0.0000
      9 C9         10.8817   -0.5343   24.7073 C.ar      1 UNL1        0.0000
     10 C10         6.2017   -3.8253   23.2379 C.ar      1 UNL1        0.0000
     11 C11        11.5269    2.6006   23.9758 C.ar      1 UNL1        0.0000
     12 C12        13.8955    3.9487   23.8408 C.ar      1 UNL1        0.0000
     13 C13        12.7414    4.6733   24.0915 C.ar      1 UNL1        0.0000
     14 C14         9.5866   -2.2385   23.5870 C.ar      1 UNL1        0.0000
     15 C15         8.5094   -3.2089   23.6007 C.ar      1 UNL1        0.0000
     16 C16        11.6593   -0.3715   23.5607 C.ar      1 UNL1        0.0000
     17 C17         7.2140   -2.8659   23.2134 C.ar      1 UNL1        0.0000
     18 C18        12.7354    1.9688   23.7301 C.ar      1 UNL1        0.0000
     19 C19         2.9271   -0.1335   16.5008 C.2       1 UNL1        0.0000
     20 C20         3.6027   -0.3341   17.6363 C.2       1 UNL1        0.0000
     21 C21         5.0792   -0.5115   17.6125 C.2       1 UNL1        0.0000
     22 C22         7.3483   -2.0961   20.0305 C.3       1 UNL1        0.0000
     23 C23         7.5833   -0.0092   20.2376 C.3       1 UNL1        0.0000
     24 C24         7.0124   -0.9010   19.1221 C.3       1 UNL1        0.0000
     25 N1         12.8196    7.2377   24.4223 N.1       1 UNL1        0.0000
     26 N2         13.9236    2.6096   23.6577 N.ar      1 UNL1        0.0000
     27 N3          7.6085   -1.1731   21.1855 N.pl3     1 UNL1        0.0000
     28 N4         12.7071    0.5725   23.5476 N.pl3     1 UNL1        0.0000
     29 N5          5.5874   -0.7055   18.8806 N.am      1 UNL1        0.0000
     30 O1          5.7312   -0.4801   16.5737 O.2       1 UNL1        0.0000
     31 O2          5.3639   -1.1953   22.4653 O.2       1 UNL1        0.0000
     32 O3          7.4227   -0.2998   23.6085 O.2       1 UNL1        0.0000
     33 S1          6.8002   -1.2305   22.6824 S.o2      1 UNL1        0.0000
@<TRIPOS>BOND
     1    1   13 1
     2    1   25 3
     3    2    3 ar
     4    2    5 ar
     5    3   10 ar
     6    4   11 ar
     7    4   13 ar
     8    5   15 ar
     9    6    8 ar
    10    6   14 ar
    11    7    9 ar
    12    7   14 ar
    13    8   16 ar
    14    9   16 ar
    15   10   17 ar
    16   11   18 ar
    17   12   13 ar
    18   12   26 ar
    19   14   15 1
    20   15   17 ar
    21   16   28 1
    22   17   33 1
    23   18   26 ar
    24   18   28 1
    25   19   20 2
    26   20   21 1
    27   21   29 am
    28   21   30 2
    29   22   24 1
    30   22   27 1
    31   23   24 1
    32   23   27 1
    33   24   29 1
    34   27   33 1
    35   31   33 2
    36   32   33 2
@<TRIPOS>MOLECULE
TOB-UNK-c2a-5
   26    29     0     0     0
SMALL
NO_CHARGES

@<TRIPOS>ATOM
      1 C1         13.4313   -0.7704   22.1746 C.ar      1 UNL1        0.0000
      2 C2         12.2741   -1.4598   22.5515 C.ar      1 UNL1        0.0000
      3 C3         11.8778    0.0701   24.4036 C.ar      1 UNL1        0.0000
      4 C4          9.8711   -2.8622   23.3630 C.2       1 UNL1        0.0000
      5 C5         14.6768    2.1336   23.8786 C.2       1 UNL1        0.0000
      6 C6         13.0377    0.7745   24.0392 C.ar      1 UNL1        0.0000
      7 C7         13.7788    0.3407   22.9437 C.ar      1 UNL1        0.0000
      8 C8         11.5096   -1.0488   23.6459 C.ar      1 UNL1        0.0000
      9 C9          8.7467   -3.1671   24.0883 C.2       1 UNL1        0.0000
     10 C10         6.2941    0.8001   19.0889 C.2       1 UNL1        0.0000
     11 C11         5.7877   -0.4333   19.1416 C.2       1 UNL1        0.0000
     12 C12         5.3295   -2.4906   21.5534 C.3       1 UNL1        0.0000
     13 C13         6.4542   -4.2958   20.2984 C.3       1 UNL1        0.0000
     14 C14         6.3333   -2.6295   22.6864 C.3       1 UNL1        0.0000
     15 C15         7.4735   -4.4599   21.4142 C.3       1 UNL1        0.0000
     16 C16         7.7658   -4.2843   23.8873 C.3       1 UNL1        0.0000
     17 N1         13.6106    1.8893   24.6071 N.2       1 UNL1        0.0000
     18 N2          8.5979   -2.2659   25.1058 N.2       1 UNL1        0.0000
     19 N3          9.6037   -1.4008   25.0352 N.2       1 UNL1        0.0000
     20 N4         14.8211    1.2283   22.8643 N.pl3     1 UNL1        0.0000
     21 N5         10.3658   -1.7599   23.9895 N.pl3     1 UNL1        0.0000
     22 N6          5.9400   -2.8997   20.2592 N.pl3     1 UNL1        0.0000
     23 N7          6.8403   -4.0536   22.7259 N.4       1 UNL1        0.0000
     24 O1          7.2654   -2.3088   18.1566 O.2       1 UNL1        0.0000
     25 O2          7.9084   -1.2708   20.3548 O.2       1 UNL1        0.0000
     26 S1          6.8851   -1.7397   19.4375 S.o2      1 UNL1        0.0000
@<TRIPOS>BOND
     1    1    2 ar
     2    1    7 ar
     3    2    8 ar
     4    3    6 ar
     5    3    8 ar
     6    4    9 2
     7    4   21 1
     8    5   17 2
     9    5   20 1
    10    6    7 ar
    11    6   17 1
    12    7   20 1
    13    8   21 1
    14    9   16 1
    15    9   18 1
    16   10   11 2
    17   11   26 1
    18   12   14 1
    19   12   22 1
    20   13   15 1
    21   13   22 1
    22   14   23 1
    23   15   23 1
    24   16   23 1
    25   18   19 2
    26   19   21 1
    27   22   26 1
    28   24   26 2
    29   25   26 2
@<TRIPOS>MOLECULE
MAK-UNK-702-9
   43    48     0     0     0
SMALL
NO_CHARGES

@<TRIPOS>ATOM
      1 C1          5.9507   -4.1869   29.5613 C.ar      1 UNL1        0.0000
      2 C2          6.3735    0.1279   17.8136 C.ar      1 UNL1        0.0000
      3 C3          6.1623   -3.5005   28.3657 C.ar      1 UNL1        0.0000
      4 C4          6.5423   -5.4338   29.7638 C.ar      1 UNL1        0.0000
      5 C5          5.1322   -0.2076   18.3540 C.ar      1 UNL1        0.0000
      6 C6          5.0748    1.6778   23.8671 C.ar      1 UNL1        0.0000
      7 C7          7.5219    0.0474   18.6013 C.ar      1 UNL1        0.0000
      8 C8          6.9654   -4.0609   27.3724 C.ar      1 UNL1        0.0000
      9 C9          7.3455   -5.9942   28.7706 C.ar      1 UNL1        0.0000
     10 C10        10.4023   -4.3397   26.3614 C.ar      1 UNL1        0.0000
     11 C11        11.1870   -3.4036   25.6894 C.ar      1 UNL1        0.0000
     12 C12         5.0392   -0.6235   19.6822 C.ar      1 UNL1        0.0000
     13 C13         5.9476    1.7111   22.7853 C.ar      1 UNL1        0.0000
     14 C14         9.7404   -3.5762   23.7657 C.ar      1 UNL1        0.0000
     15 C15         9.4732   -1.5194   20.9154 C.2       1 UNL1        0.0000
     16 C16         5.5799    1.9943   25.1179 C.ar      1 UNL1        0.0000
     17 C17         7.6863    2.3550   24.2747 C.ar      1 UNL1        0.0000
     18 C18        10.2387    0.2011   22.1498 C.2       1 UNL1        0.0000
     19 C19         7.4289   -0.3685   19.9294 C.ar      1 UNL1        0.0000
     20 C20         7.5570   -5.3078   27.5749 C.ar      1 UNL1        0.0000
     21 C21         9.2773   -4.9061   25.7406 C.ar      1 UNL1        0.0000
     22 C22         8.9381   -4.5149   24.4321 C.ar      1 UNL1        0.0000
     23 C23        10.4955   -1.1076   21.8055 C.2       1 UNL1        0.0000
     24 C24        10.8572   -3.0233   24.3918 C.ar      1 UNL1        0.0000
     25 C25         6.1875   -0.7040   20.4699 C.ar      1 UNL1        0.0000
     26 C26         7.2800    2.0552   22.9844 C.ar      1 UNL1        0.0000
     27 C27         8.6228   -0.4497   20.7426 C.2       1 UNL1        0.0000
     28 C28         5.5294   -6.1526   24.3510 C.2       1 UNL1        0.0000
     29 C29         7.7373   -5.0839   23.7155 C.3       1 UNL1        0.0000
     30 C30         7.6126   -6.7841   25.5199 C.3       1 UNL1        0.0000
     31 C31         8.4341   -5.9205   26.4905 C.3       1 UNL1        0.0000
     32 C32        11.6471   -1.9425   22.2862 C.3       1 UNL1        0.0000
     33 C33         4.8960   -5.3782   23.2218 C.3       1 UNL1        0.0000
     34 N1          6.8677    2.3333   25.3504 N.ar      1 UNL1        0.0000
     35 N2          9.0981    0.5907   21.4975 N.pl3     1 UNL1        0.0000
     36 N3          6.9003   -5.9646   24.5406 N.am      1 UNL1        0.0000
     37 N4         11.6521   -2.0785   23.7098 N.pl3     1 UNL1        0.0000
     38 O1          4.8279   -6.8927   25.0449 O.2       1 UNL1        0.0000
     39 O2          7.6651    2.3061   20.3938 O.2       1 UNL1        0.0000
     40 O3          9.4747    3.0504   22.0199 O.2       1 UNL1        0.0000
     41 F1          6.0813   -1.1058   21.7451 F         1 UNL1        0.0000
     42 S1          8.4232    2.1086   21.6288 S.o2      1 UNL1        0.0000
     43 Cl1         4.3316   -3.8593   23.9083 Cl        1 UNL1        0.0000
@<TRIPOS>BOND
     1    1    3 ar
     2    1    4 ar
     3    2    5 ar
     4    2    7 ar
     5    3    8 ar
     6    4    9 ar
     7    5   12 ar
     8    6   13 ar
     9    6   16 ar
    10    7   19 ar
    11    8   20 ar
    12    9   20 ar
    13   10   11 ar
    14   10   21 ar
    15   11   24 ar
    16   12   25 ar
    17   13   26 ar
    18   14   22 ar
    19   14   24 ar
    20   15   23 1
    21   15   27 2
    22   16   34 ar
    23   17   26 ar
    24   17   34 ar
    25   18   23 2
    26   18   35 1
    27   19   25 ar
    28   19   27 1
    29   20   31 1
    30   21   22 ar
    31   21   31 1
    32   22   29 1
    33   23   32 1
    34   24   37 1
    35   25   41 1
    36   26   42 1
    37   27   35 1
    38   28   33 1
    39   28   36 am
    40   28   38 2
    41   29   36 1
    42   30   31 1
    43   30   36 1
    44   32   37 1
    45   33   43 1
    46   35   42 1
    47   39   42 2
    48   40   42 2
@<TRIPOS>MOLECULE
MAK-UNK-702-11
   43    48     0     0     0
SMALL
NO_CHARGES

@<TRIPOS>ATOM
      1 C1          5.2791   -2.6649   21.8966 C.ar      1 UNL1        0.0000
      2 C2          6.2200   -6.5667   26.1505 C.ar      1 UNL1        0.0000
      3 C3          5.6286   -1.7586   22.8976 C.ar      1 UNL1        0.0000
      4 C4          5.8934   -2.5941   20.6462 C.ar      1 UNL1        0.0000
      5 C5          5.2284   -5.7431   26.6834 C.ar      1 UNL1        0.0000
      6 C6         10.8206    1.1573   24.5111 C.ar      1 UNL1        0.0000
      7 C7         10.0782   -0.5154   29.2808 C.ar      1 UNL1        0.0000
      8 C8          7.3807   -6.0058   25.6176 C.ar      1 UNL1        0.0000
      9 C9          6.5923   -0.7815   22.6483 C.ar      1 UNL1        0.0000
     10 C10         6.8571   -1.6170   20.3969 C.ar      1 UNL1        0.0000
     11 C11         9.8332    2.0762   24.1565 C.ar      1 UNL1        0.0000
     12 C12        10.9770   -0.0143   23.7763 C.ar      1 UNL1        0.0000
     13 C13         5.3975   -4.3585   26.6834 C.ar      1 UNL1        0.0000
     14 C14        10.5030   -1.6448   28.5900 C.ar      1 UNL1        0.0000
     15 C15         8.9984   -3.6439   23.7677 C.2       1 UNL1        0.0000
     16 C16         8.7461   -0.4475   29.6560 C.ar      1 UNL1        0.0000
     17 C17         8.2851   -2.4938   28.7188 C.ar      1 UNL1        0.0000
     18 C18        10.8496   -3.2554   24.9892 C.2       1 UNL1        0.0000
     19 C19         7.5497   -4.6212   25.6176 C.ar      1 UNL1        0.0000
     20 C20         7.2066   -0.7106   21.3979 C.ar      1 UNL1        0.0000
     21 C21         8.9882    1.8321   23.0633 C.ar      1 UNL1        0.0000
     22 C22         9.1529    0.6519   22.3148 C.ar      1 UNL1        0.0000
     23 C23        10.3235   -3.1448   23.7211 C.2       1 UNL1        0.0000
     24 C24        10.1485   -0.2670   22.6839 C.ar      1 UNL1        0.0000
     25 C25         6.5581   -3.7975   26.1505 C.ar      1 UNL1        0.0000
     26 C26         9.5956   -2.6575   28.2995 C.ar      1 UNL1        0.0000
     27 C27         8.7550   -4.0441   25.0631 C.2       1 UNL1        0.0000
     28 C28         5.7079    2.8896   21.5045 C.2       1 UNL1        0.0000
     29 C29         7.9316    2.8540   22.7188 C.3       1 UNL1        0.0000
     30 C30         7.6278    1.6445   20.5725 C.3       1 UNL1        0.0000
     31 C31         8.2589    0.3563   21.1249 C.3       1 UNL1        0.0000
     32 C32        11.0262   -2.5964   22.5130 C.3       1 UNL1        0.0000
     33 C33         5.1708    2.9901   20.0983 C.3       1 UNL1        0.0000
     34 N1          7.8354   -1.4111   29.3918 N.ar      1 UNL1        0.0000
     35 N2          9.8871   -3.8030   25.7968 N.pl3     1 UNL1        0.0000
     36 N3          7.0266    2.4486   21.6355 N.am      1 UNL1        0.0000
     37 N4         10.3436   -1.4694   21.9636 N.pl3     1 UNL1        0.0000
     38 O1          4.9824    3.1999   22.4525 O.2       1 UNL1        0.0000
     39 O2         11.5421   -4.2830   27.5982 O.2       1 UNL1        0.0000
     40 O3          9.1681   -5.1716   27.8154 O.2       1 UNL1        0.0000
     41 F1          6.7055   -2.4645   26.1582 F         1 UNL1        0.0000
     42 S1         10.1004   -4.1133   27.4200 S.o2      1 UNL1        0.0000
     43 Cl1         4.4817    1.4181   19.7098 Cl        1 UNL1        0.0000
@<TRIPOS>BOND
     1    1    3 ar
     2    1    4 ar
     3    2    5 ar
     4    2    8 ar
     5    3    9 ar
     6    4   10 ar
     7    5   13 ar
     8    6   11 ar
     9    6   12 ar
    10    7   14 ar
    11    7   16 ar
    12    8   19 ar
    13    9   20 ar
    14   10   20 ar
    15   11   21 ar
    16   12   24 ar
    17   13   25 ar
    18   14   26 ar
    19   15   23 1
    20   15   27 2
    21   16   34 ar
    22   17   26 ar
    23   17   34 ar
    24   18   23 2
    25   18   35 1
    26   19   25 ar
    27   19   27 1
    28   20   31 1
    29   21   22 ar
    30   21   29 1
    31   22   24 ar
    32   22   31 1
    33   23   32 1
    34   24   37 1
    35   25   41 1
    36   26   42 1
    37   27   35 1
    38   28   33 1
    39   28   36 am
    40   28   38 2
    41   29   36 1
    42   30   31 1
    43   30   36 1
    44   32   37 1
    45   33   43 1
    46   35   42 1
    47   39   42 2
    48   40   42 2
@<TRIPOS>MOLECULE
JAN-GHE-bf4-7
   32    34     0     0     0
SMALL
NO_CHARGES

@<TRIPOS>ATOM
      1 C1          4.6899   -3.2368   27.5494 C.1       1 UNL1        0.0000
      2 C2         14.4297    0.9393   23.2062 C.ar      1 UNL1        0.0000
      3 C3          6.7036   -2.1148   28.3841 C.ar      1 UNL1        0.0000
      4 C4         13.1158    1.3374   23.4526 C.ar      1 UNL1        0.0000
      5 C5         14.6819   -0.2627   22.5449 C.ar      1 UNL1        0.0000
      6 C6          7.6828   -1.1390   28.2344 C.ar      1 UNL1        0.0000
      7 C7          5.7332   -1.3806   26.3406 C.ar      1 UNL1        0.0000
      8 C8          5.7067   -2.2445   27.4236 C.ar      1 UNL1        0.0000
      9 C9         12.0541    0.5336   23.0377 C.ar      1 UNL1        0.0000
     10 C10        13.6202   -1.0665   22.1300 C.ar      1 UNL1        0.0000
     11 C11        12.3062   -0.6684   22.3764 C.ar      1 UNL1        0.0000
     12 C12         7.6209   -0.3248   27.1151 C.ar      1 UNL1        0.0000
     13 C13         8.1944   -6.5277   27.9610 C.2       1 UNL1        0.0000
     14 C14         7.9777   -5.4961   27.1394 C.2       1 UNL1        0.0000
     15 C15         8.8375   -5.2934   25.9428 C.2       1 UNL1        0.0000
     16 C16        10.5495   -3.1938   24.2250 C.3       1 UNL1        0.0000
     17 C17         8.7588   -2.3708   23.4948 C.3       1 UNL1        0.0000
     18 C18         9.1388   -3.7697   24.0104 C.3       1 UNL1        0.0000
     19 C19         8.9562    1.5609   24.7211 C.3       1 UNL1        0.0000
     20 C20         8.4769    1.8089   26.1452 C.3       1 UNL1        0.0000
     21 C21        10.4176    1.1339   24.6555 C.3       1 UNL1        0.0000
     22 N1          3.8626   -4.0442   27.6519 N.1       1 UNL1        0.0000
     23 N2          6.6679   -0.4207   26.1610 N.ar      1 UNL1        0.0000
     24 N3         10.2151   -2.0305   23.3318 N.pl3     1 UNL1        0.0000
     25 N4          8.6058    0.6457   26.9800 N.pl3     1 UNL1        0.0000
     26 N5          8.4542   -4.1784   25.2258 N.am      1 UNL1        0.0000
     27 O1          9.7625   -6.0476   25.6591 O.2       1 UNL1        0.0000
     28 O2         10.0987   -0.8878   21.0155 O.2       1 UNL1        0.0000
     29 O3         11.5543   -2.9230   21.3105 O.2       1 UNL1        0.0000
     30 O4         10.7789    0.9424   23.2893 O.3       1 UNL1        0.0000
     31 F1         13.8762   -2.2193   21.4956 F         1 UNL1        0.0000
     32 S1         10.9740   -1.7015   21.8420 S.o2      1 UNL1        0.0000
@<TRIPOS>BOND
     1    1    8 1
     2    1   22 3
     3    2    4 ar
     4    2    5 ar
     5    3    6 ar
     6    3    8 ar
     7    4    9 ar
     8    5   10 ar
     9    6   12 ar
    10    7    8 ar
    11    7   23 ar
    12    9   11 ar
    13    9   30 1
    14   10   11 ar
    15   10   31 1
    16   11   32 1
    17   12   23 ar
    18   12   25 1
    19   13   14 2
    20   14   15 1
    21   15   26 am
    22   15   27 2
    23   16   18 1
    24   16   24 1
    25   17   18 1
    26   17   24 1
    27   18   26 1
    28   19   20 1
    29   19   21 1
    30   20   25 1
    31   21   30 1
    32   24   32 1
    33   28   32 2
    34   29   32 2
@<TRIPOS>MOLECULE
MAK-UNK-8fd-30
   40    43     0     0     0
SMALL
NO_CHARGES

@<TRIPOS>ATOM
      1 C1          4.6464    0.7534   25.6036 C.ar      1 UNL1        0.0000
      2 C2          9.2463   -0.4093   22.2266 C.ar      1 UNL1        0.0000
      3 C3          7.9499   -0.8189   22.5384 C.ar      1 UNL1        0.0000
      4 C4          5.9807    0.4038   25.7793 C.ar      1 UNL1        0.0000
      5 C5         10.0692   -1.4945   24.2222 C.ar      1 UNL1        0.0000
      6 C6          8.5429   -4.0444   25.8844 C.2       1 UNL1        0.0000
      7 C7          3.7989    0.6464   26.6945 C.ar      1 UNL1        0.0000
      8 C8          5.4935   -0.1075   28.0503 C.ar      1 UNL1        0.0000
      9 C9          8.0686   -3.1088   27.8768 C.2       1 UNL1        0.0000
     10 C10         8.7728   -1.9040   24.5341 C.ar      1 UNL1        0.0000
     11 C11         8.2495   -4.3183   27.2431 C.2       1 UNL1        0.0000
     12 C12        10.3060   -0.7471   23.0685 C.ar      1 UNL1        0.0000
     13 C13         7.7132   -1.5662   23.6922 C.ar      1 UNL1        0.0000
     14 C14         6.4204   -0.0360   27.0229 C.ar      1 UNL1        0.0000
     15 C15         8.5325   -2.6758   25.7292 C.2       1 UNL1        0.0000
     16 C16        12.3905    0.5043   23.6161 C.2       1 UNL1        0.0000
     17 C17        12.5911    5.6003   23.8402 C.2       1 UNL1        0.0000
     18 C18        12.5442    2.3471   25.2811 C.3       1 UNL1        0.0000
     19 C19        10.8504    2.4629   23.3888 C.3       1 UNL1        0.0000
     20 C20        13.3968    3.3632   24.5233 C.3       1 UNL1        0.0000
     21 C21        11.7478    3.4907   22.6982 C.3       1 UNL1        0.0000
     22 C22        11.6146    1.5541   24.3570 C.3       1 UNL1        0.0000
     23 C23        13.4872   -1.6643   21.8652 C.3       1 UNL1        0.0000
     24 C24        12.5497    0.2760   20.5605 C.3       1 UNL1        0.0000
     25 C25         6.7390   -7.2664   29.1427 C.3       1 UNL1        0.0000
     26 C26         8.1547   -5.6526   27.8660 C.3       1 UNL1        0.0000
     27 C27        11.6963    6.4059   22.9324 C.3       1 UNL1        0.0000
     28 C28        12.2381   -0.8700   21.5119 C.3       1 UNL1        0.0000
     29 N1          4.1894    0.2234   27.9177 N.ar      1 UNL1        0.0000
     30 N2          8.2433   -2.1173   26.9469 N.pl3     1 UNL1        0.0000
     31 N3         12.5601    4.2157   23.6798 N.am      1 UNL1        0.0000
     32 N4         11.6523   -0.3202   22.7441 N.am      1 UNL1        0.0000
     33 N5          6.8175   -5.9483   28.4665 N.4       1 UNL1        0.0000
     34 O1         13.6103    0.4564   23.7939 O.2       1 UNL1        0.0000
     35 O2         13.2943    6.1859   24.6678 O.2       1 UNL1        0.0000
     36 O3          8.9345    0.1826   26.2784 O.2       1 UNL1        0.0000
     37 O4          8.3729   -0.2934   28.7137 O.2       1 UNL1        0.0000
     38 F1          6.4612   -1.9526   23.9782 F         1 UNL1        0.0000
     39 S1          8.1150   -0.4908   27.2854 S.o2      1 UNL1        0.0000
     40 Cl1        10.1421    6.5406   23.7473 Cl        1 UNL1        0.0000
@<TRIPOS>BOND
     1    1    4 ar
     2    1    7 ar
     3    2    3 ar
     4    2   12 ar
     5    3   13 ar
     6    4   14 ar
     7    5   10 ar
     8    5   12 ar
     9    6   11 1
    10    6   15 2
    11    7   29 ar
    12    8   14 ar
    13    8   29 ar
    14    9   11 2
    15    9   30 1
    16   10   13 ar
    17   10   15 1
    18   11   26 1
    19   12   32 1
    20   13   38 1
    21   14   39 1
    22   15   30 1
    23   16   22 1
    24   16   32 am
    25   16   34 2
    26   17   27 1
    27   17   31 am
    28   17   35 2
    29   18   20 1
    30   18   22 1
    31   19   21 1
    32   19   22 1
    33   20   31 1
    34   21   31 1
    35   23   28 1
    36   24   28 1
    37   25   33 1
    38   26   33 1
    39   27   40 1
    40   28   32 1
    41   30   39 1
    42   36   39 2
    43   37   39 2
@<TRIPOS>MOLECULE
WAR-XCH-bdd-32
   27    30     0     0     0
SMALL
NO_CHARGES

@<TRIPOS>ATOM
      1 C1          9.1233   -3.4847   23.9321 C.2       1 UNL1        0.0000
      2 C2          8.8547   -4.4265   24.9703 C.2       1 UNL1        0.0000
      3 C3          8.1379   -3.8484   26.0008 C.2       1 UNL1        0.0000
      4 C4          8.5988   -2.2408   24.2102 C.2       1 UNL1        0.0000
      5 C5          5.9170   -2.2487   18.8545 C.2       1 UNL1        0.0000
      6 C6          9.2899   -5.8587   25.0083 C.3       1 UNL1        0.0000
      7 C7          7.6705   -4.5633   27.2298 C.3       1 UNL1        0.0000
      8 C8          8.5154   -6.6617   26.0652 C.3       1 UNL1        0.0000
      9 C9          8.4145   -5.8982   27.3939 C.3       1 UNL1        0.0000
     10 C10         9.4388    0.9306   24.5300 C.3       1 UNL1        0.0000
     11 C11        11.0583   -0.9317   23.9799 C.3       1 UNL1        0.0000
     12 C12        10.6115    1.8895   24.7375 C.3       1 UNL1        0.0000
     13 C13        12.2316    0.0266   24.1892 C.3       1 UNL1        0.0000
     14 C14         8.3307   -0.7122   21.0125 C.3       1 UNL1        0.0000
     15 C15         6.5887   -1.8850   22.4057 C.3       1 UNL1        0.0000
     16 C16         7.2758   -0.4847   19.9330 C.3       1 UNL1        0.0000
     17 C17         5.5678   -1.6342   21.2977 C.3       1 UNL1        0.0000
     18 C18         9.7927   -0.1874   23.5469 C.3       1 UNL1        0.0000
     19 C19         7.6891   -0.8184   22.3995 C.3       1 UNL1        0.0000
     20 C20        11.8867    1.1575   25.1578 C.3       1 UNL1        0.0000
     21 C21         6.1053   -1.5565   17.5281 C.3       1 UNL1        0.0000
     22 N1          6.2330   -1.5107   19.9948 N.am      1 UNL1        0.0000
     23 N2          8.6862   -1.1022   23.4020 N.pl3     1 UNL1        0.0000
     24 O1          5.4994   -3.4094   18.8745 O.2       1 UNL1        0.0000
     25 O2         11.7200    0.6073   26.4627 O.3       1 UNL1        0.0000
     26 S1          7.7868   -2.2068   25.7175 S.3       1 UNL1        0.0000
     27 Cl1         5.0342   -0.1599   17.5323 Cl        1 UNL1        0.0000
@<TRIPOS>BOND
     1    1    2 1
     2    1    4 2
     3    2    3 2
     4    2    6 1
     5    3    7 1
     6    3   26 1
     7    4   23 1
     8    4   26 1
     9    5   21 1
    10    5   22 am
    11    5   24 2
    12    6    8 1
    13    7    9 1
    14    8    9 1
    15   10   12 1
    16   10   18 1
    17   11   13 1
    18   11   18 1
    19   12   20 1
    20   13   20 1
    21   14   16 1
    22   14   19 1
    23   15   17 1
    24   15   19 1
    25   16   22 1
    26   17   22 1
    27   18   23 1
    28   19   23 1
    29   20   25 1
    30   21   27 1
@<TRIPOS>MOLECULE
FAR-UNI-956-1
   39    43     0     0     0
SMALL
NO_CHARGES

@<TRIPOS>ATOM
      1 C1          6.9589   -2.2483   18.4206 C.ar      1 UNL1        0.0000
      2 C2          6.1189    0.0057   18.6466 C.ar      1 UNL1        0.0000
      3 C3         10.8024    0.4813   21.6335 C.ar      1 UNL1        0.0000
      4 C4         10.2154    0.0617   23.9393 C.ar      1 UNL1        0.0000
      5 C5          7.4798   -2.1837   19.7129 C.ar      1 UNL1        0.0000
      6 C6          6.6397    0.0703   19.9389 C.ar      1 UNL1        0.0000
      7 C7         12.1554    0.4301   21.9686 C.ar      1 UNL1        0.0000
      8 C8         11.5684    0.0104   24.2744 C.ar      1 UNL1        0.0000
      9 C9          6.2785   -1.1535   17.8874 C.ar      1 UNL1        0.0000
     10 C10         9.8323    0.2971   22.6188 C.ar      1 UNL1        0.0000
     11 C11         7.3202   -1.0244   20.4721 C.ar      1 UNL1        0.0000
     12 C12        12.5384    0.1946   23.2890 C.ar      1 UNL1        0.0000
     13 C13         6.8636   -5.3720   21.3043 C.2       1 UNL1        0.0000
     14 C14         7.9796   -2.1098   22.6165 C.2       1 UNL1        0.0000
     15 C15         7.5112    0.8231   23.4259 C.2       1 UNL1        0.0000
     16 C16         7.4649   -6.4846   22.1819 C.3       1 UNL1        0.0000
     17 C17         8.5695    4.7854   25.7214 C.3       1 UNL1        0.0000
     18 C18         8.6100    3.2897   26.0234 C.3       1 UNL1        0.0000
     19 C19         7.9744    5.0729   24.3456 C.3       1 UNL1        0.0000
     20 C20         7.2341    2.6440   25.8539 C.3       1 UNL1        0.0000
     21 C21         6.5997    4.4233   24.1803 C.3       1 UNL1        0.0000
     22 C22         6.8717   -3.1404   22.4837 C.3       1 UNL1        0.0000
     23 C23         6.6131    2.9179   24.4776 C.3       1 UNL1        0.0000
     24 C24         8.0040   -5.3481   23.0642 C.3       1 UNL1        0.0000
     25 C25         6.1374   -3.4405   23.8071 C.3       1 UNL1        0.0000
     26 C26         5.7216   -1.2227   16.5056 C.3       1 UNL1        0.0000
     27 C27         6.0793   -2.2610   24.7849 C.3       1 UNL1        0.0000
     28 C28         4.6966   -3.9135   23.5337 C.3       1 UNL1        0.0000
     29 C29         8.3666    0.3520   22.2559 C.3       1 UNL1        0.0000
     30 N1          7.4338   -4.4156   22.0867 N.am      1 UNL1        0.0000
     31 N2          7.3530    2.2020   23.4361 N.am      1 UNL1        0.0000
     32 N3          7.8610   -0.9571   21.8149 N.am      1 UNL1        0.0000
     33 O1          6.0989   -5.3221   20.3680 O.2       1 UNL1        0.0000
     34 O2          8.8798   -2.3327   23.4300 O.2       1 UNL1        0.0000
     35 O3          7.0583    0.0550   24.2724 O.2       1 UNL1        0.0000
     36 O4          8.0722   -4.2860   25.4750 O.2       1 UNL1        0.0000
     37 O5          6.2081   -5.8869   24.9546 O.2       1 UNL1        0.0000
     38 O6         13.8587    0.1434   23.6156 O.3       1 UNL1        0.0000
     39 S1          7.1134   -4.8349   24.5333 S.o2      1 UNL1        0.0000
@<TRIPOS>BOND
     1    1    5 ar
     2    1    9 ar
     3    2    6 ar
     4    2    9 ar
     5    3    7 ar
     6    3   10 ar
     7    4    8 ar
     8    4   10 ar
     9    5   11 ar
    10    6   11 ar
    11    7   12 ar
    12    8   12 ar
    13    9   26 1
    14   10   29 1
    15   11   32 1
    16   12   38 1
    17   13   16 1
    18   13   30 am
    19   13   33 2
    20   14   22 1
    21   14   32 am
    22   14   34 2
    23   15   29 1
    24   15   31 am
    25   15   35 2
    26   16   24 1
    27   17   18 1
    28   17   19 1
    29   18   20 1
    30   19   21 1
    31   20   23 1
    32   21   23 1
    33   22   25 1
    34   22   30 1
    35   23   31 1
    36   24   30 1
    37   24   39 1
    38   25   27 1
    39   25   28 1
    40   25   39 1
    41   29   32 1
    42   36   39 2
    43   37   39 2
@<TRIPOS>MOLECULE
MAK-UNK-8fd-2
   40    43     0     0     0
SMALL
NO_CHARGES

@<TRIPOS>ATOM
      1 C1         12.6339    0.2289   19.1929 C.ar      1 UNL1        0.0000
      2 C2         13.7062   -0.6585   19.1022 C.ar      1 UNL1        0.0000
      3 C3          6.3553   -0.6504   20.9427 C.ar      1 UNL1        0.0000
      4 C4         11.9675    0.3959   20.4069 C.ar      1 UNL1        0.0000
      5 C5         14.1122   -1.3789   20.2255 C.ar      1 UNL1        0.0000
      6 C6          7.3207   -1.2385   21.7524 C.ar      1 UNL1        0.0000
      7 C7         11.9447    0.7497   23.7969 C.2       1 UNL1        0.0000
      8 C8          6.7400   -0.2198   19.6831 C.ar      1 UNL1        0.0000
      9 C9          8.9058   -0.9132   20.0095 C.ar      1 UNL1        0.0000
     10 C10        10.1665   -0.4916   24.4025 C.2       1 UNL1        0.0000
     11 C11        12.3735   -0.3246   21.5302 C.ar      1 UNL1        0.0000
     12 C12        10.9879    0.5327   24.8189 C.2       1 UNL1        0.0000
     13 C13        13.4459   -1.2120   21.4395 C.ar      1 UNL1        0.0000
     14 C14         8.6227   -1.3761   21.2844 C.ar      1 UNL1        0.0000
     15 C15        11.6787   -0.1485   22.7870 C.2       1 UNL1        0.0000
     16 C16         7.5227   -0.0742   26.0462 C.2       1 UNL1        0.0000
     17 C17         3.9509   -3.7171   25.8696 C.2       1 UNL1        0.0000
     18 C18         5.4760   -0.8145   27.2521 C.3       1 UNL1        0.0000
     19 C19         7.2724   -2.4973   26.6164 C.3       1 UNL1        0.0000
     20 C20         4.6276   -1.3486   26.0994 C.3       1 UNL1        0.0000
     21 C21         6.3592   -2.9923   25.4940 C.3       1 UNL1        0.0000
     22 C22         6.9740   -1.0557   27.0405 C.3       1 UNL1        0.0000
     23 C23        10.5427    3.5726   25.0695 C.3       1 UNL1        0.0000
     24 C24         7.5960    3.4237   25.7052 C.3       1 UNL1        0.0000
     25 C25         7.8820    1.4814   27.9690 C.3       1 UNL1        0.0000
     26 C26        10.8859    1.2850   26.1253 C.3       1 UNL1        0.0000
     27 C27         4.3698   -5.1351   25.5734 C.3       1 UNL1        0.0000
     28 C28         9.9794    2.5367   26.0561 C.3       1 UNL1        0.0000
     29 C29         8.5086    2.1986   25.6949 C.3       1 UNL1        0.0000
     30 N1          7.9948   -0.3365   19.1939 N.ar      1 UNL1        0.0000
     31 N2         10.5956   -0.8977   23.1659 N.pl3     1 UNL1        0.0000
     32 N3          4.9515   -2.7473   25.8220 N.am      1 UNL1        0.0000
     33 N4          7.9538    1.1532   26.5510 N.am      1 UNL1        0.0000
     34 O1          7.5679   -0.3872   24.8535 O.2       1 UNL1        0.0000
     35 O2          2.7699   -3.4809   26.1372 O.2       1 UNL1        0.0000
     36 O3          9.2332   -2.9824   23.2768 O.2       1 UNL1        0.0000
     37 O4         10.8747   -2.6648   21.3591 O.2       1 UNL1        0.0000
     38 F1         13.8485   -1.9120   22.5103 F         1 UNL1        0.0000
     39 S1          9.8815   -2.1211   22.2884 S.o2      1 UNL1        0.0000
     40 Cl1         2.9285   -6.1314   25.7404 Cl        1 UNL1        0.0000
@<TRIPOS>BOND
     1    1    2 ar
     2    1    4 ar
     3    2    5 ar
     4    3    6 ar
     5    3    8 ar
     6    4   11 ar
     7    5   13 ar
     8    6   14 ar
     9    7   12 1
    10    7   15 2
    11    8   30 ar
    12    9   14 ar
    13    9   30 ar
    14   10   12 2
    15   10   31 1
    16   11   13 ar
    17   11   15 1
    18   12   26 1
    19   13   38 1
    20   14   39 1
    21   15   31 1
    22   16   22 1
    23   16   33 am
    24   16   34 2
    25   17   27 1
    26   17   32 am
    27   17   35 2
    28   18   20 1
    29   18   22 1
    30   19   21 1
    31   19   22 1
    32   20   32 1
    33   21   32 1
    34   23   28 1
    35   24   29 1
    36   25   33 1
    37   26   28 1
    38   27   40 1
    39   28   29 1
    40   29   33 1
    41   31   39 1
    42   36   39 2
    43   37   39 2
@<TRIPOS>MOLECULE
MAK-UNK-8fd-27
   40    43     0     0     0
SMALL
NO_CHARGES

@<TRIPOS>ATOM
      1 C1          8.8239   -1.2128   22.0322 C.ar      1 UNL1        0.0000
      2 C2          5.9178    0.6814   25.2955 C.ar      1 UNL1        0.0000
      3 C3          8.5540   -1.9602   23.1786 C.ar      1 UNL1        0.0000
      4 C4         10.1440   -0.9605   21.6589 C.ar      1 UNL1        0.0000
      5 C5          7.2010    0.1553   25.3950 C.ar      1 UNL1        0.0000
      6 C6          9.1569   -4.5900   25.2552 C.2       1 UNL1        0.0000
      7 C7          5.1148    0.6503   26.4242 C.ar      1 UNL1        0.0000
      8 C8          6.7560   -0.3618   27.6733 C.ar      1 UNL1        0.0000
      9 C9          8.9025   -3.6658   27.2927 C.2       1 UNL1        0.0000
     10 C10         9.6042   -2.4551   23.9518 C.ar      1 UNL1        0.0000
     11 C11         8.8930   -4.8674   26.6192 C.2       1 UNL1        0.0000
     12 C12        11.1942   -1.4555   22.4320 C.ar      1 UNL1        0.0000
     13 C13        10.9243   -2.2028   23.5784 C.ar      1 UNL1        0.0000
     14 C14         7.6359   -0.3782   26.6031 C.ar      1 UNL1        0.0000
     15 C15         9.3198   -3.2273   25.1367 C.2       1 UNL1        0.0000
     16 C16        13.2497   -0.0478   22.4997 C.2       1 UNL1        0.0000
     17 C17        12.2045    5.0500   24.1595 C.2       1 UNL1        0.0000
     18 C18        13.3529    1.6613   24.2827 C.3       1 UNL1        0.0000
     19 C19        11.7752    1.9420   22.3362 C.3       1 UNL1        0.0000
     20 C20        12.5963    2.7634   25.0195 C.3       1 UNL1        0.0000
     21 C21        11.0505    3.0390   23.1134 C.3       1 UNL1        0.0000
     22 C22        12.4434    0.9414   23.2831 C.3       1 UNL1        0.0000
     23 C23        14.4404   -2.7465   21.9797 C.3       1 UNL1        0.0000
     24 C24        13.6161   -1.6132   19.8864 C.3       1 UNL1        0.0000
     25 C25         6.1688   -6.1748   26.9437 C.3       1 UNL1        0.0000
     26 C26         8.6521   -6.1974   27.2110 C.3       1 UNL1        0.0000
     27 C27        11.5101    5.9266   23.1482 C.3       1 UNL1        0.0000
     28 C28        13.2274   -2.2200   21.2266 C.3       1 UNL1        0.0000
     29 N1          5.5022    0.1404   27.6148 N.ar      1 UNL1        0.0000
     30 N2          9.1632   -2.6759   26.3815 N.pl3     1 UNL1        0.0000
     31 N3         11.9567    3.6804   24.0740 N.am      1 UNL1        0.0000
     32 N4         12.5642   -1.1902   22.0412 N.am      1 UNL1        0.0000
     33 N5          7.3167   -6.3358   27.8696 N.4       1 UNL1        0.0000
     34 O1         14.4352    0.2167   22.2841 O.2       1 UNL1        0.0000
     35 O2         12.9461    5.5685   24.9981 O.2       1 UNL1        0.0000
     36 O3         10.1198   -0.4652   25.7397 O.2       1 UNL1        0.0000
     37 O4          9.6134   -0.9429   28.1868 O.2       1 UNL1        0.0000
     38 F1         11.9382   -2.6767   24.3197 F         1 UNL1        0.0000
     39 S1          9.2661   -1.0583   26.7685 S.o2      1 UNL1        0.0000
     40 Cl1        11.9742    7.5842   23.5155 Cl        1 UNL1        0.0000
@<TRIPOS>BOND
     1    1    3 ar
     2    1    4 ar
     3    2    5 ar
     4    2    7 ar
     5    3   10 ar
     6    4   12 ar
     7    5   14 ar
     8    6   11 1
     9    6   15 2
    10    7   29 ar
    11    8   14 ar
    12    8   29 ar
    13    9   11 2
    14    9   30 1
    15   10   13 ar
    16   10   15 1
    17   11   26 1
    18   12   13 ar
    19   12   32 1
    20   13   38 1
    21   14   39 1
    22   15   30 1
    23   16   22 1
    24   16   32 am
    25   16   34 2
    26   17   27 1
    27   17   31 am
    28   17   35 2
    29   18   20 1
    30   18   22 1
    31   19   21 1
    32   19   22 1
    33   20   31 1
    34   21   31 1
    35   23   28 1
    36   24   28 1
    37   25   33 1
    38   26   33 1
    39   27   40 1
    40   28   32 1
    41   30   39 1
    42   36   39 2
    43   37   39 2
@<TRIPOS>MOLECULE
MAK-UNK-8fd-6
   40    43     0     0     0
SMALL
NO_CHARGES

@<TRIPOS>ATOM
      1 C1         13.7341   -0.5150   19.4988 C.ar      1 UNL1        0.0000
      2 C2         14.1094   -1.5633   20.3390 C.ar      1 UNL1        0.0000
      3 C3         13.2129    0.6602   20.0400 C.ar      1 UNL1        0.0000
      4 C4         13.9635   -1.4363   21.7203 C.ar      1 UNL1        0.0000
      5 C5         10.4417   -1.4657   24.9379 C.ar      1 UNL1        0.0000
      6 C6         13.1971    3.1427   22.3754 C.2       1 UNL1        0.0000
      7 C7         10.8310   -2.5901   24.2279 C.ar      1 UNL1        0.0000
      8 C8         10.6555   -1.4915   22.2178 C.ar      1 UNL1        0.0000
      9 C9         10.9965    3.4606   22.7311 C.2       1 UNL1        0.0000
     10 C10        13.0670    0.7872   21.4213 C.ar      1 UNL1        0.0000
     11 C11        10.1513   -0.3109   24.2199 C.ar      1 UNL1        0.0000
     12 C12        12.2299    4.0618   22.8518 C.2       1 UNL1        0.0000
     13 C13        13.4423   -0.2611   22.2616 C.ar      1 UNL1        0.0000
     14 C14        10.2577   -0.3157   22.8336 C.ar      1 UNL1        0.0000
     15 C15        12.5252    2.0079   21.9778 C.2       1 UNL1        0.0000
     16 C16         7.7788   -0.5005   25.6297 C.2       1 UNL1        0.0000
     17 C17         4.7467   -4.4125   26.8796 C.2       1 UNL1        0.0000
     18 C18         5.4670   -0.9571   26.4289 C.3       1 UNL1        0.0000
     19 C19         7.4549   -2.1039   27.5227 C.3       1 UNL1        0.0000
     20 C20         5.1578   -2.2703   25.7123 C.3       1 UNL1        0.0000
     21 C21         7.0722   -3.3881   26.7858 C.3       1 UNL1        0.0000
     22 C22         6.9412   -0.8384   26.8285 C.3       1 UNL1        0.0000
     23 C23        10.7907    1.4156   25.9527 C.3       1 UNL1        0.0000
     24 C24         7.9355    1.8777   26.3815 C.3       1 UNL1        0.0000
     25 C25        12.2571    6.9872   25.3060 C.3       1 UNL1        0.0000
     26 C26        12.4935    5.4140   23.3804 C.3       1 UNL1        0.0000
     27 C27         5.3208   -5.5522   27.6829 C.3       1 UNL1        0.0000
     28 C28         9.7239    0.9301   24.9734 C.3       1 UNL1        0.0000
     29 N1         10.9458   -2.6329   22.8816 N.ar      1 UNL1        0.0000
     30 N2         11.1882    2.2125   22.1984 N.pl3     1 UNL1        0.0000
     31 N3          5.6362   -3.4114   26.4917 N.am      1 UNL1        0.0000
     32 N4          8.4521    0.7212   25.6609 N.am      1 UNL1        0.0000
     33 N5         12.0442    5.6116   24.7930 N.4       1 UNL1        0.0000
     34 O1          7.8346   -1.2986   24.6902 O.2       1 UNL1        0.0000
     35 O2          3.5433   -4.4129   26.6078 O.2       1 UNL1        0.0000
     36 O3         10.0910    0.8042   20.4585 O.2       1 UNL1        0.0000
     37 O4          8.7021    1.7136   22.3865 O.2       1 UNL1        0.0000
     38 F1         13.3084   -0.1546   23.5918 F         1 UNL1        0.0000
     39 S1          9.9097    1.0961   21.8699 S.o2      1 UNL1        0.0000
     40 Cl1         3.9807   -6.6303   28.0566 Cl        1 UNL1        0.0000
@<TRIPOS>BOND
     1    1    2 ar
     2    1    3 ar
     3    2    4 ar
     4    3   10 ar
     5    4   13 ar
     6    5    7 ar
     7    5   11 ar
     8    6   12 1
     9    6   15 2
    10    7   29 ar
    11    8   14 ar
    12    8   29 ar
    13    9   12 2
    14    9   30 1
    15   10   13 ar
    16   10   15 1
    17   11   14 ar
    18   11   28 1
    19   12   26 1
    20   13   38 1
    21   14   39 1
    22   15   30 1
    23   16   22 1
    24   16   32 am
    25   16   34 2
    26   17   27 1
    27   17   31 am
    28   17   35 2
    29   18   20 1
    30   18   22 1
    31   19   21 1
    32   19   22 1
    33   20   31 1
    34   21   31 1
    35   23   28 1
    36   24   32 1
    37   25   33 1
    38   26   33 1
    39   27   40 1
    40   28   32 1
    41   30   39 1
    42   36   39 2
    43   37   39 2
@<TRIPOS>MOLECULE
MAK-UNK-8fd-8
   40    43     0     0     0
SMALL
NO_CHARGES

@<TRIPOS>ATOM
      1 C1          3.7374    0.4401   26.3315 C.ar      1 UNL1        0.0000
      2 C2          4.0961    0.9583   25.0872 C.ar      1 UNL1        0.0000
      3 C3          4.4741   -0.6040   26.8909 C.ar      1 UNL1        0.0000
      4 C4          5.1915    0.4324   24.4022 C.ar      1 UNL1        0.0000
      5 C5         10.5942   -0.5008   27.0418 C.ar      1 UNL1        0.0000
      6 C6         11.5252   -0.1618   26.0662 C.ar      1 UNL1        0.0000
      7 C7          6.1363   -3.5701   26.6528 C.2       1 UNL1        0.0000
      8 C8          8.9315    0.6347   25.7758 C.ar      1 UNL1        0.0000
      9 C9          7.9122   -3.2399   27.9971 C.2       1 UNL1        0.0000
     10 C10         5.5695   -1.1298   26.2059 C.ar      1 UNL1        0.0000
     11 C11         7.1374   -4.2196   27.4165 C.2       1 UNL1        0.0000
     12 C12         5.9282   -0.6117   24.9615 C.ar      1 UNL1        0.0000
     13 C13         9.2706   -0.0988   26.9013 C.ar      1 UNL1        0.0000
     14 C14         6.3301   -2.2132   26.7899 C.2       1 UNL1        0.0000
     15 C15        11.0851    0.5744   24.9780 C.ar      1 UNL1        0.0000
     16 C16        11.1439   -0.5308   22.1173 C.2       1 UNL1        0.0000
     17 C17         8.1015   -4.5544   22.9011 C.2       1 UNL1        0.0000
     18 C18        11.2468   -2.8902   22.9008 C.3       1 UNL1        0.0000
     19 C19         9.9693   -2.2932   20.7854 C.3       1 UNL1        0.0000
     20 C20         9.9065   -3.0236   23.6217 C.3       1 UNL1        0.0000
     21 C21         8.6667   -2.4639   21.5683 C.3       1 UNL1        0.0000
     22 C22        11.1688   -1.9667   21.6809 C.3       1 UNL1        0.0000
     23 C23        11.7095    2.2864   23.2255 C.3       1 UNL1        0.0000
     24 C24        13.5477   -0.6692   22.7871 C.3       1 UNL1        0.0000
     25 C25         5.8878   -5.9298   29.5959 C.3       1 UNL1        0.0000
     26 C26         7.3179   -5.6766   27.5638 C.3       1 UNL1        0.0000
     27 C27         7.0319   -4.8684   21.8856 C.3       1 UNL1        0.0000
     28 C28        12.0710    0.9634   23.8975 C.3       1 UNL1        0.0000
     29 N1          9.8078    0.9830   24.8071 N.ar      1 UNL1        0.0000
     30 N2          7.4124   -2.0243   27.6090 N.pl3     1 UNL1        0.0000
     31 N3          8.8484   -3.3972   22.6841 N.am      1 UNL1        0.0000
     32 N4         12.2125   -0.0966   22.9025 N.am      1 UNL1        0.0000
     33 N5          7.2150   -6.1612   28.9748 N.4       1 UNL1        0.0000
     34 O1         10.2019    0.1872   21.7713 O.2       1 UNL1        0.0000
     35 O2          8.2680   -5.3170   23.8565 O.2       1 UNL1        0.0000
     36 O3          8.7141   -0.8289   29.3671 O.2       1 UNL1        0.0000
     37 O4          6.9870    0.4509   28.0062 O.2       1 UNL1        0.0000
     38 F1          6.9788   -1.1061   24.2903 F         1 UNL1        0.0000
     39 S1          8.0768   -0.5048   28.1012 S.o2      1 UNL1        0.0000
     40 Cl1         5.5506   -4.1149   22.4650 Cl        1 UNL1        0.0000
@<TRIPOS>BOND
     1    1    2 ar
     2    1    3 ar
     3    2    4 ar
     4    3   10 ar
     5    4   12 ar
     6    5    6 ar
     7    5   13 ar
     8    6   15 ar
     9    7   11 1
    10    7   14 2
    11    8   13 ar
    12    8   29 ar
    13    9   11 2
    14    9   30 1
    15   10   12 ar
    16   10   14 1
    17   11   26 1
    18   12   38 1
    19   13   39 1
    20   14   30 1
    21   15   28 1
    22   15   29 ar
    23   16   22 1
    24   16   32 am
    25   16   34 2
    26   17   27 1
    27   17   31 am
    28   17   35 2
    29   18   20 1
    30   18   22 1
    31   19   21 1
    32   19   22 1
    33   20   31 1
    34   21   31 1
    35   23   28 1
    36   24   32 1
    37   25   33 1
    38   26   33 1
    39   27   40 1
    40   28   32 1
    41   30   39 1
    42   36   39 2
    43   37   39 2
@<TRIPOS>MOLECULE
MAK-UNK-8fd-39
   40    43     0     0     0
SMALL
NO_CHARGES

@<TRIPOS>ATOM
      1 C1         12.2951    1.8576   23.6792 C.ar      1 UNL1        0.0000
      2 C2         13.5639    1.7976   23.1029 C.ar      1 UNL1        0.0000
      3 C3          6.3183    0.5640   21.2587 C.ar      1 UNL1        0.0000
      4 C4         11.4939    0.7165   23.7220 C.ar      1 UNL1        0.0000
      5 C5         14.0316    0.5967   22.5694 C.ar      1 UNL1        0.0000
      6 C6          7.3197   -0.3611   20.9854 C.ar      1 UNL1        0.0000
      7 C7         11.0522   -2.6266   24.2181 C.2       1 UNL1        0.0000
      8 C8          6.6987    1.8157   21.7151 C.ar      1 UNL1        0.0000
      9 C9          8.9280    1.2664   21.6341 C.ar      1 UNL1        0.0000
     10 C10         9.6052   -3.1731   22.5818 C.2       1 UNL1        0.0000
     11 C11        11.9616   -0.4844   23.1885 C.ar      1 UNL1        0.0000
     12 C12        10.0897   -3.5806   23.8052 C.2       1 UNL1        0.0000
     13 C13        13.2304   -0.5444   22.6122 C.ar      1 UNL1        0.0000
     14 C14         8.6521   -0.0111   21.1741 C.ar      1 UNL1        0.0000
     15 C15        11.1265   -1.6650   23.2346 C.2       1 UNL1        0.0000
     16 C16         7.8798   -4.3227   25.9174 C.2       1 UNL1        0.0000
     17 C17         8.6162    1.2270   26.1133 C.2       1 UNL1        0.0000
     18 C18         6.6558   -1.8272   26.0366 C.3       1 UNL1        0.0000
     19 C19         8.3570   -1.8676   27.8952 C.3       1 UNL1        0.0000
     20 C20         6.5877   -0.3063   26.1651 C.3       1 UNL1        0.0000
     21 C21         8.2527   -0.3470   27.9871 C.3       1 UNL1        0.0000
     22 C22         7.0518   -2.4830   27.3683 C.3       1 UNL1        0.0000
     23 C23         4.3513   -6.4335   26.5275 C.3       1 UNL1        0.0000
     24 C24         6.7241   -6.8812   27.2648 C.3       1 UNL1        0.0000
     25 C25         5.2263   -4.6604   28.5897 C.3       1 UNL1        0.0000
     26 C26         9.6729   -4.8110   24.5612 C.3       1 UNL1        0.0000
     27 C27         8.1061    1.7949   24.8129 C.3       1 UNL1        0.0000
     28 C28         7.1893   -3.9953   27.2095 C.3       1 UNL1        0.0000
     29 C29         5.7883   -5.9374   26.5268 C.3       1 UNL1        0.0000
     30 N1          7.9823    2.1921   21.9105 N.ar      1 UNL1        0.0000
     31 N2          9.1565   -4.4853   25.8870 N.2       1 UNL1        0.0000
     32 N3         10.2424   -2.0074   22.2450 N.pl3     1 UNL1        0.0000
     33 N4          7.8444    0.2271   26.7040 N.am      1 UNL1        0.0000
     34 N5          5.8302   -4.5921   27.2087 N.4       1 UNL1        0.0000
     35 O1          9.6704    1.6586   26.5870 O.2       1 UNL1        0.0000
     36 O2          9.4610   -2.1559   19.8825 O.2       1 UNL1        0.0000
     37 O3         11.1424   -0.3597   20.5303 O.2       1 UNL1        0.0000
     38 F1         13.6946   -1.6914   22.0950 F         1 UNL1        0.0000
     39 S1          9.9572   -1.1644   20.8362 S.o2      1 UNL1        0.0000
     40 Cl1         7.0415    3.1328   25.2307 Cl        1 UNL1        0.0000
@<TRIPOS>BOND
     1    1    2 ar
     2    1    4 ar
     3    2    5 ar
     4    3    6 ar
     5    3    8 ar
     6    4   11 ar
     7    5   13 ar
     8    6   14 ar
     9    7   12 1
    10    7   15 2
    11    8   30 ar
    12    9   14 ar
    13    9   30 ar
    14   10   12 2
    15   10   32 1
    16   11   13 ar
    17   11   15 1
    18   12   26 1
    19   13   38 1
    20   14   39 1
    21   15   32 1
    22   16   28 1
    23   16   31 2
    24   17   27 1
    25   17   33 am
    26   17   35 2
    27   18   20 1
    28   18   22 1
    29   19   21 1
    30   19   22 1
    31   20   33 1
    32   21   33 1
    33   22   28 1
    34   23   29 1
    35   24   29 1
    36   25   34 1
    37   26   31 1
    38   27   40 1
    39   28   34 1
    40   29   34 1
    41   32   39 1
    42   36   39 2
    43   37   39 2
@<TRIPOS>MOLECULE
INS-INS-8db-1
   38    42     0     0     0
SMALL
NO_CHARGES

@<TRIPOS>ATOM
      1 C1          8.4111   -2.0053   21.1353 C.ar      1 UNL1        0.0000
      2 C2          7.5299   -4.4630   26.5036 C.ar      1 UNL1        0.0000
      3 C3          7.2794   -1.4806   20.5103 C.ar      1 UNL1        0.0000
      4 C4          6.5971   -3.4270   26.4568 C.ar      1 UNL1        0.0000
      5 C5         12.0825   -6.1623   25.4135 C.2       1 UNL1        0.0000
      6 C6          9.4494   -3.7029   22.5644 C.ar      1 UNL1        0.0000
      7 C7          5.9365   -3.2516   21.4526 C.ar      1 UNL1        0.0000
      8 C8          8.1065   -5.4738   23.5069 C.ar      1 UNL1        0.0000
      9 C9          9.3166   -2.8688   26.1821 C.ar      1 UNL1        0.0000
     10 C10        12.5647   -6.2772   24.1284 C.2       1 UNL1        0.0000
     11 C11         8.3209   -3.1610   21.9280 C.ar      1 UNL1        0.0000
     12 C12         7.0651   -3.7935   22.0891 C.ar      1 UNL1        0.0000
     13 C13         9.3414   -4.8519   23.3485 C.ar      1 UNL1        0.0000
     14 C14         8.8897   -4.1839   26.3664 C.ar      1 UNL1        0.0000
     15 C15        10.7832   -5.6040   25.3295 C.2       1 UNL1        0.0000
     16 C16         6.0446   -2.1026   20.6687 C.ar      1 UNL1        0.0000
     17 C17         7.0241   -2.1119   26.2726 C.ar      1 UNL1        0.0000
     18 C18         6.9748   -4.9492   22.8819 C.ar      1 UNL1        0.0000
     19 C19         8.3838   -1.8328   26.1353 C.ar      1 UNL1        0.0000
     20 C20        10.5108   -5.3948   23.9955 C.2       1 UNL1        0.0000
     21 C21         9.8949   -5.3015   26.4166 C.2       1 UNL1        0.0000
     22 C22         5.0512   -6.1454   21.9536 C.2       1 UNL1        0.0000
     23 C23         3.8829   -5.2376   24.6249 C.3       1 UNL1        0.0000
     24 C24         3.3924   -5.7644   25.9685 C.3       1 UNL1        0.0000
     25 C25         5.0736   -7.3702   24.6608 C.3       1 UNL1        0.0000
     26 C26         5.2552   -5.8761   24.3962 C.3       1 UNL1        0.0000
     27 C27         4.8363   -1.5397   19.9993 C.3       1 UNL1        0.0000
     28 C28         5.9925   -1.0311   26.2278 C.3       1 UNL1        0.0000
     29 C29         5.8863   -6.4592   20.7248 C.3       1 UNL1        0.0000
     30 N1         11.6008   -5.8080   23.2747 N.pl3     1 UNL1        0.0000
     31 N2          5.7591   -5.6164   23.0766 N.am      1 UNL1        0.0000
     32 O1          9.9205   -5.9683   27.4728 O.2       1 UNL1        0.0000
     33 O2          3.8324   -6.3354   21.9389 O.2       1 UNL1        0.0000
     34 O3          4.6783   -7.6726   27.2520 O.2       1 UNL1        0.0000
     35 O4          2.8222   -8.3198   25.6480 O.2       1 UNL1        0.0000
     36 S1          3.9289   -7.4676   26.0300 S.o2      1 UNL1        0.0000
     37 Cl1         8.9482   -0.2175   25.9073 Cl        1 UNL1        0.0000
     38 Cl2         7.1094   -7.6865   21.1158 Cl        1 UNL1        0.0000
@<TRIPOS>BOND
     1    1    3 ar
     2    1   11 ar
     3    2    4 ar
     4    2   14 ar
     5    3   16 ar
     6    4   17 ar
     7    5   10 2
     8    5   15 1
     9    6   11 ar
    10    6   13 ar
    11    7   12 ar
    12    7   16 ar
    13    8   13 ar
    14    8   18 ar
    15    9   14 ar
    16    9   19 ar
    17   10   30 1
    18   11   12 ar
    19   12   18 ar
    20   13   20 1
    21   14   21 1
    22   15   20 2
    23   15   21 1
    24   16   27 1
    25   17   19 ar
    26   17   28 1
    27   18   31 1
    28   19   37 1
    29   20   30 1
    30   21   32 2
    31   22   29 1
    32   22   31 am
    33   22   33 2
    34   23   24 1
    35   23   26 1
    36   24   36 1
    37   25   26 1
    38   25   36 1
    39   26   31 1
    40   29   38 1
    41   34   36 2
    42   35   36 2
@<TRIPOS>MOLECULE
MAK-UNK-e05-8
   29    32     0     0     0
SMALL
NO_CHARGES

@<TRIPOS>ATOM
      1 C1          5.4276   -2.2599   27.9246 C.ar      1 UNL1        0.0000
      2 C2          5.4078   -3.6136   27.6022 C.ar      1 UNL1        0.0000
      3 C3          1.3763   -1.5799   25.3176 C.ar      1 UNL1        0.0000
      4 C4          4.4320   -1.4117   27.4392 C.ar      1 UNL1        0.0000
      5 C5          4.3923   -4.1243   26.7934 C.ar      1 UNL1        0.0000
      6 C6          2.3918   -1.0692   26.1265 C.ar      1 UNL1        0.0000
      7 C7          1.3565   -2.9336   24.9952 C.ar      1 UNL1        0.0000
      8 C8          4.2780   -6.7968   24.6506 C.2       1 UNL1        0.0000
      9 C9          5.3032   -6.9726   23.6768 C.2       1 UNL1        0.0000
     10 C10         3.4021   -1.9085   26.6238 C.ar      1 UNL1        0.0000
     11 C11         3.3820   -3.2851   26.2960 C.ar      1 UNL1        0.0000
     12 C12         2.3522   -3.7819   25.4805 C.ar      1 UNL1        0.0000
     13 C13         3.4423   -5.7471   24.3385 C.2       1 UNL1        0.0000
     14 C14         5.2119   -6.0505   22.6573 C.2       1 UNL1        0.0000
     15 C15         8.4618   -1.9915   25.0006 C.2       1 UNL1        0.0000
     16 C16         7.9431   -4.3350   24.2015 C.3       1 UNL1        0.0000
     17 C17         7.9521   -2.4133   22.6218 C.3       1 UNL1        0.0000
     18 C18         8.1857   -5.1386   22.9306 C.3       1 UNL1        0.0000
     19 C19         6.9079   -3.2380   21.8822 C.3       1 UNL1        0.0000
     20 C20         2.2698   -5.2491   25.0896 C.3       1 UNL1        0.0000
     21 C21         8.6189   -2.5667   26.3865 C.3       1 UNL1        0.0000
     22 N1          8.1374   -2.8966   23.9900 N.am      1 UNL1        0.0000
     23 N2          7.3203   -4.6671   21.8126 N.pl3     1 UNL1        0.0000
     24 O1          8.6247   -0.7824   24.8201 O.2       1 UNL1        0.0000
     25 O2          6.8280   -7.0008   20.8522 O.2       1 UNL1        0.0000
     26 O3          5.3244   -5.0722   20.2459 O.2       1 UNL1        0.0000
     27 S1          3.8946   -4.9786   22.8766 S.3       1 UNL1        0.0000
     28 S2          6.1654   -5.7624   21.2000 S.o2      1 UNL1        0.0000
     29 Cl1         9.0575   -1.2276   27.4411 Cl        1 UNL1        0.0000
@<TRIPOS>BOND
     1    1    2 ar
     2    1    4 ar
     3    2    5 ar
     4    3    6 ar
     5    3    7 ar
     6    4   10 ar
     7    5   11 ar
     8    6   10 ar
     9    7   12 ar
    10    8    9 1
    11    8   13 2
    12    9   14 2
    13   10   11 ar
    14   11   12 ar
    15   12   20 1
    16   13   20 1
    17   13   27 1
    18   14   27 1
    19   14   28 1
    20   15   21 1
    21   15   22 am
    22   15   24 2
    23   16   18 1
    24   16   22 1
    25   17   19 1
    26   17   22 1
    27   18   23 1
    28   19   23 1
    29   21   29 1
    30   23   28 1
    31   25   28 2
    32   26   28 2
@<TRIPOS>MOLECULE
GIA-UNK-d2d-9
   22    23     0     0     0
SMALL
NO_CHARGES

@<TRIPOS>ATOM
      1 C1         -1.1227    3.4736   24.4802 C.ar      1 UNL1        0.0000
      2 C2         -0.8206    2.5176   23.5106 C.ar      1 UNL1        0.0000
      3 C3         -0.1204    3.9517   25.3244 C.ar      1 UNL1        0.0000
      4 C4          0.4837    2.0394   23.3851 C.ar      1 UNL1        0.0000
      5 C5          1.1839    3.4735   25.1990 C.ar      1 UNL1        0.0000
      6 C6          1.4860    2.5174   24.2293 C.ar      1 UNL1        0.0000
      7 C7          2.8596    2.0138   24.0972 C.2       1 UNL1        0.0000
      8 C8          5.2004    1.1266   22.2502 C.2       1 UNL1        0.0000
      9 C9          7.6870   -0.0067   20.3901 C.2       1 UNL1        0.0000
     10 C10         4.5909    4.1230   21.5687 C.3       1 UNL1        0.0000
     11 C11         5.7384    3.5645   22.4071 C.3       1 UNL1        0.0000
     12 C12         3.3711    3.8830   22.4454 C.3       1 UNL1        0.0000
     13 C13         5.1152    2.3585   23.1005 C.3       1 UNL1        0.0000
     14 C14         6.0083   -1.8125   21.0092 C.3       1 UNL1        0.0000
     15 C15         6.3428    0.1534   22.4568 C.3       1 UNL1        0.0000
     16 C16         7.5439   -0.3437   18.9194 C.3       1 UNL1        0.0000
     17 N1          3.7040    2.6958   23.2319 N.am      1 UNL1        0.0000
     18 N2          6.7063   -0.5400   21.2581 N.am      1 UNL1        0.0000
     19 O1          3.1585    1.0166   24.7502 O.2       1 UNL1        0.0000
     20 O2          4.3497    0.9033   21.3853 O.2       1 UNL1        0.0000
     21 O3          8.6135    0.6968   20.8005 O.2       1 UNL1        0.0000
     22 Cl1         6.0113    0.2789   18.2763 Cl        1 UNL1        0.0000
@<TRIPOS>BOND
     1    1    2 ar
     2    1    3 ar
     3    2    4 ar
     4    3    5 ar
     5    4    6 ar
     6    5    6 ar
     7    6    7 1
     8    7   17 am
     9    7   19 2
    10    8   13 1
    11    8   15 1
    12    8   20 2
    13    9   16 1
    14    9   18 am
    15    9   21 2
    16   10   11 1
    17   10   12 1
    18   11   13 1
    19   12   17 1
    20   13   17 1
    21   14   18 1
    22   15   18 1
    23   16   22 1
@<TRIPOS>MOLECULE
PED-UNI-b79-1
   69    72     0     0     0
SMALL
NO_CHARGES

@<TRIPOS>ATOM
      1 C1          8.7580   -4.7269   23.6159 C.ar      1 UNL1        0.0000
      2 C2          8.4413   -4.1409   21.2935 C.ar      1 UNL1        0.0000
      3 C3          7.4677   -5.2550   23.6586 C.ar      1 UNL1        0.0000
      4 C4          7.1510   -4.6691   21.3362 C.ar      1 UNL1        0.0000
      5 C5          5.5981    0.2081   26.2805 C.ar      1 UNL1        0.0000
      6 C6          6.6769   -0.5774   26.6863 C.ar      1 UNL1        0.0000
      7 C7          7.1165    1.9980   25.7081 C.ar      1 UNL1        0.0000
      8 C8          9.2448   -4.1698   22.4333 C.ar      1 UNL1        0.0000
      9 C9          8.1954    1.2126   26.1140 C.ar      1 UNL1        0.0000
     10 C10         6.6642   -5.2262   22.5188 C.ar      1 UNL1        0.0000
     11 C11         5.8178    1.4958   25.7913 C.ar      1 UNL1        0.0000
     12 C12         7.9756   -0.0751   26.6032 C.ar      1 UNL1        0.0000
     13 C13         5.0553   -0.0017   20.0544 C.2       1 UNL1        0.0000
     14 C14        11.6234   -1.3410   22.6605 C.2       1 UNL1        0.0000
     15 C15         5.2270    2.1938   21.3280 C.3       1 UNL1        0.0000
     16 C16         3.4782    0.5482   21.8808 C.3       1 UNL1        0.0000
     17 C17         5.5683    2.3318   22.8086 C.3       1 UNL1        0.0000
     18 C18         3.8154    0.6780   23.3619 C.3       1 UNL1        0.0000
     19 C19        12.5175    0.9280   23.0659 C.3       1 UNL1        0.0000
     20 C20        10.8050    0.0761   24.6312 C.3       1 UNL1        0.0000
     21 C21        11.8441    2.2876   23.1514 C.3       1 UNL1        0.0000
     22 C22        10.2178    1.4906   24.6580 C.3       1 UNL1        0.0000
     23 C23         9.5814    1.7912   26.0083 C.3       1 UNL1        0.0000
     24 C24        10.6336   -3.6012   22.3875 C.3       1 UNL1        0.0000
     25 C25         6.2124    0.4481   19.1987 C.3       1 UNL1        0.0000
     26 N1          4.6379    0.8784   21.0513 N.am      1 UNL1        0.0000
     27 N2         11.5875   -0.1500   23.4071 N.am      1 UNL1        0.0000
     28 N3          4.3525    2.0464   23.6293 N.pl3     1 UNL1        0.0000
     29 N4         10.7155   -2.3189   23.0503 N.am      1 UNL1        0.0000
     30 N5          5.3506   -5.7635   22.5624 N.pl3     1 UNL1        0.0000
     31 O1          4.5411   -1.1031   19.8437 O.2       1 UNL1        0.0000
     32 O2         12.4090   -1.5200   21.7239 O.2       1 UNL1        0.0000
     33 O3          4.9319   -6.2596   23.6362 O.2       1 UNL1        0.0000
     34 O4          4.6441   -5.7273   21.5260 O.2       1 UNL1        0.0000
     35 O5          3.2735    2.0115   25.9747 O.2       1 UNL1        0.0000
     36 O6          4.8541    3.8794   25.3746 O.2       1 UNL1        0.0000
     37 O7         11.2437    2.4615   24.4337 O.3       1 UNL1        0.0000
     38 S1          4.4670    2.4785   25.2834 S.o2      1 UNL1        0.0000
     39 Cl1         9.2857   -1.0758   27.1145 Cl        1 UNL1        0.0000
     40 Cl2         6.5396   -0.8592   18.0664 Cl        1 UNL1        0.0000
     41 H           8.7580   -4.7269   23.6159 H         1 UNL1        0.0000
     42 H           8.4413   -4.1409   21.2935 H         1 UNL1        0.0000
     43 H           7.4677   -5.2550   23.6586 H         1 UNL1        0.0000
     44 H           7.1510   -4.6691   21.3362 H         1 UNL1        0.0000
     45 H           5.5981    0.2081   26.2805 H         1 UNL1        0.0000
     46 H           6.6769   -0.5774   26.6863 H         1 UNL1        0.0000
     47 H           7.1165    1.9980   25.7081 H         1 UNL1        0.0000
     48 H           5.2270    2.1938   21.3280 H         1 UNL1        0.0000
     49 H           5.2270    2.1938   21.3280 H         1 UNL1        0.0000
     50 H           3.4782    0.5482   21.8808 H         1 UNL1        0.0000
     51 H           3.4782    0.5482   21.8808 H         1 UNL1        0.0000
     52 H           5.5683    2.3318   22.8086 H         1 UNL1        0.0000
     53 H           5.5683    2.3318   22.8086 H         1 UNL1        0.0000
     54 H           3.8154    0.6780   23.3619 H         1 UNL1        0.0000
     55 H           3.8154    0.6780   23.3619 H         1 UNL1        0.0000
     56 H          12.5175    0.9280   23.0659 H         1 UNL1        0.0000
     57 H          12.5175    0.9280   23.0659 H         1 UNL1        0.0000
     58 H          10.8050    0.0761   24.6312 H         1 UNL1        0.0000
     59 H          10.8050    0.0761   24.6312 H         1 UNL1        0.0000
     60 H          11.8441    2.2876   23.1514 H         1 UNL1        0.0000
     61 H          11.8441    2.2876   23.1514 H         1 UNL1        0.0000
     62 H          10.2178    1.4906   24.6580 H         1 UNL1        0.0000
     63 H           9.5814    1.7912   26.0083 H         1 UNL1        0.0000
     64 H           9.5814    1.7912   26.0083 H         1 UNL1        0.0000
     65 H          10.6336   -3.6012   22.3875 H         1 UNL1        0.0000
     66 H          10.6336   -3.6012   22.3875 H         1 UNL1        0.0000
     67 H           6.2124    0.4481   19.1987 H         1 UNL1        0.0000
     68 H           6.2124    0.4481   19.1987 H         1 UNL1        0.0000
     69 H          10.7155   -2.3189   23.0503 H         1 UNL1        0.0000
@<TRIPOS>BOND
     1    1    3 ar
     2    1    8 ar
     3    2    4 ar
     4    2    8 ar
     5    3   10 ar
     6    4   10 ar
     7    5    6 ar
     8    5   11 ar
     9    6   12 ar
    10    7    9 ar
    11    7   11 ar
    12    8   24 1
    13    9   12 ar
    14    9   23 1
    15   10   30 1
    16   11   38 1
    17   12   39 1
    18   13   25 1
    19   13   26 am
    20   13   31 2
    21   14   27 am
    22   14   29 am
    23   14   32 2
    24   15   17 1
    25   15   26 1
    26   16   18 1
    27   16   26 1
    28   17   28 1
    29   18   28 1
    30   19   21 1
    31   19   27 1
    32   20   22 1
    33   20   27 1
    34   21   37 1
    35   22   23 1
    36   22   37 1
    37   24   29 1
    38   25   40 1
    39   28   38 1
    40   30   33 2
    41   30   34 2
    42   35   38 2
    43   36   38 2
    44    1   41 1
    45    2   42 1
    46    3   43 1
    47    4   44 1
    48    5   45 1
    49    6   46 1
    50    7   47 1
    51   15   48 1
    52   15   49 1
    53   16   50 1
    54   16   51 1
    55   17   52 1
    56   17   53 1
    57   18   54 1
    58   18   55 1
    59   19   56 1
    60   19   57 1
    61   20   58 1
    62   20   59 1
    63   21   60 1
    64   21   61 1
    65   22   62 1
    66   23   63 1
    67   23   64 1
    68   24   65 1
    69   24   66 1
    70   25   67 1
    71   25   68 1
    72   29   69 1
@<TRIPOS>MOLECULE
MAK-UNK-8fd-26
   40    43     0     0     0
SMALL
NO_CHARGES

@<TRIPOS>ATOM
      1 C1         12.2038    0.2470   26.3183 C.ar      1 UNL1        0.0000
      2 C2         11.4399    1.3017   26.8179 C.ar      1 UNL1        0.0000
      3 C3         13.4031   -1.7865   20.2091 C.ar      1 UNL1        0.0000
      4 C4         11.6041   -0.7381   25.5336 C.ar      1 UNL1        0.0000
      5 C5         10.0762    1.3713   26.5331 C.ar      1 UNL1        0.0000
      6 C6         12.0781   -1.5062   20.5242 C.ar      1 UNL1        0.0000
      7 C7          9.0741   -2.8902   24.8344 C.2       1 UNL1        0.0000
      8 C8         14.3869   -1.3111   21.0611 C.ar      1 UNL1        0.0000
      9 C9         12.8381   -0.3400   22.4526 C.ar      1 UNL1        0.0000
     10 C10         8.9424   -2.7625   22.5903 C.2       1 UNL1        0.0000
     11 C11        10.2404   -0.6685   25.2487 C.ar      1 UNL1        0.0000
     12 C12         9.4764    0.3862   25.7484 C.ar      1 UNL1        0.0000
     13 C13         8.6306   -3.5613   23.6682 C.2       1 UNL1        0.0000
     14 C14        11.7817   -0.7696   21.6657 C.ar      1 UNL1        0.0000
     15 C15         9.6433   -1.7016   24.4336 C.2       1 UNL1        0.0000
     16 C16         7.0610    2.5275   26.5682 C.2       1 UNL1        0.0000
     17 C17         5.5607    6.7477   24.1190 C.2       1 UNL1        0.0000
     18 C18         6.5755    3.3403   24.2671 C.3       1 UNL1        0.0000
     19 C19         8.0130    4.7243   25.8422 C.3       1 UNL1        0.0000
     20 C20         5.4264    4.3118   24.5304 C.3       1 UNL1        0.0000
     21 C21         6.8236    5.6646   26.0419 C.3       1 UNL1        0.0000
     22 C22         7.5972    3.3150   25.4083 C.3       1 UNL1        0.0000
     23 C23         7.8901    0.1770   28.6913 C.3       1 UNL1        0.0000
     24 C24         6.5052   -1.0979   27.0171 C.3       1 UNL1        0.0000
     25 C25         5.8041   -6.1089   23.3491 C.3       1 UNL1        0.0000
     26 C26         8.0064    0.4950   25.4632 C.3       1 UNL1        0.0000
     27 C27         7.9587   -4.8739   23.6161 C.3       1 UNL1        0.0000
     28 C28         6.1342    8.0774   24.5392 C.3       1 UNL1        0.0000
     29 C29         6.8204    0.2665   27.6126 C.3       1 UNL1        0.0000
     30 N1         14.1377   -0.5926   22.1787 N.ar      1 UNL1        0.0000
     31 N2          9.5574   -1.6345   23.0675 N.pl3     1 UNL1        0.0000
     32 N3          5.9372    5.6381   24.8745 N.am      1 UNL1        0.0000
     33 N4          7.2874    1.1508   26.5480 N.am      1 UNL1        0.0000
     34 N5          6.4903   -4.7936   23.3450 N.4       1 UNL1        0.0000
     35 O1          6.4573    3.1172   27.4684 O.2       1 UNL1        0.0000
     36 O2          4.8025    6.6984   23.1469 O.2       1 UNL1        0.0000
     37 O3         10.1043    0.7950   22.9545 O.2       1 UNL1        0.0000
     38 O4          9.3442   -0.4125   20.8480 O.2       1 UNL1        0.0000
     39 S1         10.1036   -0.3923   22.1004 S.o2      1 UNL1        0.0000
     40 Cl1         7.6634    8.2584   23.6867 Cl        1 UNL1        0.0000
@<TRIPOS>BOND
     1    1    2 ar
     2    1    4 ar
     3    2    5 ar
     4    3    6 ar
     5    3    8 ar
     6    4   11 ar
     7    5   12 ar
     8    6   14 ar
     9    7   13 1
    10    7   15 2
    11    8   30 ar
    12    9   14 ar
    13    9   30 ar
    14   10   13 2
    15   10   31 1
    16   11   12 ar
    17   11   15 1
    18   12   26 1
    19   13   27 1
    20   14   39 1
    21   15   31 1
    22   16   22 1
    23   16   33 am
    24   16   35 2
    25   17   28 1
    26   17   32 am
    27   17   36 2
    28   18   20 1
    29   18   22 1
    30   19   21 1
    31   19   22 1
    32   20   32 1
    33   21   32 1
    34   23   29 1
    35   24   29 1
    36   25   34 1
    37   26   33 1
    38   27   34 1
    39   28   40 1
    40   29   33 1
    41   31   39 1
    42   37   39 2
    43   38   39 2
@<TRIPOS>MOLECULE
MAK-UNK-702-10
   43    48     0     0     0
SMALL
NO_CHARGES

@<TRIPOS>ATOM
      1 C1          8.7084    0.9438   22.9307 C.ar      1 UNL1        0.0000
      2 C2          8.4292   -0.7325   28.4458 C.ar      1 UNL1        0.0000
      3 C3          8.8844    0.0566   21.8689 C.ar      1 UNL1        0.0000
      4 C4          7.4480    1.0999   23.5076 C.ar      1 UNL1        0.0000
      5 C5          8.6325   -1.2728   29.7155 C.ar      1 UNL1        0.0000
      6 C6         11.6635   -1.5314   22.7751 C.ar      1 UNL1        0.0000
      7 C7          8.2141   -1.5754   27.3554 C.ar      1 UNL1        0.0000
      8 C8          7.7999   -0.6744   21.3837 C.ar      1 UNL1        0.0000
      9 C9          6.3636    0.3689   23.0225 C.ar      1 UNL1        0.0000
     10 C10         6.1315   -4.3761   19.2724 C.ar      1 UNL1        0.0000
     11 C11         6.3796   -5.3430   20.2462 C.ar      1 UNL1        0.0000
     12 C12         8.6209   -2.6560   29.8950 C.ar      1 UNL1        0.0000
     13 C13        11.3744   -2.6821   23.5002 C.ar      1 UNL1        0.0000
     14 C14         5.9665   -3.7084   21.9716 C.ar      1 UNL1        0.0000
     15 C15         6.7868   -4.3127   25.9105 C.2       1 UNL1        0.0000
     16 C16        11.5584   -0.3121   23.4247 C.ar      1 UNL1        0.0000
     17 C17        10.9195   -1.3135   25.3912 C.ar      1 UNL1        0.0000
     18 C18         8.4560   -5.1098   24.6266 C.2       1 UNL1        0.0000
     19 C19         8.2025   -2.9587   27.5348 C.ar      1 UNL1        0.0000
     20 C20         6.5395   -0.5182   21.9605 C.ar      1 UNL1        0.0000
     21 C21         5.8020   -3.0617   19.6367 C.ar      1 UNL1        0.0000
     22 C22         5.7111   -2.7267   21.0004 C.ar      1 UNL1        0.0000
     23 C23         7.0881   -5.1230   24.7881 C.2       1 UNL1        0.0000
     24 C24         6.2988   -5.0089   21.5950 C.ar      1 UNL1        0.0000
     25 C25         8.4058   -3.4990   28.8046 C.ar      1 UNL1        0.0000
     26 C26        10.9945   -2.5797   24.8338 C.ar      1 UNL1        0.0000
     27 C27         7.9798   -3.8288   26.4006 C.2       1 UNL1        0.0000
     28 C28         5.6212    0.4726   18.3007 C.2       1 UNL1        0.0000
     29 C29         5.5450   -2.0482   18.5477 C.3       1 UNL1        0.0000
     30 C30         4.6220   -0.5627   20.3094 C.3       1 UNL1        0.0000
     31 C31         5.3548   -1.3160   21.4311 C.3       1 UNL1        0.0000
     32 C32         6.1000   -5.8608   23.9317 C.3       1 UNL1        0.0000
     33 C33         5.3143    1.7895   18.9695 C.3       1 UNL1        0.0000
     34 N1         11.1926   -0.1729   24.7187 N.ar      1 UNL1        0.0000
     35 N2          8.9875   -4.3197   25.6122 N.pl3     1 UNL1        0.0000
     36 N3          5.3258   -0.6795   19.0330 N.am      1 UNL1        0.0000
     37 N4          6.5514   -5.9857   22.5803 N.pl3     1 UNL1        0.0000
     38 O1          6.0997    0.4686   17.1639 O.2       1 UNL1        0.0000
     39 O2         11.2901   -5.1712   25.1795 O.2       1 UNL1        0.0000
     40 O3         10.8730   -3.6662   27.1880 O.2       1 UNL1        0.0000
     41 F1          8.3974   -4.8267   28.9937 F         1 UNL1        0.0000
     42 S1         10.6179   -4.0252   25.7910 S.o2      1 UNL1        0.0000
     43 Cl1         5.8140    3.0510   17.8489 Cl        1 UNL1        0.0000
@<TRIPOS>BOND
     1    1    3 ar
     2    1    4 ar
     3    2    5 ar
     4    2    7 ar
     5    3    8 ar
     6    4    9 ar
     7    5   12 ar
     8    6   13 ar
     9    6   16 ar
    10    7   19 ar
    11    8   20 ar
    12    9   20 ar
    13   10   11 ar
    14   10   21 ar
    15   11   24 ar
    16   12   25 ar
    17   13   26 ar
    18   14   22 ar
    19   14   24 ar
    20   15   23 1
    21   15   27 2
    22   16   34 ar
    23   17   26 ar
    24   17   34 ar
    25   18   23 2
    26   18   35 1
    27   19   25 ar
    28   19   27 1
    29   20   31 1
    30   21   22 ar
    31   21   29 1
    32   22   31 1
    33   23   32 1
    34   24   37 1
    35   25   41 1
    36   26   42 1
    37   27   35 1
    38   28   33 1
    39   28   36 am
    40   28   38 2
    41   29   36 1
    42   30   31 1
    43   30   36 1
    44   32   37 1
    45   33   43 1
    46   35   42 1
    47   39   42 2
    48   40   42 2
@<TRIPOS>MOLECULE
MAK-UNK-8fd-1
   40    43     0     0     0
SMALL
NO_CHARGES

@<TRIPOS>ATOM
      1 C1         10.0913   -5.2047   24.2077 C.ar      1 UNL1        0.0000
      2 C2         10.5844   -4.8747   22.9453 C.ar      1 UNL1        0.0000
      3 C3          5.7986   -6.4991   25.8228 C.ar      1 UNL1        0.0000
      4 C4          9.3563   -4.2691   24.9358 C.ar      1 UNL1        0.0000
      5 C5         10.3426   -3.6091   22.4111 C.ar      1 UNL1        0.0000
      6 C6          6.2089   -5.4117   25.0596 C.ar      1 UNL1        0.0000
      7 C7          8.8086   -1.0987   26.0611 C.2       1 UNL1        0.0000
      8 C8          4.6564   -6.3562   26.5940 C.ar      1 UNL1        0.0000
      9 C9          4.3470   -4.1899   25.8943 C.ar      1 UNL1        0.0000
     10 C10         6.5690   -0.9141   25.9195 C.2       1 UNL1        0.0000
     11 C11         9.1145   -3.0035   24.4016 C.ar      1 UNL1        0.0000
     12 C12         7.6804   -0.3888   26.5409 C.2       1 UNL1        0.0000
     13 C13         9.6076   -2.6735   23.1392 C.ar      1 UNL1        0.0000
     14 C14         5.4748   -4.2313   25.0905 C.ar      1 UNL1        0.0000
     15 C15         8.3523   -2.0362   25.1610 C.2       1 UNL1        0.0000
     16 C16        10.4688    2.5536   23.8647 C.2       1 UNL1        0.0000
     17 C17        12.8114   -1.3959   21.6346 C.2       1 UNL1        0.0000
     18 C18        12.3302    0.9518   24.2651 C.3       1 UNL1        0.0000
     19 C19        12.1087    2.1301   22.0233 C.3       1 UNL1        0.0000
     20 C20        11.7820   -0.3129   23.6065 C.3       1 UNL1        0.0000
     21 C21        11.5846    0.8220   21.4294 C.3       1 UNL1        0.0000
     22 C22        11.8971    2.2285   23.5375 C.3       1 UNL1        0.0000
     23 C23         8.2483    4.6110   24.4040 C.3       1 UNL1        0.0000
     24 C24        11.3378    3.7913   25.8544 C.3       1 UNL1        0.0000
     25 C25         7.6921    0.7292   27.5414 C.3       1 UNL1        0.0000
     26 C26        13.0934   -1.3353   20.1545 C.3       1 UNL1        0.0000
     27 C27         8.0688    2.4846   25.8049 C.3       1 UNL1        0.0000
     28 C28         8.9082    3.7092   25.4427 C.3       1 UNL1        0.0000
     29 N1          3.9174   -5.2256   26.6496 N.ar      1 UNL1        0.0000
     30 N2          6.9895   -1.9146   25.0826 N.pl3     1 UNL1        0.0000
     31 N3         12.0943   -0.3308   22.1781 N.am      1 UNL1        0.0000
     32 N4         10.2479    3.3211   25.0089 N.am      1 UNL1        0.0000
     33 N5          8.4982    1.8995   27.0988 N.4       1 UNL1        0.0000
     34 O1          9.5724    2.1382   23.1255 O.2       1 UNL1        0.0000
     35 O2         13.2188   -2.3607   22.2868 O.2       1 UNL1        0.0000
     36 O3          6.7873   -3.2900   23.0134 O.2       1 UNL1        0.0000
     37 O4          4.7476   -2.0475   23.8904 O.2       1 UNL1        0.0000
     38 F1          9.3837   -1.4610   22.6115 F         1 UNL1        0.0000
     39 S1          5.9670   -2.8228   24.1305 S.o2      1 UNL1        0.0000
     40 Cl1        14.0307   -2.7721   19.7611 Cl        1 UNL1        0.0000
@<TRIPOS>BOND
     1    1    2 ar
     2    1    4 ar
     3    2    5 ar
     4    3    6 ar
     5    3    8 ar
     6    4   11 ar
     7    5   13 ar
     8    6   14 ar
     9    7   12 1
    10    7   15 2
    11    8   29 ar
    12    9   14 ar
    13    9   29 ar
    14   10   12 2
    15   10   30 1
    16   11   13 ar
    17   11   15 1
    18   12   25 1
    19   13   38 1
    20   14   39 1
    21   15   30 1
    22   16   22 1
    23   16   32 am
    24   16   34 2
    25   17   26 1
    26   17   31 am
    27   17   35 2
    28   18   20 1
    29   18   22 1
    30   19   21 1
    31   19   22 1
    32   20   31 1
    33   21   31 1
    34   23   28 1
    35   24   32 1
    36   25   33 1
    37   26   40 1
    38   27   28 1
    39   27   33 1
    40   28   32 1
    41   30   39 1
    42   36   39 2
    43   37   39 2
@<TRIPOS>MOLECULE
GIA-UNK-d2d-8
   21    22     0     0     0
SMALL
NO_CHARGES

@<TRIPOS>ATOM
      1 C1          4.3999    0.9711   21.8165 C.2       1 UNL1        0.0000
      2 C2          2.0907    1.7185   23.9105 C.2       1 UNL1        0.0000
      3 C3          6.7880    0.1713   19.6565 C.2       1 UNL1        0.0000
      4 C4         -1.9680    3.1338   24.3346 C.3       1 UNL1        0.0000
      5 C5         -1.6417    2.2337   23.1466 C.3       1 UNL1        0.0000
      6 C6         -0.8328    4.1102   24.6271 C.3       1 UNL1        0.0000
      7 C7          4.8453    3.9373   22.7955 C.3       1 UNL1        0.0000
      8 C8          5.5772    2.6557   23.1843 C.3       1 UNL1        0.0000
      9 C9         -0.3145    1.5051   23.3399 C.3       1 UNL1        0.0000
     10 C10         0.4965    3.3861   24.8236 C.3       1 UNL1        0.0000
     11 C11         3.4968    3.7878   23.4821 C.3       1 UNL1        0.0000
     12 C12         4.4722    1.6050   23.1927 C.3       1 UNL1        0.0000
     13 C13         0.8277    2.4795   23.6361 C.3       1 UNL1        0.0000
     14 C14         5.2167   -0.2701   21.5216 C.3       1 UNL1        0.0000
     15 C15         6.9941   -0.0719   18.1833 C.3       1 UNL1        0.0000
     16 N1          3.2626    2.3478   23.5262 N.am      1 UNL1        0.0000
     17 N2          5.6026   -0.3681   20.1463 N.am      1 UNL1        0.0000
     18 O1          3.6840    1.4604   20.9391 O.2       1 UNL1        0.0000
     19 O2          2.0455    0.6057   24.4376 O.2       1 UNL1        0.0000
     20 O3          7.6147    0.7773   20.3359 O.2       1 UNL1        0.0000
     21 Cl1         6.2695    1.2816   17.3013 Cl        1 UNL1        0.0000
@<TRIPOS>BOND
     1    1   12 1
     2    1   14 1
     3    1   18 2
     4    2   13 1
     5    2   16 am
     6    2   19 2
     7    3   15 1
     8    3   17 am
     9    3   20 2
    10    4    5 1
    11    4    6 1
    12    5    9 1
    13    6   10 1
    14    7    8 1
    15    7   11 1
    16    8   12 1
    17    9   13 1
    18   10   13 1
    19   11   16 1
    20   12   16 1
    21   14   17 1
    22   15   21 1
@<TRIPOS>MOLECULE
MAK-UNK-8fd-31
   40    43     0     0     0
SMALL
NO_CHARGES

@<TRIPOS>ATOM
      1 C1          9.4866   -2.4828   20.4792 C.ar      1 UNL1        0.0000
      2 C2          6.4833   -6.4700   27.5202 C.ar      1 UNL1        0.0000
      3 C3         10.5460   -2.1428   21.3203 C.ar      1 UNL1        0.0000
      4 C4          8.1943   -2.5893   20.9933 C.ar      1 UNL1        0.0000
      5 C5          7.6057   -5.7440   27.1375 C.ar      1 UNL1        0.0000
      6 C6          8.4237   -0.5951   25.2142 C.2       1 UNL1        0.0000
      7 C7          5.5162   -6.7227   26.5608 C.ar      1 UNL1        0.0000
      8 C8          6.7022   -5.6043   24.9419 C.ar      1 UNL1        0.0000
      9 C9          8.4923   -2.2204   26.7709 C.2       1 UNL1        0.0000
     10 C10         9.0209   -2.0158   23.1899 C.ar      1 UNL1        0.0000
     11 C11         8.2591   -0.8746   26.5932 C.2       1 UNL1        0.0000
     12 C12        10.3132   -1.9093   22.6757 C.ar      1 UNL1        0.0000
     13 C13         7.9615   -2.3558   22.3487 C.ar      1 UNL1        0.0000
     14 C14         7.7249   -5.2990   25.8256 C.ar      1 UNL1        0.0000
     15 C15         8.7523   -1.7787   24.5909 C.2       1 UNL1        0.0000
     16 C16        11.4706   -0.3349   24.2227 C.2       1 UNL1        0.0000
     17 C17        12.4866    4.8870   23.9373 C.2       1 UNL1        0.0000
     18 C18        10.3065    1.8377   24.5432 C.3       1 UNL1        0.0000
     19 C19        11.9491    1.4824   22.6165 C.3       1 UNL1        0.0000
     20 C20        11.3235    2.8949   24.9679 C.3       1 UNL1        0.0000
     21 C21        11.7862    2.9942   22.5135 C.3       1 UNL1        0.0000
     22 C22        10.8828    0.8525   23.5199 C.3       1 UNL1        0.0000
     23 C23        12.5839   -2.9535   25.1581 C.3       1 UNL1        0.0000
     24 C24        13.7959   -2.0273   23.1533 C.3       1 UNL1        0.0000
     25 C25        10.2365    0.2886   28.5178 C.3       1 UNL1        0.0000
     26 C26         7.9037    0.0959   27.6464 C.3       1 UNL1        0.0000
     27 C27        13.1789    5.1796   25.2461 C.3       1 UNL1        0.0000
     28 C28        12.4815   -2.5779   23.6869 C.3       1 UNL1        0.0000
     29 N1          5.5970   -6.3070   25.2769 N.ar      1 UNL1        0.0000
     30 N2          8.7909   -2.7599   25.5469 N.pl3     1 UNL1        0.0000
     31 N3         11.8787    3.6347   23.8273 N.am      1 UNL1        0.0000
     32 N4         11.4354   -1.5569   23.5221 N.am      1 UNL1        0.0000
     33 N5          9.0262    1.0017   28.0408 N.4       1 UNL1        0.0000
     34 O1         11.9675   -0.1571   25.3377 O.2       1 UNL1        0.0000
     35 O2         12.4817    5.7404   23.0470 O.2       1 UNL1        0.0000
     36 O3         10.2514   -4.6700   26.2049 O.2       1 UNL1        0.0000
     37 O4          9.2686   -4.6007   23.8592 O.2       1 UNL1        0.0000
     38 F1          6.7121   -2.4617   22.8252 F         1 UNL1        0.0000
     39 S1          9.1421   -4.3701   25.3002 S.o2      1 UNL1        0.0000
     40 Cl1        12.4114    6.6168   25.9116 Cl        1 UNL1        0.0000
@<TRIPOS>BOND
     1    1    3 ar
     2    1    4 ar
     3    2    5 ar
     4    2    7 ar
     5    3   12 ar
     6    4   13 ar
     7    5   14 ar
     8    6   11 1
     9    6   15 2
    10    7   29 ar
    11    8   14 ar
    12    8   29 ar
    13    9   11 2
    14    9   30 1
    15   10   12 ar
    16   10   13 ar
    17   10   15 1
    18   11   26 1
    19   12   32 1
    20   13   38 1
    21   14   39 1
    22   15   30 1
    23   16   22 1
    24   16   32 am
    25   16   34 2
    26   17   27 1
    27   17   31 am
    28   17   35 2
    29   18   20 1
    30   18   22 1
    31   19   21 1
    32   19   22 1
    33   20   31 1
    34   21   31 1
    35   23   28 1
    36   24   28 1
    37   25   33 1
    38   26   33 1
    39   27   40 1
    40   28   32 1
    41   30   39 1
    42   36   39 2
    43   37   39 2
@<TRIPOS>MOLECULE
DAV-CRI-f9b-5
   74    77     0     0     0
SMALL
NO_CHARGES

@<TRIPOS>ATOM
      1 C1         12.3325   -2.9149   25.3901 C.ar      1 UNL1        0.0000
      2 C2         12.0997   -0.1637   22.9700 C.ar      1 UNL1        0.0000
      3 C3         11.8766   -4.2165   25.6142 C.ar      1 UNL1        0.0000
      4 C4         12.5719    1.1322   22.7620 C.ar      1 UNL1        0.0000
      5 C5         10.6405   -2.5668   23.6933 C.ar      1 UNL1        0.0000
      6 C6         12.8024   -0.0493   25.2787 C.ar      1 UNL1        0.0000
      7 C7         11.7240   -2.0991   24.4426 C.ar      1 UNL1        0.0000
      8 C8         12.2148   -0.7544   24.2284 C.ar      1 UNL1        0.0000
      9 C9         10.1599   -3.8780   23.8998 C.ar      1 UNL1        0.0000
     10 C10        13.2747    1.2466   25.0707 C.ar      1 UNL1        0.0000
     11 C11        10.7879   -4.6797   24.8578 C.ar      1 UNL1        0.0000
     12 C12        13.1595    1.8373   23.8123 C.ar      1 UNL1        0.0000
     13 C13         8.9325   -5.6981   23.6807 C.2       1 UNL1        0.0000
     14 C14         4.6868   -5.1654   24.5897 C.2       1 UNL1        0.0000
     15 C15         7.6726   -1.7610   18.6813 C.2       1 UNL1        0.0000
     16 C16         5.7469   -3.0729   20.9547 C.2       1 UNL1        0.0000
     17 C17         7.6360   -6.4985   21.6619 C.3       1 UNL1        0.0000
     18 C18         6.1746   -6.2643   21.2893 C.3       1 UNL1        0.0000
     19 C19         6.5434   -6.6637   23.9824 C.3       1 UNL1        0.0000
     20 C20         7.8591   -6.6573   23.1811 C.3       1 UNL1        0.0000
     21 C21         5.5220   -5.2184   22.1936 C.3       1 UNL1        0.0000
     22 C22         7.8733    0.2258   23.8995 C.3       1 UNL1        0.0000
     23 C23         3.6993   -4.1029   24.1719 C.3       1 UNL1        0.0000
     24 C24         7.8422   -1.9212   20.1819 C.3       1 UNL1        0.0000
     25 C25         6.5358   -1.7740   20.9625 C.3       1 UNL1        0.0000
     26 C26         7.1423    0.0882   22.5664 C.3       1 UNL1        0.0000
     27 N1          9.0994   -4.4752   23.2341 N.2       1 UNL1        0.0000
     28 N2          5.5783   -5.6217   23.6104 N.am      1 UNL1        0.0000
     29 N3          8.8491   -1.9780   17.9959 N.am      1 UNL1        0.0000
     30 N4          5.9555    0.9376   22.5771 N.3       1 UNL1        0.0000
     31 N5         13.3137    3.5999   21.8188 N.pl3     1 UNL1        0.0000
     32 N6          6.1279   -3.9236   21.9812 N.am      1 UNL1        0.0000
     33 N7          6.8509   -1.3744   22.3654 N.4       1 UNL1        0.0000
     34 O1         13.8103    1.8717   26.0550 O.3       1 UNL1        0.0000
     35 O2          4.6624   -5.5865   25.7495 O.2       1 UNL1        0.0000
     36 O3          6.6104   -1.4762   18.1360 O.2       1 UNL1        0.0000
     37 O4          4.8720   -3.3126   20.1256 O.2       1 UNL1        0.0000
     38 O5         12.9197    4.3933   24.2397 O.2       1 UNL1        0.0000
     39 O6         15.1749    3.4730   23.5955 O.2       1 UNL1        0.0000
     40 S1         10.0087   -6.2171   24.9048 S.3       1 UNL1        0.0000
     41 S2         13.7281    3.4655   23.4685 S.o2      1 UNL1        0.0000
     42 Cl1         2.2834   -4.9466   23.5550 Cl        1 UNL1        0.0000
     43 H          12.3325   -2.9149   25.3901 H         1 UNL1        0.0000
     44 H          12.0997   -0.1637   22.9700 H         1 UNL1        0.0000
     45 H          11.8766   -4.2165   25.6142 H         1 UNL1        0.0000
     46 H          12.5719    1.1322   22.7620 H         1 UNL1        0.0000
     47 H          10.6405   -2.5668   23.6933 H         1 UNL1        0.0000
     48 H          12.8024   -0.0493   25.2787 H         1 UNL1        0.0000
     49 H           7.6360   -6.4985   21.6619 H         1 UNL1        0.0000
     50 H           7.6360   -6.4985   21.6619 H         1 UNL1        0.0000
     51 H           6.1746   -6.2643   21.2893 H         1 UNL1        0.0000
     52 H           6.1746   -6.2643   21.2893 H         1 UNL1        0.0000
     53 H           6.5434   -6.6637   23.9824 H         1 UNL1        0.0000
     54 H           6.5434   -6.6637   23.9824 H         1 UNL1        0.0000
     55 H           7.8591   -6.6573   23.1811 H         1 UNL1        0.0000
     56 H           5.5220   -5.2184   22.1936 H         1 UNL1        0.0000
     57 H           7.8733    0.2258   23.8995 H         1 UNL1        0.0000
     58 H           7.8733    0.2258   23.8995 H         1 UNL1        0.0000
     59 H           7.8733    0.2258   23.8995 H         1 UNL1        0.0000
     60 H           3.6993   -4.1029   24.1719 H         1 UNL1        0.0000
     61 H           3.6993   -4.1029   24.1719 H         1 UNL1        0.0000
     62 H           7.8422   -1.9212   20.1819 H         1 UNL1        0.0000
     63 H           7.8422   -1.9212   20.1819 H         1 UNL1        0.0000
     64 H           6.5358   -1.7740   20.9625 H         1 UNL1        0.0000
     65 H           7.1423    0.0882   22.5664 H         1 UNL1        0.0000
     66 H           8.8491   -1.9780   17.9959 H         1 UNL1        0.0000
     67 H           8.8491   -1.9780   17.9959 H         1 UNL1        0.0000
     68 H           5.9555    0.9376   22.5771 H         1 UNL1        0.0000
     69 H           5.9555    0.9376   22.5771 H         1 UNL1        0.0000
     70 H          13.3137    3.5999   21.8188 H         1 UNL1        0.0000
     71 H          13.3137    3.5999   21.8188 H         1 UNL1        0.0000
     72 H           6.1279   -3.9236   21.9812 H         1 UNL1        0.0000
     73 H           6.8509   -1.3744   22.3654 H         1 UNL1        0.0000
     74 H           6.8509   -1.3744   22.3654 H         1 UNL1        0.0000
@<TRIPOS>BOND
     1    1    3 ar
     2    1    7 ar
     3    2    4 ar
     4    2    8 ar
     5    3   11 ar
     6    4   12 ar
     7    5    7 ar
     8    5    9 ar
     9    6    8 ar
    10    6   10 ar
    11    7    8 1
    12    9   11 ar
    13    9   27 1
    14   10   12 ar
    15   10   34 1
    16   11   40 1
    17   12   41 1
    18   13   20 1
    19   13   27 2
    20   13   40 1
    21   14   23 1
    22   14   28 am
    23   14   35 2
    24   15   24 1
    25   15   29 am
    26   15   36 2
    27   16   25 1
    28   16   32 am
    29   16   37 2
    30   17   18 1
    31   17   20 1
    32   18   21 1
    33   19   20 1
    34   19   28 1
    35   21   28 1
    36   21   32 1
    37   22   26 1
    38   23   42 1
    39   24   25 1
    40   25   33 1
    41   26   30 1
    42   26   33 1
    43   31   41 1
    44   38   41 2
    45   39   41 2
    46    1   43 1
    47    2   44 1
    48    3   45 1
    49    4   46 1
    50    5   47 1
    51    6   48 1
    52   17   49 1
    53   17   50 1
    54   18   51 1
    55   18   52 1
    56   19   53 1
    57   19   54 1
    58   20   55 1
    59   21   56 1
    60   22   57 1
    61   22   58 1
    62   22   59 1
    63   23   60 1
    64   23   61 1
    65   24   62 1
    66   24   63 1
    67   25   64 1
    68   26   65 1
    69   29   66 1
    70   29   67 1
    71   30   68 1
    72   30   69 1
    73   31   70 1
    74   31   71 1
    75   32   72 1
    76   33   73 1
    77   33   74 1
@<TRIPOS>MOLECULE
MAK-UNK-8fd-40
   40    43     0     0     0
SMALL
NO_CHARGES

@<TRIPOS>ATOM
      1 C1         13.5007   -1.1941   20.8168 C.ar      1 UNL1        0.0000
      2 C2         14.7708   -0.7249   21.1517 C.ar      1 UNL1        0.0000
      3 C3          8.4397    5.4092   23.7188 C.ar      1 UNL1        0.0000
      4 C4         12.4172   -0.9331   21.6556 C.ar      1 UNL1        0.0000
      5 C5         14.9575    0.0052   22.3255 C.ar      1 UNL1        0.0000
      6 C6          8.8881    4.2405   23.1137 C.ar      1 UNL1        0.0000
      7 C7         11.0044   -0.6897   24.7479 C.2       1 UNL1        0.0000
      8 C8          9.3622    6.1753   24.4130 C.ar      1 UNL1        0.0000
      9 C9         11.0690    4.7134   23.9360 C.ar      1 UNL1        0.0000
     10 C10         9.7029    1.1363   24.5440 C.2       1 UNL1        0.0000
     11 C11        12.6038   -0.2031   22.8294 C.ar      1 UNL1        0.0000
     12 C12         9.8820   -0.0115   25.2841 C.2       1 UNL1        0.0000
     13 C13        13.8740    0.2661   23.1644 C.ar      1 UNL1        0.0000
     14 C14        10.2265    3.8787   23.2196 C.ar      1 UNL1        0.0000
     15 C15        11.4770    0.0644   23.6965 C.2       1 UNL1        0.0000
     16 C16         6.4654   -0.6744   27.7883 C.2       1 UNL1        0.0000
     17 C17         4.4275   -5.2372   26.7459 C.2       1 UNL1        0.0000
     18 C18         4.5009   -2.0799   28.3854 C.3       1 UNL1        0.0000
     19 C19         6.8378   -3.0806   28.3635 C.3       1 UNL1        0.0000
     20 C20         4.2298   -2.7914   27.0610 C.3       1 UNL1        0.0000
     21 C21         6.4871   -3.7769   27.0479 C.3       1 UNL1        0.0000
     22 C22         5.9934   -1.8289   28.6233 C.3       1 UNL1        0.0000
     23 C23         6.1922    2.4107   28.1378 C.3       1 UNL1        0.0000
     24 C24         6.1264    1.1360   30.2830 C.3       1 UNL1        0.0000
     25 C25         8.4855   -0.6083   29.2662 C.3       1 UNL1        0.0000
     26 C26         9.0423   -0.4595   26.4438 C.3       1 UNL1        0.0000
     27 C27         5.3370   -6.4355   26.6421 C.3       1 UNL1        0.0000
     28 C28         6.9940    1.4830   29.0628 C.3       1 UNL1        0.0000
     29 C29         7.5813    0.2275   28.3497 C.3       1 UNL1        0.0000
     30 N1         10.6700    5.8564   24.5377 N.ar      1 UNL1        0.0000
     31 N2         10.6784    1.1721   23.5820 N.pl3     1 UNL1        0.0000
     32 N3          5.0420   -4.0020   26.9471 N.am      1 UNL1        0.0000
     33 N4          8.4523    0.6657   27.2009 N.4       1 UNL1        0.0000
     34 O1          5.9527   -0.4639   26.6865 O.2       1 UNL1        0.0000
     35 O2          3.2076   -5.3967   26.6528 O.2       1 UNL1        0.0000
     36 O3          9.9376    2.0359   21.3640 O.2       1 UNL1        0.0000
     37 O4         12.2625    2.6188   22.2172 O.2       1 UNL1        0.0000
     38 F1         14.0700    0.9696   24.2892 F         1 UNL1        0.0000
     39 S1         10.8356    2.3951   22.4611 S.o2      1 UNL1        0.0000
     40 Cl1         4.2977   -7.8399   26.4296 Cl        1 UNL1        0.0000
@<TRIPOS>BOND
     1    1    2 ar
     2    1    4 ar
     3    2    5 ar
     4    3    6 ar
     5    3    8 ar
     6    4   11 ar
     7    5   13 ar
     8    6   14 ar
     9    7   12 1
    10    7   15 2
    11    8   30 ar
    12    9   14 ar
    13    9   30 ar
    14   10   12 2
    15   10   31 1
    16   11   13 ar
    17   11   15 1
    18   12   26 1
    19   13   38 1
    20   14   39 1
    21   15   31 1
    22   16   22 1
    23   16   29 1
    24   16   34 2
    25   17   27 1
    26   17   32 am
    27   17   35 2
    28   18   20 1
    29   18   22 1
    30   19   21 1
    31   19   22 1
    32   20   32 1
    33   21   32 1
    34   23   28 1
    35   24   28 1
    36   25   29 1
    37   26   33 1
    38   27   40 1
    39   28   29 1
    40   29   33 1
    41   31   39 1
    42   36   39 2
    43   37   39 2
@<TRIPOS>MOLECULE
MAK-UNK-8fd-36
   40    43     0     0     0
SMALL
NO_CHARGES

@<TRIPOS>ATOM
      1 C1         14.0934   -1.9871   21.0576 C.ar      1 UNL1        0.0000
      2 C2         14.8801   -1.4033   22.0505 C.ar      1 UNL1        0.0000
      3 C3         11.9217    3.1669   24.1385 C.ar      1 UNL1        0.0000
      4 C4         12.7084   -2.0494   21.2119 C.ar      1 UNL1        0.0000
      5 C5         14.2820   -0.8820   23.1977 C.ar      1 UNL1        0.0000
      6 C6         11.7501    2.2036   23.1506 C.ar      1 UNL1        0.0000
      7 C7          9.9183   -2.5924   23.0929 C.2       1 UNL1        0.0000
      8 C8         10.8170    3.9138   24.5148 C.ar      1 UNL1        0.0000
      9 C9          9.4559    2.8173   23.0238 C.ar      1 UNL1        0.0000
     10 C10         8.5266   -0.9750   22.3739 C.2       1 UNL1        0.0000
     11 C11        12.1103   -1.5281   22.3591 C.ar      1 UNL1        0.0000
     12 C12         8.5601   -2.1995   23.0038 C.2       1 UNL1        0.0000
     13 C13        12.8971   -0.9444   23.3520 C.ar      1 UNL1        0.0000
     14 C14        10.4968    2.0192   22.5774 C.ar      1 UNL1        0.0000
     15 C15        10.6735   -1.5959   22.5149 C.2       1 UNL1        0.0000
     16 C16         6.8651   -5.2810   28.1879 C.2       1 UNL1        0.0000
     17 C17         7.8557    0.0517   26.7525 C.2       1 UNL1        0.0000
     18 C18         6.3551   -2.8675   28.4083 C.3       1 UNL1        0.0000
     19 C19         7.8557   -3.6917   26.5789 C.3       1 UNL1        0.0000
     20 C20         6.2136   -1.5362   27.6804 C.3       1 UNL1        0.0000
     21 C21         6.6294   -4.0088   27.4333 C.3       1 UNL1        0.0000
     22 C22         7.7649   -2.3306   25.8849 C.3       1 UNL1        0.0000
     23 C23         6.3924   -7.0610   30.5834 C.3       1 UNL1        0.0000
     24 C24         6.7025   -8.2883   28.4054 C.3       1 UNL1        0.0000
     25 C25         4.4004   -5.6714   28.0512 C.3       1 UNL1        0.0000
     26 C26         7.3755   -2.9733   23.5027 C.3       1 UNL1        0.0000
     27 C27         9.0315    0.2941   25.8388 C.3       1 UNL1        0.0000
     28 C28         5.8289   -7.3241   29.1945 C.3       1 UNL1        0.0000
     29 N1          9.5841    3.7633   23.9810 N.ar      1 UNL1        0.0000
     30 N2          9.8170   -0.6177   22.0816 N.pl3     1 UNL1        0.0000
     31 N3          7.3517   -1.2532   26.7977 N.am      1 UNL1        0.0000
     32 N4          5.7419   -6.0607   28.4664 N.am      1 UNL1        0.0000
     33 N5          6.7985   -2.4132   24.7512 N.4       1 UNL1        0.0000
     34 O1          8.0149   -5.5778   28.5229 O.2       1 UNL1        0.0000
     35 O2          7.4037    0.9919   27.4117 O.2       1 UNL1        0.0000
     36 O3          9.0639    1.1857   20.5342 O.2       1 UNL1        0.0000
     37 O4         11.5377    0.6060   20.6650 O.2       1 UNL1        0.0000
     38 F1         12.3373   -0.4385   24.4608 F         1 UNL1        0.0000
     39 S1         10.2392    0.8001   21.3145 S.o2      1 UNL1        0.0000
     40 Cl1        10.4803    0.0457   26.8065 Cl        1 UNL1        0.0000
@<TRIPOS>BOND
     1    1    2 ar
     2    1    4 ar
     3    2    5 ar
     4    3    6 ar
     5    3    8 ar
     6    4   11 ar
     7    5   13 ar
     8    6   14 ar
     9    7   12 1
    10    7   15 2
    11    8   29 ar
    12    9   14 ar
    13    9   29 ar
    14   10   12 2
    15   10   30 1
    16   11   13 ar
    17   11   15 1
    18   12   26 1
    19   13   38 1
    20   14   39 1
    21   15   30 1
    22   16   21 1
    23   16   32 am
    24   16   34 2
    25   17   27 1
    26   17   31 am
    27   17   35 2
    28   18   20 1
    29   18   21 1
    30   19   21 1
    31   19   22 1
    32   20   31 1
    33   22   31 1
    34   22   33 1
    35   23   28 1
    36   24   28 1
    37   25   32 1
    38   26   33 1
    39   27   40 1
    40   28   32 1
    41   30   39 1
    42   36   39 2
    43   37   39 2
@<TRIPOS>MOLECULE
MAK-UNK-8fd-16
   40    43     0     0     0
SMALL
NO_CHARGES

@<TRIPOS>ATOM
      1 C1         12.0214   -3.0294   21.6964 C.ar      1 UNL1        0.0000
      2 C2         13.2902   -2.6605   21.2498 C.ar      1 UNL1        0.0000
      3 C3          6.1328   -0.1846   21.0077 C.ar      1 UNL1        0.0000
      4 C4         11.2941   -2.1691   22.5191 C.ar      1 UNL1        0.0000
      5 C5         13.8320   -1.4314   21.6260 C.ar      1 UNL1        0.0000
      6 C6          7.1897    0.6420   21.3725 C.ar      1 UNL1        0.0000
      7 C7         11.0681    0.0160   25.1252 C.2       1 UNL1        0.0000
      8 C8          6.4349   -1.4387   20.5020 C.ar      1 UNL1        0.0000
      9 C9          8.6942   -1.0757   20.7074 C.ar      1 UNL1        0.0000
     10 C10         9.6529    1.5757   24.3288 C.2       1 UNL1        0.0000
     11 C11        11.8359   -0.9401   22.8953 C.ar      1 UNL1        0.0000
     12 C12        10.1666    1.0456   25.4917 C.2       1 UNL1        0.0000
     13 C13        13.1048   -0.5711   22.4488 C.ar      1 UNL1        0.0000
     14 C14         8.4979    0.1955   21.2226 C.ar      1 UNL1        0.0000
     15 C15        11.0780   -0.0516   23.7494 C.2       1 UNL1        0.0000
     16 C16         6.7922   -1.9603   27.4373 C.2       1 UNL1        0.0000
     17 C17         6.5788   -5.8136   24.0957 C.2       1 UNL1        0.0000
     18 C18         8.1997   -3.8101   26.5495 C.3       1 UNL1        0.0000
     19 C19         6.8900   -2.3166   24.9629 C.3       1 UNL1        0.0000
     20 C20         7.1524   -4.8986   26.3216 C.3       1 UNL1        0.0000
     21 C21         5.8926   -3.4596   24.7695 C.3       1 UNL1        0.0000
     22 C22         7.6517   -2.4033   26.2894 C.3       1 UNL1        0.0000
     23 C23         4.9988    0.9629   28.2364 C.3       1 UNL1        0.0000
     24 C24         6.9233    0.6174   29.8248 C.3       1 UNL1        0.0000
     25 C25         9.8319    1.4796   26.8883 C.3       1 UNL1        0.0000
     26 C26         6.5935   -5.4477   22.6329 C.3       1 UNL1        0.0000
     27 C27         7.5938    0.3599   26.9621 C.3       1 UNL1        0.0000
     28 C28         5.9929   -0.0349   28.8126 C.3       1 UNL1        0.0000
     29 N1          7.6929   -1.9073   20.3419 N.ar      1 UNL1        0.0000
     30 N2         10.2143    0.9013   23.2761 N.pl3     1 UNL1        0.0000
     31 N3          6.5350   -4.7564   25.0037 N.am      1 UNL1        0.0000
     32 N4          6.7924   -0.5937   27.7278 N.am      1 UNL1        0.0000
     33 N5          8.9365    0.5267   27.5956 N.4       1 UNL1        0.0000
     34 O1          6.1329   -2.8002   28.0554 O.2       1 UNL1        0.0000
     35 O2          6.6074   -7.0037   24.4196 O.2       1 UNL1        0.0000
     36 O3         11.0477    0.7751   20.9301 O.2       1 UNL1        0.0000
     37 O4          9.4000    2.6041   21.5724 O.2       1 UNL1        0.0000
     38 F1         13.6396    0.6071   22.8014 F         1 UNL1        0.0000
     39 S1          9.8721    1.2214   21.6769 S.o2      1 UNL1        0.0000
     40 Cl1         8.0132   -4.4384   22.3804 Cl        1 UNL1        0.0000
@<TRIPOS>BOND
     1    1    2 ar
     2    1    4 ar
     3    2    5 ar
     4    3    6 ar
     5    3    8 ar
     6    4   11 ar
     7    5   13 ar
     8    6   14 ar
     9    7   12 1
    10    7   15 2
    11    8   29 ar
    12    9   14 ar
    13    9   29 ar
    14   10   12 2
    15   10   30 1
    16   11   13 ar
    17   11   15 1
    18   12   25 1
    19   13   38 1
    20   14   39 1
    21   15   30 1
    22   16   22 1
    23   16   32 am
    24   16   34 2
    25   17   26 1
    26   17   31 am
    27   17   35 2
    28   18   20 1
    29   18   22 1
    30   19   21 1
    31   19   22 1
    32   20   31 1
    33   21   31 1
    34   23   28 1
    35   24   28 1
    36   25   33 1
    37   26   40 1
    38   27   32 1
    39   27   33 1
    40   28   32 1
    41   30   39 1
    42   36   39 2
    43   37   39 2
@<TRIPOS>MOLECULE
GIA-UNK-d2d-7
   21    22     0     0     0
SMALL
NO_CHARGES

@<TRIPOS>ATOM
      1 C1         -1.0385    4.6537   24.5701 C.ar      1 UNL1        0.0000
      2 C2         -1.0461    3.7346   23.5209 C.ar      1 UNL1        0.0000
      3 C3          0.0553    4.7176   25.4334 C.ar      1 UNL1        0.0000
      4 C4          0.0400    2.8793   23.3351 C.ar      1 UNL1        0.0000
      5 C5          1.1413    3.8623   25.2476 C.ar      1 UNL1        0.0000
      6 C6          1.1337    2.9431   24.1984 C.ar      1 UNL1        0.0000
      7 C7          2.2774    2.0423   24.0027 C.2       1 UNL1        0.0000
      8 C8          4.2334    0.6135   22.0507 C.2       1 UNL1        0.0000
      9 C9          6.8248   -0.0424   19.7066 C.2       1 UNL1        0.0000
     10 C10         4.6142    3.6938   21.6255 C.3       1 UNL1        0.0000
     11 C11         5.5164    2.7329   22.3964 C.3       1 UNL1        0.0000
     12 C12         3.3726    3.7820   22.5001 C.3       1 UNL1        0.0000
     13 C13         4.5355    1.7342   22.9997 C.3       1 UNL1        0.0000
     14 C14         5.3330   -0.3528   21.6611 C.3       1 UNL1        0.0000
     15 C15         6.8642   -0.1475   18.2034 C.3       1 UNL1        0.0000
     16 N1          3.3033    2.4899   23.1818 N.am      1 UNL1        0.0000
     17 N2          5.5869   -0.3676   20.2522 N.am      1 UNL1        0.0000
     18 O1          2.2376    0.9515   24.5674 O.2       1 UNL1        0.0000
     19 O2          3.0992    0.4760   21.5858 O.2       1 UNL1        0.0000
     20 O3          7.8136    0.2857   20.3600 O.2       1 UNL1        0.0000
     21 Cl1         6.4015    1.4255   17.5352 Cl        1 UNL1        0.0000
@<TRIPOS>BOND
     1    1    2 ar
     2    1    3 ar
     3    2    4 ar
     4    3    5 ar
     5    4    6 ar
     6    5    6 ar
     7    6    7 1
     8    7   16 am
     9    7   18 2
    10    8   13 1
    11    8   14 1
    12    8   19 2
    13    9   15 1
    14    9   17 am
    15    9   20 2
    16   10   11 1
    17   10   12 1
    18   11   13 1
    19   12   16 1
    20   13   16 1
    21   14   17 1
    22   15   21 1
@<TRIPOS>MOLECULE
MAK-UNK-8fd-7
   40    43     0     0     0
SMALL
NO_CHARGES

@<TRIPOS>ATOM
      1 C1         13.7467   -1.5522   21.9815 C.ar      1 UNL1        0.0000
      2 C2         14.3209   -0.5888   22.8108 C.ar      1 UNL1        0.0000
      3 C3         12.3889   -1.4836   21.6690 C.ar      1 UNL1        0.0000
      4 C4         13.5376    0.4431   23.3276 C.ar      1 UNL1        0.0000
      5 C5          8.1478   -0.5188   25.9770 C.ar      1 UNL1        0.0000
      6 C6          9.5901    0.2589   20.8042 C.2       1 UNL1        0.0000
      7 C7          9.2997    0.9716   27.4291 C.ar      1 UNL1        0.0000
      8 C8         10.4953   -0.1664   25.8311 C.ar      1 UNL1        0.0000
      9 C9          7.9942   -0.7435   22.0364 C.2       1 UNL1        0.0000
     10 C10        11.6056   -0.4517   22.1858 C.ar      1 UNL1        0.0000
     11 C11         8.1084    0.3857   27.0323 C.ar      1 UNL1        0.0000
     12 C12         8.1961    0.0321   20.9161 C.2       1 UNL1        0.0000
     13 C13        12.1798    0.5117   23.0151 C.ar      1 UNL1        0.0000
     14 C14         9.3601   -0.8058   25.3595 C.ar      1 UNL1        0.0000
     15 C15        10.1976   -0.3853   21.8594 C.2       1 UNL1        0.0000
     16 C16         6.0890   -1.6440   28.1324 C.2       1 UNL1        0.0000
     17 C17         6.0697   -6.7119   27.5190 C.2       1 UNL1        0.0000
     18 C18         5.2060   -3.3869   26.5915 C.3       1 UNL1        0.0000
     19 C19         4.9673   -3.6563   29.1082 C.3       1 UNL1        0.0000
     20 C20         6.3325   -4.4179   26.6307 C.3       1 UNL1        0.0000
     21 C21         6.0898   -4.6940   29.0662 C.3       1 UNL1        0.0000
     22 C22         5.0149   -2.6735   27.9338 C.3       1 UNL1        0.0000
     23 C23         7.0040    1.0991   29.1918 C.3       1 UNL1        0.0000
     24 C24         4.6153   -0.0501   26.8938 C.3       1 UNL1        0.0000
     25 C25         5.0555    1.8695   19.7576 C.3       1 UNL1        0.0000
     26 C26         7.1518    0.5337   20.0023 C.3       1 UNL1        0.0000
     27 C27         5.8821   -7.5920   28.7290 C.3       1 UNL1        0.0000
     28 C28         6.8052    0.7188   27.7260 C.3       1 UNL1        0.0000
     29 N1         10.4964    0.7179   26.8537 N.ar      1 UNL1        0.0000
     30 N2          9.2179   -0.9914   22.6016 N.pl3     1 UNL1        0.0000
     31 N3          6.1530   -5.3397   27.7516 N.am      1 UNL1        0.0000
     32 N4          5.8453   -0.3755   27.6046 N.am      1 UNL1        0.0000
     33 N5          6.1374    1.4113   20.6633 N.4       1 UNL1        0.0000
     34 O1          7.1170   -1.9561   28.7393 O.2       1 UNL1        0.0000
     35 O2          6.1379   -7.2301   26.4015 O.2       1 UNL1        0.0000
     36 O3         10.8036   -2.4310   23.8771 O.2       1 UNL1        0.0000
     37 O4          8.3003   -2.8199   24.1114 O.2       1 UNL1        0.0000
     38 F1         11.4403    1.5102   23.5200 F         1 UNL1        0.0000
     39 S1          9.4473   -1.9318   24.0352 S.o2      1 UNL1        0.0000
     40 Cl1         7.4922   -8.0451   29.2768 Cl        1 UNL1        0.0000
@<TRIPOS>BOND
     1    1    2 ar
     2    1    3 ar
     3    2    4 ar
     4    3   10 ar
     5    4   13 ar
     6    5   11 ar
     7    5   14 ar
     8    6   12 1
     9    6   15 2
    10    7   11 ar
    11    7   29 ar
    12    8   14 ar
    13    8   29 ar
    14    9   12 2
    15    9   30 1
    16   10   13 ar
    17   10   15 1
    18   11   28 1
    19   12   26 1
    20   13   38 1
    21   14   39 1
    22   15   30 1
    23   16   22 1
    24   16   32 am
    25   16   34 2
    26   17   27 1
    27   17   31 am
    28   17   35 2
    29   18   20 1
    30   18   22 1
    31   19   21 1
    32   19   22 1
    33   20   31 1
    34   21   31 1
    35   23   28 1
    36   24   32 1
    37   25   33 1
    38   26   33 1
    39   27   40 1
    40   28   32 1
    41   30   39 1
    42   36   39 2
    43   37   39 2
@<TRIPOS>MOLECULE
MAK-UNK-702-5
   43    48     0     0     0
SMALL
NO_CHARGES

@<TRIPOS>ATOM
      1 C1          6.1498    0.1042   18.0890 C.ar      1 UNL1        0.0000
      2 C2          9.0081   -5.8335   29.7322 C.ar      1 UNL1        0.0000
      3 C3          6.8753    1.2897   17.9720 C.ar      1 UNL1        0.0000
      4 C4          6.0633   -0.5418   19.3223 C.ar      1 UNL1        0.0000
      5 C5          5.4236    2.2189   24.1952 C.ar      1 UNL1        0.0000
      6 C6          5.8190    1.3058   25.1671 C.ar      1 UNL1        0.0000
      7 C7          7.6275   -5.7753   29.9221 C.ar      1 UNL1        0.0000
      8 C8          5.1501   -5.7871   24.6482 C.ar      1 UNL1        0.0000
      9 C9          9.5961   -5.1430   28.6723 C.ar      1 UNL1        0.0000
     10 C10         7.5145    1.8293   19.0882 C.ar      1 UNL1        0.0000
     11 C11         6.7025   -0.0022   20.4385 C.ar      1 UNL1        0.0000
     12 C12         6.1779    2.3672   23.0327 C.ar      1 UNL1        0.0000
     13 C13         6.9705    0.5421   24.9783 C.ar      1 UNL1        0.0000
     14 C14         6.8348   -5.0267   29.0521 C.ar      1 UNL1        0.0000
     15 C15         6.4354   -5.8624   25.1730 C.ar      1 UNL1        0.0000
     16 C16         9.9062   -2.3929   26.6828 C.2       1 UNL1        0.0000
     17 C17         5.0167   -5.5205   23.2951 C.ar      1 UNL1        0.0000
     18 C18         7.2925   -5.4101   23.0012 C.ar      1 UNL1        0.0000
     19 C19        10.2107   -3.3001   24.6446 C.2       1 UNL1        0.0000
     20 C20         8.8034   -4.3945   27.8023 C.ar      1 UNL1        0.0000
     21 C21         7.4282    1.1833   20.3215 C.ar      1 UNL1        0.0000
     22 C22         7.3405    1.6042   22.8298 C.ar      1 UNL1        0.0000
     23 C23         7.7443    0.6815   23.8139 C.ar      1 UNL1        0.0000
     24 C24        10.4080   -2.1522   25.3799 C.2       1 UNL1        0.0000
     25 C25         7.4227   -4.3363   27.9922 C.ar      1 UNL1        0.0000
     26 C26         7.5326   -5.6714   24.3405 C.ar      1 UNL1        0.0000
     27 C27         9.4178   -3.6807   26.7040 C.2       1 UNL1        0.0000
     28 C28        10.2038   -1.1481   21.6399 C.2       1 UNL1        0.0000
     29 C29         9.5600    1.2361   21.6766 C.3       1 UNL1        0.0000
     30 C30         8.1263    1.7719   21.5410 C.3       1 UNL1        0.0000
     31 C31         8.9921   -0.1632   23.6509 C.3       1 UNL1        0.0000
     32 C32        11.0380   -0.8819   24.8898 C.3       1 UNL1        0.0000
     33 C33        11.3739   -0.8005   20.7533 C.3       1 UNL1        0.0000
     34 N1          6.0585   -5.3293   22.4550 N.ar      1 UNL1        0.0000
     35 N2          9.6085   -4.2226   25.4598 N.pl3     1 UNL1        0.0000
     36 N3          9.5808   -0.0869   22.3027 N.am      1 UNL1        0.0000
     37 N4         10.0527    0.1983   24.6446 N.4       1 UNL1        0.0000
     38 O1          9.8640   -2.3290   21.7515 O.2       1 UNL1        0.0000
     39 O2          9.1715   -6.5640   26.1953 O.2       1 UNL1        0.0000
     40 O3         10.0371   -6.1363   23.8414 O.2       1 UNL1        0.0000
     41 F1          6.6467   -3.6210   27.1646 F         1 UNL1        0.0000
     42 S1          9.1875   -5.7599   24.9738 S.o2      1 UNL1        0.0000
     43 Cl1        12.5652   -0.0109   21.7799 Cl        1 UNL1        0.0000
@<TRIPOS>BOND
     1    1    3 ar
     2    1    4 ar
     3    2    7 ar
     4    2    9 ar
     5    3   10 ar
     6    4   11 ar
     7    5    6 ar
     8    5   12 ar
     9    6   13 ar
    10    7   14 ar
    11    8   15 ar
    12    8   17 ar
    13    9   20 ar
    14   10   21 ar
    15   11   21 ar
    16   12   22 ar
    17   13   23 ar
    18   14   25 ar
    19   15   26 ar
    20   16   24 1
    21   16   27 2
    22   17   34 ar
    23   18   26 ar
    24   18   34 ar
    25   19   24 2
    26   19   35 1
    27   20   25 ar
    28   20   27 1
    29   21   30 1
    30   22   23 ar
    31   22   30 1
    32   23   31 1
    33   24   32 1
    34   25   41 1
    35   26   42 1
    36   27   35 1
    37   28   33 1
    38   28   36 am
    39   28   38 2
    40   29   30 1
    41   29   36 1
    42   31   36 1
    43   31   37 1
    44   32   37 1
    45   33   43 1
    46   35   42 1
    47   39   42 2
    48   40   42 2
@<TRIPOS>MOLECULE
MAK-UNK-8fd-14
   40    43     0     0     0
SMALL
NO_CHARGES

@<TRIPOS>ATOM
      1 C1          8.9202    0.9099   29.2066 C.ar      1 UNL1        0.0000
      2 C2         10.6084   -1.6629   21.2735 C.ar      1 UNL1        0.0000
      3 C3          9.2848   -2.1031   21.2693 C.ar      1 UNL1        0.0000
      4 C4          9.0110    0.4089   27.9127 C.ar      1 UNL1        0.0000
      5 C5         10.7723   -2.1780   23.6282 C.ar      1 UNL1        0.0000
      6 C6          8.8297   -4.4023   25.3246 C.2       1 UNL1        0.0000
      7 C7          7.6686    0.9523   29.7993 C.ar      1 UNL1        0.0000
      8 C8          6.6592    0.0557   27.9404 C.ar      1 UNL1        0.0000
      9 C9          7.7399   -3.0792   26.7846 C.2       1 UNL1        0.0000
     10 C10         9.4488   -2.6182   23.6241 C.ar      1 UNL1        0.0000
     11 C11        11.3522   -1.7004   22.4530 C.ar      1 UNL1        0.0000
     12 C12         8.1258   -4.3811   26.5539 C.2       1 UNL1        0.0000
     13 C13         8.7050   -2.5807   22.4446 C.ar      1 UNL1        0.0000
     14 C14         7.8635   -0.0284   27.2604 C.ar      1 UNL1        0.0000
     15 C15         8.8526   -3.1125   24.8416 C.2       1 UNL1        0.0000
     16 C16        12.4013    0.8338   23.8261 C.2       1 UNL1        0.0000
     17 C17         9.6745    4.8737   25.9753 C.2       1 UNL1        0.0000
     18 C18        11.3270    3.0024   23.2618 C.3       1 UNL1        0.0000
     19 C19        12.7758    2.7723   25.3546 C.3       1 UNL1        0.0000
     20 C20        10.9719    4.3161   23.9481 C.3       1 UNL1        0.0000
     21 C21        11.4672    3.0959   26.0718 C.3       1 UNL1        0.0000
     22 C22        12.5460    2.3272   23.9046 C.3       1 UNL1        0.0000
     23 C23        13.6471   -1.9615   23.4811 C.3       1 UNL1        0.0000
     24 C24        13.4674    0.9749   21.5701 C.3       1 UNL1        0.0000
     25 C25         8.4722   -6.7774   29.5067 C.3       1 UNL1        0.0000
     26 C26         7.8549   -5.5393   27.4271 C.3       1 UNL1        0.0000
     27 C27         9.4358    4.6119   27.4423 C.3       1 UNL1        0.0000
     28 C28        12.7886   -1.2237   22.4558 C.3       1 UNL1        0.0000
     29 N1          6.5317    0.5366   29.1974 N.ar      1 UNL1        0.0000
     30 N2          8.1874   -2.3167   25.7374 N.pl3     1 UNL1        0.0000
     31 N3         10.6768    4.1144   25.3684 N.am      1 UNL1        0.0000
     32 N4         12.8676    0.2201   22.6630 N.am      1 UNL1        0.0000
     33 N5          8.7041   -5.5835   28.6573 N.4       1 UNL1        0.0000
     34 O1         11.8884    0.2283   24.7711 O.2       1 UNL1        0.0000
     35 O2          8.9999    5.7247   25.3909 O.2       1 UNL1        0.0000
     36 O3          6.6209   -0.5253   24.9951 O.2       1 UNL1        0.0000
     37 O4          9.1247   -0.0737   24.9922 O.2       1 UNL1        0.0000
     38 F1          7.4310   -2.9992   22.4240 F         1 UNL1        0.0000
     39 S1          7.9397   -0.6739   25.6096 S.o2      1 UNL1        0.0000
     40 Cl1        10.5176    5.6815   28.3274 Cl        1 UNL1        0.0000
@<TRIPOS>BOND
     1    1    4 ar
     2    1    7 ar
     3    2    3 ar
     4    2   11 ar
     5    3   13 ar
     6    4   14 ar
     7    5   10 ar
     8    5   11 ar
     9    6   12 1
    10    6   15 2
    11    7   29 ar
    12    8   14 ar
    13    8   29 ar
    14    9   12 2
    15    9   30 1
    16   10   13 ar
    17   10   15 1
    18   11   28 1
    19   12   26 1
    20   13   38 1
    21   14   39 1
    22   15   30 1
    23   16   22 1
    24   16   32 am
    25   16   34 2
    26   17   27 1
    27   17   31 am
    28   17   35 2
    29   18   20 1
    30   18   22 1
    31   19   21 1
    32   19   22 1
    33   20   31 1
    34   21   31 1
    35   23   28 1
    36   24   32 1
    37   25   33 1
    38   26   33 1
    39   27   40 1
    40   28   32 1
    41   30   39 1
    42   36   39 2
    43   37   39 2
@<TRIPOS>MOLECULE
MAK-UNK-8fd-9
   40    43     0     0     0
SMALL
NO_CHARGES

@<TRIPOS>ATOM
      1 C1          6.2731    1.8831   28.6589 C.ar      1 UNL1        0.0000
      2 C2          6.1702    2.8755   27.6842 C.ar      1 UNL1        0.0000
      3 C3         10.7159    2.3303   24.1683 C.ar      1 UNL1        0.0000
      4 C4          6.7598    0.6205   28.3201 C.ar      1 UNL1        0.0000
      5 C5         11.7145    1.7349   23.3976 C.ar      1 UNL1        0.0000
      6 C6          6.5539    2.6053   26.3706 C.ar      1 UNL1        0.0000
      7 C7         10.2748    1.7109   25.3377 C.ar      1 UNL1        0.0000
      8 C8         11.8308   -0.0995   24.9657 C.ar      1 UNL1        0.0000
      9 C9          6.9441   -2.0643   26.2284 C.2       1 UNL1        0.0000
     10 C10         9.1264   -2.6093   26.3302 C.2       1 UNL1        0.0000
     11 C11         7.1434    0.3503   27.0066 C.ar      1 UNL1        0.0000
     12 C12        12.2719    0.5200   23.7963 C.ar      1 UNL1        0.0000
     13 C13         7.8802   -3.1071   26.0197 C.2       1 UNL1        0.0000
     14 C14         7.0405    1.3427   26.0318 C.ar      1 UNL1        0.0000
     15 C15        10.8322    0.4960   25.7364 C.ar      1 UNL1        0.0000
     16 C16         7.6469   -0.9610   26.6599 C.2       1 UNL1        0.0000
     17 C17        11.8940   -0.7277   21.0198 C.2       1 UNL1        0.0000
     18 C18         6.7986   -1.0226   21.1161 C.2       1 UNL1        0.0000
     19 C19        10.0737   -2.2296   21.8084 C.3       1 UNL1        0.0000
     20 C20        10.0068   -1.2510   19.4629 C.3       1 UNL1        0.0000
     21 C21         9.0062   -1.2156   22.2160 C.3       1 UNL1        0.0000
     22 C22         8.9266   -0.2790   19.9394 C.3       1 UNL1        0.0000
     23 C23        10.8943   -1.7659   20.6007 C.3       1 UNL1        0.0000
     24 C24        14.2144    0.9007   22.2235 C.3       1 UNL1        0.0000
     25 C25        13.2401   -2.4693   22.2034 C.3       1 UNL1        0.0000
     26 C26         5.8864   -6.0135   24.5503 C.3       1 UNL1        0.0000
     27 C27         7.5776   -4.4747   25.5556 C.3       1 UNL1        0.0000
     28 C28         6.0214   -0.6146   19.8900 C.3       1 UNL1        0.0000
     29 C29        13.3554   -0.1254   22.9596 C.3       1 UNL1        0.0000
     30 N1          8.9725   -1.3038   26.7178 N.pl3     1 UNL1        0.0000
     31 N2          8.1804   -0.8425   21.0684 N.am      1 UNL1        0.0000
     32 N3         12.7942   -1.0939   22.0211 N.am      1 UNL1        0.0000
     33 N4          6.2123   -4.6268   24.9648 N.4       1 UNL1        0.0000
     34 O1         11.8774    0.3789   20.4741 O.2       1 UNL1        0.0000
     35 O2          6.1942   -1.4889   22.0853 O.2       1 UNL1        0.0000
     36 O3         11.2717   -1.2246   27.6778 O.2       1 UNL1        0.0000
     37 O4          9.6930    0.7342   28.0565 O.2       1 UNL1        0.0000
     38 F1          7.4053    1.0989   24.7644 F         1 UNL1        0.0000
     39 S1         10.2787   -0.2794   27.1993 S.o2      1 UNL1        0.0000
     40 Cl1         5.5502    1.0644   20.1279 Cl        1 UNL1        0.0000
@<TRIPOS>BOND
     1    1    2 ar
     2    1    4 ar
     3    2    6 ar
     4    3    5 ar
     5    3    7 ar
     6    4   11 ar
     7    5   12 ar
     8    6   14 ar
     9    7   15 ar
    10    8   12 ar
    11    8   15 ar
    12    9   13 1
    13    9   16 2
    14   10   13 2
    15   10   30 1
    16   11   14 ar
    17   11   16 1
    18   12   29 1
    19   13   27 1
    20   14   38 1
    21   15   39 1
    22   16   30 1
    23   17   23 1
    24   17   32 am
    25   17   34 2
    26   18   28 1
    27   18   31 am
    28   18   35 2
    29   19   21 1
    30   19   23 1
    31   20   22 1
    32   20   23 1
    33   21   31 1
    34   22   31 1
    35   24   29 1
    36   25   32 1
    37   26   33 1
    38   27   33 1
    39   28   40 1
    40   29   32 1
    41   30   39 1
    42   36   39 2
    43   37   39 2
@<TRIPOS>MOLECULE
MAK-UNK-8fd-18
   40    43     0     0     0
SMALL
NO_CHARGES

@<TRIPOS>ATOM
      1 C1          8.1891   -6.2800   23.3590 C.ar      1 UNL1        0.0000
      2 C2          7.4776   -6.2105   22.1613 C.ar      1 UNL1        0.0000
      3 C3         13.9056   -0.6477   22.6068 C.ar      1 UNL1        0.0000
      4 C4          8.5419   -5.1088   24.0296 C.ar      1 UNL1        0.0000
      5 C5          7.1190   -4.9699   21.6341 C.ar      1 UNL1        0.0000
      6 C6         12.7346   -1.3941   22.5369 C.ar      1 UNL1        0.0000
      7 C7          8.2072   -2.2603   25.4747 C.2       1 UNL1        0.0000
      8 C8         13.8221    0.7141   22.3653 C.ar      1 UNL1        0.0000
      9 C9         11.5555    0.6023   22.0075 C.ar      1 UNL1        0.0000
     10 C10         9.5077   -0.6638   24.5638 C.2       1 UNL1        0.0000
     11 C11         8.1832   -3.8682   23.5024 C.ar      1 UNL1        0.0000
     12 C12         8.8119   -0.9998   25.7041 C.2       1 UNL1        0.0000
     13 C13         7.4718   -3.7988   22.3046 C.ar      1 UNL1        0.0000
     14 C14        11.5328   -0.7648   22.2320 C.ar      1 UNL1        0.0000
     15 C15         8.5521   -2.6563   24.2012 C.2       1 UNL1        0.0000
     16 C16         7.4945    1.7492   25.9760 C.2       1 UNL1        0.0000
     17 C17         6.6700    6.6425   24.7779 C.2       1 UNL1        0.0000
     18 C18         6.5359    3.8280   26.9511 C.3       1 UNL1        0.0000
     19 C19         5.9161    3.1105   24.5923 C.3       1 UNL1        0.0000
     20 C20         7.4485    4.8911   26.3424 C.3       1 UNL1        0.0000
     21 C21         6.8345    4.2097   24.0565 C.3       1 UNL1        0.0000
     22 C22         6.2934    2.6489   26.0036 C.3       1 UNL1        0.0000
     23 C23         7.2257    0.7624   29.3664 C.3       1 UNL1        0.0000
     24 C24         5.8734   -0.7534   27.8765 C.3       1 UNL1        0.0000
     25 C25        11.2040   -0.2755   27.4700 C.3       1 UNL1        0.0000
     26 C26         6.8519    7.1215   23.3597 C.3       1 UNL1        0.0000
     27 C27         8.7122   -0.1700   26.9735 C.3       1 UNL1        0.0000
     28 C28         6.5466    0.6043   28.0137 C.3       1 UNL1        0.0000
     29 N1         12.6731    1.3607   22.0664 N.ar      1 UNL1        0.0000
     30 N2          9.3430   -1.6782   23.6571 N.pl3     1 UNL1        0.0000
     31 N3          6.9604    5.3016   25.0265 N.am      1 UNL1        0.0000
     32 N4          7.5496    0.7463   26.9535 N.am      1 UNL1        0.0000
     33 N5          9.9824    0.5692   27.3466 N.4       1 UNL1        0.0000
     34 O1          8.3595    1.9284   25.1148 O.2       1 UNL1        0.0000
     35 O2          6.2796    7.4372   25.6371 O.2       1 UNL1        0.0000
     36 O3          9.0825   -0.9416   21.2899 O.2       1 UNL1        0.0000
     37 O4         10.3976   -3.0588   21.8006 O.2       1 UNL1        0.0000
     38 F1          7.1193   -2.6138   21.7846 F         1 UNL1        0.0000
     39 S1         10.0184   -1.6838   22.1338 S.o2      1 UNL1        0.0000
     40 Cl1         7.2484    8.8337   23.4533 Cl        1 UNL1        0.0000
@<TRIPOS>BOND
     1    1    2 ar
     2    1    4 ar
     3    2    5 ar
     4    3    6 ar
     5    3    8 ar
     6    4   11 ar
     7    5   13 ar
     8    6   14 ar
     9    7   12 1
    10    7   15 2
    11    8   29 ar
    12    9   14 ar
    13    9   29 ar
    14   10   12 2
    15   10   30 1
    16   11   13 ar
    17   11   15 1
    18   12   27 1
    19   13   38 1
    20   14   39 1
    21   15   30 1
    22   16   22 1
    23   16   32 am
    24   16   34 2
    25   17   26 1
    26   17   31 am
    27   17   35 2
    28   18   20 1
    29   18   22 1
    30   19   21 1
    31   19   22 1
    32   20   31 1
    33   21   31 1
    34   23   28 1
    35   24   28 1
    36   25   33 1
    37   26   40 1
    38   27   32 1
    39   27   33 1
    40   28   32 1
    41   30   39 1
    42   36   39 2
    43   37   39 2
@<TRIPOS>MOLECULE
MAK-UNK-8fd-5
   40    43     0     0     0
SMALL
NO_CHARGES

@<TRIPOS>ATOM
      1 C1         13.6623   -2.5634   23.9183 C.ar      1 UNL1        0.0000
      2 C2         13.5419   -3.0521   22.6175 C.ar      1 UNL1        0.0000
      3 C3          7.0171   -0.9037   21.4023 C.ar      1 UNL1        0.0000
      4 C4         13.2847   -1.2523   24.2085 C.ar      1 UNL1        0.0000
      5 C5         13.0440   -2.2298   21.6068 C.ar      1 UNL1        0.0000
      6 C6          7.7362   -0.7867   22.5865 C.ar      1 UNL1        0.0000
      7 C7         13.1652    2.0721   23.4660 C.2       1 UNL1        0.0000
      8 C8          7.4483   -0.1731   20.3068 C.ar      1 UNL1        0.0000
      9 C9          9.1982    0.7335   21.4875 C.ar      1 UNL1        0.0000
     10 C10        11.0835    2.6384   24.1105 C.2       1 UNL1        0.0000
     11 C11        12.7867   -0.4300   23.1978 C.ar      1 UNL1        0.0000
     12 C12        12.3342    3.1534   23.8498 C.2       1 UNL1        0.0000
     13 C13        12.6664   -0.9187   21.8970 C.ar      1 UNL1        0.0000
     14 C14         8.8488    0.0456   22.6383 C.ar      1 UNL1        0.0000
     15 C15        12.3971    0.9294   23.5037 C.2       1 UNL1        0.0000
     16 C16         8.7425    0.8414   25.3887 C.2       1 UNL1        0.0000
     17 C17         8.0909   -1.0147   27.6039 C.2       1 UNL1        0.0000
     18 C18         5.4729   -5.3819   27.2387 C.2       1 UNL1        0.0000
     19 C19         5.7525   -1.8618   27.6774 C.3       1 UNL1        0.0000
     20 C20         7.5846   -3.0306   28.9965 C.3       1 UNL1        0.0000
     21 C21         5.8159   -3.0008   26.6614 C.3       1 UNL1        0.0000
     22 C22         7.5778   -4.1440   27.9482 C.3       1 UNL1        0.0000
     23 C23         7.0608   -1.6958   28.4570 C.3       1 UNL1        0.0000
     24 C24        10.4785    0.8311   27.1719 C.3       1 UNL1        0.0000
     25 C25         7.1467    1.1527   28.4142 C.3       1 UNL1        0.0000
     26 C26        12.1356    6.8557   24.7637 C.3       1 UNL1        0.0000
     27 C27        12.7331    4.5703   23.9521 C.3       1 UNL1        0.0000
     28 C28         6.0111   -6.6139   27.9218 C.3       1 UNL1        0.0000
     29 C29         9.0394    1.1690   26.8341 C.3       1 UNL1        0.0000
     30 N1          8.5241    0.6454   20.3189 N.ar      1 UNL1        0.0000
     31 N2         11.1334    1.2857   23.8965 N.pl3     1 UNL1        0.0000
     32 N3          6.2677   -4.2379   27.2969 N.am      1 UNL1        0.0000
     33 N4          8.0916    0.3806   27.6175 N.am      1 UNL1        0.0000
     34 N5         11.7637    5.4206   24.7093 N.4       1 UNL1        0.0000
     35 O1          8.8744   -1.7015   26.9428 O.2       1 UNL1        0.0000
     36 O2          4.3780   -5.4363   26.6728 O.2       1 UNL1        0.0000
     37 O3         10.2099   -1.0754   24.5856 O.2       1 UNL1        0.0000
     38 F1         12.1893   -0.1409   20.9141 F         1 UNL1        0.0000
     39 S1          9.7740    0.2174   24.1039 S.o       1 UNL1        0.0000
     40 Cl1         4.6166   -7.5204   28.4974 Cl        1 UNL1        0.0000
@<TRIPOS>BOND
     1    1    2 ar
     2    1    4 ar
     3    2    5 ar
     4    3    6 ar
     5    3    8 ar
     6    4   11 ar
     7    5   13 ar
     8    6   14 ar
     9    7   12 1
    10    7   15 2
    11    8   30 ar
    12    9   14 ar
    13    9   30 ar
    14   10   12 2
    15   10   31 1
    16   11   13 ar
    17   11   15 1
    18   12   27 1
    19   13   38 1
    20   14   39 1
    21   15   31 1
    22   16   29 1
    23   16   39 2
    24   17   23 1
    25   17   33 am
    26   17   35 2
    27   18   28 1
    28   18   32 am
    29   18   36 2
    30   19   21 1
    31   19   23 1
    32   20   22 1
    33   20   23 1
    34   21   32 1
    35   22   32 1
    36   24   29 1
    37   25   33 1
    38   26   34 1
    39   27   34 1
    40   28   40 1
    41   29   33 1
    42   31   39 1
    43   37   39 2
@<TRIPOS>MOLECULE
MAK-UNK-8fd-29
   40    43     0     0     0
SMALL
NO_CHARGES

@<TRIPOS>ATOM
      1 C1          6.1456    2.8099   26.8052 C.ar      1 UNL1        0.0000
      2 C2          9.9145   -3.0441   25.2795 C.ar      1 UNL1        0.0000
      3 C3         10.8789   -2.8890   24.2838 C.ar      1 UNL1        0.0000
      4 C4          6.7456    1.7331   27.4484 C.ar      1 UNL1        0.0000
      5 C5          6.7079   -3.5755   26.2930 C.2       1 UNL1        0.0000
      6 C6          9.3474   -1.5178   23.0142 C.ar      1 UNL1        0.0000
      7 C7          6.5261    3.0800   25.5006 C.ar      1 UNL1        0.0000
      8 C8          8.0053    1.3224   25.4734 C.ar      1 UNL1        0.0000
      9 C9          6.5153   -2.1746   28.0453 C.2       1 UNL1        0.0000
     10 C10         8.6666   -2.4362   25.1426 C.ar      1 UNL1        0.0000
     11 C11         5.9757   -3.3067   27.4757 C.2       1 UNL1        0.0000
     12 C12        10.5954   -2.1258   23.1511 C.ar      1 UNL1        0.0000
     13 C13         8.3831   -1.6730   24.0100 C.ar      1 UNL1        0.0000
     14 C14         7.6943    0.9700   26.7768 C.ar      1 UNL1        0.0000
     15 C15         7.6729   -2.5995   26.1760 C.2       1 UNL1        0.0000
     16 C16        12.5219   -0.9029   22.1491 C.2       1 UNL1        0.0000
     17 C17        13.2047    4.3943   23.3623 C.2       1 UNL1        0.0000
     18 C18        13.6650    0.7314   23.6322 C.3       1 UNL1        0.0000
     19 C19        11.3176    1.1731   22.7222 C.3       1 UNL1        0.0000
     20 C20        13.9250    2.0691   22.9457 C.3       1 UNL1        0.0000
     21 C21        11.5105    2.5193   23.4119 C.3       1 UNL1        0.0000
     22 C22        12.3173    0.1250   23.2219 C.3       1 UNL1        0.0000
     23 C23        13.0322   -3.6736   21.1324 C.3       1 UNL1        0.0000
     24 C24        11.3703   -2.4004   19.7313 C.3       1 UNL1        0.0000
     25 C25         4.0680   -5.7766   29.6761 C.3       1 UNL1        0.0000
     26 C26         4.8435   -4.0933   28.0016 C.3       1 UNL1        0.0000
     27 C27        12.0667    5.3383   23.6645 C.3       1 UNL1        0.0000
     28 C28        11.6591   -3.0187   21.0914 C.3       1 UNL1        0.0000
     29 N1          7.4437    2.3614   24.8156 N.ar      1 UNL1        0.0000
     30 N2          7.5466   -1.7536   27.2468 N.pl3     1 UNL1        0.0000
     31 N3         12.8719    3.0435   23.2433 N.am      1 UNL1        0.0000
     32 N4         11.5971   -1.9653   22.1164 N.am      1 UNL1        0.0000
     33 N5          5.1911   -4.9426   29.1823 N.4       1 UNL1        0.0000
     34 O1         13.4539   -0.7336   21.3589 O.2       1 UNL1        0.0000
     35 O2         14.3474    4.8399   23.2325 O.2       1 UNL1        0.0000
     36 O3          9.7579   -0.6580   26.8947 O.2       1 UNL1        0.0000
     37 O4          8.4311   -0.1421   29.0034 O.2       1 UNL1        0.0000
     38 F1          7.1880   -1.0822   23.8636 F         1 UNL1        0.0000
     39 S1          8.4813   -0.4112   27.5644 S.o2      1 UNL1        0.0000
     40 Cl1        11.4463    5.8921   22.1133 Cl        1 UNL1        0.0000
@<TRIPOS>BOND
     1    1    4 ar
     2    1    7 ar
     3    2    3 ar
     4    2   10 ar
     5    3   12 ar
     6    4   14 ar
     7    5   11 1
     8    5   15 2
     9    6   12 ar
    10    6   13 ar
    11    7   29 ar
    12    8   14 ar
    13    8   29 ar
    14    9   11 2
    15    9   30 1
    16   10   13 ar
    17   10   15 1
    18   11   26 1
    19   12   32 1
    20   13   38 1
    21   14   39 1
    22   15   30 1
    23   16   22 1
    24   16   32 am
    25   16   34 2
    26   17   27 1
    27   17   31 am
    28   17   35 2
    29   18   20 1
    30   18   22 1
    31   19   21 1
    32   19   22 1
    33   20   31 1
    34   21   31 1
    35   23   28 1
    36   24   28 1
    37   25   33 1
    38   26   33 1
    39   27   40 1
    40   28   32 1
    41   30   39 1
    42   36   39 2
    43   37   39 2
@<TRIPOS>MOLECULE
MAK-UNK-8fd-28
   40    43     0     0     0
SMALL
NO_CHARGES

@<TRIPOS>ATOM
      1 C1          6.1456    2.8099   26.8052 C.ar      1 UNL1        0.0000
      2 C2          9.9145   -3.0441   25.2795 C.ar      1 UNL1        0.0000
      3 C3         10.8789   -2.8890   24.2838 C.ar      1 UNL1        0.0000
      4 C4          6.7456    1.7331   27.4484 C.ar      1 UNL1        0.0000
      5 C5          6.7079   -3.5755   26.2930 C.2       1 UNL1        0.0000
      6 C6          9.3474   -1.5178   23.0142 C.ar      1 UNL1        0.0000
      7 C7          6.5261    3.0800   25.5006 C.ar      1 UNL1        0.0000
      8 C8          8.0053    1.3224   25.4734 C.ar      1 UNL1        0.0000
      9 C9          6.5153   -2.1746   28.0453 C.2       1 UNL1        0.0000
     10 C10         8.6666   -2.4362   25.1426 C.ar      1 UNL1        0.0000
     11 C11         5.9757   -3.3067   27.4757 C.2       1 UNL1        0.0000
     12 C12        10.5954   -2.1258   23.1511 C.ar      1 UNL1        0.0000
     13 C13         8.3831   -1.6730   24.0100 C.ar      1 UNL1        0.0000
     14 C14         7.6943    0.9700   26.7768 C.ar      1 UNL1        0.0000
     15 C15         7.6729   -2.5995   26.1760 C.2       1 UNL1        0.0000
     16 C16        12.5219   -0.9029   22.1491 C.2       1 UNL1        0.0000
     17 C17        13.2047    4.3943   23.3623 C.2       1 UNL1        0.0000
     18 C18        13.6650    0.7314   23.6322 C.3       1 UNL1        0.0000
     19 C19        11.3176    1.1731   22.7222 C.3       1 UNL1        0.0000
     20 C20        13.9250    2.0691   22.9457 C.3       1 UNL1        0.0000
     21 C21        11.5105    2.5193   23.4119 C.3       1 UNL1        0.0000
     22 C22        12.3173    0.1250   23.2219 C.3       1 UNL1        0.0000
     23 C23        13.0322   -3.6736   21.1324 C.3       1 UNL1        0.0000
     24 C24        11.3703   -2.4004   19.7313 C.3       1 UNL1        0.0000
     25 C25         4.0680   -5.7766   29.6761 C.3       1 UNL1        0.0000
     26 C26         4.8435   -4.0933   28.0016 C.3       1 UNL1        0.0000
     27 C27        12.0667    5.3383   23.6645 C.3       1 UNL1        0.0000
     28 C28        11.6591   -3.0187   21.0914 C.3       1 UNL1        0.0000
     29 N1          7.4437    2.3614   24.8156 N.ar      1 UNL1        0.0000
     30 N2          7.5466   -1.7536   27.2468 N.pl3     1 UNL1        0.0000
     31 N3         12.8719    3.0435   23.2433 N.am      1 UNL1        0.0000
     32 N4         11.5971   -1.9653   22.1164 N.am      1 UNL1        0.0000
     33 N5          5.1911   -4.9426   29.1823 N.4       1 UNL1        0.0000
     34 O1         13.4539   -0.7336   21.3589 O.2       1 UNL1        0.0000
     35 O2         14.3474    4.8399   23.2325 O.2       1 UNL1        0.0000
     36 O3          9.7579   -0.6580   26.8947 O.2       1 UNL1        0.0000
     37 O4          8.4311   -0.1421   29.0034 O.2       1 UNL1        0.0000
     38 F1          7.1880   -1.0822   23.8636 F         1 UNL1        0.0000
     39 S1          8.4813   -0.4112   27.5644 S.o2      1 UNL1        0.0000
     40 Cl1        11.4463    5.8921   22.1133 Cl        1 UNL1        0.0000
@<TRIPOS>BOND
     1    1    4 ar
     2    1    7 ar
     3    2    3 ar
     4    2   10 ar
     5    3   12 ar
     6    4   14 ar
     7    5   11 1
     8    5   15 2
     9    6   12 ar
    10    6   13 ar
    11    7   29 ar
    12    8   14 ar
    13    8   29 ar
    14    9   11 2
    15    9   30 1
    16   10   13 ar
    17   10   15 1
    18   11   26 1
    19   12   32 1
    20   13   38 1
    21   14   39 1
    22   15   30 1
    23   16   22 1
    24   16   32 am
    25   16   34 2
    26   17   27 1
    27   17   31 am
    28   17   35 2
    29   18   20 1
    30   18   22 1
    31   19   21 1
    32   19   22 1
    33   20   31 1
    34   21   31 1
    35   23   28 1
    36   24   28 1
    37   25   33 1
    38   26   33 1
    39   27   40 1
    40   28   32 1
    41   30   39 1
    42   36   39 2
    43   37   39 2
@<TRIPOS>MOLECULE
MAK-UNK-8fd-10
   40    43     0     0     0
SMALL
NO_CHARGES

@<TRIPOS>ATOM
      1 C1         13.3599   -2.0521   20.3177 C.ar      1 UNL1        0.0000
      2 C2         13.4835   -3.1326   21.1911 C.ar      1 UNL1        0.0000
      3 C3         10.0265   -3.5111   23.6558 C.ar      1 UNL1        0.0000
      4 C4         13.0417   -0.7876   20.8132 C.ar      1 UNL1        0.0000
      5 C5         13.2888   -2.9486   22.5600 C.ar      1 UNL1        0.0000
      6 C6         10.0098   -2.3714   22.8594 C.ar      1 UNL1        0.0000
      7 C7         13.3679    1.7067   23.1132 C.2       1 UNL1        0.0000
      8 C8          9.8375   -3.3524   25.0192 C.ar      1 UNL1        0.0000
      9 C9         11.2511    2.4411   23.3363 C.2       1 UNL1        0.0000
     10 C10        12.8469   -0.6036   22.1821 C.ar      1 UNL1        0.0000
     11 C11        12.5675    2.8021   23.5212 C.2       1 UNL1        0.0000
     12 C12        12.9705   -1.6842   23.0555 C.ar      1 UNL1        0.0000
     13 C13         9.8073   -1.1255   23.4426 C.ar      1 UNL1        0.0000
     14 C14        12.5163    0.7097   22.6911 C.2       1 UNL1        0.0000
     15 C15         9.6278   -1.0736   24.8155 C.ar      1 UNL1        0.0000
     16 C16         7.1864   -0.7664   26.0793 C.2       1 UNL1        0.0000
     17 C17         3.4009   -3.9941   27.2247 C.2       1 UNL1        0.0000
     18 C18         4.7885   -0.7529   26.7436 C.3       1 UNL1        0.0000
     19 C19         6.4572   -2.2161   27.9835 C.3       1 UNL1        0.0000
     20 C20         4.2767   -2.0076   26.0383 C.3       1 UNL1        0.0000
     21 C21         5.8801   -3.4293   27.2527 C.3       1 UNL1        0.0000
     22 C22         6.2333   -0.9004   27.2311 C.3       1 UNL1        0.0000
     23 C23        10.4841    0.5585   26.5461 C.3       1 UNL1        0.0000
     24 C24         7.7489    1.5637   26.7869 C.3       1 UNL1        0.0000
     25 C25        13.2604    5.2344   21.8360 C.3       1 UNL1        0.0000
     26 C26        13.0528    4.0923   24.0476 C.3       1 UNL1        0.0000
     27 C27         3.7018   -5.1940   28.0869 C.3       1 UNL1        0.0000
     28 C28         9.4017    0.2501   25.5136 C.3       1 UNL1        0.0000
     29 N1          9.6378   -2.1588   25.6217 N.ar      1 UNL1        0.0000
     30 N2         11.2321    1.1673   22.8310 N.pl3     1 UNL1        0.0000
     31 N3          4.4848   -3.1917   26.8707 N.am      1 UNL1        0.0000
     32 N4          8.0765    0.3072   26.1253 N.am      1 UNL1        0.0000
     33 N5         13.9325    4.8424   23.0991 N.4       1 UNL1        0.0000
     34 O1          7.1429   -1.5915   25.1629 O.2       1 UNL1        0.0000
     35 O2          2.2367   -3.7770   26.8789 O.2       1 UNL1        0.0000
     36 O3          9.9852   -0.0496   21.0481 O.2       1 UNL1        0.0000
     37 O4          8.6900    1.1490   22.8807 O.2       1 UNL1        0.0000
     38 F1         12.7865   -1.5238   24.3743 F         1 UNL1        0.0000
     39 S1          9.7855    0.3043   22.4424 S.o2      1 UNL1        0.0000
     40 Cl1         3.5980   -4.6520   29.7582 Cl        1 UNL1        0.0000
@<TRIPOS>BOND
     1    1    2 ar
     2    1    4 ar
     3    2    5 ar
     4    3    6 ar
     5    3    8 ar
     6    4   10 ar
     7    5   12 ar
     8    6   13 ar
     9    7   11 1
    10    7   14 2
    11    8   29 ar
    12    9   11 2
    13    9   30 1
    14   10   12 ar
    15   10   14 1
    16   11   26 1
    17   12   38 1
    18   13   15 ar
    19   13   39 1
    20   14   30 1
    21   15   28 1
    22   15   29 ar
    23   16   22 1
    24   16   32 am
    25   16   34 2
    26   17   27 1
    27   17   31 am
    28   17   35 2
    29   18   20 1
    30   18   22 1
    31   19   21 1
    32   19   22 1
    33   20   31 1
    34   21   31 1
    35   23   28 1
    36   24   32 1
    37   25   33 1
    38   26   33 1
    39   27   40 1
    40   28   32 1
    41   30   39 1
    42   36   39 2
    43   37   39 2
@<TRIPOS>MOLECULE
MAK-UNK-8fd-12
   40    43     0     0     0
SMALL
NO_CHARGES

@<TRIPOS>ATOM
      1 C1          9.3499   -3.6909   25.4700 C.ar      1 UNL1        0.0000
      2 C2         11.8755    2.1510   24.9771 C.ar      1 UNL1        0.0000
      3 C3          9.5704   -3.3592   24.1333 C.ar      1 UNL1        0.0000
      4 C4          8.9721   -2.7039   26.3804 C.ar      1 UNL1        0.0000
      5 C5         11.8065    0.8360   24.5308 C.ar      1 UNL1        0.0000
      6 C6          8.7431   -1.6956   21.2802 C.2       1 UNL1        0.0000
      7 C7         12.4914    3.0828   24.1572 C.ar      1 UNL1        0.0000
      8 C8         12.9424    1.5035   22.5507 C.ar      1 UNL1        0.0000
      9 C9         10.7542   -1.0681   20.4855 C.2       1 UNL1        0.0000
     10 C10         9.4134   -2.0404   23.7069 C.ar      1 UNL1        0.0000
     11 C11         8.8151   -1.3851   25.9541 C.ar      1 UNL1        0.0000
     12 C12         9.4462   -1.2942   20.1176 C.2       1 UNL1        0.0000
     13 C13         9.0357   -1.0534   24.6173 C.ar      1 UNL1        0.0000
     14 C14        12.3479    0.4977   23.2955 C.ar      1 UNL1        0.0000
     15 C15         9.6428   -1.7025   22.3232 C.2       1 UNL1        0.0000
     16 C16         6.0661   -1.1350   27.2915 C.2       1 UNL1        0.0000
     17 C17         3.5286   -4.2881   24.1804 C.2       1 UNL1        0.0000
     18 C18         4.8700   -1.1259   25.1096 C.3       1 UNL1        0.0000
     19 C19         3.8245   -2.2363   27.1435 C.3       1 UNL1        0.0000
     20 C20         5.2097   -2.5170   24.5776 C.3       1 UNL1        0.0000
     21 C21         4.1804   -3.5950   26.5385 C.3       1 UNL1        0.0000
     22 C22         4.7173   -1.1004   26.6337 C.3       1 UNL1        0.0000
     23 C23         8.9067   -0.6082   28.3583 C.3       1 UNL1        0.0000
     24 C24         6.5107    1.2112   26.5539 C.3       1 UNL1        0.0000
     25 C25         8.1892    1.2413   19.0097 C.3       1 UNL1        0.0000
     26 C26         8.8828   -1.1454   18.7620 C.3       1 UNL1        0.0000
     27 C27         2.5685   -5.2855   24.7781 C.3       1 UNL1        0.0000
     28 C28         8.4054   -0.3172   26.9452 C.3       1 UNL1        0.0000
     29 N1         13.0285    2.7919   22.9512 N.ar      1 UNL1        0.0000
     30 N2         10.8620   -1.3191   21.8285 N.pl3     1 UNL1        0.0000
     31 N3          4.2592   -3.5096   25.0771 N.am      1 UNL1        0.0000
     32 N4          6.9581   -0.1198   26.9438 N.am      1 UNL1        0.0000
     33 N5          7.7769   -0.1429   18.6711 N.4       1 UNL1        0.0000
     34 O1          6.3222   -2.0380   28.0923 O.2       1 UNL1        0.0000
     35 O2          3.6234   -4.2035   22.9532 O.2       1 UNL1        0.0000
     36 O3         13.3521   -1.3510   21.7155 O.2       1 UNL1        0.0000
     37 O4         12.1921   -2.0273   23.8765 O.2       1 UNL1        0.0000
     38 F1          8.8836    0.2175   24.2134 F         1 UNL1        0.0000
     39 S1         12.2790   -1.1693   22.6924 S.o2      1 UNL1        0.0000
     40 Cl1         3.4578   -6.7933   24.9610 Cl        1 UNL1        0.0000
@<TRIPOS>BOND
     1    1    3 ar
     2    1    4 ar
     3    2    5 ar
     4    2    7 ar
     5    3   10 ar
     6    4   11 ar
     7    5   14 ar
     8    6   12 1
     9    6   15 2
    10    7   29 ar
    11    8   14 ar
    12    8   29 ar
    13    9   12 2
    14    9   30 1
    15   10   13 ar
    16   10   15 1
    17   11   13 ar
    18   11   28 1
    19   12   26 1
    20   13   38 1
    21   14   39 1
    22   15   30 1
    23   16   22 1
    24   16   32 am
    25   16   34 2
    26   17   27 1
    27   17   31 am
    28   17   35 2
    29   18   20 1
    30   18   22 1
    31   19   21 1
    32   19   22 1
    33   20   31 1
    34   21   31 1
    35   23   28 1
    36   24   32 1
    37   25   33 1
    38   26   33 1
    39   27   40 1
    40   28   32 1
    41   30   39 1
    42   36   39 2
    43   37   39 2
@<TRIPOS>MOLECULE
MAK-UNK-702-14
   43    48     0     0     0
SMALL
NO_CHARGES

@<TRIPOS>ATOM
      1 C1          9.7985   -7.3242   27.4214 C.ar      1 UNL1        0.0000
      2 C2         10.9318    1.1963   22.9675 C.ar      1 UNL1        0.0000
      3 C3         11.0284   -0.1892   22.8764 C.ar      1 UNL1        0.0000
      4 C4         10.9600   -6.8104   26.8449 C.ar      1 UNL1        0.0000
      5 C5         10.8054   -1.0223   27.4977 C.ar      1 UNL1        0.0000
      6 C6          8.5944   -6.6302   27.3015 C.ar      1 UNL1        0.0000
      7 C7          9.9230    1.8715   22.2809 C.ar      1 UNL1        0.0000
      8 C8         10.1184   -0.9009   22.0961 C.ar      1 UNL1        0.0000
      9 C9          6.5841   -3.0051   20.9095 C.ar      1 UNL1        0.0000
     10 C10         6.6431   -1.2746   22.5945 C.ar      1 UNL1        0.0000
     11 C11         5.6398   -3.7045   21.6609 C.ar      1 UNL1        0.0000
     12 C12         5.6988   -1.9741   23.3459 C.ar      1 UNL1        0.0000
     13 C13        10.9176   -5.6025   26.1486 C.ar      1 UNL1        0.0000
     14 C14        10.0193   -2.1119   27.8555 C.ar      1 UNL1        0.0000
     15 C15         6.3412   -4.8130   25.5020 C.2       1 UNL1        0.0000
     16 C16        10.2452    0.2413   27.5946 C.ar      1 UNL1        0.0000
     17 C17         8.2488   -0.6043   28.3546 C.ar      1 UNL1        0.0000
     18 C18         5.6590   -3.2709   26.9941 C.2       1 UNL1        0.0000
     19 C19         8.5520   -5.4223   26.6052 C.ar      1 UNL1        0.0000
     20 C20         7.0858   -1.7901   21.3763 C.ar      1 UNL1        0.0000
     21 C21         8.9965    1.1676   21.4967 C.ar      1 UNL1        0.0000
     22 C22         9.1003   -0.2322   21.3974 C.ar      1 UNL1        0.0000
     23 C23         5.3025   -3.9053   25.8246 C.2       1 UNL1        0.0000
     24 C24         5.1971   -3.1891   22.8791 C.ar      1 UNL1        0.0000
     25 C25         9.7136   -4.9084   26.0287 C.ar      1 UNL1        0.0000
     26 C26         8.7154   -1.9075   28.2931 C.ar      1 UNL1        0.0000
     27 C27         7.3009   -4.7058   26.4843 C.2       1 UNL1        0.0000
     28 C28         5.6101    1.4781   19.8401 C.2       1 UNL1        0.0000
     29 C29         7.9197    1.9408   20.7742 C.3       1 UNL1        0.0000
     30 C30         7.4498   -0.1350   19.4965 C.3       1 UNL1        0.0000
     31 C31         8.1174   -1.0257   20.5566 C.3       1 UNL1        0.0000
     32 C32         4.0445   -3.6757   25.0378 C.3       1 UNL1        0.0000
     33 C33         5.1959    2.8367   20.3486 C.3       1 UNL1        0.0000
     34 N1          8.9827    0.4792   28.0153 N.ar      1 UNL1        0.0000
     35 N2          6.8754   -3.7657   27.3861 N.pl3     1 UNL1        0.0000
     36 N3          6.9337    1.1024   20.0801 N.am      1 UNL1        0.0000
     37 N4          4.2410   -3.8950   23.6382 N.pl3     1 UNL1        0.0000
     38 O1          4.7833    0.7727   19.2570 O.2       1 UNL1        0.0000
     39 O2          8.5420   -4.3962   29.1295 O.2       1 UNL1        0.0000
     40 O3          6.7012   -2.7368   29.7048 O.2       1 UNL1        0.0000
     41 F1          9.6894   -3.7485   25.3560 F         1 UNL1        0.0000
     42 S1          7.6822   -3.2728   28.7583 S.o2      1 UNL1        0.0000
     43 Cl1         4.5622    2.5941   21.9723 Cl        1 UNL1        0.0000
@<TRIPOS>BOND
     1    1    4 ar
     2    1    6 ar
     3    2    3 ar
     4    2    7 ar
     5    3    8 ar
     6    4   13 ar
     7    5   14 ar
     8    5   16 ar
     9    6   19 ar
    10    7   21 ar
    11    8   22 ar
    12    9   11 ar
    13    9   20 ar
    14   10   12 ar
    15   10   20 ar
    16   11   24 ar
    17   12   24 ar
    18   13   25 ar
    19   14   26 ar
    20   15   23 1
    21   15   27 2
    22   16   34 ar
    23   17   26 ar
    24   17   34 ar
    25   18   23 2
    26   18   35 1
    27   19   25 ar
    28   19   27 1
    29   20   31 1
    30   21   22 ar
    31   21   29 1
    32   22   31 1
    33   23   32 1
    34   24   37 1
    35   25   41 1
    36   26   42 1
    37   27   35 1
    38   28   33 1
    39   28   36 am
    40   28   38 2
    41   29   36 1
    42   30   31 1
    43   30   36 1
    44   32   37 1
    45   33   43 1
    46   35   42 1
    47   39   42 2
    48   40   42 2
@<TRIPOS>MOLECULE
JON-UIO-cc9-8
   50    52     0     0     0
SMALL
NO_CHARGES

@<TRIPOS>ATOM
      1 C1          6.6504   -0.6217   19.3822 C.1       1 UNL1        0.0000
      2 C2         10.7383   -2.5806   22.0955 C.1       1 UNL1        0.0000
      3 C3          8.2862    0.1004   17.8010 C.2       1 UNL1        0.0000
      4 C4         10.3731   -0.7598   19.5155 C.2       1 UNL1        0.0000
      5 C5         13.1041   -0.5674   24.3248 C.2       1 UNL1        0.0000
      6 C6         14.4297   -0.3090   21.9050 C.2       1 UNL1        0.0000
      7 C7          8.0104   -0.4330   19.0039 C.2       1 UNL1        0.0000
      8 C8          9.0886   -0.7951   19.9068 C.2       1 UNL1        0.0000
      9 C9         12.6230    0.3461   23.4738 C.2       1 UNL1        0.0000
     10 C10         8.8532   -1.2401   21.2960 C.2       1 UNL1        0.0000
     11 C11         8.0827   -0.8808   23.4318 C.cat     1 UNL1        0.0000
     12 C12        10.3924    0.4115   24.4223 C.2       1 UNL1        0.0000
     13 C13         9.6854    0.3482   17.3141 C.3       1 UNL1        0.0000
     14 C14        10.7860   -0.3417   18.1335 C.3       1 UNL1        0.0000
     15 C15        14.3808   -1.2974   24.0711 C.3       1 UNL1        0.0000
     16 C16         9.3235   -2.6379   21.6802 C.3       1 UNL1        0.0000
     17 C17        13.3491    0.7037   22.2148 C.3       1 UNL1        0.0000
     18 C18         8.4310   -3.2087   22.7931 C.3       1 UNL1        0.0000
     19 C19         9.1951    1.3268   24.5330 C.3       1 UNL1        0.0000
     20 C20        13.9898    2.0882   22.2860 C.3       1 UNL1        0.0000
     21 N1          5.5425   -0.7754   19.6901 N.1       1 UNL1        0.0000
     22 N2         11.8508   -2.5356   22.4221 N.1       1 UNL1        0.0000
     23 N3         14.9064   -1.1915   22.7099 N.2       1 UNL1        0.0000
     24 N4          8.2900   -0.4348   22.1481 N.2       1 UNL1        0.0000
     25 N5          8.1427   -2.1224   23.7598 N.pl3     1 UNL1        0.0000
     26 N6         11.4421    0.9835   23.7185 N.am      1 UNL1        0.0000
     27 O1         10.3864   -0.7190   24.9076 O.2       1 UNL1        0.0000
     28 O2          7.2979   -3.8305   22.1873 O.3       1 UNL1        0.0000
     29 F1         13.0256    3.0001   22.5285 F         1 UNL1        0.0000
     30 F2         14.5319    2.3774   21.0852 F         1 UNL1        0.0000
     31 S1          7.7011    0.3227   24.6523 S.3       1 UNL1        0.0000
     32 H           8.2862    0.1004   17.8010 H         1 UNL1        0.0000
     33 H          10.3731   -0.7598   19.5155 H         1 UNL1        0.0000
     34 H          13.1041   -0.5674   24.3248 H         1 UNL1        0.0000
     35 H          14.4297   -0.3090   21.9050 H         1 UNL1        0.0000
     36 H           9.6854    0.3482   17.3141 H         1 UNL1        0.0000
     37 H           9.6854    0.3482   17.3141 H         1 UNL1        0.0000
     38 H          10.7860   -0.3417   18.1335 H         1 UNL1        0.0000
     39 H          10.7860   -0.3417   18.1335 H         1 UNL1        0.0000
     40 H          14.3808   -1.2974   24.0711 H         1 UNL1        0.0000
     41 H          14.3808   -1.2974   24.0711 H         1 UNL1        0.0000
     42 H           9.3235   -2.6379   21.6802 H         1 UNL1        0.0000
     43 H          13.3491    0.7037   22.2148 H         1 UNL1        0.0000
     44 H           8.4310   -3.2087   22.7931 H         1 UNL1        0.0000
     45 H           9.1951    1.3268   24.5330 H         1 UNL1        0.0000
     46 H           9.1951    1.3268   24.5330 H         1 UNL1        0.0000
     47 H          13.9898    2.0882   22.2860 H         1 UNL1        0.0000
     48 H           8.1427   -2.1224   23.7598 H         1 UNL1        0.0000
     49 H          11.4421    0.9835   23.7185 H         1 UNL1        0.0000
     50 H           7.2979   -3.8305   22.1873 H         1 UNL1        0.0000
@<TRIPOS>BOND
     1    1    7 1
     2    1   21 3
     3    2   16 1
     4    2   22 3
     5    3    7 2
     6    3   13 1
     7    4    8 2
     8    4   14 1
     9    5    9 2
    10    5   15 1
    11    6   17 1
    12    6   23 2
    13    7    8 1
    14    8   10 1
    15    9   17 1
    16    9   26 1
    17   10   16 1
    18   10   24 2
    19   11   24 1
    20   11   25 2
    21   11   31 1
    22   12   19 1
    23   12   26 am
    24   12   27 2
    25   13   14 1
    26   15   23 1
    27   16   18 1
    28   17   20 1
    29   18   25 1
    30   18   28 1
    31   19   31 1
    32   20   29 1
    33   20   30 1
    34    3   32 1
    35    4   33 1
    36    5   34 1
    37    6   35 1
    38   13   36 1
    39   13   37 1
    40   14   38 1
    41   14   39 1
    42   15   40 1
    43   15   41 1
    44   16   42 1
    45   17   43 1
    46   18   44 1
    47   19   45 1
    48   19   46 1
    49   20   47 1
    50   25   48 1
    51   26   49 1
    52   28   50 1
@<TRIPOS>MOLECULE
MAK-UNK-8fd-38
   40    43     0     0     0
SMALL
NO_CHARGES

@<TRIPOS>ATOM
      1 C1         13.0456    0.3089   19.7449 C.ar      1 UNL1        0.0000
      2 C2         14.0642   -0.6401   19.8300 C.ar      1 UNL1        0.0000
      3 C3         11.4294    5.2356   23.4074 C.ar      1 UNL1        0.0000
      4 C4         12.0985    0.4088   20.7641 C.ar      1 UNL1        0.0000
      5 C5         14.1358   -1.4893   20.9343 C.ar      1 UNL1        0.0000
      6 C6         11.9280    3.9418   23.3042 C.ar      1 UNL1        0.0000
      7 C7          9.9770   -0.9851   23.0387 C.2       1 UNL1        0.0000
      8 C8         11.0117    5.6722   24.6543 C.ar      1 UNL1        0.0000
      9 C9         11.5500    3.6661   25.6360 C.ar      1 UNL1        0.0000
     10 C10        10.2316    0.3596   24.8267 C.2       1 UNL1        0.0000
     11 C11        12.1701   -0.4403   21.8684 C.ar      1 UNL1        0.0000
     12 C12         9.3740   -0.5468   24.2435 C.2       1 UNL1        0.0000
     13 C13        13.1887   -1.3894   21.9535 C.ar      1 UNL1        0.0000
     14 C14        11.9927    3.1354   24.4351 C.ar      1 UNL1        0.0000
     15 C15        11.1850   -0.3333   22.9226 C.2       1 UNL1        0.0000
     16 C16         6.1082   -1.2100   26.9646 C.2       1 UNL1        0.0000
     17 C17         4.8879   -6.1192   26.7385 C.2       1 UNL1        0.0000
     18 C18         6.0978   -3.0819   25.2971 C.3       1 UNL1        0.0000
     19 C19         7.1379   -3.4097   27.5873 C.3       1 UNL1        0.0000
     20 C20         4.8606   -3.8343   25.7904 C.3       1 UNL1        0.0000
     21 C21         5.8724   -4.1546   28.0192 C.3       1 UNL1        0.0000
     22 C22         6.8540   -2.4135   26.4540 C.3       1 UNL1        0.0000
     23 C23         7.4906    2.0174   26.6557 C.3       1 UNL1        0.0000
     24 C24         6.3037    1.7479   28.8613 C.3       1 UNL1        0.0000
     25 C25         8.1569   -0.4186   28.1573 C.3       1 UNL1        0.0000
     26 C26         8.0461   -0.9874   24.7853 C.3       1 UNL1        0.0000
     27 C27         5.2846   -7.0159   27.8840 C.3       1 UNL1        0.0000
     28 C28         6.4598    1.2208   27.4424 C.3       1 UNL1        0.0000
     29 N1         11.0593    4.9181   25.7752 N.ar      1 UNL1        0.0000
     30 N2         11.3293    0.4813   24.0152 N.pl3     1 UNL1        0.0000
     31 N3          5.2105   -4.7683   26.8618 N.am      1 UNL1        0.0000
     32 N4          6.8785   -0.1773   27.5005 N.am      1 UNL1        0.0000
     33 N5          8.1670   -1.9261   25.9273 N.4       1 UNL1        0.0000
     34 O1          4.8767   -1.1884   26.8893 O.2       1 UNL1        0.0000
     35 O2          4.3103   -6.6070   25.7636 O.2       1 UNL1        0.0000
     36 O3         13.4955    1.3827   23.1731 O.2       1 UNL1        0.0000
     37 O4         13.1266    1.1604   25.6806 O.2       1 UNL1        0.0000
     38 F1         13.2715   -2.2131   23.0087 F         1 UNL1        0.0000
     39 S1         12.6227    1.4795   24.3427 S.o2      1 UNL1        0.0000
     40 Cl1         3.9442   -6.9991   29.0246 Cl        1 UNL1        0.0000
@<TRIPOS>BOND
     1    1    2 ar
     2    1    4 ar
     3    2    5 ar
     4    3    6 ar
     5    3    8 ar
     6    4   11 ar
     7    5   13 ar
     8    6   14 ar
     9    7   12 1
    10    7   15 2
    11    8   29 ar
    12    9   14 ar
    13    9   29 ar
    14   10   12 2
    15   10   30 1
    16   11   13 ar
    17   11   15 1
    18   12   26 1
    19   13   38 1
    20   14   39 1
    21   15   30 1
    22   16   22 1
    23   16   32 am
    24   16   34 2
    25   17   27 1
    26   17   31 am
    27   17   35 2
    28   18   20 1
    29   18   22 1
    30   19   21 1
    31   19   22 1
    32   20   31 1
    33   21   31 1
    34   22   33 1
    35   23   28 1
    36   24   28 1
    37   25   32 1
    38   26   33 1
    39   27   40 1
    40   28   32 1
    41   30   39 1
    42   36   39 2
    43   37   39 2
@<TRIPOS>MOLECULE
MAK-UNK-8fd-37
   40    43     0     0     0
SMALL
NO_CHARGES

@<TRIPOS>ATOM
      1 C1          3.6115   -1.1383   25.3000 C.ar      1 UNL1        0.0000
      2 C2          3.1074   -2.0023   26.2721 C.ar      1 UNL1        0.0000
      3 C3          5.4153    3.2716   25.4412 C.ar      1 UNL1        0.0000
      4 C4          4.9899   -0.9898   25.1460 C.ar      1 UNL1        0.0000
      5 C5          3.9817   -2.7178   27.0902 C.ar      1 UNL1        0.0000
      6 C6          5.7343    2.1196   26.1514 C.ar      1 UNL1        0.0000
      7 C7          8.1490   -2.2601   24.9906 C.2       1 UNL1        0.0000
      8 C8          6.4071    4.2242   25.2714 C.ar      1 UNL1        0.0000
      9 C9          7.9371    2.9689   26.4381 C.ar      1 UNL1        0.0000
     10 C10         9.3493   -0.7135   26.1028 C.2       1 UNL1        0.0000
     11 C11         5.8642   -1.7053   25.9641 C.ar      1 UNL1        0.0000
     12 C12         9.4498   -1.7325   25.1815 C.2       1 UNL1        0.0000
     13 C13         5.3601   -2.5693   26.9363 C.ar      1 UNL1        0.0000
     14 C14         7.0170    1.9576   26.6628 C.ar      1 UNL1        0.0000
     15 C15         7.2930   -1.5474   25.8010 C.2       1 UNL1        0.0000
     16 C16        11.2923    2.5477   23.5338 C.2       1 UNL1        0.0000
     17 C17        13.3774   -1.3546   20.9875 C.2       1 UNL1        0.0000
     18 C18        13.4330    1.3072   23.3753 C.3       1 UNL1        0.0000
     19 C19        13.4705    0.9446   21.8914 C.3       1 UNL1        0.0000
     20 C20        11.3347   -0.2836   22.0580 C.3       1 UNL1        0.0000
     21 C21        12.0125    1.2974   23.9528 C.3       1 UNL1        0.0000
     22 C22        11.2050    0.0582   23.5454 C.3       1 UNL1        0.0000
     23 C23        10.0333    5.2757   23.2125 C.3       1 UNL1        0.0000
     24 C24        12.5165    5.2070   22.7942 C.3       1 UNL1        0.0000
     25 C25        11.7038    3.5640   25.7797 C.3       1 UNL1        0.0000
     26 C26        10.7063   -2.1969   24.5057 C.3       1 UNL1        0.0000
     27 C27        12.5098   -2.2587   20.1486 C.3       1 UNL1        0.0000
     28 C28        11.4068    5.0308   23.8203 C.3       1 UNL1        0.0000
     29 N1          7.6642    4.1021   25.7533 N.ar      1 UNL1        0.0000
     30 N2          8.0336   -0.6097   26.4722 N.pl3     1 UNL1        0.0000
     31 N3         12.7383   -0.2939   21.6292 N.am      1 UNL1        0.0000
     32 N4         11.4611    3.6693   24.3466 N.am      1 UNL1        0.0000
     33 N5         11.7063   -1.1134   24.3285 N.4       1 UNL1        0.0000
     34 O1         10.5988    2.5297   22.5134 O.2       1 UNL1        0.0000
     35 O2         14.5861   -1.5873   21.0710 O.2       1 UNL1        0.0000
     36 O3          8.6018    0.8239   28.4308 O.2       1 UNL1        0.0000
     37 O4          6.2165   -0.0148   28.1482 O.2       1 UNL1        0.0000
     38 F1          6.1873   -3.2645   27.7307 F         1 UNL1        0.0000
     39 S1          7.4612    0.5016   27.5740 S.o2      1 UNL1        0.0000
     40 Cl1        11.9714   -3.5609   21.2033 Cl        1 UNL1        0.0000
@<TRIPOS>BOND
     1    1    2 ar
     2    1    4 ar
     3    2    5 ar
     4    3    6 ar
     5    3    8 ar
     6    4   11 ar
     7    5   13 ar
     8    6   14 ar
     9    7   12 1
    10    7   15 2
    11    8   29 ar
    12    9   14 ar
    13    9   29 ar
    14   10   12 2
    15   10   30 1
    16   11   13 ar
    17   11   15 1
    18   12   26 1
    19   13   38 1
    20   14   39 1
    21   15   30 1
    22   16   21 1
    23   16   32 am
    24   16   34 2
    25   17   27 1
    26   17   31 am
    27   17   35 2
    28   18   19 1
    29   18   21 1
    30   19   31 1
    31   20   22 1
    32   20   31 1
    33   21   22 1
    34   22   33 1
    35   23   28 1
    36   24   28 1
    37   25   32 1
    38   26   33 1
    39   27   40 1
    40   28   32 1
    41   30   39 1
    42   36   39 2
    43   37   39 2
@<TRIPOS>MOLECULE
MAK-UNK-8fd-22
   40    43     0     0     0
SMALL
NO_CHARGES

@<TRIPOS>ATOM
      1 C1         10.3613   -2.2703   20.6693 C.ar      1 UNL1        0.0000
      2 C2         11.4491   -3.0941   20.3804 C.ar      1 UNL1        0.0000
      3 C3         10.5480   -1.1021   21.4085 C.ar      1 UNL1        0.0000
      4 C4         12.7237   -2.7500   20.8307 C.ar      1 UNL1        0.0000
      5 C5         12.2962    1.7228   22.1708 C.2       1 UNL1        0.0000
      6 C6          9.2237   -0.1330   26.2402 C.ar      1 UNL1        0.0000
      7 C7          7.1374   -0.9495   25.4418 C.ar      1 UNL1        0.0000
      8 C8          9.0645   -1.5911   24.3681 C.ar      1 UNL1        0.0000
      9 C9         12.1534    1.7907   24.4169 C.2       1 UNL1        0.0000
     10 C10        11.8226   -0.7580   21.8588 C.ar      1 UNL1        0.0000
     11 C11        12.3861    2.5683   23.3041 C.2       1 UNL1        0.0000
     12 C12         7.8387   -0.1784   26.3547 C.ar      1 UNL1        0.0000
     13 C13        12.9104   -1.5819   21.5699 C.ar      1 UNL1        0.0000
     14 C14         9.8561   -0.8500   25.2306 C.ar      1 UNL1        0.0000
     15 C15        12.0110    0.4543   22.6257 C.2       1 UNL1        0.0000
     16 C16         6.7101    1.8812   27.1887 C.2       1 UNL1        0.0000
     17 C17         5.9159    6.4580   25.0716 C.2       1 UNL1        0.0000
     18 C18         5.8863    2.8997   25.0732 C.3       1 UNL1        0.0000
     19 C19         8.0340    3.7322   26.1491 C.3       1 UNL1        0.0000
     20 C20         5.1878    4.1529   25.5979 C.3       1 UNL1        0.0000
     21 C21         7.2722    4.9700   26.6248 C.3       1 UNL1        0.0000
     22 C22         7.1224    2.5267   25.8979 C.3       1 UNL1        0.0000
     23 C23         5.3437   -0.2100   28.8413 C.3       1 UNL1        0.0000
     24 C24         7.5637    0.5037   29.7942 C.3       1 UNL1        0.0000
     25 C25        11.7594    6.3305   23.4902 C.3       1 UNL1        0.0000
     26 C26        12.6758    4.0151   23.2955 C.3       1 UNL1        0.0000
     27 C27         6.9452    7.5418   25.2705 C.3       1 UNL1        0.0000
     28 C28         6.8509   -0.1757   28.6341 C.3       1 UNL1        0.0000
     29 N1          7.7166   -1.6595   24.4478 N.ar      1 UNL1        0.0000
     30 N2         11.9262    0.5075   23.9925 N.pl3     1 UNL1        0.0000
     31 N3          6.1382    5.2550   25.7405 N.am      1 UNL1        0.0000
     32 N4          7.1503    0.5587   27.3952 N.am      1 UNL1        0.0000
     33 N5         11.4802    4.8749   23.5551 N.4       1 UNL1        0.0000
     34 O1          6.0502    2.5541   27.9847 O.2       1 UNL1        0.0000
     35 O2          4.9452    6.6753   24.3418 O.2       1 UNL1        0.0000
     36 O3         12.2195   -0.3999   26.2957 O.2       1 UNL1        0.0000
     37 O4         11.9997   -2.0104   24.3384 O.2       1 UNL1        0.0000
     38 F1         14.1421   -1.2649   21.9954 F         1 UNL1        0.0000
     39 S1         11.5874   -0.8155   25.0541 S.o2      1 UNL1        0.0000
     40 Cl1         6.4303    8.9112   24.2920 Cl        1 UNL1        0.0000
@<TRIPOS>BOND
     1    1    2 ar
     2    1    3 ar
     3    2    4 ar
     4    3   10 ar
     5    4   13 ar
     6    5   11 1
     7    5   15 2
     8    6   12 ar
     9    6   14 ar
    10    7   12 ar
    11    7   29 ar
    12    8   14 ar
    13    8   29 ar
    14    9   11 2
    15    9   30 1
    16   10   13 ar
    17   10   15 1
    18   11   26 1
    19   12   32 1
    20   13   38 1
    21   14   39 1
    22   15   30 1
    23   16   22 1
    24   16   32 am
    25   16   34 2
    26   17   27 1
    27   17   31 am
    28   17   35 2
    29   18   20 1
    30   18   22 1
    31   19   21 1
    32   19   22 1
    33   20   31 1
    34   21   31 1
    35   23   28 1
    36   24   28 1
    37   25   33 1
    38   26   33 1
    39   27   40 1
    40   28   32 1
    41   30   39 1
    42   36   39 2
    43   37   39 2
@<TRIPOS>MOLECULE
MAK-UNK-8fd-17
   40    43     0     0     0
SMALL
NO_CHARGES

@<TRIPOS>ATOM
      1 C1          5.1861   -3.7877   26.0653 C.ar      1 UNL1        0.0000
      2 C2          5.5029   -4.8136   26.9558 C.ar      1 UNL1        0.0000
      3 C3          4.9861    0.9585   26.4582 C.ar      1 UNL1        0.0000
      4 C4          6.2033   -3.0387   25.4738 C.ar      1 UNL1        0.0000
      5 C5          6.8369   -5.0903   27.2548 C.ar      1 UNL1        0.0000
      6 C6          5.9911    0.0475   26.7637 C.ar      1 UNL1        0.0000
      7 C7          9.2517   -2.7703   23.9729 C.2       1 UNL1        0.0000
      8 C8          5.3594    2.2567   26.1499 C.ar      1 UNL1        0.0000
      9 C9          7.5887    1.7773   26.4300 C.ar      1 UNL1        0.0000
     10 C10        10.0776   -0.8847   24.8852 C.2       1 UNL1        0.0000
     11 C11         7.5373   -3.3154   25.7728 C.ar      1 UNL1        0.0000
     12 C12        10.1935   -1.7260   23.8008 C.2       1 UNL1        0.0000
     13 C13         7.8542   -4.3412   26.6633 C.ar      1 UNL1        0.0000
     14 C14         7.3199    0.4567   26.7517 C.ar      1 UNL1        0.0000
     15 C15         8.5888   -2.5352   25.1573 C.2       1 UNL1        0.0000
     16 C16        13.3163    1.0787   21.6834 C.2       1 UNL1        0.0000
     17 C17        11.6867    5.8768   23.7221 C.2       1 UNL1        0.0000
     18 C18        13.8634    3.1518   22.9135 C.3       1 UNL1        0.0000
     19 C19        11.4659    2.4142   22.6592 C.3       1 UNL1        0.0000
     20 C20        13.4186    4.1312   23.9966 C.3       1 UNL1        0.0000
     21 C21        11.0699    3.4092   23.7482 C.3       1 UNL1        0.0000
     22 C22        12.9154    1.9522   22.8317 C.3       1 UNL1        0.0000
     23 C23        14.9173   -1.2107   20.5399 C.3       1 UNL1        0.0000
     24 C24        12.6321   -0.9120   19.5227 C.3       1 UNL1        0.0000
     25 C25        13.4702   -1.8005   23.6758 C.3       1 UNL1        0.0000
     26 C26        11.1490   -1.5638   22.6429 C.3       1 UNL1        0.0000
     27 C27        10.2280    6.2003   23.5197 C.3       1 UNL1        0.0000
     28 C28        13.4155   -1.2504   20.7826 C.3       1 UNL1        0.0000
     29 C29        12.4623   -0.8552   23.0218 C.3       1 UNL1        0.0000
     30 N1          6.6394    2.6912   26.1278 N.ar      1 UNL1        0.0000
     31 N2          9.0989   -1.3862   25.7031 N.pl3     1 UNL1        0.0000
     32 N3         12.0218    4.5257   23.8028 N.am      1 UNL1        0.0000
     33 N4         13.0746   -0.2885   21.8229 N.am      1 UNL1        0.0000
     34 O1         13.8310    1.5931   20.6869 O.2       1 UNL1        0.0000
     35 O2         12.5025    6.7986   23.8039 O.2       1 UNL1        0.0000
     36 O3          9.7881    0.0930   27.5875 O.2       1 UNL1        0.0000
     37 O4          8.0372   -1.7083   27.9909 O.2       1 UNL1        0.0000
     38 F1          9.1318   -4.6199   26.9611 F         1 UNL1        0.0000
     39 S1          8.6294   -0.6769   27.1359 S.o2      1 UNL1        0.0000
     40 Cl1         9.9706    6.2992   21.7814 Cl        1 UNL1        0.0000
@<TRIPOS>BOND
     1    1    2 ar
     2    1    4 ar
     3    2    5 ar
     4    3    6 ar
     5    3    8 ar
     6    4   11 ar
     7    5   13 ar
     8    6   14 ar
     9    7   12 1
    10    7   15 2
    11    8   30 ar
    12    9   14 ar
    13    9   30 ar
    14   10   12 2
    15   10   31 1
    16   11   13 ar
    17   11   15 1
    18   12   26 1
    19   13   38 1
    20   14   39 1
    21   15   31 1
    22   16   22 1
    23   16   33 am
    24   16   34 2
    25   17   27 1
    26   17   32 am
    27   17   35 2
    28   18   20 1
    29   18   22 1
    30   19   21 1
    31   19   22 1
    32   20   32 1
    33   21   32 1
    34   23   28 1
    35   24   28 1
    36   25   29 1
    37   26   29 1
    38   27   40 1
    39   28   33 1
    40   29   33 1
    41   31   39 1
    42   36   39 2
    43   37   39 2
@<TRIPOS>MOLECULE
INS-INS-a68-1
   39    43     0     0     0
SMALL
NO_CHARGES

@<TRIPOS>ATOM
      1 C1          5.7784   -5.1080   27.4395 C.ar      1 UNL1        0.0000
      2 C2          7.1576   -5.1823   27.2446 C.ar      1 UNL1        0.0000
      3 C3          5.1331   -3.8722   27.3933 C.ar      1 UNL1        0.0000
      4 C4         11.0137   -6.0392   26.8656 C.2       1 UNL1        0.0000
      5 C5          8.9564   -3.9095   23.4809 C.ar      1 UNL1        0.0000
      6 C6          7.7748   -6.0462   23.5021 C.ar      1 UNL1        0.0000
      7 C7          7.2462   -2.7850   26.9576 C.ar      1 UNL1        0.0000
      8 C8         11.4547   -7.0762   26.0733 C.2       1 UNL1        0.0000
      9 C9          8.8126   -5.2149   23.9632 C.ar      1 UNL1        0.0000
     10 C10         7.0267   -4.2960   22.0917 C.ar      1 UNL1        0.0000
     11 C11         7.8915   -4.0209   27.0037 C.ar      1 UNL1        0.0000
     12 C12        10.0216   -5.2517   26.2132 C.2       1 UNL1        0.0000
     13 C13         8.0506   -3.4598   22.5392 C.ar      1 UNL1        0.0000
     14 C14         5.8670   -2.7107   27.1524 C.ar      1 UNL1        0.0000
     15 C15         6.8621   -5.5880   22.5509 C.ar      1 UNL1        0.0000
     16 C16         9.7422   -5.7167   24.9469 C.2       1 UNL1        0.0000
     17 C17         6.2318   -3.5568   21.1064 C.2       1 UNL1        0.0000
     18 C18         9.3757   -4.1013   26.7935 C.2       1 UNL1        0.0000
     19 C19         5.7459   -6.7534   20.7100 C.2       1 UNL1        0.0000
     20 C20         7.9696   -2.1341   21.8646 C.3       1 UNL1        0.0000
     21 C21         5.2109   -6.6462   24.4680 C.3       1 UNL1        0.0000
     22 C22         4.7326   -5.2067   24.6392 C.3       1 UNL1        0.0000
     23 C23         3.4747   -6.6118   22.7480 C.3       1 UNL1        0.0000
     24 C24         4.9165   -7.0454   23.0178 C.3       1 UNL1        0.0000
     25 C25         7.0349   -6.6751   19.9112 C.3       1 UNL1        0.0000
     26 C26         5.1771   -1.3892   27.1031 C.3       1 UNL1        0.0000
     27 N1          6.8147   -2.3000   21.0026 N.am      1 UNL1        0.0000
     28 N2          5.8382   -6.4184   22.0997 N.am      1 UNL1        0.0000
     29 O1          5.2597   -3.9889   20.5155 O.2       1 UNL1        0.0000
     30 O2         10.0402   -3.1085   27.1499 O.2       1 UNL1        0.0000
     31 O3          4.6928   -7.0785   20.1557 O.2       1 UNL1        0.0000
     32 O4          2.0988   -5.2134   24.5108 O.2       1 UNL1        0.0000
     33 O5          3.4071   -3.9722   22.7269 O.2       1 UNL1        0.0000
     34 F1          3.8293   -1.4673   27.3107 F         1 UNL1        0.0000
     35 F2          5.6303   -0.5009   28.0365 F         1 UNL1        0.0000
     36 F3          5.3264   -0.7636   25.8993 F         1 UNL1        0.0000
     37 S1         10.6737   -7.0975   24.5495 S.3       1 UNL1        0.0000
     38 S2          3.2533   -5.0801   23.6467 S.o2      1 UNL1        0.0000
     39 Cl1         6.9913   -7.8363   18.5677 Cl        1 UNL1        0.0000
@<TRIPOS>BOND
     1    1    2 ar
     2    1    3 ar
     3    2   11 ar
     4    3   14 ar
     5    4    8 2
     6    4   12 1
     7    5    9 ar
     8    5   13 ar
     9    6    9 ar
    10    6   15 ar
    11    7   11 ar
    12    7   14 ar
    13    8   37 1
    14    9   16 1
    15   10   13 ar
    16   10   15 ar
    17   10   17 1
    18   11   18 1
    19   12   16 2
    20   12   18 1
    21   13   20 1
    22   14   26 1
    23   15   28 1
    24   16   37 1
    25   17   27 am
    26   17   29 2
    27   18   30 2
    28   19   25 1
    29   19   28 am
    30   19   31 2
    31   20   27 1
    32   21   22 1
    33   21   24 1
    34   22   38 1
    35   23   24 1
    36   23   38 1
    37   24   28 1
    38   25   39 1
    39   26   34 1
    40   26   35 1
    41   26   36 1
    42   32   38 2
    43   33   38 2
@<TRIPOS>MOLECULE
MAK-UNK-702-8
   43    48     0     0     0
SMALL
NO_CHARGES

@<TRIPOS>ATOM
      1 C1          5.2432   -0.5015   19.5613 C.ar      1 UNL1        0.0000
      2 C2          8.0305   -6.9962   27.2123 C.ar      1 UNL1        0.0000
      3 C3          5.6472   -0.5084   20.8963 C.ar      1 UNL1        0.0000
      4 C4          6.1093   -0.0340   18.5729 C.ar      1 UNL1        0.0000
      5 C5          7.5851   -7.1900   28.5198 C.ar      1 UNL1        0.0000
      6 C6         10.9246   -1.8802   22.5352 C.ar      1 UNL1        0.0000
      7 C7          5.9711   -5.3160   23.2554 C.ar      1 UNL1        0.0000
      8 C8          8.3888   -5.7194   26.7796 C.ar      1 UNL1        0.0000
      9 C9          6.9173   -0.0478   21.2430 C.ar      1 UNL1        0.0000
     10 C10         7.3795    0.4266   18.9195 C.ar      1 UNL1        0.0000
     11 C11        10.3286   -1.1446   21.5118 C.ar      1 UNL1        0.0000
     12 C12        11.0183   -1.3414   23.8151 C.ar      1 UNL1        0.0000
     13 C13         7.4979   -6.1072   29.3947 C.ar      1 UNL1        0.0000
     14 C14         6.0791   -4.7874   24.5368 C.ar      1 UNL1        0.0000
     15 C15         9.9081   -2.7048   27.2501 C.2       1 UNL1        0.0000
     16 C16         5.8258   -4.4313   22.1990 C.ar      1 UNL1        0.0000
     17 C17         5.8909   -2.6103   23.5982 C.ar      1 UNL1        0.0000
     18 C18         8.4483   -1.2731   26.3072 C.2       1 UNL1        0.0000
     19 C19         8.3016   -4.6365   27.6545 C.ar      1 UNL1        0.0000
     20 C20         7.7835    0.4197   20.2546 C.ar      1 UNL1        0.0000
     21 C21         9.8191    0.1403   21.7591 C.ar      1 UNL1        0.0000
     22 C22         9.9051    0.6817   23.0552 C.ar      1 UNL1        0.0000
     23 C23         9.7655   -1.4137   26.6847 C.2       1 UNL1        0.0000
     24 C24        10.5131   -0.0676   24.0740 C.ar      1 UNL1        0.0000
     25 C25         7.8561   -4.8304   28.9620 C.ar      1 UNL1        0.0000
     26 C26         6.0391   -3.4097   24.7202 C.ar      1 UNL1        0.0000
     27 C27         8.6737   -3.3140   27.2008 C.2       1 UNL1        0.0000
     28 C28         7.6278    3.6408   22.4500 C.2       1 UNL1        0.0000
     29 C29         9.3698    2.0547   23.3832 C.3       1 UNL1        0.0000
     30 C30         9.1615    2.4295   20.9381 C.3       1 UNL1        0.0000
     31 C31         9.1707    0.9231   20.6325 C.3       1 UNL1        0.0000
     32 C32        10.8491   -0.3867   26.5257 C.3       1 UNL1        0.0000
     33 C33         7.2577    3.9789   23.8728 C.3       1 UNL1        0.0000
     34 N1          5.7828   -3.0873   22.3379 N.ar      1 UNL1        0.0000
     35 N2          7.7941   -2.4346   26.6254 N.pl3     1 UNL1        0.0000
     36 N3          8.6496    2.7038   22.2801 N.am      1 UNL1        0.0000
     37 N4         10.6324    0.4467   25.3870 N.pl3     1 UNL1        0.0000
     38 O1          7.0240    4.1850   21.5224 O.2       1 UNL1        0.0000
     39 O2          5.5617   -1.3703   26.3126 O.2       1 UNL1        0.0000
     40 O3          5.6995   -3.7215   27.2746 O.2       1 UNL1        0.0000
     41 F1          7.7668   -3.7996   29.8154 F         1 UNL1        0.0000
     42 S1          6.1737   -2.6983   26.3399 S.o2      1 UNL1        0.0000
     43 Cl1         5.9693    2.8722   24.3336 Cl        1 UNL1        0.0000
@<TRIPOS>BOND
     1    1    3 ar
     2    1    4 ar
     3    2    5 ar
     4    2    8 ar
     5    3    9 ar
     6    4   10 ar
     7    5   13 ar
     8    6   11 ar
     9    6   12 ar
    10    7   14 ar
    11    7   16 ar
    12    8   19 ar
    13    9   20 ar
    14   10   20 ar
    15   11   21 ar
    16   12   24 ar
    17   13   25 ar
    18   14   26 ar
    19   15   23 1
    20   15   27 2
    21   16   34 ar
    22   17   26 ar
    23   17   34 ar
    24   18   23 2
    25   18   35 1
    26   19   25 ar
    27   19   27 1
    28   20   31 1
    29   21   22 ar
    30   21   31 1
    31   22   24 ar
    32   22   29 1
    33   23   32 1
    34   24   37 1
    35   25   41 1
    36   26   42 1
    37   27   35 1
    38   28   33 1
    39   28   36 am
    40   28   38 2
    41   29   36 1
    42   30   31 1
    43   30   36 1
    44   32   37 1
    45   33   43 1
    46   35   42 1
    47   39   42 2
    48   40   42 2
@<TRIPOS>MOLECULE
MAK-UNK-8fd-24
   40    43     0     0     0
SMALL
NO_CHARGES

@<TRIPOS>ATOM
      1 C1         10.2618   -2.6696   21.4014 C.ar      1 UNL1        0.0000
      2 C2         11.3974   -3.4519   21.1912 C.ar      1 UNL1        0.0000
      3 C3          7.8040   -1.4550   25.2234 C.ar      1 UNL1        0.0000
      4 C4         10.3921   -1.3642   21.8754 C.ar      1 UNL1        0.0000
      5 C5          7.1988   -0.5797   26.1252 C.ar      1 UNL1        0.0000
      6 C6         12.6632   -2.9287   21.4551 C.ar      1 UNL1        0.0000
      7 C7          9.1716   -1.3564   24.9668 C.ar      1 UNL1        0.0000
      8 C8         11.9263    1.6792   21.9113 C.2       1 UNL1        0.0000
      9 C9          9.3286    0.4928   26.5136 C.ar      1 UNL1        0.0000
     10 C10        11.9299    2.1952   24.1031 C.2       1 UNL1        0.0000
     11 C11        11.6579   -0.8411   22.1393 C.ar      1 UNL1        0.0000
     12 C12        12.0161    2.7433   22.8423 C.2       1 UNL1        0.0000
     13 C13         7.9611    0.3942   26.7703 C.ar      1 UNL1        0.0000
     14 C14        12.7935   -1.6233   21.9291 C.ar      1 UNL1        0.0000
     15 C15         9.9338   -0.3825   25.6118 C.ar      1 UNL1        0.0000
     16 C16        11.7878    0.5132   22.6315 C.2       1 UNL1        0.0000
     17 C17         6.7901    2.5333   27.2847 C.2       1 UNL1        0.0000
     18 C18         7.2894    6.9609   24.7934 C.2       1 UNL1        0.0000
     19 C19         5.8615    3.7443   25.3194 C.3       1 UNL1        0.0000
     20 C20         8.3742    3.6292   25.6881 C.3       1 UNL1        0.0000
     21 C21         5.8977    5.1889   25.8150 C.3       1 UNL1        0.0000
     22 C22         8.3350    5.0850   26.1549 C.3       1 UNL1        0.0000
     23 C23         7.0311    2.9105   25.8520 C.3       1 UNL1        0.0000
     24 C24         8.5914    0.5685   29.6620 C.3       1 UNL1        0.0000
     25 C25         6.3399   -0.4191   29.1133 C.3       1 UNL1        0.0000
     26 C26        13.7238    5.9984   21.8082 C.3       1 UNL1        0.0000
     27 C27        12.1731    4.1751   22.5222 C.3       1 UNL1        0.0000
     28 C28         8.6722    7.5184   24.5674 C.3       1 UNL1        0.0000
     29 C29         7.2041    0.8332   29.0953 C.3       1 UNL1        0.0000
     30 N1         11.7910    0.8390   23.9627 N.pl3     1 UNL1        0.0000
     31 N2          7.2025    5.7945   25.5524 N.am      1 UNL1        0.0000
     32 N3          7.3324    1.3034   27.7073 N.am      1 UNL1        0.0000
     33 N4         13.5502    4.5495   22.0754 N.4       1 UNL1        0.0000
     34 O1          6.1699    3.3296   27.9939 O.2       1 UNL1        0.0000
     35 O2          6.3173    7.5448   24.3074 O.2       1 UNL1        0.0000
     36 O3         12.3135    0.4467   26.3683 O.2       1 UNL1        0.0000
     37 O4         12.1077   -1.5424   24.7955 O.2       1 UNL1        0.0000
     38 F1         14.0176   -1.1351   22.1778 F         1 UNL1        0.0000
     39 S1         11.6452   -0.2590   25.2896 S.o2      1 UNL1        0.0000
     40 Cl1         8.4799    8.9499   23.5616 Cl        1 UNL1        0.0000
@<TRIPOS>BOND
     1    1    2 ar
     2    1    4 ar
     3    2    6 ar
     4    3    5 ar
     5    3    7 ar
     6    4   11 ar
     7    5   13 ar
     8    6   14 ar
     9    7   15 ar
    10    8   12 1
    11    8   16 2
    12    9   13 ar
    13    9   15 ar
    14   10   12 2
    15   10   30 1
    16   11   14 ar
    17   11   16 1
    18   12   27 1
    19   13   32 1
    20   14   38 1
    21   15   39 1
    22   16   30 1
    23   17   23 1
    24   17   32 am
    25   17   34 2
    26   18   28 1
    27   18   31 am
    28   18   35 2
    29   19   21 1
    30   19   23 1
    31   20   22 1
    32   20   23 1
    33   21   31 1
    34   22   31 1
    35   24   29 1
    36   25   29 1
    37   26   33 1
    38   27   33 1
    39   28   40 1
    40   29   32 1
    41   30   39 1
    42   36   39 2
    43   37   39 2
@<TRIPOS>MOLECULE
MAK-UNK-8fd-41
   40    43     0     0     0
SMALL
NO_CHARGES

@<TRIPOS>ATOM
      1 C1         15.1438   -0.4779   22.9804 C.ar      1 UNL1        0.0000
      2 C2         15.1631   -1.3427   21.8862 C.ar      1 UNL1        0.0000
      3 C3         12.3473    5.1327   23.9869 C.ar      1 UNL1        0.0000
      4 C4         13.9346   -0.1664   23.6020 C.ar      1 UNL1        0.0000
      5 C5         13.9731   -1.8960   21.4135 C.ar      1 UNL1        0.0000
      6 C6         12.3086    3.8697   23.4065 C.ar      1 UNL1        0.0000
      7 C7         10.8751   -1.0370   24.8265 C.2       1 UNL1        0.0000
      8 C8         11.1612    5.8437   24.0726 C.ar      1 UNL1        0.0000
      9 C9          9.9715    4.1537   23.0692 C.ar      1 UNL1        0.0000
     10 C10         9.5916    0.7077   24.2113 C.2       1 UNL1        0.0000
     11 C11        12.7446   -0.7198   23.1294 C.ar      1 UNL1        0.0000
     12 C12         9.6724   -0.3405   25.1013 C.2       1 UNL1        0.0000
     13 C13        12.7638   -1.5846   22.0351 C.ar      1 UNL1        0.0000
     14 C14        11.1019    3.3636   22.9363 C.ar      1 UNL1        0.0000
     15 C15        11.4928   -0.3931   23.7771 C.2       1 UNL1        0.0000
     16 C16         6.1303   -1.7857   27.7439 C.2       1 UNL1        0.0000
     17 C17         4.0638   -5.1277   24.4851 C.2       1 UNL1        0.0000
     18 C18         4.6326   -1.8539   25.7581 C.3       1 UNL1        0.0000
     19 C19         4.2787   -3.4674   27.6905 C.3       1 UNL1        0.0000
     20 C20         5.2437   -3.0064   24.9633 C.3       1 UNL1        0.0000
     21 C21         4.8843   -4.5753   26.8277 C.3       1 UNL1        0.0000
     22 C22         4.7331   -2.0654   27.2721 C.3       1 UNL1        0.0000
     23 C23         8.4676   -1.2440   29.2807 C.3       1 UNL1        0.0000
     24 C24         7.8660    1.1652   29.4542 C.3       1 UNL1        0.0000
     25 C25         5.4409    0.6121   27.9489 C.3       1 UNL1        0.0000
     26 C26         8.6704   -0.6805   26.1649 C.3       1 UNL1        0.0000
     27 C27         3.5227   -6.4292   25.0209 C.3       1 UNL1        0.0000
     28 C28         7.8162   -0.0678   28.5259 C.3       1 UNL1        0.0000
     29 N1          9.9701    5.3852   23.6271 N.ar      1 UNL1        0.0000
     30 N2         10.7037    0.6660   23.4114 N.pl3     1 UNL1        0.0000
     31 N3          4.6940   -4.2882   25.4027 N.am      1 UNL1        0.0000
     32 N4          6.4448   -0.4510   28.0615 N.am      1 UNL1        0.0000
     33 N5          8.7263    0.2410   27.3368 N.4       1 UNL1        0.0000
     34 O1          6.9267   -2.7257   27.8169 O.2       1 UNL1        0.0000
     35 O2          3.9277   -4.8660   23.2871 O.2       1 UNL1        0.0000
     36 O3          9.8357    1.7150   21.3233 O.2       1 UNL1        0.0000
     37 O4         12.3478    1.4830   21.6523 O.2       1 UNL1        0.0000
     38 F1         11.6284   -2.1250   21.5687 F         1 UNL1        0.0000
     39 S1         11.0130    1.7565   22.1900 S.o2      1 UNL1        0.0000
     40 Cl1         4.8048   -7.6211   24.8383 Cl        1 UNL1        0.0000
@<TRIPOS>BOND
     1    1    2 ar
     2    1    4 ar
     3    2    5 ar
     4    3    6 ar
     5    3    8 ar
     6    4   11 ar
     7    5   13 ar
     8    6   14 ar
     9    7   12 1
    10    7   15 2
    11    8   29 ar
    12    9   14 ar
    13    9   29 ar
    14   10   12 2
    15   10   30 1
    16   11   13 ar
    17   11   15 1
    18   12   26 1
    19   13   38 1
    20   14   39 1
    21   15   30 1
    22   16   22 1
    23   16   32 am
    24   16   34 2
    25   17   27 1
    26   17   31 am
    27   17   35 2
    28   18   20 1
    29   18   22 1
    30   19   21 1
    31   19   22 1
    32   20   31 1
    33   21   31 1
    34   23   28 1
    35   24   28 1
    36   25   32 1
    37   26   33 1
    38   27   40 1
    39   28   32 1
    40   28   33 1
    41   30   39 1
    42   36   39 2
    43   37   39 2
@<TRIPOS>MOLECULE
JUA-UNI-bc0-5
   30    32     0     0     0
SMALL
NO_CHARGES

@<TRIPOS>ATOM
      1 C1          6.6316    0.7428   18.8549 C.ar      1 UNL1        0.0000
      2 C2          6.7921   -0.6135   18.5717 C.ar      1 UNL1        0.0000
      3 C3          7.4878    1.3727   19.7582 C.ar      1 UNL1        0.0000
      4 C4          7.1428   -0.2067   24.4978 C.ar      1 UNL1        0.0000
      5 C5          8.0381    0.7721   24.9145 C.ar      1 UNL1        0.0000
      6 C6         15.0506   -1.2010   22.1999 C.ar      1 UNL1        0.0000
      7 C7          7.8086   -1.3400   19.1918 C.ar      1 UNL1        0.0000
      8 C8          8.5043    0.6463   20.3783 C.ar      1 UNL1        0.0000
      9 C9         16.0964   -0.4424   22.7258 C.ar      1 UNL1        0.0000
     10 C10         7.5502   -1.1680   23.5795 C.ar      1 UNL1        0.0000
     11 C11        13.5352   -0.2289   23.8110 C.ar      1 UNL1        0.0000
     12 C12         9.3191    0.7461   24.3872 C.ar      1 UNL1        0.0000
     13 C13        13.7700   -1.0942   22.7425 C.ar      1 UNL1        0.0000
     14 C14         8.6648   -0.7101   20.0951 C.ar      1 UNL1        0.0000
     15 C15        14.5810    0.5296   24.3370 C.ar      1 UNL1        0.0000
     16 C16        15.8616    0.4229   23.7943 C.ar      1 UNL1        0.0000
     17 C17         8.8530   -1.1071   23.1118 C.ar      1 UNL1        0.0000
     18 C18        13.5922    2.3282   28.1126 C.2       1 UNL1        0.0000
     19 C19        13.2792    2.8950   26.9431 C.2       1 UNL1        0.0000
     20 C20        12.6567   -1.9022   22.1814 C.2       1 UNL1        0.0000
     21 C21        13.1409    2.0657   25.7109 C.2       1 UNL1        0.0000
     22 C22         9.7661   -1.4966   20.7675 C.3       1 UNL1        0.0000
     23 C23        10.4848   -2.9983   22.6685 C.3       1 UNL1        0.0000
     24 C24         9.3340   -2.1438   22.1048 C.3       1 UNL1        0.0000
     25 N1          9.7512   -0.1715   23.4934 N.ar      1 UNL1        0.0000
     26 N2         14.3307    1.3918   25.4071 N.am      1 UNL1        0.0000
     27 N3         11.6213   -2.2039   23.0563 N.am      1 UNL1        0.0000
     28 O1         12.7136   -2.2712   21.0113 O.2       1 UNL1        0.0000
     29 O2         12.0867    2.0245   25.0877 O.2       1 UNL1        0.0000
     30 O3         16.8977    1.1540   24.2943 O.3       1 UNL1        0.0000
@<TRIPOS>BOND
     1    1    2 ar
     2    1    3 ar
     3    2    7 ar
     4    3    8 ar
     5    4    5 ar
     6    4   10 ar
     7    5   12 ar
     8    6    9 ar
     9    6   13 ar
    10    7   14 ar
    11    8   14 ar
    12    9   16 ar
    13   10   17 ar
    14   11   13 ar
    15   11   15 ar
    16   12   25 ar
    17   13   20 1
    18   14   22 1
    19   15   16 ar
    20   15   26 1
    21   16   30 1
    22   17   24 1
    23   17   25 ar
    24   18   19 2
    25   19   21 1
    26   20   27 am
    27   20   28 2
    28   21   26 am
    29   21   29 2
    30   22   24 1
    31   23   24 1
    32   23   27 1
@<TRIPOS>MOLECULE
JUA-UNI-bc0-4
   26    27     2     0     0
PROTEIN
NO_CHARGES

@<TRIPOS>ATOM
      1 N1          9.1920   -0.9538   22.4271 N.am      1 GLY1        0.0000
      2 C1          9.9283   -1.2538   23.6340 C.3       1 GLY1        0.0000
      3 C2          9.4796   -0.3446   24.7811 C.3       1 GLY1        0.0000
      4 O1          9.3347    0.9862   24.2956 O.3       1 GLY1        0.0000
      5 C3          8.9932   -1.4633   18.7978 C.ar      2 UNK1        0.0000
      6 C4          7.3320   -0.5717   20.3087 C.ar      2 UNK1        0.0000
      7 C5          8.2304   -1.0401   17.7094 C.ar      2 UNK1        0.0000
      8 C6          6.5692   -0.1486   19.2203 C.ar      2 UNK1        0.0000
      9 C7         12.2031   -2.3276   23.4915 C.ar      2 UNK1        0.0000
     10 C8         13.5773   -2.2581   23.2627 C.ar      2 UNK1        0.0000
     11 C9         12.0100    0.0401   23.0514 C.ar      2 UNK1        0.0000
     12 C10         8.5440   -1.2291   20.0975 C.ar      2 UNK1        0.0000
     13 C11         7.0185   -0.3828   17.9206 C.ar      2 UNK1        0.0000
     14 C12        11.4194   -1.1785   23.3858 C.ar      2 UNK1        0.0000
     15 C13        13.3843    0.1096   22.8226 C.ar      2 UNK1        0.0000
     16 C14        14.1679   -1.0395   22.9283 C.ar      2 UNK1        0.0000
     17 C15         7.1356    4.7915   15.7662 C.2       2 UNK1        0.0000
     18 C16         6.4191    3.7973   16.2994 C.2       2 UNK1        0.0000
     19 C17         9.3388   -1.6695   21.2331 C.2       2 UNK1        0.0000
     20 C18         6.8564    2.3847   16.1400 C.2       2 UNK1        0.0000
     21 C19         6.1983    0.0735   16.7487 C.3       2 UNK1        0.0000
     22 N2          5.9877    1.5029   16.7599 N.am      2 UNK1        0.0000
     23 O2         10.1232   -2.6282   21.1208 O.2       2 UNK1        0.0000
     24 O3          7.8732    2.0735   15.5282 O.2       2 UNK1        0.0000
     25 F1         13.9351    1.2891   22.5021 F         2 UNK1        0.0000
     26 Br1        16.0315   -0.9558   22.6199 Br        2 UNK1        0.0000
@<TRIPOS>BOND
     1    5    7 ar
     2    5   12 ar
     3    6    8 ar
     4    6   12 ar
     5    7   13 ar
     6    8   13 ar
     7    9   10 ar
     8    9   14 ar
     9   10   16 ar
    10   11   14 ar
    11   11   15 ar
    12   12   19 1
    13   13   21 1
    14    2   14 1
    15   15   16 ar
    16   15   25 1
    17   16   26 1
    18   17   18 2
    19   18   20 1
    20    1   19 am
    21   19   23 2
    22   20   22 am
    23   20   24 2
    24   21   22 1
    25    2    3 1
    26    3    4 1
    27    1    2 1
@<TRIPOS>SUBSTRUCTURE
     1 GLY1        1 RESIDUE 1 A     GLY
     2 UNK1        5 GROUP   0 A     ****
@<TRIPOS>MOLECULE
MAK-UNK-8fd-3
   40    43     0     0     0
SMALL
NO_CHARGES

@<TRIPOS>ATOM
      1 C1         13.3289   -0.4567   19.6115 C.ar      1 UNL1        0.0000
      2 C2         14.3604   -1.3506   19.8988 C.ar      1 UNL1        0.0000
      3 C3         11.7729    5.2287   21.9681 C.ar      1 UNL1        0.0000
      4 C4         12.4133   -0.1062   20.6038 C.ar      1 UNL1        0.0000
      5 C5         14.4764   -1.8940   21.1782 C.ar      1 UNL1        0.0000
      6 C6         12.2827    3.9522   22.1773 C.ar      1 UNL1        0.0000
      7 C7         10.3805   -0.8886   23.2254 C.2       1 UNL1        0.0000
      8 C8         11.3898    5.9640   23.0782 C.ar      1 UNL1        0.0000
      9 C9         11.9816    4.2715   24.5147 C.ar      1 UNL1        0.0000
     10 C10        10.6760    0.8638   24.6080 C.2       1 UNL1        0.0000
     11 C11        12.5293   -0.6496   21.8832 C.ar      1 UNL1        0.0000
     12 C12         9.8108   -0.1629   24.3005 C.2       1 UNL1        0.0000
     13 C13        13.5608   -1.5435   22.1704 C.ar      1 UNL1        0.0000
     14 C14        12.3922    3.4569   23.4719 C.ar      1 UNL1        0.0000
     15 C15        11.5767   -0.2834   22.9088 C.2       1 UNL1        0.0000
     16 C16         6.4893   -2.0034   26.6971 C.2       1 UNL1        0.0000
     17 C17         4.4190   -6.5992   27.5047 C.2       1 UNL1        0.0000
     18 C18         4.2734   -3.0696   27.0768 C.3       1 UNL1        0.0000
     19 C19         6.2560   -3.6657   28.5523 C.3       1 UNL1        0.0000
     20 C20         4.4590   -4.4060   26.3605 C.3       1 UNL1        0.0000
     21 C21         6.3681   -4.9933   27.8016 C.3       1 UNL1        0.0000
     22 C22         5.5642   -2.5707   27.7341 C.3       1 UNL1        0.0000
     23 C23         9.5165   -1.8950   26.8385 C.3       1 UNL1        0.0000
     24 C24         6.8888    0.0101   28.1227 C.3       1 UNL1        0.0000
     25 C25         7.2318    0.9089   23.3205 C.3       1 UNL1        0.0000
     26 C26         5.1148   -7.5586   28.4369 C.3       1 UNL1        0.0000
     27 C27         8.4924   -0.4599   24.9867 C.3       1 UNL1        0.0000
     28 C28         8.6164   -0.6985   26.5127 C.3       1 UNL1        0.0000
     29 N1         11.4813    5.5167   24.3506 N.ar      1 UNL1        0.0000
     30 N2         11.7461    0.7805   23.7558 N.pl3     1 UNL1        0.0000
     31 N3          5.0689   -5.3918   27.2518 N.am      1 UNL1        0.0000
     32 N4          7.2989   -0.9390   27.0957 N.am      1 UNL1        0.0000
     33 N5          7.5020    0.6448   24.7523 N.4       1 UNL1        0.0000
     34 O1          6.4943   -2.4909   25.5636 O.2       1 UNL1        0.0000
     35 O2          3.3298   -6.9143   27.0184 O.2       1 UNL1        0.0000
     36 O3         13.8743    1.4474   22.6422 O.2       1 UNL1        0.0000
     37 O4         13.5871    1.8628   25.1358 O.2       1 UNL1        0.0000
     38 F1         13.6861   -2.0746   23.3956 F         1 UNL1        0.0000
     39 S1         13.0378    1.8330   23.7782 S.o2      1 UNL1        0.0000
     40 Cl1         4.5826   -7.1541   30.0651 Cl        1 UNL1        0.0000
@<TRIPOS>BOND
     1    1    2 ar
     2    1    4 ar
     3    2    5 ar
     4    3    6 ar
     5    3    8 ar
     6    4   11 ar
     7    5   13 ar
     8    6   14 ar
     9    7   12 1
    10    7   15 2
    11    8   29 ar
    12    9   14 ar
    13    9   29 ar
    14   10   12 2
    15   10   30 1
    16   11   13 ar
    17   11   15 1
    18   12   27 1
    19   13   38 1
    20   14   39 1
    21   15   30 1
    22   16   22 1
    23   16   32 am
    24   16   34 2
    25   17   26 1
    26   17   31 am
    27   17   35 2
    28   18   20 1
    29   18   22 1
    30   19   21 1
    31   19   22 1
    32   20   31 1
    33   21   31 1
    34   23   28 1
    35   24   32 1
    36   25   33 1
    37   26   40 1
    38   27   28 1
    39   27   33 1
    40   28   32 1
    41   30   39 1
    42   36   39 2
    43   37   39 2
@<TRIPOS>MOLECULE
MAK-UNK-702-12
   43    48     0     0     0
SMALL
NO_CHARGES

@<TRIPOS>ATOM
      1 C1          6.1762   -3.8014   29.4687 C.ar      1 UNL1        0.0000
      2 C2         11.4813   -0.2613   22.8180 C.ar      1 UNL1        0.0000
      3 C3         11.1433   -0.4616   21.4843 C.ar      1 UNL1        0.0000
      4 C4          6.0365   -0.6960   18.1758 C.ar      1 UNL1        0.0000
      5 C5          5.8699   -2.0511   18.4616 C.ar      1 UNL1        0.0000
      6 C6          5.9968   -5.1192   29.8892 C.ar      1 UNL1        0.0000
      7 C7         10.0158   -1.0481   28.8379 C.ar      1 UNL1        0.0000
      8 C8          6.5833   -3.5358   28.1612 C.ar      1 UNL1        0.0000
      9 C9         10.5319    0.2400   23.7058 C.ar      1 UNL1        0.0000
     10 C10         9.8512   -0.1773   21.0411 C.ar      1 UNL1        0.0000
     11 C11         6.5528    0.1631   19.1460 C.ar      1 UNL1        0.0000
     12 C12         6.2196   -2.5471   19.7175 C.ar      1 UNL1        0.0000
     13 C13         6.2247   -6.1714   29.0023 C.ar      1 UNL1        0.0000
     14 C14         9.6982   -2.3146   28.3600 C.ar      1 UNL1        0.0000
     15 C15         6.4556   -4.1001   24.8023 C.2       1 UNL1        0.0000
     16 C16        10.8934   -0.2756   28.0944 C.ar      1 UNL1        0.0000
     17 C17        11.1267   -1.9142   26.5011 C.ar      1 UNL1        0.0000
     18 C18         8.6187   -3.9341   24.1995 C.2       1 UNL1        0.0000
     19 C19         6.8112   -4.5880   27.2744 C.ar      1 UNL1        0.0000
     20 C20         9.2307    0.5400   23.2706 C.ar      1 UNL1        0.0000
     21 C21         8.8694    0.2955   21.9300 C.ar      1 UNL1        0.0000
     22 C22         6.9025   -0.3330   20.4019 C.ar      1 UNL1        0.0000
     23 C23         7.3315   -3.8638   23.7142 C.2       1 UNL1        0.0000
     24 C24         6.7359   -1.6880   20.6877 C.ar      1 UNL1        0.0000
     25 C25         6.6319   -5.9058   27.6949 C.ar      1 UNL1        0.0000
     26 C26        10.2601   -2.7636   27.1700 C.ar      1 UNL1        0.0000
     27 C27         7.2342   -4.3075   25.9195 C.2       1 UNL1        0.0000
     28 C28         6.2919    2.7116   24.0933 C.2       1 UNL1        0.0000
     29 C29         8.2548    1.1133   24.2706 C.3       1 UNL1        0.0000
     30 C30         6.4694    0.7430   22.6103 C.3       1 UNL1        0.0000
     31 C31         7.4635    0.6275   21.4412 C.3       1 UNL1        0.0000
     32 C32         6.9322   -3.5877   22.2934 C.3       1 UNL1        0.0000
     33 C33         4.7990    2.6723   23.8810 C.3       1 UNL1        0.0000
     34 N1         11.4591   -0.6774   26.9342 N.ar      1 UNL1        0.0000
     35 N2          8.5473   -4.2039   25.5413 N.pl3     1 UNL1        0.0000
     36 N3          7.0112    1.5961   23.6634 N.am      1 UNL1        0.0000
     37 N4          7.0844   -2.2078   21.9536 N.pl3     1 UNL1        0.0000
     38 O1          6.8000    3.7007   24.6274 O.2       1 UNL1        0.0000
     39 O2         10.9685   -4.7877   25.6457 O.2       1 UNL1        0.0000
     40 O3          9.4985   -5.1915   27.6825 O.2       1 UNL1        0.0000
     41 F1          6.8467   -6.9286   26.8544 F         1 UNL1        0.0000
     42 S1          9.8789   -4.3732   26.5287 S.o2      1 UNL1        0.0000
     43 Cl1         4.4953    3.4034   22.3094 Cl        1 UNL1        0.0000
@<TRIPOS>BOND
     1    1    6 ar
     2    1    8 ar
     3    2    3 ar
     4    2    9 ar
     5    3   10 ar
     6    4    5 ar
     7    4   11 ar
     8    5   12 ar
     9    6   13 ar
    10    7   14 ar
    11    7   16 ar
    12    8   19 ar
    13    9   20 ar
    14   10   21 ar
    15   11   22 ar
    16   12   24 ar
    17   13   25 ar
    18   14   26 ar
    19   15   23 1
    20   15   27 2
    21   16   34 ar
    22   17   26 ar
    23   17   34 ar
    24   18   23 2
    25   18   35 1
    26   19   25 ar
    27   19   27 1
    28   20   21 ar
    29   20   29 1
    30   21   31 1
    31   22   24 ar
    32   22   31 1
    33   23   32 1
    34   24   37 1
    35   25   41 1
    36   26   42 1
    37   27   35 1
    38   28   33 1
    39   28   36 am
    40   28   38 2
    41   29   36 1
    42   30   31 1
    43   30   36 1
    44   32   37 1
    45   33   43 1
    46   35   42 1
    47   39   42 2
    48   40   42 2
@<TRIPOS>MOLECULE
MAK-UNK-702-16
   43    48     0     0     0
SMALL
NO_CHARGES

@<TRIPOS>ATOM
      1 C1          6.1762   -3.8014   29.4687 C.ar      1 UNL1        0.0000
      2 C2         11.4813   -0.2613   22.8180 C.ar      1 UNL1        0.0000
      3 C3         11.1433   -0.4616   21.4843 C.ar      1 UNL1        0.0000
      4 C4          6.0365   -0.6960   18.1758 C.ar      1 UNL1        0.0000
      5 C5          5.8699   -2.0511   18.4616 C.ar      1 UNL1        0.0000
      6 C6          5.9968   -5.1192   29.8892 C.ar      1 UNL1        0.0000
      7 C7         10.0158   -1.0481   28.8379 C.ar      1 UNL1        0.0000
      8 C8          6.5833   -3.5358   28.1612 C.ar      1 UNL1        0.0000
      9 C9         10.5319    0.2400   23.7058 C.ar      1 UNL1        0.0000
     10 C10         9.8512   -0.1773   21.0411 C.ar      1 UNL1        0.0000
     11 C11         6.5528    0.1631   19.1460 C.ar      1 UNL1        0.0000
     12 C12         6.2196   -2.5471   19.7175 C.ar      1 UNL1        0.0000
     13 C13         6.2247   -6.1714   29.0023 C.ar      1 UNL1        0.0000
     14 C14         9.6982   -2.3146   28.3600 C.ar      1 UNL1        0.0000
     15 C15         6.4556   -4.1001   24.8023 C.2       1 UNL1        0.0000
     16 C16        10.8934   -0.2756   28.0944 C.ar      1 UNL1        0.0000
     17 C17        11.1267   -1.9142   26.5011 C.ar      1 UNL1        0.0000
     18 C18         8.6187   -3.9341   24.1995 C.2       1 UNL1        0.0000
     19 C19         6.8112   -4.5880   27.2744 C.ar      1 UNL1        0.0000
     20 C20         9.2307    0.5400   23.2706 C.ar      1 UNL1        0.0000
     21 C21         8.8694    0.2955   21.9300 C.ar      1 UNL1        0.0000
     22 C22         6.9025   -0.3330   20.4019 C.ar      1 UNL1        0.0000
     23 C23         7.3315   -3.8638   23.7142 C.2       1 UNL1        0.0000
     24 C24         6.7359   -1.6880   20.6877 C.ar      1 UNL1        0.0000
     25 C25         6.6319   -5.9058   27.6949 C.ar      1 UNL1        0.0000
     26 C26        10.2601   -2.7636   27.1700 C.ar      1 UNL1        0.0000
     27 C27         7.2342   -4.3075   25.9195 C.2       1 UNL1        0.0000
     28 C28         6.2919    2.7116   24.0933 C.2       1 UNL1        0.0000
     29 C29         8.2548    1.1133   24.2706 C.3       1 UNL1        0.0000
     30 C30         6.4694    0.7430   22.6103 C.3       1 UNL1        0.0000
     31 C31         7.4635    0.6275   21.4412 C.3       1 UNL1        0.0000
     32 C32         6.9322   -3.5877   22.2934 C.3       1 UNL1        0.0000
     33 C33         4.7990    2.6723   23.8810 C.3       1 UNL1        0.0000
     34 N1         11.4591   -0.6774   26.9342 N.ar      1 UNL1        0.0000
     35 N2          8.5473   -4.2039   25.5413 N.pl3     1 UNL1        0.0000
     36 N3          7.0112    1.5961   23.6634 N.am      1 UNL1        0.0000
     37 N4          7.0844   -2.2078   21.9536 N.pl3     1 UNL1        0.0000
     38 O1          6.8000    3.7007   24.6274 O.2       1 UNL1        0.0000
     39 O2         10.9685   -4.7877   25.6457 O.2       1 UNL1        0.0000
     40 O3          9.4985   -5.1915   27.6825 O.2       1 UNL1        0.0000
     41 F1          6.8467   -6.9286   26.8544 F         1 UNL1        0.0000
     42 S1          9.8789   -4.3732   26.5287 S.o2      1 UNL1        0.0000
     43 Cl1         4.4953    3.4034   22.3094 Cl        1 UNL1        0.0000
@<TRIPOS>BOND
     1    1    6 ar
     2    1    8 ar
     3    2    3 ar
     4    2    9 ar
     5    3   10 ar
     6    4    5 ar
     7    4   11 ar
     8    5   12 ar
     9    6   13 ar
    10    7   14 ar
    11    7   16 ar
    12    8   19 ar
    13    9   20 ar
    14   10   21 ar
    15   11   22 ar
    16   12   24 ar
    17   13   25 ar
    18   14   26 ar
    19   15   23 1
    20   15   27 2
    21   16   34 ar
    22   17   26 ar
    23   17   34 ar
    24   18   23 2
    25   18   35 1
    26   19   25 ar
    27   19   27 1
    28   20   21 ar
    29   20   29 1
    30   21   31 1
    31   22   24 ar
    32   22   31 1
    33   23   32 1
    34   24   37 1
    35   25   41 1
    36   26   42 1
    37   27   35 1
    38   28   33 1
    39   28   36 am
    40   28   38 2
    41   29   36 1
    42   30   31 1
    43   30   36 1
    44   32   37 1
    45   33   43 1
    46   35   42 1
    47   39   42 2
    48   40   42 2
@<TRIPOS>MOLECULE
MAK-UNK-8fd-23
   40    43     0     0     0
SMALL
NO_CHARGES

@<TRIPOS>ATOM
      1 C1         10.4022   -2.2774   21.4736 C.ar      1 UNL1        0.0000
      2 C2         11.4769   -3.1221   21.1962 C.ar      1 UNL1        0.0000
      3 C3         10.6348   -0.9657   21.8873 C.ar      1 UNL1        0.0000
      4 C4         12.7842   -2.6553   21.3327 C.ar      1 UNL1        0.0000
      5 C5         10.0515    1.0711   26.5296 C.ar      1 UNL1        0.0000
      6 C6          8.7091    1.0225   26.8885 C.ar      1 UNL1        0.0000
      7 C7         12.3092    1.9961   21.6830 C.2       1 UNL1        0.0000
      8 C8          9.6805   -0.7868   25.0917 C.ar      1 UNL1        0.0000
      9 C9         12.5267    2.5809   23.8465 C.2       1 UNL1        0.0000
     10 C10        11.9421   -0.4989   22.0238 C.ar      1 UNL1        0.0000
     11 C11        12.5295    3.0835   22.5640 C.2       1 UNL1        0.0000
     12 C12        13.0169   -1.3437   21.7465 C.ar      1 UNL1        0.0000
     13 C13        10.5544    0.1527   25.6147 C.ar      1 UNL1        0.0000
     14 C14        12.1782    0.8621   22.4540 C.2       1 UNL1        0.0000
     15 C15         7.9178    0.0442   26.3084 C.ar      1 UNL1        0.0000
     16 C16         5.9591   -1.1389   27.2959 C.2       1 UNL1        0.0000
     17 C17         5.2858   -6.4216   27.4153 C.2       1 UNL1        0.0000
     18 C18         6.4899   -3.1595   28.6417 C.3       1 UNL1        0.0000
     19 C19         6.7608   -3.1791   26.1004 C.3       1 UNL1        0.0000
     20 C20         6.6846   -4.6563   28.4302 C.3       1 UNL1        0.0000
     21 C21         5.6793   -4.2541   26.1781 C.3       1 UNL1        0.0000
     22 C22         6.8449   -2.3490   27.3877 C.3       1 UNL1        0.0000
     23 C23         5.2234    1.7117   27.8477 C.3       1 UNL1        0.0000
     24 C24         4.6185    0.9712   25.5170 C.3       1 UNL1        0.0000
     25 C25        11.7149    6.7715   22.0017 C.3       1 UNL1        0.0000
     26 C26        12.7261    4.4946   22.1802 C.3       1 UNL1        0.0000
     27 C27         4.4557   -6.8624   26.2345 C.3       1 UNL1        0.0000
     28 C28         5.7489    1.2405   26.4994 C.3       1 UNL1        0.0000
     29 N1          8.3705   -0.8650   25.4162 N.ar      1 UNL1        0.0000
     30 N2         12.3120    1.2297   23.7675 N.pl3     1 UNL1        0.0000
     31 N3          5.8596   -5.1519   27.3263 N.am      1 UNL1        0.0000
     32 N4          6.5202    0.0022   26.6891 N.am      1 UNL1        0.0000
     33 N5         11.5383    5.3652   22.4397 N.4       1 UNL1        0.0000
     34 O1          4.8057   -1.2351   27.7228 O.2       1 UNL1        0.0000
     35 O2          5.4243   -7.1788   28.3788 O.2       1 UNL1        0.0000
     36 O3         13.0271    0.8888   26.1310 O.2       1 UNL1        0.0000
     37 O4         12.5922   -1.1368   24.6543 O.2       1 UNL1        0.0000
     38 F1         14.2797   -0.9101   21.8728 F         1 UNL1        0.0000
     39 S1         12.2294    0.1825   25.1419 S.o2      1 UNL1        0.0000
     40 Cl1         5.5577   -7.6479   25.1092 Cl        1 UNL1        0.0000
@<TRIPOS>BOND
     1    1    2 ar
     2    1    3 ar
     3    2    4 ar
     4    3   10 ar
     5    4   12 ar
     6    5    6 ar
     7    5   13 ar
     8    6   15 ar
     9    7   11 1
    10    7   14 2
    11    8   13 ar
    12    8   29 ar
    13    9   11 2
    14    9   30 1
    15   10   12 ar
    16   10   14 1
    17   11   26 1
    18   12   38 1
    19   13   39 1
    20   14   30 1
    21   15   29 ar
    22   15   32 1
    23   16   22 1
    24   16   32 am
    25   16   34 2
    26   17   27 1
    27   17   31 am
    28   17   35 2
    29   18   20 1
    30   18   22 1
    31   19   21 1
    32   19   22 1
    33   20   31 1
    34   21   31 1
    35   23   28 1
    36   24   28 1
    37   25   33 1
    38   26   33 1
    39   27   40 1
    40   28   32 1
    41   30   39 1
    42   36   39 2
    43   37   39 2
@<TRIPOS>MOLECULE
MAK-UNK-702-6
   43    48     0     0     0
SMALL
NO_CHARGES

@<TRIPOS>ATOM
      1 C1         13.4118    0.5110   23.3483 C.ar      1 UNL1        0.0000
      2 C2          4.9151   -7.1576   21.6034 C.ar      1 UNL1        0.0000
      3 C3         12.6810    1.6990   23.3628 C.ar      1 UNL1        0.0000
      4 C4         12.8139   -0.6703   22.9093 C.ar      1 UNL1        0.0000
      5 C5          6.8647    3.5155   24.0683 C.ar      1 UNL1        0.0000
      6 C6          7.7749    2.7478   24.7856 C.ar      1 UNL1        0.0000
      7 C7          3.6278   -7.1178   22.1388 C.ar      1 UNL1        0.0000
      8 C8          7.8779   -4.8069   29.3116 C.ar      1 UNL1        0.0000
      9 C9          5.8844   -6.2595   22.0502 C.ar      1 UNL1        0.0000
     10 C10        11.3523    1.7057   22.9384 C.ar      1 UNL1        0.0000
     11 C11        11.4852   -0.6636   22.4849 C.ar      1 UNL1        0.0000
     12 C12         6.7167    3.3146   22.6976 C.ar      1 UNL1        0.0000
     13 C13         8.5493    1.7908   24.1295 C.ar      1 UNL1        0.0000
     14 C14         3.3096   -6.1799   23.1210 C.ar      1 UNL1        0.0000
     15 C15         8.1636   -5.1870   28.0050 C.ar      1 UNL1        0.0000
     16 C16         6.8771   -3.1406   23.0013 C.2       1 UNL1        0.0000
     17 C17         6.5502   -4.7938   29.7076 C.ar      1 UNL1        0.0000
     18 C18         5.8334   -5.4917   27.6395 C.ar      1 UNL1        0.0000
     19 C19         8.2538   -3.5758   24.7291 C.2       1 UNL1        0.0000
     20 C20         5.5663   -5.3216   23.0324 C.ar      1 UNL1        0.0000
     21 C21        10.7544    0.5244   22.4994 C.ar      1 UNL1        0.0000
     22 C22         7.4827    2.3477   22.0253 C.ar      1 UNL1        0.0000
     23 C23         8.4383    1.5964   22.7394 C.ar      1 UNL1        0.0000
     24 C24         7.9392   -2.6244   23.7840 C.2       1 UNL1        0.0000
     25 C25         4.2789   -5.2818   23.5678 C.ar      1 UNL1        0.0000
     26 C26         7.1275   -5.5374   27.1465 C.ar      1 UNL1        0.0000
     27 C27         6.5749   -4.3917   23.4921 C.2       1 UNL1        0.0000
     28 C28         7.4531    0.2034   18.9406 C.2       1 UNL1        0.0000
     29 C29         7.2466    2.1540   20.5470 C.3       1 UNL1        0.0000
     30 C30         9.2878    0.7688   20.4969 C.3       1 UNL1        0.0000
     31 C31         9.2856    0.5310   22.0303 C.3       1 UNL1        0.0000
     32 C32         8.6005   -1.2883   23.6157 C.3       1 UNL1        0.0000
     33 C33         7.8699   -1.2463   18.9423 C.3       1 UNL1        0.0000
     34 N1          5.5169   -5.1276   28.9024 N.ar      1 UNL1        0.0000
     35 N2          7.4178   -4.6456   24.5423 N.pl3     1 UNL1        0.0000
     36 N3          7.9379    0.9912   19.9857 N.am      1 UNL1        0.0000
     37 N4          8.5914   -0.8095   22.2171 N.4       1 UNL1        0.0000
     38 O1          6.7257    0.6219   18.0365 O.2       1 UNL1        0.0000
     39 O2          8.8294   -6.5153   25.3944 O.2       1 UNL1        0.0000
     40 O3          6.3324   -6.8826   25.0739 O.2       1 UNL1        0.0000
     41 F1          3.9571   -4.3862   24.5128 F         1 UNL1        0.0000
     42 S1          7.4528   -6.0276   25.4727 S.o2      1 UNL1        0.0000
     43 Cl1         6.5473   -2.1508   18.2144 Cl        1 UNL1        0.0000
@<TRIPOS>BOND
     1    1    3 ar
     2    1    4 ar
     3    2    7 ar
     4    2    9 ar
     5    3   10 ar
     6    4   11 ar
     7    5    6 ar
     8    5   12 ar
     9    6   13 ar
    10    7   14 ar
    11    8   15 ar
    12    8   17 ar
    13    9   20 ar
    14   10   21 ar
    15   11   21 ar
    16   12   22 ar
    17   13   23 ar
    18   14   25 ar
    19   15   26 ar
    20   16   24 1
    21   16   27 2
    22   17   34 ar
    23   18   26 ar
    24   18   34 ar
    25   19   24 2
    26   19   35 1
    27   20   25 ar
    28   20   27 1
    29   21   31 1
    30   22   23 ar
    31   22   29 1
    32   23   31 1
    33   24   32 1
    34   25   41 1
    35   26   42 1
    36   27   35 1
    37   28   33 1
    38   28   36 am
    39   28   38 2
    40   29   36 1
    41   30   31 1
    42   30   36 1
    43   31   37 1
    44   32   37 1
    45   33   43 1
    46   35   42 1
    47   39   42 2
    48   40   42 2
@<TRIPOS>MOLECULE
INS-INS-bc9-1
   40    44     0     0     0
SMALL
NO_CHARGES

@<TRIPOS>ATOM
      1 C1          2.5663   -8.2688   27.8980 C.1       1 UNL1        0.0000
      2 C2          8.2188   -6.9898   22.5794 C.ar      1 UNL1        0.0000
      3 C3          8.6931   -6.4175   23.7597 C.ar      1 UNL1        0.0000
      4 C4          7.7218   -6.1769   21.5606 C.ar      1 UNL1        0.0000
      5 C5          9.4454   -2.0060   25.9417 C.2       1 UNL1        0.0000
      6 C6          5.9624   -4.7434   27.1114 C.ar      1 UNL1        0.0000
      7 C7          5.4499   -3.9821   24.8582 C.ar      1 UNL1        0.0000
      8 C8          8.1730   -4.2192   22.9027 C.ar      1 UNL1        0.0000
      9 C9          8.6921   -0.9741   26.4567 C.2       1 UNL1        0.0000
     10 C10         6.2411   -3.9230   26.0162 C.ar      1 UNL1        0.0000
     11 C11         8.6701   -5.0322   23.9213 C.ar      1 UNL1        0.0000
     12 C12         8.6671   -3.1791   25.7222 C.2       1 UNL1        0.0000
     13 C13         4.8812   -5.6048   27.0282 C.ar      1 UNL1        0.0000
     14 C14         4.0927   -5.6637   25.8743 C.ar      1 UNL1        0.0000
     15 C15         7.6989   -4.7916   21.7223 C.ar      1 UNL1        0.0000
     16 C16         4.3688   -4.8624   24.7790 C.ar      1 UNL1        0.0000
     17 C17         7.3484   -2.9992   26.0781 C.2       1 UNL1        0.0000
     18 C18         9.1812   -4.4165   25.1916 C.2       1 UNL1        0.0000
     19 C19         3.4329   -3.7522   22.8080 C.2       1 UNL1        0.0000
     20 C20         4.4131   -6.5948   28.0483 C.3       1 UNL1        0.0000
     21 C21         3.0202   -6.6985   26.0101 C.3       1 UNL1        0.0000
     22 C22         1.7196   -5.9392   22.3919 C.3       1 UNL1        0.0000
     23 C23         1.3530   -7.2933   21.7958 C.3       1 UNL1        0.0000
     24 C24         3.9589   -6.8971   22.2048 C.3       1 UNL1        0.0000
     25 C25         2.9919   -6.9119   27.5380 C.3       1 UNL1        0.0000
     26 C26         3.0254   -6.1557   23.1609 C.3       1 UNL1        0.0000
     27 C27         3.3589   -2.4247   23.5417 C.3       1 UNL1        0.0000
     28 C28         7.1672   -3.9222   20.6331 C.3       1 UNL1        0.0000
     29 N1          2.2297   -9.3420   28.1828 N.1       1 UNL1        0.0000
     30 N2          3.5922   -4.9194   23.6224 N.am      1 UNL1        0.0000
     31 O1         10.0889   -5.0354   25.7809 O.2       1 UNL1        0.0000
     32 O2          3.3432   -3.7857   21.5781 O.2       1 UNL1        0.0000
     33 O3          3.0082   -9.3403   21.9066 O.2       1 UNL1        0.0000
     34 O4          3.0986   -7.8081   19.8864 O.2       1 UNL1        0.0000
     35 F1          6.7383   -4.6173   19.5382 F         1 UNL1        0.0000
     36 F2          6.0983   -3.1618   21.0133 F         1 UNL1        0.0000
     37 F3          8.0969   -3.0393   20.1652 F         1 UNL1        0.0000
     38 S1          7.0533   -1.4211   26.6738 S.3       1 UNL1        0.0000
     39 S2          2.9064   -8.0271   21.3050 S.o2      1 UNL1        0.0000
     40 Cl1         1.9933   -2.4309   24.6775 Cl        1 UNL1        0.0000
@<TRIPOS>BOND
     1    1   25 1
     2    1   29 3
     3    2    3 ar
     4    2    4 ar
     5    3   11 ar
     6    4   15 ar
     7    5    9 2
     8    5   12 1
     9    6   10 ar
    10    6   13 ar
    11    7   10 ar
    12    7   16 ar
    13    8   11 ar
    14    8   15 ar
    15    9   38 1
    16   10   17 1
    17   11   18 1
    18   12   17 2
    19   12   18 1
    20   13   14 ar
    21   13   20 1
    22   14   16 ar
    23   14   21 1
    24   15   28 1
    25   16   30 1
    26   17   38 1
    27   18   31 2
    28   19   27 1
    29   19   30 am
    30   19   32 2
    31   20   25 1
    32   21   25 1
    33   22   23 1
    34   22   26 1
    35   23   39 1
    36   24   26 1
    37   24   39 1
    38   26   30 1
    39   27   40 1
    40   28   35 1
    41   28   36 1
    42   28   37 1
    43   33   39 2
    44   34   39 2
@<TRIPOS>MOLECULE
INS-INS-7e2-1
   42    47     0     0     0
SMALL
NO_CHARGES

@<TRIPOS>ATOM
      1 C1          8.6312   -5.0180   19.6248 C.2       1 UNL1        0.0000
      2 C2          9.1045   -6.0796   22.6323 C.ar      1 UNL1        0.0000
      3 C3          7.8969   -3.9956   23.0029 C.ar      1 UNL1        0.0000
      4 C4          7.6838   -5.0310   18.5835 C.2       1 UNL1        0.0000
      5 C5          8.2999   -5.0401   22.1543 C.ar      1 UNL1        0.0000
      6 C6          9.0882   -5.0166   24.7829 C.ar      1 UNL1        0.0000
      7 C7          9.4969   -6.0584   23.9614 C.ar      1 UNL1        0.0000
      8 C8          8.2930   -3.9756   24.3400 C.ar      1 UNL1        0.0000
      9 C9          7.8789   -5.0403   20.7737 C.2       1 UNL1        0.0000
     10 C10         3.8610   -5.6791   22.5290 C.2       1 UNL1        0.0000
     11 C11         5.4270   -5.0933   21.1214 C.2       1 UNL1        0.0000
     12 C12         3.2590   -6.5260   23.5030 C.2       1 UNL1        0.0000
     13 C13         5.1902   -8.0271   23.3132 C.2       1 UNL1        0.0000
     14 C14         5.7551   -7.2254   22.3944 C.2       1 UNL1        0.0000
     15 C15         9.6351   -5.2364   26.1126 C.2       1 UNL1        0.0000
     16 C16         3.8999   -7.6528   23.8775 C.2       1 UNL1        0.0000
     17 C17         3.2549   -8.5026   24.8816 C.2       1 UNL1        0.0000
     18 C18         8.6928   -1.7559   25.2919 C.2       1 UNL1        0.0000
     19 C19        10.3507   -7.0637   24.6691 C.3       1 UNL1        0.0000
     20 C20         5.4485   -3.0580   24.8620 C.3       1 UNL1        0.0000
     21 C21         4.2034   -3.2867   25.7109 C.3       1 UNL1        0.0000
     22 C22         6.4849   -4.1677   26.7756 C.3       1 UNL1        0.0000
     23 C23         6.6183   -2.9630   25.8448 C.3       1 UNL1        0.0000
     24 C24        10.4521   -6.5255   26.1251 C.3       1 UNL1        0.0000
     25 C25         9.8377   -7.5076   27.1243 C.3       1 UNL1        0.0000
     26 C26        11.9007   -6.2071   26.4999 C.3       1 UNL1        0.0000
     27 C27         1.6644   -8.4209   26.7937 C.3       1 UNL1        0.0000
     28 C28        10.0328   -1.7814   24.5781 C.3       1 UNL1        0.0000
     29 N1          6.4258   -5.0596   19.0314 N.2       1 UNL1        0.0000
     30 N2          3.4980   -4.5430   21.9723 N.2       1 UNL1        0.0000
     31 N3          4.4878   -4.1745   21.0829 N.2       1 UNL1        0.0000
     32 N4          6.5774   -5.0648   20.3667 N.pl3     1 UNL1        0.0000
     33 N5          5.0880   -6.0679   22.0156 N.pl3     1 UNL1        0.0000
     34 N6          2.4133   -7.7986   25.7256 N.am      1 UNL1        0.0000
     35 N7          7.8875   -2.9344   25.1732 N.am      1 UNL1        0.0000
     36 O1          9.4558   -4.4928   27.0614 O.2       1 UNL1        0.0000
     37 O2          3.4739   -9.7132   24.9229 O.2       1 UNL1        0.0000
     38 O3          8.3556   -0.7621   25.9404 O.2       1 UNL1        0.0000
     39 O4          4.3681   -3.7613   28.2974 O.2       1 UNL1        0.0000
     40 O5          4.3632   -5.7286   26.6955 O.2       1 UNL1        0.0000
     41 S1          4.7277   -4.3683   27.0329 S.o2      1 UNL1        0.0000
     42 Cl1        10.9012   -0.2570   24.8563 Cl        1 UNL1        0.0000
@<TRIPOS>BOND
     1    1    4 1
     2    1    9 2
     3    2    5 ar
     4    2    7 ar
     5    3    5 ar
     6    3    8 ar
     7    4   29 2
     8    5    9 1
     9    6    7 ar
    10    6    8 ar
    11    6   15 1
    12    7   19 1
    13    8   35 1
    14    9   32 1
    15   10   12 1
    16   10   30 2
    17   10   33 1
    18   11   31 2
    19   11   32 1
    20   11   33 1
    21   12   16 2
    22   13   14 2
    23   13   16 1
    24   14   33 1
    25   15   24 1
    26   15   36 2
    27   16   17 1
    28   17   34 am
    29   17   37 2
    30   18   28 1
    31   18   35 am
    32   18   38 2
    33   19   24 1
    34   20   21 1
    35   20   23 1
    36   21   41 1
    37   22   23 1
    38   22   41 1
    39   23   35 1
    40   24   25 1
    41   24   26 1
    42   27   34 1
    43   28   42 1
    44   29   32 1
    45   30   31 1
    46   39   41 2
    47   40   41 2
@<TRIPOS>MOLECULE
INS-INS-714-1
   40    44     0     0     0
SMALL
NO_CHARGES

@<TRIPOS>ATOM
      1 C1          4.4589   -7.9217   22.5307 C.ar      1 UNL1        0.0000
      2 C2          3.2868   -8.6582   22.7117 C.ar      1 UNL1        0.0000
      3 C3         10.7101   -5.3786   26.2617 C.2       1 UNL1        0.0000
      4 C4          6.9145   -6.1022   23.7926 C.ar      1 UNL1        0.0000
      5 C5          5.9676   -5.0662   21.8261 C.ar      1 UNL1        0.0000
      6 C6          8.2265   -4.5378   22.5008 C.ar      1 UNL1        0.0000
      7 C7         11.2626   -6.4249   25.5563 C.2       1 UNL1        0.0000
      8 C8          4.6081   -6.6574   23.1253 C.ar      1 UNL1        0.0000
      9 C9          5.8459   -5.9330   22.9122 C.ar      1 UNL1        0.0000
     10 C10         8.1048   -5.4046   23.5869 C.ar      1 UNL1        0.0000
     11 C11         9.5209   -4.8886   25.6485 C.2       1 UNL1        0.0000
     12 C12         2.4282   -6.8498   24.0733 C.ar      1 UNL1        0.0000
     13 C13         3.5878   -6.1146   23.9109 C.ar      1 UNL1        0.0000
     14 C14         7.1579   -4.3686   21.6204 C.ar      1 UNL1        0.0000
     15 C15         2.2870   -8.0962   23.4815 C.ar      1 UNL1        0.0000
     16 C16         9.2101   -5.5789   24.4976 C.2       1 UNL1        0.0000
     17 C17         8.7246   -3.8005   26.1574 C.2       1 UNL1        0.0000
     18 C18         7.1317   -3.9999   19.2004 C.2       1 UNL1        0.0000
     19 C19         1.2296   -6.5550   24.8880 C.3       1 UNL1        0.0000
     20 C20         6.7883   -1.5945   22.0117 C.3       1 UNL1        0.0000
     21 C21         0.2944   -7.6331   24.3382 C.3       1 UNL1        0.0000
     22 C22         7.2207   -0.1422   22.1770 C.3       1 UNL1        0.0000
     23 C23         8.9192   -1.6887   20.8211 C.3       1 UNL1        0.0000
     24 C24         7.4473   -2.0871   20.7209 C.3       1 UNL1        0.0000
     25 C25         6.8250   -2.5096   28.1889 C.3       1 UNL1        0.0000
     26 C26         3.6634   -4.8786   26.1064 C.3       1 UNL1        0.0000
     27 C27         2.6850   -3.7662   24.0667 C.3       1 UNL1        0.0000
     28 C28         9.1647   -3.0953   27.4572 C.3       1 UNL1        0.0000
     29 C29         7.6631   -5.3989   18.9432 C.3       1 UNL1        0.0000
     30 C30         8.2198   -1.9782   27.9006 C.3       1 UNL1        0.0000
     31 C31         3.7261   -4.7830   24.5706 C.3       1 UNL1        0.0000
     32 N1          7.2798   -3.5013   20.5341 N.am      1 UNL1        0.0000
     33 O1          7.6849   -3.3885   25.5994 O.2       1 UNL1        0.0000
     34 O2          6.6199   -3.3536   18.2827 O.2       1 UNL1        0.0000
     35 O3          9.0438    0.9386   20.6116 O.2       1 UNL1        0.0000
     36 O4          9.7892   -0.1524   22.7775 O.2       1 UNL1        0.0000
     37 O5          1.0854   -8.6974   23.7579 O.3       1 UNL1        0.0000
     38 S1         10.3491   -6.8124   24.1607 S.3       1 UNL1        0.0000
     39 S2          8.9183   -0.0910   21.6221 S.o2      1 UNL1        0.0000
     40 Cl1         9.3990   -5.4696   19.3133 Cl        1 UNL1        0.0000
@<TRIPOS>BOND
     1    1    2 ar
     2    1    8 ar
     3    2   15 ar
     4    3    7 2
     5    3   11 1
     6    4    9 ar
     7    4   10 ar
     8    5    9 ar
     9    5   14 ar
    10    6   10 ar
    11    6   14 ar
    12    7   38 1
    13    8    9 1
    14    8   13 ar
    15   10   16 1
    16   11   16 2
    17   11   17 1
    18   12   13 ar
    19   12   15 ar
    20   12   19 1
    21   13   31 1
    22   14   32 1
    23   15   37 1
    24   16   38 1
    25   17   28 1
    26   17   33 2
    27   18   29 1
    28   18   32 am
    29   18   34 2
    30   19   21 1
    31   20   22 1
    32   20   24 1
    33   21   37 1
    34   22   39 1
    35   23   24 1
    36   23   39 1
    37   24   32 1
    38   25   30 1
    39   26   31 1
    40   27   31 1
    41   28   30 1
    42   29   40 1
    43   35   39 2
    44   36   39 2
@<TRIPOS>MOLECULE
JUA-UNI-bc0-2
   28    30     0     0     0
SMALL
NO_CHARGES

@<TRIPOS>ATOM
      1 C1         13.2089   -1.3989   22.2319 C.ar      1 UNL1        0.0000
      2 C2         13.0228    0.7276   23.3635 C.ar      1 UNL1        0.0000
      3 C3         14.3770   -0.9636   21.6061 C.ar      1 UNL1        0.0000
      4 C4         14.1909    1.1628   22.7377 C.ar      1 UNL1        0.0000
      5 C5          6.6359   -3.0772   22.6430 C.ar      1 UNL1        0.0000
      6 C6          7.4312   -2.1263   24.7311 C.ar      1 UNL1        0.0000
      7 C7          7.4923   -2.2124   21.9328 C.ar      1 UNL1        0.0000
      8 C8         12.5317   -0.5533   23.1106 C.ar      1 UNL1        0.0000
      9 C9         14.8680    0.3172   21.8590 C.ar      1 UNL1        0.0000
     10 C10         6.6168   -3.0222   24.0414 C.ar      1 UNL1        0.0000
     11 C11         8.2887   -1.2589   24.0482 C.ar      1 UNL1        0.0000
     12 C12         7.7641   -1.9999   20.5523 C.2       1 UNL1        0.0000
     13 C13         8.2972   -1.3250   22.6504 C.ar      1 UNL1        0.0000
     14 C14         8.7110   -1.0060   20.4602 C.2       1 UNL1        0.0000
     15 C15        15.1187    2.5335   16.7140 C.2       1 UNL1        0.0000
     16 C16        15.5297    1.5919   17.5688 C.2       1 UNL1        0.0000
     17 C17        11.2878   -1.0160   23.7781 C.2       1 UNL1        0.0000
     18 C18        15.5529    1.8612   19.0313 C.2       1 UNL1        0.0000
     19 C19         5.7120   -3.9356   24.8002 C.3       1 UNL1        0.0000
     20 C20         7.1433   -2.7175   19.4193 C.3       1 UNL1        0.0000
     21 C21         9.3560   -0.3876   19.2858 C.3       1 UNL1        0.0000
     22 C22        16.1177    0.7818   21.1903 C.3       1 UNL1        0.0000
     23 C23         9.1478   -0.3121   24.8177 C.3       1 UNL1        0.0000
     24 N1          9.0265   -0.6054   21.7308 N.pl3     1 UNL1        0.0000
     25 N2         10.3867   -0.0243   24.1412 N.am      1 UNL1        0.0000
     26 N3         16.0076    0.7686   19.7537 N.am      1 UNL1        0.0000
     27 O1         11.1307   -2.2158   23.9890 O.2       1 UNL1        0.0000
     28 O2         15.2013    2.9344   19.5106 O.2       1 UNL1        0.0000
@<TRIPOS>BOND
     1    1    3 ar
     2    1    8 ar
     3    2    4 ar
     4    2    8 ar
     5    3    9 ar
     6    4    9 ar
     7    5    7 ar
     8    5   10 ar
     9    6   10 ar
    10    6   11 ar
    11    7   12 1
    12    7   13 ar
    13    8   17 1
    14    9   22 1
    15   10   19 1
    16   11   13 ar
    17   11   23 1
    18   12   14 2
    19   12   20 1
    20   13   24 1
    21   14   21 1
    22   14   24 1
    23   15   16 2
    24   16   18 1
    25   17   25 am
    26   17   27 2
    27   18   26 am
    28   18   28 2
    29   22   26 1
    30   23   25 1
@<TRIPOS>MOLECULE
MAK-UNK-702-13
   43    48     0     0     0
SMALL
NO_CHARGES

@<TRIPOS>ATOM
      1 C1          5.8279    1.1497   16.6703 C.ar      1 UNL1        0.0000
      2 C2          7.7917   -1.1233   29.6365 C.ar      1 UNL1        0.0000
      3 C3          6.4929   -1.6051   29.7715 C.ar      1 UNL1        0.0000
      4 C4          7.2002    1.1733   16.4220 C.ar      1 UNL1        0.0000
      5 C5          4.1649   -5.8315   25.3454 C.ar      1 UNL1        0.0000
      6 C6          7.5570    3.3214   24.7952 C.ar      1 UNL1        0.0000
      7 C7          5.3516    0.7446   17.9172 C.ar      1 UNL1        0.0000
      8 C8          8.7551   -1.8898   28.9813 C.ar      1 UNL1        0.0000
      9 C9          6.1567   -2.8553   29.2544 C.ar      1 UNL1        0.0000
     10 C10         4.9358   -5.9012   26.5057 C.ar      1 UNL1        0.0000
     11 C11         4.3483   -4.7792   24.4482 C.ar      1 UNL1        0.0000
     12 C12         8.0963    0.7917   17.4204 C.ar      1 UNL1        0.0000
     13 C13         6.5969    3.0607   23.8239 C.ar      1 UNL1        0.0000
     14 C14         6.0735   -3.8662   25.8719 C.ar      1 UNL1        0.0000
     15 C15         5.4075   -1.3247   20.6250 C.2       1 UNL1        0.0000
     16 C16         8.8889    3.2942   24.4144 C.ar      1 UNL1        0.0000
     17 C17         8.3497    2.7816   22.2408 C.ar      1 UNL1        0.0000
     18 C18         5.0620    0.1017   22.3326 C.2       1 UNL1        0.0000
     19 C19         6.2477    0.3629   18.9157 C.ar      1 UNL1        0.0000
     20 C20         5.8902   -4.9185   26.7689 C.ar      1 UNL1        0.0000
     21 C21         8.4294   -3.1472   28.4506 C.ar      1 UNL1        0.0000
     22 C22         7.1186   -3.6380   28.5956 C.ar      1 UNL1        0.0000
     23 C23         4.9731   -1.2241   21.9698 C.2       1 UNL1        0.0000
     24 C24         5.3026   -3.7966   24.7115 C.ar      1 UNL1        0.0000
     25 C25         7.6201    0.3864   18.6673 C.ar      1 UNL1        0.0000
     26 C26         6.9925    2.7846   22.5198 C.ar      1 UNL1        0.0000
     27 C27         5.7488   -0.0574   20.2071 C.2       1 UNL1        0.0000
     28 C28         9.6183   -5.7781   26.0065 C.2       1 UNL1        0.0000
     29 C29         9.5045   -3.9398   27.7468 C.3       1 UNL1        0.0000
     30 C30         7.9677   -5.8870   27.8419 C.3       1 UNL1        0.0000
     31 C31         6.7314   -4.9945   28.0366 C.3       1 UNL1        0.0000
     32 C32         4.5023   -2.3532   22.8402 C.3       1 UNL1        0.0000
     33 C33        10.8073   -5.0635   25.4136 C.3       1 UNL1        0.0000
     34 N1          9.3116    3.0301   23.1577 N.ar      1 UNL1        0.0000
     35 N2          5.5349    0.8016   21.2533 N.pl3     1 UNL1        0.0000
     36 N3          9.0320   -5.1844   27.1265 N.am      1 UNL1        0.0000
     37 N4          5.4882   -2.7328   23.8041 N.pl3     1 UNL1        0.0000
     38 O1          9.2201   -6.8235   25.4868 O.2       1 UNL1        0.0000
     39 O2          4.5224    3.0444   21.6515 O.2       1 UNL1        0.0000
     40 O3          6.4317    2.8150   19.9856 O.2       1 UNL1        0.0000
     41 F1          8.4946    0.0226   19.6168 F         1 UNL1        0.0000
     42 S1          5.7967    2.4472   21.2534 S.o2      1 UNL1        0.0000
     43 Cl1        10.1768   -3.9720   24.1856 Cl        1 UNL1        0.0000
@<TRIPOS>BOND
     1    1    4 ar
     2    1    7 ar
     3    2    3 ar
     4    2    8 ar
     5    3    9 ar
     6    4   12 ar
     7    5   10 ar
     8    5   11 ar
     9    6   13 ar
    10    6   16 ar
    11    7   19 ar
    12    8   21 ar
    13    9   22 ar
    14   10   20 ar
    15   11   24 ar
    16   12   25 ar
    17   13   26 ar
    18   14   20 ar
    19   14   24 ar
    20   15   23 1
    21   15   27 2
    22   16   34 ar
    23   17   26 ar
    24   17   34 ar
    25   18   23 2
    26   18   35 1
    27   19   25 ar
    28   19   27 1
    29   20   31 1
    30   21   22 ar
    31   21   29 1
    32   22   31 1
    33   23   32 1
    34   24   37 1
    35   25   41 1
    36   26   42 1
    37   27   35 1
    38   28   33 1
    39   28   36 am
    40   28   38 2
    41   29   36 1
    42   30   31 1
    43   30   36 1
    44   32   37 1
    45   33   43 1
    46   35   42 1
    47   39   42 2
    48   40   42 2
@<TRIPOS>MOLECULE
MAK-UNK-702-15
   43    48     0     0     0
SMALL
NO_CHARGES

@<TRIPOS>ATOM
      1 C1          5.8279    1.1497   16.6703 C.ar      1 UNL1        0.0000
      2 C2          7.7917   -1.1233   29.6365 C.ar      1 UNL1        0.0000
      3 C3          6.4929   -1.6051   29.7715 C.ar      1 UNL1        0.0000
      4 C4          7.2002    1.1733   16.4220 C.ar      1 UNL1        0.0000
      5 C5          4.1649   -5.8315   25.3454 C.ar      1 UNL1        0.0000
      6 C6          7.5570    3.3214   24.7952 C.ar      1 UNL1        0.0000
      7 C7          5.3516    0.7446   17.9172 C.ar      1 UNL1        0.0000
      8 C8          8.7551   -1.8898   28.9813 C.ar      1 UNL1        0.0000
      9 C9          6.1567   -2.8553   29.2544 C.ar      1 UNL1        0.0000
     10 C10         4.9358   -5.9012   26.5057 C.ar      1 UNL1        0.0000
     11 C11         4.3483   -4.7792   24.4482 C.ar      1 UNL1        0.0000
     12 C12         8.0963    0.7917   17.4204 C.ar      1 UNL1        0.0000
     13 C13         6.5969    3.0607   23.8239 C.ar      1 UNL1        0.0000
     14 C14         6.0735   -3.8662   25.8719 C.ar      1 UNL1        0.0000
     15 C15         5.4075   -1.3247   20.6250 C.2       1 UNL1        0.0000
     16 C16         8.8889    3.2942   24.4144 C.ar      1 UNL1        0.0000
     17 C17         8.3497    2.7816   22.2408 C.ar      1 UNL1        0.0000
     18 C18         5.0620    0.1017   22.3326 C.2       1 UNL1        0.0000
     19 C19         6.2477    0.3629   18.9157 C.ar      1 UNL1        0.0000
     20 C20         5.8902   -4.9185   26.7689 C.ar      1 UNL1        0.0000
     21 C21         8.4294   -3.1472   28.4506 C.ar      1 UNL1        0.0000
     22 C22         7.1186   -3.6380   28.5956 C.ar      1 UNL1        0.0000
     23 C23         4.9731   -1.2241   21.9698 C.2       1 UNL1        0.0000
     24 C24         5.3026   -3.7966   24.7115 C.ar      1 UNL1        0.0000
     25 C25         7.6201    0.3864   18.6673 C.ar      1 UNL1        0.0000
     26 C26         6.9925    2.7846   22.5198 C.ar      1 UNL1        0.0000
     27 C27         5.7488   -0.0574   20.2071 C.2       1 UNL1        0.0000
     28 C28         9.6183   -5.7781   26.0065 C.2       1 UNL1        0.0000
     29 C29         9.5045   -3.9398   27.7468 C.3       1 UNL1        0.0000
     30 C30         7.9677   -5.8870   27.8419 C.3       1 UNL1        0.0000
     31 C31         6.7314   -4.9945   28.0366 C.3       1 UNL1        0.0000
     32 C32         4.5023   -2.3532   22.8402 C.3       1 UNL1        0.0000
     33 C33        10.8073   -5.0635   25.4136 C.3       1 UNL1        0.0000
     34 N1          9.3116    3.0301   23.1577 N.ar      1 UNL1        0.0000
     35 N2          5.5349    0.8016   21.2533 N.pl3     1 UNL1        0.0000
     36 N3          9.0320   -5.1844   27.1265 N.am      1 UNL1        0.0000
     37 N4          5.4882   -2.7328   23.8041 N.pl3     1 UNL1        0.0000
     38 O1          9.2201   -6.8235   25.4868 O.2       1 UNL1        0.0000
     39 O2          4.5224    3.0444   21.6515 O.2       1 UNL1        0.0000
     40 O3          6.4317    2.8150   19.9856 O.2       1 UNL1        0.0000
     41 F1          8.4946    0.0226   19.6168 F         1 UNL1        0.0000
     42 S1          5.7967    2.4472   21.2534 S.o2      1 UNL1        0.0000
     43 Cl1        10.1768   -3.9720   24.1856 Cl        1 UNL1        0.0000
@<TRIPOS>BOND
     1    1    4 ar
     2    1    7 ar
     3    2    3 ar
     4    2    8 ar
     5    3    9 ar
     6    4   12 ar
     7    5   10 ar
     8    5   11 ar
     9    6   13 ar
    10    6   16 ar
    11    7   19 ar
    12    8   21 ar
    13    9   22 ar
    14   10   20 ar
    15   11   24 ar
    16   12   25 ar
    17   13   26 ar
    18   14   20 ar
    19   14   24 ar
    20   15   23 1
    21   15   27 2
    22   16   34 ar
    23   17   26 ar
    24   17   34 ar
    25   18   23 2
    26   18   35 1
    27   19   25 ar
    28   19   27 1
    29   20   31 1
    30   21   22 ar
    31   21   29 1
    32   22   31 1
    33   23   32 1
    34   24   37 1
    35   25   41 1
    36   26   42 1
    37   27   35 1
    38   28   33 1
    39   28   36 am
    40   28   38 2
    41   29   36 1
    42   30   31 1
    43   30   36 1
    44   32   37 1
    45   33   43 1
    46   35   42 1
    47   39   42 2
    48   40   42 2
@<TRIPOS>MOLECULE
MAK-UNK-e05-1
   52    58     0     0     0
SMALL
NO_CHARGES

@<TRIPOS>ATOM
      1 C1          3.9932   -6.3388   22.4205 C.ar      1 UNL1        0.0000
      2 C2          7.0390   -1.0066   27.5953 C.2       1 UNL1        0.0000
      3 C3          5.0892   -5.7431   21.7958 C.ar      1 UNL1        0.0000
      4 C4          3.8389   -6.2400   23.8001 C.ar      1 UNL1        0.0000
      5 C5          7.3044   -1.3766   26.2452 C.2       1 UNL1        0.0000
      6 C6         -1.0474   -1.4173   27.6190 C.2       1 UNL1        0.0000
      7 C7          6.7497   -0.6203   21.5410 C.2       1 UNL1        0.0000
      8 C8         -1.9905   -0.7648   26.7734 C.2       1 UNL1        0.0000
      9 C9          5.8292   -0.3391   20.4903 C.2       1 UNL1        0.0000
     10 C10         7.1556   -4.4340   21.9330 C.ar      1 UNL1        0.0000
     11 C11         6.8464   -4.2357   24.6975 C.ar      1 UNL1        0.0000
     12 C12         7.8901   -1.6314   28.4800 C.2       1 UNL1        0.0000
     13 C13         6.0463   -5.0397   22.5452 C.ar      1 UNL1        0.0000
     14 C14         5.8893   -4.9392   23.9481 C.ar      1 UNL1        0.0000
     15 C15         7.9424   -3.6401   24.0727 C.ar      1 UNL1        0.0000
     16 C16         8.0967   -3.7390   22.6931 C.ar      1 UNL1        0.0000
     17 C17         4.7800   -5.5450   24.5602 C.ar      1 UNL1        0.0000
     18 C18         8.3487   -2.2700   26.1494 C.2       1 UNL1        0.0000
     19 C19         7.9291   -1.1515   21.0672 C.2       1 UNL1        0.0000
     20 C20         0.2509   -1.0893   27.2960 C.2       1 UNL1        0.0000
     21 C21        -1.3770    0.0373   25.8363 C.2       1 UNL1        0.0000
     22 C22         6.3403   -0.6660   19.2535 C.2       1 UNL1        0.0000
     23 C23        -1.8443   -3.7031   21.2279 C.2       1 UNL1        0.0000
     24 C24        -0.8393   -1.3899   21.5600 C.3       1 UNL1        0.0000
     25 C25        -3.2285   -1.8021   21.9995 C.3       1 UNL1        0.0000
     26 C26        -0.7165   -0.6635   22.8961 C.3       1 UNL1        0.0000
     27 C27        -3.1134   -1.0806   23.3376 C.3       1 UNL1        0.0000
     28 C28         2.9112   -3.3287   25.7179 C.3       1 UNL1        0.0000
     29 C29         4.1807   -3.2430   27.8383 C.3       1 UNL1        0.0000
     30 C30         1.6272   -3.6172   26.4791 C.3       1 UNL1        0.0000
     31 C31         2.9137   -3.5303   28.6278 C.3       1 UNL1        0.0000
     32 C32         8.9383   -2.9005   24.9050 C.3       1 UNL1        0.0000
     33 C33         9.2621   -3.1091   22.0031 C.3       1 UNL1        0.0000
     34 C34         9.1469   -1.5806   21.8487 C.3       1 UNL1        0.0000
     35 C35         1.5030   -1.5535   27.9313 C.3       1 UNL1        0.0000
     36 C36        -0.4938   -4.1807   20.7572 C.3       1 UNL1        0.0000
     37 N1         -1.9378   -2.3622   21.5966 N.am      1 UNL1        0.0000
     38 N2         -2.0323   -0.0525   23.2542 N.pl3     1 UNL1        0.0000
     39 N3          4.0927   -3.8278   26.4727 N.pl3     1 UNL1        0.0000
     40 N4          1.6961   -3.0446   27.8760 N.4       1 UNL1        0.0000
     41 O1         -2.7855   -4.4995   21.2687 O.2       1 UNL1        0.0000
     42 O2          3.3206   -6.2790   26.5862 O.2       1 UNL1        0.0000
     43 O3          5.7491   -5.7295   26.9709 O.2       1 UNL1        0.0000
     44 O4         -3.3450    1.4506   24.8862 O.2       1 UNL1        0.0000
     45 O5         -0.9853    2.0748   24.2617 O.2       1 UNL1        0.0000
     46 S1          9.0039   -2.6593   27.6828 S.3       1 UNL1        0.0000
     47 S2          0.3291    0.0013   25.9781 S.3       1 UNL1        0.0000
     48 S3          7.9235   -1.3093   19.3621 S.3       1 UNL1        0.0000
     49 S4          4.4917   -5.4788   26.3004 S.o2      1 UNL1        0.0000
     50 S5         -1.9903    1.0732   24.5453 S.o2      1 UNL1        0.0000
     51 Cl1         5.5827   -0.4968   17.7255 Cl        1 UNL1        0.0000
     52 Cl2         0.3793   -4.7140   22.1894 Cl        1 UNL1        0.0000
@<TRIPOS>BOND
     1    1    3 ar
     2    1    4 ar
     3    2    5 1
     4    2   12 2
     5    3   13 ar
     6    4   17 ar
     7    5   18 2
     8    6    8 1
     9    6   20 2
    10    7    9 1
    11    7   19 2
    12    8   21 2
    13    9   22 2
    14   10   13 ar
    15   10   16 ar
    16   11   14 ar
    17   11   15 ar
    18   12   46 1
    19   13   14 ar
    20   14   17 ar
    21   15   16 ar
    22   15   32 1
    23   16   33 1
    24   17   49 1
    25   18   32 1
    26   18   46 1
    27   19   34 1
    28   19   48 1
    29   20   35 1
    30   20   47 1
    31   21   47 1
    32   21   50 1
    33   22   48 1
    34   22   51 1
    35   23   36 1
    36   23   37 am
    37   23   41 2
    38   24   26 1
    39   24   37 1
    40   25   27 1
    41   25   37 1
    42   26   38 1
    43   27   38 1
    44   28   30 1
    45   28   39 1
    46   29   31 1
    47   29   39 1
    48   30   40 1
    49   31   40 1
    50   33   34 1
    51   35   40 1
    52   36   52 1
    53   38   50 1
    54   39   49 1
    55   42   49 2
    56   43   49 2
    57   44   50 2
    58   45   50 2
@<TRIPOS>MOLECULE
MAK-UNK-e05-3
   51    57     0     0     0
SMALL
NO_CHARGES

@<TRIPOS>ATOM
      1 C1          4.2189   -7.3866   24.1890 C.ar      1 UNL1        0.0000
      2 C2          4.7935   -6.8254   23.0482 C.ar      1 UNL1        0.0000
      3 C3          4.5993   -6.9417   25.4516 C.ar      1 UNL1        0.0000
      4 C4          0.7369   -0.5443   27.5567 C.2       1 UNL1        0.0000
      5 C5          5.9040   -1.9800   20.7335 C.2       1 UNL1        0.0000
      6 C6         -0.3426   -0.2389   26.6783 C.2       1 UNL1        0.0000
      7 C7          5.5279   -0.8211   19.9948 C.2       1 UNL1        0.0000
      8 C8          8.5076   -0.2644   22.7039 C.2       1 UNL1        0.0000
      9 C9          6.3464   -5.2339   22.0195 C.ar      1 UNL1        0.0000
     10 C10         7.1086   -4.3423   24.5496 C.ar      1 UNL1        0.0000
     11 C11         7.8235    0.9061   22.9478 C.2       1 UNL1        0.0000
     12 C12         7.1573   -0.8915   24.4888 C.2       1 UNL1        0.0000
     13 C13         5.7576   -5.8101   23.1569 C.ar      1 UNL1        0.0000
     14 C14         6.1444   -5.3576   24.4409 C.ar      1 UNL1        0.0000
     15 C15         8.1217   -1.3058   23.5965 C.2       1 UNL1        0.0000
     16 C16         7.6831   -3.7811   23.4088 C.ar      1 UNL1        0.0000
     17 C17         7.3027   -4.2261   22.1462 C.ar      1 UNL1        0.0000
     18 C18         5.5557   -5.9339   25.5783 C.ar      1 UNL1        0.0000
     19 C19         7.1491   -2.4438   20.3700 C.2       1 UNL1        0.0000
     20 C20         1.9313   -0.0241   27.1090 C.2       1 UNL1        0.0000
     21 C21         0.0679    0.5033   25.5927 C.2       1 UNL1        0.0000
     22 C22         6.5001   -0.4432   19.0948 C.2       1 UNL1        0.0000
     23 C23        -1.5184   -4.3568   22.5415 C.2       1 UNL1        0.0000
     24 C24        -0.3908   -2.1566   21.9420 C.3       1 UNL1        0.0000
     25 C25        -2.6378   -2.1882   22.9530 C.3       1 UNL1        0.0000
     26 C26         0.0451   -1.0870   22.9389 C.3       1 UNL1        0.0000
     27 C27        -2.2090   -1.1219   23.9546 C.3       1 UNL1        0.0000
     28 C28         3.7926   -3.8375   27.0142 C.3       1 UNL1        0.0000
     29 C29         5.6628   -3.0221   28.4049 C.3       1 UNL1        0.0000
     30 C30         3.3598   -2.4069   26.7338 C.3       1 UNL1        0.0000
     31 C31         5.2508   -1.5826   28.1388 C.3       1 UNL1        0.0000
     32 C32         8.7051   -2.7032   23.5666 C.3       1 UNL1        0.0000
     33 C33         7.9045   -3.6397   20.9113 C.3       1 UNL1        0.0000
     34 C34         3.2689   -0.1212   27.7322 C.3       1 UNL1        0.0000
     35 C35        -0.3200   -5.0800   21.9809 C.3       1 UNL1        0.0000
     36 N1         -1.4855   -2.9643   22.4926 N.am      1 UNL1        0.0000
     37 N2         -1.1399   -0.2732   23.3469 N.pl3     1 UNL1        0.0000
     38 N3          5.2644   -3.8798   27.2517 N.pl3     1 UNL1        0.0000
     39 N4          3.7607   -1.5314   27.8976 N.4       1 UNL1        0.0000
     40 O1         -2.4530   -5.0111   23.0107 O.2       1 UNL1        0.0000
     41 O2          5.2446   -6.3011   28.1360 O.2       1 UNL1        0.0000
     42 O3          7.4060   -5.3107   27.3023 O.2       1 UNL1        0.0000
     43 O4         -2.0138    1.7614   24.6669 O.2       1 UNL1        0.0000
     44 O5          0.1706    1.9435   23.4248 O.2       1 UNL1        0.0000
     45 S1          6.7211    0.7469   24.2484 S.3       1 UNL1        0.0000
     46 S2          1.7485    0.8286   25.6353 S.3       1 UNL1        0.0000
     47 S3          7.8593   -1.4837   19.1428 S.3       1 UNL1        0.0000
     48 S4          5.9673   -5.4424   27.2229 S.o2      1 UNL1        0.0000
     49 S5         -0.7797    1.1711   24.1956 S.o2      1 UNL1        0.0000
     50 Cl1         6.4688    0.8827   18.0095 Cl        1 UNL1        0.0000
     51 Cl2         0.8280   -5.2536   23.3037 Cl        1 UNL1        0.0000
@<TRIPOS>BOND
     1    1    2 ar
     2    1    3 ar
     3    2   13 ar
     4    3   18 ar
     5    4    6 1
     6    4   20 2
     7    5    7 1
     8    5   19 2
     9    6   21 2
    10    7   22 2
    11    8   11 2
    12    8   15 1
    13    9   13 ar
    14    9   17 ar
    15   10   14 ar
    16   10   16 ar
    17   11   45 1
    18   12   15 2
    19   12   45 1
    20   13   14 ar
    21   14   18 ar
    22   15   32 1
    23   16   17 ar
    24   16   32 1
    25   17   33 1
    26   18   48 1
    27   19   33 1
    28   19   47 1
    29   20   34 1
    30   20   46 1
    31   21   46 1
    32   21   49 1
    33   22   47 1
    34   22   50 1
    35   23   35 1
    36   23   36 am
    37   23   40 2
    38   24   26 1
    39   24   36 1
    40   25   27 1
    41   25   36 1
    42   26   37 1
    43   27   37 1
    44   28   30 1
    45   28   38 1
    46   29   31 1
    47   29   38 1
    48   30   39 1
    49   31   39 1
    50   34   39 1
    51   35   51 1
    52   37   49 1
    53   38   48 1
    54   41   48 2
    55   42   48 2
    56   43   49 2
    57   44   49 2
@<TRIPOS>MOLECULE
MAK-UNK-e05-4
   51    57     0     0     0
SMALL
NO_CHARGES

@<TRIPOS>ATOM
      1 C1          4.2189   -7.3866   24.1890 C.ar      1 UNL1        0.0000
      2 C2          4.7935   -6.8254   23.0482 C.ar      1 UNL1        0.0000
      3 C3          4.5993   -6.9417   25.4516 C.ar      1 UNL1        0.0000
      4 C4          0.7369   -0.5443   27.5567 C.2       1 UNL1        0.0000
      5 C5          5.9040   -1.9800   20.7335 C.2       1 UNL1        0.0000
      6 C6         -0.3426   -0.2389   26.6783 C.2       1 UNL1        0.0000
      7 C7          5.5279   -0.8211   19.9948 C.2       1 UNL1        0.0000
      8 C8          8.5076   -0.2644   22.7039 C.2       1 UNL1        0.0000
      9 C9          6.3464   -5.2339   22.0195 C.ar      1 UNL1        0.0000
     10 C10         7.1086   -4.3423   24.5496 C.ar      1 UNL1        0.0000
     11 C11         7.8235    0.9061   22.9478 C.2       1 UNL1        0.0000
     12 C12         7.1573   -0.8915   24.4888 C.2       1 UNL1        0.0000
     13 C13         5.7576   -5.8101   23.1569 C.ar      1 UNL1        0.0000
     14 C14         6.1444   -5.3576   24.4409 C.ar      1 UNL1        0.0000
     15 C15         8.1217   -1.3058   23.5965 C.2       1 UNL1        0.0000
     16 C16         7.6831   -3.7811   23.4088 C.ar      1 UNL1        0.0000
     17 C17         7.3027   -4.2261   22.1462 C.ar      1 UNL1        0.0000
     18 C18         5.5557   -5.9339   25.5783 C.ar      1 UNL1        0.0000
     19 C19         7.1491   -2.4438   20.3700 C.2       1 UNL1        0.0000
     20 C20         1.9313   -0.0241   27.1090 C.2       1 UNL1        0.0000
     21 C21         0.0679    0.5033   25.5927 C.2       1 UNL1        0.0000
     22 C22         6.5001   -0.4432   19.0948 C.2       1 UNL1        0.0000
     23 C23        -1.5184   -4.3568   22.5415 C.2       1 UNL1        0.0000
     24 C24        -0.3908   -2.1566   21.9420 C.3       1 UNL1        0.0000
     25 C25        -2.6378   -2.1882   22.9530 C.3       1 UNL1        0.0000
     26 C26         0.0451   -1.0870   22.9389 C.3       1 UNL1        0.0000
     27 C27        -2.2090   -1.1219   23.9546 C.3       1 UNL1        0.0000
     28 C28         3.7926   -3.8375   27.0142 C.3       1 UNL1        0.0000
     29 C29         5.6628   -3.0221   28.4049 C.3       1 UNL1        0.0000
     30 C30         3.3598   -2.4069   26.7338 C.3       1 UNL1        0.0000
     31 C31         5.2508   -1.5826   28.1388 C.3       1 UNL1        0.0000
     32 C32         8.7051   -2.7032   23.5666 C.3       1 UNL1        0.0000
     33 C33         7.9045   -3.6397   20.9113 C.3       1 UNL1        0.0000
     34 C34         3.2689   -0.1212   27.7322 C.3       1 UNL1        0.0000
     35 C35        -0.3200   -5.0800   21.9809 C.3       1 UNL1        0.0000
     36 N1         -1.4855   -2.9643   22.4926 N.am      1 UNL1        0.0000
     37 N2         -1.1399   -0.2732   23.3469 N.pl3     1 UNL1        0.0000
     38 N3          5.2644   -3.8798   27.2517 N.pl3     1 UNL1        0.0000
     39 N4          3.7607   -1.5314   27.8976 N.4       1 UNL1        0.0000
     40 O1         -2.4530   -5.0111   23.0107 O.2       1 UNL1        0.0000
     41 O2          5.2446   -6.3011   28.1360 O.2       1 UNL1        0.0000
     42 O3          7.4060   -5.3107   27.3023 O.2       1 UNL1        0.0000
     43 O4         -2.0138    1.7614   24.6669 O.2       1 UNL1        0.0000
     44 O5          0.1706    1.9435   23.4248 O.2       1 UNL1        0.0000
     45 S1          6.7211    0.7469   24.2484 S.3       1 UNL1        0.0000
     46 S2          1.7485    0.8286   25.6353 S.3       1 UNL1        0.0000
     47 S3          7.8593   -1.4837   19.1428 S.3       1 UNL1        0.0000
     48 S4          5.9673   -5.4424   27.2229 S.o2      1 UNL1        0.0000
     49 S5         -0.7797    1.1711   24.1956 S.o2      1 UNL1        0.0000
     50 Cl1         6.4688    0.8827   18.0095 Cl        1 UNL1        0.0000
     51 Cl2         0.8280   -5.2536   23.3037 Cl        1 UNL1        0.0000
@<TRIPOS>BOND
     1    1    2 ar
     2    1    3 ar
     3    2   13 ar
     4    3   18 ar
     5    4    6 1
     6    4   20 2
     7    5    7 1
     8    5   19 2
     9    6   21 2
    10    7   22 2
    11    8   11 2
    12    8   15 1
    13    9   13 ar
    14    9   17 ar
    15   10   14 ar
    16   10   16 ar
    17   11   45 1
    18   12   15 2
    19   12   45 1
    20   13   14 ar
    21   14   18 ar
    22   15   32 1
    23   16   17 ar
    24   16   32 1
    25   17   33 1
    26   18   48 1
    27   19   33 1
    28   19   47 1
    29   20   34 1
    30   20   46 1
    31   21   46 1
    32   21   49 1
    33   22   47 1
    34   22   50 1
    35   23   35 1
    36   23   36 am
    37   23   40 2
    38   24   26 1
    39   24   36 1
    40   25   27 1
    41   25   36 1
    42   26   37 1
    43   27   37 1
    44   28   30 1
    45   28   38 1
    46   29   31 1
    47   29   38 1
    48   30   39 1
    49   31   39 1
    50   34   39 1
    51   35   51 1
    52   37   49 1
    53   38   48 1
    54   41   48 2
    55   42   48 2
    56   43   49 2
    57   44   49 2
@<TRIPOS>MOLECULE
MAK-UNK-e4a-19
   35    38     0     0     0
SMALL
NO_CHARGES

@<TRIPOS>ATOM
      1 C1          9.1918   -1.9610   21.6292 C.ar      1 UNL1        0.0000
      2 C2         10.3392   -1.4533   22.2386 C.ar      1 UNL1        0.0000
      3 C3          9.2809   -1.6572   24.4010 C.ar      1 UNL1        0.0000
      4 C4          8.0889   -2.3167   22.4057 C.ar      1 UNL1        0.0000
      5 C5         10.3838   -1.3014   23.6245 C.ar      1 UNL1        0.0000
      6 C6          8.1335   -2.1648   23.7915 C.ar      1 UNL1        0.0000
      7 C7         12.7135    4.6666   24.5892 C.2       1 UNL1        0.0000
      8 C8          5.8133    1.3001   16.0481 C.3       1 UNL1        0.0000
      9 C9          3.3412    1.0400   15.6606 C.3       1 UNL1        0.0000
     10 C10        13.6035    2.4817   23.8442 C.3       1 UNL1        0.0000
     11 C11        11.2181    2.9560   23.4467 C.3       1 UNL1        0.0000
     12 C12         5.7130    0.4038   17.2725 C.3       1 UNL1        0.0000
     13 C13         3.2466    0.1441   16.8858 C.3       1 UNL1        0.0000
     14 C14        13.2561    1.1230   24.4350 C.3       1 UNL1        0.0000
     15 C15        10.8346    1.6028   24.0301 C.3       1 UNL1        0.0000
     16 C16         6.8590   -2.8639   21.7241 C.3       1 UNL1        0.0000
     17 C17         4.5007    2.0269   15.7703 C.3       1 UNL1        0.0000
     18 C18         6.3095   -1.9491   20.6366 C.3       1 UNL1        0.0000
     19 C19         5.7308   -2.9465   19.6565 C.3       1 UNL1        0.0000
     20 C20         6.7550   -4.0669   19.7226 C.3       1 UNL1        0.0000
     21 C21         6.9648   -2.5384   24.6432 C.3       1 UNL1        0.0000
     22 C22        11.6178   -0.7551   24.2799 C.3       1 UNL1        0.0000
     23 C23        11.5164    5.5747   24.7153 C.3       1 UNL1        0.0000
     24 C24         6.1925   -5.4216   19.3313 C.3       1 UNL1        0.0000
     25 C25         4.4927   -1.5526   18.2231 C.3       1 UNL1        0.0000
     26 N1         12.4939    3.4222   24.0004 N.am      1 UNL1        0.0000
     27 N2         11.9703    0.6284   23.8108 N.4       1 UNL1        0.0000
     28 N3          4.5657   -0.5628   17.0930 N.4       1 UNL1        0.0000
     29 O1         13.8094    5.0525   25.0044 O.2       1 UNL1        0.0000
     30 O2          7.2064   -4.1106   21.0870 O.3       1 UNL1        0.0000
     31 O3          4.6297    2.7545   14.5542 O.3       1 UNL1        0.0000
     32 O4          5.3081   -1.0926   21.1583 O.3       1 UNL1        0.0000
     33 O5          5.1397   -5.7547   20.2212 O.3       1 UNL1        0.0000
     34 O6          5.6384   -2.3886   18.3597 O.3       1 UNL1        0.0000
     35 Cl1        10.7567    5.1956   26.2570 Cl        1 UNL1        0.0000
@<TRIPOS>BOND
     1    1    2 ar
     2    1    4 ar
     3    2    5 ar
     4    3    5 ar
     5    3    6 ar
     6    4    6 ar
     7    4   16 1
     8    5   22 1
     9    6   21 1
    10    7   23 1
    11    7   26 am
    12    7   29 2
    13    8   12 1
    14    8   17 1
    15    9   13 1
    16    9   17 1
    17   10   14 1
    18   10   26 1
    19   11   15 1
    20   11   26 1
    21   12   28 1
    22   13   28 1
    23   14   27 1
    24   15   27 1
    25   16   18 1
    26   16   30 1
    27   17   31 1
    28   18   19 1
    29   18   32 1
    30   19   20 1
    31   19   34 1
    32   20   24 1
    33   20   30 1
    34   22   27 1
    35   23   35 1
    36   24   33 1
    37   25   28 1
    38   25   34 1
@<TRIPOS>MOLECULE
MAK-UNK-e05-5
   58    65     0     0     0
SMALL
NO_CHARGES

@<TRIPOS>ATOM
      1 C1         -0.5437   -6.1708   20.5149 C.ar      1 UNL1        0.0000
      2 C2          0.8222   -6.1976   20.2320 C.ar      1 UNL1        0.0000
      3 C3         -0.9864   -6.3102   21.8270 C.ar      1 UNL1        0.0000
      4 C4          2.9781   -1.9668   27.4097 C.2       1 UNL1        0.0000
      5 C5          8.7121   -0.8825   21.0886 C.2       1 UNL1        0.0000
      6 C6          4.2691   -1.6406   26.9026 C.2       1 UNL1        0.0000
      7 C7          9.7468    0.0721   21.3086 C.2       1 UNL1        0.0000
      8 C8          7.1624   -6.1950   26.2067 C.2       1 UNL1        0.0000
      9 C9          3.1424   -6.3941   20.9938 C.ar      1 UNL1        0.0000
     10 C10         2.2554   -6.6735   23.6230 C.ar      1 UNL1        0.0000
     11 C11         7.8668   -6.2958   27.3862 C.2       1 UNL1        0.0000
     12 C12         5.5309   -5.6225   27.7599 C.2       1 UNL1        0.0000
     13 C13         1.7639   -6.3647   21.2604 C.ar      1 UNL1        0.0000
     14 C14         1.3137   -6.5065   22.5946 C.ar      1 UNL1        0.0000
     15 C15         5.8093   -5.8048   26.4230 C.2       1 UNL1        0.0000
     16 C16         3.6213   -6.7003   23.3400 C.ar      1 UNL1        0.0000
     17 C17         4.0640   -6.5609   22.0279 C.ar      1 UNL1        0.0000
     18 C18        -0.0649   -6.4771   22.8611 C.ar      1 UNL1        0.0000
     19 C19         1.9771   -1.2844   26.7542 C.2       1 UNL1        0.0000
     20 C20         8.8787   -2.0126   21.8584 C.2       1 UNL1        0.0000
     21 C21         4.2055   -0.7212   25.8785 C.2       1 UNL1        0.0000
     22 C22        10.6647   -0.3648   22.2384 C.2       1 UNL1        0.0000
     23 C23         9.0039    3.4590   26.9941 C.2       1 UNL1        0.0000
     24 C24         6.8132    2.3092   27.0376 C.3       1 UNL1        0.0000
     25 C25         8.3705    1.7771   25.1939 C.3       1 UNL1        0.0000
     26 C26         6.5495    0.8231   27.2462 C.3       1 UNL1        0.0000
     27 C27         8.1030    0.2900   25.4002 C.3       1 UNL1        0.0000
     28 C28         6.6162   -2.9264   21.5975 C.3       1 UNL1        0.0000
     29 C29         8.3640   -4.2600   22.7644 C.3       1 UNL1        0.0000
     30 C30        -0.7594   -3.9342   24.4786 C.3       1 UNL1        0.0000
     31 C31        -0.3715   -5.0475   26.6482 C.3       1 UNL1        0.0000
     32 C32         5.9763   -4.2118   21.0906 C.3       1 UNL1        0.0000
     33 C33         7.7169   -5.5432   22.2590 C.3       1 UNL1        0.0000
     34 C34         0.0036   -2.7084   24.9561 C.3       1 UNL1        0.0000
     35 C35         0.3964   -3.8341   27.1488 C.3       1 UNL1        0.0000
     36 C36         4.8007   -5.6152   25.3163 C.3       1 UNL1        0.0000
     37 C37         4.5912   -6.8799   24.4619 C.3       1 UNL1        0.0000
     38 C38         5.5213   -6.5866   21.7018 C.3       1 UNL1        0.0000
     39 C39         0.5174   -1.3467   26.9837 C.3       1 UNL1        0.0000
     40 C40        10.3406    3.6239   26.3159 C.3       1 UNL1        0.0000
     41 N1          8.0422   -3.1347   21.8811 N.pl3     1 UNL1        0.0000
     42 N2          8.1298    2.5287   26.4331 N.am      1 UNL1        0.0000
     43 N3          6.7413    0.0793   25.9687 N.pl3     1 UNL1        0.0000
     44 N4         -0.2374   -5.1504   25.1664 N.pl3     1 UNL1        0.0000
     45 N5          6.2373   -5.3202   22.0786 N.4       1 UNL1        0.0000
     46 N6         -0.1270   -2.5977   26.4568 N.4       1 UNL1        0.0000
     47 O1          8.7472    4.1351   27.9935 O.2       1 UNL1        0.0000
     48 O2         -2.1722   -6.6599   24.3773 O.2       1 UNL1        0.0000
     49 O3         -0.0203   -7.7173   25.1512 O.2       1 UNL1        0.0000
     50 O4          5.7453   -0.8442   23.7840 O.2       1 UNL1        0.0000
     51 O5          5.0064    1.4144   24.6208 O.2       1 UNL1        0.0000
     52 S1          6.8977   -5.9210   28.7473 S.3       1 UNL1        0.0000
     53 S2          2.5944   -0.2553   25.5327 S.3       1 UNL1        0.0000
     54 S3         10.2777   -1.9201   22.8414 S.3       1 UNL1        0.0000
     55 S4         -0.7297   -6.6448   24.4876 S.o2      1 UNL1        0.0000
     56 S5          5.4319    0.0547   24.8737 S.o2      1 UNL1        0.0000
     57 Cl1        12.0600    0.4548   22.8027 Cl        1 UNL1        0.0000
     58 Cl2        11.4454    2.5002   27.0998 Cl        1 UNL1        0.0000
@<TRIPOS>BOND
     1    1    2 ar
     2    1    3 ar
     3    2   13 ar
     4    3   18 ar
     5    4    6 1
     6    4   19 2
     7    5    7 1
     8    5   20 2
     9    6   21 2
    10    7   22 2
    11    8   11 2
    12    8   15 1
    13    9   13 ar
    14    9   17 ar
    15   10   14 ar
    16   10   16 ar
    17   11   52 1
    18   12   15 2
    19   12   52 1
    20   13   14 ar
    21   14   18 ar
    22   15   36 1
    23   16   17 ar
    24   16   37 1
    25   17   38 1
    26   18   55 1
    27   19   39 1
    28   19   53 1
    29   20   41 1
    30   20   54 1
    31   21   53 1
    32   21   56 1
    33   22   54 1
    34   22   57 1
    35   23   40 1
    36   23   42 am
    37   23   47 2
    38   24   26 1
    39   24   42 1
    40   25   27 1
    41   25   42 1
    42   26   43 1
    43   27   43 1
    44   28   32 1
    45   28   41 1
    46   29   33 1
    47   29   41 1
    48   30   34 1
    49   30   44 1
    50   31   35 1
    51   31   44 1
    52   32   45 1
    53   33   45 1
    54   34   46 1
    55   35   46 1
    56   36   37 1
    57   38   45 1
    58   39   46 1
    59   40   58 1
    60   43   56 1
    61   44   55 1
    62   48   55 2
    63   49   55 2
    64   50   56 2
    65   51   56 2
@<TRIPOS>MOLECULE
MAK-UNK-e05-7
   61    68     0     0     0
SMALL
NO_CHARGES

@<TRIPOS>ATOM
      1 C1          4.2233   -6.6018   21.5351 C.ar      1 UNL1        0.0000
      2 C2          5.2888   -5.8188   21.0900 C.ar      1 UNL1        0.0000
      3 C3          3.9943   -6.7565   22.8991 C.ar      1 UNL1        0.0000
      4 C4         -0.4219   -1.0661   26.6257 C.2       1 UNL1        0.0000
      5 C5         -1.3168   -0.3186   25.8068 C.2       1 UNL1        0.0000
      6 C6          8.8021    3.6260   24.0576 C.2       1 UNL1        0.0000
      7 C7          7.8494    3.8187   25.0994 C.2       1 UNL1        0.0000
      8 C8          8.6763   -1.1281   27.8914 C.2       1 UNL1        0.0000
      9 C9          7.2172   -4.3878   21.5760 C.ar      1 UNL1        0.0000
     10 C10         6.7583   -4.6976   24.3093 C.ar      1 UNL1        0.0000
     11 C11         9.6886   -0.4858   28.5698 C.2       1 UNL1        0.0000
     12 C12        10.2427   -0.8363   26.1992 C.2       1 UNL1        0.0000
     13 C13         6.1400   -5.1796   22.0061 C.ar      1 UNL1        0.0000
     14 C14         5.9071   -5.3369   23.3932 C.ar      1 UNL1        0.0000
     15 C15         8.9972   -1.3313   26.5181 C.2       1 UNL1        0.0000
     16 C16         7.8237   -3.9146   23.8642 C.ar      1 UNL1        0.0000
     17 C17         8.0527   -3.7600   22.5002 C.ar      1 UNL1        0.0000
     18 C18         4.8299   -6.1288   23.8233 C.ar      1 UNL1        0.0000
     19 C19         0.8788   -0.6295   26.5032 C.2       1 UNL1        0.0000
     20 C20        -0.6658    0.6611   25.0896 C.2       1 UNL1        0.0000
     21 C21         8.2001    3.3367   22.8528 C.2       1 UNL1        0.0000
     22 C22         6.5553    3.6697   24.6510 C.2       1 UNL1        0.0000
     23 C23        -2.3604   -2.6047   20.4089 C.2       1 UNL1        0.0000
     24 C24        -0.9014   -0.5439   20.7187 C.3       1 UNL1        0.0000
     25 C25        -3.2595   -0.5391   21.4338 C.3       1 UNL1        0.0000
     26 C26        -0.4908    0.0542   22.0609 C.3       1 UNL1        0.0000
     27 C27        -2.8569    0.0554   22.7787 C.3       1 UNL1        0.0000
     28 C28         9.9150    0.8042   22.3938 C.3       1 UNL1        0.0000
     29 C29         7.7164    0.5303   21.3036 C.3       1 UNL1        0.0000
     30 C30         2.7056   -4.3445   25.1903 C.3       1 UNL1        0.0000
     31 C31         3.7523   -4.5736   27.4149 C.3       1 UNL1        0.0000
     32 C32        10.2307   -0.6644   22.1562 C.3       1 UNL1        0.0000
     33 C33         8.0087   -0.9410   21.0534 C.3       1 UNL1        0.0000
     34 C34         2.5228   -2.8516   25.4152 C.3       1 UNL1        0.0000
     35 C35         3.5816   -3.0830   27.6636 C.3       1 UNL1        0.0000
     36 C36         8.0787   -2.0086   25.5304 C.3       1 UNL1        0.0000
     37 C37         8.7063   -3.2511   24.8703 C.3       1 UNL1        0.0000
     38 C38         9.1873   -2.9264   22.0011 C.3       1 UNL1        0.0000
     39 C39         2.0895   -1.1415   27.1809 C.3       1 UNL1        0.0000
     40 C40        -1.1885   -3.2889   19.7518 C.3       1 UNL1        0.0000
     41 N1         -2.1538   -1.2979   20.8475 N.am      1 UNL1        0.0000
     42 N2         -1.6164    0.8706   22.6082 N.pl3     1 UNL1        0.0000
     43 N3          3.8944   -4.8256   25.9518 N.pl3     1 UNL1        0.0000
     44 N4          8.9944    1.2988   21.3296 N.pl3     1 UNL1        0.0000
     45 N5          8.9406   -1.4496   22.1278 N.4       1 UNL1        0.0000
     46 N6          2.3789   -2.5882   26.8956 N.4       1 UNL1        0.0000
     47 O1         -3.4254   -3.2154   20.5303 O.2       1 UNL1        0.0000
     48 O2          3.3483   -7.3202   25.6005 O.2       1 UNL1        0.0000
     49 O3          5.6947   -6.6478   26.2248 O.2       1 UNL1        0.0000
     50 O4         -2.4234    2.4738   24.4586 O.2       1 UNL1        0.0000
     51 O5         -0.0749    2.6951   23.5736 O.2       1 UNL1        0.0000
     52 O6          7.7887    3.3227   20.2830 O.2       1 UNL1        0.0000
     53 O7         10.1429    3.5967   21.1375 O.2       1 UNL1        0.0000
     54 S1         11.0193   -0.1304   27.5523 S.3       1 UNL1        0.0000
     55 S2          1.0173    0.6766   25.4045 S.3       1 UNL1        0.0000
     56 S3          6.4929    3.2986   22.9805 S.3       1 UNL1        0.0000
     57 S4          4.4533   -6.3890   25.5280 S.o2      1 UNL1        0.0000
     58 S5         -1.2135    1.8782   23.9343 S.o2      1 UNL1        0.0000
     59 S6          8.8278    3.0018   21.2374 S.o2      1 UNL1        0.0000
     60 Cl1         5.1067    3.8144   25.5551 Cl        1 UNL1        0.0000
     61 Cl2        -0.2756   -4.0705   21.0377 Cl        1 UNL1        0.0000
@<TRIPOS>BOND
     1    1    2 ar
     2    1    3 ar
     3    2   13 ar
     4    3   18 ar
     5    4    5 1
     6    4   19 2
     7    5   20 2
     8    6    7 1
     9    6   21 2
    10    7   22 2
    11    8   11 2
    12    8   15 1
    13    9   13 ar
    14    9   17 ar
    15   10   14 ar
    16   10   16 ar
    17   11   54 1
    18   12   15 2
    19   12   54 1
    20   13   14 ar
    21   14   18 ar
    22   15   36 1
    23   16   17 ar
    24   16   37 1
    25   17   38 1
    26   18   57 1
    27   19   39 1
    28   19   55 1
    29   20   55 1
    30   20   58 1
    31   21   56 1
    32   21   59 1
    33   22   56 1
    34   22   60 1
    35   23   40 1
    36   23   41 am
    37   23   47 2
    38   24   26 1
    39   24   41 1
    40   25   27 1
    41   25   41 1
    42   26   42 1
    43   27   42 1
    44   28   32 1
    45   28   44 1
    46   29   33 1
    47   29   44 1
    48   30   34 1
    49   30   43 1
    50   31   35 1
    51   31   43 1
    52   32   45 1
    53   33   45 1
    54   34   46 1
    55   35   46 1
    56   36   37 1
    57   38   45 1
    58   39   46 1
    59   40   61 1
    60   42   58 1
    61   43   57 1
    62   44   59 1
    63   48   57 2
    64   49   57 2
    65   50   58 2
    66   51   58 2
    67   52   59 2
    68   53   59 2
@<TRIPOS>MOLECULE
MAK-UNK-e05-2
   52    58     0     0     0
SMALL
NO_CHARGES

@<TRIPOS>ATOM
      1 C1          3.3223   -5.8540   21.9680 C.ar      1 UNL1        0.0000
      2 C2          4.5485   -5.4731   21.4223 C.ar      1 UNL1        0.0000
      3 C3          3.0828   -5.6856   23.3286 C.ar      1 UNL1        0.0000
      4 C4         -1.1810    0.0164   26.6491 C.2       1 UNL1        0.0000
      5 C5          8.0754   -1.5074   19.4646 C.2       1 UNL1        0.0000
      6 C6         -1.9313    0.7913   25.7181 C.2       1 UNL1        0.0000
      7 C7          6.9258   -0.8132   18.9885 C.2       1 UNL1        0.0000
      8 C8          8.5853   -5.1066   26.5609 C.2       1 UNL1        0.0000
      9 C9          6.7921   -4.5289   21.7003 C.ar      1 UNL1        0.0000
     10 C10         6.3121   -4.1913   24.4267 C.ar      1 UNL1        0.0000
     11 C11         8.5044   -5.2914   27.9235 C.2       1 UNL1        0.0000
     12 C12         8.3863   -2.9137   27.3052 C.2       1 UNL1        0.0000
     13 C13         5.5521   -4.9178   22.2327 C.ar      1 UNL1        0.0000
     14 C14         5.3085   -4.7466   23.6163 C.ar      1 UNL1        0.0000
     15 C15         8.5170   -3.7292   26.2025 C.2       1 UNL1        0.0000
     16 C16         7.5382   -3.8104   23.8809 C.ar      1 UNL1        0.0000
     17 C17         7.7778   -3.9789   22.5203 C.ar      1 UNL1        0.0000
     18 C18         4.0685   -5.1356   24.1486 C.ar      1 UNL1        0.0000
     19 C19         8.1801   -1.4547   20.8371 C.2       1 UNL1        0.0000
     20 C20         0.1750    0.1092   26.4254 C.2       1 UNL1        0.0000
     21 C21        -1.1200    1.4470   24.8182 C.2       1 UNL1        0.0000
     22 C22         6.1954   -0.2565   20.0154 C.2       1 UNL1        0.0000
     23 C23        -1.8694   -2.3082   20.2594 C.2       1 UNL1        0.0000
     24 C24        -0.5111   -0.1890   20.6271 C.3       1 UNL1        0.0000
     25 C25        -2.9621   -0.1763   20.8807 C.3       1 UNL1        0.0000
     26 C26        -0.3677    0.5492   21.9546 C.3       1 UNL1        0.0000
     27 C27        -2.8271    0.5585   22.2096 C.3       1 UNL1        0.0000
     28 C28         2.5245   -2.5984   25.1096 C.3       1 UNL1        0.0000
     29 C29         3.6250   -2.6599   27.3232 C.3       1 UNL1        0.0000
     30 C30         1.1559   -2.6405   25.7703 C.3       1 UNL1        0.0000
     31 C31         2.2712   -2.7028   28.0136 C.3       1 UNL1        0.0000
     32 C32         8.5799   -3.2234   24.7763 C.3       1 UNL1        0.0000
     33 C33         9.0829   -3.5782   21.9145 C.3       1 UNL1        0.0000
     34 C34         9.2434   -2.0581   21.7221 C.3       1 UNL1        0.0000
     35 C35         1.2771   -0.5394   27.1682 C.3       1 UNL1        0.0000
     36 C36        -0.5889   -3.0226   19.9081 C.3       1 UNL1        0.0000
     37 N1         -1.7596   -0.9596   20.5937 N.am      1 UNL1        0.0000
     38 N2         -1.5827    1.3855   22.1939 N.pl3     1 UNL1        0.0000
     39 N3          3.5421   -3.2655   25.9664 N.pl3     1 UNL1        0.0000
     40 N4          1.2155   -2.0426   27.1570 N.4       1 UNL1        0.0000
     41 O1         -2.9335   -2.9321   20.2395 O.2       1 UNL1        0.0000
     42 O2          2.3551   -5.5456   26.0642 O.2       1 UNL1        0.0000
     43 O3          4.8055   -5.4030   26.6325 O.2       1 UNL1        0.0000
     44 O4         -2.7387    3.1414   23.6859 O.2       1 UNL1        0.0000
     45 O5         -0.2664    3.3365   23.2416 O.2       1 UNL1        0.0000
     46 S1          8.3467   -3.8082   28.7648 S.3       1 UNL1        0.0000
     47 S2          0.5390    1.1273   25.0975 S.3       1 UNL1        0.0000
     48 S3          6.8959   -0.5711   21.5460 S.3       1 UNL1        0.0000
     49 S4          3.6643   -4.9650   25.8584 S.o2      1 UNL1        0.0000
     50 S5         -1.4468    2.5292   23.4625 S.o2      1 UNL1        0.0000
     51 Cl1         4.7506    0.6581   19.9014 Cl        1 UNL1        0.0000
     52 Cl2         0.0685   -3.6491   21.4159 Cl        1 UNL1        0.0000
@<TRIPOS>BOND
     1    1    2 ar
     2    1    3 ar
     3    2   13 ar
     4    3   18 ar
     5    4    6 1
     6    4   20 2
     7    5    7 1
     8    5   19 2
     9    6   21 2
    10    7   22 2
    11    8   11 2
    12    8   15 1
    13    9   13 ar
    14    9   17 ar
    15   10   14 ar
    16   10   16 ar
    17   11   46 1
    18   12   15 2
    19   12   46 1
    20   13   14 ar
    21   14   18 ar
    22   15   32 1
    23   16   17 ar
    24   16   32 1
    25   17   33 1
    26   18   49 1
    27   19   34 1
    28   19   48 1
    29   20   35 1
    30   20   47 1
    31   21   47 1
    32   21   50 1
    33   22   48 1
    34   22   51 1
    35   23   36 1
    36   23   37 am
    37   23   41 2
    38   24   26 1
    39   24   37 1
    40   25   27 1
    41   25   37 1
    42   26   38 1
    43   27   38 1
    44   28   30 1
    45   28   39 1
    46   29   31 1
    47   29   39 1
    48   30   40 1
    49   31   40 1
    50   33   34 1
    51   35   40 1
    52   36   52 1
    53   38   50 1
    54   39   49 1
    55   42   49 2
    56   43   49 2
    57   44   50 2
    58   45   50 2
@<TRIPOS>MOLECULE
MAK-UNK-e05-6
   61    68     0     0     0
SMALL
NO_CHARGES

@<TRIPOS>ATOM
      1 C1          4.5517   -7.3956   23.5540 C.ar      1 UNL1        0.0000
      2 C2          5.3204   -6.6700   22.6434 C.ar      1 UNL1        0.0000
      3 C3          4.5956   -7.0815   24.9090 C.ar      1 UNL1        0.0000
      4 C4         -0.3160   -1.1933   27.5507 C.2       1 UNL1        0.0000
      5 C5         -1.4819   -0.9410   26.7715 C.2       1 UNL1        0.0000
      6 C6          9.8238    0.5426   24.5391 C.2       1 UNL1        0.0000
      7 C7          6.9245   -4.8780   22.1761 C.ar      1 UNL1        0.0000
      8 C8          7.0123   -4.2484   24.8915 C.ar      1 UNL1        0.0000
      9 C9         10.4789    1.5547   25.2056 C.2       1 UNL1        0.0000
     10 C10         8.6438    0.6060   26.5406 C.2       1 UNL1        0.0000
     11 C11         6.1441   -5.6190   23.0784 C.ar      1 UNL1        0.0000
     12 C12         6.1886   -5.2995   24.4565 C.ar      1 UNL1        0.0000
     13 C13         8.7606   -0.0069   25.3123 C.2       1 UNL1        0.0000
     14 C14         7.7810   -3.5228   23.9809 C.ar      1 UNL1        0.0000
     15 C15         7.7372   -3.8370   22.6258 C.ar      1 UNL1        0.0000
     16 C16         5.4083   -6.0405   25.3588 C.ar      1 UNL1        0.0000
     17 C17         0.8114   -0.6332   26.9914 C.2       1 UNL1        0.0000
     18 C18        -1.2011   -0.1973   25.6463 C.2       1 UNL1        0.0000
     19 C19        -1.2009   -4.7013   21.7527 C.2       1 UNL1        0.0000
     20 C20         5.3843    1.7884   16.2411 C.3       1 UNL1        0.0000
     21 C21         4.0541    1.0624   16.0698 C.3       1 UNL1        0.0000
     22 C22        -0.7909   -2.1959   21.5904 C.3       1 UNL1        0.0000
     23 C23        -2.9316   -3.0714   22.4404 C.3       1 UNL1        0.0000
     24 C24        -0.7116   -1.2354   22.7731 C.3       1 UNL1        0.0000
     25 C25        -2.8581   -2.1169   23.6268 C.3       1 UNL1        0.0000
     26 C26         8.3271    0.4634   20.2055 C.3       1 UNL1        0.0000
     27 C27         6.0433   -0.3635   20.6513 C.3       1 UNL1        0.0000
     28 C28         3.1921   -4.2379   26.5439 C.3       1 UNL1        0.0000
     29 C29         4.6203   -3.4827   28.4112 C.3       1 UNL1        0.0000
     30 C30         8.8881   -0.9379   20.3852 C.3       1 UNL1        0.0000
     31 C31         6.5726   -1.7762   20.8375 C.3       1 UNL1        0.0000
     32 C32         2.7136   -2.8125   26.3159 C.3       1 UNL1        0.0000
     33 C33         4.1580   -2.0491   28.2028 C.3       1 UNL1        0.0000
     34 C34         5.7687    1.6783   17.7111 C.3       1 UNL1        0.0000
     35 C35         3.1273    1.5486   17.1764 C.3       1 UNL1        0.0000
     36 C36         7.8691   -1.1293   24.8397 C.3       1 UNL1        0.0000
     37 C37         8.6442   -2.4121   24.4833 C.3       1 UNL1        0.0000
     38 C38         8.5515   -3.0737   21.6333 C.3       1 UNL1        0.0000
     39 C39         2.2028   -0.6707   27.4911 C.3       1 UNL1        0.0000
     40 C40         0.1665   -4.9252   21.1579 C.3       1 UNL1        0.0000
     41 N1         -1.5931   -3.3761   21.9329 N.am      1 UNL1        0.0000
     42 N2         -2.0921   -0.8959   23.2332 N.pl3     1 UNL1        0.0000
     43 N3          4.5695   -4.2201   27.1158 N.pl3     1 UNL1        0.0000
     44 N4          6.9190    0.4069   19.7269 N.pl3     1 UNL1        0.0000
     45 N5          7.9989   -1.7082   21.3352 N.4       1 UNL1        0.0000
     46 N6          2.7629   -2.0587   27.6239 N.4       1 UNL1        0.0000
     47 O1         -1.8966   -5.6757   22.0500 O.2       1 UNL1        0.0000
     48 O2          4.5564   -6.7259   27.7206 O.2       1 UNL1        0.0000
     49 O3          6.7579   -5.5165   27.5241 O.2       1 UNL1        0.0000
     50 O4         -3.5576    0.5235   24.8091 O.2       1 UNL1        0.0000
     51 O5         -1.5198    1.5618   23.7520 O.2       1 UNL1        0.0000
     52 O6          5.7765   -0.9262   17.8547 O.2       1 UNL1        0.0000
     53 O7          7.9453    0.2798   17.3778 O.2       1 UNL1        0.0000
     54 S1          9.8124    1.8387   26.7572 S.3       1 UNL1        0.0000
     55 S2          0.4623    0.1931   25.5327 S.3       1 UNL1        0.0000
     56 S3          4.2005    1.7493   18.6273 S.3       1 UNL1        0.0000
     57 S4          5.3916   -5.7235   27.0952 S.o2      1 UNL1        0.0000
     58 S5         -2.1975    0.4195   24.3262 S.o2      1 UNL1        0.0000
     59 S6          6.6689    0.1944   18.0517 S.o2      1 UNL1        0.0000
     60 Cl1         2.3702    3.1051   16.7547 Cl        1 UNL1        0.0000
     61 Cl2         1.2993   -4.9757   22.5041 Cl        1 UNL1        0.0000
@<TRIPOS>BOND
     1    1    2 ar
     2    1    3 ar
     3    2   11 ar
     4    3   16 ar
     5    4    5 1
     6    4   17 2
     7    5   18 2
     8    6    9 2
     9    6   13 1
    10    7   11 ar
    11    7   15 ar
    12    8   12 ar
    13    8   14 ar
    14    9   54 1
    15   10   13 2
    16   10   54 1
    17   11   12 ar
    18   12   16 ar
    19   13   36 1
    20   14   15 ar
    21   14   37 1
    22   15   38 1
    23   16   57 1
    24   17   39 1
    25   17   55 1
    26   18   55 1
    27   18   58 1
    28   19   40 1
    29   19   41 am
    30   19   47 2
    31   20   21 1
    32   20   34 1
    33   21   35 1
    34   22   24 1
    35   22   41 1
    36   23   25 1
    37   23   41 1
    38   24   42 1
    39   25   42 1
    40   26   30 1
    41   26   44 1
    42   27   31 1
    43   27   44 1
    44   28   32 1
    45   28   43 1
    46   29   33 1
    47   29   43 1
    48   30   45 1
    49   31   45 1
    50   32   46 1
    51   33   46 1
    52   34   56 1
    53   34   59 1
    54   35   56 1
    55   35   60 1
    56   36   37 1
    57   38   45 1
    58   39   46 1
    59   40   61 1
    60   42   58 1
    61   43   57 1
    62   44   59 1
    63   48   57 2
    64   49   57 2
    65   50   58 2
    66   51   58 2
    67   52   59 2
    68   53   59 2
