MAK-UNK-af8-6
  -OEChem-04232002263D

 38 39  0     0  0  0  0  0  0999 V2000
   13.8530   -2.2922   25.1209 C   0  0  0  0  0  0  0  0  0  0  0  0
   13.6237   -0.9354   24.8932 C   0  0  0  0  0  0  0  0  0  0  0  0
   12.7763   -3.1634   25.2871 C   0  0  0  0  0  0  0  0  0  0  0  0
   11.2409   -1.3206   24.9981 C   0  0  0  0  0  0  0  0  0  0  0  0
   12.3176   -0.4496   24.8318 C   0  0  0  0  0  0  0  0  0  0  0  0
   11.4703   -2.6776   25.2257 C   0  0  0  0  0  0  0  0  0  0  0  0
    6.4582   -5.3562   21.8486 C   0  0  0  0  0  0  0  0  0  0  0  0
    8.9935   -3.1984   23.2951 C   0  0  0  0  0  0  0  0  0  0  0  0
    9.0683   -5.5104   24.2943 C   0  0  0  0  0  0  0  0  0  0  0  0
    8.4674   -3.8039   21.9948 C   0  0  0  0  0  0  0  0  0  0  0  0
    8.5431   -6.0687   22.9737 C   0  0  0  0  0  0  0  0  0  0  0  0
    9.8511   -4.2071   24.0742 C   0  0  0  0  0  0  0  0  0  0  0  0
   12.0731    1.0012   24.5869 C   0  0  0  0  0  0  0  0  0  0  0  0
   10.3093   -3.6169   25.4056 C   0  0  0  0  0  0  0  0  0  0  0  0
    5.6727   -6.3000   22.7238 C   0  0  0  0  0  0  0  0  0  0  0  0
    7.7588   -5.0623   22.2562 N   0  0  0  0  0  0  0  0  0  0  0  0
    5.9307   -4.8969   20.8323 O   0  0  0  0  0  0  0  0  0  0  0  0
    5.6021   -5.5646   24.3214 Cl  0  0  0  0  0  0  0  0  0  0  0  0
   14.8701   -2.6705   25.1686 H   0  0  0  0  0  0  0  0  0  0  0  0
   14.4689   -0.2642   24.7644 H   0  0  0  0  0  0  0  0  0  0  0  0
   12.9645   -4.2189   25.4648 H   0  0  0  0  0  0  0  0  0  0  0  0
   10.2224   -0.9426   24.9493 H   0  0  0  0  0  0  0  0  0  0  0  0
    9.5878   -2.3063   23.0642 H   0  0  0  0  0  0  0  0  0  0  0  0
    8.1465   -2.8674   23.9098 H   0  0  0  0  0  0  0  0  0  0  0  0
    8.2255   -5.3347   24.9751 H   0  0  0  0  0  0  0  0  0  0  0  0
    9.7143   -6.2567   24.7722 H   0  0  0  0  0  0  0  0  0  0  0  0
    7.8342   -3.0745   21.4868 H   0  0  0  0  0  0  0  0  0  0  0  0
    9.2990   -4.0360   21.3187 H   0  0  0  0  0  0  0  0  0  0  0  0
    9.3752   -6.3612   22.3223 H   0  0  0  0  0  0  0  0  0  0  0  0
    7.9465   -6.9662   23.1642 H   0  0  0  0  0  0  0  0  0  0  0  0
   10.7451   -4.4356   23.4786 H   0  0  0  0  0  0  0  0  0  0  0  0
   11.9935    1.1987   23.5109 H   0  0  0  0  0  0  0  0  0  0  0  0
   11.1472    1.3366   25.0717 H   0  0  0  0  0  0  0  0  0  0  0  0
   12.8859    1.6165   24.9944 H   0  0  0  0  0  0  0  0  0  0  0  0
   10.5870   -4.4272   26.0875 H   0  0  0  0  0  0  0  0  0  0  0  0
    9.4735   -3.0908   25.8784 H   0  0  0  0  0  0  0  0  0  0  0  0
    6.1940   -7.2492   22.7738 H   0  0  0  0  0  0  0  0  0  0  0  0
    4.6731   -6.4058   22.3181 H   0  0  0  0  0  0  0  0  0  0  0  0
  1  2  2  0  0  0  0
  1  3  1  0  0  0  0
  2  5  1  0  0  0  0
  3  6  2  0  0  0  0
  4  5  2  0  0  0  0
  4  6  1  0  0  0  0
  5 13  1  0  0  0  0
  6 14  1  0  0  0  0
  7 15  1  0  0  0  0
  7 16  1  0  0  0  0
  7 17  2  0  0  0  0
  8 10  1  0  0  0  0
  8 12  1  0  0  0  0
  9 11  1  0  0  0  0
  9 12  1  0  0  0  0
 10 16  1  0  0  0  0
 11 16  1  0  0  0  0
 12 14  1  0  0  0  0
 15 18  1  0  0  0  0
  1 19  1  0  0  0  0
  2 20  1  0  0  0  0
  3 21  1  0  0  0  0
  4 22  1  0  0  0  0
  8 23  1  0  0  0  0
  8 24  1  0  0  0  0
  9 25  1  0  0  0  0
  9 26  1  0  0  0  0
 10 27  1  0  0  0  0
 10 28  1  0  0  0  0
 11 29  1  0  0  0  0
 11 30  1  0  0  0  0
 12 31  1  0  0  0  0
 13 32  1  0  0  0  0
 13 33  1  0  0  0  0
 13 34  1  0  0  0  0
 14 35  1  0  0  0  0
 14 36  1  0  0  0  0
 15 37  1  0  0  0  0
 15 38  1  0  0  0  0
M  END
> <Chemgauss4>
-10.780894

> <ref_pdb>
x0749_0

> <CYS145-warhead min dist (A)>
4.7967334

> <CYS145-warhead avg dist (A)>
6.688839

> <CYS145-warhead avg dist stderr (A)>
0.044062626

> <original SMILES>
Cc1cccc(c1)CC2CCN(CC2)C(=O)CCl

$$$$
NIR-THE-99f-2_thio_pH
  -OEChem-04232002263D

 46 48  0     1  0  0  0  0  0999 V2000
   14.1381   -1.4608   25.3909 C   0  0  0  0  0  0  0  0  0  0  0  0
   13.3541   -0.7562   24.4774 C   0  0  0  0  0  0  0  0  0  0  0  0
   13.6611   -2.6459   25.9511 C   0  0  0  0  0  0  0  0  0  0  0  0
   12.0931   -1.2365   24.1242 C   0  0  0  0  0  0  0  0  0  0  0  0
   12.4001   -3.1263   25.5978 C   0  0  0  0  0  0  0  0  0  0  0  0
   11.6161   -2.4216   24.6844 C   0  0  0  0  0  0  0  0  0  0  0  0
    8.8506   -1.4268   22.8610 C   0  0  0  0  0  0  0  0  0  0  0  0
    5.4329   -4.0923   23.0962 C   0  0  0  0  0  0  0  0  0  0  0  0
    7.8022   -6.6921   22.1627 C   0  0  0  0  0  0  0  0  0  0  0  0
    9.0201   -6.2881   22.9925 C   0  0  0  0  0  0  0  0  0  0  0  0
   10.1412   -4.4750   24.3637 C   0  0  0  0  0  0  0  0  0  0  0  0
    9.1521   -3.8335   22.2795 C   0  0  0  0  0  0  0  0  0  0  0  0
    6.4996   -6.3894   22.8963 C   0  0  0  0  0  0  0  0  0  0  0  0
    7.6049   -4.5839   24.1781 C   0  0  0  0  0  0  0  0  0  0  0  0
   10.2475   -2.9434   24.3016 C   0  0  2  0  0  0  0  0  0  0  0  0
    9.8133   -2.5770   22.8680 C   0  0  2  0  0  0  0  0  0  0  0  0
    8.9505   -4.8183   23.4527 C   0  0  1  0  0  0  0  0  0  0  0  0
    5.1925   -3.0274   24.1363 C   0  0  0  0  0  0  0  0  0  0  0  0
    6.4645   -4.9962   23.3531 N   0  0  0  0  0  0  0  0  0  0  0  0
    8.3658   -1.1171   21.6123 N   0  0  0  0  0  0  0  0  0  0  0  0
    8.5262   -0.8408   23.8909 O   0  0  0  0  0  0  0  0  0  0  0  0
    4.7215   -4.1209   22.0887 O   0  0  0  0  0  0  0  0  0  0  0  0
    4.7642   -3.8642   25.6244 Cl  0  0  0  0  0  0  0  0  0  0  0  0
   15.1205   -1.0874   25.6648 H   0  0  0  0  0  0  0  0  0  0  0  0
   13.7258    0.1660   24.0403 H   0  0  0  0  0  0  0  0  0  0  0  0
   14.2717   -3.1954   26.6614 H   0  0  0  0  0  0  0  0  0  0  0  0
   11.4891   -0.6807   23.4118 H   0  0  0  0  0  0  0  0  0  0  0  0
   12.0366   -4.0504   26.0394 H   0  0  0  0  0  0  0  0  0  0  0  0
    7.8137   -6.1641   21.2015 H   0  0  0  0  0  0  0  0  0  0  0  0
    7.8543   -7.7633   21.9364 H   0  0  0  0  0  0  0  0  0  0  0  0
    9.0817   -6.9419   23.8726 H   0  0  0  0  0  0  0  0  0  0  0  0
    9.9311   -6.4701   22.4090 H   0  0  0  0  0  0  0  0  0  0  0  0
   11.0606   -4.9395   23.9813 H   0  0  0  0  0  0  0  0  0  0  0  0
   10.0041   -4.8296   25.3915 H   0  0  0  0  0  0  0  0  0  0  0  0
    8.2214   -3.6148   21.7446 H   0  0  0  0  0  0  0  0  0  0  0  0
    9.8434   -4.2686   21.5455 H   0  0  0  0  0  0  0  0  0  0  0  0
    5.6556   -6.6319   22.2485 H   0  0  0  0  0  0  0  0  0  0  0  0
    6.4121   -7.0207   23.7888 H   0  0  0  0  0  0  0  0  0  0  0  0
    7.5608   -5.1841   25.0959 H   0  0  0  0  0  0  0  0  0  0  0  0
    7.4915   -3.5406   24.4854 H   0  0  0  0  0  0  0  0  0  0  0  0
    9.5350   -2.5062   25.0449 H   0  0  0  0  0  0  0  0  0  0  0  0
   10.6602   -2.2816   22.2366 H   0  0  0  0  0  0  0  0  0  0  0  0
    4.3703   -2.3993   23.8127 H   0  0  0  0  0  0  0  0  0  0  0  0
    6.1060   -2.4611   24.2771 H   0  0  0  0  0  0  0  0  0  0  0  0
    8.6801   -1.6650   20.8181 H   0  0  0  0  0  0  0  0  0  0  0  0
    7.7062   -0.3625   21.4529 H   0  0  0  0  0  0  0  0  0  0  0  0
  1  2  1  0  0  0  0
  1  3  2  0  0  0  0
  2  4  2  0  0  0  0
  3  5  1  0  0  0  0
  4  6  1  0  0  0  0
  5  6  2  0  0  0  0
  6 15  1  0  0  0  0
  7 16  1  0  0  0  0
  7 20  1  0  0  0  0
  7 21  2  0  0  0  0
  8 18  1  0  0  0  0
  8 19  1  0  0  0  0
  8 22  2  0  0  0  0
  9 10  1  0  0  0  0
  9 13  1  0  0  0  0
 10 17  1  0  0  0  0
 11 15  1  0  0  0  0
 11 17  1  0  0  0  0
 12 16  1  0  0  0  0
 12 17  1  0  0  0  0
 13 19  1  0  0  0  0
 14 17  1  0  0  0  0
 14 19  1  0  0  0  0
 15 16  1  0  0  0  0
 18 23  1  0  0  0  0
  1 24  1  0  0  0  0
  2 25  1  0  0  0  0
  3 26  1  0  0  0  0
  4 27  1  0  0  0  0
  5 28  1  0  0  0  0
  9 29  1  0  0  0  0
  9 30  1  0  0  0  0
 10 31  1  0  0  0  0
 10 32  1  0  0  0  0
 11 33  1  0  0  0  0
 11 34  1  0  0  0  0
 12 35  1  0  0  0  0
 12 36  1  0  0  0  0
 13 37  1  0  0  0  0
 13 38  1  0  0  0  0
 14 39  1  0  0  0  0
 14 40  1  0  0  0  0
 15 41  1  0  0  0  0
 16 42  1  0  0  0  0
 18 43  1  0  0  0  0
 18 44  1  0  0  0  0
 20 45  1  0  0  0  0
 20 46  1  0  0  0  0
M  END
> <Chemgauss4>
-10.660624

> <ref_pdb>
x0749_0

> <CYS145-warhead min dist (A)>
9.422978

> <CYS145-warhead avg dist (A)>
9.998516

> <CYS145-warhead avg dist stderr (A)>
0.07587119

> <original SMILES>
c1ccc(cc1)[C@@H]2C[C@]3(CCCN(C3)C(=O)CCl)C[C@H]2C(=O)N

$$$$
JOO-IND-b13-1
  -OEChem-04232002263D

 35 37  0     1  0  0  0  0  0999 V2000
   13.6469   -0.7956   25.0683 C   0  0  0  0  0  0  0  0  0  0  0  0
   14.0655   -1.7628   25.9754 C   0  0  0  0  0  0  0  0  0  0  0  0
   12.4777   -0.9783   24.3241 C   0  0  0  0  0  0  0  0  0  0  0  0
   13.3296   -2.9356   26.1632 C   0  0  0  0  0  0  0  0  0  0  0  0
   11.7154   -2.1542   24.4946 C   0  0  0  0  0  0  0  0  0  0  0  0
   12.1563   -3.1125   25.4124 C   0  0  0  0  0  0  0  0  0  0  0  0
   10.1061   -3.6411   24.2366 C   0  0  0  0  0  0  0  0  0  0  0  0
    6.2497   -1.7958   22.5667 C   0  0  0  0  0  0  0  0  0  0  0  0
    6.0690   -2.4450   21.4147 C   0  0  0  0  0  0  0  0  0  0  0  0
    6.0997   -3.9211   21.4155 C   0  0  0  0  0  0  0  0  0  0  0  0
    7.6609   -6.5044   23.2757 C   0  0  0  0  0  0  0  0  0  0  0  0
    8.9319   -5.8477   23.8202 C   0  0  0  0  0  0  0  0  0  0  0  0
    7.3352   -6.0076   21.8687 C   0  0  0  0  0  0  0  0  0  0  0  0
    8.5027   -3.8817   22.2895 C   0  0  0  0  0  0  0  0  0  0  0  0
    8.8450   -4.3109   23.7267 C   0  0  2  0  0  0  0  0  0  0  0  0
   10.5402   -2.4714   23.8291 N   0  0  0  0  0  0  0  0  0  0  0  0
    7.2669   -4.5447   21.8459 N   0  0  0  0  0  0  0  0  0  0  0  0
    5.0861   -4.5126   21.0400 O   0  0  0  0  0  0  0  0  0  0  0  0
   11.0504   -4.4352   25.4214 S   0  0  0  0  0  0  0  0  0  0  0  0
   14.2323    0.1099   24.9356 H   0  0  0  0  0  0  0  0  0  0  0  0
   14.9768   -1.6063   26.5465 H   0  0  0  0  0  0  0  0  0  0  0  0
   12.1596   -0.2155   23.6190 H   0  0  0  0  0  0  0  0  0  0  0  0
   13.6621   -3.6857   26.8742 H   0  0  0  0  0  0  0  0  0  0  0  0
    6.2379   -0.7128   22.6296 H   0  0  0  0  0  0  0  0  0  0  0  0
    6.4156   -2.3509   23.4840 H   0  0  0  0  0  0  0  0  0  0  0  0
    5.9005   -1.9268   20.4797 H   0  0  0  0  0  0  0  0  0  0  0  0
    7.7876   -7.5926   23.2623 H   0  0  0  0  0  0  0  0  0  0  0  0
    6.8194   -6.2877   23.9456 H   0  0  0  0  0  0  0  0  0  0  0  0
    9.0876   -6.1563   24.8612 H   0  0  0  0  0  0  0  0  0  0  0  0
    9.7981   -6.2124   23.2517 H   0  0  0  0  0  0  0  0  0  0  0  0
    8.1132   -6.3150   21.1602 H   0  0  0  0  0  0  0  0  0  0  0  0
    6.3920   -6.4499   21.5331 H   0  0  0  0  0  0  0  0  0  0  0  0
    8.4411   -2.7946   22.2132 H   0  0  0  0  0  0  0  0  0  0  0  0
    9.2963   -4.1884   21.5945 H   0  0  0  0  0  0  0  0  0  0  0  0
    8.0169   -3.9696   24.3941 H   0  0  0  0  0  0  0  0  0  0  0  0
  1  2  1  0  0  0  0
  1  3  2  0  0  0  0
  2  4  2  0  0  0  0
  3  5  1  0  0  0  0
  4  6  1  0  0  0  0
  5  6  2  0  0  0  0
  5 16  1  0  0  0  0
  6 19  1  0  0  0  0
  7 15  1  0  0  0  0
  7 16  2  0  0  0  0
  7 19  1  0  0  0  0
  8  9  2  0  0  0  0
  9 10  1  0  0  0  0
 10 17  1  0  0  0  0
 10 18  2  0  0  0  0
 11 12  1  0  0  0  0
 11 13  1  0  0  0  0
 12 15  1  0  0  0  0
 13 17  1  0  0  0  0
 14 15  1  0  0  0  0
 14 17  1  0  0  0  0
  1 20  1  0  0  0  0
  2 21  1  0  0  0  0
  3 22  1  0  0  0  0
  4 23  1  0  0  0  0
  8 24  1  0  0  0  0
  8 25  1  0  0  0  0
  9 26  1  0  0  0  0
 11 27  1  0  0  0  0
 11 28  1  0  0  0  0
 12 29  1  0  0  0  0
 12 30  1  0  0  0  0
 13 31  1  0  0  0  0
 13 32  1  0  0  0  0
 14 33  1  0  0  0  0
 14 34  1  0  0  0  0
 15 35  1  0  0  0  0
M  END
> <Chemgauss4>
-10.084719

> <ref_pdb>
x0749_0

> <CYS145-warhead min dist (A)>
3.21485

> <CYS145-warhead avg dist (A)>
5.0076513

> <CYS145-warhead avg dist stderr (A)>
0.07632219

> <original SMILES>
C=CC(=O)N1CCC[C@H](C1)c2nc3ccccc3s2

$$$$
NIR-THE-0d6-8
  -OEChem-04232002263D

 38 39  0     0  0  0  0  0  0999 V2000
   10.9929   -0.8560   24.7593 C   0  0  0  0  0  0  0  0  0  0  0  0
   13.3522   -0.3634   24.5931 C   0  0  0  0  0  0  0  0  0  0  0  0
   12.6170   -2.6277   25.0049 C   0  0  0  0  0  0  0  0  0  0  0  0
   12.0244    0.0629   24.5666 C   0  0  0  0  0  0  0  0  0  0  0  0
   11.2892   -2.2013   24.9785 C   0  0  0  0  0  0  0  0  0  0  0  0
   13.6485   -1.7088   24.8123 C   0  0  0  0  0  0  0  0  0  0  0  0
    6.3175   -5.0929   21.7192 C   0  0  0  0  0  0  0  0  0  0  0  0
    8.7902   -2.8276   23.1087 C   0  0  0  0  0  0  0  0  0  0  0  0
    8.9925   -5.1361   24.0985 C   0  0  0  0  0  0  0  0  0  0  0  0
    8.2591   -3.4533   21.8201 C   0  0  0  0  0  0  0  0  0  0  0  0
    8.4595   -5.7144   22.7897 C   0  0  0  0  0  0  0  0  0  0  0  0
    9.7110   -3.7989   23.8630 C   0  0  0  0  0  0  0  0  0  0  0  0
   11.7068    1.5011   24.3308 C   0  0  0  0  0  0  0  0  0  0  0  0
   10.1758   -3.1916   25.1844 C   0  0  0  0  0  0  0  0  0  0  0  0
    5.5968   -6.0723   22.6108 C   0  0  0  0  0  0  0  0  0  0  0  0
    7.6137   -4.7424   22.0951 N   0  0  0  0  0  0  0  0  0  0  0  0
    5.7449   -4.6554   20.7178 O   0  0  0  0  0  0  0  0  0  0  0  0
   15.2870   -2.2346   24.8462 Cl  0  0  0  0  0  0  0  0  0  0  0  0
    5.5338   -5.3440   24.2119 Cl  0  0  0  0  0  0  0  0  0  0  0  0
    9.9576   -0.5234   24.7387 H   0  0  0  0  0  0  0  0  0  0  0  0
   14.1532    0.3571   24.4424 H   0  0  0  0  0  0  0  0  0  0  0  0
   12.8429   -3.6779   25.1763 H   0  0  0  0  0  0  0  0  0  0  0  0
    9.3385   -1.9096   22.8659 H   0  0  0  0  0  0  0  0  0  0  0  0
    7.9451   -2.5358   23.7455 H   0  0  0  0  0  0  0  0  0  0  0  0
    8.1600   -4.9993   24.8007 H   0  0  0  0  0  0  0  0  0  0  0  0
    9.6826   -5.8539   24.5578 H   0  0  0  0  0  0  0  0  0  0  0  0
    7.5816   -2.7517   21.3303 H   0  0  0  0  0  0  0  0  0  0  0  0
    9.0829   -3.6468   21.1227 H   0  0  0  0  0  0  0  0  0  0  0  0
    9.2871   -5.9684   22.1168 H   0  0  0  0  0  0  0  0  0  0  0  0
    7.9082   -6.6379   22.9922 H   0  0  0  0  0  0  0  0  0  0  0  0
   10.5989   -3.9863   23.2445 H   0  0  0  0  0  0  0  0  0  0  0  0
   11.6599    2.0429   25.2833 H   0  0  0  0  0  0  0  0  0  0  0  0
   12.4652    1.9776   23.6963 H   0  0  0  0  0  0  0  0  0  0  0  0
   10.7438    1.6171   23.8165 H   0  0  0  0  0  0  0  0  0  0  0  0
   10.5062   -3.9902   25.8566 H   0  0  0  0  0  0  0  0  0  0  0  0
    9.3296   -2.7041   25.6795 H   0  0  0  0  0  0  0  0  0  0  0  0
    6.1608   -6.9975   22.6448 H   0  0  0  0  0  0  0  0  0  0  0  0
    4.5930   -6.2216   22.2299 H   0  0  0  0  0  0  0  0  0  0  0  0
  1  4  2  0  0  0  0
  1  5  1  0  0  0  0
  2  4  1  0  0  0  0
  2  6  2  0  0  0  0
  3  5  2  0  0  0  0
  3  6  1  0  0  0  0
  4 13  1  0  0  0  0
  5 14  1  0  0  0  0
  6 18  1  0  0  0  0
  7 15  1  0  0  0  0
  7 16  1  0  0  0  0
  7 17  2  0  0  0  0
  8 10  1  0  0  0  0
  8 12  1  0  0  0  0
  9 11  1  0  0  0  0
  9 12  1  0  0  0  0
 10 16  1  0  0  0  0
 11 16  1  0  0  0  0
 12 14  1  0  0  0  0
 15 19  1  0  0  0  0
  1 20  1  0  0  0  0
  2 21  1  0  0  0  0
  3 22  1  0  0  0  0
  8 23  1  0  0  0  0
  8 24  1  0  0  0  0
  9 25  1  0  0  0  0
  9 26  1  0  0  0  0
 10 27  1  0  0  0  0
 10 28  1  0  0  0  0
 11 29  1  0  0  0  0
 11 30  1  0  0  0  0
 12 31  1  0  0  0  0
 13 32  1  0  0  0  0
 13 33  1  0  0  0  0
 13 34  1  0  0  0  0
 14 35  1  0  0  0  0
 14 36  1  0  0  0  0
 15 37  1  0  0  0  0
 15 38  1  0  0  0  0
M  END
> <Chemgauss4>
-10.025776

> <ref_pdb>
x0749_0

> <CYS145-warhead min dist (A)>
8.655251

> <CYS145-warhead avg dist (A)>
10.758128

> <CYS145-warhead avg dist stderr (A)>
0.12095444

> <original SMILES>
Cc1cc(cc(c1)Cl)CC2CCN(CC2)C(=O)CCl

$$$$
NIM-UNI-363-1
  -OEChem-04232002263D

 55 58  0     1  0  0  0  0  0999 V2000
   13.6018   -0.2727   22.2980 C   0  0  0  0  0  0  0  0  0  0  0  0
    6.1352    0.8460   21.6062 C   0  0  0  0  0  0  0  0  0  0  0  0
   13.2685    0.9850   22.8016 C   0  0  0  0  0  0  0  0  0  0  0  0
   11.8383    2.3979   24.2019 C   0  0  0  0  0  0  0  0  0  0  0  0
    6.4541   -0.4665   21.9361 C   0  0  0  0  0  0  0  0  0  0  0  0
   12.8614   -1.3908   22.6698 C   0  0  0  0  0  0  0  0  0  0  0  0
   10.7616    2.5331   25.0788 C   0  0  0  0  0  0  0  0  0  0  0  0
   10.3544    0.1572   24.9470 C   0  0  0  0  0  0  0  0  0  0  0  0
    6.9172    1.4845   20.6572 C   0  0  0  0  0  0  0  0  0  0  0  0
    8.2495   -0.3664   20.3797 C   0  0  0  0  0  0  0  0  0  0  0  0
   12.1880    1.1396   23.6852 C   0  0  0  0  0  0  0  0  0  0  0  0
   11.4349    0.0026   24.0633 C   0  0  0  0  0  0  0  0  0  0  0  0
    7.5301   -1.0916   21.3158 C   0  0  0  0  0  0  0  0  0  0  0  0
   11.7847   -1.2556   23.5467 C   0  0  0  0  0  0  0  0  0  0  0  0
   10.0211    1.4149   25.4506 C   0  0  0  0  0  0  0  0  0  0  0  0
    5.7203   -3.6061   22.0831 C   0  0  0  0  0  0  0  0  0  0  0  0
    7.2752   -3.1723   24.0252 C   0  0  0  0  0  0  0  0  0  0  0  0
    8.7457   -3.3915   24.3312 C   0  0  0  0  0  0  0  0  0  0  0  0
    9.3800   -2.6769   22.0498 C   0  0  0  0  0  0  0  0  0  0  0  0
    7.9053   -2.5307   21.6553 C   0  0  1  0  0  0  0  0  0  0  0  0
   11.0298   -2.5016   23.9055 C   0  0  0  0  0  0  0  0  0  0  0  0
    4.7043   -4.0883   23.0890 C   0  0  0  0  0  0  0  0  0  0  0  0
    7.9699    0.9101   20.0332 N   0  0  0  0  0  0  0  0  0  0  0  0
    6.9551   -3.1710   22.5908 N   0  0  0  0  0  0  0  0  0  0  0  0
    7.3944    1.8682   25.4521 N   0  0  0  0  0  0  0  0  0  0  0  0
    9.5768   -2.4419   23.5203 N   0  3  2  0  0  0  0  0  0  0  0  0
    5.4296   -3.6140   20.8837 O   0  0  0  0  0  0  0  0  0  0  0  0
    8.4544    0.3088   27.2100 O   0  0  0  0  0  0  0  0  0  0  0  0
    8.8787    2.7886   27.3459 O   0  0  0  0  0  0  0  0  0  0  0  0
    8.6741    1.5874   26.5487 S   0  0  0  0  0  0  0  0  0  0  0  0
    4.9498   -5.8227   23.2609 Cl  0  0  0  0  0  0  0  0  0  0  0  0
   14.4400   -0.3780   21.6152 H   0  0  0  0  0  0  0  0  0  0  0  0
    5.3006    1.3532   22.0768 H   0  0  0  0  0  0  0  0  0  0  0  0
   13.8616    1.8453   22.4978 H   0  0  0  0  0  0  0  0  0  0  0  0
   12.4032    3.2851   23.9244 H   0  0  0  0  0  0  0  0  0  0  0  0
    5.8592   -0.9939   22.6769 H   0  0  0  0  0  0  0  0  0  0  0  0
   13.1310   -2.3652   22.2705 H   0  0  0  0  0  0  0  0  0  0  0  0
   10.5098    3.5173   25.4650 H   0  0  0  0  0  0  0  0  0  0  0  0
    9.7584   -0.6996   25.2547 H   0  0  0  0  0  0  0  0  0  0  0  0
    6.7096    2.5088   20.3654 H   0  0  0  0  0  0  0  0  0  0  0  0
    9.0994   -0.8015   19.8629 H   0  0  0  0  0  0  0  0  0  0  0  0
    6.6862   -3.9367   24.5670 H   0  0  0  0  0  0  0  0  0  0  0  0
    6.9285   -2.2042   24.4461 H   0  0  0  0  0  0  0  0  0  0  0  0
    8.9534   -3.1912   25.3905 H   0  0  0  0  0  0  0  0  0  0  0  0
    9.0644   -4.4149   24.0884 H   0  0  0  0  0  0  0  0  0  0  0  0
    9.7487   -3.6897   21.8276 H   0  0  0  0  0  0  0  0  0  0  0  0
   10.0083   -1.9485   21.5164 H   0  0  0  0  0  0  0  0  0  0  0  0
    7.7984   -3.0526   20.6443 H   0  0  0  0  0  0  0  0  0  0  0  0
   11.4523   -3.3788   23.4039 H   0  0  0  0  0  0  0  0  0  0  0  0
   11.0618   -2.6865   24.9846 H   0  0  0  0  0  0  0  0  0  0  0  0
    3.7096   -3.8893   22.7069 H   0  0  0  0  0  0  0  0  0  0  0  0
    4.8836   -3.5912   24.0354 H   0  0  0  0  0  0  0  0  0  0  0  0
    7.3633    2.7748   24.9698 H   0  0  0  0  0  0  0  0  0  0  0  0
    7.0709    1.0808   24.8771 H   0  0  0  0  0  0  0  0  0  0  0  0
    9.2551   -1.4944   23.7305 H   0  0  0  0  0  0  0  0  0  0  0  0
  1  3  2  0  0  0  0
  1  6  1  0  0  0  0
  2  5  2  0  0  0  0
  2  9  1  0  0  0  0
  3 11  1  0  0  0  0
  4  7  2  0  0  0  0
  4 11  1  0  0  0  0
  5 13  1  0  0  0  0
  6 14  2  0  0  0  0
  7 15  1  0  0  0  0
  8 12  1  0  0  0  0
  8 15  2  0  0  0  0
  9 23  2  0  0  0  0
 10 13  2  0  0  0  0
 10 23  1  0  0  0  0
 11 12  2  0  0  0  0
 12 14  1  0  0  0  0
 13 20  1  0  0  0  0
 14 21  1  0  0  0  0
 15 30  1  0  0  0  0
 16 22  1  0  0  0  0
 16 24  1  0  0  0  0
 16 27  2  0  0  0  0
 17 18  1  0  0  0  0
 17 24  1  0  0  0  0
 18 26  1  0  0  0  0
 19 20  1  0  0  0  0
 19 26  1  0  0  0  0
 20 24  1  0  0  0  0
 21 26  1  0  0  0  0
 22 31  1  0  0  0  0
 25 30  1  0  0  0  0
 28 30  2  0  0  0  0
 29 30  2  0  0  0  0
  1 32  1  0  0  0  0
  2 33  1  0  0  0  0
  3 34  1  0  0  0  0
  4 35  1  0  0  0  0
  5 36  1  0  0  0  0
  6 37  1  0  0  0  0
  7 38  1  0  0  0  0
  8 39  1  0  0  0  0
  9 40  1  0  0  0  0
 10 41  1  0  0  0  0
 17 42  1  0  0  0  0
 17 43  1  0  0  0  0
 18 44  1  0  0  0  0
 18 45  1  0  0  0  0
 19 46  1  0  0  0  0
 19 47  1  0  0  0  0
 20 48  1  0  0  0  0
 21 49  1  0  0  0  0
 21 50  1  0  0  0  0
 22 51  1  0  0  0  0
 22 52  1  0  0  0  0
 25 53  1  0  0  0  0
 25 54  1  0  0  0  0
 26 55  1  0  0  0  0
M  CHG  1  26   1
M  END
> <Chemgauss4>
-9.961799

> <ref_pdb>
x0830_0

> <CYS145-warhead min dist (A)>
3.010523

> <CYS145-warhead avg dist (A)>
3.6752992

> <CYS145-warhead avg dist stderr (A)>
0.03392565

> <original SMILES>
c1cc2ccc(cc2c(c1)C[N@@H+]3CCN([C@H](C3)c4cccnc4)C(=O)CCl)S(=O)(=O)N

$$$$
GIA-UNK-d2d-7
  -OEChem-04232002263D

 38 39  0     1  0  0  0  0  0999 V2000
   13.9105   -2.0322   24.9836 C   0  0  0  0  0  0  0  0  0  0  0  0
   13.0774   -2.6865   25.8910 C   0  0  0  0  0  0  0  0  0  0  0  0
   13.3711   -1.4478   23.8376 C   0  0  0  0  0  0  0  0  0  0  0  0
   11.7049   -2.7565   25.6524 C   0  0  0  0  0  0  0  0  0  0  0  0
   11.9986   -1.5178   23.5990 C   0  0  0  0  0  0  0  0  0  0  0  0
   11.1654   -2.1722   24.5063 C   0  0  0  0  0  0  0  0  0  0  0  0
    9.7200   -2.2461   24.2551 C   0  0  0  0  0  0  0  0  0  0  0  0
    7.3683   -3.3994   22.5767 C   0  0  0  0  0  0  0  0  0  0  0  0
    6.0485   -2.0763   19.8353 C   0  0  0  0  0  0  0  0  0  0  0  0
    8.8243   -5.8389   23.8969 C   0  0  0  0  0  0  0  0  0  0  0  0
    7.5092   -5.1882   24.3196 C   0  0  0  0  0  0  0  0  0  0  0  0
    9.8637   -4.7883   24.2579 C   0  0  0  0  0  0  0  0  0  0  0  0
    7.7251   -3.7138   23.9986 C   0  0  1  0  0  0  0  0  0  0  0  0
    6.3746   -2.2945   22.2823 C   0  0  0  0  0  0  0  0  0  0  0  0
    6.4313   -1.2294   18.6485 C   0  0  0  0  0  0  0  0  0  0  0  0
    9.1610   -3.5112   24.1384 N   0  0  0  0  0  0  0  0  0  0  0  0
    6.6188   -1.6463   21.0293 N   0  0  0  0  0  0  0  0  0  0  0  0
    9.1119   -1.1832   24.1513 O   0  0  0  0  0  0  0  0  0  0  0  0
    7.8760   -4.0346   21.6492 O   0  0  0  0  0  0  0  0  0  0  0  0
    5.2898   -3.0381   19.7282 O   0  0  0  0  0  0  0  0  0  0  0  0
    5.8861    0.4257   18.9621 Cl  0  0  0  0  0  0  0  0  0  0  0  0
   14.9791   -1.9776   25.1694 H   0  0  0  0  0  0  0  0  0  0  0  0
   13.4975   -3.1416   26.7831 H   0  0  0  0  0  0  0  0  0  0  0  0
   14.0198   -0.9380   23.1312 H   0  0  0  0  0  0  0  0  0  0  0  0
   11.0648   -3.2689   26.3661 H   0  0  0  0  0  0  0  0  0  0  0  0
   11.5893   -1.0590   22.7026 H   0  0  0  0  0  0  0  0  0  0  0  0
    8.9984   -6.7898   24.4085 H   0  0  0  0  0  0  0  0  0  0  0  0
    8.8291   -6.0237   22.8165 H   0  0  0  0  0  0  0  0  0  0  0  0
    6.6565   -5.6297   23.7946 H   0  0  0  0  0  0  0  0  0  0  0  0
    7.3611   -5.3189   25.3983 H   0  0  0  0  0  0  0  0  0  0  0  0
   10.1950   -4.8955   25.2968 H   0  0  0  0  0  0  0  0  0  0  0  0
   10.7372   -4.8142   23.6000 H   0  0  0  0  0  0  0  0  0  0  0  0
    7.1675   -3.0422   24.6574 H   0  0  0  0  0  0  0  0  0  0  0  0
    6.4383   -1.5372   23.0681 H   0  0  0  0  0  0  0  0  0  0  0  0
    5.3679   -2.7189   22.2479 H   0  0  0  0  0  0  0  0  0  0  0  0
    7.5097   -1.2155   18.4729 H   0  0  0  0  0  0  0  0  0  0  0  0
    5.9287   -1.6086   17.7544 H   0  0  0  0  0  0  0  0  0  0  0  0
    7.2377   -0.8340   21.0112 H   0  0  0  0  0  0  0  0  0  0  0  0
  1  2  1  0  0  0  0
  1  3  2  0  0  0  0
  2  4  2  0  0  0  0
  3  5  1  0  0  0  0
  4  6  1  0  0  0  0
  5  6  2  0  0  0  0
  6  7  1  0  0  0  0
  7 16  1  0  0  0  0
  7 18  2  0  0  0  0
  8 13  1  0  0  0  0
  8 14  1  0  0  0  0
  8 19  2  0  0  0  0
  9 15  1  0  0  0  0
  9 17  1  0  0  0  0
  9 20  2  0  0  0  0
 10 11  1  0  0  0  0
 10 12  1  0  0  0  0
 11 13  1  0  0  0  0
 12 16  1  0  0  0  0
 13 16  1  0  0  0  0
 14 17  1  0  0  0  0
 15 21  1  0  0  0  0
  1 22  1  0  0  0  0
  2 23  1  0  0  0  0
  3 24  1  0  0  0  0
  4 25  1  0  0  0  0
  5 26  1  0  0  0  0
 10 27  1  0  0  0  0
 10 28  1  0  0  0  0
 11 29  1  0  0  0  0
 11 30  1  0  0  0  0
 12 31  1  0  0  0  0
 12 32  1  0  0  0  0
 13 33  1  0  0  0  0
 14 34  1  0  0  0  0
 14 35  1  0  0  0  0
 15 36  1  0  0  0  0
 15 37  1  0  0  0  0
 17 38  1  0  0  0  0
M  END
> <Chemgauss4>
-9.794963

> <ref_pdb>
x0749_0

> <CYS145-warhead min dist (A)>
5.5586853

> <CYS145-warhead avg dist (A)>
6.713713

> <CYS145-warhead avg dist stderr (A)>
0.053527877

> <original SMILES>
c1ccc(cc1)C(=O)N2CCC[C@@H]2C(=O)CNC(=O)CCl

$$$$
SEA-TRI-822-1_thio_pH
  -OEChem-04232002263D

 45 47  0     1  0  0  0  0  0999 V2000
   11.2141    0.9314   24.6834 C   0  0  0  0  0  0  0  0  0  0  0  0
   10.2171   -0.0157   24.4498 C   0  0  0  0  0  0  0  0  0  0  0  0
    9.7215   -3.9031   25.1218 C   0  0  0  0  0  0  0  0  0  0  0  0
    7.8018   -2.4470   25.2989 C   0  0  0  0  0  0  0  0  0  0  0  0
   12.4619    0.7950   24.0750 C   0  0  0  0  0  0  0  0  0  0  0  0
    9.3308   -4.5602   26.2885 C   0  0  0  0  0  0  0  0  0  0  0  0
    7.4110   -3.1042   26.4656 C   0  0  0  0  0  0  0  0  0  0  0  0
   11.7156   -1.2356   22.9996 C   0  0  0  0  0  0  0  0  0  0  0  0
    8.9570   -2.8465   24.6270 C   0  0  0  0  0  0  0  0  0  0  0  0
   10.4678   -1.0992   23.6079 C   0  0  0  0  0  0  0  0  0  0  0  0
    8.1755   -4.1608   26.9604 C   0  0  0  0  0  0  0  0  0  0  0  0
   12.7127   -0.2885   23.2331 C   0  0  0  0  0  0  0  0  0  0  0  0
    5.9268   -1.4297   19.0812 C   0  0  0  0  0  0  0  0  0  0  0  0
    6.0503   -2.0003   21.4855 C   0  0  0  0  0  0  0  0  0  0  0  0
    7.4994   -0.1908   20.6496 C   0  0  0  0  0  0  0  0  0  0  0  0
    7.2314   -2.6466   22.1945 C   0  0  0  0  0  0  0  0  0  0  0  0
    8.7029   -0.8093   21.3481 C   0  0  0  0  0  0  0  0  0  0  0  0
    5.8654   -0.2431   18.1528 C   0  0  0  0  0  0  0  0  0  0  0  0
    9.3815   -2.1312   23.3549 C   0  0  2  0  0  0  0  0  0  0  0  0
    6.4944   -1.2121   20.3358 N   0  0  0  0  0  0  0  0  0  0  0  0
    8.2311   -1.5739   22.5647 N   0  3  0  0  0  0  0  0  0  0  0  0
    5.4856   -2.5170   18.7001 O   0  0  0  0  0  0  0  0  0  0  0  0
    7.6936   -4.9717   28.3994 Cl  0  0  0  0  0  0  0  0  0  0  0  0
   14.2527   -0.4569   22.4837 Cl  0  0  0  0  0  0  0  0  0  0  0  0
    4.8678    0.9686   18.9494 Cl  0  0  0  0  0  0  0  0  0  0  0  0
   11.0185    1.7749   25.3392 H   0  0  0  0  0  0  0  0  0  0  0  0
    9.2478    0.0985   24.9281 H   0  0  0  0  0  0  0  0  0  0  0  0
   10.6231   -4.2201   24.6042 H   0  0  0  0  0  0  0  0  0  0  0  0
    7.2005   -1.6248   24.9199 H   0  0  0  0  0  0  0  0  0  0  0  0
   13.2297    1.5407   24.2664 H   0  0  0  0  0  0  0  0  0  0  0  0
    9.9362   -5.3821   26.6619 H   0  0  0  0  0  0  0  0  0  0  0  0
    6.5085   -2.7819   26.9785 H   0  0  0  0  0  0  0  0  0  0  0  0
   11.9060   -2.0819   22.3436 H   0  0  0  0  0  0  0  0  0  0  0  0
    5.3420   -2.7749   21.1749 H   0  0  0  0  0  0  0  0  0  0  0  0
    5.5146   -1.3231   22.1619 H   0  0  0  0  0  0  0  0  0  0  0  0
    7.0173    0.5517   21.2971 H   0  0  0  0  0  0  0  0  0  0  0  0
    7.8372    0.3365   19.7558 H   0  0  0  0  0  0  0  0  0  0  0  0
    6.9087   -3.1268   23.1240 H   0  0  0  0  0  0  0  0  0  0  0  0
    7.7424   -3.3783   21.5586 H   0  0  0  0  0  0  0  0  0  0  0  0
    9.2398   -1.5090   20.6980 H   0  0  0  0  0  0  0  0  0  0  0  0
    9.3882   -0.0305   21.6980 H   0  0  0  0  0  0  0  0  0  0  0  0
    5.4051   -0.5498   17.2205 H   0  0  0  0  0  0  0  0  0  0  0  0
    6.8687    0.1394   18.0046 H   0  0  0  0  0  0  0  0  0  0  0  0
    9.7770   -2.8945   22.6712 H   0  0  0  0  0  0  0  0  0  0  0  0
    7.7501   -0.9040   23.1808 H   0  0  0  0  0  0  0  0  0  0  0  0
  1  2  2  0  0  0  0
  1  5  1  0  0  0  0
  2 10  1  0  0  0  0
  3  6  1  0  0  0  0
  3  9  2  0  0  0  0
  4  7  2  0  0  0  0
  4  9  1  0  0  0  0
  5 12  2  0  0  0  0
  6 11  2  0  0  0  0
  7 11  1  0  0  0  0
  8 10  2  0  0  0  0
  8 12  1  0  0  0  0
  9 19  1  0  0  0  0
 10 19  1  0  0  0  0
 11 23  1  0  0  0  0
 12 24  1  0  0  0  0
 13 18  1  0  0  0  0
 13 20  1  0  0  0  0
 13 22  2  0  0  0  0
 14 16  1  0  0  0  0
 14 20  1  0  0  0  0
 15 17  1  0  0  0  0
 15 20  1  0  0  0  0
 16 21  1  0  0  0  0
 17 21  1  0  0  0  0
 18 25  1  0  0  0  0
 19 21  1  0  0  0  0
  1 26  1  0  0  0  0
  2 27  1  0  0  0  0
  3 28  1  0  0  0  0
  4 29  1  0  0  0  0
  5 30  1  0  0  0  0
  6 31  1  0  0  0  0
  7 32  1  0  0  0  0
  8 33  1  0  0  0  0
 14 34  1  0  0  0  0
 14 35  1  0  0  0  0
 15 36  1  0  0  0  0
 15 37  1  0  0  0  0
 16 38  1  0  0  0  0
 16 39  1  0  0  0  0
 17 40  1  0  0  0  0
 17 41  1  0  0  0  0
 18 42  1  0  0  0  0
 18 43  1  0  0  0  0
 19 44  1  0  0  0  0
 21 45  1  0  0  0  0
M  CHG  1  21   1
M  END
> <Chemgauss4>
-9.759018

> <ref_pdb>
x0831_0

> <CYS145-warhead min dist (A)>
2.9896684

> <CYS145-warhead avg dist (A)>
3.3893368

> <CYS145-warhead avg dist stderr (A)>
0.009953446

> <original SMILES>
c1cc(cc(c1)Cl)[C@@H](c2ccc(cc2)Cl)[NH+]3CCN(CC3)C(=O)CCl

$$$$
WAR-XCH-b03-19
  -OEChem-04232002263D

 45 48  0     0  0  0  0  0  0999 V2000
    6.0056   -5.8607   24.7151 C   0  0  0  0  0  0  0  0  0  0  0  0
    4.8374   -5.8613   23.9611 C   0  0  0  0  0  0  0  0  0  0  0  0
    6.3262    0.6568   19.1526 C   0  0  0  0  0  0  0  0  0  0  0  0
    7.0356   -4.9858   24.3842 C   0  0  0  0  0  0  0  0  0  0  0  0
    6.4897   -0.1760   20.2540 C   0  0  0  0  0  0  0  0  0  0  0  0
    4.7013   -4.9874   22.8785 C   0  0  0  0  0  0  0  0  0  0  0  0
    6.1113    0.0651   17.9183 C   0  0  0  0  0  0  0  0  0  0  0  0
    6.2140   -2.0482   18.8135 C   0  0  0  0  0  0  0  0  0  0  0  0
    6.8911   -4.1100   23.2942 C   0  0  0  0  0  0  0  0  0  0  0  0
    6.4340   -1.5556   20.0897 C   0  0  0  0  0  0  0  0  0  0  0  0
    5.7159   -4.1011   22.5252 C   0  0  0  0  0  0  0  0  0  0  0  0
    7.8820   -3.2107   22.9108 C   0  0  0  0  0  0  0  0  0  0  0  0
    6.6000   -2.4440   21.2105 C   0  0  0  0  0  0  0  0  0  0  0  0
   11.7894    0.1237   24.3343 C   0  0  0  0  0  0  0  0  0  0  0  0
    9.1586   -2.2089   24.9010 C   0  0  0  0  0  0  0  0  0  0  0  0
   10.4149   -2.8184   22.7549 C   0  0  0  0  0  0  0  0  0  0  0  0
    9.4927   -0.7457   24.6222 C   0  0  0  0  0  0  0  0  0  0  0  0
   10.7017   -1.3312   22.5567 C   0  0  0  0  0  0  0  0  0  0  0  0
    9.2021   -3.1188   23.6577 C   0  0  0  0  0  0  0  0  0  0  0  0
   13.0235    0.1934   23.4705 C   0  0  0  0  0  0  0  0  0  0  0  0
    6.0508   -1.2707   17.7196 N   0  0  0  0  0  0  0  0  0  0  0  0
    5.5670   -3.2676   21.4808 N   0  0  0  0  0  0  0  0  0  0  0  0
    7.7661   -2.3630   21.8712 N   0  0  0  0  0  0  0  0  0  0  0  0
   10.7229   -0.6279   23.8419 N   0  0  0  0  0  0  0  0  0  0  0  0
   11.7768    0.7187   25.4151 O   0  0  0  0  0  0  0  0  0  0  0  0
   12.8063    1.5670   22.3916 Cl  0  0  0  0  0  0  0  0  0  0  0  0
    6.1135   -6.5390   25.5559 H   0  0  0  0  0  0  0  0  0  0  0  0
    4.0286   -6.5415   24.2128 H   0  0  0  0  0  0  0  0  0  0  0  0
    6.3648    1.7351   19.2563 H   0  0  0  0  0  0  0  0  0  0  0  0
    7.9408   -5.0008   24.9861 H   0  0  0  0  0  0  0  0  0  0  0  0
    6.6598    0.2638   21.2335 H   0  0  0  0  0  0  0  0  0  0  0  0
    3.7770   -5.0083   22.3042 H   0  0  0  0  0  0  0  0  0  0  0  0
    5.9781    0.6711   17.0278 H   0  0  0  0  0  0  0  0  0  0  0  0
    6.1587   -3.1154   18.6183 H   0  0  0  0  0  0  0  0  0  0  0  0
    9.8571   -2.6005   25.6716 H   0  0  0  0  0  0  0  0  0  0  0  0
    8.1548   -2.2662   25.3778 H   0  0  0  0  0  0  0  0  0  0  0  0
   10.2720   -3.2937   21.7584 H   0  0  0  0  0  0  0  0  0  0  0  0
   11.3207   -3.3107   23.1713 H   0  0  0  0  0  0  0  0  0  0  0  0
    8.6421   -0.2697   24.1259 H   0  0  0  0  0  0  0  0  0  0  0  0
    9.6526   -0.2060   25.5657 H   0  0  0  0  0  0  0  0  0  0  0  0
   11.6828   -1.1882   22.0887 H   0  0  0  0  0  0  0  0  0  0  0  0
    9.9529   -0.8974   21.8867 H   0  0  0  0  0  0  0  0  0  0  0  0
    9.3696   -4.1955   24.0615 H   0  0  0  0  0  0  0  0  0  0  0  0
   13.1024   -0.7224   22.8959 H   0  0  0  0  0  0  0  0  0  0  0  0
   13.8880    0.3513   24.1050 H   0  0  0  0  0  0  0  0  0  0  0  0
  1  2  1  0  0  0  0
  1  4  2  0  0  0  0
  2  6  2  0  0  0  0
  3  5  2  0  0  0  0
  3  7  1  0  0  0  0
  4  9  1  0  0  0  0
  5 10  1  0  0  0  0
  6 11  1  0  0  0  0
  7 21  2  0  0  0  0
  8 10  2  0  0  0  0
  8 21  1  0  0  0  0
  9 11  1  0  0  0  0
  9 12  2  0  0  0  0
 10 13  1  0  0  0  0
 11 22  2  0  0  0  0
 12 19  1  0  0  0  0
 12 23  1  0  0  0  0
 13 22  1  0  0  0  0
 13 23  2  0  0  0  0
 14 20  1  0  0  0  0
 14 24  1  0  0  0  0
 14 25  2  0  0  0  0
 15 17  1  0  0  0  0
 15 19  1  0  0  0  0
 16 18  1  0  0  0  0
 16 19  1  0  0  0  0
 17 24  1  0  0  0  0
 18 24  1  0  0  0  0
 20 26  1  0  0  0  0
  1 27  1  0  0  0  0
  2 28  1  0  0  0  0
  3 29  1  0  0  0  0
  4 30  1  0  0  0  0
  5 31  1  0  0  0  0
  6 32  1  0  0  0  0
  7 33  1  0  0  0  0
  8 34  1  0  0  0  0
 15 35  1  0  0  0  0
 15 36  1  0  0  0  0
 16 37  1  0  0  0  0
 16 38  1  0  0  0  0
 17 39  1  0  0  0  0
 17 40  1  0  0  0  0
 18 41  1  0  0  0  0
 18 42  1  0  0  0  0
 19 43  1  0  0  0  0
 20 44  1  0  0  0  0
 20 45  1  0  0  0  0
M  END
> <Chemgauss4>
-9.749983

> <ref_pdb>
x0759_0

> <CYS145-warhead min dist (A)>
9.289807

> <CYS145-warhead avg dist (A)>
10.077432

> <CYS145-warhead avg dist stderr (A)>
0.07639443

> <original SMILES>
c1ccc2c(c1)c(nc(n2)c3cccnc3)C4CCN(CC4)C(=O)CCl

$$$$
SIM-SYN-f15-1
  -OEChem-04232002263D

 45 47  0     0  0  0  0  0  0999 V2000
    8.7175   -5.0877   26.9213 C   0  0  0  0  0  0  0  0  0  0  0  0
   12.4246    0.2933   23.9977 C   0  0  0  0  0  0  0  0  0  0  0  0
    9.8271   -5.3721   26.1254 C   0  0  0  0  0  0  0  0  0  0  0  0
    7.8501   -4.0549   26.5653 C   0  0  0  0  0  0  0  0  0  0  0  0
   12.4149   -0.4298   22.8049 C   0  0  0  0  0  0  0  0  0  0  0  0
   11.4768    0.0232   24.9848 C   0  0  0  0  0  0  0  0  0  0  0  0
   10.0695   -4.6236   24.9736 C   0  0  0  0  0  0  0  0  0  0  0  0
    8.0925   -3.3064   25.4134 C   0  0  0  0  0  0  0  0  0  0  0  0
   11.4573   -1.4229   22.5992 C   0  0  0  0  0  0  0  0  0  0  0  0
   10.5192   -0.9699   24.7791 C   0  0  0  0  0  0  0  0  0  0  0  0
    9.2022   -3.5908   24.6176 C   0  0  0  0  0  0  0  0  0  0  0  0
   10.5094   -1.6930   23.5863 C   0  0  0  0  0  0  0  0  0  0  0  0
    5.9342   -1.4345   19.3102 C   0  0  0  0  0  0  0  0  0  0  0  0
    6.1886   -2.7406   21.3960 C   0  0  0  0  0  0  0  0  0  0  0  0
    7.1867   -0.4890   21.3115 C   0  0  0  0  0  0  0  0  0  0  0  0
    7.4871   -3.3182   21.9399 C   0  0  0  0  0  0  0  0  0  0  0  0
    8.5005   -1.0327   21.8563 C   0  0  0  0  0  0  0  0  0  0  0  0
    6.2411   -0.1612   18.5630 C   0  0  0  0  0  0  0  0  0  0  0  0
    9.4658   -2.7747   23.3628 C   0  0  0  0  0  0  0  0  0  0  0  0
    6.4397   -1.5354   20.6056 N   0  0  0  0  0  0  0  0  0  0  0  0
    8.2173   -2.2447   22.7155 N   0  3  0  0  0  0  0  0  0  0  0  0
    5.2674   -2.3126   18.7568 O   0  0  0  0  0  0  0  0  0  0  0  0
    7.7739   -0.4189   17.7371 Cl  0  0  0  0  0  0  0  0  0  0  0  0
    8.5281   -5.6715   27.8174 H   0  0  0  0  0  0  0  0  0  0  0  0
   13.1712    1.0657   24.1582 H   0  0  0  0  0  0  0  0  0  0  0  0
   10.5019   -6.1769   26.4018 H   0  0  0  0  0  0  0  0  0  0  0  0
    6.9855   -3.8339   27.1841 H   0  0  0  0  0  0  0  0  0  0  0  0
   13.1535   -0.2203   22.0367 H   0  0  0  0  0  0  0  0  0  0  0  0
   11.4848    0.5852   25.9140 H   0  0  0  0  0  0  0  0  0  0  0  0
   10.9367   -4.8522   24.3596 H   0  0  0  0  0  0  0  0  0  0  0  0
    7.4114   -2.5035   25.1440 H   0  0  0  0  0  0  0  0  0  0  0  0
   11.4572   -1.9811   21.6667 H   0  0  0  0  0  0  0  0  0  0  0  0
    9.7846   -1.1734   25.5537 H   0  0  0  0  0  0  0  0  0  0  0  0
    5.6745   -3.4982   20.7963 H   0  0  0  0  0  0  0  0  0  0  0  0
    5.5142   -2.4625   22.2151 H   0  0  0  0  0  0  0  0  0  0  0  0
    6.5496   -0.1298   22.1288 H   0  0  0  0  0  0  0  0  0  0  0  0
    7.3940    0.3679   20.6683 H   0  0  0  0  0  0  0  0  0  0  0  0
    7.2838   -4.1407   22.6333 H   0  0  0  0  0  0  0  0  0  0  0  0
    8.1499   -3.6651   21.1392 H   0  0  0  0  0  0  0  0  0  0  0  0
    9.1814   -1.3400   21.0546 H   0  0  0  0  0  0  0  0  0  0  0  0
    8.9915   -0.2894   22.4928 H   0  0  0  0  0  0  0  0  0  0  0  0
    6.3340    0.6507   19.2753 H   0  0  0  0  0  0  0  0  0  0  0  0
    5.4543    0.0201   17.8398 H   0  0  0  0  0  0  0  0  0  0  0  0
    9.8399   -3.4688   22.5981 H   0  0  0  0  0  0  0  0  0  0  0  0
    7.5977   -1.9413   23.4796 H   0  0  0  0  0  0  0  0  0  0  0  0
  1  3  1  0  0  0  0
  1  4  2  0  0  0  0
  2  5  1  0  0  0  0
  2  6  2  0  0  0  0
  3  7  2  0  0  0  0
  4  8  1  0  0  0  0
  5  9  2  0  0  0  0
  6 10  1  0  0  0  0
  7 11  1  0  0  0  0
  8 11  2  0  0  0  0
  9 12  1  0  0  0  0
 10 12  2  0  0  0  0
 11 19  1  0  0  0  0
 12 19  1  0  0  0  0
 13 18  1  0  0  0  0
 13 20  1  0  0  0  0
 13 22  2  0  0  0  0
 14 16  1  0  0  0  0
 14 20  1  0  0  0  0
 15 17  1  0  0  0  0
 15 20  1  0  0  0  0
 16 21  1  0  0  0  0
 17 21  1  0  0  0  0
 18 23  1  0  0  0  0
 19 21  1  0  0  0  0
  1 24  1  0  0  0  0
  2 25  1  0  0  0  0
  3 26  1  0  0  0  0
  4 27  1  0  0  0  0
  5 28  1  0  0  0  0
  6 29  1  0  0  0  0
  7 30  1  0  0  0  0
  8 31  1  0  0  0  0
  9 32  1  0  0  0  0
 10 33  1  0  0  0  0
 14 34  1  0  0  0  0
 14 35  1  0  0  0  0
 15 36  1  0  0  0  0
 15 37  1  0  0  0  0
 16 38  1  0  0  0  0
 16 39  1  0  0  0  0
 17 40  1  0  0  0  0
 17 41  1  0  0  0  0
 18 42  1  0  0  0  0
 18 43  1  0  0  0  0
 19 44  1  0  0  0  0
 21 45  1  0  0  0  0
M  CHG  1  21   1
M  END
> <Chemgauss4>
-9.406737

> <ref_pdb>
x1386_0

> <CYS145-warhead min dist (A)>
2.9325032

> <CYS145-warhead avg dist (A)>
3.376544

> <CYS145-warhead avg dist stderr (A)>
0.0048412555

> <original SMILES>
c1ccc(cc1)C(c2ccccc2)[NH+]3CCN(CC3)C(=O)CCl

$$$$
SEA-TRI-f74-1
  -OEChem-04232002263D

 45 47  0     1  0  0  0  0  0999 V2000
   14.3859   -1.9449   25.9803 C   0  0  0  0  0  0  0  0  0  0  0  0
   13.7824   -0.7108   25.7652 C   0  0  0  0  0  0  0  0  0  0  0  0
   13.7129   -3.1331   25.6851 C   0  0  0  0  0  0  0  0  0  0  0  0
   12.4860   -0.6346   25.2477 C   0  0  0  0  0  0  0  0  0  0  0  0
   11.7836   -1.8200   24.9407 C   0  0  0  0  0  0  0  0  0  0  0  0
   12.4112   -3.0491   25.1654 C   0  0  0  0  0  0  0  0  0  0  0  0
   10.1661   -3.1589   24.2638 C   0  0  0  0  0  0  0  0  0  0  0  0
    6.7276   -3.5196   20.7639 C   0  0  0  0  0  0  0  0  0  0  0  0
    7.0521   -5.4274   23.7625 C   0  0  0  0  0  0  0  0  0  0  0  0
    8.3914   -4.9687   24.3419 C   0  0  0  0  0  0  0  0  0  0  0  0
    7.0959   -5.4729   22.2377 C   0  0  0  0  0  0  0  0  0  0  0  0
    8.8324   -3.7174   22.1813 C   0  0  0  0  0  0  0  0  0  0  0  0
    8.8282   -3.6303   23.7175 C   0  0  2  0  0  0  0  0  0  0  0  0
   11.8854    0.7194   25.0364 C   0  0  0  0  0  0  0  0  0  0  0  0
    7.2433   -2.1987   20.2511 C   0  0  0  0  0  0  0  0  0  0  0  0
   11.4896    0.9901   23.5843 C   0  0  0  0  0  0  0  0  0  0  0  0
   10.4986   -1.8993   24.4240 N   0  0  0  0  0  0  0  0  0  0  0  0
    7.5288   -4.1859   21.6903 N   0  0  0  0  0  0  0  0  0  0  0  0
   10.5139    2.5524   21.6716 N   0  0  0  0  0  0  0  0  0  0  0  0
    5.6440   -3.9436   20.3540 O   0  0  0  0  0  0  0  0  0  0  0  0
    9.5686    2.6963   24.0596 O   0  0  0  0  0  0  0  0  0  0  0  0
   11.8919    3.5719   23.5896 O   0  0  0  0  0  0  0  0  0  0  0  0
   11.3401   -4.3207   24.7086 S   0  0  0  0  0  0  0  0  0  0  0  0
   10.8307    2.6105   23.3458 S   0  0  0  0  0  0  0  0  0  0  0  0
    6.0602   -1.6136   19.0867 Cl  0  0  0  0  0  0  0  0  0  0  0  0
   15.3944   -1.9877   26.3834 H   0  0  0  0  0  0  0  0  0  0  0  0
   14.3307    0.1972   26.0046 H   0  0  0  0  0  0  0  0  0  0  0  0
   14.1904   -4.0931   25.8557 H   0  0  0  0  0  0  0  0  0  0  0  0
    6.8037   -6.4201   24.1547 H   0  0  0  0  0  0  0  0  0  0  0  0
    6.2566   -4.7456   24.0874 H   0  0  0  0  0  0  0  0  0  0  0  0
    8.3063   -4.8708   25.4312 H   0  0  0  0  0  0  0  0  0  0  0  0
    9.1504   -5.7398   24.1539 H   0  0  0  0  0  0  0  0  0  0  0  0
    7.8103   -6.2316   21.8964 H   0  0  0  0  0  0  0  0  0  0  0  0
    6.1118   -5.7523   21.8487 H   0  0  0  0  0  0  0  0  0  0  0  0
    9.1039   -2.7492   21.7542 H   0  0  0  0  0  0  0  0  0  0  0  0
    9.5840   -4.4372   21.8315 H   0  0  0  0  0  0  0  0  0  0  0  0
    8.0814   -2.8540   24.0130 H   0  0  0  0  0  0  0  0  0  0  0  0
   12.6115    1.4895   25.3439 H   0  0  0  0  0  0  0  0  0  0  0  0
   11.0080    0.8665   25.6869 H   0  0  0  0  0  0  0  0  0  0  0  0
    8.1978   -2.3595   19.7629 H   0  0  0  0  0  0  0  0  0  0  0  0
    7.3227   -1.5062   21.0812 H   0  0  0  0  0  0  0  0  0  0  0  0
   12.3668    0.9245   22.9327 H   0  0  0  0  0  0  0  0  0  0  0  0
   10.7385    0.2811   23.2230 H   0  0  0  0  0  0  0  0  0  0  0  0
    9.5320    2.5135   21.3717 H   0  0  0  0  0  0  0  0  0  0  0  0
   11.1144    3.1097   21.0516 H   0  0  0  0  0  0  0  0  0  0  0  0
  1  2  2  0  0  0  0
  1  3  1  0  0  0  0
  2  4  1  0  0  0  0
  3  6  2  0  0  0  0
  4  5  2  0  0  0  0
  4 14  1  0  0  0  0
  5  6  1  0  0  0  0
  5 17  1  0  0  0  0
  6 23  1  0  0  0  0
  7 13  1  0  0  0  0
  7 17  2  0  0  0  0
  7 23  1  0  0  0  0
  8 15  1  0  0  0  0
  8 18  1  0  0  0  0
  8 20  2  0  0  0  0
  9 10  1  0  0  0  0
  9 11  1  0  0  0  0
 10 13  1  0  0  0  0
 11 18  1  0  0  0  0
 12 13  1  0  0  0  0
 12 18  1  0  0  0  0
 14 16  1  0  0  0  0
 15 25  1  0  0  0  0
 16 24  1  0  0  0  0
 19 24  1  0  0  0  0
 21 24  2  0  0  0  0
 22 24  2  0  0  0  0
  1 26  1  0  0  0  0
  2 27  1  0  0  0  0
  3 28  1  0  0  0  0
  9 29  1  0  0  0  0
  9 30  1  0  0  0  0
 10 31  1  0  0  0  0
 10 32  1  0  0  0  0
 11 33  1  0  0  0  0
 11 34  1  0  0  0  0
 12 35  1  0  0  0  0
 12 36  1  0  0  0  0
 13 37  1  0  0  0  0
 14 38  1  0  0  0  0
 14 39  1  0  0  0  0
 15 40  1  0  0  0  0
 15 41  1  0  0  0  0
 16 42  1  0  0  0  0
 16 43  1  0  0  0  0
 19 44  1  0  0  0  0
 19 45  1  0  0  0  0
M  END
> <Chemgauss4>
-9.367073

> <ref_pdb>
x0749_0

> <CYS145-warhead min dist (A)>
2.9550097

> <CYS145-warhead avg dist (A)>
3.627902

> <CYS145-warhead avg dist stderr (A)>
0.02422652

> <original SMILES>
c1cc(c2c(c1)sc(n2)[C@@H]3CCCN(C3)C(=O)CCl)CCS(=O)(=O)N

$$$$
PAU-WEI-f73-1_thio_pH
  -OEChem-04232002263D

 62 65  0     1  0  0  0  0  0999 V2000
    9.0463   -4.5273   26.9959 C   0  0  0  0  0  0  0  0  0  0  0  0
   10.2031   -4.7638   26.2535 C   0  0  0  0  0  0  0  0  0  0  0  0
    8.1019   -3.6068   26.5414 C   0  0  0  0  0  0  0  0  0  0  0  0
   12.7274   -0.1226   22.9107 C   0  0  0  0  0  0  0  0  0  0  0  0
   12.4169    0.9558   23.7471 C   0  0  0  0  0  0  0  0  0  0  0  0
   10.4157   -4.0798   25.0566 C   0  0  0  0  0  0  0  0  0  0  0  0
    8.3145   -2.9228   25.3445 C   0  0  0  0  0  0  0  0  0  0  0  0
   11.8494   -1.1961   22.7754 C   0  0  0  0  0  0  0  0  0  0  0  0
    9.3720    1.2944   25.7408 C   0  0  0  0  0  0  0  0  0  0  0  0
   11.1996    0.9468   24.4568 C   0  0  0  0  0  0  0  0  0  0  0  0
    9.4714   -3.1593   24.6020 C   0  0  0  0  0  0  0  0  0  0  0  0
   10.6364   -1.2271   23.4693 C   0  0  0  0  0  0  0  0  0  0  0  0
   10.5764    1.8451   25.3677 C   0  0  0  0  0  0  0  0  0  0  0  0
   10.3392   -0.1422   24.3018 C   0  0  0  0  0  0  0  0  0  0  0  0
    5.9170   -2.3145   19.2544 C   0  0  0  0  0  0  0  0  0  0  0  0
   13.0291    4.2904   23.3616 C   0  0  0  0  0  0  0  0  0  0  0  0
    6.2769   -2.8142   21.6506 C   0  0  0  0  0  0  0  0  0  0  0  0
    7.3835   -0.8260   20.7041 C   0  0  0  0  0  0  0  0  0  0  0  0
    7.5840   -3.2644   22.2865 C   0  0  0  0  0  0  0  0  0  0  0  0
    8.7078   -1.2456   21.3278 C   0  0  0  0  0  0  0  0  0  0  0  0
   13.5454    3.8775   22.0233 C   0  0  0  0  0  0  0  0  0  0  0  0
   11.1166    3.1376   25.8356 C   0  0  0  0  0  0  0  0  0  0  0  0
    6.2272   -1.4169   18.0831 C   0  0  0  0  0  0  0  0  0  0  0  0
   11.0040    4.2751   24.8043 C   0  0  0  0  0  0  0  0  0  0  0  0
    9.7025   -2.4135   23.2980 C   0  0  2  0  0  0  0  0  0  0  0  0
    9.2380    0.0958   25.0930 N   0  0  0  0  0  0  0  0  0  0  0  0
    6.5243   -1.9910   20.4668 N   0  0  0  0  0  0  0  0  0  0  0  0
   11.6992    3.9701   23.5826 N   0  0  0  0  0  0  0  0  0  0  0  0
    8.4339   -2.0483   22.5800 N   0  3  0  0  0  0  0  0  0  0  0  0
    5.1595   -3.2750   19.0939 O   0  0  0  0  0  0  0  0  0  0  0  0
   13.7767    4.8596   24.1483 O   0  0  0  0  0  0  0  0  0  0  0  0
    5.3641   -2.0784   16.6991 Cl  0  0  0  0  0  0  0  0  0  0  0  0
    8.8802   -5.0609   27.9272 H   0  0  0  0  0  0  0  0  0  0  0  0
   10.9381   -5.4813   26.6067 H   0  0  0  0  0  0  0  0  0  0  0  0
    7.2005   -3.4232   27.1186 H   0  0  0  0  0  0  0  0  0  0  0  0
   13.6653   -0.1213   22.3613 H   0  0  0  0  0  0  0  0  0  0  0  0
   13.1124    1.7848   23.8412 H   0  0  0  0  0  0  0  0  0  0  0  0
   11.3202   -4.2704   24.4848 H   0  0  0  0  0  0  0  0  0  0  0  0
    7.5733   -2.2074   24.9982 H   0  0  0  0  0  0  0  0  0  0  0  0
   12.1201   -2.0196   22.1183 H   0  0  0  0  0  0  0  0  0  0  0  0
    8.5980    1.6463   26.4087 H   0  0  0  0  0  0  0  0  0  0  0  0
    5.6740   -3.6911   21.3946 H   0  0  0  0  0  0  0  0  0  0  0  0
    5.6903   -2.2112   22.3543 H   0  0  0  0  0  0  0  0  0  0  0  0
    6.8381   -0.1511   21.3749 H   0  0  0  0  0  0  0  0  0  0  0  0
    7.5811   -0.2717   19.7851 H   0  0  0  0  0  0  0  0  0  0  0  0
    7.3965   -3.7693   23.2396 H   0  0  0  0  0  0  0  0  0  0  0  0
    8.1571   -3.9242   21.6253 H   0  0  0  0  0  0  0  0  0  0  0  0
    9.3007   -1.8702   20.6504 H   0  0  0  0  0  0  0  0  0  0  0  0
    9.2900   -0.3672   21.6245 H   0  0  0  0  0  0  0  0  0  0  0  0
   13.4100    4.6609   21.2603 H   0  0  0  0  0  0  0  0  0  0  0  0
   14.6271    3.6677   22.0363 H   0  0  0  0  0  0  0  0  0  0  0  0
   13.0804    2.9743   21.5969 H   0  0  0  0  0  0  0  0  0  0  0  0
   12.1859    3.0277   26.1041 H   0  0  0  0  0  0  0  0  0  0  0  0
   10.6268    3.4626   26.7756 H   0  0  0  0  0  0  0  0  0  0  0  0
    7.2954   -1.4357   17.8992 H   0  0  0  0  0  0  0  0  0  0  0  0
    5.8696   -0.4174   18.3020 H   0  0  0  0  0  0  0  0  0  0  0  0
    9.9590    4.4589   24.5353 H   0  0  0  0  0  0  0  0  0  0  0  0
   11.4236    5.2060   25.1995 H   0  0  0  0  0  0  0  0  0  0  0  0
   10.1632   -3.1227   22.5971 H   0  0  0  0  0  0  0  0  0  0  0  0
    8.4447   -0.5239   25.1830 H   0  0  0  0  0  0  0  0  0  0  0  0
   11.1874    3.4939   22.8415 H   0  0  0  0  0  0  0  0  0  0  0  0
    7.8984   -1.4455   23.2200 H   0  0  0  0  0  0  0  0  0  0  0  0
  1  2  1  0  0  0  0
  1  3  2  0  0  0  0
  2  6  2  0  0  0  0
  3  7  1  0  0  0  0
  4  5  2  0  0  0  0
  4  8  1  0  0  0  0
  5 10  1  0  0  0  0
  6 11  1  0  0  0  0
  7 11  2  0  0  0  0
  8 12  2  0  0  0  0
  9 13  2  0  0  0  0
  9 26  1  0  0  0  0
 10 13  1  0  0  0  0
 10 14  2  0  0  0  0
 11 25  1  0  0  0  0
 12 14  1  0  0  0  0
 12 25  1  0  0  0  0
 13 22  1  0  0  0  0
 14 26  1  0  0  0  0
 15 23  1  0  0  0  0
 15 27  1  0  0  0  0
 15 30  2  0  0  0  0
 16 21  1  0  0  0  0
 16 28  1  0  0  0  0
 16 31  2  0  0  0  0
 17 19  1  0  0  0  0
 17 27  1  0  0  0  0
 18 20  1  0  0  0  0
 18 27  1  0  0  0  0
 19 29  1  0  0  0  0
 20 29  1  0  0  0  0
 22 24  1  0  0  0  0
 23 32  1  0  0  0  0
 24 28  1  0  0  0  0
 25 29  1  0  0  0  0
  1 33  1  0  0  0  0
  2 34  1  0  0  0  0
  3 35  1  0  0  0  0
  4 36  1  0  0  0  0
  5 37  1  0  0  0  0
  6 38  1  0  0  0  0
  7 39  1  0  0  0  0
  8 40  1  0  0  0  0
  9 41  1  0  0  0  0
 17 42  1  0  0  0  0
 17 43  1  0  0  0  0
 18 44  1  0  0  0  0
 18 45  1  0  0  0  0
 19 46  1  0  0  0  0
 19 47  1  0  0  0  0
 20 48  1  0  0  0  0
 20 49  1  0  0  0  0
 21 50  1  0  0  0  0
 21 51  1  0  0  0  0
 21 52  1  0  0  0  0
 22 53  1  0  0  0  0
 22 54  1  0  0  0  0
 23 55  1  0  0  0  0
 23 56  1  0  0  0  0
 24 57  1  0  0  0  0
 24 58  1  0  0  0  0
 25 59  1  0  0  0  0
 26 60  1  0  0  0  0
 28 61  1  0  0  0  0
 29 62  1  0  0  0  0
M  CHG  1  29   1
M  END
> <Chemgauss4>
-9.340829

> <ref_pdb>
x0830_0

> <CYS145-warhead min dist (A)>
5.206061

> <CYS145-warhead avg dist (A)>
5.6484184

> <CYS145-warhead avg dist stderr (A)>
0.03212238

> <original SMILES>
CC(=O)NCCc1c[nH]c2c1cccc2[C@@H](c3ccccc3)[NH+]4CCN(CC4)C(=O)CCl

$$$$
NIR-THE-c33-1
  -OEChem-04232002263D

 38 40  0     1  0  0  0  0  0999 V2000
    8.3193   -5.4435   24.7921 C   0  0  0  0  0  0  0  0  0  0  0  0
    9.0683   -4.4189   25.3598 C   0  0  0  0  0  0  0  0  0  0  0  0
   12.7825   -1.2962   22.5370 C   0  0  0  0  0  0  0  0  0  0  0  0
    7.7762   -5.2817   23.5195 C   0  0  0  0  0  0  0  0  0  0  0  0
    9.2893   -3.2389   24.6488 C   0  0  0  0  0  0  0  0  0  0  0  0
   11.5188   -1.8648   22.3773 C   0  0  0  0  0  0  0  0  0  0  0  0
   12.9081   -0.0155   23.0752 C   0  0  0  0  0  0  0  0  0  0  0  0
   10.5063    0.1282   23.2939 C   0  0  0  0  0  0  0  0  0  0  0  0
   10.3807   -1.1526   22.7557 C   0  0  0  0  0  0  0  0  0  0  0  0
    7.9823   -4.0951   22.7970 C   0  0  0  0  0  0  0  0  0  0  0  0
    8.7793   -3.0715   23.3490 C   0  0  0  0  0  0  0  0  0  0  0  0
   11.7700    0.6967   23.4536 C   0  0  0  0  0  0  0  0  0  0  0  0
    6.4466   -2.0023   20.0969 C   0  0  0  0  0  0  0  0  0  0  0  0
    7.3401   -3.9635   21.4365 C   0  0  0  0  0  0  0  0  0  0  0  0
    8.7135   -1.9469   21.0788 C   0  0  0  0  0  0  0  0  0  0  0  0
    9.0017   -1.7732   22.5806 C   0  0  2  0  0  0  0  0  0  0  0  0
    6.7421   -0.6044   19.6133 C   0  0  0  0  0  0  0  0  0  0  0  0
    7.4307   -2.6126   20.8752 N   0  0  0  0  0  0  0  0  0  0  0  0
   11.8971    1.9916   23.9982 N   0  0  0  0  0  0  0  0  0  0  0  0
    5.3772   -2.5345   19.7887 O   0  0  0  0  0  0  0  0  0  0  0  0
    5.3626   -0.1069   18.6405 Cl  0  0  0  0  0  0  0  0  0  0  0  0
    8.1584   -6.3675   25.3386 H   0  0  0  0  0  0  0  0  0  0  0  0
    9.4813   -4.5349   26.3581 H   0  0  0  0  0  0  0  0  0  0  0  0
   13.6688   -1.8510   22.2424 H   0  0  0  0  0  0  0  0  0  0  0  0
    7.1896   -6.0887   23.0857 H   0  0  0  0  0  0  0  0  0  0  0  0
    9.8646   -2.4408   25.1166 H   0  0  0  0  0  0  0  0  0  0  0  0
   11.4304   -2.8634   21.9571 H   0  0  0  0  0  0  0  0  0  0  0  0
   13.8977    0.4179   23.1956 H   0  0  0  0  0  0  0  0  0  0  0  0
    9.6179    0.6820   23.5887 H   0  0  0  0  0  0  0  0  0  0  0  0
    7.8084   -4.6786   20.7598 H   0  0  0  0  0  0  0  0  0  0  0  0
    6.2758   -4.2000   21.5180 H   0  0  0  0  0  0  0  0  0  0  0  0
    8.6381   -0.9679   20.5961 H   0  0  0  0  0  0  0  0  0  0  0  0
    9.5230   -2.4917   20.5896 H   0  0  0  0  0  0  0  0  0  0  0  0
    8.2702   -1.0143   22.9524 H   0  0  0  0  0  0  0  0  0  0  0  0
    7.6387   -0.6262   19.0050 H   0  0  0  0  0  0  0  0  0  0  0  0
    6.8478    0.0483   20.4718 H   0  0  0  0  0  0  0  0  0  0  0  0
   12.8103    2.3688   24.1516 H   0  0  0  0  0  0  0  0  0  0  0  0
   11.0773    2.4725   24.3089 H   0  0  0  0  0  0  0  0  0  0  0  0
  1  2  1  0  0  0  0
  1  4  2  0  0  0  0
  2  5  2  0  0  0  0
  3  6  1  0  0  0  0
  3  7  2  0  0  0  0
  4 10  1  0  0  0  0
  5 11  1  0  0  0  0
  6  9  2  0  0  0  0
  7 12  1  0  0  0  0
  8  9  1  0  0  0  0
  8 12  2  0  0  0  0
  9 16  1  0  0  0  0
 10 11  2  0  0  0  0
 10 14  1  0  0  0  0
 11 16  1  0  0  0  0
 12 19  1  0  0  0  0
 13 17  1  0  0  0  0
 13 18  1  0  0  0  0
 13 20  2  0  0  0  0
 14 18  1  0  0  0  0
 15 16  1  0  0  0  0
 15 18  1  0  0  0  0
 17 21  1  0  0  0  0
  1 22  1  0  0  0  0
  2 23  1  0  0  0  0
  3 24  1  0  0  0  0
  4 25  1  0  0  0  0
  5 26  1  0  0  0  0
  6 27  1  0  0  0  0
  7 28  1  0  0  0  0
  8 29  1  0  0  0  0
 14 30  1  0  0  0  0
 14 31  1  0  0  0  0
 15 32  1  0  0  0  0
 15 33  1  0  0  0  0
 16 34  1  0  0  0  0
 17 35  1  0  0  0  0
 17 36  1  0  0  0  0
 19 37  1  0  0  0  0
 19 38  1  0  0  0  0
M  END
> <Chemgauss4>
-9.282691

> <ref_pdb>
x0708_0

> <CYS145-warhead min dist (A)>
2.9932282

> <CYS145-warhead avg dist (A)>
3.5091214

> <CYS145-warhead avg dist stderr (A)>
0.05116896

> <original SMILES>
c1ccc2c(c1)CN(C[C@@H]2c3cccc(c3)N)C(=O)CCl

$$$$
PAU-UNI-b2b-1_thio_pH
  -OEChem-04232002263D

 41 43  0     0  0  0  0  0  0999 V2000
   10.7361    1.9921   25.8673 C   0  0  0  0  0  0  0  0  0  0  0  0
    9.8184    0.9541   25.7354 C   0  0  0  0  0  0  0  0  0  0  0  0
   13.5992   -0.1172   22.5468 C   0  0  0  0  0  0  0  0  0  0  0  0
   11.9073    1.9895   25.1093 C   0  0  0  0  0  0  0  0  0  0  0  0
   10.0684   -0.0904   24.8449 C   0  0  0  0  0  0  0  0  0  0  0  0
   13.3491    0.9274   23.4372 C   0  0  0  0  0  0  0  0  0  0  0  0
   12.6815   -1.1551   22.4149 C   0  0  0  0  0  0  0  0  0  0  0  0
   12.1754    0.9462   24.2082 C   0  0  0  0  0  0  0  0  0  0  0  0
   11.2421   -0.1093   24.0740 C   0  0  0  0  0  0  0  0  0  0  0  0
   11.5102   -1.1526   23.1728 C   0  0  0  0  0  0  0  0  0  0  0  0
    6.1031   -2.0158   19.7094 C   0  0  0  0  0  0  0  0  0  0  0  0
    6.8763   -2.5260   22.0036 C   0  0  0  0  0  0  0  0  0  0  0  0
    7.8880   -0.6022   20.8424 C   0  0  0  0  0  0  0  0  0  0  0  0
    8.2540   -3.0426   22.3918 C   0  0  0  0  0  0  0  0  0  0  0  0
    9.2819   -1.0891   21.2150 C   0  0  0  0  0  0  0  0  0  0  0  0
   10.5644   -2.3014   22.9816 C   0  0  0  0  0  0  0  0  0  0  0  0
    6.2358   -1.1398   18.4893 C   0  0  0  0  0  0  0  0  0  0  0  0
    6.9411   -1.7209   20.7838 N   0  0  0  0  0  0  0  0  0  0  0  0
    9.2048   -1.8721   22.5066 N   0  3  0  0  0  0  0  0  0  0  0  0
    5.2808   -2.9355   19.7048 O   0  0  0  0  0  0  0  0  0  0  0  0
    5.0869    0.1786   18.6884 Cl  0  0  0  0  0  0  0  0  0  0  0  0
   10.5408    2.8049   26.5608 H   0  0  0  0  0  0  0  0  0  0  0  0
    8.9068    0.9570   26.3259 H   0  0  0  0  0  0  0  0  0  0  0  0
   14.5109   -0.1198   21.9565 H   0  0  0  0  0  0  0  0  0  0  0  0
   12.6105    2.8111   25.2288 H   0  0  0  0  0  0  0  0  0  0  0  0
    9.3273   -0.8828   24.7703 H   0  0  0  0  0  0  0  0  0  0  0  0
   14.0805    1.7282   23.5240 H   0  0  0  0  0  0  0  0  0  0  0  0
   12.8877   -1.9632   21.7178 H   0  0  0  0  0  0  0  0  0  0  0  0
    6.1921   -3.3707   21.8753 H   0  0  0  0  0  0  0  0  0  0  0  0
    6.4624   -1.8906   22.7960 H   0  0  0  0  0  0  0  0  0  0  0  0
    7.5122    0.1029   21.5938 H   0  0  0  0  0  0  0  0  0  0  0  0
    7.9395   -0.0621   19.8955 H   0  0  0  0  0  0  0  0  0  0  0  0
    8.2213   -3.5337   23.3697 H   0  0  0  0  0  0  0  0  0  0  0  0
    8.6595   -3.7338   21.6444 H   0  0  0  0  0  0  0  0  0  0  0  0
    9.7057   -1.7464   20.4476 H   0  0  0  0  0  0  0  0  0  0  0  0
    9.9534   -0.2417   21.3871 H   0  0  0  0  0  0  0  0  0  0  0  0
   10.9474   -3.0103   22.2396 H   0  0  0  0  0  0  0  0  0  0  0  0
   10.4121   -2.8485   23.9182 H   0  0  0  0  0  0  0  0  0  0  0  0
    5.9855   -1.7219   17.6098 H   0  0  0  0  0  0  0  0  0  0  0  0
    7.2462   -0.7498   18.4450 H   0  0  0  0  0  0  0  0  0  0  0  0
    8.8293   -1.2398   23.2270 H   0  0  0  0  0  0  0  0  0  0  0  0
  1  2  1  0  0  0  0
  1  4  2  0  0  0  0
  2  5  2  0  0  0  0
  3  6  1  0  0  0  0
  3  7  2  0  0  0  0
  4  8  1  0  0  0  0
  5  9  1  0  0  0  0
  6  8  2  0  0  0  0
  7 10  1  0  0  0  0
  8  9  1  0  0  0  0
  9 10  2  0  0  0  0
 10 16  1  0  0  0  0
 11 17  1  0  0  0  0
 11 18  1  0  0  0  0
 11 20  2  0  0  0  0
 12 14  1  0  0  0  0
 12 18  1  0  0  0  0
 13 15  1  0  0  0  0
 13 18  1  0  0  0  0
 14 19  1  0  0  0  0
 15 19  1  0  0  0  0
 16 19  1  0  0  0  0
 17 21  1  0  0  0  0
  1 22  1  0  0  0  0
  2 23  1  0  0  0  0
  3 24  1  0  0  0  0
  4 25  1  0  0  0  0
  5 26  1  0  0  0  0
  6 27  1  0  0  0  0
  7 28  1  0  0  0  0
 12 29  1  0  0  0  0
 12 30  1  0  0  0  0
 13 31  1  0  0  0  0
 13 32  1  0  0  0  0
 14 33  1  0  0  0  0
 14 34  1  0  0  0  0
 15 35  1  0  0  0  0
 15 36  1  0  0  0  0
 16 37  1  0  0  0  0
 16 38  1  0  0  0  0
 17 39  1  0  0  0  0
 17 40  1  0  0  0  0
 19 41  1  0  0  0  0
M  CHG  1  19   1
M  END
> <Chemgauss4>
-9.263649

> <ref_pdb>
x0830_0

> <CYS145-warhead min dist (A)>
2.8279648

> <CYS145-warhead avg dist (A)>
3.3916953

> <CYS145-warhead avg dist stderr (A)>
0.009010762

> <original SMILES>
c1ccc2c(c1)cccc2C[NH+]3CCN(CC3)C(=O)CCl

$$$$
WAR-XCH-72a-9
  -OEChem-04232002263D

 62 64  0     1  0  0  0  0  0999 V2000
    5.9903   -5.8409   22.2382 C   0  0  0  0  0  0  0  0  0  0  0  0
    6.9588   -5.1861   21.5942 C   0  0  0  0  0  0  0  0  0  0  0  0
    6.6020   -4.0106   20.7746 C   0  0  0  0  0  0  0  0  0  0  0  0
    8.2080   -4.9885   26.8121 C   0  0  0  0  0  0  0  0  0  0  0  0
    9.1624   -5.8821   26.0262 C   0  0  0  0  0  0  0  0  0  0  0  0
    7.5931   -3.9090   25.9268 C   0  0  0  0  0  0  0  0  0  0  0  0
    8.2653   -0.7902   20.1099 C   0  0  0  0  0  0  0  0  0  0  0  0
   10.2365   -5.0667   25.3098 C   0  0  0  0  0  0  0  0  0  0  0  0
    8.6645   -3.0903   25.2101 C   0  0  0  0  0  0  0  0  0  0  0  0
    9.1466   -0.6595   21.3489 C   0  0  0  0  0  0  0  0  0  0  0  0
   11.4828   -0.2908   24.5577 C   0  0  0  0  0  0  0  0  0  0  0  0
   12.3757   -1.3518   22.4386 C   0  0  0  0  0  0  0  0  0  0  0  0
   12.6164    0.7365   24.5210 C   0  0  0  0  0  0  0  0  0  0  0  0
   13.5073   -0.3229   22.3999 C   0  0  0  0  0  0  0  0  0  0  0  0
    6.9503   -1.5073   20.4167 C   0  0  0  0  0  0  0  0  0  0  0  0
    8.0249   -2.7054   22.3060 C   0  0  0  0  0  0  0  0  0  0  0  0
    9.6215   -3.9852   24.4112 C   0  0  0  0  0  0  0  0  0  0  0  0
   11.1498   -0.7884   23.1533 C   0  0  0  0  0  0  0  0  0  0  0  0
    9.3537   -2.0277   21.9899 C   0  0  2  0  0  0  0  0  0  0  0  0
   13.8527    0.2059   23.7937 C   0  0  0  0  0  0  0  0  0  0  0  0
   10.7145   -3.1494   23.7479 C   0  0  0  0  0  0  0  0  0  0  0  0
    7.1746   -2.7851   21.1120 N   0  0  0  0  0  0  0  0  0  0  0  0
   10.1188   -1.8556   23.2532 N   0  3  1  0  0  0  0  0  0  0  0  0
    5.8223   -4.1867   19.8367 O   0  0  0  0  0  0  0  0  0  0  0  0
   14.4298   -0.8378   24.5760 O   0  0  0  0  0  0  0  0  0  0  0  0
    6.1900   -6.7107   22.8550 H   0  0  0  0  0  0  0  0  0  0  0  0
    4.9609   -5.5086   22.1557 H   0  0  0  0  0  0  0  0  0  0  0  0
    7.9967   -5.4867   21.6521 H   0  0  0  0  0  0  0  0  0  0  0  0
    7.4129   -5.5985   27.2558 H   0  0  0  0  0  0  0  0  0  0  0  0
    8.7500   -4.5157   27.6403 H   0  0  0  0  0  0  0  0  0  0  0  0
    9.6361   -6.6008   26.7046 H   0  0  0  0  0  0  0  0  0  0  0  0
    8.5949   -6.4645   25.2898 H   0  0  0  0  0  0  0  0  0  0  0  0
    6.9342   -4.3764   25.1848 H   0  0  0  0  0  0  0  0  0  0  0  0
    6.9680   -3.2459   26.5357 H   0  0  0  0  0  0  0  0  0  0  0  0
    8.0546    0.2051   19.7026 H   0  0  0  0  0  0  0  0  0  0  0  0
    8.8074   -1.3444   19.3334 H   0  0  0  0  0  0  0  0  0  0  0  0
   10.8937   -4.6025   26.0564 H   0  0  0  0  0  0  0  0  0  0  0  0
   10.8623   -5.7394   24.7113 H   0  0  0  0  0  0  0  0  0  0  0  0
    8.1809   -2.3683   24.5412 H   0  0  0  0  0  0  0  0  0  0  0  0
    9.2281   -2.5083   25.9507 H   0  0  0  0  0  0  0  0  0  0  0  0
   10.1097   -0.2170   21.0688 H   0  0  0  0  0  0  0  0  0  0  0  0
    8.6671    0.0272   22.0584 H   0  0  0  0  0  0  0  0  0  0  0  0
   11.7528   -1.1181   25.2097 H   0  0  0  0  0  0  0  0  0  0  0  0
   10.5975    0.1826   24.9805 H   0  0  0  0  0  0  0  0  0  0  0  0
   12.0997   -1.6045   21.4159 H   0  0  0  0  0  0  0  0  0  0  0  0
   12.7207   -2.2642   22.9186 H   0  0  0  0  0  0  0  0  0  0  0  0
   12.2683    1.6559   24.0304 H   0  0  0  0  0  0  0  0  0  0  0  0
   12.8871    1.0423   25.5414 H   0  0  0  0  0  0  0  0  0  0  0  0
   14.4029   -0.7568   21.9345 H   0  0  0  0  0  0  0  0  0  0  0  0
   13.2233    0.5147   21.7486 H   0  0  0  0  0  0  0  0  0  0  0  0
    6.3245   -0.8914   21.0732 H   0  0  0  0  0  0  0  0  0  0  0  0
    6.4118   -1.6438   19.4779 H   0  0  0  0  0  0  0  0  0  0  0  0
    8.1979   -3.7029   22.7240 H   0  0  0  0  0  0  0  0  0  0  0  0
    7.4599   -2.1335   23.0531 H   0  0  0  0  0  0  0  0  0  0  0  0
    9.0516   -4.4785   23.6140 H   0  0  0  0  0  0  0  0  0  0  0  0
   10.7011    0.0134   22.5628 H   0  0  0  0  0  0  0  0  0  0  0  0
    9.9677   -2.6677   21.3458 H   0  0  0  0  0  0  0  0  0  0  0  0
   14.5954    1.0089   23.7112 H   0  0  0  0  0  0  0  0  0  0  0  0
   11.1426   -3.6586   22.8801 H   0  0  0  0  0  0  0  0  0  0  0  0
   11.5082   -2.8885   24.4534 H   0  0  0  0  0  0  0  0  0  0  0  0
    9.4545   -1.5470   23.9822 H   0  0  0  0  0  0  0  0  0  0  0  0
   14.6664   -0.4454   25.4311 H   0  0  0  0  0  0  0  0  0  0  0  0
  1  2  2  0  0  0  0
  2  3  1  0  0  0  0
  3 22  1  0  0  0  0
  3 24  2  0  0  0  0
  4  5  1  0  0  0  0
  4  6  1  0  0  0  0
  5  8  1  0  0  0  0
  6  9  1  0  0  0  0
  7 10  1  0  0  0  0
  7 15  1  0  0  0  0
  8 17  1  0  0  0  0
  9 17  1  0  0  0  0
 10 19  1  0  0  0  0
 11 13  1  0  0  0  0
 11 18  1  0  0  0  0
 12 14  1  0  0  0  0
 12 18  1  0  0  0  0
 13 20  1  0  0  0  0
 14 20  1  0  0  0  0
 15 22  1  0  0  0  0
 16 19  1  0  0  0  0
 16 22  1  0  0  0  0
 17 21  1  0  0  0  0
 18 23  1  0  0  0  0
 19 23  1  0  0  0  0
 20 25  1  0  0  0  0
 21 23  1  0  0  0  0
  1 26  1  0  0  0  0
  1 27  1  0  0  0  0
  2 28  1  0  0  0  0
  4 29  1  0  0  0  0
  4 30  1  0  0  0  0
  5 31  1  0  0  0  0
  5 32  1  0  0  0  0
  6 33  1  0  0  0  0
  6 34  1  0  0  0  0
  7 35  1  0  0  0  0
  7 36  1  0  0  0  0
  8 37  1  0  0  0  0
  8 38  1  0  0  0  0
  9 39  1  0  0  0  0
  9 40  1  0  0  0  0
 10 41  1  0  0  0  0
 10 42  1  0  0  0  0
 11 43  1  0  0  0  0
 11 44  1  0  0  0  0
 12 45  1  0  0  0  0
 12 46  1  0  0  0  0
 13 47  1  0  0  0  0
 13 48  1  0  0  0  0
 14 49  1  0  0  0  0
 14 50  1  0  0  0  0
 15 51  1  0  0  0  0
 15 52  1  0  0  0  0
 16 53  1  0  0  0  0
 16 54  1  0  0  0  0
 17 55  1  0  0  0  0
 18 56  1  0  0  0  0
 19 57  1  0  0  0  0
 20 58  1  0  0  0  0
 21 59  1  0  0  0  0
 21 60  1  0  0  0  0
 23 61  1  0  0  0  0
 25 62  1  0  0  0  0
M  CHG  1  23   1
M  END
> <Chemgauss4>
-9.233055

> <ref_pdb>
x1418_0

> <CYS145-warhead min dist (A)>
3.2008722

> <CYS145-warhead avg dist (A)>
4.240478

> <CYS145-warhead avg dist stderr (A)>
0.043589503

> <original SMILES>
C=CC(=O)N1CCC[C@H](C1)[N@@H+](CC2CCCCC2)C3CCC(CC3)O

$$$$
MAK-UNK-af8-2
  -OEChem-04232002263D

 44 45  0     1  0  0  0  0  0999 V2000
   11.8059    4.1032   23.6597 C   0  0  0  0  0  0  0  0  0  0  0  0
   12.7097    3.0558   23.4816 C   0  0  0  0  0  0  0  0  0  0  0  0
   10.5770    3.8669   24.2759 C   0  0  0  0  0  0  0  0  0  0  0  0
   12.3845    1.7720   23.9196 C   0  0  0  0  0  0  0  0  0  0  0  0
   10.2518    2.5831   24.7138 C   0  0  0  0  0  0  0  0  0  0  0  0
   11.1555    1.5357   24.5357 C   0  0  0  0  0  0  0  0  0  0  0  0
    5.9999   -1.2538   19.9573 C   0  0  0  0  0  0  0  0  0  0  0  0
    8.3052   -0.3683   19.8076 C   0  0  0  0  0  0  0  0  0  0  0  0
    7.9893   -2.6174   20.7640 C   0  0  0  0  0  0  0  0  0  0  0  0
    9.1918    0.0279   20.9791 C   0  0  0  0  0  0  0  0  0  0  0  0
    8.8733   -2.2555   21.9498 C   0  0  0  0  0  0  0  0  0  0  0  0
   11.8577   -2.0082   22.7099 C   0  0  0  0  0  0  0  0  0  0  0  0
   10.8030    0.1472   25.0094 C   0  0  0  0  0  0  0  0  0  0  0  0
    5.4783    0.1608   19.9786 C   0  0  0  0  0  0  0  0  0  0  0  0
   10.0860   -0.6933   23.9430 C   0  0  0  0  0  0  0  0  0  0  0  0
   10.8430   -0.8749   22.6204 C   0  0  2  0  0  0  0  0  0  0  0  0
    7.3639   -1.4199   20.1926 N   0  0  0  0  0  0  0  0  0  0  0  0
    9.8758   -1.2080   21.5195 N   0  3  0  0  0  0  0  0  0  0  0  0
    5.2175   -2.1816   19.7355 O   0  0  0  0  0  0  0  0  0  0  0  0
    5.7869    0.7872   21.5943 Cl  0  0  0  0  0  0  0  0  0  0  0  0
   12.0599    5.1031   23.3199 H   0  0  0  0  0  0  0  0  0  0  0  0
   13.6671    3.2398   23.0029 H   0  0  0  0  0  0  0  0  0  0  0  0
    9.8736    4.6824   24.4157 H   0  0  0  0  0  0  0  0  0  0  0  0
   13.0948    0.9619   23.7764 H   0  0  0  0  0  0  0  0  0  0  0  0
    9.2920    2.4084   25.1927 H   0  0  0  0  0  0  0  0  0  0  0  0
    7.7723    0.5135   19.4380 H   0  0  0  0  0  0  0  0  0  0  0  0
    8.9087   -0.7545   18.9771 H   0  0  0  0  0  0  0  0  0  0  0  0
    8.5829   -3.0849   19.9690 H   0  0  0  0  0  0  0  0  0  0  0  0
    7.2475   -3.3518   21.0824 H   0  0  0  0  0  0  0  0  0  0  0  0
    9.9761    0.7191   20.6540 H   0  0  0  0  0  0  0  0  0  0  0  0
    8.6169    0.4789   21.7957 H   0  0  0  0  0  0  0  0  0  0  0  0
    8.2934   -1.8441   22.7836 H   0  0  0  0  0  0  0  0  0  0  0  0
    9.4397   -3.1287   22.2896 H   0  0  0  0  0  0  0  0  0  0  0  0
   11.3842   -2.9491   23.0113 H   0  0  0  0  0  0  0  0  0  0  0  0
   12.6359   -1.7716   23.4431 H   0  0  0  0  0  0  0  0  0  0  0  0
   12.3490   -2.1721   21.7446 H   0  0  0  0  0  0  0  0  0  0  0  0
   10.2050    0.1916   25.9272 H   0  0  0  0  0  0  0  0  0  0  0  0
   11.7300   -0.3699   25.2919 H   0  0  0  0  0  0  0  0  0  0  0  0
    4.4122    0.1454   19.7828 H   0  0  0  0  0  0  0  0  0  0  0  0
    6.0186    0.7456   19.2431 H   0  0  0  0  0  0  0  0  0  0  0  0
    9.8631   -1.6848   24.3586 H   0  0  0  0  0  0  0  0  0  0  0  0
    9.1139   -0.2238   23.7408 H   0  0  0  0  0  0  0  0  0  0  0  0
   11.3500    0.0466   22.3179 H   0  0  0  0  0  0  0  0  0  0  0  0
   10.4322   -1.6120   20.7534 H   0  0  0  0  0  0  0  0  0  0  0  0
  1  2  1  0  0  0  0
  1  3  2  0  0  0  0
  2  4  2  0  0  0  0
  3  5  1  0  0  0  0
  4  6  1  0  0  0  0
  5  6  2  0  0  0  0
  6 13  1  0  0  0  0
  7 14  1  0  0  0  0
  7 17  1  0  0  0  0
  7 19  2  0  0  0  0
  8 10  1  0  0  0  0
  8 17  1  0  0  0  0
  9 11  1  0  0  0  0
  9 17  1  0  0  0  0
 10 18  1  0  0  0  0
 11 18  1  0  0  0  0
 12 16  1  0  0  0  0
 13 15  1  0  0  0  0
 14 20  1  0  0  0  0
 15 16  1  0  0  0  0
 16 18  1  0  0  0  0
  1 21  1  0  0  0  0
  2 22  1  0  0  0  0
  3 23  1  0  0  0  0
  4 24  1  0  0  0  0
  5 25  1  0  0  0  0
  8 26  1  0  0  0  0
  8 27  1  0  0  0  0
  9 28  1  0  0  0  0
  9 29  1  0  0  0  0
 10 30  1  0  0  0  0
 10 31  1  0  0  0  0
 11 32  1  0  0  0  0
 11 33  1  0  0  0  0
 12 34  1  0  0  0  0
 12 35  1  0  0  0  0
 12 36  1  0  0  0  0
 13 37  1  0  0  0  0
 13 38  1  0  0  0  0
 14 39  1  0  0  0  0
 14 40  1  0  0  0  0
 15 41  1  0  0  0  0
 15 42  1  0  0  0  0
 16 43  1  0  0  0  0
 18 44  1  0  0  0  0
M  CHG  1  18   1
M  END
> <Chemgauss4>
-9.204202

> <ref_pdb>
x0830_0

> <CYS145-warhead min dist (A)>
6.169794

> <CYS145-warhead avg dist (A)>
6.751074

> <CYS145-warhead avg dist stderr (A)>
0.023961142

> <original SMILES>
C[C@H](CCc1ccccc1)[NH+]2CCN(CC2)C(=O)CCl

$$$$
JOO-IND-b13-2
  -OEChem-04232002263D

 34 36  0     1  0  0  0  0  0999 V2000
   13.8761   -0.6760   25.8114 C   0  0  0  0  0  0  0  0  0  0  0  0
   14.3839   -1.8999   26.2331 C   0  0  0  0  0  0  0  0  0  0  0  0
   12.6443   -0.6065   25.1541 C   0  0  0  0  0  0  0  0  0  0  0  0
   13.6771   -3.0843   26.0103 C   0  0  0  0  0  0  0  0  0  0  0  0
   11.9096   -1.7882   24.9163 C   0  0  0  0  0  0  0  0  0  0  0  0
   12.4405   -3.0070   25.3495 C   0  0  0  0  0  0  0  0  0  0  0  0
   10.2940   -3.1269   24.2345 C   0  0  0  0  0  0  0  0  0  0  0  0
    6.6571   -2.8792   20.9308 C   0  0  0  0  0  0  0  0  0  0  0  0
    7.4905   -5.5738   23.1175 C   0  0  0  0  0  0  0  0  0  0  0  0
    8.7977   -5.1210   23.7702 C   0  0  0  0  0  0  0  0  0  0  0  0
    7.4124   -5.1190   21.6629 C   0  0  0  0  0  0  0  0  0  0  0  0
    8.8802   -3.1886   22.1310 C   0  0  0  0  0  0  0  0  0  0  0  0
    8.9926   -3.6018   23.6088 C   0  0  2  0  0  0  0  0  0  0  0  0
    6.9416   -1.3998   20.8662 C   0  0  2  0  0  0  0  0  0  0  0  0
   10.6800   -1.8732   24.2795 N   0  0  0  0  0  0  0  0  0  0  0  0
    7.6169   -3.6731   21.5572 N   0  0  0  0  0  0  0  0  0  0  0  0
    5.6116   -3.3137   20.4408 O   0  0  0  0  0  0  0  0  0  0  0  0
    5.7884   -0.7003   20.8535 F   0  0  0  0  0  0  0  0  0  0  0  0
   11.3497   -4.2762   24.9349 S   0  0  0  0  0  0  0  0  0  0  0  0
    7.8463   -1.1221   19.3829 Cl  0  0  0  0  0  0  0  0  0  0  0  0
   14.4403    0.2346   25.9933 H   0  0  0  0  0  0  0  0  0  0  0  0
   15.3432   -1.9375   26.7427 H   0  0  0  0  0  0  0  0  0  0  0  0
   12.2568    0.3552   24.8300 H   0  0  0  0  0  0  0  0  0  0  0  0
   14.0794   -4.0360   26.3436 H   0  0  0  0  0  0  0  0  0  0  0  0
    7.4146   -6.6658   23.1677 H   0  0  0  0  0  0  0  0  0  0  0  0
    6.6388   -5.1668   23.6763 H   0  0  0  0  0  0  0  0  0  0  0  0
    8.7914   -5.3933   24.8328 H   0  0  0  0  0  0  0  0  0  0  0  0
    9.6372   -5.6612   23.3122 H   0  0  0  0  0  0  0  0  0  0  0  0
    8.1932   -5.6053   21.0659 H   0  0  0  0  0  0  0  0  0  0  0  0
    6.4469   -5.4096   21.2369 H   0  0  0  0  0  0  0  0  0  0  0  0
    8.9793   -2.1044   22.0389 H   0  0  0  0  0  0  0  0  0  0  0  0
    9.6917   -3.6299   21.5376 H   0  0  0  0  0  0  0  0  0  0  0  0
    8.1736   -3.0894   24.1694 H   0  0  0  0  0  0  0  0  0  0  0  0
    7.5391   -1.1190   21.7269 H   0  0  0  0  0  0  0  0  0  0  0  0
  1  2  1  0  0  0  0
  1  3  2  0  0  0  0
  2  4  2  0  0  0  0
  3  5  1  0  0  0  0
  4  6  1  0  0  0  0
  5  6  2  0  0  0  0
  5 15  1  0  0  0  0
  6 19  1  0  0  0  0
  7 13  1  0  0  0  0
  7 15  2  0  0  0  0
  7 19  1  0  0  0  0
  8 14  1  0  0  0  0
  8 16  1  0  0  0  0
  8 17  2  0  0  0  0
  9 10  1  0  0  0  0
  9 11  1  0  0  0  0
 10 13  1  0  0  0  0
 11 16  1  0  0  0  0
 12 13  1  0  0  0  0
 12 16  1  0  0  0  0
 14 18  1  0  0  0  0
 14 20  1  0  0  0  0
  1 21  1  0  0  0  0
  2 22  1  0  0  0  0
  3 23  1  0  0  0  0
  4 24  1  0  0  0  0
  9 25  1  0  0  0  0
  9 26  1  0  0  0  0
 10 27  1  0  0  0  0
 10 28  1  0  0  0  0
 11 29  1  0  0  0  0
 11 30  1  0  0  0  0
 12 31  1  0  0  0  0
 12 32  1  0  0  0  0
 13 33  1  0  0  0  0
 14 34  1  0  0  0  0
M  END
> <Chemgauss4>
-9.181973

> <ref_pdb>
x0749_0

> <original SMILES>
c1ccc2c(c1)nc(s2)[C@@H]3CCCN(C3)C(=O)[C@H](F)Cl

$$$$
DAN-LON-a5f-8
  -OEChem-04232002263D

 36 38  0     1  0  0  0  0  0999 V2000
   13.3184    0.4145   22.6121 C   0  0  0  0  0  0  0  0  0  0  0  0
   12.4961   -0.6849   22.3658 C   0  0  0  0  0  0  0  0  0  0  0  0
   13.1147    1.1972   23.7486 C   0  0  0  0  0  0  0  0  0  0  0  0
   11.2663   -0.2189   24.3925 C   0  0  0  0  0  0  0  0  0  0  0  0
   11.4700   -1.0017   23.2560 C   0  0  0  0  0  0  0  0  0  0  0  0
   12.0886    0.8805   24.6388 C   0  0  0  0  0  0  0  0  0  0  0  0
    6.4960   -1.6008   19.4285 C   0  0  0  0  0  0  0  0  0  0  0  0
    7.6837   -0.7810   22.7426 C   0  0  0  0  0  0  0  0  0  0  0  0
    8.3886   -0.2901   20.5308 C   0  0  0  0  0  0  0  0  0  0  0  0
    8.3815   -2.8863   21.9303 C   0  0  0  0  0  0  0  0  0  0  0  0
    7.2131   -1.9025   21.8195 C   0  0  2  0  0  0  0  0  0  0  0  0
    8.9567   -0.5299   21.9364 C   0  0  2  0  0  0  0  0  0  0  0  0
   10.5851   -2.1836   22.9899 C   0  0  0  0  0  0  0  0  0  0  0  0
    6.8011   -0.8724   18.1449 C   0  0  0  0  0  0  0  0  0  0  0  0
    7.2953   -1.2642   20.4998 N   0  0  0  0  0  0  0  0  0  0  0  0
    9.5879   -1.9361   21.9033 N   0  3  1  0  0  0  0  0  0  0  0  0
    5.5903   -2.4341   19.4765 O   0  0  0  0  0  0  0  0  0  0  0  0
   11.8371    1.8472   26.0402 Cl  0  0  0  0  0  0  0  0  0  0  0  0
    5.7883    0.5672   18.1288 Cl  0  0  0  0  0  0  0  0  0  0  0  0
   14.1173    0.6609   21.9186 H   0  0  0  0  0  0  0  0  0  0  0  0
   12.6621   -1.2892   21.4777 H   0  0  0  0  0  0  0  0  0  0  0  0
   13.7632    2.0513   23.9276 H   0  0  0  0  0  0  0  0  0  0  0  0
   10.4652   -0.4703   25.0838 H   0  0  0  0  0  0  0  0  0  0  0  0
    7.0044    0.0783   22.7501 H   0  0  0  0  0  0  0  0  0  0  0  0
    7.8698   -1.1062   23.7711 H   0  0  0  0  0  0  0  0  0  0  0  0
    7.9621    0.7128   20.4256 H   0  0  0  0  0  0  0  0  0  0  0  0
    9.1017   -0.4733   19.7219 H   0  0  0  0  0  0  0  0  0  0  0  0
    8.3856   -3.4222   22.8849 H   0  0  0  0  0  0  0  0  0  0  0  0
    8.4742   -3.5790   21.0890 H   0  0  0  0  0  0  0  0  0  0  0  0
    6.2328   -2.3337   22.0303 H   0  0  0  0  0  0  0  0  0  0  0  0
    9.6679    0.2114   22.3051 H   0  0  0  0  0  0  0  0  0  0  0  0
   11.1719   -3.0569   22.6853 H   0  0  0  0  0  0  0  0  0  0  0  0
   10.0149   -2.4599   23.8833 H   0  0  0  0  0  0  0  0  0  0  0  0
    6.5491   -1.5136   17.3076 H   0  0  0  0  0  0  0  0  0  0  0  0
    7.8481   -0.5908   18.1402 H   0  0  0  0  0  0  0  0  0  0  0  0
   10.0783   -2.0538   21.0062 H   0  0  0  0  0  0  0  0  0  0  0  0
  1  2  2  0  0  0  0
  1  3  1  0  0  0  0
  2  5  1  0  0  0  0
  3  6  2  0  0  0  0
  4  5  2  0  0  0  0
  4  6  1  0  0  0  0
  5 13  1  0  0  0  0
  6 18  1  0  0  0  0
  7 14  1  0  0  0  0
  7 15  1  0  0  0  0
  7 17  2  0  0  0  0
  8 11  1  0  0  0  0
  8 12  1  0  0  0  0
  9 12  1  0  0  0  0
  9 15  1  0  0  0  0
 10 11  1  0  0  0  0
 10 16  1  0  0  0  0
 11 15  1  0  0  0  0
 12 16  1  0  0  0  0
 13 16  1  0  0  0  0
 14 19  1  0  0  0  0
  1 20  1  0  0  0  0
  2 21  1  0  0  0  0
  3 22  1  0  0  0  0
  4 23  1  0  0  0  0
  8 24  1  0  0  0  0
  8 25  1  0  0  0  0
  9 26  1  0  0  0  0
  9 27  1  0  0  0  0
 10 28  1  0  0  0  0
 10 29  1  0  0  0  0
 11 30  1  0  0  0  0
 12 31  1  0  0  0  0
 13 32  1  0  0  0  0
 13 33  1  0  0  0  0
 14 34  1  0  0  0  0
 14 35  1  0  0  0  0
 16 36  1  0  0  0  0
M  CHG  1  16   1
M  END
> <Chemgauss4>
-9.163862

> <ref_pdb>
x0830_0

> <CYS145-warhead min dist (A)>
3.224988

> <CYS145-warhead avg dist (A)>
5.9687066

> <CYS145-warhead avg dist stderr (A)>
0.031401206

> <original SMILES>
c1cc(cc(c1)Cl)C[N@H+]2C[C@H]3C[C@@H]2CN3C(=O)CCl

$$$$
WAL-WAB-df1-2_thio_pH
  -OEChem-04232002263D

 51 53  0     1  0  0  0  0  0999 V2000
   11.5187    0.8730   24.1885 C   0  0  0  0  0  0  0  0  0  0  0  0
   12.7813    0.7568   23.6072 C   0  0  0  0  0  0  0  0  0  0  0  0
   10.5433   -0.0918   23.9364 C   0  0  0  0  0  0  0  0  0  0  0  0
    9.5960   -4.7514   25.6712 C   0  0  0  0  0  0  0  0  0  0  0  0
    7.8475   -3.1157   25.9943 C   0  0  0  0  0  0  0  0  0  0  0  0
    9.9992   -4.0912   24.5106 C   0  0  0  0  0  0  0  0  0  0  0  0
    8.2507   -2.4554   24.8337 C   0  0  0  0  0  0  0  0  0  0  0  0
   12.0931   -1.2890   22.5216 C   0  0  0  0  0  0  0  0  0  0  0  0
    8.5201   -4.2636   26.4131 C   0  0  0  0  0  0  0  0  0  0  0  0
    9.3266   -2.9432   24.0918 C   0  0  0  0  0  0  0  0  0  0  0  0
   13.0685   -0.3242   22.7738 C   0  0  0  0  0  0  0  0  0  0  0  0
   10.8305   -1.1728   23.1030 C   0  0  0  0  0  0  0  0  0  0  0  0
    6.3991   -1.5882   18.4758 C   0  0  0  0  0  0  0  0  0  0  0  0
    6.4777   -2.1520   20.8835 C   0  0  0  0  0  0  0  0  0  0  0  0
    7.9149   -0.3200   20.0764 C   0  0  0  0  0  0  0  0  0  0  0  0
    7.6532   -2.7770   21.6205 C   0  0  0  0  0  0  0  0  0  0  0  0
    9.1124   -0.9168   20.8033 C   0  0  0  0  0  0  0  0  0  0  0  0
    8.0884   -4.9689   27.6541 C   0  0  0  0  0  0  0  0  0  0  0  0
   14.4193   -0.4486   22.1538 C   0  0  0  0  0  0  0  0  0  0  0  0
    6.3388   -0.4046   17.5436 C   0  0  0  0  0  0  0  0  0  0  0  0
    9.7677   -2.2234   22.8279 C   0  0  2  0  0  0  0  0  0  0  0  0
    6.9345   -1.3586   19.7424 N   0  0  0  0  0  0  0  0  0  0  0  0
    8.6262   -1.6869   22.0107 N   0  3  0  0  0  0  0  0  0  0  0  0
    5.9848   -2.6834   18.0873 O   0  0  0  0  0  0  0  0  0  0  0  0
    5.3034    0.7917   18.3146 Cl  0  0  0  0  0  0  0  0  0  0  0  0
   11.2952    1.7148   24.8375 H   0  0  0  0  0  0  0  0  0  0  0  0
   13.5352    1.5131   23.8098 H   0  0  0  0  0  0  0  0  0  0  0  0
    9.5621    0.0073   24.3930 H   0  0  0  0  0  0  0  0  0  0  0  0
   10.1255   -5.6455   25.9897 H   0  0  0  0  0  0  0  0  0  0  0  0
    7.0090   -2.7281   26.5671 H   0  0  0  0  0  0  0  0  0  0  0  0
   10.8393   -4.4774   23.9397 H   0  0  0  0  0  0  0  0  0  0  0  0
    7.7210   -1.5617   24.5144 H   0  0  0  0  0  0  0  0  0  0  0  0
   12.3168   -2.1325   21.8727 H   0  0  0  0  0  0  0  0  0  0  0  0
    5.7898   -2.9389   20.5589 H   0  0  0  0  0  0  0  0  0  0  0  0
    5.9157   -1.4826   21.5461 H   0  0  0  0  0  0  0  0  0  0  0  0
    7.4059    0.4155   20.7111 H   0  0  0  0  0  0  0  0  0  0  0  0
    8.2639    0.2111   19.1892 H   0  0  0  0  0  0  0  0  0  0  0  0
    7.3177   -3.2608   22.5436 H   0  0  0  0  0  0  0  0  0  0  0  0
    8.1906   -3.5012   20.9980 H   0  0  0  0  0  0  0  0  0  0  0  0
    9.6756   -1.6087   20.1671 H   0  0  0  0  0  0  0  0  0  0  0  0
    9.7766   -0.1260   21.1668 H   0  0  0  0  0  0  0  0  0  0  0  0
    8.6221   -4.5701   28.5255 H   0  0  0  0  0  0  0  0  0  0  0  0
    7.0100   -4.8531   27.8238 H   0  0  0  0  0  0  0  0  0  0  0  0
    8.2854   -6.0470   27.5889 H   0  0  0  0  0  0  0  0  0  0  0  0
   15.0884   -1.0211   22.8077 H   0  0  0  0  0  0  0  0  0  0  0  0
   14.3662   -0.9548   21.1812 H   0  0  0  0  0  0  0  0  0  0  0  0
   14.8676    0.5374   21.9745 H   0  0  0  0  0  0  0  0  0  0  0  0
    5.9048   -0.7207   16.6018 H   0  0  0  0  0  0  0  0  0  0  0  0
    7.3387   -0.0056   17.4171 H   0  0  0  0  0  0  0  0  0  0  0  0
   10.1911   -2.9813   22.1551 H   0  0  0  0  0  0  0  0  0  0  0  0
    8.1203   -1.0240   22.6142 H   0  0  0  0  0  0  0  0  0  0  0  0
  1  2  2  0  0  0  0
  1  3  1  0  0  0  0
  2 11  1  0  0  0  0
  3 12  2  0  0  0  0
  4  6  2  0  0  0  0
  4  9  1  0  0  0  0
  5  7  1  0  0  0  0
  5  9  2  0  0  0  0
  6 10  1  0  0  0  0
  7 10  2  0  0  0  0
  8 11  2  0  0  0  0
  8 12  1  0  0  0  0
  9 18  1  0  0  0  0
 10 21  1  0  0  0  0
 11 19  1  0  0  0  0
 12 21  1  0  0  0  0
 13 20  1  0  0  0  0
 13 22  1  0  0  0  0
 13 24  2  0  0  0  0
 14 16  1  0  0  0  0
 14 22  1  0  0  0  0
 15 17  1  0  0  0  0
 15 22  1  0  0  0  0
 16 23  1  0  0  0  0
 17 23  1  0  0  0  0
 20 25  1  0  0  0  0
 21 23  1  0  0  0  0
  1 26  1  0  0  0  0
  2 27  1  0  0  0  0
  3 28  1  0  0  0  0
  4 29  1  0  0  0  0
  5 30  1  0  0  0  0
  6 31  1  0  0  0  0
  7 32  1  0  0  0  0
  8 33  1  0  0  0  0
 14 34  1  0  0  0  0
 14 35  1  0  0  0  0
 15 36  1  0  0  0  0
 15 37  1  0  0  0  0
 16 38  1  0  0  0  0
 16 39  1  0  0  0  0
 17 40  1  0  0  0  0
 17 41  1  0  0  0  0
 18 42  1  0  0  0  0
 18 43  1  0  0  0  0
 18 44  1  0  0  0  0
 19 45  1  0  0  0  0
 19 46  1  0  0  0  0
 19 47  1  0  0  0  0
 20 48  1  0  0  0  0
 20 49  1  0  0  0  0
 21 50  1  0  0  0  0
 23 51  1  0  0  0  0
M  CHG  1  23   1
M  END
> <Chemgauss4>
-9.151862

> <ref_pdb>
x1418_0

> <CYS145-warhead min dist (A)>
2.902326

> <CYS145-warhead avg dist (A)>
3.3641837

> <CYS145-warhead avg dist stderr (A)>
0.0055906256

> <original SMILES>
Cc1ccc(cc1)[C@H](c2cccc(c2)C)[NH+]3CCN(CC3)C(=O)CCl

$$$$
DAR-DIA-fb2-6
  -OEChem-04232002263D

 42 44  0     0  0  0  0  0  0999 V2000
    9.2987    0.6719   26.9959 C   0  0  0  0  0  0  0  0  0  0  0  0
   14.0678    0.6810   23.1207 C   0  0  0  0  0  0  0  0  0  0  0  0
   13.6304   -0.3726   22.3235 C   0  0  0  0  0  0  0  0  0  0  0  0
   13.2992    1.1012   24.2066 C   0  0  0  0  0  0  0  0  0  0  0  0
   12.4227   -1.0100   22.6091 C   0  0  0  0  0  0  0  0  0  0  0  0
   11.2947    0.8808   25.5979 C   0  0  0  0  0  0  0  0  0  0  0  0
    9.6495   -0.8101   25.0863 C   0  0  0  0  0  0  0  0  0  0  0  0
   10.0869    0.2435   25.8835 C   0  0  0  0  0  0  0  0  0  0  0  0
   12.0811    0.4711   24.5089 C   0  0  0  0  0  0  0  0  0  0  0  0
   11.6362   -0.6003   23.6981 C   0  0  0  0  0  0  0  0  0  0  0  0
   10.4180   -1.2303   24.0004 C   0  0  0  0  0  0  0  0  0  0  0  0
    6.0798   -1.7201   19.2132 C   0  0  0  0  0  0  0  0  0  0  0  0
    6.6169   -2.9477   21.2931 C   0  0  0  0  0  0  0  0  0  0  0  0
    7.1833   -0.5518   21.1843 C   0  0  0  0  0  0  0  0  0  0  0  0
    8.0114   -3.2751   21.8067 C   0  0  0  0  0  0  0  0  0  0  0  0
    8.5867   -0.8431   21.6984 C   0  0  0  0  0  0  0  0  0  0  0  0
    9.8891   -2.3716   23.1827 C   0  0  0  0  0  0  0  0  0  0  0  0
    6.1310   -0.4158   18.4584 C   0  0  0  0  0  0  0  0  0  0  0  0
    8.6586    1.0199   27.8992 N   0  0  0  0  0  0  0  0  0  0  0  0
    6.6248   -1.7207   20.4964 N   0  0  0  0  0  0  0  0  0  0  0  0
    8.5501   -2.0823   22.5646 N   0  3  0  0  0  0  0  0  0  0  0  0
    5.5726   -2.7081   18.6759 O   0  0  0  0  0  0  0  0  0  0  0  0
    4.6306    0.4322   18.8155 Cl  0  0  0  0  0  0  0  0  0  0  0  0
   15.0081    1.1769   22.8975 H   0  0  0  0  0  0  0  0  0  0  0  0
   14.2297   -0.6986   21.4785 H   0  0  0  0  0  0  0  0  0  0  0  0
   13.6610    1.9272   24.8154 H   0  0  0  0  0  0  0  0  0  0  0  0
   12.1153   -1.8289   21.9627 H   0  0  0  0  0  0  0  0  0  0  0  0
   11.6312    1.7049   26.2258 H   0  0  0  0  0  0  0  0  0  0  0  0
    8.7085   -1.3099   25.3081 H   0  0  0  0  0  0  0  0  0  0  0  0
    6.2368   -3.7895   20.7059 H   0  0  0  0  0  0  0  0  0  0  0  0
    5.9220   -2.7940   22.1276 H   0  0  0  0  0  0  0  0  0  0  0  0
    6.5101   -0.3115   22.0161 H   0  0  0  0  0  0  0  0  0  0  0  0
    7.2154    0.3255   20.5359 H   0  0  0  0  0  0  0  0  0  0  0  0
    7.9782   -4.1176   22.5051 H   0  0  0  0  0  0  0  0  0  0  0  0
    8.7080   -3.4985   20.9909 H   0  0  0  0  0  0  0  0  0  0  0  0
    9.2938   -1.0243   20.8812 H   0  0  0  0  0  0  0  0  0  0  0  0
    8.9476   -0.0194   22.3229 H   0  0  0  0  0  0  0  0  0  0  0  0
   10.5688   -2.6175   22.3598 H   0  0  0  0  0  0  0  0  0  0  0  0
    9.7655   -3.2721   23.7938 H   0  0  0  0  0  0  0  0  0  0  0  0
    6.1960   -0.6262   17.3970 H   0  0  0  0  0  0  0  0  0  0  0  0
    6.9780    0.1613   18.8113 H   0  0  0  0  0  0  0  0  0  0  0  0
    7.9031   -1.8940   23.3427 H   0  0  0  0  0  0  0  0  0  0  0  0
  1  8  1  0  0  0  0
  1 19  3  0  0  0  0
  2  3  1  0  0  0  0
  2  4  2  0  0  0  0
  3  5  2  0  0  0  0
  4  9  1  0  0  0  0
  5 10  1  0  0  0  0
  6  8  2  0  0  0  0
  6  9  1  0  0  0  0
  7  8  1  0  0  0  0
  7 11  2  0  0  0  0
  9 10  2  0  0  0  0
 10 11  1  0  0  0  0
 11 17  1  0  0  0  0
 12 18  1  0  0  0  0
 12 20  1  0  0  0  0
 12 22  2  0  0  0  0
 13 15  1  0  0  0  0
 13 20  1  0  0  0  0
 14 16  1  0  0  0  0
 14 20  1  0  0  0  0
 15 21  1  0  0  0  0
 16 21  1  0  0  0  0
 17 21  1  0  0  0  0
 18 23  1  0  0  0  0
  2 24  1  0  0  0  0
  3 25  1  0  0  0  0
  4 26  1  0  0  0  0
  5 27  1  0  0  0  0
  6 28  1  0  0  0  0
  7 29  1  0  0  0  0
 13 30  1  0  0  0  0
 13 31  1  0  0  0  0
 14 32  1  0  0  0  0
 14 33  1  0  0  0  0
 15 34  1  0  0  0  0
 15 35  1  0  0  0  0
 16 36  1  0  0  0  0
 16 37  1  0  0  0  0
 17 38  1  0  0  0  0
 17 39  1  0  0  0  0
 18 40  1  0  0  0  0
 18 41  1  0  0  0  0
 21 42  1  0  0  0  0
M  CHG  1  21   1
M  END
> <Chemgauss4>
-9.113701

> <ref_pdb>
x0830_0

> <CYS145-warhead min dist (A)>
2.9579248

> <CYS145-warhead avg dist (A)>
3.3860252

> <CYS145-warhead avg dist stderr (A)>
0.013142999

> <original SMILES>
c1ccc2c(c1)cc(cc2C[NH+]3CCN(CC3)C(=O)CCl)C#N

$$$$
JOO-IND-637-4
  -OEChem-04232002263D

 42 44  0     0  0  0  0  0  0999 V2000
   13.7029    1.1635   23.3480 C   0  0  0  0  0  0  0  0  0  0  0  0
   13.3535    0.1325   22.4809 C   0  0  0  0  0  0  0  0  0  0  0  0
    9.6500    0.3733   25.9211 C   0  0  0  0  0  0  0  0  0  0  0  0
   12.8723    1.4848   24.4219 C   0  0  0  0  0  0  0  0  0  0  0  0
   12.1721   -0.5811   22.6843 C   0  0  0  0  0  0  0  0  0  0  0  0
   10.8314    1.0868   25.7177 C   0  0  0  0  0  0  0  0  0  0  0  0
    9.3005   -0.6577   25.0540 C   0  0  0  0  0  0  0  0  0  0  0  0
   11.6794    0.7771   24.6419 C   0  0  0  0  0  0  0  0  0  0  0  0
   11.3240   -0.2713   23.7601 C   0  0  0  0  0  0  0  0  0  0  0  0
   10.1311   -0.9790   23.9800 C   0  0  0  0  0  0  0  0  0  0  0  0
    4.7228    0.5759   18.5077 C   0  0  0  0  0  0  0  0  0  0  0  0
    5.8326   -0.1491   18.3525 C   0  0  0  0  0  0  0  0  0  0  0  0
    5.9335   -1.4539   19.0366 C   0  0  0  0  0  0  0  0  0  0  0  0
    6.9725   -0.3147   21.0728 C   0  0  0  0  0  0  0  0  0  0  0  0
    6.5269   -2.7415   21.0518 C   0  0  0  0  0  0  0  0  0  0  0  0
    8.3695   -0.5689   21.6268 C   0  0  0  0  0  0  0  0  0  0  0  0
    7.9218   -3.0219   21.5881 C   0  0  0  0  0  0  0  0  0  0  0  0
    9.6948   -2.1009   23.0845 C   0  0  0  0  0  0  0  0  0  0  0  0
    6.4765   -1.4747   20.3190 N   0  0  0  0  0  0  0  0  0  0  0  0
    8.3665   -1.8482   22.4286 N   0  3  0  0  0  0  0  0  0  0  0  0
    5.5259   -2.4469   18.4313 O   0  0  0  0  0  0  0  0  0  0  0  0
   14.6228    1.7187   23.1889 H   0  0  0  0  0  0  0  0  0  0  0  0
   14.0008   -0.1169   21.6451 H   0  0  0  0  0  0  0  0  0  0  0  0
    9.0029    0.6230   26.7569 H   0  0  0  0  0  0  0  0  0  0  0  0
   13.1654    2.2944   25.0870 H   0  0  0  0  0  0  0  0  0  0  0  0
   11.9339   -1.3794   21.9853 H   0  0  0  0  0  0  0  0  0  0  0  0
   11.0846    1.8888   26.4081 H   0  0  0  0  0  0  0  0  0  0  0  0
    8.3774   -1.2063   25.2231 H   0  0  0  0  0  0  0  0  0  0  0  0
    4.5901    1.5414   18.0310 H   0  0  0  0  0  0  0  0  0  0  0  0
    3.9131    0.2057   19.1275 H   0  0  0  0  0  0  0  0  0  0  0  0
    6.6611    0.1861   17.7424 H   0  0  0  0  0  0  0  0  0  0  0  0
    6.2611   -0.1249   21.8852 H   0  0  0  0  0  0  0  0  0  0  0  0
    7.0136    0.5833   20.4552 H   0  0  0  0  0  0  0  0  0  0  0  0
    6.2065   -3.5725   20.4155 H   0  0  0  0  0  0  0  0  0  0  0  0
    5.8046   -2.6708   21.8743 H   0  0  0  0  0  0  0  0  0  0  0  0
    9.1126   -0.6740   20.8282 H   0  0  0  0  0  0  0  0  0  0  0  0
    8.6683    0.2394   22.3022 H   0  0  0  0  0  0  0  0  0  0  0  0
    7.9161   -3.9044   22.2360 H   0  0  0  0  0  0  0  0  0  0  0  0
    8.6534   -3.1594   20.7840 H   0  0  0  0  0  0  0  0  0  0  0  0
   10.4170   -2.2675   22.2781 H   0  0  0  0  0  0  0  0  0  0  0  0
    9.5965   -3.0378   23.6434 H   0  0  0  0  0  0  0  0  0  0  0  0
    7.6812   -1.7347   23.1883 H   0  0  0  0  0  0  0  0  0  0  0  0
  1  2  1  0  0  0  0
  1  4  2  0  0  0  0
  2  5  2  0  0  0  0
  3  6  1  0  0  0  0
  3  7  2  0  0  0  0
  4  8  1  0  0  0  0
  5  9  1  0  0  0  0
  6  8  2  0  0  0  0
  7 10  1  0  0  0  0
  8  9  1  0  0  0  0
  9 10  2  0  0  0  0
 10 18  1  0  0  0  0
 11 12  2  0  0  0  0
 12 13  1  0  0  0  0
 13 19  1  0  0  0  0
 13 21  2  0  0  0  0
 14 16  1  0  0  0  0
 14 19  1  0  0  0  0
 15 17  1  0  0  0  0
 15 19  1  0  0  0  0
 16 20  1  0  0  0  0
 17 20  1  0  0  0  0
 18 20  1  0  0  0  0
  1 22  1  0  0  0  0
  2 23  1  0  0  0  0
  3 24  1  0  0  0  0
  4 25  1  0  0  0  0
  5 26  1  0  0  0  0
  6 27  1  0  0  0  0
  7 28  1  0  0  0  0
 11 29  1  0  0  0  0
 11 30  1  0  0  0  0
 12 31  1  0  0  0  0
 14 32  1  0  0  0  0
 14 33  1  0  0  0  0
 15 34  1  0  0  0  0
 15 35  1  0  0  0  0
 16 36  1  0  0  0  0
 16 37  1  0  0  0  0
 17 38  1  0  0  0  0
 17 39  1  0  0  0  0
 18 40  1  0  0  0  0
 18 41  1  0  0  0  0
 20 42  1  0  0  0  0
M  CHG  1  20   1
M  END
> <Chemgauss4>
-8.969607

> <ref_pdb>
x0830_0

> <CYS145-warhead min dist (A)>
6.0544205

> <CYS145-warhead avg dist (A)>
7.5362926

> <CYS145-warhead avg dist stderr (A)>
0.03610612

> <original SMILES>
C=CC(=O)N1CC[NH+](CC1)Cc2cccc3c2cccc3

$$$$
JOO-IND-637-6
  -OEChem-04232002263D

 41 43  0     1  0  0  0  0  0999 V2000
   12.6677    1.7467   24.2805 C   0  0  0  0  0  0  0  0  0  0  0  0
   11.5467    1.3595   25.0088 C   0  0  0  0  0  0  0  0  0  0  0  0
   12.2041   -2.1976   21.4698 C   0  0  0  0  0  0  0  0  0  0  0  0
   13.1152    0.9620   23.2173 C   0  0  0  0  0  0  0  0  0  0  0  0
   10.8690    0.1861   24.6766 C   0  0  0  0  0  0  0  0  0  0  0  0
   12.8818   -1.0242   21.8019 C   0  0  0  0  0  0  0  0  0  0  0  0
   11.0832   -2.5848   22.1981 C   0  0  0  0  0  0  0  0  0  0  0  0
   12.4453   -0.2222   22.8690 C   0  0  0  0  0  0  0  0  0  0  0  0
   11.3054   -0.6160   23.6096 C   0  0  0  0  0  0  0  0  0  0  0  0
   10.6356   -1.8002   23.2613 C   0  0  0  0  0  0  0  0  0  0  0  0
    6.0922   -1.4553   19.6525 C   0  0  0  0  0  0  0  0  0  0  0  0
    6.5389   -2.9371   21.5828 C   0  0  0  0  0  0  0  0  0  0  0  0
    6.7495   -0.5048   21.9180 C   0  0  0  0  0  0  0  0  0  0  0  0
    7.8901   -3.1660   22.2441 C   0  0  0  0  0  0  0  0  0  0  0  0
    8.1040   -0.6974   22.5865 C   0  0  0  0  0  0  0  0  0  0  0  0
    9.4216   -2.2755   24.0039 C   0  0  0  0  0  0  0  0  0  0  0  0
    6.0430   -0.0467   19.1167 C   0  0  2  0  0  0  0  0  0  0  0  0
    6.4640   -1.6026   20.9881 N   0  0  0  0  0  0  0  0  0  0  0  0
    8.1438   -2.0592   23.2431 N   0  3  0  0  0  0  0  0  0  0  0  0
    5.8110   -2.3951   18.9044 O   0  0  0  0  0  0  0  0  0  0  0  0
    5.1303    0.0475   18.1282 F   0  0  0  0  0  0  0  0  0  0  0  0
    7.6520    0.3195   18.5060 Cl  0  0  0  0  0  0  0  0  0  0  0  0
   13.1948    2.6602   24.5396 H   0  0  0  0  0  0  0  0  0  0  0  0
   11.1990    1.9710   25.8363 H   0  0  0  0  0  0  0  0  0  0  0  0
   12.5522   -2.8090   20.6423 H   0  0  0  0  0  0  0  0  0  0  0  0
   13.9936    1.2840   22.6619 H   0  0  0  0  0  0  0  0  0  0  0  0
    9.9976   -0.0825   25.2693 H   0  0  0  0  0  0  0  0  0  0  0  0
   13.7557   -0.7410   21.2188 H   0  0  0  0  0  0  0  0  0  0  0  0
   10.5637   -3.5011   21.9296 H   0  0  0  0  0  0  0  0  0  0  0  0
    6.3666   -3.7094   20.8266 H   0  0  0  0  0  0  0  0  0  0  0  0
    5.7286   -3.0160   22.3178 H   0  0  0  0  0  0  0  0  0  0  0  0
    5.9479   -0.4959   22.6665 H   0  0  0  0  0  0  0  0  0  0  0  0
    6.7318    0.4660   21.4198 H   0  0  0  0  0  0  0  0  0  0  0  0
    7.8951   -4.1114   22.7962 H   0  0  0  0  0  0  0  0  0  0  0  0
    8.7102   -3.1582   21.5173 H   0  0  0  0  0  0  0  0  0  0  0  0
    8.9281   -0.6467   21.8661 H   0  0  0  0  0  0  0  0  0  0  0  0
    8.2554    0.0485   23.3735 H   0  0  0  0  0  0  0  0  0  0  0  0
    9.4828   -3.3480   24.2174 H   0  0  0  0  0  0  0  0  0  0  0  0
    9.3117   -1.7508   24.9591 H   0  0  0  0  0  0  0  0  0  0  0  0
    5.7876    0.6283   19.9264 H   0  0  0  0  0  0  0  0  0  0  0  0
    7.3824   -2.0886   23.9353 H   0  0  0  0  0  0  0  0  0  0  0  0
  1  2  1  0  0  0  0
  1  4  2  0  0  0  0
  2  5  2  0  0  0  0
  3  6  1  0  0  0  0
  3  7  2  0  0  0  0
  4  8  1  0  0  0  0
  5  9  1  0  0  0  0
  6  8  2  0  0  0  0
  7 10  1  0  0  0  0
  8  9  1  0  0  0  0
  9 10  2  0  0  0  0
 10 16  1  0  0  0  0
 11 17  1  0  0  0  0
 11 18  1  0  0  0  0
 11 20  2  0  0  0  0
 12 14  1  0  0  0  0
 12 18  1  0  0  0  0
 13 15  1  0  0  0  0
 13 18  1  0  0  0  0
 14 19  1  0  0  0  0
 15 19  1  0  0  0  0
 16 19  1  0  0  0  0
 17 21  1  0  0  0  0
 17 22  1  0  0  0  0
  1 23  1  0  0  0  0
  2 24  1  0  0  0  0
  3 25  1  0  0  0  0
  4 26  1  0  0  0  0
  5 27  1  0  0  0  0
  6 28  1  0  0  0  0
  7 29  1  0  0  0  0
 12 30  1  0  0  0  0
 12 31  1  0  0  0  0
 13 32  1  0  0  0  0
 13 33  1  0  0  0  0
 14 34  1  0  0  0  0
 14 35  1  0  0  0  0
 15 36  1  0  0  0  0
 15 37  1  0  0  0  0
 16 38  1  0  0  0  0
 16 39  1  0  0  0  0
 17 40  1  0  0  0  0
 19 41  1  0  0  0  0
M  CHG  1  19   1
M  END
> <Chemgauss4>
-8.852622

> <ref_pdb>
x0831_0

> <original SMILES>
c1ccc2c(c1)cccc2C[NH+]3CCN(CC3)C(=O)[C@H](F)Cl

$$$$
NIR-THE-c33-6
  -OEChem-04232002263D

 39 41  0     1  0  0  0  0  0999 V2000
    8.0921   -4.9025   25.0353 C   0  0  0  0  0  0  0  0  0  0  0  0
    8.7887   -3.8284   25.5775 C   0  0  0  0  0  0  0  0  0  0  0  0
   11.5691    1.1754   23.4958 C   0  0  0  0  0  0  0  0  0  0  0  0
    7.6401   -4.8419   23.7189 C   0  0  0  0  0  0  0  0  0  0  0  0
    9.0487   -2.7001   24.7989 C   0  0  0  0  0  0  0  0  0  0  0  0
   10.3262    0.5769   23.2898 C   0  0  0  0  0  0  0  0  0  0  0  0
   12.7389    0.4559   23.2513 C   0  0  0  0  0  0  0  0  0  0  0  0
   11.4227   -1.4608   22.5948 C   0  0  0  0  0  0  0  0  0  0  0  0
   10.2530   -0.7412   22.8393 C   0  0  0  0  0  0  0  0  0  0  0  0
    7.8860   -3.7081   22.9274 C   0  0  0  0  0  0  0  0  0  0  0  0
    8.6315   -2.6353   23.4575 C   0  0  0  0  0  0  0  0  0  0  0  0
   12.6656   -0.8622   22.8008 C   0  0  0  0  0  0  0  0  0  0  0  0
    6.5277   -1.8403   19.9786 C   0  0  0  0  0  0  0  0  0  0  0  0
    7.3417   -3.6853   21.5189 C   0  0  0  0  0  0  0  0  0  0  0  0
    8.7178   -1.6800   21.1117 C   0  0  0  0  0  0  0  0  0  0  0  0
    8.8960   -1.3932   22.6132 C   0  0  2  0  0  0  0  0  0  0  0  0
   13.9165   -1.6317   22.5400 C   0  0  0  0  0  0  0  0  0  0  0  0
    6.8436   -0.4771   19.4155 C   0  0  0  0  0  0  0  0  0  0  0  0
    7.4593   -2.3776   20.8674 N   0  0  0  0  0  0  0  0  0  0  0  0
    5.4882   -2.4092   19.6357 O   0  0  0  0  0  0  0  0  0  0  0  0
    5.5327   -0.0721   18.3135 Cl  0  0  0  0  0  0  0  0  0  0  0  0
    7.9013   -5.7865   25.6356 H   0  0  0  0  0  0  0  0  0  0  0  0
    9.1302   -3.8653   26.6083 H   0  0  0  0  0  0  0  0  0  0  0  0
   11.6261    2.2019   23.8465 H   0  0  0  0  0  0  0  0  0  0  0  0
    7.0938   -5.6868   23.3053 H   0  0  0  0  0  0  0  0  0  0  0  0
    9.5814   -1.8617   25.2462 H   0  0  0  0  0  0  0  0  0  0  0  0
    9.4201    1.1455   23.4825 H   0  0  0  0  0  0  0  0  0  0  0  0
   13.7029    0.9301   23.4153 H   0  0  0  0  0  0  0  0  0  0  0  0
   11.3662   -2.4881   22.2426 H   0  0  0  0  0  0  0  0  0  0  0  0
    7.8640   -4.4408   20.9316 H   0  0  0  0  0  0  0  0  0  0  0  0
    6.2766   -3.9309   21.5421 H   0  0  0  0  0  0  0  0  0  0  0  0
    8.6678   -0.7400   20.5540 H   0  0  0  0  0  0  0  0  0  0  0  0
    9.5654   -2.2470   20.7224 H   0  0  0  0  0  0  0  0  0  0  0  0
    8.1325   -0.6202   22.8754 H   0  0  0  0  0  0  0  0  0  0  0  0
   14.2350   -2.1611   23.4463 H   0  0  0  0  0  0  0  0  0  0  0  0
   13.7713   -2.3684   21.7394 H   0  0  0  0  0  0  0  0  0  0  0  0
   14.7314   -0.9700   22.2188 H   0  0  0  0  0  0  0  0  0  0  0  0
    7.7817   -0.5298   18.8754 H   0  0  0  0  0  0  0  0  0  0  0  0
    6.8813    0.2379   20.2290 H   0  0  0  0  0  0  0  0  0  0  0  0
  1  2  1  0  0  0  0
  1  4  2  0  0  0  0
  2  5  2  0  0  0  0
  3  6  1  0  0  0  0
  3  7  2  0  0  0  0
  4 10  1  0  0  0  0
  5 11  1  0  0  0  0
  6  9  2  0  0  0  0
  7 12  1  0  0  0  0
  8  9  1  0  0  0  0
  8 12  2  0  0  0  0
  9 16  1  0  0  0  0
 10 11  2  0  0  0  0
 10 14  1  0  0  0  0
 11 16  1  0  0  0  0
 12 17  1  0  0  0  0
 13 18  1  0  0  0  0
 13 19  1  0  0  0  0
 13 20  2  0  0  0  0
 14 19  1  0  0  0  0
 15 16  1  0  0  0  0
 15 19  1  0  0  0  0
 18 21  1  0  0  0  0
  1 22  1  0  0  0  0
  2 23  1  0  0  0  0
  3 24  1  0  0  0  0
  4 25  1  0  0  0  0
  5 26  1  0  0  0  0
  6 27  1  0  0  0  0
  7 28  1  0  0  0  0
  8 29  1  0  0  0  0
 14 30  1  0  0  0  0
 14 31  1  0  0  0  0
 15 32  1  0  0  0  0
 15 33  1  0  0  0  0
 16 34  1  0  0  0  0
 17 35  1  0  0  0  0
 17 36  1  0  0  0  0
 17 37  1  0  0  0  0
 18 38  1  0  0  0  0
 18 39  1  0  0  0  0
M  END
> <Chemgauss4>
-8.850731

> <ref_pdb>
x0708_0

> <CYS145-warhead min dist (A)>
6.090257

> <CYS145-warhead avg dist (A)>
8.302971

> <CYS145-warhead avg dist stderr (A)>
0.13446277

> <original SMILES>
Cc1cccc(c1)[C@H]2CN(Cc3c2cccc3)C(=O)CCl

$$$$
BEN-DND-031-8
  -OEChem-04232002263D

 29 30  0     0  0  0  0  0  0999 V2000
   13.6361   -1.1121   25.5059 C   0  0  0  0  0  0  0  0  0  0  0  0
   13.5638   -0.5157   24.2471 C   0  0  0  0  0  0  0  0  0  0  0  0
   12.6207   -1.9687   25.9312 C   0  0  0  0  0  0  0  0  0  0  0  0
    7.0377   -6.2939   21.8280 C   0  0  0  0  0  0  0  0  0  0  0  0
    7.8648   -5.2107   22.1036 C   0  0  0  0  0  0  0  0  0  0  0  0
   12.4760   -0.7758   23.4136 C   0  0  0  0  0  0  0  0  0  0  0  0
   11.5328   -2.2287   25.0978 C   0  0  0  0  0  0  0  0  0  0  0  0
    5.7851   -6.0345   21.2957 C   0  0  0  0  0  0  0  0  0  0  0  0
    6.1505   -3.7663   21.3092 C   0  0  0  0  0  0  0  0  0  0  0  0
    7.4202   -3.9195   21.8423 C   0  0  0  0  0  0  0  0  0  0  0  0
   11.4605   -1.6323   23.8389 C   0  0  0  0  0  0  0  0  0  0  0  0
    8.1546   -1.6395   21.3771 C   0  0  0  0  0  0  0  0  0  0  0  0
    8.2735   -2.7495   22.1242 C   0  0  0  0  0  0  0  0  0  0  0  0
    9.2573   -2.7022   23.2635 C   0  0  0  0  0  0  0  0  0  0  0  0
    5.3184   -4.7942   21.0283 N   0  0  0  0  0  0  0  0  0  0  0  0
   10.3726   -1.8923   23.0050 N   0  0  0  0  0  0  0  0  0  0  0  0
    9.0372   -3.3252   24.2981 O   0  0  0  0  0  0  0  0  0  0  0  0
   14.4834   -0.9105   26.1548 H   0  0  0  0  0  0  0  0  0  0  0  0
   14.3546    0.1505   23.9152 H   0  0  0  0  0  0  0  0  0  0  0  0
   12.6778   -2.4337   26.9112 H   0  0  0  0  0  0  0  0  0  0  0  0
    7.3633   -7.3091   22.0233 H   0  0  0  0  0  0  0  0  0  0  0  0
    8.8524   -5.3881   22.5218 H   0  0  0  0  0  0  0  0  0  0  0  0
   12.4304   -0.3053   22.4345 H   0  0  0  0  0  0  0  0  0  0  0  0
   10.7474   -2.8980   25.4399 H   0  0  0  0  0  0  0  0  0  0  0  0
    5.1023   -6.8452   21.0640 H   0  0  0  0  0  0  0  0  0  0  0  0
    5.7444   -2.7846   21.0823 H   0  0  0  0  0  0  0  0  0  0  0  0
    8.7549   -0.7531   21.5561 H   0  0  0  0  0  0  0  0  0  0  0  0
    7.4491   -1.5793   20.5533 H   0  0  0  0  0  0  0  0  0  0  0  0
   10.3885   -1.4182   22.0949 H   0  0  0  0  0  0  0  0  0  0  0  0
  1  2  1  0  0  0  0
  1  3  2  0  0  0  0
  2  6  2  0  0  0  0
  3  7  1  0  0  0  0
  4  5  2  0  0  0  0
  4  8  1  0  0  0  0
  5 10  1  0  0  0  0
  6 11  1  0  0  0  0
  7 11  2  0  0  0  0
  8 15  2  0  0  0  0
  9 10  2  0  0  0  0
  9 15  1  0  0  0  0
 10 13  1  0  0  0  0
 11 16  1  0  0  0  0
 12 13  2  0  0  0  0
 13 14  1  0  0  0  0
 14 16  1  0  0  0  0
 14 17  2  0  0  0  0
  1 18  1  0  0  0  0
  2 19  1  0  0  0  0
  3 20  1  0  0  0  0
  4 21  1  0  0  0  0
  5 22  1  0  0  0  0
  6 23  1  0  0  0  0
  7 24  1  0  0  0  0
  8 25  1  0  0  0  0
  9 26  1  0  0  0  0
 12 27  1  0  0  0  0
 12 28  1  0  0  0  0
 16 29  1  0  0  0  0
M  END
> <Chemgauss4>
-8.850639

> <ref_pdb>
x0749_0

> <original SMILES>
C=C(c1cccnc1)C(=O)Nc2ccccc2

$$$$
JOH-UNI-27a-34_thio_pH
  -OEChem-04232002263D

 41 43  0     1  0  0  0  0  0999 V2000
   12.0419   -1.8098   22.1726 C   0  0  0  0  0  0  0  0  0  0  0  0
   10.9469   -2.4137   22.7906 C   0  0  0  0  0  0  0  0  0  0  0  0
   12.4146   -0.5129   22.5260 C   0  0  0  0  0  0  0  0  0  0  0  0
   10.5973   -0.4238   24.1155 C   0  0  0  0  0  0  0  0  0  0  0  0
   10.2246   -1.7207   23.7620 C   0  0  0  0  0  0  0  0  0  0  0  0
   11.6923    0.1801   23.4974 C   0  0  0  0  0  0  0  0  0  0  0  0
    7.7409   -0.2175   19.1108 C   0  0  0  0  0  0  0  0  0  0  0  0
    6.4459   -0.5402   19.1210 C   0  0  0  0  0  0  0  0  0  0  0  0
    6.0269   -1.7874   19.7914 C   0  0  0  0  0  0  0  0  0  0  0  0
    8.6367   -2.0102   25.9177 C   0  0  0  0  0  0  0  0  0  0  0  0
    6.3937   -0.8264   22.1293 C   0  0  0  0  0  0  0  0  0  0  0  0
    6.4694   -3.2583   21.7181 C   0  0  0  0  0  0  0  0  0  0  0  0
    7.6783   -0.9173   22.9445 C   0  0  0  0  0  0  0  0  0  0  0  0
    7.7608   -3.3720   22.5126 C   0  0  0  0  0  0  0  0  0  0  0  0
    8.7230   -3.5017   26.2130 C   0  0  0  0  0  0  0  0  0  0  0  0
    8.9813   -2.4072   24.4646 C   0  0  1  0  0  0  0  0  0  0  0  0
    6.3029   -1.9187   21.1502 N   0  0  0  0  0  0  0  0  0  0  0  0
    7.7827   -2.2894   23.5658 N   0  3  0  0  0  0  0  0  0  0  0  0
    5.4531   -2.6364   19.1070 O   0  0  0  0  0  0  0  0  0  0  0  0
    9.2024   -3.7861   24.8810 O   0  0  0  0  0  0  0  0  0  0  0  0
   12.1523    1.7802   23.9331 Cl  0  0  0  0  0  0  0  0  0  0  0  0
   12.6040   -2.3495   21.4161 H   0  0  0  0  0  0  0  0  0  0  0  0
   10.6629   -3.4245   22.5099 H   0  0  0  0  0  0  0  0  0  0  0  0
   13.2700   -0.0553   22.0360 H   0  0  0  0  0  0  0  0  0  0  0  0
   10.0298    0.1110   24.8735 H   0  0  0  0  0  0  0  0  0  0  0  0
    8.1095    0.6849   18.6347 H   0  0  0  0  0  0  0  0  0  0  0  0
    8.4671   -0.8660   19.5895 H   0  0  0  0  0  0  0  0  0  0  0  0
    5.6921    0.0808   18.6550 H   0  0  0  0  0  0  0  0  0  0  0  0
    7.6508   -1.5659   26.0825 H   0  0  0  0  0  0  0  0  0  0  0  0
    9.3932   -1.4067   26.4287 H   0  0  0  0  0  0  0  0  0  0  0  0
    5.5145   -0.8985   22.7802 H   0  0  0  0  0  0  0  0  0  0  0  0
    6.3687    0.1524   21.6488 H   0  0  0  0  0  0  0  0  0  0  0  0
    6.4553   -4.0193   20.9313 H   0  0  0  0  0  0  0  0  0  0  0  0
    5.6029   -3.4484   22.3633 H   0  0  0  0  0  0  0  0  0  0  0  0
    8.5617   -0.7549   22.3157 H   0  0  0  0  0  0  0  0  0  0  0  0
    7.6683   -0.1881   23.7616 H   0  0  0  0  0  0  0  0  0  0  0  0
    7.8134   -4.3344   23.0323 H   0  0  0  0  0  0  0  0  0  0  0  0
    8.6412   -3.2487   21.8709 H   0  0  0  0  0  0  0  0  0  0  0  0
    9.4520   -3.7859   26.9763 H   0  0  0  0  0  0  0  0  0  0  0  0
    7.7674   -3.9977   26.4058 H   0  0  0  0  0  0  0  0  0  0  0  0
    6.9050   -2.4253   24.1678 H   0  0  0  0  0  0  0  0  0  0  0  0
  1  2  2  0  0  0  0
  1  3  1  0  0  0  0
  2  5  1  0  0  0  0
  3  6  2  0  0  0  0
  4  5  2  0  0  0  0
  4  6  1  0  0  0  0
  5 16  1  0  0  0  0
  6 21  1  0  0  0  0
  7  8  2  0  0  0  0
  8  9  1  0  0  0  0
  9 17  1  0  0  0  0
  9 19  2  0  0  0  0
 10 15  1  0  0  0  0
 10 16  1  0  0  0  0
 11 13  1  0  0  0  0
 11 17  1  0  0  0  0
 12 14  1  0  0  0  0
 12 17  1  0  0  0  0
 13 18  1  0  0  0  0
 14 18  1  0  0  0  0
 15 20  1  0  0  0  0
 16 18  1  0  0  0  0
 16 20  1  0  0  0  0
  1 22  1  0  0  0  0
  2 23  1  0  0  0  0
  3 24  1  0  0  0  0
  4 25  1  0  0  0  0
  7 26  1  0  0  0  0
  7 27  1  0  0  0  0
  8 28  1  0  0  0  0
 10 29  1  0  0  0  0
 10 30  1  0  0  0  0
 11 31  1  0  0  0  0
 11 32  1  0  0  0  0
 12 33  1  0  0  0  0
 12 34  1  0  0  0  0
 13 35  1  0  0  0  0
 13 36  1  0  0  0  0
 14 37  1  0  0  0  0
 14 38  1  0  0  0  0
 15 39  1  0  0  0  0
 15 40  1  0  0  0  0
 18 41  1  0  0  0  0
M  CHG  1  18   1
M  END
> <Chemgauss4>
-8.835967

> <ref_pdb>
x0831_0

> <CYS145-warhead min dist (A)>
6.543026

> <CYS145-warhead avg dist (A)>
7.1211967

> <CYS145-warhead avg dist stderr (A)>
0.025273094

> <original SMILES>
C=CC(=O)N1CC[NH+](CC1)[C@]2(CCO2)c3cccc(c3)Cl

$$$$
HAR-NEW-972-2
  -OEChem-04232002263D

 44 46  0     1  0  0  0  0  0999 V2000
   11.4017   -1.7485   25.0274 C   0  0  0  0  0  0  0  0  0  0  0  0
   12.0267   -2.9144   25.4221 C   0  0  0  0  0  0  0  0  0  0  0  0
    9.9322   -3.1951   24.2924 C   0  0  0  0  0  0  0  0  0  0  0  0
    6.3063   -3.2025   20.9673 C   0  0  0  0  0  0  0  0  0  0  0  0
   11.9630   -0.3975   25.3006 C   0  0  0  0  0  0  0  0  0  0  0  0
   13.3443   -2.9971   26.1160 C   0  0  0  0  0  0  0  0  0  0  0  0
   13.4521   -0.4782   25.6834 C   0  0  0  0  0  0  0  0  0  0  0  0
    7.3924   -5.8708   23.0740 C   0  0  0  0  0  0  0  0  0  0  0  0
    8.6445   -5.3119   23.7519 C   0  0  0  0  0  0  0  0  0  0  0  0
    7.2771   -5.3789   21.6339 C   0  0  0  0  0  0  0  0  0  0  0  0
    8.5428   -3.3283   22.1760 C   0  0  0  0  0  0  0  0  0  0  0  0
    8.6880   -3.7764   23.6408 C   0  0  2  0  0  0  0  0  0  0  0  0
   13.7294   -1.6143   26.6976 C   0  0  2  0  0  0  0  0  0  0  0  0
    6.4424   -1.7008   20.9525 C   0  0  0  0  0  0  0  0  0  0  0  0
   15.1940   -1.6079   27.1306 C   0  0  0  0  0  0  0  0  0  0  0  0
   10.1935   -1.9081   24.3819 N   0  0  0  0  0  0  0  0  0  0  0  0
    7.3371   -3.9171   21.5763 N   0  0  0  0  0  0  0  0  0  0  0  0
   16.0350   -1.9377   25.9621 N   0  3  0  0  0  0  0  0  0  0  0  0
    5.3120   -3.7226   20.4548 O   0  0  0  0  0  0  0  0  0  0  0  0
   11.0966   -4.2653   24.9684 S   0  0  0  0  0  0  0  0  0  0  0  0
    5.6452   -1.1083   22.4056 Cl  0  0  0  0  0  0  0  0  0  0  0  0
   11.8420    0.2497   24.4251 H   0  0  0  0  0  0  0  0  0  0  0  0
   11.3993    0.0553   26.1250 H   0  0  0  0  0  0  0  0  0  0  0  0
   13.3143   -3.7387   26.9230 H   0  0  0  0  0  0  0  0  0  0  0  0
   14.1023   -3.3252   25.3935 H   0  0  0  0  0  0  0  0  0  0  0  0
   14.0499   -0.6489   24.7780 H   0  0  0  0  0  0  0  0  0  0  0  0
   13.7682    0.4875   26.0954 H   0  0  0  0  0  0  0  0  0  0  0  0
    7.4254   -6.9660   23.0886 H   0  0  0  0  0  0  0  0  0  0  0  0
    6.5014   -5.5689   23.6381 H   0  0  0  0  0  0  0  0  0  0  0  0
    8.6597   -5.6179   24.8052 H   0  0  0  0  0  0  0  0  0  0  0  0
    9.5360   -5.7507   23.2841 H   0  0  0  0  0  0  0  0  0  0  0  0
    8.1056   -5.7654   21.0285 H   0  0  0  0  0  0  0  0  0  0  0  0
    6.3477   -5.7499   21.1907 H   0  0  0  0  0  0  0  0  0  0  0  0
    8.5339   -2.2373   22.1194 H   0  0  0  0  0  0  0  0  0  0  0  0
    9.3974   -3.6673   21.5758 H   0  0  0  0  0  0  0  0  0  0  0  0
    7.8190   -3.3665   24.2104 H   0  0  0  0  0  0  0  0  0  0  0  0
   13.1124   -1.4287   27.5879 H   0  0  0  0  0  0  0  0  0  0  0  0
    5.9461   -1.3116   20.0708 H   0  0  0  0  0  0  0  0  0  0  0  0
    7.4950   -1.4431   20.9738 H   0  0  0  0  0  0  0  0  0  0  0  0
   15.3786   -2.3611   27.8941 H   0  0  0  0  0  0  0  0  0  0  0  0
   15.4918   -0.6228   27.4848 H   0  0  0  0  0  0  0  0  0  0  0  0
   15.4898   -1.9144   25.0910 H   0  0  0  0  0  0  0  0  0  0  0  0
   16.4416   -2.8780   26.0489 H   0  0  0  0  0  0  0  0  0  0  0  0
   16.8113   -1.2715   25.8608 H   0  0  0  0  0  0  0  0  0  0  0  0
  1  2  2  0  0  0  0
  1  5  1  0  0  0  0
  1 16  1  0  0  0  0
  2  6  1  0  0  0  0
  2 20  1  0  0  0  0
  3 12  1  0  0  0  0
  3 16  2  0  0  0  0
  3 20  1  0  0  0  0
  4 14  1  0  0  0  0
  4 17  1  0  0  0  0
  4 19  2  0  0  0  0
  5  7  1  0  0  0  0
  6 13  1  0  0  0  0
  7 13  1  0  0  0  0
  8  9  1  0  0  0  0
  8 10  1  0  0  0  0
  9 12  1  0  0  0  0
 10 17  1  0  0  0  0
 11 12  1  0  0  0  0
 11 17  1  0  0  0  0
 13 15  1  0  0  0  0
 14 21  1  0  0  0  0
 15 18  1  0  0  0  0
  5 22  1  0  0  0  0
  5 23  1  0  0  0  0
  6 24  1  0  0  0  0
  6 25  1  0  0  0  0
  7 26  1  0  0  0  0
  7 27  1  0  0  0  0
  8 28  1  0  0  0  0
  8 29  1  0  0  0  0
  9 30  1  0  0  0  0
  9 31  1  0  0  0  0
 10 32  1  0  0  0  0
 10 33  1  0  0  0  0
 11 34  1  0  0  0  0
 11 35  1  0  0  0  0
 12 36  1  0  0  0  0
 13 37  1  0  0  0  0
 14 38  1  0  0  0  0
 14 39  1  0  0  0  0
 15 40  1  0  0  0  0
 15 41  1  0  0  0  0
 18 42  1  0  0  0  0
 18 43  1  0  0  0  0
 18 44  1  0  0  0  0
M  CHG  1  18   1
M  END
> <Chemgauss4>
-8.784029

> <ref_pdb>
x0749_0

> <CYS145-warhead min dist (A)>
7.745483

> <CYS145-warhead avg dist (A)>
8.805129

> <CYS145-warhead avg dist stderr (A)>
0.02706871

> <original SMILES>
C1C[C@H](CN(C1)C(=O)CCl)c2nc3c(s2)C[C@H](CC3)C[NH3+]

$$$$
PAU-WEI-3e8-2_thio_pH
  -OEChem-04232002263D

 45 47  0     1  0  0  0  0  0999 V2000
   10.0176   -5.1206   25.3922 C   0  0  0  0  0  0  0  0  0  0  0  0
   11.3886    0.7722   24.4378 C   0  0  0  0  0  0  0  0  0  0  0  0
   10.2713   -4.3046   24.2897 C   0  0  0  0  0  0  0  0  0  0  0  0
   10.4686   -0.2353   24.1479 C   0  0  0  0  0  0  0  0  0  0  0  0
    8.9756   -4.8089   26.2655 C   0  0  0  0  0  0  0  0  0  0  0  0
   12.6032    0.8255   23.7539 C   0  0  0  0  0  0  0  0  0  0  0  0
    8.4409   -2.8652   24.9339 C   0  0  0  0  0  0  0  0  0  0  0  0
   11.9776   -1.1363   22.4902 C   0  0  0  0  0  0  0  0  0  0  0  0
    9.4830   -3.1769   24.0606 C   0  0  0  0  0  0  0  0  0  0  0  0
   10.7631   -1.1896   23.1741 C   0  0  0  0  0  0  0  0  0  0  0  0
    8.1872   -3.6812   26.0364 C   0  0  0  0  0  0  0  0  0  0  0  0
   12.8977   -0.1288   22.7801 C   0  0  0  0  0  0  0  0  0  0  0  0
    5.9965   -1.4555   18.8811 C   0  0  0  0  0  0  0  0  0  0  0  0
    6.3210   -2.2739   21.1933 C   0  0  0  0  0  0  0  0  0  0  0  0
    7.5457   -0.2512   20.4991 C   0  0  0  0  0  0  0  0  0  0  0  0
    7.5977   -2.8773   21.7604 C   0  0  0  0  0  0  0  0  0  0  0  0
    8.8414   -0.8237   21.0578 C   0  0  0  0  0  0  0  0  0  0  0  0
    6.3620   -0.4374   17.8307 C   0  0  0  0  0  0  0  0  0  0  0  0
    9.7608   -2.2876   22.8597 C   0  0  2  0  0  0  0  0  0  0  0  0
    6.6194   -1.3241   20.1214 N   0  0  0  0  0  0  0  0  0  0  0  0
    8.5176   -1.7603   22.2002 N   0  3  0  0  0  0  0  0  0  0  0  0
    5.1837   -2.3416   18.6050 O   0  0  0  0  0  0  0  0  0  0  0  0
    6.9024   -3.2965   27.1148 Cl  0  0  0  0  0  0  0  0  0  0  0  0
   14.3968   -0.0632   21.9375 Cl  0  0  0  0  0  0  0  0  0  0  0  0
    5.4641   -0.8668   16.3790 Cl  0  0  0  0  0  0  0  0  0  0  0  0
   10.6318   -5.9985   25.5704 H   0  0  0  0  0  0  0  0  0  0  0  0
   11.1590    1.5151   25.1963 H   0  0  0  0  0  0  0  0  0  0  0  0
   11.0854   -4.5550   23.6146 H   0  0  0  0  0  0  0  0  0  0  0  0
    9.5247   -0.2691   24.6859 H   0  0  0  0  0  0  0  0  0  0  0  0
    8.7895   -5.4537   27.1209 H   0  0  0  0  0  0  0  0  0  0  0  0
   13.3109    1.6162   23.9905 H   0  0  0  0  0  0  0  0  0  0  0  0
    7.8288   -1.9851   24.7506 H   0  0  0  0  0  0  0  0  0  0  0  0
   12.2023   -1.8824   21.7315 H   0  0  0  0  0  0  0  0  0  0  0  0
    5.6676   -3.0743   20.8320 H   0  0  0  0  0  0  0  0  0  0  0  0
    5.7697   -1.7308   21.9705 H   0  0  0  0  0  0  0  0  0  0  0  0
    7.0399    0.3648   21.2524 H   0  0  0  0  0  0  0  0  0  0  0  0
    7.7779    0.4019   19.6561 H   0  0  0  0  0  0  0  0  0  0  0  0
    7.3785   -3.4863   22.6433 H   0  0  0  0  0  0  0  0  0  0  0  0
    8.1320   -3.4811   21.0182 H   0  0  0  0  0  0  0  0  0  0  0  0
    9.3977   -1.3919   20.3039 H   0  0  0  0  0  0  0  0  0  0  0  0
    9.4741   -0.0258   21.4597 H   0  0  0  0  0  0  0  0  0  0  0  0
    7.4276   -0.4960   17.6401 H   0  0  0  0  0  0  0  0  0  0  0  0
    6.0639    0.5460   18.1757 H   0  0  0  0  0  0  0  0  0  0  0  0
   10.1800   -2.9287   22.0725 H   0  0  0  0  0  0  0  0  0  0  0  0
    8.0175   -1.2125   22.9140 H   0  0  0  0  0  0  0  0  0  0  0  0
  1  3  1  0  0  0  0
  1  5  2  0  0  0  0
  2  4  2  0  0  0  0
  2  6  1  0  0  0  0
  3  9  2  0  0  0  0
  4 10  1  0  0  0  0
  5 11  1  0  0  0  0
  6 12  2  0  0  0  0
  7  9  1  0  0  0  0
  7 11  2  0  0  0  0
  8 10  2  0  0  0  0
  8 12  1  0  0  0  0
  9 19  1  0  0  0  0
 10 19  1  0  0  0  0
 11 23  1  0  0  0  0
 12 24  1  0  0  0  0
 13 18  1  0  0  0  0
 13 20  1  0  0  0  0
 13 22  2  0  0  0  0
 14 16  1  0  0  0  0
 14 20  1  0  0  0  0
 15 17  1  0  0  0  0
 15 20  1  0  0  0  0
 16 21  1  0  0  0  0
 17 21  1  0  0  0  0
 18 25  1  0  0  0  0
 19 21  1  0  0  0  0
  1 26  1  0  0  0  0
  2 27  1  0  0  0  0
  3 28  1  0  0  0  0
  4 29  1  0  0  0  0
  5 30  1  0  0  0  0
  6 31  1  0  0  0  0
  7 32  1  0  0  0  0
  8 33  1  0  0  0  0
 14 34  1  0  0  0  0
 14 35  1  0  0  0  0
 15 36  1  0  0  0  0
 15 37  1  0  0  0  0
 16 38  1  0  0  0  0
 16 39  1  0  0  0  0
 17 40  1  0  0  0  0
 17 41  1  0  0  0  0
 18 42  1  0  0  0  0
 18 43  1  0  0  0  0
 19 44  1  0  0  0  0
 21 45  1  0  0  0  0
M  CHG  1  21   1
M  END
> <Chemgauss4>
-8.667278

> <ref_pdb>
x1386_0

> <CYS145-warhead min dist (A)>
2.866684

> <CYS145-warhead avg dist (A)>
3.3897324

> <CYS145-warhead avg dist stderr (A)>
0.0043457155

> <original SMILES>
c1cc(cc(c1)Cl)C(c2cccc(c2)Cl)[NH+]3CCN(CC3)C(=O)CCl

$$$$
JOH-UNI-27a-25_thio_pH
  -OEChem-04232002263D

 35 36  0     0  0  0  0  0  0999 V2000
   13.7392   -2.0545   25.0371 C   0  0  0  0  0  0  0  0  0  0  0  0
   12.6470   -2.9216   25.0595 C   0  0  0  0  0  0  0  0  0  0  0  0
   13.5433   -0.6916   24.8138 C   0  0  0  0  0  0  0  0  0  0  0  0
   11.1627   -1.0631   24.6349 C   0  0  0  0  0  0  0  0  0  0  0  0
   11.3587   -2.4260   24.8583 C   0  0  0  0  0  0  0  0  0  0  0  0
   12.2551   -0.1959   24.6126 C   0  0  0  0  0  0  0  0  0  0  0  0
    6.2721   -4.8379   21.9621 C   0  0  0  0  0  0  0  0  0  0  0  0
    8.0567   -3.2264   22.5400 C   0  0  0  0  0  0  0  0  0  0  0  0
    7.8319   -5.2571   23.9255 C   0  0  0  0  0  0  0  0  0  0  0  0
    9.5593   -3.4419   22.4342 C   0  0  0  0  0  0  0  0  0  0  0  0
    9.3331   -5.4990   23.8409 C   0  0  0  0  0  0  0  0  0  0  0  0
   10.1844   -3.3596   24.8813 C   0  0  0  0  0  0  0  0  0  0  0  0
    5.6032   -6.1562   22.2598 C   0  0  0  0  0  0  0  0  0  0  0  0
    7.3544   -4.4894   22.7700 N   0  0  0  0  0  0  0  0  0  0  0  0
   10.0735   -4.1978   23.6373 N   0  3  0  0  0  0  0  0  0  0  0  0
    5.8457   -4.1414   21.0374 O   0  0  0  0  0  0  0  0  0  0  0  0
   12.0140    1.4855   24.3359 Cl  0  0  0  0  0  0  0  0  0  0  0  0
    4.3552   -5.8289   23.4570 Cl  0  0  0  0  0  0  0  0  0  0  0  0
   14.7422   -2.4408   25.1936 H   0  0  0  0  0  0  0  0  0  0  0  0
   12.8090   -3.9821   25.2341 H   0  0  0  0  0  0  0  0  0  0  0  0
   14.4040   -0.0274   24.7987 H   0  0  0  0  0  0  0  0  0  0  0  0
   10.1563   -0.6815   24.4792 H   0  0  0  0  0  0  0  0  0  0  0  0
    7.8455   -2.5131   23.3440 H   0  0  0  0  0  0  0  0  0  0  0  0
    7.6602   -2.7938   21.6124 H   0  0  0  0  0  0  0  0  0  0  0  0
    7.2874   -6.2101   23.9298 H   0  0  0  0  0  0  0  0  0  0  0  0
    7.6034   -4.7568   24.8691 H   0  0  0  0  0  0  0  0  0  0  0  0
    9.8016   -4.0425   21.5435 H   0  0  0  0  0  0  0  0  0  0  0  0
   10.1079   -2.4870   22.3774 H   0  0  0  0  0  0  0  0  0  0  0  0
    9.7246   -5.9687   24.7584 H   0  0  0  0  0  0  0  0  0  0  0  0
    9.5711   -6.1472   22.9829 H   0  0  0  0  0  0  0  0  0  0  0  0
   10.2482   -4.0554   25.7248 H   0  0  0  0  0  0  0  0  0  0  0  0
    9.2426   -2.8082   24.9741 H   0  0  0  0  0  0  0  0  0  0  0  0
    6.3394   -6.8398   22.6669 H   0  0  0  0  0  0  0  0  0  0  0  0
    5.1549   -6.5363   21.3490 H   0  0  0  0  0  0  0  0  0  0  0  0
   11.0699   -4.4719   23.3978 H   0  0  0  0  0  0  0  0  0  0  0  0
  1  2  2  0  0  0  0
  1  3  1  0  0  0  0
  2  5  1  0  0  0  0
  3  6  2  0  0  0  0
  4  5  2  0  0  0  0
  4  6  1  0  0  0  0
  5 12  1  0  0  0  0
  6 17  1  0  0  0  0
  7 13  1  0  0  0  0
  7 14  1  0  0  0  0
  7 16  2  0  0  0  0
  8 10  1  0  0  0  0
  8 14  1  0  0  0  0
  9 11  1  0  0  0  0
  9 14  1  0  0  0  0
 10 15  1  0  0  0  0
 11 15  1  0  0  0  0
 12 15  1  0  0  0  0
 13 18  1  0  0  0  0
  1 19  1  0  0  0  0
  2 20  1  0  0  0  0
  3 21  1  0  0  0  0
  4 22  1  0  0  0  0
  8 23  1  0  0  0  0
  8 24  1  0  0  0  0
  9 25  1  0  0  0  0
  9 26  1  0  0  0  0
 10 27  1  0  0  0  0
 10 28  1  0  0  0  0
 11 29  1  0  0  0  0
 11 30  1  0  0  0  0
 12 31  1  0  0  0  0
 12 32  1  0  0  0  0
 13 33  1  0  0  0  0
 13 34  1  0  0  0  0
 15 35  1  0  0  0  0
M  CHG  1  15   1
M  END
> <Chemgauss4>
-8.647134

> <ref_pdb>
x0749_0

> <CYS145-warhead min dist (A)>
4.9992814

> <CYS145-warhead avg dist (A)>
7.0220623

> <CYS145-warhead avg dist stderr (A)>
0.07066989

> <original SMILES>
c1cc(cc(c1)Cl)C[NH+]2CCN(CC2)C(=O)CCl

$$$$
JOH-UNI-27a-23_thio_pH
  -OEChem-04232002263D

 35 36  0     0  0  0  0  0  0999 V2000
   13.7392   -2.0545   25.0371 C   0  0  0  0  0  0  0  0  0  0  0  0
   12.6470   -2.9216   25.0595 C   0  0  0  0  0  0  0  0  0  0  0  0
   13.5433   -0.6916   24.8138 C   0  0  0  0  0  0  0  0  0  0  0  0
   11.1627   -1.0631   24.6349 C   0  0  0  0  0  0  0  0  0  0  0  0
   11.3587   -2.4260   24.8583 C   0  0  0  0  0  0  0  0  0  0  0  0
   12.2551   -0.1959   24.6126 C   0  0  0  0  0  0  0  0  0  0  0  0
    6.2721   -4.8379   21.9621 C   0  0  0  0  0  0  0  0  0  0  0  0
    8.0567   -3.2264   22.5400 C   0  0  0  0  0  0  0  0  0  0  0  0
    7.8319   -5.2571   23.9255 C   0  0  0  0  0  0  0  0  0  0  0  0
    9.5593   -3.4419   22.4342 C   0  0  0  0  0  0  0  0  0  0  0  0
    9.3331   -5.4990   23.8409 C   0  0  0  0  0  0  0  0  0  0  0  0
   10.1844   -3.3596   24.8813 C   0  0  0  0  0  0  0  0  0  0  0  0
    5.6032   -6.1562   22.2598 C   0  0  0  0  0  0  0  0  0  0  0  0
    7.3544   -4.4894   22.7700 N   0  0  0  0  0  0  0  0  0  0  0  0
   10.0735   -4.1978   23.6373 N   0  3  0  0  0  0  0  0  0  0  0  0
    5.8457   -4.1414   21.0374 O   0  0  0  0  0  0  0  0  0  0  0  0
   12.0140    1.4855   24.3359 Cl  0  0  0  0  0  0  0  0  0  0  0  0
    4.3552   -5.8289   23.4570 Cl  0  0  0  0  0  0  0  0  0  0  0  0
   14.7422   -2.4408   25.1936 H   0  0  0  0  0  0  0  0  0  0  0  0
   12.8090   -3.9821   25.2341 H   0  0  0  0  0  0  0  0  0  0  0  0
   14.4040   -0.0274   24.7987 H   0  0  0  0  0  0  0  0  0  0  0  0
   10.1563   -0.6815   24.4792 H   0  0  0  0  0  0  0  0  0  0  0  0
    7.8455   -2.5131   23.3440 H   0  0  0  0  0  0  0  0  0  0  0  0
    7.6602   -2.7938   21.6124 H   0  0  0  0  0  0  0  0  0  0  0  0
    7.2874   -6.2101   23.9298 H   0  0  0  0  0  0  0  0  0  0  0  0
    7.6034   -4.7568   24.8691 H   0  0  0  0  0  0  0  0  0  0  0  0
    9.8016   -4.0425   21.5435 H   0  0  0  0  0  0  0  0  0  0  0  0
   10.1079   -2.4870   22.3774 H   0  0  0  0  0  0  0  0  0  0  0  0
    9.7246   -5.9687   24.7584 H   0  0  0  0  0  0  0  0  0  0  0  0
    9.5711   -6.1472   22.9829 H   0  0  0  0  0  0  0  0  0  0  0  0
   10.2482   -4.0554   25.7248 H   0  0  0  0  0  0  0  0  0  0  0  0
    9.2426   -2.8082   24.9741 H   0  0  0  0  0  0  0  0  0  0  0  0
    6.3394   -6.8398   22.6669 H   0  0  0  0  0  0  0  0  0  0  0  0
    5.1549   -6.5363   21.3490 H   0  0  0  0  0  0  0  0  0  0  0  0
   11.0699   -4.4719   23.3978 H   0  0  0  0  0  0  0  0  0  0  0  0
  1  2  2  0  0  0  0
  1  3  1  0  0  0  0
  2  5  1  0  0  0  0
  3  6  2  0  0  0  0
  4  5  2  0  0  0  0
  4  6  1  0  0  0  0
  5 12  1  0  0  0  0
  6 17  1  0  0  0  0
  7 13  1  0  0  0  0
  7 14  1  0  0  0  0
  7 16  2  0  0  0  0
  8 10  1  0  0  0  0
  8 14  1  0  0  0  0
  9 11  1  0  0  0  0
  9 14  1  0  0  0  0
 10 15  1  0  0  0  0
 11 15  1  0  0  0  0
 12 15  1  0  0  0  0
 13 18  1  0  0  0  0
  1 19  1  0  0  0  0
  2 20  1  0  0  0  0
  3 21  1  0  0  0  0
  4 22  1  0  0  0  0
  8 23  1  0  0  0  0
  8 24  1  0  0  0  0
  9 25  1  0  0  0  0
  9 26  1  0  0  0  0
 10 27  1  0  0  0  0
 10 28  1  0  0  0  0
 11 29  1  0  0  0  0
 11 30  1  0  0  0  0
 12 31  1  0  0  0  0
 12 32  1  0  0  0  0
 13 33  1  0  0  0  0
 13 34  1  0  0  0  0
 15 35  1  0  0  0  0
M  CHG  1  15   1
M  END
> <Chemgauss4>
-8.647134

> <ref_pdb>
x0749_0

> <CYS145-warhead min dist (A)>
4.8873167

> <CYS145-warhead avg dist (A)>
6.577199

> <CYS145-warhead avg dist stderr (A)>
0.02882384

> <original SMILES>
c1cc(cc(c1)Cl)C[NH+]2CCN(CC2)C(=O)CCl

$$$$
SEA-TRI-746-1_thio_pH
  -OEChem-04232002263D

 34 35  0     1  0  0  0  0  0999 V2000
    7.5638   -0.2965   18.8084 C   0  0  0  0  0  0  0  0  0  0  0  0
    6.4813   -4.8450   23.0453 C   0  0  0  0  0  0  0  0  0  0  0  0
    6.7091    0.2157   22.3949 C   0  0  0  0  0  0  0  0  0  0  0  0
   13.1447   -0.2159   22.2383 C   0  0  0  0  0  0  0  0  0  0  0  0
    6.6543    0.2832   21.0028 C   0  0  0  0  0  0  0  0  0  0  0  0
    7.7299   -0.5015   23.0188 C   0  0  0  0  0  0  0  0  0  0  0  0
   12.0012   -0.9986   22.0791 C   0  0  0  0  0  0  0  0  0  0  0  0
   13.3502    0.4853   23.4264 C   0  0  0  0  0  0  0  0  0  0  0  0
    8.6411   -1.0838   20.8584 C   0  0  0  0  0  0  0  0  0  0  0  0
   11.2684   -0.3787   24.2963 C   0  0  0  0  0  0  0  0  0  0  0  0
    7.6203   -0.3666   20.2345 C   0  0  0  0  0  0  0  0  0  0  0  0
    8.6959   -1.1513   22.2505 C   0  0  0  0  0  0  0  0  0  0  0  0
   11.0630   -1.0800   23.1081 C   0  0  0  0  0  0  0  0  0  0  0  0
   12.4120    0.4040   24.4554 C   0  0  0  0  0  0  0  0  0  0  0  0
    7.7562   -4.2277   23.1466 C   0  0  0  0  0  0  0  0  0  0  0  0
    8.0219   -3.3160   24.0919 C   0  0  0  0  0  0  0  0  0  0  0  0
    9.3566   -2.6339   24.2407 C   0  0  0  0  0  0  0  0  0  0  0  0
    9.8118   -1.9354   22.9328 C   0  0  1  0  0  0  0  0  0  0  0  0
    7.5179   -0.2397   17.6502 N   0  0  0  0  0  0  0  0  0  0  0  0
    5.4412   -5.3522   22.9594 N   0  0  0  0  0  0  0  0  0  0  0  0
   12.6654    1.2703   25.9207 Cl  0  0  0  0  0  0  0  0  0  0  0  0
    5.9564    0.7206   22.9935 H   0  0  0  0  0  0  0  0  0  0  0  0
   13.8750   -0.1527   21.4367 H   0  0  0  0  0  0  0  0  0  0  0  0
    5.8527    0.8465   20.5309 H   0  0  0  0  0  0  0  0  0  0  0  0
    7.7645   -0.5477   24.1041 H   0  0  0  0  0  0  0  0  0  0  0  0
   11.8493   -1.5415   21.1499 H   0  0  0  0  0  0  0  0  0  0  0  0
   14.2459    1.0917   23.5364 H   0  0  0  0  0  0  0  0  0  0  0  0
    9.3969   -1.5937   20.2644 H   0  0  0  0  0  0  0  0  0  0  0  0
   10.5342   -0.4458   25.0958 H   0  0  0  0  0  0  0  0  0  0  0  0
    8.5191   -4.5204   22.4328 H   0  0  0  0  0  0  0  0  0  0  0  0
    7.2481   -3.0282   24.8007 H   0  0  0  0  0  0  0  0  0  0  0  0
    9.3290   -1.9319   25.0827 H   0  0  0  0  0  0  0  0  0  0  0  0
   10.0892   -3.4051   24.5138 H   0  0  0  0  0  0  0  0  0  0  0  0
   10.0983   -2.7568   22.2577 H   0  0  0  0  0  0  0  0  0  0  0  0
  1 11  1  0  0  0  0
  1 19  3  0  0  0  0
  2 15  1  0  0  0  0
  2 20  3  0  0  0  0
  3  5  2  0  0  0  0
  3  6  1  0  0  0  0
  4  7  2  0  0  0  0
  4  8  1  0  0  0  0
  5 11  1  0  0  0  0
  6 12  2  0  0  0  0
  7 13  1  0  0  0  0
  8 14  2  0  0  0  0
  9 11  2  0  0  0  0
  9 12  1  0  0  0  0
 10 13  2  0  0  0  0
 10 14  1  0  0  0  0
 12 18  1  0  0  0  0
 13 18  1  0  0  0  0
 14 21  1  0  0  0  0
 15 16  2  0  0  0  0
 16 17  1  0  0  0  0
 17 18  1  0  0  0  0
  3 22  1  0  0  0  0
  4 23  1  0  0  0  0
  5 24  1  0  0  0  0
  6 25  1  0  0  0  0
  7 26  1  0  0  0  0
  8 27  1  0  0  0  0
  9 28  1  0  0  0  0
 10 29  1  0  0  0  0
 15 30  1  0  0  0  0
 16 31  1  0  0  0  0
 17 32  1  0  0  0  0
 17 33  1  0  0  0  0
 18 34  1  0  0  0  0
M  END
> <Chemgauss4>
-8.594467

> <ref_pdb>
x0831_0

> <CYS145-warhead min dist (A)>
3.9996114

> <CYS145-warhead avg dist (A)>
4.932586

> <CYS145-warhead avg dist stderr (A)>
0.028461387

> <original SMILES>
c1cc(cc(c1)[C@H](C/C=C/C#N)c2cccc(c2)Cl)C#N

$$$$
MAK-UNK-af8-8
  -OEChem-04232002263D

 42 44  0     1  0  0  0  0  0999 V2000
   13.3215   -2.6187   25.4781 C   0  0  0  0  0  0  0  0  0  0  0  0
   13.4606   -1.3075   25.0230 C   0  0  0  0  0  0  0  0  0  0  0  0
   12.0594   -3.2109   25.5238 C   0  0  0  0  0  0  0  0  0  0  0  0
   11.0754   -1.1806   24.6596 C   0  0  0  0  0  0  0  0  0  0  0  0
   12.3376   -0.5885   24.6137 C   0  0  0  0  0  0  0  0  0  0  0  0
   10.9363   -2.4918   25.1146 C   0  0  0  0  0  0  0  0  0  0  0  0
    6.1291   -3.0113   21.5867 C   0  0  0  0  0  0  0  0  0  0  0  0
    9.2033   -4.8236   21.0167 C   0  0  0  0  0  0  0  0  0  0  0  0
    8.3337   -5.8330   21.7932 C   0  0  0  0  0  0  0  0  0  0  0  0
    9.3232   -2.8770   22.6538 C   0  0  0  0  0  0  0  0  0  0  0  0
    7.8704   -4.5620   23.9512 C   0  0  0  0  0  0  0  0  0  0  0  0
    9.2417   -3.8475   23.8588 C   0  0  0  0  0  0  0  0  0  0  0  0
    8.6423   -3.4461   21.3929 C   0  0  2  0  0  0  0  0  0  0  0  0
    7.3287   -4.9730   22.5680 C   0  0  1  0  0  0  0  0  0  0  0  0
   12.4874    0.8129   24.1259 C   0  0  0  0  0  0  0  0  0  0  0  0
    9.5754   -3.1302   25.1647 C   0  0  0  0  0  0  0  0  0  0  0  0
    6.3256   -1.5176   21.5911 C   0  0  0  0  0  0  0  0  0  0  0  0
    7.2710   -3.7653   21.7638 N   0  0  0  0  0  0  0  0  0  0  0  0
    5.0056   -3.4896   21.4226 O   0  0  0  0  0  0  0  0  0  0  0  0
    6.6682   -1.0484   19.9293 Cl  0  0  0  0  0  0  0  0  0  0  0  0
   14.1961   -3.1786   25.7966 H   0  0  0  0  0  0  0  0  0  0  0  0
   14.4481   -0.8546   24.9903 H   0  0  0  0  0  0  0  0  0  0  0  0
   11.9603   -4.2327   25.8806 H   0  0  0  0  0  0  0  0  0  0  0  0
   10.1997   -0.6209   24.3398 H   0  0  0  0  0  0  0  0  0  0  0  0
   10.2661   -4.9316   21.2554 H   0  0  0  0  0  0  0  0  0  0  0  0
    9.0841   -4.9999   19.9411 H   0  0  0  0  0  0  0  0  0  0  0  0
    7.8087   -6.4791   21.0797 H   0  0  0  0  0  0  0  0  0  0  0  0
    8.9356   -6.4762   22.4430 H   0  0  0  0  0  0  0  0  0  0  0  0
    8.8472   -1.9225   22.9137 H   0  0  0  0  0  0  0  0  0  0  0  0
   10.3754   -2.6534   22.4391 H   0  0  0  0  0  0  0  0  0  0  0  0
    7.9648   -5.4475   24.5916 H   0  0  0  0  0  0  0  0  0  0  0  0
    7.1391   -3.9014   24.4353 H   0  0  0  0  0  0  0  0  0  0  0  0
   10.0088   -4.6200   23.7146 H   0  0  0  0  0  0  0  0  0  0  0  0
    8.7035   -2.7341   20.5663 H   0  0  0  0  0  0  0  0  0  0  0  0
    6.3483   -5.4497   22.6628 H   0  0  0  0  0  0  0  0  0  0  0  0
   12.6528    0.8242   23.0416 H   0  0  0  0  0  0  0  0  0  0  0  0
   11.5932    1.4097   24.3477 H   0  0  0  0  0  0  0  0  0  0  0  0
   13.3334    1.3158   24.6122 H   0  0  0  0  0  0  0  0  0  0  0  0
    9.5275   -3.8428   25.9945 H   0  0  0  0  0  0  0  0  0  0  0  0
    8.8138   -2.3703   25.3682 H   0  0  0  0  0  0  0  0  0  0  0  0
    7.1696   -1.2746   22.2273 H   0  0  0  0  0  0  0  0  0  0  0  0
    5.4117   -1.0427   21.9306 H   0  0  0  0  0  0  0  0  0  0  0  0
  1  2  2  0  0  0  0
  1  3  1  0  0  0  0
  2  5  1  0  0  0  0
  3  6  2  0  0  0  0
  4  5  2  0  0  0  0
  4  6  1  0  0  0  0
  5 15  1  0  0  0  0
  6 16  1  0  0  0  0
  7 17  1  0  0  0  0
  7 18  1  0  0  0  0
  7 19  2  0  0  0  0
  8  9  1  0  0  0  0
  8 13  1  0  0  0  0
  9 14  1  0  0  0  0
 10 12  1  0  0  0  0
 10 13  1  0  0  0  0
 11 12  1  0  0  0  0
 11 14  1  0  0  0  0
 12 16  1  0  0  0  0
 13 18  1  0  0  0  0
 14 18  1  0  0  0  0
 17 20  1  0  0  0  0
  1 21  1  0  0  0  0
  2 22  1  0  0  0  0
  3 23  1  0  0  0  0
  4 24  1  0  0  0  0
  8 25  1  0  0  0  0
  8 26  1  0  0  0  0
  9 27  1  0  0  0  0
  9 28  1  0  0  0  0
 10 29  1  0  0  0  0
 10 30  1  0  0  0  0
 11 31  1  0  0  0  0
 11 32  1  0  0  0  0
 12 33  1  0  0  0  0
 13 34  1  0  0  0  0
 14 35  1  0  0  0  0
 15 36  1  0  0  0  0
 15 37  1  0  0  0  0
 15 38  1  0  0  0  0
 16 39  1  0  0  0  0
 16 40  1  0  0  0  0
 17 41  1  0  0  0  0
 17 42  1  0  0  0  0
M  END
> <Chemgauss4>
-8.568600

> <ref_pdb>
x0749_0

> <CYS145-warhead min dist (A)>
3.2674716

> <CYS145-warhead avg dist (A)>
4.902533

> <CYS145-warhead avg dist stderr (A)>
0.046587206

> <original SMILES>
Cc1cccc(c1)CC2C[C@H]3CC[C@@H](C2)N3C(=O)CCl

$$$$
JOO-PER-58e-1
  -OEChem-04232002263D

 40 42  0     0  0  0  0  0  0999 V2000
   12.2895   -1.0665   22.5892 C   0  0  0  0  0  0  0  0  0  0  0  0
   11.0144    0.9205   25.4457 C   0  0  0  0  0  0  0  0  0  0  0  0
    9.3894   -0.7823   24.9065 C   0  0  0  0  0  0  0  0  0  0  0  0
   13.4931   -0.4060   22.3957 C   0  0  0  0  0  0  0  0  0  0  0  0
   13.0818    1.0512   24.1227 C   0  0  0  0  0  0  0  0  0  0  0  0
   11.4448   -0.6277   23.6154 C   0  0  0  0  0  0  0  0  0  0  0  0
   11.8477    0.4649   24.4107 C   0  0  0  0  0  0  0  0  0  0  0  0
   10.2096   -1.2435   23.8754 C   0  0  0  0  0  0  0  0  0  0  0  0
    9.7908    0.2972   25.6899 C   0  0  0  0  0  0  0  0  0  0  0  0
    6.1270   -1.8790   18.8849 C   0  0  0  0  0  0  0  0  0  0  0  0
    6.5485   -3.0388   21.0293 C   0  0  0  0  0  0  0  0  0  0  0  0
    7.1306   -0.6493   20.8720 C   0  0  0  0  0  0  0  0  0  0  0  0
    7.9126   -3.3529   21.6262 C   0  0  0  0  0  0  0  0  0  0  0  0
    8.5037   -0.9274   21.4687 C   0  0  0  0  0  0  0  0  0  0  0  0
    9.7193   -2.4097   23.0688 C   0  0  0  0  0  0  0  0  0  0  0  0
    6.2237   -0.6004   18.0915 C   0  0  0  0  0  0  0  0  0  0  0  0
   13.9116    0.6423   23.1365 N   0  0  0  0  0  0  0  0  0  0  0  0
    6.6037   -1.8388   20.1944 N   0  0  0  0  0  0  0  0  0  0  0  0
    8.4161   -2.1373   22.3719 N   0  3  0  0  0  0  0  0  0  0  0  0
    5.6444   -2.8828   18.3543 O   0  0  0  0  0  0  0  0  0  0  0  0
    8.7766    0.8626   26.9604 Cl  0  0  0  0  0  0  0  0  0  0  0  0
    4.7103    0.2629   18.3411 Cl  0  0  0  0  0  0  0  0  0  0  0  0
   12.0360   -1.9012   21.9435 H   0  0  0  0  0  0  0  0  0  0  0  0
   11.3254    1.7637   26.0599 H   0  0  0  0  0  0  0  0  0  0  0  0
    8.4352   -1.2693   25.0964 H   0  0  0  0  0  0  0  0  0  0  0  0
   14.1749   -0.7173   21.6109 H   0  0  0  0  0  0  0  0  0  0  0  0
   13.4518    1.8964   24.6966 H   0  0  0  0  0  0  0  0  0  0  0  0
    6.1960   -3.8985   20.4508 H   0  0  0  0  0  0  0  0  0  0  0  0
    5.8114   -2.8558   21.8206 H   0  0  0  0  0  0  0  0  0  0  0  0
    6.4156   -0.3800   21.6589 H   0  0  0  0  0  0  0  0  0  0  0  0
    7.2006    0.2060   20.1979 H   0  0  0  0  0  0  0  0  0  0  0  0
    7.8390   -4.1719   22.3490 H   0  0  0  0  0  0  0  0  0  0  0  0
    8.6502   -3.6050   20.8560 H   0  0  0  0  0  0  0  0  0  0  0  0
    9.2519   -1.1373   20.6962 H   0  0  0  0  0  0  0  0  0  0  0  0
    8.8349   -0.0846   22.0839 H   0  0  0  0  0  0  0  0  0  0  0  0
   10.4403   -2.6844   22.2914 H   0  0  0  0  0  0  0  0  0  0  0  0
    9.5598   -3.2892   23.7018 H   0  0  0  0  0  0  0  0  0  0  0  0
    6.3434   -0.8459   17.0425 H   0  0  0  0  0  0  0  0  0  0  0  0
    7.0535   -0.0143   18.4694 H   0  0  0  0  0  0  0  0  0  0  0  0
    7.7298   -1.9216   23.1082 H   0  0  0  0  0  0  0  0  0  0  0  0
  1  4  2  0  0  0  0
  1  6  1  0  0  0  0
  2  7  2  0  0  0  0
  2  9  1  0  0  0  0
  3  8  1  0  0  0  0
  3  9  2  0  0  0  0
  4 17  1  0  0  0  0
  5  7  1  0  0  0  0
  5 17  2  0  0  0  0
  6  7  1  0  0  0  0
  6  8  2  0  0  0  0
  8 15  1  0  0  0  0
  9 21  1  0  0  0  0
 10 16  1  0  0  0  0
 10 18  1  0  0  0  0
 10 20  2  0  0  0  0
 11 13  1  0  0  0  0
 11 18  1  0  0  0  0
 12 14  1  0  0  0  0
 12 18  1  0  0  0  0
 13 19  1  0  0  0  0
 14 19  1  0  0  0  0
 15 19  1  0  0  0  0
 16 22  1  0  0  0  0
  1 23  1  0  0  0  0
  2 24  1  0  0  0  0
  3 25  1  0  0  0  0
  4 26  1  0  0  0  0
  5 27  1  0  0  0  0
 11 28  1  0  0  0  0
 11 29  1  0  0  0  0
 12 30  1  0  0  0  0
 12 31  1  0  0  0  0
 13 32  1  0  0  0  0
 13 33  1  0  0  0  0
 14 34  1  0  0  0  0
 14 35  1  0  0  0  0
 15 36  1  0  0  0  0
 15 37  1  0  0  0  0
 16 38  1  0  0  0  0
 16 39  1  0  0  0  0
 19 40  1  0  0  0  0
M  CHG  1  19   1
M  END
> <Chemgauss4>
-8.533356

> <ref_pdb>
x0830_0

> <CYS145-warhead min dist (A)>
2.8992743

> <CYS145-warhead avg dist (A)>
3.4780774

> <CYS145-warhead avg dist stderr (A)>
0.011558257

> <original SMILES>
c1cncc2c1c(cc(c2)Cl)C[NH+]3CCN(CC3)C(=O)CCl

$$$$
REN-UFA-aaa-2
  -OEChem-04232002263D

 52 54  0     1  0  0  0  0  0999 V2000
   12.3335    0.3831   24.2420 C   0  0  0  0  0  0  0  0  0  0  0  0
   12.3393   -0.0195   22.9065 C   0  0  0  0  0  0  0  0  0  0  0  0
   11.3313   -0.0667   25.1017 C   0  0  0  0  0  0  0  0  0  0  0  0
    7.9832   -5.3136   25.5756 C   0  0  0  0  0  0  0  0  0  0  0  0
    9.3330   -5.0060   25.4413 C   0  0  0  0  0  0  0  0  0  0  0  0
   11.3429   -0.8718   22.4307 C   0  0  0  0  0  0  0  0  0  0  0  0
   10.3350   -0.9190   24.6258 C   0  0  0  0  0  0  0  0  0  0  0  0
    7.0386   -4.6485   24.7966 C   0  0  0  0  0  0  0  0  0  0  0  0
    9.7392   -4.0211   24.5403 C   0  0  0  0  0  0  0  0  0  0  0  0
   10.3407   -1.3216   23.2903 C   0  0  0  0  0  0  0  0  0  0  0  0
    7.4349   -3.6650   23.8772 C   0  0  0  0  0  0  0  0  0  0  0  0
    8.7984   -3.3159   23.7693 C   0  0  0  0  0  0  0  0  0  0  0  0
    8.0261   -2.3493   18.8631 C   0  0  0  0  0  0  0  0  0  0  0  0
    7.0336   -1.7254   19.5093 C   0  0  0  0  0  0  0  0  0  0  0  0
    6.4064   -2.4549   20.6294 C   0  0  0  0  0  0  0  0  0  0  0  0
    6.3772   -2.9867   23.0397 C   0  0  0  0  0  0  0  0  0  0  0  0
    8.0747   -1.4076   22.2490 C   0  0  0  0  0  0  0  0  0  0  0  0
    9.2525   -2.2519   22.7715 C   0  0  1  0  0  0  0  0  0  0  0  0
    4.5145    1.7993   19.1261 C   0  0  0  0  0  0  0  0  0  0  0  0
    6.1479    1.9368   17.2516 C   0  0  0  0  0  0  0  0  0  0  0  0
    6.5556   -0.3362   19.1983 C   0  0  0  0  0  0  0  0  0  0  0  0
    5.4572   -0.2844   18.1405 C   0  0  0  0  0  0  0  0  0  0  0  0
    6.9515   -2.2788   21.8970 N   0  0  0  0  0  0  0  0  0  0  0  0
    5.0507    1.1205   17.8897 N   0  3  0  0  0  0  0  0  0  0  0  0
    5.4456   -3.1824   20.3735 O   0  0  0  0  0  0  0  0  0  0  0  0
   13.1102    1.0457   24.6126 H   0  0  0  0  0  0  0  0  0  0  0  0
   13.1201    0.3298   22.2372 H   0  0  0  0  0  0  0  0  0  0  0  0
   11.3271    0.2456   26.1417 H   0  0  0  0  0  0  0  0  0  0  0  0
    7.6654   -6.0691   26.2877 H   0  0  0  0  0  0  0  0  0  0  0  0
   10.0732   -5.5331   26.0374 H   0  0  0  0  0  0  0  0  0  0  0  0
   11.3553   -1.1801   21.3885 H   0  0  0  0  0  0  0  0  0  0  0  0
    9.5581   -1.2643   25.3029 H   0  0  0  0  0  0  0  0  0  0  0  0
    5.9864   -4.8964   24.9114 H   0  0  0  0  0  0  0  0  0  0  0  0
   10.8018   -3.8061   24.4375 H   0  0  0  0  0  0  0  0  0  0  0  0
    8.5486   -1.8953   18.0273 H   0  0  0  0  0  0  0  0  0  0  0  0
    8.3451   -3.3426   19.1620 H   0  0  0  0  0  0  0  0  0  0  0  0
    5.6934   -3.7326   22.6471 H   0  0  0  0  0  0  0  0  0  0  0  0
    5.8488   -2.2836   23.6724 H   0  0  0  0  0  0  0  0  0  0  0  0
    7.7812   -0.6601   22.9790 H   0  0  0  0  0  0  0  0  0  0  0  0
    8.3638   -0.8928   21.3340 H   0  0  0  0  0  0  0  0  0  0  0  0
    9.6874   -2.7680   21.8802 H   0  0  0  0  0  0  0  0  0  0  0  0
    5.3169    1.8284   19.8656 H   0  0  0  0  0  0  0  0  0  0  0  0
    4.2026    2.8071   18.8454 H   0  0  0  0  0  0  0  0  0  0  0  0
    3.6679    1.2131   19.4886 H   0  0  0  0  0  0  0  0  0  0  0  0
    6.9880    1.9690   17.9478 H   0  0  0  0  0  0  0  0  0  0  0  0
    6.4300    1.4458   16.3183 H   0  0  0  0  0  0  0  0  0  0  0  0
    5.7542    2.9378   17.0651 H   0  0  0  0  0  0  0  0  0  0  0  0
    6.1744    0.1149   20.1234 H   0  0  0  0  0  0  0  0  0  0  0  0
    7.3971    0.2946   18.8832 H   0  0  0  0  0  0  0  0  0  0  0  0
    5.7714   -0.7038   17.1800 H   0  0  0  0  0  0  0  0  0  0  0  0
    4.5608   -0.8082   18.4858 H   0  0  0  0  0  0  0  0  0  0  0  0
    4.2714    1.1077   17.2096 H   0  0  0  0  0  0  0  0  0  0  0  0
  1  2  1  0  0  0  0
  1  3  2  0  0  0  0
  2  6  2  0  0  0  0
  3  7  1  0  0  0  0
  4  5  1  0  0  0  0
  4  8  2  0  0  0  0
  5  9  2  0  0  0  0
  6 10  1  0  0  0  0
  7 10  2  0  0  0  0
  8 11  1  0  0  0  0
  9 12  1  0  0  0  0
 10 18  1  0  0  0  0
 11 12  2  0  0  0  0
 11 16  1  0  0  0  0
 12 18  1  0  0  0  0
 13 14  2  0  0  0  0
 14 15  1  0  0  0  0
 14 21  1  0  0  0  0
 15 23  1  0  0  0  0
 15 25  2  0  0  0  0
 16 23  1  0  0  0  0
 17 18  1  0  0  0  0
 17 23  1  0  0  0  0
 19 24  1  0  0  0  0
 20 24  1  0  0  0  0
 21 22  1  0  0  0  0
 22 24  1  0  0  0  0
  1 26  1  0  0  0  0
  2 27  1  0  0  0  0
  3 28  1  0  0  0  0
  4 29  1  0  0  0  0
  5 30  1  0  0  0  0
  6 31  1  0  0  0  0
  7 32  1  0  0  0  0
  8 33  1  0  0  0  0
  9 34  1  0  0  0  0
 13 35  1  0  0  0  0
 13 36  1  0  0  0  0
 16 37  1  0  0  0  0
 16 38  1  0  0  0  0
 17 39  1  0  0  0  0
 17 40  1  0  0  0  0
 18 41  1  0  0  0  0
 19 42  1  0  0  0  0
 19 43  1  0  0  0  0
 19 44  1  0  0  0  0
 20 45  1  0  0  0  0
 20 46  1  0  0  0  0
 20 47  1  0  0  0  0
 21 48  1  0  0  0  0
 21 49  1  0  0  0  0
 22 50  1  0  0  0  0
 22 51  1  0  0  0  0
 24 52  1  0  0  0  0
M  CHG  1  24   1
M  END
> <Chemgauss4>
-8.532882

> <ref_pdb>
x1386_0

> <original SMILES>
C[NH+](C)CCC(=C)C(=O)N1Cc2ccccc2[C@@H](C1)c3ccccc3

$$$$
GIA-UNK-20b-6
  -OEChem-04232002263D

 51 53  0     1  0  0  0  0  0999 V2000
   12.3690    0.3354   24.5532 C   0  0  0  0  0  0  0  0  0  0  0  0
   11.0195    0.6836   24.4962 C   0  0  0  0  0  0  0  0  0  0  0  0
   12.7880   -0.9111   24.0881 C   0  0  0  0  0  0  0  0  0  0  0  0
   10.0889   -0.2149   23.9742 C   0  0  0  0  0  0  0  0  0  0  0  0
   11.8574   -1.8096   23.5662 C   0  0  0  0  0  0  0  0  0  0  0  0
   10.5078   -1.4615   23.5092 C   0  0  0  0  0  0  0  0  0  0  0  0
    6.0448   -1.0979   18.8251 C   0  0  0  0  0  0  0  0  0  0  0  0
    8.7054   -4.3047   26.8076 C   0  0  0  0  0  0  0  0  0  0  0  0
    9.4584   -5.1121   25.7548 C   0  0  0  0  0  0  0  0  0  0  0  0
    7.6106   -3.4475   26.1801 C   0  0  0  0  0  0  0  0  0  0  0  0
   10.0130   -4.2171   24.6488 C   0  0  0  0  0  0  0  0  0  0  0  0
    8.1620   -2.5498   25.0746 C   0  0  0  0  0  0  0  0  0  0  0  0
    6.1643   -1.9744   21.1356 C   0  0  0  0  0  0  0  0  0  0  0  0
    7.6602   -0.1136   20.5250 C   0  0  0  0  0  0  0  0  0  0  0  0
    7.3301   -2.7385   21.7460 C   0  0  0  0  0  0  0  0  0  0  0  0
    8.8491   -0.8495   21.1282 C   0  0  0  0  0  0  0  0  0  0  0  0
    8.9128   -3.3595   24.0089 C   0  0  0  0  0  0  0  0  0  0  0  0
    6.0124    0.1990   18.0564 C   0  0  0  0  0  0  0  0  0  0  0  0
    9.5001   -2.4355   22.9438 C   0  0  1  0  0  0  0  0  0  0  0  0
    6.6248   -1.0582   20.0922 N   0  0  0  0  0  0  0  0  0  0  0  0
    8.3620   -1.7500   22.2413 N   0  3  0  0  0  0  0  0  0  0  0  0
    5.5707   -2.1148   18.3122 O   0  0  0  0  0  0  0  0  0  0  0  0
    5.0541    1.3260   19.0099 Cl  0  0  0  0  0  0  0  0  0  0  0  0
   13.0937    1.0356   24.9584 H   0  0  0  0  0  0  0  0  0  0  0  0
   10.6933    1.6546   24.8572 H   0  0  0  0  0  0  0  0  0  0  0  0
   13.8387   -1.1821   24.1313 H   0  0  0  0  0  0  0  0  0  0  0  0
    9.0395    0.0649   23.9339 H   0  0  0  0  0  0  0  0  0  0  0  0
   12.1929   -2.7786   23.2063 H   0  0  0  0  0  0  0  0  0  0  0  0
    8.2644   -4.9831   27.5466 H   0  0  0  0  0  0  0  0  0  0  0  0
    9.4108   -3.6591   27.3451 H   0  0  0  0  0  0  0  0  0  0  0  0
   10.2785   -5.6621   26.2302 H   0  0  0  0  0  0  0  0  0  0  0  0
    8.7850   -5.8588   25.3163 H   0  0  0  0  0  0  0  0  0  0  0  0
    6.8297   -4.0974   25.7665 H   0  0  0  0  0  0  0  0  0  0  0  0
    7.1369   -2.8319   26.9533 H   0  0  0  0  0  0  0  0  0  0  0  0
   10.7947   -3.5702   25.0672 H   0  0  0  0  0  0  0  0  0  0  0  0
   10.4930   -4.8409   23.8852 H   0  0  0  0  0  0  0  0  0  0  0  0
    7.3357   -1.9971   24.6117 H   0  0  0  0  0  0  0  0  0  0  0  0
    8.8335   -1.8035   25.5184 H   0  0  0  0  0  0  0  0  0  0  0  0
    5.4326   -2.6830   20.7349 H   0  0  0  0  0  0  0  0  0  0  0  0
    5.6517   -1.3747   21.8977 H   0  0  0  0  0  0  0  0  0  0  0  0
    7.2029    0.5530   21.2662 H   0  0  0  0  0  0  0  0  0  0  0  0
    8.0082    0.5140   19.7029 H   0  0  0  0  0  0  0  0  0  0  0  0
    6.9987   -3.3245   22.6093 H   0  0  0  0  0  0  0  0  0  0  0  0
    7.8167   -3.3967   21.0174 H   0  0  0  0  0  0  0  0  0  0  0  0
    9.3625   -1.4749   20.3894 H   0  0  0  0  0  0  0  0  0  0  0  0
    9.5582   -0.1411   21.5687 H   0  0  0  0  0  0  0  0  0  0  0  0
    8.1957   -4.0293   23.5156 H   0  0  0  0  0  0  0  0  0  0  0  0
    5.5387    0.0269   17.0966 H   0  0  0  0  0  0  0  0  0  0  0  0
    7.0255    0.5693   17.9495 H   0  0  0  0  0  0  0  0  0  0  0  0
    9.9724   -3.0509   22.1691 H   0  0  0  0  0  0  0  0  0  0  0  0
    7.9035   -1.1514   22.9421 H   0  0  0  0  0  0  0  0  0  0  0  0
  1  2  1  0  0  0  0
  1  3  2  0  0  0  0
  2  4  2  0  0  0  0
  3  5  1  0  0  0  0
  4  6  1  0  0  0  0
  5  6  2  0  0  0  0
  6 19  1  0  0  0  0
  7 18  1  0  0  0  0
  7 20  1  0  0  0  0
  7 22  2  0  0  0  0
  8  9  1  0  0  0  0
  8 10  1  0  0  0  0
  9 11  1  0  0  0  0
 10 12  1  0  0  0  0
 11 17  1  0  0  0  0
 12 17  1  0  0  0  0
 13 15  1  0  0  0  0
 13 20  1  0  0  0  0
 14 16  1  0  0  0  0
 14 20  1  0  0  0  0
 15 21  1  0  0  0  0
 16 21  1  0  0  0  0
 17 19  1  0  0  0  0
 18 23  1  0  0  0  0
 19 21  1  0  0  0  0
  1 24  1  0  0  0  0
  2 25  1  0  0  0  0
  3 26  1  0  0  0  0
  4 27  1  0  0  0  0
  5 28  1  0  0  0  0
  8 29  1  0  0  0  0
  8 30  1  0  0  0  0
  9 31  1  0  0  0  0
  9 32  1  0  0  0  0
 10 33  1  0  0  0  0
 10 34  1  0  0  0  0
 11 35  1  0  0  0  0
 11 36  1  0  0  0  0
 12 37  1  0  0  0  0
 12 38  1  0  0  0  0
 13 39  1  0  0  0  0
 13 40  1  0  0  0  0
 14 41  1  0  0  0  0
 14 42  1  0  0  0  0
 15 43  1  0  0  0  0
 15 44  1  0  0  0  0
 16 45  1  0  0  0  0
 16 46  1  0  0  0  0
 17 47  1  0  0  0  0
 18 48  1  0  0  0  0
 18 49  1  0  0  0  0
 19 50  1  0  0  0  0
 21 51  1  0  0  0  0
M  CHG  1  21   1
M  END
> <Chemgauss4>
-8.516218

> <ref_pdb>
x1386_0

> <CYS145-warhead min dist (A)>
2.8951693

> <CYS145-warhead avg dist (A)>
3.5459847

> <CYS145-warhead avg dist stderr (A)>
0.033124775

> <original SMILES>
c1ccc(cc1)[C@@H](C2CCCCC2)[NH+]3CCN(CC3)C(=O)CCl

$$$$
TIM-UNK-6bd-1
  -OEChem-04232002263D

 38 40  0     1  0  0  0  0  0999 V2000
    6.1379    0.4379   17.9902 C   0  0  0  0  0  0  0  0  0  0  0  0
    6.5253   -0.8634   18.3949 C   0  0  0  0  0  0  0  0  0  0  0  0
    5.4754    1.0178   19.0494 C   0  0  0  0  0  0  0  0  0  0  0  0
    6.0875   -1.0391   19.6890 C   0  0  0  0  0  0  0  0  0  0  0  0
    6.2410   -2.2197   20.5531 C   0  0  0  0  0  0  0  0  0  0  0  0
    8.4609   -4.3517   25.4853 C   0  0  0  0  0  0  0  0  0  0  0  0
   10.4089   -2.7092   22.6099 C   0  0  0  0  0  0  0  0  0  0  0  0
    9.9433   -1.3041   22.9479 C   0  0  0  0  0  0  0  0  0  0  0  0
   10.1773   -3.6539   23.7835 C   0  0  0  0  0  0  0  0  0  0  0  0
    7.5229   -0.8282   22.2600 C   0  0  0  0  0  0  0  0  0  0  0  0
    7.1906   -3.1862   22.6216 C   0  0  0  0  0  0  0  0  0  0  0  0
    8.4750   -1.2515   23.3840 C   0  0  1  0  0  0  0  0  0  0  0  0
    7.8916   -2.5981   23.8477 C   0  0  2  0  0  0  0  0  0  0  0  0
    9.4638   -5.3833   25.9441 C   0  0  0  0  0  0  0  0  0  0  0  0
    5.4504    0.1107   20.0765 N   0  0  0  0  0  0  0  0  0  0  0  0
    6.9306   -2.0580   21.7463 N   0  0  0  0  0  0  0  0  0  0  0  0
    8.8614   -3.5296   24.4242 N   0  0  0  0  0  0  0  0  0  0  0  0
    5.7553   -3.2766   20.1546 O   0  0  0  0  0  0  0  0  0  0  0  0
    7.3658   -4.2770   26.0474 O   0  0  0  0  0  0  0  0  0  0  0  0
    8.7237   -6.2389   27.2920 Cl  0  0  0  0  0  0  0  0  0  0  0  0
    6.3207    0.9011   17.0309 H   0  0  0  0  0  0  0  0  0  0  0  0
    7.0651   -1.5904   17.8035 H   0  0  0  0  0  0  0  0  0  0  0  0
    5.0179    1.9905   19.1633 H   0  0  0  0  0  0  0  0  0  0  0  0
    9.8637   -3.0768   21.7327 H   0  0  0  0  0  0  0  0  0  0  0  0
   11.4735   -2.7012   22.3450 H   0  0  0  0  0  0  0  0  0  0  0  0
   10.5797   -0.8838   23.7509 H   0  0  0  0  0  0  0  0  0  0  0  0
   10.1131   -0.6454   22.0724 H   0  0  0  0  0  0  0  0  0  0  0  0
   10.2726   -4.7030   23.4516 H   0  0  0  0  0  0  0  0  0  0  0  0
   10.9757   -3.5033   24.5304 H   0  0  0  0  0  0  0  0  0  0  0  0
    6.7001   -0.2143   22.6532 H   0  0  0  0  0  0  0  0  0  0  0  0
    8.0087   -0.2649   21.4521 H   0  0  0  0  0  0  0  0  0  0  0  0
    7.8268   -3.8954   22.0682 H   0  0  0  0  0  0  0  0  0  0  0  0
    6.2535   -3.7025   22.8816 H   0  0  0  0  0  0  0  0  0  0  0  0
    8.3977   -0.5158   24.2275 H   0  0  0  0  0  0  0  0  0  0  0  0
    7.1215   -2.3806   24.6040 H   0  0  0  0  0  0  0  0  0  0  0  0
   10.3628   -4.8756   26.2732 H   0  0  0  0  0  0  0  0  0  0  0  0
    9.6584   -6.0694   25.1284 H   0  0  0  0  0  0  0  0  0  0  0  0
    5.0261    0.2683   20.9804 H   0  0  0  0  0  0  0  0  0  0  0  0
  1  2  1  0  0  0  0
  1  3  2  0  0  0  0
  2  4  2  0  0  0  0
  3 15  1  0  0  0  0
  4  5  1  0  0  0  0
  4 15  1  0  0  0  0
  5 16  1  0  0  0  0
  5 18  2  0  0  0  0
  6 14  1  0  0  0  0
  6 17  1  0  0  0  0
  6 19  2  0  0  0  0
  7  8  1  0  0  0  0
  7  9  1  0  0  0  0
  8 12  1  0  0  0  0
  9 17  1  0  0  0  0
 10 12  1  0  0  0  0
 10 16  1  0  0  0  0
 11 13  1  0  0  0  0
 11 16  1  0  0  0  0
 12 13  1  0  0  0  0
 13 17  1  0  0  0  0
 14 20  1  0  0  0  0
  1 21  1  0  0  0  0
  2 22  1  0  0  0  0
  3 23  1  0  0  0  0
  7 24  1  0  0  0  0
  7 25  1  0  0  0  0
  8 26  1  0  0  0  0
  8 27  1  0  0  0  0
  9 28  1  0  0  0  0
  9 29  1  0  0  0  0
 10 30  1  0  0  0  0
 10 31  1  0  0  0  0
 11 32  1  0  0  0  0
 11 33  1  0  0  0  0
 12 34  1  0  0  0  0
 13 35  1  0  0  0  0
 14 36  1  0  0  0  0
 14 37  1  0  0  0  0
 15 38  1  0  0  0  0
M  END
> <Chemgauss4>
-8.497801

> <ref_pdb>
x1385_0

> <CYS145-warhead min dist (A)>
4.899327

> <CYS145-warhead avg dist (A)>
5.940706

> <CYS145-warhead avg dist stderr (A)>
0.045792684

> <original SMILES>
c1cc([nH]c1)C(=O)N2C[C@@H]3CCCN([C@@H]3C2)C(=O)CCl

$$$$
TAM-UNI-d1c-14
  -OEChem-04232002263D

 46 48  0     0  0  0  0  0  0999 V2000
   13.9135    0.0250   22.4704 C   0  0  0  0  0  0  0  0  0  0  0  0
   13.6662    1.1324   23.2809 C   0  0  0  0  0  0  0  0  0  0  0  0
   12.9804   -1.0059   22.3967 C   0  0  0  0  0  0  0  0  0  0  0  0
   12.4830    1.2143   24.0275 C   0  0  0  0  0  0  0  0  0  0  0  0
   11.5436    0.1725   23.9586 C   0  0  0  0  0  0  0  0  0  0  0  0
   11.8006   -0.9336   23.1370 C   0  0  0  0  0  0  0  0  0  0  0  0
    9.3038    1.2999   24.3481 C   0  0  0  0  0  0  0  0  0  0  0  0
    6.4592   -1.9691   19.6225 C   0  0  0  0  0  0  0  0  0  0  0  0
   10.2878    0.2403   24.7802 C   0  0  0  0  0  0  0  0  0  0  0  0
   12.1869    2.4265   24.8701 C   0  0  0  0  0  0  0  0  0  0  0  0
   11.0323    3.2220   24.2788 C   0  0  0  0  0  0  0  0  0  0  0  0
    7.1854   -2.3496   21.9568 C   0  0  0  0  0  0  0  0  0  0  0  0
    8.2281   -0.4989   20.7076 C   0  0  0  0  0  0  0  0  0  0  0  0
    8.5529   -2.8477   22.4009 C   0  0  0  0  0  0  0  0  0  0  0  0
    9.6122   -0.9683   21.1347 C   0  0  0  0  0  0  0  0  0  0  0  0
   10.8548   -2.0817   22.9926 C   0  0  0  0  0  0  0  0  0  0  0  0
    6.6195   -1.1649   18.3571 C   0  0  0  0  0  0  0  0  0  0  0  0
    9.7047    2.6115   24.2791 N   0  0  0  0  0  0  0  0  0  0  0  0
    7.2775   -1.6159   20.6945 N   0  0  0  0  0  0  0  0  0  0  0  0
    9.5066   -1.6757   22.4673 N   0  3  0  0  0  0  0  0  0  0  0  0
    8.1262    0.9871   24.1408 O   0  0  0  0  0  0  0  0  0  0  0  0
    5.6331   -2.8848   19.6544 O   0  0  0  0  0  0  0  0  0  0  0  0
    5.4728    0.1666   18.4578 Cl  0  0  0  0  0  0  0  0  0  0  0  0
   14.8342   -0.0340   21.8954 H   0  0  0  0  0  0  0  0  0  0  0  0
   14.4025    1.9230   23.3224 H   0  0  0  0  0  0  0  0  0  0  0  0
   13.1841   -1.8613   21.7562 H   0  0  0  0  0  0  0  0  0  0  0  0
    9.8009   -0.7474   24.7920 H   0  0  0  0  0  0  0  0  0  0  0  0
   10.4911    0.4495   25.8418 H   0  0  0  0  0  0  0  0  0  0  0  0
   11.9297    2.1096   25.8535 H   0  0  0  0  0  0  0  0  0  0  0  0
   13.0456    3.0585   24.8738 H   0  0  0  0  0  0  0  0  0  0  0  0
   10.9217    4.1875   24.8395 H   0  0  0  0  0  0  0  0  0  0  0  0
   11.2668    3.5523   23.2303 H   0  0  0  0  0  0  0  0  0  0  0  0
    6.5000   -3.1979   21.8637 H   0  0  0  0  0  0  0  0  0  0  0  0
    6.7591   -1.6684   22.7033 H   0  0  0  0  0  0  0  0  0  0  0  0
    7.8409    0.2493   21.4099 H   0  0  0  0  0  0  0  0  0  0  0  0
    8.3003   -0.0141   19.7325 H   0  0  0  0  0  0  0  0  0  0  0  0
    8.4991   -3.2818   23.4045 H   0  0  0  0  0  0  0  0  0  0  0  0
    8.9698   -3.5820   21.7025 H   0  0  0  0  0  0  0  0  0  0  0  0
   10.0480   -1.6699   20.4147 H   0  0  0  0  0  0  0  0  0  0  0  0
   10.2841   -0.1147   21.2712 H   0  0  0  0  0  0  0  0  0  0  0  0
   11.2487   -2.8335   22.3004 H   0  0  0  0  0  0  0  0  0  0  0  0
   10.6820   -2.5732   23.9561 H   0  0  0  0  0  0  0  0  0  0  0  0
    6.3837   -1.7956   17.5075 H   0  0  0  0  0  0  0  0  0  0  0  0
    7.6323   -0.7814   18.3104 H   0  0  0  0  0  0  0  0  0  0  0  0
    8.9016    3.3168   24.2137 H   0  0  0  0  0  0  0  0  0  0  0  0
    9.1200   -1.0019   23.1427 H   0  0  0  0  0  0  0  0  0  0  0  0
  1  2  1  0  0  0  0
  1  3  2  0  0  0  0
  2  4  2  0  0  0  0
  3  6  1  0  0  0  0
  4  5  1  0  0  0  0
  4 10  1  0  0  0  0
  5  6  2  0  0  0  0
  5  9  1  0  0  0  0
  6 16  1  0  0  0  0
  7  9  1  0  0  0  0
  7 18  1  0  0  0  0
  7 21  2  0  0  0  0
  8 17  1  0  0  0  0
  8 19  1  0  0  0  0
  8 22  2  0  0  0  0
 10 11  1  0  0  0  0
 11 18  1  0  0  0  0
 12 14  1  0  0  0  0
 12 19  1  0  0  0  0
 13 15  1  0  0  0  0
 13 19  1  0  0  0  0
 14 20  1  0  0  0  0
 15 20  1  0  0  0  0
 16 20  1  0  0  0  0
 17 23  1  0  0  0  0
  1 24  1  0  0  0  0
  2 25  1  0  0  0  0
  3 26  1  0  0  0  0
  9 27  1  0  0  0  0
  9 28  1  0  0  0  0
 10 29  1  0  0  0  0
 10 30  1  0  0  0  0
 11 31  1  0  0  0  0
 11 32  1  0  0  0  0
 12 33  1  0  0  0  0
 12 34  1  0  0  0  0
 13 35  1  0  0  0  0
 13 36  1  0  0  0  0
 14 37  1  0  0  0  0
 14 38  1  0  0  0  0
 15 39  1  0  0  0  0
 15 40  1  0  0  0  0
 16 41  1  0  0  0  0
 16 42  1  0  0  0  0
 17 43  1  0  0  0  0
 17 44  1  0  0  0  0
 18 45  1  0  0  0  0
 20 46  1  0  0  0  0
M  CHG  1  20   1
M  END
> <Chemgauss4>
-8.474927

> <ref_pdb>
x0830_0

> <CYS145-warhead min dist (A)>
6.6471767

> <CYS145-warhead avg dist (A)>
7.1360464

> <CYS145-warhead avg dist stderr (A)>
0.03088377

> <original SMILES>
c1cc2c(c(c1)C[NH+]3CCN(CC3)C(=O)CCl)CC(=O)NCC2

$$$$
MIH-UNI-e57-4
  -OEChem-04232002263D

 46 48  0     0  0  0  0  0  0999 V2000
   13.7156   -0.2761   22.3980 C   0  0  0  0  0  0  0  0  0  0  0  0
   13.5535    0.9360   23.0696 C   0  0  0  0  0  0  0  0  0  0  0  0
   12.2017    2.4154   24.4791 C   0  0  0  0  0  0  0  0  0  0  0  0
   12.7110   -1.2381   22.4442 C   0  0  0  0  0  0  0  0  0  0  0  0
   11.0311    2.6618   25.1969 C   0  0  0  0  0  0  0  0  0  0  0  0
   10.1885    0.4877   24.5715 C   0  0  0  0  0  0  0  0  0  0  0  0
   12.3818    1.2010   23.7971 C   0  0  0  0  0  0  0  0  0  0  0  0
   11.3602    0.2227   23.8441 C   0  0  0  0  0  0  0  0  0  0  0  0
   11.5404   -0.9917   23.1622 C   0  0  0  0  0  0  0  0  0  0  0  0
   10.0264    1.6998   25.2431 C   0  0  0  0  0  0  0  0  0  0  0  0
    6.0982   -2.0340   19.8046 C   0  0  0  0  0  0  0  0  0  0  0  0
    6.8107   -2.1635   22.1704 C   0  0  0  0  0  0  0  0  0  0  0  0
    7.9936   -0.5879   20.6901 C   0  0  0  0  0  0  0  0  0  0  0  0
    8.1356   -2.7121   22.6794 C   0  0  0  0  0  0  0  0  0  0  0  0
    9.3373   -1.1118   21.1786 C   0  0  0  0  0  0  0  0  0  0  0  0
   10.4987   -2.0715   23.1700 C   0  0  0  0  0  0  0  0  0  0  0  0
    6.3140   -1.4198   18.4445 C   0  0  0  0  0  0  0  0  0  0  0  0
    6.9527   -1.6128   20.8225 N   0  0  0  0  0  0  0  0  0  0  0  0
    8.9907    1.4030   27.6811 N   0  0  0  0  0  0  0  0  0  0  0  0
    9.1846   -1.6261   22.5926 N   0  3  0  0  0  0  0  0  0  0  0  0
    5.1985   -2.8646   19.9552 O   0  0  0  0  0  0  0  0  0  0  0  0
    8.3817    3.4526   26.2411 O   0  0  0  0  0  0  0  0  0  0  0  0
    7.4974    1.1841   25.5933 O   0  0  0  0  0  0  0  0  0  0  0  0
    8.5625    2.0111   26.1430 S   0  0  0  0  0  0  0  0  0  0  0  0
    5.2839    0.0051   18.3660 Cl  0  0  0  0  0  0  0  0  0  0  0  0
   14.6269   -0.4680   21.8390 H   0  0  0  0  0  0  0  0  0  0  0  0
   14.3522    1.6734   23.0203 H   0  0  0  0  0  0  0  0  0  0  0  0
   12.9739    3.1813   24.4561 H   0  0  0  0  0  0  0  0  0  0  0  0
   12.8492   -2.1785   21.9167 H   0  0  0  0  0  0  0  0  0  0  0  0
   10.9144    3.6095   25.7162 H   0  0  0  0  0  0  0  0  0  0  0  0
    9.3870   -0.2463   24.6249 H   0  0  0  0  0  0  0  0  0  0  0  0
    6.0559   -2.9559   22.1885 H   0  0  0  0  0  0  0  0  0  0  0  0
    6.4496   -1.3564   22.8194 H   0  0  0  0  0  0  0  0  0  0  0  0
    7.6768    0.2763   21.2866 H   0  0  0  0  0  0  0  0  0  0  0  0
    8.0976   -0.2436   19.6597 H   0  0  0  0  0  0  0  0  0  0  0  0
    8.0545   -3.0041   23.7314 H   0  0  0  0  0  0  0  0  0  0  0  0
    8.4832   -3.5645   22.0850 H   0  0  0  0  0  0  0  0  0  0  0  0
    9.7063   -1.9364   20.5584 H   0  0  0  0  0  0  0  0  0  0  0  0
   10.0795   -0.3073   21.2026 H   0  0  0  0  0  0  0  0  0  0  0  0
   10.8223   -2.9381   22.5836 H   0  0  0  0  0  0  0  0  0  0  0  0
   10.2938   -2.4160   24.1894 H   0  0  0  0  0  0  0  0  0  0  0  0
    6.0186   -2.1349   17.6851 H   0  0  0  0  0  0  0  0  0  0  0  0
    7.3549   -1.1326   18.3498 H   0  0  0  0  0  0  0  0  0  0  0  0
    9.0687    0.3846   27.7920 H   0  0  0  0  0  0  0  0  0  0  0  0
    9.6718    1.9344   28.2370 H   0  0  0  0  0  0  0  0  0  0  0  0
    8.8619   -0.8391   23.1723 H   0  0  0  0  0  0  0  0  0  0  0  0
  1  2  2  0  0  0  0
  1  4  1  0  0  0  0
  2  7  1  0  0  0  0
  3  5  2  0  0  0  0
  3  7  1  0  0  0  0
  4  9  2  0  0  0  0
  5 10  1  0  0  0  0
  6  8  1  0  0  0  0
  6 10  2  0  0  0  0
  7  8  2  0  0  0  0
  8  9  1  0  0  0  0
  9 16  1  0  0  0  0
 10 24  1  0  0  0  0
 11 17  1  0  0  0  0
 11 18  1  0  0  0  0
 11 21  2  0  0  0  0
 12 14  1  0  0  0  0
 12 18  1  0  0  0  0
 13 15  1  0  0  0  0
 13 18  1  0  0  0  0
 14 20  1  0  0  0  0
 15 20  1  0  0  0  0
 16 20  1  0  0  0  0
 17 25  1  0  0  0  0
 19 24  1  0  0  0  0
 22 24  2  0  0  0  0
 23 24  2  0  0  0  0
  1 26  1  0  0  0  0
  2 27  1  0  0  0  0
  3 28  1  0  0  0  0
  4 29  1  0  0  0  0
  5 30  1  0  0  0  0
  6 31  1  0  0  0  0
 12 32  1  0  0  0  0
 12 33  1  0  0  0  0
 13 34  1  0  0  0  0
 13 35  1  0  0  0  0
 14 36  1  0  0  0  0
 14 37  1  0  0  0  0
 15 38  1  0  0  0  0
 15 39  1  0  0  0  0
 16 40  1  0  0  0  0
 16 41  1  0  0  0  0
 17 42  1  0  0  0  0
 17 43  1  0  0  0  0
 19 44  1  0  0  0  0
 19 45  1  0  0  0  0
 20 46  1  0  0  0  0
M  CHG  1  20   1
M  END
> <Chemgauss4>
-8.459105

> <ref_pdb>
x0830_0

> <CYS145-warhead min dist (A)>
2.9258037

> <CYS145-warhead avg dist (A)>
3.3901057

> <CYS145-warhead avg dist stderr (A)>
0.010472932

> <original SMILES>
c1cc2ccc(cc2c(c1)C[NH+]3CCN(CC3)C(=O)CCl)S(=O)(=O)N

$$$$
WAR-XCH-bdd-24_thio_pH
  -OEChem-04232002263D

 39 41  0     0  0  0  0  0  0999 V2000
    7.0085   -5.1023   23.6510 C   0  0  0  0  0  0  0  0  0  0  0  0
    8.2466   -4.7753   24.2040 C   0  0  0  0  0  0  0  0  0  0  0  0
   11.0489   -4.2678   24.7943 C   0  0  0  0  0  0  0  0  0  0  0  0
   12.2847   -3.9398   25.3509 C   0  0  0  0  0  0  0  0  0  0  0  0
    6.4152   -4.2523   22.7176 C   0  0  0  0  0  0  0  0  0  0  0  0
   10.5396   -1.9221   24.5514 C   0  0  0  0  0  0  0  0  0  0  0  0
    8.2980   -2.7483   22.8903 C   0  0  0  0  0  0  0  0  0  0  0  0
   10.1758   -3.2594   24.3969 C   0  0  0  0  0  0  0  0  0  0  0  0
    8.8913   -3.5983   23.8237 C   0  0  0  0  0  0  0  0  0  0  0  0
   12.6585   -2.5981   25.5212 C   0  0  0  0  0  0  0  0  0  0  0  0
   11.7844   -1.5788   25.1003 C   0  0  0  0  0  0  0  0  0  0  0  0
    7.0599   -3.0753   22.3373 C   0  0  0  0  0  0  0  0  0  0  0  0
    5.6152   -2.6080   20.3733 C   0  0  0  0  0  0  0  0  0  0  0  0
   14.0173   -2.2839   26.0959 C   0  0  0  0  0  0  0  0  0  0  0  0
   12.1277   -0.1212   25.2817 C   0  0  0  0  0  0  0  0  0  0  0  0
   14.1501   -0.8398   26.5756 C   0  0  0  0  0  0  0  0  0  0  0  0
   13.6164    0.1223   25.5220 C   0  0  0  0  0  0  0  0  0  0  0  0
    5.1564   -1.4232   19.5553 C   0  0  0  0  0  0  0  0  0  0  0  0
    6.4648   -2.2250   21.4049 N   0  0  0  0  0  0  0  0  0  0  0  0
    5.2479   -3.7419   20.0775 O   0  0  0  0  0  0  0  0  0  0  0  0
    6.5945   -0.6538   18.8655 Cl  0  0  0  0  0  0  0  0  0  0  0  0
    6.5065   -6.0187   23.9471 H   0  0  0  0  0  0  0  0  0  0  0  0
    8.6960   -5.4485   24.9299 H   0  0  0  0  0  0  0  0  0  0  0  0
   10.7816   -5.3154   24.6780 H   0  0  0  0  0  0  0  0  0  0  0  0
   12.9588   -4.7377   25.6527 H   0  0  0  0  0  0  0  0  0  0  0  0
    5.4499   -4.5172   22.2941 H   0  0  0  0  0  0  0  0  0  0  0  0
    9.8561   -1.1327   24.2429 H   0  0  0  0  0  0  0  0  0  0  0  0
    8.7977   -1.8289   22.5901 H   0  0  0  0  0  0  0  0  0  0  0  0
   14.2307   -2.9545   26.9369 H   0  0  0  0  0  0  0  0  0  0  0  0
   14.7675   -2.4777   25.3190 H   0  0  0  0  0  0  0  0  0  0  0  0
   11.8168    0.4483   24.3977 H   0  0  0  0  0  0  0  0  0  0  0  0
   11.5561    0.2582   26.1378 H   0  0  0  0  0  0  0  0  0  0  0  0
   13.5934   -0.7045   27.5117 H   0  0  0  0  0  0  0  0  0  0  0  0
   15.2015   -0.6192   26.7919 H   0  0  0  0  0  0  0  0  0  0  0  0
   14.1730   -0.0128   24.5861 H   0  0  0  0  0  0  0  0  0  0  0  0
   13.7726    1.1584   25.8422 H   0  0  0  0  0  0  0  0  0  0  0  0
    4.6114   -0.6847   20.1486 H   0  0  0  0  0  0  0  0  0  0  0  0
    4.5116   -1.7695   18.7427 H   0  0  0  0  0  0  0  0  0  0  0  0
    6.6720   -1.2314   21.4876 H   0  0  0  0  0  0  0  0  0  0  0  0
  1  2  2  0  0  0  0
  1  5  1  0  0  0  0
  2  9  1  0  0  0  0
  3  4  1  0  0  0  0
  3  8  2  0  0  0  0
  4 10  2  0  0  0  0
  5 12  2  0  0  0  0
  6  8  1  0  0  0  0
  6 11  2  0  0  0  0
  7  9  2  0  0  0  0
  7 12  1  0  0  0  0
  8  9  1  0  0  0  0
 10 11  1  0  0  0  0
 10 14  1  0  0  0  0
 11 15  1  0  0  0  0
 12 19  1  0  0  0  0
 13 18  1  0  0  0  0
 13 19  1  0  0  0  0
 13 20  2  0  0  0  0
 14 16  1  0  0  0  0
 15 17  1  0  0  0  0
 16 17  1  0  0  0  0
 18 21  1  0  0  0  0
  1 22  1  0  0  0  0
  2 23  1  0  0  0  0
  3 24  1  0  0  0  0
  4 25  1  0  0  0  0
  5 26  1  0  0  0  0
  6 27  1  0  0  0  0
  7 28  1  0  0  0  0
 14 29  1  0  0  0  0
 14 30  1  0  0  0  0
 15 31  1  0  0  0  0
 15 32  1  0  0  0  0
 16 33  1  0  0  0  0
 16 34  1  0  0  0  0
 17 35  1  0  0  0  0
 17 36  1  0  0  0  0
 18 37  1  0  0  0  0
 18 38  1  0  0  0  0
 19 39  1  0  0  0  0
M  END
> <Chemgauss4>
-8.441029

> <ref_pdb>
x0749_0

> <CYS145-warhead min dist (A)>
3.0318701

> <CYS145-warhead avg dist (A)>
3.7289941

> <CYS145-warhead avg dist stderr (A)>
0.011382726

> <original SMILES>
c1cc(cc(c1)NC(=O)CCl)c2ccc3c(c2)CCCC3

$$$$
ANT-OPE-d97-1
  -OEChem-04232002263D

 36 37  0     0  0  0  0  0  0999 V2000
   12.3032   -0.8580   24.2783 C   0  0  0  0  0  0  0  0  0  0  0  0
   12.2635   -3.1576   25.0181 C   0  0  0  0  0  0  0  0  0  0  0  0
   13.2511   -0.5594   25.2570 C   0  0  0  0  0  0  0  0  0  0  0  0
   13.2115   -2.8591   25.9968 C   0  0  0  0  0  0  0  0  0  0  0  0
   11.8094   -2.1571   24.1588 C   0  0  0  0  0  0  0  0  0  0  0  0
   13.7053   -1.5600   26.1163 C   0  0  0  0  0  0  0  0  0  0  0  0
    4.9291   -6.1596   23.7878 C   0  0  0  0  0  0  0  0  0  0  0  0
    6.1223   -6.2163   23.1925 C   0  0  0  0  0  0  0  0  0  0  0  0
    6.5176   -5.1233   22.2816 C   0  0  0  0  0  0  0  0  0  0  0  0
    8.0846   -3.3118   21.7082 C   0  0  0  0  0  0  0  0  0  0  0  0
    8.5785   -4.6670   23.7169 C   0  0  0  0  0  0  0  0  0  0  0  0
    8.3836   -2.0341   22.4765 C   0  0  0  0  0  0  0  0  0  0  0  0
    8.8971   -3.3989   24.5001 C   0  0  0  0  0  0  0  0  0  0  0  0
   10.7903   -2.4790   23.1058 C   0  0  0  0  0  0  0  0  0  0  0  0
    7.6645   -4.3974   22.5976 N   0  0  0  0  0  0  0  0  0  0  0  0
    9.3747   -2.3022   23.5820 N   0  3  0  0  0  0  0  0  0  0  0  0
    5.8106   -4.9231   21.2924 O   0  0  0  0  0  0  0  0  0  0  0  0
   14.6176   -1.2740   27.0545 F   0  0  0  0  0  0  0  0  0  0  0  0
   11.9548   -0.0716   23.6139 H   0  0  0  0  0  0  0  0  0  0  0  0
   11.8847   -4.1727   24.9323 H   0  0  0  0  0  0  0  0  0  0  0  0
   13.6361    0.4516   25.3497 H   0  0  0  0  0  0  0  0  0  0  0  0
   13.5650   -3.6376   26.6662 H   0  0  0  0  0  0  0  0  0  0  0  0
    4.5829   -6.9317   24.4667 H   0  0  0  0  0  0  0  0  0  0  0  0
    4.2668   -5.3210   23.6004 H   0  0  0  0  0  0  0  0  0  0  0  0
    6.8104   -7.0357   23.3545 H   0  0  0  0  0  0  0  0  0  0  0  0
    7.2733   -3.1493   20.9843 H   0  0  0  0  0  0  0  0  0  0  0  0
    8.9781   -3.5775   21.1359 H   0  0  0  0  0  0  0  0  0  0  0  0
    9.5084   -5.1176   23.3580 H   0  0  0  0  0  0  0  0  0  0  0  0
    8.0905   -5.4064   24.3624 H   0  0  0  0  0  0  0  0  0  0  0  0
    8.8098   -1.2551   21.8256 H   0  0  0  0  0  0  0  0  0  0  0  0
    7.4691   -1.6435   22.9464 H   0  0  0  0  0  0  0  0  0  0  0  0
    7.9931   -3.0273   25.0123 H   0  0  0  0  0  0  0  0  0  0  0  0
    9.6812   -3.5718   25.2589 H   0  0  0  0  0  0  0  0  0  0  0  0
   10.9100   -1.8340   22.2287 H   0  0  0  0  0  0  0  0  0  0  0  0
   10.8822   -3.5179   22.7710 H   0  0  0  0  0  0  0  0  0  0  0  0
    9.3890   -1.4202   24.1728 H   0  0  0  0  0  0  0  0  0  0  0  0
  1  3  2  0  0  0  0
  1  5  1  0  0  0  0
  2  4  1  0  0  0  0
  2  5  2  0  0  0  0
  3  6  1  0  0  0  0
  4  6  2  0  0  0  0
  5 14  1  0  0  0  0
  6 18  1  0  0  0  0
  7  8  2  0  0  0  0
  8  9  1  0  0  0  0
  9 15  1  0  0  0  0
  9 17  2  0  0  0  0
 10 12  1  0  0  0  0
 10 15  1  0  0  0  0
 11 13  1  0  0  0  0
 11 15  1  0  0  0  0
 12 16  1  0  0  0  0
 13 16  1  0  0  0  0
 14 16  1  0  0  0  0
  1 19  1  0  0  0  0
  2 20  1  0  0  0  0
  3 21  1  0  0  0  0
  4 22  1  0  0  0  0
  7 23  1  0  0  0  0
  7 24  1  0  0  0  0
  8 25  1  0  0  0  0
 10 26  1  0  0  0  0
 10 27  1  0  0  0  0
 11 28  1  0  0  0  0
 11 29  1  0  0  0  0
 12 30  1  0  0  0  0
 12 31  1  0  0  0  0
 13 32  1  0  0  0  0
 13 33  1  0  0  0  0
 14 34  1  0  0  0  0
 14 35  1  0  0  0  0
 16 36  1  0  0  0  0
M  CHG  1  16   1
M  END
> <Chemgauss4>
-8.420847

> <ref_pdb>
x0749_0

> <CYS145-warhead min dist (A)>
12.448147

> <CYS145-warhead avg dist (A)>
13.444752

> <CYS145-warhead avg dist stderr (A)>
0.067509525

> <original SMILES>
C=CC(=O)N1CC[NH+](CC1)Cc2ccc(cc2)F

$$$$
JOH-UNI-27a-30_thio_pH
  -OEChem-04232002263D

 34 35  0     0  0  0  0  0  0999 V2000
   13.5982   -2.8778   25.3522 C   0  0  0  0  0  0  0  0  0  0  0  0
   12.4469   -3.6531   25.2148 C   0  0  0  0  0  0  0  0  0  0  0  0
   13.5277   -1.4923   25.2062 C   0  0  0  0  0  0  0  0  0  0  0  0
   11.1544   -1.6575   24.7854 C   0  0  0  0  0  0  0  0  0  0  0  0
   11.2250   -3.0430   24.9314 C   0  0  0  0  0  0  0  0  0  0  0  0
   12.3057   -0.8822   24.9228 C   0  0  0  0  0  0  0  0  0  0  0  0
    6.0169   -3.1743   21.7549 C   0  0  0  0  0  0  0  0  0  0  0  0
    8.3052   -2.4427   22.5773 C   0  0  0  0  0  0  0  0  0  0  0  0
    7.2880   -4.5507   23.3650 C   0  0  0  0  0  0  0  0  0  0  0  0
    9.6520   -3.1640   22.4807 C   0  0  0  0  0  0  0  0  0  0  0  0
    8.6551   -5.2259   23.2466 C   0  0  0  0  0  0  0  0  0  0  0  0
    5.9157   -1.8683   21.0077 C   0  0  0  0  0  0  0  0  0  0  0  0
    9.9810   -3.8818   24.7819 C   0  0  0  0  0  0  0  0  0  0  0  0
    7.1868   -3.3871   22.4845 N   0  0  0  0  0  0  0  0  0  0  0  0
    9.7887   -4.3041   23.3967 N   0  0  0  0  0  0  0  0  0  0  0  0
    5.0861   -3.9813   21.6886 O   0  0  0  0  0  0  0  0  0  0  0  0
   10.0218   -5.0024   25.5604 F   0  0  0  0  0  0  0  0  0  0  0  0
    8.8565   -3.2193   25.1805 F   0  0  0  0  0  0  0  0  0  0  0  0
   12.2195    0.8270   24.7417 Cl  0  0  0  0  0  0  0  0  0  0  0  0
    6.6262   -2.1397   19.4205 Cl  0  0  0  0  0  0  0  0  0  0  0  0
   14.5496   -3.3532   25.5727 H   0  0  0  0  0  0  0  0  0  0  0  0
   12.5112   -4.7319   25.3301 H   0  0  0  0  0  0  0  0  0  0  0  0
   14.4332   -0.9006   25.3157 H   0  0  0  0  0  0  0  0  0  0  0  0
   10.1992   -1.1866   24.5650 H   0  0  0  0  0  0  0  0  0  0  0  0
    8.2127   -1.9323   23.5446 H   0  0  0  0  0  0  0  0  0  0  0  0
    8.2530   -1.6750   21.8020 H   0  0  0  0  0  0  0  0  0  0  0  0
    6.4976   -5.2756   23.1412 H   0  0  0  0  0  0  0  0  0  0  0  0
    7.1216   -4.1955   24.3903 H   0  0  0  0  0  0  0  0  0  0  0  0
    9.8186   -3.4850   21.4290 H   0  0  0  0  0  0  0  0  0  0  0  0
   10.4504   -2.4232   22.6936 H   0  0  0  0  0  0  0  0  0  0  0  0
    8.7144   -6.0129   24.0270 H   0  0  0  0  0  0  0  0  0  0  0  0
    8.7143   -5.7661   22.2760 H   0  0  0  0  0  0  0  0  0  0  0  0
    6.4787   -1.1125   21.5433 H   0  0  0  0  0  0  0  0  0  0  0  0
    4.8700   -1.6014   20.9069 H   0  0  0  0  0  0  0  0  0  0  0  0
  1  2  2  0  0  0  0
  1  3  1  0  0  0  0
  2  5  1  0  0  0  0
  3  6  2  0  0  0  0
  4  5  2  0  0  0  0
  4  6  1  0  0  0  0
  5 13  1  0  0  0  0
  6 19  1  0  0  0  0
  7 12  1  0  0  0  0
  7 14  1  0  0  0  0
  7 16  2  0  0  0  0
  8 10  1  0  0  0  0
  8 14  1  0  0  0  0
  9 11  1  0  0  0  0
  9 14  1  0  0  0  0
 10 15  1  0  0  0  0
 11 15  1  0  0  0  0
 12 20  1  0  0  0  0
 13 15  1  0  0  0  0
 13 17  1  0  0  0  0
 13 18  1  0  0  0  0
  1 21  1  0  0  0  0
  2 22  1  0  0  0  0
  3 23  1  0  0  0  0
  4 24  1  0  0  0  0
  8 25  1  0  0  0  0
  8 26  1  0  0  0  0
  9 27  1  0  0  0  0
  9 28  1  0  0  0  0
 10 29  1  0  0  0  0
 10 30  1  0  0  0  0
 11 31  1  0  0  0  0
 11 32  1  0  0  0  0
 12 33  1  0  0  0  0
 12 34  1  0  0  0  0
M  END
> <Chemgauss4>
-8.378252

> <ref_pdb>
x0749_0

> <CYS145-warhead min dist (A)>
2.902918

> <CYS145-warhead avg dist (A)>
3.4003465

> <CYS145-warhead avg dist stderr (A)>
0.017750714

> <original SMILES>
c1cc(cc(c1)Cl)C(N2CCN(CC2)C(=O)CCl)(F)F

$$$$
NIR-THE-c33-2
  -OEChem-04232002263D

 37 39  0     1  0  0  0  0  0999 V2000
   12.5233    2.4749   23.2447 C   0  0  0  0  0  0  0  0  0  0  0  0
    7.6847   -3.9762   25.2280 C   0  0  0  0  0  0  0  0  0  0  0  0
    8.5778   -2.9912   25.6343 C   0  0  0  0  0  0  0  0  0  0  0  0
   12.8765   -1.1598   22.5233 C   0  0  0  0  0  0  0  0  0  0  0  0
   13.2011    0.1668   22.8064 C   0  0  0  0  0  0  0  0  0  0  0  0
    7.2248   -3.9950   23.9131 C   0  0  0  0  0  0  0  0  0  0  0  0
    9.0251   -2.0348   24.7220 C   0  0  0  0  0  0  0  0  0  0  0  0
   11.5404   -1.5374   22.3886 C   0  0  0  0  0  0  0  0  0  0  0  0
   10.8537    0.7383   22.8204 C   0  0  0  0  0  0  0  0  0  0  0  0
   12.1898    1.1159   22.9551 C   0  0  0  0  0  0  0  0  0  0  0  0
   10.5290   -0.5883   22.5372 C   0  0  0  0  0  0  0  0  0  0  0  0
    7.6590   -3.0322   22.9873 C   0  0  0  0  0  0  0  0  0  0  0  0
    8.5997   -2.0591   23.3818 C   0  0  0  0  0  0  0  0  0  0  0  0
    6.6077   -1.3218   19.8253 C   0  0  0  0  0  0  0  0  0  0  0  0
    7.0995   -3.0823   21.5854 C   0  0  0  0  0  0  0  0  0  0  0  0
    8.8126   -1.4317   20.9356 C   0  0  0  0  0  0  0  0  0  0  0  0
    9.0710   -1.0007   22.3903 C   0  0  2  0  0  0  0  0  0  0  0  0
    7.1576   -0.1202   19.0978 C   0  0  0  0  0  0  0  0  0  0  0  0
   12.7941    3.5786   23.4798 N   0  0  0  0  0  0  0  0  0  0  0  0
    7.4425   -1.9090   20.7766 N   0  0  0  0  0  0  0  0  0  0  0  0
    5.4746   -1.7262   19.5529 O   0  0  0  0  0  0  0  0  0  0  0  0
    5.9214    0.3819   17.9504 Cl  0  0  0  0  0  0  0  0  0  0  0  0
    7.3467   -4.7290   25.9331 H   0  0  0  0  0  0  0  0  0  0  0  0
    8.9276   -2.9638   26.6626 H   0  0  0  0  0  0  0  0  0  0  0  0
   13.6636   -1.8993   22.4086 H   0  0  0  0  0  0  0  0  0  0  0  0
   14.2471    0.4461   22.9081 H   0  0  0  0  0  0  0  0  0  0  0  0
    6.5241   -4.7685   23.6063 H   0  0  0  0  0  0  0  0  0  0  0  0
    9.7119   -1.2610   25.0630 H   0  0  0  0  0  0  0  0  0  0  0  0
   11.2975   -2.5733   22.1673 H   0  0  0  0  0  0  0  0  0  0  0  0
   10.0603    1.4739   22.9363 H   0  0  0  0  0  0  0  0  0  0  0  0
    7.4619   -3.9876   21.0981 H   0  0  0  0  0  0  0  0  0  0  0  0
    6.0081   -3.1218   21.6361 H   0  0  0  0  0  0  0  0  0  0  0  0
    8.9250   -0.5744   20.2652 H   0  0  0  0  0  0  0  0  0  0  0  0
    9.5333   -2.1892   20.6223 H   0  0  0  0  0  0  0  0  0  0  0  0
    8.4683   -0.0735   22.5522 H   0  0  0  0  0  0  0  0  0  0  0  0
    8.0587   -0.4115   18.5710 H   0  0  0  0  0  0  0  0  0  0  0  0
    7.3427    0.6698   19.8161 H   0  0  0  0  0  0  0  0  0  0  0  0
  1 10  1  0  0  0  0
  1 19  3  0  0  0  0
  2  3  1  0  0  0  0
  2  6  2  0  0  0  0
  3  7  2  0  0  0  0
  4  5  2  0  0  0  0
  4  8  1  0  0  0  0
  5 10  1  0  0  0  0
  6 12  1  0  0  0  0
  7 13  1  0  0  0  0
  8 11  2  0  0  0  0
  9 10  2  0  0  0  0
  9 11  1  0  0  0  0
 11 17  1  0  0  0  0
 12 13  2  0  0  0  0
 12 15  1  0  0  0  0
 13 17  1  0  0  0  0
 14 18  1  0  0  0  0
 14 20  1  0  0  0  0
 14 21  2  0  0  0  0
 15 20  1  0  0  0  0
 16 17  1  0  0  0  0
 16 20  1  0  0  0  0
 18 22  1  0  0  0  0
  2 23  1  0  0  0  0
  3 24  1  0  0  0  0
  4 25  1  0  0  0  0
  5 26  1  0  0  0  0
  6 27  1  0  0  0  0
  7 28  1  0  0  0  0
  8 29  1  0  0  0  0
  9 30  1  0  0  0  0
 15 31  1  0  0  0  0
 15 32  1  0  0  0  0
 16 33  1  0  0  0  0
 16 34  1  0  0  0  0
 17 35  1  0  0  0  0
 18 36  1  0  0  0  0
 18 37  1  0  0  0  0
M  END
> <Chemgauss4>
-8.371096

> <ref_pdb>
x0708_0

> <CYS145-warhead min dist (A)>
5.449769

> <CYS145-warhead avg dist (A)>
6.327262

> <CYS145-warhead avg dist stderr (A)>
0.033774476

> <original SMILES>
c1ccc2c(c1)CN(C[C@@H]2c3cccc(c3)C#N)C(=O)CCl

$$$$
NEH-REV-107-5
  -OEChem-04232002263D

 37 38  0     0  0  0  0  0  0999 V2000
   13.7839   -0.8217   24.8904 C   0  0  0  0  0  0  0  0  0  0  0  0
   12.5147   -0.3778   24.5195 C   0  0  0  0  0  0  0  0  0  0  0  0
   12.8280   -2.8952   25.6803 C   0  0  0  0  0  0  0  0  0  0  0  0
   11.5587   -2.4513   25.3094 C   0  0  0  0  0  0  0  0  0  0  0  0
   13.9406   -2.0805   25.4708 C   0  0  0  0  0  0  0  0  0  0  0  0
   11.4020   -1.1926   24.7290 C   0  0  0  0  0  0  0  0  0  0  0  0
    6.9209   -4.7471   22.0612 C   0  0  0  0  0  0  0  0  0  0  0  0
    8.9354   -3.4752   22.7242 C   0  0  0  0  0  0  0  0  0  0  0  0
    7.8264   -4.8686   24.4337 C   0  0  0  0  0  0  0  0  0  0  0  0
   10.2925   -4.0414   23.1156 C   0  0  0  0  0  0  0  0  0  0  0  0
    9.1698   -5.4523   24.8507 C   0  0  0  0  0  0  0  0  0  0  0  0
   10.3732   -3.3409   25.5422 C   0  0  0  0  0  0  0  0  0  0  0  0
    6.3171   -6.1263   22.1455 C   0  0  0  0  0  0  0  0  0  0  0  0
    7.8579   -4.4139   23.0391 N   0  0  0  0  0  0  0  0  0  0  0  0
   10.2885   -4.4787   24.5620 N   0  3  0  0  0  0  0  0  0  0  0  0
    6.5709   -3.9911   21.1512 O   0  0  0  0  0  0  0  0  0  0  0  0
   15.1793   -2.5133   25.8322 O   0  0  0  0  0  0  0  0  0  0  0  0
   10.1693   -0.7430   24.3619 O   0  0  0  0  0  0  0  0  0  0  0  0
    4.9007   -5.9936   23.1819 Cl  0  0  0  0  0  0  0  0  0  0  0  0
   14.6469   -0.1830   24.7243 H   0  0  0  0  0  0  0  0  0  0  0  0
   12.4001    0.6030   24.0656 H   0  0  0  0  0  0  0  0  0  0  0  0
   12.9535   -3.8756   26.1336 H   0  0  0  0  0  0  0  0  0  0  0  0
    8.7778   -2.5185   23.2338 H   0  0  0  0  0  0  0  0  0  0  0  0
    8.8940   -3.2768   21.6454 H   0  0  0  0  0  0  0  0  0  0  0  0
    7.0362   -5.6264   24.5105 H   0  0  0  0  0  0  0  0  0  0  0  0
    7.5596   -4.0613   25.1191 H   0  0  0  0  0  0  0  0  0  0  0  0
   10.5310   -4.9280   22.5074 H   0  0  0  0  0  0  0  0  0  0  0  0
   11.0983   -3.2992   22.9909 H   0  0  0  0  0  0  0  0  0  0  0  0
    9.1978   -5.6869   25.9277 H   0  0  0  0  0  0  0  0  0  0  0  0
    9.3833   -6.3717   24.2831 H   0  0  0  0  0  0  0  0  0  0  0  0
   10.4041   -3.7883   26.5415 H   0  0  0  0  0  0  0  0  0  0  0  0
    9.4356   -2.7811   25.4561 H   0  0  0  0  0  0  0  0  0  0  0  0
    7.0410   -6.8004   22.5891 H   0  0  0  0  0  0  0  0  0  0  0  0
    6.0228   -6.4425   21.1513 H   0  0  0  0  0  0  0  0  0  0  0  0
   11.1858   -5.0282   24.6967 H   0  0  0  0  0  0  0  0  0  0  0  0
   15.1256   -3.4016   26.2193 H   0  0  0  0  0  0  0  0  0  0  0  0
   10.2374    0.1451   23.9778 H   0  0  0  0  0  0  0  0  0  0  0  0
  1  2  2  0  0  0  0
  1  5  1  0  0  0  0
  2  6  1  0  0  0  0
  3  4  1  0  0  0  0
  3  5  2  0  0  0  0
  4  6  2  0  0  0  0
  4 12  1  0  0  0  0
  5 17  1  0  0  0  0
  6 18  1  0  0  0  0
  7 13  1  0  0  0  0
  7 14  1  0  0  0  0
  7 16  2  0  0  0  0
  8 10  1  0  0  0  0
  8 14  1  0  0  0  0
  9 11  1  0  0  0  0
  9 14  1  0  0  0  0
 10 15  1  0  0  0  0
 11 15  1  0  0  0  0
 12 15  1  0  0  0  0
 13 19  1  0  0  0  0
  1 20  1  0  0  0  0
  2 21  1  0  0  0  0
  3 22  1  0  0  0  0
  8 23  1  0  0  0  0
  8 24  1  0  0  0  0
  9 25  1  0  0  0  0
  9 26  1  0  0  0  0
 10 27  1  0  0  0  0
 10 28  1  0  0  0  0
 11 29  1  0  0  0  0
 11 30  1  0  0  0  0
 12 31  1  0  0  0  0
 12 32  1  0  0  0  0
 13 33  1  0  0  0  0
 13 34  1  0  0  0  0
 15 35  1  0  0  0  0
 17 36  1  0  0  0  0
 18 37  1  0  0  0  0
M  CHG  1  15   1
M  END
> <Chemgauss4>
-8.370396

> <ref_pdb>
x0749_0

> <CYS145-warhead min dist (A)>
7.570281

> <CYS145-warhead avg dist (A)>
8.6327505

> <CYS145-warhead avg dist stderr (A)>
0.061047703

> <original SMILES>
c1cc(c(cc1O)C[NH+]2CCN(CC2)C(=O)CCl)O

$$$$
SEA-TRI-2c7-1_thio_pH
  -OEChem-04232002263D

 48 50  0     1  0  0  0  0  0999 V2000
    7.2685   -2.0972   26.6375 C   0  0  0  0  0  0  0  0  0  0  0  0
   11.0998    1.5657   24.5052 C   0  0  0  0  0  0  0  0  0  0  0  0
    7.8976   -3.1900   27.2339 C   0  0  0  0  0  0  0  0  0  0  0  0
    7.7376   -1.6007   25.4213 C   0  0  0  0  0  0  0  0  0  0  0  0
   10.1167    0.5912   24.3337 C   0  0  0  0  0  0  0  0  0  0  0  0
   12.3849    1.3556   24.0051 C   0  0  0  0  0  0  0  0  0  0  0  0
    9.4651   -3.2895   25.3981 C   0  0  0  0  0  0  0  0  0  0  0  0
   11.7038   -0.8037   23.1621 C   0  0  0  0  0  0  0  0  0  0  0  0
    8.9959   -3.7861   26.6143 C   0  0  0  0  0  0  0  0  0  0  0  0
    8.8359   -2.1968   24.8017 C   0  0  0  0  0  0  0  0  0  0  0  0
   10.4187   -0.5935   23.6622 C   0  0  0  0  0  0  0  0  0  0  0  0
   12.6869    0.1709   23.3336 C   0  0  0  0  0  0  0  0  0  0  0  0
    6.1891   -1.5455   18.9267 C   0  0  0  0  0  0  0  0  0  0  0  0
    6.1492   -1.7904   21.3883 C   0  0  0  0  0  0  0  0  0  0  0  0
    7.6584   -0.1012   20.4177 C   0  0  0  0  0  0  0  0  0  0  0  0
    7.2776   -2.3309   22.2544 C   0  0  0  0  0  0  0  0  0  0  0  0
    8.8099   -0.6154   21.2711 C   0  0  0  0  0  0  0  0  0  0  0  0
    9.6671   -4.9554   27.2519 C   0  0  0  0  0  0  0  0  0  0  0  0
    6.1947   -0.4933   17.8466 C   0  0  0  0  0  0  0  0  0  0  0  0
    9.3475   -1.6552   23.4768 C   0  0  2  0  0  0  0  0  0  0  0  0
    6.6724   -1.1600   20.1762 N   0  0  0  0  0  0  0  0  0  0  0  0
    8.2548   -1.2136   22.5444 N   0  3  0  0  0  0  0  0  0  0  0  0
    5.7698   -2.6759   18.6651 O   0  0  0  0  0  0  0  0  0  0  0  0
   14.2729   -0.0883   22.7179 Cl  0  0  0  0  0  0  0  0  0  0  0  0
    5.1512    0.8088   18.4063 Cl  0  0  0  0  0  0  0  0  0  0  0  0
    6.4131   -1.6332   27.1200 H   0  0  0  0  0  0  0  0  0  0  0  0
   10.8642    2.4881   25.0283 H   0  0  0  0  0  0  0  0  0  0  0  0
    7.5247   -3.5703   28.1814 H   0  0  0  0  0  0  0  0  0  0  0  0
    7.2417   -0.7484   24.9642 H   0  0  0  0  0  0  0  0  0  0  0  0
    9.1181    0.7634   24.7268 H   0  0  0  0  0  0  0  0  0  0  0  0
   13.1412    2.1238   24.1464 H   0  0  0  0  0  0  0  0  0  0  0  0
   10.3207   -3.7545   24.9141 H   0  0  0  0  0  0  0  0  0  0  0  0
   11.9341   -1.7288   22.6389 H   0  0  0  0  0  0  0  0  0  0  0  0
    5.4601   -2.6028   21.1370 H   0  0  0  0  0  0  0  0  0  0  0  0
    5.5723   -1.0318   21.9312 H   0  0  0  0  0  0  0  0  0  0  0  0
    7.1372    0.7185   20.9269 H   0  0  0  0  0  0  0  0  0  0  0  0
    8.0573    0.3040   19.4862 H   0  0  0  0  0  0  0  0  0  0  0  0
    6.8915   -2.6846   23.2158 H   0  0  0  0  0  0  0  0  0  0  0  0
    7.8269   -3.1382   21.7571 H   0  0  0  0  0  0  0  0  0  0  0  0
    9.3862   -1.3929   20.7573 H   0  0  0  0  0  0  0  0  0  0  0  0
    9.4735    0.2063   21.5592 H   0  0  0  0  0  0  0  0  0  0  0  0
    9.2087   -5.8917   26.9108 H   0  0  0  0  0  0  0  0  0  0  0  0
   10.7370   -4.9826   27.0078 H   0  0  0  0  0  0  0  0  0  0  0  0
    9.5922   -4.9097   28.3463 H   0  0  0  0  0  0  0  0  0  0  0  0
    5.7965   -0.9236   16.9347 H   0  0  0  0  0  0  0  0  0  0  0  0
    7.2073   -0.1291   17.7161 H   0  0  0  0  0  0  0  0  0  0  0  0
    9.7845   -2.5009   22.9288 H   0  0  0  0  0  0  0  0  0  0  0  0
    7.7364   -0.4700   23.0323 H   0  0  0  0  0  0  0  0  0  0  0  0
  1  3  2  0  0  0  0
  1  4  1  0  0  0  0
  2  5  2  0  0  0  0
  2  6  1  0  0  0  0
  3  9  1  0  0  0  0
  4 10  2  0  0  0  0
  5 11  1  0  0  0  0
  6 12  2  0  0  0  0
  7  9  2  0  0  0  0
  7 10  1  0  0  0  0
  8 11  2  0  0  0  0
  8 12  1  0  0  0  0
  9 18  1  0  0  0  0
 10 20  1  0  0  0  0
 11 20  1  0  0  0  0
 12 24  1  0  0  0  0
 13 19  1  0  0  0  0
 13 21  1  0  0  0  0
 13 23  2  0  0  0  0
 14 16  1  0  0  0  0
 14 21  1  0  0  0  0
 15 17  1  0  0  0  0
 15 21  1  0  0  0  0
 16 22  1  0  0  0  0
 17 22  1  0  0  0  0
 19 25  1  0  0  0  0
 20 22  1  0  0  0  0
  1 26  1  0  0  0  0
  2 27  1  0  0  0  0
  3 28  1  0  0  0  0
  4 29  1  0  0  0  0
  5 30  1  0  0  0  0
  6 31  1  0  0  0  0
  7 32  1  0  0  0  0
  8 33  1  0  0  0  0
 14 34  1  0  0  0  0
 14 35  1  0  0  0  0
 15 36  1  0  0  0  0
 15 37  1  0  0  0  0
 16 38  1  0  0  0  0
 16 39  1  0  0  0  0
 17 40  1  0  0  0  0
 17 41  1  0  0  0  0
 18 42  1  0  0  0  0
 18 43  1  0  0  0  0
 18 44  1  0  0  0  0
 19 45  1  0  0  0  0
 19 46  1  0  0  0  0
 20 47  1  0  0  0  0
 22 48  1  0  0  0  0
M  CHG  1  22   1
M  END
> <Chemgauss4>
-8.349833

> <ref_pdb>
x0831_0

> <CYS145-warhead min dist (A)>
2.9121802

> <CYS145-warhead avg dist (A)>
3.3321307

> <CYS145-warhead avg dist stderr (A)>
0.010970432

> <original SMILES>
Cc1cccc(c1)[C@H](c2cccc(c2)Cl)[NH+]3CCN(CC3)C(=O)CCl

$$$$
SIM-SYN-f15-2_thio_pH
  -OEChem-04232002263D

 48 50  0     1  0  0  0  0  0999 V2000
    7.2685   -2.0972   26.6375 C   0  0  0  0  0  0  0  0  0  0  0  0
   11.0998    1.5657   24.5052 C   0  0  0  0  0  0  0  0  0  0  0  0
    7.8976   -3.1900   27.2339 C   0  0  0  0  0  0  0  0  0  0  0  0
    7.7376   -1.6007   25.4213 C   0  0  0  0  0  0  0  0  0  0  0  0
   10.1167    0.5912   24.3337 C   0  0  0  0  0  0  0  0  0  0  0  0
   12.3849    1.3556   24.0051 C   0  0  0  0  0  0  0  0  0  0  0  0
    9.4651   -3.2895   25.3981 C   0  0  0  0  0  0  0  0  0  0  0  0
   11.7038   -0.8037   23.1621 C   0  0  0  0  0  0  0  0  0  0  0  0
    8.9959   -3.7861   26.6143 C   0  0  0  0  0  0  0  0  0  0  0  0
    8.8359   -2.1968   24.8017 C   0  0  0  0  0  0  0  0  0  0  0  0
   10.4187   -0.5935   23.6622 C   0  0  0  0  0  0  0  0  0  0  0  0
   12.6869    0.1709   23.3336 C   0  0  0  0  0  0  0  0  0  0  0  0
    6.1891   -1.5455   18.9267 C   0  0  0  0  0  0  0  0  0  0  0  0
    6.1492   -1.7904   21.3883 C   0  0  0  0  0  0  0  0  0  0  0  0
    7.6584   -0.1012   20.4177 C   0  0  0  0  0  0  0  0  0  0  0  0
    7.2776   -2.3309   22.2544 C   0  0  0  0  0  0  0  0  0  0  0  0
    8.8099   -0.6154   21.2711 C   0  0  0  0  0  0  0  0  0  0  0  0
    9.6671   -4.9554   27.2519 C   0  0  0  0  0  0  0  0  0  0  0  0
    6.1947   -0.4933   17.8466 C   0  0  0  0  0  0  0  0  0  0  0  0
    9.3475   -1.6552   23.4768 C   0  0  2  0  0  0  0  0  0  0  0  0
    6.6724   -1.1600   20.1762 N   0  0  0  0  0  0  0  0  0  0  0  0
    8.2548   -1.2136   22.5444 N   0  3  0  0  0  0  0  0  0  0  0  0
    5.7698   -2.6759   18.6651 O   0  0  0  0  0  0  0  0  0  0  0  0
   14.2729   -0.0883   22.7179 Cl  0  0  0  0  0  0  0  0  0  0  0  0
    5.1512    0.8088   18.4063 Cl  0  0  0  0  0  0  0  0  0  0  0  0
    6.4131   -1.6332   27.1200 H   0  0  0  0  0  0  0  0  0  0  0  0
   10.8642    2.4881   25.0283 H   0  0  0  0  0  0  0  0  0  0  0  0
    7.5247   -3.5703   28.1814 H   0  0  0  0  0  0  0  0  0  0  0  0
    7.2417   -0.7484   24.9642 H   0  0  0  0  0  0  0  0  0  0  0  0
    9.1181    0.7634   24.7268 H   0  0  0  0  0  0  0  0  0  0  0  0
   13.1412    2.1238   24.1464 H   0  0  0  0  0  0  0  0  0  0  0  0
   10.3207   -3.7545   24.9141 H   0  0  0  0  0  0  0  0  0  0  0  0
   11.9341   -1.7288   22.6389 H   0  0  0  0  0  0  0  0  0  0  0  0
    5.4601   -2.6028   21.1370 H   0  0  0  0  0  0  0  0  0  0  0  0
    5.5723   -1.0318   21.9312 H   0  0  0  0  0  0  0  0  0  0  0  0
    7.1372    0.7185   20.9269 H   0  0  0  0  0  0  0  0  0  0  0  0
    8.0573    0.3040   19.4862 H   0  0  0  0  0  0  0  0  0  0  0  0
    6.8915   -2.6846   23.2158 H   0  0  0  0  0  0  0  0  0  0  0  0
    7.8269   -3.1382   21.7571 H   0  0  0  0  0  0  0  0  0  0  0  0
    9.3862   -1.3929   20.7573 H   0  0  0  0  0  0  0  0  0  0  0  0
    9.4735    0.2063   21.5592 H   0  0  0  0  0  0  0  0  0  0  0  0
    9.2087   -5.8917   26.9108 H   0  0  0  0  0  0  0  0  0  0  0  0
   10.7370   -4.9826   27.0078 H   0  0  0  0  0  0  0  0  0  0  0  0
    9.5922   -4.9097   28.3463 H   0  0  0  0  0  0  0  0  0  0  0  0
    5.7965   -0.9236   16.9347 H   0  0  0  0  0  0  0  0  0  0  0  0
    7.2073   -0.1291   17.7161 H   0  0  0  0  0  0  0  0  0  0  0  0
    9.7845   -2.5009   22.9288 H   0  0  0  0  0  0  0  0  0  0  0  0
    7.7364   -0.4700   23.0323 H   0  0  0  0  0  0  0  0  0  0  0  0
  1  3  2  0  0  0  0
  1  4  1  0  0  0  0
  2  5  2  0  0  0  0
  2  6  1  0  0  0  0
  3  9  1  0  0  0  0
  4 10  2  0  0  0  0
  5 11  1  0  0  0  0
  6 12  2  0  0  0  0
  7  9  2  0  0  0  0
  7 10  1  0  0  0  0
  8 11  2  0  0  0  0
  8 12  1  0  0  0  0
  9 18  1  0  0  0  0
 10 20  1  0  0  0  0
 11 20  1  0  0  0  0
 12 24  1  0  0  0  0
 13 19  1  0  0  0  0
 13 21  1  0  0  0  0
 13 23  2  0  0  0  0
 14 16  1  0  0  0  0
 14 21  1  0  0  0  0
 15 17  1  0  0  0  0
 15 21  1  0  0  0  0
 16 22  1  0  0  0  0
 17 22  1  0  0  0  0
 19 25  1  0  0  0  0
 20 22  1  0  0  0  0
  1 26  1  0  0  0  0
  2 27  1  0  0  0  0
  3 28  1  0  0  0  0
  4 29  1  0  0  0  0
  5 30  1  0  0  0  0
  6 31  1  0  0  0  0
  7 32  1  0  0  0  0
  8 33  1  0  0  0  0
 14 34  1  0  0  0  0
 14 35  1  0  0  0  0
 15 36  1  0  0  0  0
 15 37  1  0  0  0  0
 16 38  1  0  0  0  0
 16 39  1  0  0  0  0
 17 40  1  0  0  0  0
 17 41  1  0  0  0  0
 18 42  1  0  0  0  0
 18 43  1  0  0  0  0
 18 44  1  0  0  0  0
 19 45  1  0  0  0  0
 19 46  1  0  0  0  0
 20 47  1  0  0  0  0
 22 48  1  0  0  0  0
M  CHG  1  22   1
M  END
> <Chemgauss4>
-8.349833

> <ref_pdb>
x0831_0

> <CYS145-warhead min dist (A)>
2.9017763

> <CYS145-warhead avg dist (A)>
3.3187299

> <CYS145-warhead avg dist stderr (A)>
0.006447841

> <original SMILES>
Cc1cccc(c1)[C@H](c2cccc(c2)Cl)[NH+]3CCN(CC3)C(=O)CCl

$$$$
ANT-OPE-c0c-1
  -OEChem-04232002263D

 39 40  0     1  0  0  0  0  0999 V2000
   13.5802   -0.9092   24.9118 C   0  0  0  0  0  0  0  0  0  0  0  0
   13.7657   -2.2885   24.8197 C   0  0  0  0  0  0  0  0  0  0  0  0
   12.3018   -0.3893   25.1143 C   0  0  0  0  0  0  0  0  0  0  0  0
   12.6727   -3.1481   24.9299 C   0  0  0  0  0  0  0  0  0  0  0  0
   11.2088   -1.2488   25.2245 C   0  0  0  0  0  0  0  0  0  0  0  0
   11.3942   -2.6282   25.1323 C   0  0  0  0  0  0  0  0  0  0  0  0
    4.7795   -4.9179   23.3505 C   0  0  0  0  0  0  0  0  0  0  0  0
    5.7270   -5.6138   22.7185 C   0  0  0  0  0  0  0  0  0  0  0  0
    6.4519   -4.9785   21.5994 C   0  0  0  0  0  0  0  0  0  0  0  0
    8.7062   -2.5128   21.9565 C   0  0  0  0  0  0  0  0  0  0  0  0
    8.6420   -3.7804   21.1089 C   0  0  0  0  0  0  0  0  0  0  0  0
    8.5677   -5.7450   22.6004 C   0  0  0  0  0  0  0  0  0  0  0  0
    8.7006   -2.6907   23.4726 C   0  0  0  0  0  0  0  0  0  0  0  0
    8.8029   -5.1635   23.9882 C   0  0  0  0  0  0  0  0  0  0  0  0
   10.2181   -3.5522   25.2508 C   0  0  0  0  0  0  0  0  0  0  0  0
    7.8339   -4.8399   21.7159 N   0  0  0  0  0  0  0  0  0  0  0  0
    9.5640   -3.8502   23.9234 N   0  3  2  0  0  0  0  0  0  0  0  0
    5.7924   -4.6131   20.6246 O   0  0  0  0  0  0  0  0  0  0  0  0
   14.4316   -0.2401   24.8273 H   0  0  0  0  0  0  0  0  0  0  0  0
   14.7612   -2.6936   24.6631 H   0  0  0  0  0  0  0  0  0  0  0  0
   12.1572    0.6846   25.1871 H   0  0  0  0  0  0  0  0  0  0  0  0
   12.8266   -4.2215   24.8567 H   0  0  0  0  0  0  0  0  0  0  0  0
   10.2163   -0.8348   25.3821 H   0  0  0  0  0  0  0  0  0  0  0  0
    4.2132   -5.3301   24.1790 H   0  0  0  0  0  0  0  0  0  0  0  0
    4.5519   -3.9032   23.0413 H   0  0  0  0  0  0  0  0  0  0  0  0
    5.9827   -6.6275   22.9978 H   0  0  0  0  0  0  0  0  0  0  0  0
    9.5558   -1.8677   21.6377 H   0  0  0  0  0  0  0  0  0  0  0  0
    7.8133   -1.9054   21.6912 H   0  0  0  0  0  0  0  0  0  0  0  0
    8.2215   -3.5330   20.1457 H   0  0  0  0  0  0  0  0  0  0  0  0
    9.6401   -4.1724   20.9778 H   0  0  0  0  0  0  0  0  0  0  0  0
    9.5002   -6.0636   22.1091 H   0  0  0  0  0  0  0  0  0  0  0  0
    7.9814   -6.6692   22.7206 H   0  0  0  0  0  0  0  0  0  0  0  0
    9.1314   -1.7889   23.9341 H   0  0  0  0  0  0  0  0  0  0  0  0
    7.6899   -2.8378   23.8847 H   0  0  0  0  0  0  0  0  0  0  0  0
    7.8741   -4.9927   24.5464 H   0  0  0  0  0  0  0  0  0  0  0  0
    9.4344   -5.8524   24.5617 H   0  0  0  0  0  0  0  0  0  0  0  0
   10.5133   -4.5159   25.6794 H   0  0  0  0  0  0  0  0  0  0  0  0
    9.4422   -3.1242   25.8947 H   0  0  0  0  0  0  0  0  0  0  0  0
   10.3114   -3.9641   23.2446 H   0  0  0  0  0  0  0  0  0  0  0  0
  1  2  1  0  0  0  0
  1  3  2  0  0  0  0
  2  4  2  0  0  0  0
  3  5  1  0  0  0  0
  4  6  1  0  0  0  0
  5  6  2  0  0  0  0
  6 15  1  0  0  0  0
  7  8  2  0  0  0  0
  8  9  1  0  0  0  0
  9 16  1  0  0  0  0
  9 18  2  0  0  0  0
 10 11  1  0  0  0  0
 10 13  1  0  0  0  0
 11 16  1  0  0  0  0
 12 14  1  0  0  0  0
 12 16  1  0  0  0  0
 13 17  1  0  0  0  0
 14 17  1  0  0  0  0
 15 17  1  0  0  0  0
  1 19  1  0  0  0  0
  2 20  1  0  0  0  0
  3 21  1  0  0  0  0
  4 22  1  0  0  0  0
  5 23  1  0  0  0  0
  7 24  1  0  0  0  0
  7 25  1  0  0  0  0
  8 26  1  0  0  0  0
 10 27  1  0  0  0  0
 10 28  1  0  0  0  0
 11 29  1  0  0  0  0
 11 30  1  0  0  0  0
 12 31  1  0  0  0  0
 12 32  1  0  0  0  0
 13 33  1  0  0  0  0
 13 34  1  0  0  0  0
 14 35  1  0  0  0  0
 14 36  1  0  0  0  0
 15 37  1  0  0  0  0
 15 38  1  0  0  0  0
 17 39  1  0  0  0  0
M  CHG  1  17   1
M  END
> <Chemgauss4>
-8.323837

> <ref_pdb>
x0749_0

> <CYS145-warhead min dist (A)>
9.789159

> <CYS145-warhead avg dist (A)>
10.172199

> <CYS145-warhead avg dist stderr (A)>
0.03697302

> <original SMILES>
C=CC(=O)N1CCC[N@H+](CC1)Cc2ccccc2

$$$$
JUA-UNI-bc0-3_thio_pH
  -OEChem-04232002263D

 50 51  0     0  0  0  0  0  0999 V2000
    8.9847   -4.0285   26.5268 C   0  0  0  0  0  0  0  0  0  0  0  0
    9.5608   -5.1652   25.9597 C   0  0  0  0  0  0  0  0  0  0  0  0
    7.9191   -3.3941   25.8881 C   0  0  0  0  0  0  0  0  0  0  0  0
    9.0715   -5.6675   24.7539 C   0  0  0  0  0  0  0  0  0  0  0  0
    7.4298   -3.8964   24.6823 C   0  0  0  0  0  0  0  0  0  0  0  0
    8.0060   -5.0331   24.1152 C   0  0  0  0  0  0  0  0  0  0  0  0
    6.7208   -1.7197   20.5300 C   0  0  0  0  0  0  0  0  0  0  0  0
    6.1955   -2.6042   21.6069 C   0  0  0  0  0  0  0  0  0  0  0  0
    6.3868   -0.1585   18.9060 C   0  0  0  0  0  0  0  0  0  0  0  0
   11.4869   -1.2635   22.6132 C   0  0  0  0  0  0  0  0  0  0  0  0
   10.2863   -0.5401   24.6667 C   0  0  0  0  0  0  0  0  0  0  0  0
   12.4442   -0.1063   22.8430 C   0  0  0  0  0  0  0  0  0  0  0  0
   11.3059    0.5794   24.7907 C   0  0  0  0  0  0  0  0  0  0  0  0
    5.8206    1.5937   17.1715 C   0  0  0  0  0  0  0  0  0  0  0  0
    6.2831   -3.1833   24.0260 C   0  0  0  0  0  0  0  0  0  0  0  0
    5.2918    0.6674   18.2520 C   0  0  0  0  0  0  0  0  0  0  0  0
    7.7266   -1.3805   23.1475 C   0  0  0  0  0  0  0  0  0  0  0  0
    9.1166   -1.9647   22.9793 C   0  0  0  0  0  0  0  0  0  0  0  0
    5.8852   -0.9707   19.9017 N   0  0  0  0  0  0  0  0  0  0  0  0
    6.7148   -2.3980   22.8794 N   0  0  0  0  0  0  0  0  0  0  0  0
   10.1467   -0.8955   23.2050 N   0  3  0  0  0  0  0  0  0  0  0  0
    5.3502   -3.4206   21.2621 O   0  0  0  0  0  0  0  0  0  0  0  0
    7.5618   -0.0773   18.5547 O   0  0  0  0  0  0  0  0  0  0  0  0
   12.5604    0.1783   24.2378 O   0  0  0  0  0  0  0  0  0  0  0  0
    7.4274   -5.6837   22.6248 Cl  0  0  0  0  0  0  0  0  0  0  0  0
    9.3653   -3.6380   27.4662 H   0  0  0  0  0  0  0  0  0  0  0  0
   10.3897   -5.6595   26.4579 H   0  0  0  0  0  0  0  0  0  0  0  0
    7.4772   -2.5093   26.3388 H   0  0  0  0  0  0  0  0  0  0  0  0
    9.5308   -6.5549   24.3258 H   0  0  0  0  0  0  0  0  0  0  0  0
    7.8081   -1.7760   20.3539 H   0  0  0  0  0  0  0  0  0  0  0  0
   11.3396   -1.4523   21.5475 H   0  0  0  0  0  0  0  0  0  0  0  0
   11.8237   -2.1709   23.1222 H   0  0  0  0  0  0  0  0  0  0  0  0
   10.6166   -1.4445   25.1852 H   0  0  0  0  0  0  0  0  0  0  0  0
    9.3044   -0.2263   25.0279 H   0  0  0  0  0  0  0  0  0  0  0  0
   13.4404   -0.3739   22.4768 H   0  0  0  0  0  0  0  0  0  0  0  0
   12.1280    0.7960   22.3059 H   0  0  0  0  0  0  0  0  0  0  0  0
   10.9624    1.4984   24.3010 H   0  0  0  0  0  0  0  0  0  0  0  0
   11.4707    0.8121   25.8474 H   0  0  0  0  0  0  0  0  0  0  0  0
    6.5584    2.2926   17.5792 H   0  0  0  0  0  0  0  0  0  0  0  0
    6.3036    1.0265   16.3691 H   0  0  0  0  0  0  0  0  0  0  0  0
    5.0033    2.1762   16.7350 H   0  0  0  0  0  0  0  0  0  0  0  0
    5.5301   -3.8997   23.6799 H   0  0  0  0  0  0  0  0  0  0  0  0
    5.7880   -2.5051   24.7289 H   0  0  0  0  0  0  0  0  0  0  0  0
    4.5574   -0.0190   17.8164 H   0  0  0  0  0  0  0  0  0  0  0  0
    4.7960    1.2590   19.0293 H   0  0  0  0  0  0  0  0  0  0  0  0
    7.5778   -0.9920   24.1604 H   0  0  0  0  0  0  0  0  0  0  0  0
    7.5780   -0.5569   22.4418 H   0  0  0  0  0  0  0  0  0  0  0  0
    9.2710   -2.3382   21.9631 H   0  0  0  0  0  0  0  0  0  0  0  0
    9.3240   -2.7615   23.6999 H   0  0  0  0  0  0  0  0  0  0  0  0
    9.8167   -0.0509   22.7149 H   0  0  0  0  0  0  0  0  0  0  0  0
  1  2  2  0  0  0  0
  1  3  1  0  0  0  0
  2  4  1  0  0  0  0
  3  5  2  0  0  0  0
  4  6  2  0  0  0  0
  5  6  1  0  0  0  0
  5 15  1  0  0  0  0
  6 25  1  0  0  0  0
  7  8  1  0  0  0  0
  7 19  2  0  0  0  0
  8 20  1  0  0  0  0
  8 22  2  0  0  0  0
  9 16  1  0  0  0  0
  9 19  1  0  0  0  0
  9 23  2  0  0  0  0
 10 12  1  0  0  0  0
 10 21  1  0  0  0  0
 11 13  1  0  0  0  0
 11 21  1  0  0  0  0
 12 24  1  0  0  0  0
 13 24  1  0  0  0  0
 14 16  1  0  0  0  0
 15 20  1  0  0  0  0
 17 18  1  0  0  0  0
 17 20  1  0  0  0  0
 18 21  1  0  0  0  0
  1 26  1  0  0  0  0
  2 27  1  0  0  0  0
  3 28  1  0  0  0  0
  4 29  1  0  0  0  0
  7 30  1  0  0  0  0
 10 31  1  0  0  0  0
 10 32  1  0  0  0  0
 11 33  1  0  0  0  0
 11 34  1  0  0  0  0
 12 35  1  0  0  0  0
 12 36  1  0  0  0  0
 13 37  1  0  0  0  0
 13 38  1  0  0  0  0
 14 39  1  0  0  0  0
 14 40  1  0  0  0  0
 14 41  1  0  0  0  0
 15 42  1  0  0  0  0
 15 43  1  0  0  0  0
 16 44  1  0  0  0  0
 16 45  1  0  0  0  0
 17 46  1  0  0  0  0
 17 47  1  0  0  0  0
 18 48  1  0  0  0  0
 18 49  1  0  0  0  0
 21 50  1  0  0  0  0
M  CHG  1  21   1
M  END
> <Chemgauss4>
-8.322702

> <ref_pdb>
x1392_0

> <original SMILES>
CCC(=O)/N=C/C(=O)N(CC[NH+]1CCOCC1)Cc2ccccc2Cl

$$$$
BOG-INS-8eb-1
  -OEChem-04232002263D

 49 52  0     1  0  0  0  0  0999 V2000
   11.4628   -1.3853   21.6108 C   0  0  0  0  0  0  0  0  0  0  0  0
   12.5195   -0.3769   23.5553 C   0  0  0  0  0  0  0  0  0  0  0  0
   11.6061    2.7516   23.8947 C   0  0  0  0  0  0  0  0  0  0  0  0
    9.5913    2.9896   25.2064 C   0  0  0  0  0  0  0  0  0  0  0  0
    9.8846    4.2956   23.1952 C   0  0  0  0  0  0  0  0  0  0  0  0
   10.2400   -1.4499   22.2813 C   0  0  0  0  0  0  0  0  0  0  0  0
   11.2986   -0.4381   24.2056 C   0  0  0  0  0  0  0  0  0  0  0  0
   10.1791   -0.9679   23.5768 C   0  0  0  0  0  0  0  0  0  0  0  0
   10.8368    2.3956   25.0024 C   0  0  0  0  0  0  0  0  0  0  0  0
   11.1301    3.7016   22.9911 C   0  0  0  0  0  0  0  0  0  0  0  0
   12.5960   -0.8521   22.2441 C   0  0  0  0  0  0  0  0  0  0  0  0
    9.1152    3.9396   24.3028 C   0  0  0  0  0  0  0  0  0  0  0  0
    6.4769   -1.2764   19.0425 C   0  0  0  0  0  0  0  0  0  0  0  0
    9.0274   -0.9346   24.5092 C   0  0  0  0  0  0  0  0  0  0  0  0
    6.1965   -2.2948   21.2775 C   0  0  0  0  0  0  0  0  0  0  0  0
    8.2225   -0.9550   20.8620 C   0  0  0  0  0  0  0  0  0  0  0  0
    7.0718   -3.3160   21.9887 C   0  0  0  0  0  0  0  0  0  0  0  0
    9.0237   -2.0358   21.5984 C   0  0  2  0  0  0  0  0  0  0  0  0
   10.9338   -0.0391   25.5925 C   0  0  1  0  0  0  0  0  0  0  0  0
   11.3509    1.3686   25.9784 C   0  0  0  0  0  0  0  0  0  0  0  0
    6.9186    0.0026   18.3772 C   0  0  0  0  0  0  0  0  0  0  0  0
    6.9832   -1.5217   20.3176 N   0  0  0  0  0  0  0  0  0  0  0  0
    5.7089   -2.0349   18.4452 O   0  0  0  0  0  0  0  0  0  0  0  0
    9.4846   -0.1136   25.6094 O   0  0  0  0  0  0  0  0  0  0  0  0
    8.2030   -2.6783   22.5835 O   0  0  0  0  0  0  0  0  0  0  0  0
   11.8801    4.0490   21.9097 O   0  0  0  0  0  0  0  0  0  0  0  0
   13.7625   -0.8047   21.5868 F   0  0  0  0  0  0  0  0  0  0  0  0
    7.9192    4.5101   24.4986 F   0  0  0  0  0  0  0  0  0  0  0  0
    6.3604    1.3216   19.4002 Cl  0  0  0  0  0  0  0  0  0  0  0  0
   11.5502   -1.7521   20.5911 H   0  0  0  0  0  0  0  0  0  0  0  0
   13.3998    0.0250   24.0452 H   0  0  0  0  0  0  0  0  0  0  0  0
   12.5772    2.2899   23.7338 H   0  0  0  0  0  0  0  0  0  0  0  0
    8.9847    2.7186   26.0663 H   0  0  0  0  0  0  0  0  0  0  0  0
    9.5081    5.0361   22.4948 H   0  0  0  0  0  0  0  0  0  0  0  0
    8.1433   -0.4629   24.0728 H   0  0  0  0  0  0  0  0  0  0  0  0
    8.7855   -1.9304   24.8921 H   0  0  0  0  0  0  0  0  0  0  0  0
    5.3514   -2.7899   20.7901 H   0  0  0  0  0  0  0  0  0  0  0  0
    5.7958   -1.5741   22.0001 H   0  0  0  0  0  0  0  0  0  0  0  0
    7.9135   -0.1620   21.5549 H   0  0  0  0  0  0  0  0  0  0  0  0
    8.8371   -0.4899   20.0881 H   0  0  0  0  0  0  0  0  0  0  0  0
    6.5038   -3.7992   22.7900 H   0  0  0  0  0  0  0  0  0  0  0  0
    7.4119   -4.1006   21.3025 H   0  0  0  0  0  0  0  0  0  0  0  0
    9.3851   -2.8021   20.8818 H   0  0  0  0  0  0  0  0  0  0  0  0
   11.3157   -0.7720   26.3122 H   0  0  0  0  0  0  0  0  0  0  0  0
   12.4453    1.4311   26.0351 H   0  0  0  0  0  0  0  0  0  0  0  0
   10.9839    1.6034   26.9860 H   0  0  0  0  0  0  0  0  0  0  0  0
    6.4553    0.0684   17.3993 H   0  0  0  0  0  0  0  0  0  0  0  0
    8.0008    0.0113   18.3159 H   0  0  0  0  0  0  0  0  0  0  0  0
   12.7142    3.5529   21.9056 H   0  0  0  0  0  0  0  0  0  0  0  0
  1  6  1  0  0  0  0
  1 11  2  0  0  0  0
  2  7  2  0  0  0  0
  2 11  1  0  0  0  0
  3  9  1  0  0  0  0
  3 10  2  0  0  0  0
  4  9  2  0  0  0  0
  4 12  1  0  0  0  0
  5 10  1  0  0  0  0
  5 12  2  0  0  0  0
  6  8  2  0  0  0  0
  6 18  1  0  0  0  0
  7  8  1  0  0  0  0
  7 19  1  0  0  0  0
  8 14  1  0  0  0  0
  9 20  1  0  0  0  0
 10 26  1  0  0  0  0
 11 27  1  0  0  0  0
 12 28  1  0  0  0  0
 13 21  1  0  0  0  0
 13 22  1  0  0  0  0
 13 23  2  0  0  0  0
 14 24  1  0  0  0  0
 15 17  1  0  0  0  0
 15 22  1  0  0  0  0
 16 18  1  0  0  0  0
 16 22  1  0  0  0  0
 17 25  1  0  0  0  0
 18 25  1  0  0  0  0
 19 20  1  0  0  0  0
 19 24  1  0  0  0  0
 21 29  1  0  0  0  0
  1 30  1  0  0  0  0
  2 31  1  0  0  0  0
  3 32  1  0  0  0  0
  4 33  1  0  0  0  0
  5 34  1  0  0  0  0
 14 35  1  0  0  0  0
 14 36  1  0  0  0  0
 15 37  1  0  0  0  0
 15 38  1  0  0  0  0
 16 39  1  0  0  0  0
 16 40  1  0  0  0  0
 17 41  1  0  0  0  0
 17 42  1  0  0  0  0
 18 43  1  0  0  0  0
 19 44  1  0  0  0  0
 20 45  1  0  0  0  0
 20 46  1  0  0  0  0
 21 47  1  0  0  0  0
 21 48  1  0  0  0  0
 26 49  1  0  0  0  0
M  END
> <Chemgauss4>
-8.294375

> <ref_pdb>
x0830_0

> <CYS145-warhead min dist (A)>
5.368914

> <CYS145-warhead avg dist (A)>
6.568628

> <CYS145-warhead avg dist stderr (A)>
0.05116015

> <original SMILES>
c1c(cc(cc1O)F)C[C@@H]2c3cc(cc(c3CO2)[C@@H]4CN(CCO4)C(=O)CCl)F

$$$$
MAK-UNK-af8-9
  -OEChem-04232002263D

 44 45  0     1  0  0  0  0  0999 V2000
   11.1536   -0.4518   24.7958 C   0  0  0  0  0  0  0  0  0  0  0  0
   12.4610   -0.8102   25.1241 C   0  0  0  0  0  0  0  0  0  0  0  0
   10.2038   -1.4398   24.5361 C   0  0  0  0  0  0  0  0  0  0  0  0
   11.8690   -3.1448   24.9328 C   0  0  0  0  0  0  0  0  0  0  0  0
   12.8187   -2.1567   25.1926 C   0  0  0  0  0  0  0  0  0  0  0  0
   10.5615   -2.7863   24.6046 C   0  0  0  0  0  0  0  0  0  0  0  0
    6.4827   -2.6679   21.1338 C   0  0  0  0  0  0  0  0  0  0  0  0
    5.5882   -4.7759   23.3999 C   0  0  0  0  0  0  0  0  0  0  0  0
    8.9138   -5.6362   22.6361 C   0  0  0  0  0  0  0  0  0  0  0  0
    8.7433   -3.1798   22.0142 C   0  0  0  0  0  0  0  0  0  0  0  0
    7.4911   -5.6275   22.0746 C   0  0  0  0  0  0  0  0  0  0  0  0
    7.2403   -3.1713   22.3258 C   0  0  2  0  0  0  0  0  0  0  0  0
    9.5064   -4.2271   22.8384 C   0  0  1  0  0  0  0  0  0  0  0  0
   14.2165   -2.5392   25.5452 C   0  0  0  0  0  0  0  0  0  0  0  0
    6.2860   -0.8188   19.6757 C   0  0  0  0  0  0  0  0  0  0  0  0
    9.5376   -3.8514   24.3238 C   0  0  0  0  0  0  0  0  0  0  0  0
    4.8465   -3.5768   23.9382 C   0  0  0  0  0  0  0  0  0  0  0  0
    6.7166   -4.5139   22.6189 N   0  0  0  0  0  0  0  0  0  0  0  0
    5.6042   -3.3002   20.5632 O   0  0  0  0  0  0  0  0  0  0  0  0
    5.1830   -5.9085   23.6737 O   0  0  0  0  0  0  0  0  0  0  0  0
    6.9274   -1.4220   20.8039 O   0  0  0  0  0  0  0  0  0  0  0  0
    5.5388   -3.2248   25.5174 Cl  0  0  0  0  0  0  0  0  0  0  0  0
   10.8751    0.5967   24.7426 H   0  0  0  0  0  0  0  0  0  0  0  0
   13.1942   -0.0334   25.3254 H   0  0  0  0  0  0  0  0  0  0  0  0
    9.1877   -1.1513   24.2803 H   0  0  0  0  0  0  0  0  0  0  0  0
   12.1470   -4.1947   24.9870 H   0  0  0  0  0  0  0  0  0  0  0  0
    8.9219   -6.1875   23.5953 H   0  0  0  0  0  0  0  0  0  0  0  0
    9.5648   -6.2142   21.9551 H   0  0  0  0  0  0  0  0  0  0  0  0
    8.9070   -3.3626   20.9509 H   0  0  0  0  0  0  0  0  0  0  0  0
    9.1423   -2.1877   22.2389 H   0  0  0  0  0  0  0  0  0  0  0  0
    7.5147   -5.5138   20.9891 H   0  0  0  0  0  0  0  0  0  0  0  0
    7.0120   -6.5809   22.2962 H   0  0  0  0  0  0  0  0  0  0  0  0
    7.0588   -2.4790   23.1280 H   0  0  0  0  0  0  0  0  0  0  0  0
   10.5564   -4.2481   22.4856 H   0  0  0  0  0  0  0  0  0  0  0  0
   14.3185   -2.6544   26.6312 H   0  0  0  0  0  0  0  0  0  0  0  0
   14.5038   -3.4843   25.0664 H   0  0  0  0  0  0  0  0  0  0  0  0
   14.9344   -1.7807   25.2067 H   0  0  0  0  0  0  0  0  0  0  0  0
    6.7141    0.1708   19.4982 H   0  0  0  0  0  0  0  0  0  0  0  0
    5.2133   -0.7346   19.8673 H   0  0  0  0  0  0  0  0  0  0  0  0
    6.4489   -1.4467   18.7965 H   0  0  0  0  0  0  0  0  0  0  0  0
    9.7532   -4.7435   24.9205 H   0  0  0  0  0  0  0  0  0  0  0  0
    8.5456   -3.5070   24.6333 H   0  0  0  0  0  0  0  0  0  0  0  0
    3.7976   -3.8297   24.0392 H   0  0  0  0  0  0  0  0  0  0  0  0
    5.0011   -2.7393   23.2682 H   0  0  0  0  0  0  0  0  0  0  0  0
  1  2  1  0  0  0  0
  1  3  2  0  0  0  0
  2  5  2  0  0  0  0
  3  6  1  0  0  0  0
  4  5  1  0  0  0  0
  4  6  2  0  0  0  0
  5 14  1  0  0  0  0
  6 16  1  0  0  0  0
  7 12  1  0  0  0  0
  7 19  2  0  0  0  0
  7 21  1  0  0  0  0
  8 17  1  0  0  0  0
  8 18  1  0  0  0  0
  8 20  2  0  0  0  0
  9 11  1  0  0  0  0
  9 13  1  0  0  0  0
 10 12  1  0  0  0  0
 10 13  1  0  0  0  0
 11 18  1  0  0  0  0
 12 18  1  0  0  0  0
 13 16  1  0  0  0  0
 15 21  1  0  0  0  0
 17 22  1  0  0  0  0
  1 23  1  0  0  0  0
  2 24  1  0  0  0  0
  3 25  1  0  0  0  0
  4 26  1  0  0  0  0
  9 27  1  0  0  0  0
  9 28  1  0  0  0  0
 10 29  1  0  0  0  0
 10 30  1  0  0  0  0
 11 31  1  0  0  0  0
 11 32  1  0  0  0  0
 12 33  1  0  0  0  0
 13 34  1  0  0  0  0
 14 35  1  0  0  0  0
 14 36  1  0  0  0  0
 14 37  1  0  0  0  0
 15 38  1  0  0  0  0
 15 39  1  0  0  0  0
 15 40  1  0  0  0  0
 16 41  1  0  0  0  0
 16 42  1  0  0  0  0
 17 43  1  0  0  0  0
 17 44  1  0  0  0  0
M  END
> <Chemgauss4>
-8.264959

> <ref_pdb>
x0749_0

> <CYS145-warhead min dist (A)>
5.9202204

> <CYS145-warhead avg dist (A)>
7.0861053

> <CYS145-warhead avg dist stderr (A)>
0.046823088

> <original SMILES>
Cc1cccc(c1)C[C@H]2CCN([C@@H](C2)C(=O)OC)C(=O)CCl

$$$$
JOH-UNI-27a-35_thio_pH
  -OEChem-04232002263D

 37 38  0     1  0  0  0  0  0999 V2000
   13.7854   -2.3066   24.1816 C   0  0  0  0  0  0  0  0  0  0  0  0
   12.7496   -3.2322   24.3089 C   0  0  0  0  0  0  0  0  0  0  0  0
   13.5472   -0.9548   24.4297 C   0  0  0  0  0  0  0  0  0  0  0  0
   11.2374   -1.4541   24.9324 C   0  0  0  0  0  0  0  0  0  0  0  0
   11.4757   -2.8059   24.6843 C   0  0  0  0  0  0  0  0  0  0  0  0
   12.2732   -0.5285   24.8051 C   0  0  0  0  0  0  0  0  0  0  0  0
    6.3245   -3.1161   21.0614 C   0  0  0  0  0  0  0  0  0  0  0  0
    8.7908   -2.7788   21.5490 C   0  0  0  0  0  0  0  0  0  0  0  0
    9.4817   -2.6634   22.9055 C   0  0  0  0  0  0  0  0  0  0  0  0
    7.6075   -4.7706   22.3744 C   0  0  0  0  0  0  0  0  0  0  0  0
    8.3202   -4.6297   23.7330 C   0  0  1  0  0  0  0  0  0  0  0  0
    8.4356   -6.0264   24.3593 C   0  0  0  0  0  0  0  0  0  0  0  0
    6.1174   -1.6382   20.8438 C   0  0  0  0  0  0  0  0  0  0  0  0
   10.3563   -3.8068   24.8206 C   0  0  0  0  0  0  0  0  0  0  0  0
    7.5224   -3.4961   21.6663 N   0  0  0  0  0  0  0  0  0  0  0  0
    9.6358   -3.9756   23.5558 N   0  0  2  0  0  0  0  0  0  0  0  0
    5.4460   -3.9068   20.7075 O   0  0  0  0  0  0  0  0  0  0  0  0
   10.8101   -5.0333   25.2120 F   0  0  0  0  0  0  0  0  0  0  0  0
    9.4511   -3.4471   25.7765 F   0  0  0  0  0  0  0  0  0  0  0  0
   11.9796    1.1396   25.1099 Cl  0  0  0  0  0  0  0  0  0  0  0  0
    6.8082   -1.2593   19.2700 Cl  0  0  0  0  0  0  0  0  0  0  0  0
   14.7772   -2.6390   23.8891 H   0  0  0  0  0  0  0  0  0  0  0  0
   12.9443   -4.2835   24.1135 H   0  0  0  0  0  0  0  0  0  0  0  0
   14.3639   -0.2446   24.3262 H   0  0  0  0  0  0  0  0  0  0  0  0
   10.2425   -1.1268   25.2253 H   0  0  0  0  0  0  0  0  0  0  0  0
    8.6569   -1.7803   21.1281 H   0  0  0  0  0  0  0  0  0  0  0  0
    9.4156   -3.3456   20.8478 H   0  0  0  0  0  0  0  0  0  0  0  0
   10.4692   -2.2149   22.7412 H   0  0  0  0  0  0  0  0  0  0  0  0
    8.9150   -1.9749   23.5471 H   0  0  0  0  0  0  0  0  0  0  0  0
    8.1535   -5.4613   21.7187 H   0  0  0  0  0  0  0  0  0  0  0  0
    6.6058   -5.1899   22.5200 H   0  0  0  0  0  0  0  0  0  0  0  0
    7.6883   -4.0161   24.3907 H   0  0  0  0  0  0  0  0  0  0  0  0
    9.0566   -6.6553   23.7280 H   0  0  0  0  0  0  0  0  0  0  0  0
    7.4461   -6.4656   24.4475 H   0  0  0  0  0  0  0  0  0  0  0  0
    8.8854   -5.9445   25.3445 H   0  0  0  0  0  0  0  0  0  0  0  0
    6.6399   -1.0922   21.6209 H   0  0  0  0  0  0  0  0  0  0  0  0
    5.0540   -1.4289   20.8441 H   0  0  0  0  0  0  0  0  0  0  0  0
  1  2  2  0  0  0  0
  1  3  1  0  0  0  0
  2  5  1  0  0  0  0
  3  6  2  0  0  0  0
  4  5  2  0  0  0  0
  4  6  1  0  0  0  0
  5 14  1  0  0  0  0
  6 20  1  0  0  0  0
  7 13  1  0  0  0  0
  7 15  1  0  0  0  0
  7 17  2  0  0  0  0
  8  9  1  0  0  0  0
  8 15  1  0  0  0  0
  9 16  1  0  0  0  0
 10 11  1  0  0  0  0
 10 15  1  0  0  0  0
 11 12  1  0  0  0  0
 11 16  1  0  0  0  0
 13 21  1  0  0  0  0
 14 16  1  0  0  0  0
 14 18  1  0  0  0  0
 14 19  1  0  0  0  0
  1 22  1  0  0  0  0
  2 23  1  0  0  0  0
  3 24  1  0  0  0  0
  4 25  1  0  0  0  0
  8 26  1  0  0  0  0
  8 27  1  0  0  0  0
  9 28  1  0  0  0  0
  9 29  1  0  0  0  0
 10 30  1  0  0  0  0
 10 31  1  0  0  0  0
 11 32  1  0  0  0  0
 12 33  1  0  0  0  0
 12 34  1  0  0  0  0
 12 35  1  0  0  0  0
 13 36  1  0  0  0  0
 13 37  1  0  0  0  0
M  END
> <Chemgauss4>
-8.253454

> <ref_pdb>
x0749_0

> <CYS145-warhead min dist (A)>
2.868844

> <CYS145-warhead avg dist (A)>
3.3916454

> <CYS145-warhead avg dist stderr (A)>
0.025830796

> <original SMILES>
C[C@@H]1CN(CC[N@]1C(c2cccc(c2)Cl)(F)F)C(=O)CCl

$$$$
SEA-TRI-67e-1
  -OEChem-04232002263D

 62 65  0     0  0  0  0  0  0999 V2000
   10.0652    2.2538   25.8257 C   0  0  0  0  0  0  0  0  0  0  0  0
   11.3186    2.3207   25.2166 C   0  0  0  0  0  0  0  0  0  0  0  0
    9.1835    1.2291   25.4949 C   0  0  0  0  0  0  0  0  0  0  0  0
   12.9635    1.4131   23.6440 C   0  0  0  0  0  0  0  0  0  0  0  0
   12.4502   -0.5734   22.3720 C   0  0  0  0  0  0  0  0  0  0  0  0
   11.7060    1.3612   24.2670 C   0  0  0  0  0  0  0  0  0  0  0  0
   10.8094    0.3192   23.9306 C   0  0  0  0  0  0  0  0  0  0  0  0
   11.1968   -0.6403   22.9811 C   0  0  0  0  0  0  0  0  0  0  0  0
    9.5518    0.2674   24.5536 C   0  0  0  0  0  0  0  0  0  0  0  0
   13.3319    0.4514   22.7028 C   0  0  0  0  0  0  0  0  0  0  0  0
    6.3383   -1.2693   18.7412 C   0  0  0  0  0  0  0  0  0  0  0  0
    6.8147   -1.9927   21.0587 C   0  0  0  0  0  0  0  0  0  0  0  0
    7.9024    0.0619   20.2410 C   0  0  0  0  0  0  0  0  0  0  0  0
    8.1458   -2.5146   21.5798 C   0  0  0  0  0  0  0  0  0  0  0  0
    9.2505   -0.4285   20.7519 C   0  0  0  0  0  0  0  0  0  0  0  0
    8.5080   -4.3282   26.8008 C   0  0  0  0  0  0  0  0  0  0  0  0
    6.3899   -4.8062   25.5899 C   0  0  0  0  0  0  0  0  0  0  0  0
    7.9406   -5.1129   27.9715 C   0  0  0  0  0  0  0  0  0  0  0  0
    5.9321   -5.5667   26.8229 C   0  0  0  0  0  0  0  0  0  0  0  0
   10.3277   -1.7850   22.5505 C   0  0  0  0  0  0  0  0  0  0  0  0
    6.6015   -0.2708   17.6424 C   0  0  0  0  0  0  0  0  0  0  0  0
    7.8258   -2.8902   24.8745 C   0  0  0  0  0  0  0  0  0  0  0  0
    8.2147   -1.5160   25.3829 C   0  0  0  0  0  0  0  0  0  0  0  0
    7.0133   -1.0663   19.9440 N   0  0  0  0  0  0  0  0  0  0  0  0
    9.0293   -1.3405   21.9379 N   0  3  0  0  0  0  0  0  0  0  0  0
    7.3564   -3.7306   26.0271 N   0  3  0  0  0  0  0  0  0  0  0  0
    5.5581   -2.2022   18.5339 O   0  0  0  0  0  0  0  0  0  0  0  0
    7.0513   -6.1302   27.5085 O   0  0  0  0  0  0  0  0  0  0  0  0
    8.6269   -0.7016   24.2888 O   0  0  0  0  0  0  0  0  0  0  0  0
   14.8780    0.5328   21.9506 Cl  0  0  0  0  0  0  0  0  0  0  0  0
    5.6568   -0.7915   16.2516 Cl  0  0  0  0  0  0  0  0  0  0  0  0
    9.7780    3.0022   26.5585 H   0  0  0  0  0  0  0  0  0  0  0  0
   11.9915    3.1306   25.4907 H   0  0  0  0  0  0  0  0  0  0  0  0
    8.2094    1.1858   25.9750 H   0  0  0  0  0  0  0  0  0  0  0  0
   13.6590    2.2118   23.8975 H   0  0  0  0  0  0  0  0  0  0  0  0
   12.7373   -1.3234   21.6380 H   0  0  0  0  0  0  0  0  0  0  0  0
    6.1852   -2.8353   20.7559 H   0  0  0  0  0  0  0  0  0  0  0  0
    6.2755   -1.4508   21.8452 H   0  0  0  0  0  0  0  0  0  0  0  0
    7.4038    0.6780   20.9991 H   0  0  0  0  0  0  0  0  0  0  0  0
    8.0608    0.6966   19.3675 H   0  0  0  0  0  0  0  0  0  0  0  0
    8.0001   -3.1034   22.4912 H   0  0  0  0  0  0  0  0  0  0  0  0
    8.6728   -3.1168   20.8311 H   0  0  0  0  0  0  0  0  0  0  0  0
    9.7971   -0.9945   19.9892 H   0  0  0  0  0  0  0  0  0  0  0  0
    9.8615    0.4120   21.0964 H   0  0  0  0  0  0  0  0  0  0  0  0
    9.1416   -3.5065   27.1424 H   0  0  0  0  0  0  0  0  0  0  0  0
    9.0563   -4.9757   26.1107 H   0  0  0  0  0  0  0  0  0  0  0  0
    6.9280   -5.4554   24.8934 H   0  0  0  0  0  0  0  0  0  0  0  0
    5.5513   -4.3166   25.0896 H   0  0  0  0  0  0  0  0  0  0  0  0
    8.7537   -5.6069   28.5128 H   0  0  0  0  0  0  0  0  0  0  0  0
    7.4198   -4.4615   28.6836 H   0  0  0  0  0  0  0  0  0  0  0  0
    5.3625   -4.9267   27.5073 H   0  0  0  0  0  0  0  0  0  0  0  0
    5.2783   -6.3924   26.5247 H   0  0  0  0  0  0  0  0  0  0  0  0
   10.8323   -2.4056   21.8023 H   0  0  0  0  0  0  0  0  0  0  0  0
   10.0711   -2.4279   23.3994 H   0  0  0  0  0  0  0  0  0  0  0  0
    7.6582   -0.2845   17.4007 H   0  0  0  0  0  0  0  0  0  0  0  0
    6.2721    0.7082   17.9709 H   0  0  0  0  0  0  0  0  0  0  0  0
    8.6732   -3.4206   24.4311 H   0  0  0  0  0  0  0  0  0  0  0  0
    6.9956   -2.8389   24.1651 H   0  0  0  0  0  0  0  0  0  0  0  0
    7.3515   -1.0362   25.8545 H   0  0  0  0  0  0  0  0  0  0  0  0
    9.0291   -1.5703   26.1127 H   0  0  0  0  0  0  0  0  0  0  0  0
    8.5378   -0.7936   22.6582 H   0  0  0  0  0  0  0  0  0  0  0  0
    6.8480   -3.1045   26.6688 H   0  0  0  0  0  0  0  0  0  0  0  0
  1  2  2  0  0  0  0
  1  3  1  0  0  0  0
  2  6  1  0  0  0  0
  3  9  2  0  0  0  0
  4  6  2  0  0  0  0
  4 10  1  0  0  0  0
  5  8  1  0  0  0  0
  5 10  2  0  0  0  0
  6  7  1  0  0  0  0
  7  8  2  0  0  0  0
  7  9  1  0  0  0  0
  8 20  1  0  0  0  0
  9 29  1  0  0  0  0
 10 30  1  0  0  0  0
 11 21  1  0  0  0  0
 11 24  1  0  0  0  0
 11 27  2  0  0  0  0
 12 14  1  0  0  0  0
 12 24  1  0  0  0  0
 13 15  1  0  0  0  0
 13 24  1  0  0  0  0
 14 25  1  0  0  0  0
 15 25  1  0  0  0  0
 16 18  1  0  0  0  0
 16 26  1  0  0  0  0
 17 19  1  0  0  0  0
 17 26  1  0  0  0  0
 18 28  1  0  0  0  0
 19 28  1  0  0  0  0
 20 25  1  0  0  0  0
 21 31  1  0  0  0  0
 22 23  1  0  0  0  0
 22 26  1  0  0  0  0
 23 29  1  0  0  0  0
  1 32  1  0  0  0  0
  2 33  1  0  0  0  0
  3 34  1  0  0  0  0
  4 35  1  0  0  0  0
  5 36  1  0  0  0  0
 12 37  1  0  0  0  0
 12 38  1  0  0  0  0
 13 39  1  0  0  0  0
 13 40  1  0  0  0  0
 14 41  1  0  0  0  0
 14 42  1  0  0  0  0
 15 43  1  0  0  0  0
 15 44  1  0  0  0  0
 16 45  1  0  0  0  0
 16 46  1  0  0  0  0
 17 47  1  0  0  0  0
 17 48  1  0  0  0  0
 18 49  1  0  0  0  0
 18 50  1  0  0  0  0
 19 51  1  0  0  0  0
 19 52  1  0  0  0  0
 20 53  1  0  0  0  0
 20 54  1  0  0  0  0
 21 55  1  0  0  0  0
 21 56  1  0  0  0  0
 22 57  1  0  0  0  0
 22 58  1  0  0  0  0
 23 59  1  0  0  0  0
 23 60  1  0  0  0  0
 25 61  1  0  0  0  0
 26 62  1  0  0  0  0
M  CHG  2  25   1  26   1
M  END
> <Chemgauss4>
-8.219542

> <ref_pdb>
x0830_0

> <CYS145-warhead min dist (A)>
3.1879468

> <CYS145-warhead avg dist (A)>
3.8575437

> <CYS145-warhead avg dist stderr (A)>
0.029844098

> <original SMILES>
c1cc2cc(cc(c2c(c1)OCC[NH+]3CCOCC3)C[NH+]4CCN(CC4)C(=O)CCl)Cl

$$$$
BRU-LEF-cf9-1
  -OEChem-04232002263D

 42 43  0     1  0  0  0  0  0999 V2000
   10.3156   -2.0808   24.2346 C   0  0  0  0  0  0  0  0  0  0  0  0
    6.4625   -4.6777   22.1204 C   0  0  0  0  0  0  0  0  0  0  0  0
   13.9684   -1.3626   26.1996 C   0  0  0  0  0  0  0  0  0  0  0  0
   12.9279   -0.2834   25.9050 C   0  0  0  0  0  0  0  0  0  0  0  0
   13.7453   -2.5912   25.3190 C   0  0  0  0  0  0  0  0  0  0  0  0
    9.3801   -4.3844   24.1363 C   0  0  0  0  0  0  0  0  0  0  0  0
    9.6779   -3.0265   22.0078 C   0  0  0  0  0  0  0  0  0  0  0  0
   11.5106   -0.8395   26.0104 C   0  0  0  0  0  0  0  0  0  0  0  0
   12.3115   -3.1042   25.4343 C   0  0  0  0  0  0  0  0  0  0  0  0
    7.8820   -4.0948   24.0610 C   0  0  0  0  0  0  0  0  0  0  0  0
    8.1664   -2.7948   21.9883 C   0  0  0  0  0  0  0  0  0  0  0  0
   10.2200   -3.3302   23.4082 C   0  0  0  0  0  0  0  0  0  0  0  0
    5.2640   -6.8396   21.9139 C   0  0  0  0  0  0  0  0  0  0  0  0
    6.3424   -6.0832   22.6534 C   0  0  1  0  0  0  0  0  0  0  0  0
   11.3500   -2.0268   25.1681 N   0  0  0  0  0  0  0  0  0  0  0  0
    7.4640   -3.8825   22.6759 N   0  0  0  0  0  0  0  0  0  0  0  0
    9.4963   -1.1759   24.0558 O   0  0  0  0  0  0  0  0  0  0  0  0
    5.6874   -4.2993   21.2383 O   0  0  0  0  0  0  0  0  0  0  0  0
    7.9283   -6.8361   22.4184 Cl  0  0  0  0  0  0  0  0  0  0  0  0
   14.9755   -0.9638   26.0348 H   0  0  0  0  0  0  0  0  0  0  0  0
   13.9056   -1.6530   27.2554 H   0  0  0  0  0  0  0  0  0  0  0  0
   13.0517    0.5481   26.6079 H   0  0  0  0  0  0  0  0  0  0  0  0
   13.0897    0.1198   24.8978 H   0  0  0  0  0  0  0  0  0  0  0  0
   13.9611   -2.3396   24.2730 H   0  0  0  0  0  0  0  0  0  0  0  0
   14.4450   -3.3827   25.6098 H   0  0  0  0  0  0  0  0  0  0  0  0
    9.6810   -4.4535   25.1887 H   0  0  0  0  0  0  0  0  0  0  0  0
    9.5728   -5.3665   23.6857 H   0  0  0  0  0  0  0  0  0  0  0  0
    9.9103   -3.8722   21.3478 H   0  0  0  0  0  0  0  0  0  0  0  0
   10.1816   -2.1480   21.5870 H   0  0  0  0  0  0  0  0  0  0  0  0
   11.2922   -1.1393   27.0423 H   0  0  0  0  0  0  0  0  0  0  0  0
   10.7882   -0.0645   25.7355 H   0  0  0  0  0  0  0  0  0  0  0  0
   12.1754   -3.9512   24.7598 H   0  0  0  0  0  0  0  0  0  0  0  0
   12.1167   -3.4658   26.4510 H   0  0  0  0  0  0  0  0  0  0  0  0
    7.3255   -4.9212   24.5145 H   0  0  0  0  0  0  0  0  0  0  0  0
    7.6313   -3.1882   24.6240 H   0  0  0  0  0  0  0  0  0  0  0  0
    7.9092   -1.8644   22.5074 H   0  0  0  0  0  0  0  0  0  0  0  0
    7.8341   -2.6816   20.9548 H   0  0  0  0  0  0  0  0  0  0  0  0
   11.2473   -3.7053   23.3151 H   0  0  0  0  0  0  0  0  0  0  0  0
    5.4871   -6.8872   20.8422 H   0  0  0  0  0  0  0  0  0  0  0  0
    4.2954   -6.3431   22.0342 H   0  0  0  0  0  0  0  0  0  0  0  0
    5.1665   -7.8714   22.2706 H   0  0  0  0  0  0  0  0  0  0  0  0
    6.1380   -6.0252   23.7210 H   0  0  0  0  0  0  0  0  0  0  0  0
  1 12  1  0  0  0  0
  1 15  1  0  0  0  0
  1 17  2  0  0  0  0
  2 14  1  0  0  0  0
  2 16  1  0  0  0  0
  2 18  2  0  0  0  0
  3  4  1  0  0  0  0
  3  5  1  0  0  0  0
  4  8  1  0  0  0  0
  5  9  1  0  0  0  0
  6 10  1  0  0  0  0
  6 12  1  0  0  0  0
  7 11  1  0  0  0  0
  7 12  1  0  0  0  0
  8 15  1  0  0  0  0
  9 15  1  0  0  0  0
 10 16  1  0  0  0  0
 11 16  1  0  0  0  0
 13 14  1  0  0  0  0
 14 19  1  0  0  0  0
  3 20  1  0  0  0  0
  3 21  1  0  0  0  0
  4 22  1  0  0  0  0
  4 23  1  0  0  0  0
  5 24  1  0  0  0  0
  5 25  1  0  0  0  0
  6 26  1  0  0  0  0
  6 27  1  0  0  0  0
  7 28  1  0  0  0  0
  7 29  1  0  0  0  0
  8 30  1  0  0  0  0
  8 31  1  0  0  0  0
  9 32  1  0  0  0  0
  9 33  1  0  0  0  0
 10 34  1  0  0  0  0
 10 35  1  0  0  0  0
 11 36  1  0  0  0  0
 11 37  1  0  0  0  0
 12 38  1  0  0  0  0
 13 39  1  0  0  0  0
 13 40  1  0  0  0  0
 13 41  1  0  0  0  0
 14 42  1  0  0  0  0
M  END
> <Chemgauss4>
-8.135929

> <ref_pdb>
x0749_0

> <original SMILES>
C[C@H](C(=O)N1CCC(CC1)C(=O)N2CCCCC2)Cl

$$$$
DAR-DIA-fb2-7
  -OEChem-04232002263D

 45 47  0     0  0  0  0  0  0999 V2000
   14.1214    0.1312   22.6904 C   0  0  0  0  0  0  0  0  0  0  0  0
   13.5341   -0.9561   22.0503 C   0  0  0  0  0  0  0  0  0  0  0  0
   13.4185    0.8246   23.6761 C   0  0  0  0  0  0  0  0  0  0  0  0
   12.2417   -1.3542   22.3933 C   0  0  0  0  0  0  0  0  0  0  0  0
   11.3946    1.1243   25.0239 C   0  0  0  0  0  0  0  0  0  0  0  0
    9.5149   -0.3609   24.7268 C   0  0  0  0  0  0  0  0  0  0  0  0
   12.1167    0.4379   24.0341 C   0  0  0  0  0  0  0  0  0  0  0  0
   11.5195   -0.6677   23.3831 C   0  0  0  0  0  0  0  0  0  0  0  0
   10.2177   -1.0544   23.7411 C   0  0  0  0  0  0  0  0  0  0  0  0
   10.1022    0.7264   25.3670 C   0  0  0  0  0  0  0  0  0  0  0  0
    5.8812   -1.6385   18.9630 C   0  0  0  0  0  0  0  0  0  0  0  0
    6.2158   -2.5916   21.2215 C   0  0  0  0  0  0  0  0  0  0  0  0
    7.1377   -0.3528   20.7620 C   0  0  0  0  0  0  0  0  0  0  0  0
    7.5421   -3.0377   21.8194 C   0  0  0  0  0  0  0  0  0  0  0  0
    8.4783   -0.7649   21.3551 C   0  0  0  0  0  0  0  0  0  0  0  0
    8.0998    0.9425   26.6317 C   0  0  0  0  0  0  0  0  0  0  0  0
    9.5271   -2.2184   23.0937 C   0  0  0  0  0  0  0  0  0  0  0  0
    6.1327   -0.4903   18.0184 C   0  0  0  0  0  0  0  0  0  0  0  0
    6.4130   -1.5191   20.2462 N   0  0  0  0  0  0  0  0  0  0  0  0
    8.2505   -1.8342   22.4001 N   0  3  0  0  0  0  0  0  0  0  0  0
    5.2338   -2.6121   18.5696 O   0  0  0  0  0  0  0  0  0  0  0  0
    9.4164    1.4016   26.3296 O   0  0  0  0  0  0  0  0  0  0  0  0
    4.7754    0.6159   18.1975 Cl  0  0  0  0  0  0  0  0  0  0  0  0
   15.1272    0.4410   22.4224 H   0  0  0  0  0  0  0  0  0  0  0  0
   14.0827   -1.4955   21.2835 H   0  0  0  0  0  0  0  0  0  0  0  0
   13.8974    1.6717   24.1628 H   0  0  0  0  0  0  0  0  0  0  0  0
   11.8179   -2.2087   21.8715 H   0  0  0  0  0  0  0  0  0  0  0  0
   11.8395    1.9760   25.5353 H   0  0  0  0  0  0  0  0  0  0  0  0
    8.5070   -0.6664   24.9981 H   0  0  0  0  0  0  0  0  0  0  0  0
    5.7162   -3.4491   20.7599 H   0  0  0  0  0  0  0  0  0  0  0  0
    5.5475   -2.2081   22.0020 H   0  0  0  0  0  0  0  0  0  0  0  0
    6.5039    0.1115   21.5272 H   0  0  0  0  0  0  0  0  0  0  0  0
    7.3052    0.3977   19.9877 H   0  0  0  0  0  0  0  0  0  0  0  0
    7.3784   -3.7463   22.6377 H   0  0  0  0  0  0  0  0  0  0  0  0
    8.2015   -3.4866   21.0681 H   0  0  0  0  0  0  0  0  0  0  0  0
    9.1544   -1.1743   20.5962 H   0  0  0  0  0  0  0  0  0  0  0  0
    8.9559    0.0836   21.8557 H   0  0  0  0  0  0  0  0  0  0  0  0
    7.6659    1.5682   27.4155 H   0  0  0  0  0  0  0  0  0  0  0  0
    8.1430   -0.0980   26.9634 H   0  0  0  0  0  0  0  0  0  0  0  0
    7.4843    1.0108   25.7317 H   0  0  0  0  0  0  0  0  0  0  0  0
   10.1664   -2.6879   22.3383 H   0  0  0  0  0  0  0  0  0  0  0  0
    9.2658   -2.9839   23.8322 H   0  0  0  0  0  0  0  0  0  0  0  0
    6.1710   -0.8714   17.0043 H   0  0  0  0  0  0  0  0  0  0  0  0
    7.0551    0.0030   18.3027 H   0  0  0  0  0  0  0  0  0  0  0  0
    7.6351   -1.4327   23.1210 H   0  0  0  0  0  0  0  0  0  0  0  0
  1  2  1  0  0  0  0
  1  3  2  0  0  0  0
  2  4  2  0  0  0  0
  3  7  1  0  0  0  0
  4  8  1  0  0  0  0
  5  7  1  0  0  0  0
  5 10  2  0  0  0  0
  6  9  2  0  0  0  0
  6 10  1  0  0  0  0
  7  8  2  0  0  0  0
  8  9  1  0  0  0  0
  9 17  1  0  0  0  0
 10 22  1  0  0  0  0
 11 18  1  0  0  0  0
 11 19  1  0  0  0  0
 11 21  2  0  0  0  0
 12 14  1  0  0  0  0
 12 19  1  0  0  0  0
 13 15  1  0  0  0  0
 13 19  1  0  0  0  0
 14 20  1  0  0  0  0
 15 20  1  0  0  0  0
 16 22  1  0  0  0  0
 17 20  1  0  0  0  0
 18 23  1  0  0  0  0
  1 24  1  0  0  0  0
  2 25  1  0  0  0  0
  3 26  1  0  0  0  0
  4 27  1  0  0  0  0
  5 28  1  0  0  0  0
  6 29  1  0  0  0  0
 12 30  1  0  0  0  0
 12 31  1  0  0  0  0
 13 32  1  0  0  0  0
 13 33  1  0  0  0  0
 14 34  1  0  0  0  0
 14 35  1  0  0  0  0
 15 36  1  0  0  0  0
 15 37  1  0  0  0  0
 16 38  1  0  0  0  0
 16 39  1  0  0  0  0
 16 40  1  0  0  0  0
 17 41  1  0  0  0  0
 17 42  1  0  0  0  0
 18 43  1  0  0  0  0
 18 44  1  0  0  0  0
 20 45  1  0  0  0  0
M  CHG  1  20   1
M  END
> <Chemgauss4>
-8.074298

> <ref_pdb>
x0830_0

> <CYS145-warhead min dist (A)>
2.97219

> <CYS145-warhead avg dist (A)>
3.3583272

> <CYS145-warhead avg dist stderr (A)>
0.010308362

> <original SMILES>
COc1cc2ccccc2c(c1)C[NH+]3CCN(CC3)C(=O)CCl

$$$$
GIA-UNK-a79-1
  -OEChem-04232002263D

 38 39  0     0  0  0  0  0  0999 V2000
   13.7004   -0.6337   25.3353 C   0  0  0  0  0  0  0  0  0  0  0  0
   13.8503   -1.9341   25.7721 C   0  0  0  0  0  0  0  0  0  0  0  0
   12.5542   -0.3753   24.6116 C   0  0  0  0  0  0  0  0  0  0  0  0
   11.8803   -2.5370   24.8114 C   0  0  0  0  0  0  0  0  0  0  0  0
    6.1326   -4.1818   22.0758 C   0  0  0  0  0  0  0  0  0  0  0  0
    9.2509   -2.6705   22.9897 C   0  0  0  0  0  0  0  0  0  0  0  0
    8.7070   -4.5169   24.6164 C   0  0  0  0  0  0  0  0  0  0  0  0
    7.7551   -2.4516   22.7792 C   0  0  0  0  0  0  0  0  0  0  0  0
    7.2210   -4.2612   24.3732 C   0  0  0  0  0  0  0  0  0  0  0  0
    9.5352   -3.2495   24.3793 C   0  0  0  0  0  0  0  0  0  0  0  0
   15.0585   -2.3096   26.5626 C   0  0  0  0  0  0  0  0  0  0  0  0
   12.3047    1.0026   24.0970 C   0  0  0  0  0  0  0  0  0  0  0  0
    5.9426   -5.6774   22.0483 C   0  0  0  0  0  0  0  0  0  0  0  0
   12.9566   -2.9148   25.5273 N   0  0  0  0  0  0  0  0  0  0  0  0
   11.6196   -1.3066   24.3299 N   0  0  0  0  0  0  0  0  0  0  0  0
    7.0034   -3.6802   23.0426 N   0  0  0  0  0  0  0  0  0  0  0  0
   10.9430   -3.5170   24.5418 N   0  0  0  0  0  0  0  0  0  0  0  0
    5.5262   -3.4823   21.2603 O   0  0  0  0  0  0  0  0  0  0  0  0
    7.5210   -6.3796   21.7117 Cl  0  0  0  0  0  0  0  0  0  0  0  0
   14.4346    0.1341   25.5468 H   0  0  0  0  0  0  0  0  0  0  0  0
    9.6456   -3.3300   22.2137 H   0  0  0  0  0  0  0  0  0  0  0  0
    9.7687   -1.7125   22.8892 H   0  0  0  0  0  0  0  0  0  0  0  0
    8.8452   -4.8428   25.6507 H   0  0  0  0  0  0  0  0  0  0  0  0
    9.0566   -5.3290   23.9759 H   0  0  0  0  0  0  0  0  0  0  0  0
    7.4233   -1.6267   23.4156 H   0  0  0  0  0  0  0  0  0  0  0  0
    7.5409   -2.1533   21.7450 H   0  0  0  0  0  0  0  0  0  0  0  0
    6.6505   -5.1945   24.4185 H   0  0  0  0  0  0  0  0  0  0  0  0
    6.8288   -3.6025   25.1526 H   0  0  0  0  0  0  0  0  0  0  0  0
    9.2497   -2.4969   25.1321 H   0  0  0  0  0  0  0  0  0  0  0  0
   14.8715   -2.1707   27.6343 H   0  0  0  0  0  0  0  0  0  0  0  0
   15.3370   -3.3572   26.3906 H   0  0  0  0  0  0  0  0  0  0  0  0
   15.9255   -1.6993   26.2783 H   0  0  0  0  0  0  0  0  0  0  0  0
   12.7369    1.1200   23.0959 H   0  0  0  0  0  0  0  0  0  0  0  0
   11.2299    1.2174   24.0397 H   0  0  0  0  0  0  0  0  0  0  0  0
   12.7455    1.7601   24.7579 H   0  0  0  0  0  0  0  0  0  0  0  0
    5.2467   -5.9288   21.2560 H   0  0  0  0  0  0  0  0  0  0  0  0
    5.5889   -6.0045   23.0193 H   0  0  0  0  0  0  0  0  0  0  0  0
   11.2544   -4.4752   24.4538 H   0  0  0  0  0  0  0  0  0  0  0  0
  1  2  1  0  0  0  0
  1  3  2  0  0  0  0
  2 11  1  0  0  0  0
  2 14  2  0  0  0  0
  3 12  1  0  0  0  0
  3 15  1  0  0  0  0
  4 14  1  0  0  0  0
  4 15  2  0  0  0  0
  4 17  1  0  0  0  0
  5 13  1  0  0  0  0
  5 16  1  0  0  0  0
  5 18  2  0  0  0  0
  6  8  1  0  0  0  0
  6 10  1  0  0  0  0
  7  9  1  0  0  0  0
  7 10  1  0  0  0  0
  8 16  1  0  0  0  0
  9 16  1  0  0  0  0
 10 17  1  0  0  0  0
 13 19  1  0  0  0  0
  1 20  1  0  0  0  0
  6 21  1  0  0  0  0
  6 22  1  0  0  0  0
  7 23  1  0  0  0  0
  7 24  1  0  0  0  0
  8 25  1  0  0  0  0
  8 26  1  0  0  0  0
  9 27  1  0  0  0  0
  9 28  1  0  0  0  0
 10 29  1  0  0  0  0
 11 30  1  0  0  0  0
 11 31  1  0  0  0  0
 11 32  1  0  0  0  0
 12 33  1  0  0  0  0
 12 34  1  0  0  0  0
 12 35  1  0  0  0  0
 13 36  1  0  0  0  0
 13 37  1  0  0  0  0
 17 38  1  0  0  0  0
M  END
> <Chemgauss4>
-8.036455

> <ref_pdb>
x0749_0

> <CYS145-warhead min dist (A)>
4.7128277

> <CYS145-warhead avg dist (A)>
7.9158454

> <CYS145-warhead avg dist stderr (A)>
0.23233236

> <original SMILES>
Cc1cc(nc(n1)NC2CCN(CC2)C(=O)CCl)C

$$$$
STU-CHA-0f7-1
  -OEChem-04232002263D

 46 48  0     0  0  0  0  0  0999 V2000
   13.8043   -0.3935   22.3577 C   0  0  0  0  0  0  0  0  0  0  0  0
   12.7885   -1.3508   22.4114 C   0  0  0  0  0  0  0  0  0  0  0  0
   13.6275    0.8781   22.9174 C   0  0  0  0  0  0  0  0  0  0  0  0
   11.5621   -1.0741   23.0246 C   0  0  0  0  0  0  0  0  0  0  0  0
   12.4016    1.1733   23.5373 C   0  0  0  0  0  0  0  0  0  0  0  0
   11.4084    0.1987   23.5752 C   0  0  0  0  0  0  0  0  0  0  0  0
   10.7553    2.0685   24.5609 C   0  0  0  0  0  0  0  0  0  0  0  0
    6.2801   -2.2722   19.4691 C   0  0  0  0  0  0  0  0  0  0  0  0
    6.8593   -2.2079   21.8736 C   0  0  0  0  0  0  0  0  0  0  0  0
    8.1682   -0.8019   20.3299 C   0  0  0  0  0  0  0  0  0  0  0  0
    8.1373   -2.7426   22.5030 C   0  0  0  0  0  0  0  0  0  0  0  0
    9.4669   -1.3144   20.9378 C   0  0  0  0  0  0  0  0  0  0  0  0
   10.4890   -2.1217   23.0683 C   0  0  0  0  0  0  0  0  0  0  0  0
    9.8530    2.9828   25.2855 C   0  0  0  0  0  0  0  0  0  0  0  0
    6.5878   -1.7879   18.0747 C   0  0  0  0  0  0  0  0  0  0  0  0
   11.9778    2.3278   24.1546 N   0  0  0  0  0  0  0  0  0  0  0  0
   10.3670    0.7987   24.2356 N   0  0  0  0  0  0  0  0  0  0  0  0
    7.0908   -1.7838   20.4928 N   0  0  0  0  0  0  0  0  0  0  0  0
    9.1095    5.4859   25.7684 N   0  0  0  0  0  0  0  0  0  0  0  0
    9.2223   -1.6961   22.3806 N   0  3  0  0  0  0  0  0  0  0  0  0
    5.3486   -3.0627   19.6410 O   0  0  0  0  0  0  0  0  0  0  0  0
   11.5844    4.9393   25.3291 O   0  0  0  0  0  0  0  0  0  0  0  0
    9.9288    4.8151   23.4241 O   0  0  0  0  0  0  0  0  0  0  0  0
   10.2545    4.6437   24.8281 S   0  0  0  0  0  0  0  0  0  0  0  0
    5.6076   -0.3497   17.8132 Cl  0  0  0  0  0  0  0  0  0  0  0  0
   14.7464   -0.6374   21.8731 H   0  0  0  0  0  0  0  0  0  0  0  0
   12.9627   -2.3277   21.9653 H   0  0  0  0  0  0  0  0  0  0  0  0
   14.4231    1.6149   22.8705 H   0  0  0  0  0  0  0  0  0  0  0  0
    6.0807   -2.9759   21.9186 H   0  0  0  0  0  0  0  0  0  0  0  0
    6.4885   -1.3370   22.4278 H   0  0  0  0  0  0  0  0  0  0  0  0
    7.8462    0.1200   20.8293 H   0  0  0  0  0  0  0  0  0  0  0  0
    8.3382   -0.5540   19.2808 H   0  0  0  0  0  0  0  0  0  0  0  0
    7.9905   -2.9373   23.5703 H   0  0  0  0  0  0  0  0  0  0  0  0
    8.4903   -3.6535   22.0064 H   0  0  0  0  0  0  0  0  0  0  0  0
    9.8435   -2.2004   20.4143 H   0  0  0  0  0  0  0  0  0  0  0  0
   10.2310   -0.5304   20.9330 H   0  0  0  0  0  0  0  0  0  0  0  0
   10.8171   -3.0453   22.5796 H   0  0  0  0  0  0  0  0  0  0  0  0
   10.2188   -2.3683   24.1008 H   0  0  0  0  0  0  0  0  0  0  0  0
    9.9537    2.9119   26.3809 H   0  0  0  0  0  0  0  0  0  0  0  0
    8.7896    2.8247   25.0414 H   0  0  0  0  0  0  0  0  0  0  0  0
    6.3122   -2.5602   17.3656 H   0  0  0  0  0  0  0  0  0  0  0  0
    7.6406   -1.5371   18.0142 H   0  0  0  0  0  0  0  0  0  0  0  0
    9.4729    0.3750   24.4457 H   0  0  0  0  0  0  0  0  0  0  0  0
    8.1227    5.4259   25.4885 H   0  0  0  0  0  0  0  0  0  0  0  0
    9.2505    5.5106   26.7858 H   0  0  0  0  0  0  0  0  0  0  0  0
    8.8929   -0.8523   22.8698 H   0  0  0  0  0  0  0  0  0  0  0  0
  1  2  1  0  0  0  0
  1  3  2  0  0  0  0
  2  4  2  0  0  0  0
  3  5  1  0  0  0  0
  4  6  1  0  0  0  0
  4 13  1  0  0  0  0
  5  6  2  0  0  0  0
  5 16  1  0  0  0  0
  6 17  1  0  0  0  0
  7 14  1  0  0  0  0
  7 16  2  0  0  0  0
  7 17  1  0  0  0  0
  8 15  1  0  0  0  0
  8 18  1  0  0  0  0
  8 21  2  0  0  0  0
  9 11  1  0  0  0  0
  9 18  1  0  0  0  0
 10 12  1  0  0  0  0
 10 18  1  0  0  0  0
 11 20  1  0  0  0  0
 12 20  1  0  0  0  0
 13 20  1  0  0  0  0
 14 24  1  0  0  0  0
 15 25  1  0  0  0  0
 19 24  1  0  0  0  0
 22 24  2  0  0  0  0
 23 24  2  0  0  0  0
  1 26  1  0  0  0  0
  2 27  1  0  0  0  0
  3 28  1  0  0  0  0
  9 29  1  0  0  0  0
  9 30  1  0  0  0  0
 10 31  1  0  0  0  0
 10 32  1  0  0  0  0
 11 33  1  0  0  0  0
 11 34  1  0  0  0  0
 12 35  1  0  0  0  0
 12 36  1  0  0  0  0
 13 37  1  0  0  0  0
 13 38  1  0  0  0  0
 14 39  1  0  0  0  0
 14 40  1  0  0  0  0
 15 41  1  0  0  0  0
 15 42  1  0  0  0  0
 17 43  1  0  0  0  0
 19 44  1  0  0  0  0
 19 45  1  0  0  0  0
 20 46  1  0  0  0  0
M  CHG  1  20   1
M  END
> <Chemgauss4>
-8.019769

> <ref_pdb>
x0830_0

> <CYS145-warhead min dist (A)>
2.913466

> <CYS145-warhead avg dist (A)>
3.4049017

> <CYS145-warhead avg dist stderr (A)>
0.013392963

> <original SMILES>
c1cc(c2c(c1)nc([nH]2)CS(=O)(=O)N)C[NH+]3CCN(CC3)C(=O)CCl

$$$$
GIA-UNK-20b-7
  -OEChem-04232002263D

 46 47  0     1  0  0  0  0  0999 V2000
    6.4226   -6.5874   23.2077 C   0  0  0  0  0  0  0  0  0  0  0  0
    6.5910   -5.5011   24.0662 C   0  0  0  0  0  0  0  0  0  0  0  0
    7.0080   -6.5732   21.9416 C   0  0  0  0  0  0  0  0  0  0  0  0
    7.3448   -4.4005   23.6587 C   0  0  0  0  0  0  0  0  0  0  0  0
    7.7617   -5.4726   21.5341 C   0  0  0  0  0  0  0  0  0  0  0  0
    7.9302   -4.3862   22.3927 C   0  0  0  0  0  0  0  0  0  0  0  0
   13.0266   -1.4184   24.9930 C   0  0  0  0  0  0  0  0  0  0  0  0
   10.8825   -0.7384   23.9627 C   0  0  0  0  0  0  0  0  0  0  0  0
   11.0009   -2.9556   25.0318 C   0  0  0  0  0  0  0  0  0  0  0  0
   10.2511   -1.3485   22.7199 C   0  0  0  0  0  0  0  0  0  0  0  0
   10.3691   -3.5993   23.8049 C   0  0  0  0  0  0  0  0  0  0  0  0
   13.8048   -2.4860   25.7199 C   0  0  0  0  0  0  0  0  0  0  0  0
    7.2501   -2.5835   19.9262 C   0  0  0  0  0  0  0  0  0  0  0  0
    6.8405   -1.5224   22.1848 C   0  0  0  0  0  0  0  0  0  0  0  0
    8.7501   -3.1890   21.9486 C   0  0  1  0  0  0  0  0  0  0  0  0
    7.9140   -2.0885   21.2290 C   0  0  0  0  0  0  0  0  0  0  0  0
   11.7041   -1.7200   24.6709 N   0  0  0  0  0  0  0  0  0  0  0  0
    9.4802   -2.5878   23.1165 N   0  3  0  0  0  0  0  0  0  0  0  0
   13.5799   -0.3505   24.7184 O   0  0  0  0  0  0  0  0  0  0  0  0
    6.0138   -3.2250   20.2057 O   0  0  0  0  0  0  0  0  0  0  0  0
    6.1518   -0.4283   21.5898 O   0  0  0  0  0  0  0  0  0  0  0  0
   15.0081   -1.6540   26.6985 Cl  0  0  0  0  0  0  0  0  0  0  0  0
    5.8367   -7.4449   23.5257 H   0  0  0  0  0  0  0  0  0  0  0  0
    6.1362   -5.5125   25.0524 H   0  0  0  0  0  0  0  0  0  0  0  0
    6.8779   -7.4193   21.2734 H   0  0  0  0  0  0  0  0  0  0  0  0
    7.4705   -3.5584   24.3342 H   0  0  0  0  0  0  0  0  0  0  0  0
    8.2140   -5.4702   20.5459 H   0  0  0  0  0  0  0  0  0  0  0  0
   11.4787    0.1345   23.6787 H   0  0  0  0  0  0  0  0  0  0  0  0
   10.1102   -0.3911   24.6599 H   0  0  0  0  0  0  0  0  0  0  0  0
   10.2316   -2.6891   25.7667 H   0  0  0  0  0  0  0  0  0  0  0  0
   11.6647   -3.6767   25.5117 H   0  0  0  0  0  0  0  0  0  0  0  0
    9.5384   -0.6519   22.2667 H   0  0  0  0  0  0  0  0  0  0  0  0
   11.0030   -1.6423   21.9788 H   0  0  0  0  0  0  0  0  0  0  0  0
   11.1225   -3.9325   23.0824 H   0  0  0  0  0  0  0  0  0  0  0  0
    9.7369   -4.4448   24.0952 H   0  0  0  0  0  0  0  0  0  0  0  0
   14.2934   -3.1225   24.9910 H   0  0  0  0  0  0  0  0  0  0  0  0
   13.1270   -3.0427   26.3567 H   0  0  0  0  0  0  0  0  0  0  0  0
    7.8977   -3.2892   19.3964 H   0  0  0  0  0  0  0  0  0  0  0  0
    7.0582   -1.7501   19.2423 H   0  0  0  0  0  0  0  0  0  0  0  0
    6.0996   -2.2860   22.4431 H   0  0  0  0  0  0  0  0  0  0  0  0
    7.2808   -1.1564   23.1171 H   0  0  0  0  0  0  0  0  0  0  0  0
    9.5491   -3.5294   21.2785 H   0  0  0  0  0  0  0  0  0  0  0  0
    8.5701   -1.2570   20.9375 H   0  0  0  0  0  0  0  0  0  0  0  0
    8.7611   -2.2995   23.7943 H   0  0  0  0  0  0  0  0  0  0  0  0
    5.6474   -3.5121   19.3535 H   0  0  0  0  0  0  0  0  0  0  0  0
    5.4981   -0.1245   22.2394 H   0  0  0  0  0  0  0  0  0  0  0  0
  1  2  1  0  0  0  0
  1  3  2  0  0  0  0
  2  4  2  0  0  0  0
  3  5  1  0  0  0  0
  4  6  1  0  0  0  0
  5  6  2  0  0  0  0
  6 15  1  0  0  0  0
  7 12  1  0  0  0  0
  7 17  1  0  0  0  0
  7 19  2  0  0  0  0
  8 10  1  0  0  0  0
  8 17  1  0  0  0  0
  9 11  1  0  0  0  0
  9 17  1  0  0  0  0
 10 18  1  0  0  0  0
 11 18  1  0  0  0  0
 12 22  1  0  0  0  0
 13 16  1  0  0  0  0
 13 20  1  0  0  0  0
 14 16  1  0  0  0  0
 14 21  1  0  0  0  0
 15 16  1  0  0  0  0
 15 18  1  0  0  0  0
  1 23  1  0  0  0  0
  2 24  1  0  0  0  0
  3 25  1  0  0  0  0
  4 26  1  0  0  0  0
  5 27  1  0  0  0  0
  8 28  1  0  0  0  0
  8 29  1  0  0  0  0
  9 30  1  0  0  0  0
  9 31  1  0  0  0  0
 10 32  1  0  0  0  0
 10 33  1  0  0  0  0
 11 34  1  0  0  0  0
 11 35  1  0  0  0  0
 12 36  1  0  0  0  0
 12 37  1  0  0  0  0
 13 38  1  0  0  0  0
 13 39  1  0  0  0  0
 14 40  1  0  0  0  0
 14 41  1  0  0  0  0
 15 42  1  0  0  0  0
 16 43  1  0  0  0  0
 18 44  1  0  0  0  0
 20 45  1  0  0  0  0
 21 46  1  0  0  0  0
M  CHG  1  18   1
M  END
> <Chemgauss4>
-7.998530

> <ref_pdb>
x0749_0

> <CYS145-warhead min dist (A)>
6.516538

> <CYS145-warhead avg dist (A)>
7.42916

> <CYS145-warhead avg dist stderr (A)>
0.026549079

> <original SMILES>
c1ccc(cc1)[C@@H](C(CO)CO)[NH+]2CCN(CC2)C(=O)CCl

$$$$
DAV-CRI-d1e-4_thio_pH
  -OEChem-04232002263D

 44 45  0     0  0  0  0  0  0999 V2000
    9.8653   -0.1874   25.1934 C   0  0  0  0  0  0  0  0  0  0  0  0
   13.0201    1.3830   24.0172 C   0  0  0  0  0  0  0  0  0  0  0  0
   11.8509    1.1427   24.7390 C   0  0  0  0  0  0  0  0  0  0  0  0
   13.3980    0.5151   22.9926 C   0  0  0  0  0  0  0  0  0  0  0  0
   11.0597    0.0345   24.4363 C   0  0  0  0  0  0  0  0  0  0  0  0
   11.4377   -0.8333   23.4117 C   0  0  0  0  0  0  0  0  0  0  0  0
   12.6068   -0.5930   22.6899 C   0  0  0  0  0  0  0  0  0  0  0  0
    6.0873   -1.7290   19.8694 C   0  0  0  0  0  0  0  0  0  0  0  0
    6.9271   -2.4501   22.0821 C   0  0  0  0  0  0  0  0  0  0  0  0
    7.7558   -0.3164   21.1689 C   0  0  0  0  0  0  0  0  0  0  0  0
    8.3485   -2.8886   22.4027 C   0  0  0  0  0  0  0  0  0  0  0  0
    9.1906   -0.7224   21.4776 C   0  0  0  0  0  0  0  0  0  0  0  0
   14.6042   -2.7941   20.4357 C   0  0  0  0  0  0  0  0  0  0  0  0
   10.5927   -2.0277   23.0794 C   0  0  0  0  0  0  0  0  0  0  0  0
    6.1302   -0.7004   18.7677 C   0  0  0  0  0  0  0  0  0  0  0  0
   14.3510   -1.5184   21.1645 C   0  0  0  0  0  0  0  0  0  0  0  0
    8.8970   -0.3673   25.8072 N   0  0  0  0  0  0  0  0  0  0  0  0
    6.9086   -1.4975   20.9719 N   0  0  0  0  0  0  0  0  0  0  0  0
   13.0078   -1.4590   21.6486 N   0  0  0  0  0  0  0  0  0  0  0  0
    9.1958   -1.6630   22.6619 N   0  3  0  0  0  0  0  0  0  0  0  0
    5.3476   -2.7092   19.7507 O   0  0  0  0  0  0  0  0  0  0  0  0
    4.8739    0.4780   19.1295 Cl  0  0  0  0  0  0  0  0  0  0  0  0
   13.6361    2.2459   24.2528 H   0  0  0  0  0  0  0  0  0  0  0  0
   11.5712    1.8287   25.5351 H   0  0  0  0  0  0  0  0  0  0  0  0
   14.3107    0.7136   22.4364 H   0  0  0  0  0  0  0  0  0  0  0  0
    6.3171   -3.3287   21.8501 H   0  0  0  0  0  0  0  0  0  0  0  0
    6.4687   -1.9561   22.9475 H   0  0  0  0  0  0  0  0  0  0  0  0
    7.3288    0.2547   22.0022 H   0  0  0  0  0  0  0  0  0  0  0  0
    7.7499    0.3391   20.2964 H   0  0  0  0  0  0  0  0  0  0  0  0
    8.3693   -3.4980   23.3120 H   0  0  0  0  0  0  0  0  0  0  0  0
    8.8039   -3.4441   21.5751 H   0  0  0  0  0  0  0  0  0  0  0  0
    9.6611   -1.2401   20.6343 H   0  0  0  0  0  0  0  0  0  0  0  0
    9.7882    0.1525   21.7535 H   0  0  0  0  0  0  0  0  0  0  0  0
   13.9155   -2.8720   19.5815 H   0  0  0  0  0  0  0  0  0  0  0  0
   15.6422   -2.8088   20.0720 H   0  0  0  0  0  0  0  0  0  0  0  0
   14.4420   -3.6433   21.1159 H   0  0  0  0  0  0  0  0  0  0  0  0
   11.0272   -2.6031   22.2549 H   0  0  0  0  0  0  0  0  0  0  0  0
   10.4987   -2.6977   23.9408 H   0  0  0  0  0  0  0  0  0  0  0  0
    5.9213   -1.1888   17.8226 H   0  0  0  0  0  0  0  0  0  0  0  0
    7.1025   -0.2214   18.7719 H   0  0  0  0  0  0  0  0  0  0  0  0
   15.0432   -1.4482   22.0165 H   0  0  0  0  0  0  0  0  0  0  0  0
   14.5240   -0.6741   20.4810 H   0  0  0  0  0  0  0  0  0  0  0  0
   12.3000   -2.0447   21.2496 H   0  0  0  0  0  0  0  0  0  0  0  0
    8.7751   -1.1599   23.4554 H   0  0  0  0  0  0  0  0  0  0  0  0
  1  5  1  0  0  0  0
  1 17  3  0  0  0  0
  2  3  2  0  0  0  0
  2  4  1  0  0  0  0
  3  5  1  0  0  0  0
  4  7  2  0  0  0  0
  5  6  2  0  0  0  0
  6  7  1  0  0  0  0
  6 14  1  0  0  0  0
  7 19  1  0  0  0  0
  8 15  1  0  0  0  0
  8 18  1  0  0  0  0
  8 21  2  0  0  0  0
  9 11  1  0  0  0  0
  9 18  1  0  0  0  0
 10 12  1  0  0  0  0
 10 18  1  0  0  0  0
 11 20  1  0  0  0  0
 12 20  1  0  0  0  0
 13 16  1  0  0  0  0
 14 20  1  0  0  0  0
 15 22  1  0  0  0  0
 16 19  1  0  0  0  0
  2 23  1  0  0  0  0
  3 24  1  0  0  0  0
  4 25  1  0  0  0  0
  9 26  1  0  0  0  0
  9 27  1  0  0  0  0
 10 28  1  0  0  0  0
 10 29  1  0  0  0  0
 11 30  1  0  0  0  0
 11 31  1  0  0  0  0
 12 32  1  0  0  0  0
 12 33  1  0  0  0  0
 13 34  1  0  0  0  0
 13 35  1  0  0  0  0
 13 36  1  0  0  0  0
 14 37  1  0  0  0  0
 14 38  1  0  0  0  0
 15 39  1  0  0  0  0
 15 40  1  0  0  0  0
 16 41  1  0  0  0  0
 16 42  1  0  0  0  0
 19 43  1  0  0  0  0
 20 44  1  0  0  0  0
M  CHG  1  20   1
M  END
> <Chemgauss4>
-7.979434

> <ref_pdb>
x0831_0

> <CYS145-warhead min dist (A)>
6.0307336

> <CYS145-warhead avg dist (A)>
7.1106844

> <CYS145-warhead avg dist stderr (A)>
0.051151663

> <original SMILES>
CCNc1cccc(c1C[NH+]2CCN(CC2)C(=O)CCl)C#N

$$$$
TIM-UNK-6bd-2
  -OEChem-04232002263D

 33 35  0     0  0  0  0  0  0999 V2000
    8.8191   -5.0162   24.5238 C   0  0  0  0  0  0  0  0  0  0  0  0
   11.5583   -0.2613   22.3157 C   0  0  0  0  0  0  0  0  0  0  0  0
    9.3967   -3.7528   24.4734 C   0  0  0  0  0  0  0  0  0  0  0  0
   10.7855   -1.4172   22.3059 C   0  0  0  0  0  0  0  0  0  0  0  0
    7.9831   -5.4303   23.4931 C   0  0  0  0  0  0  0  0  0  0  0  0
   11.4594    0.5756   23.4155 C   0  0  0  0  0  0  0  0  0  0  0  0
    9.9225   -0.7957   24.4331 C   0  0  0  0  0  0  0  0  0  0  0  0
    9.9492   -1.6968   23.3809 C   0  0  0  0  0  0  0  0  0  0  0  0
    9.1300   -2.8956   23.4001 C   0  0  0  0  0  0  0  0  0  0  0  0
    8.2613   -3.2755   22.3684 C   0  0  0  0  0  0  0  0  0  0  0  0
    7.7068   -4.5704   22.4233 C   0  0  0  0  0  0  0  0  0  0  0  0
    8.1840   -1.0789   21.0855 C   0  0  0  0  0  0  0  0  0  0  0  0
    7.4893   -3.2015   20.0696 C   0  0  0  0  0  0  0  0  0  0  0  0
    6.3920   -4.1408   20.5247 C   0  0  0  0  0  0  0  0  0  0  0  0
    8.6469   -0.5420   19.7532 C   0  0  0  0  0  0  0  0  0  0  0  0
   10.6585    0.3374   24.4783 N   0  0  0  0  0  0  0  0  0  0  0  0
    7.9882   -2.4540   21.2269 N   0  0  0  0  0  0  0  0  0  0  0  0
    8.0705   -0.2819   22.0245 O   0  0  0  0  0  0  0  0  0  0  0  0
    6.8943   -5.1024   21.4506 O   0  0  0  0  0  0  0  0  0  0  0  0
    7.3856    0.5457   19.1878 Cl  0  0  0  0  0  0  0  0  0  0  0  0
    9.0274   -5.6797   25.3578 H   0  0  0  0  0  0  0  0  0  0  0  0
   12.2181   -0.0228   21.4895 H   0  0  0  0  0  0  0  0  0  0  0  0
   10.0806   -3.4621   25.2680 H   0  0  0  0  0  0  0  0  0  0  0  0
   10.8451   -2.0903   21.4542 H   0  0  0  0  0  0  0  0  0  0  0  0
    7.5418   -6.4231   23.5292 H   0  0  0  0  0  0  0  0  0  0  0  0
   12.0412    1.4901   23.4714 H   0  0  0  0  0  0  0  0  0  0  0  0
    9.2916   -0.9565   25.3027 H   0  0  0  0  0  0  0  0  0  0  0  0
    8.3341   -3.7575   19.6592 H   0  0  0  0  0  0  0  0  0  0  0  0
    7.0908   -2.5366   19.3062 H   0  0  0  0  0  0  0  0  0  0  0  0
    5.5455   -3.6004   20.9722 H   0  0  0  0  0  0  0  0  0  0  0  0
    5.9988   -4.6940   19.6631 H   0  0  0  0  0  0  0  0  0  0  0  0
    8.7624   -1.3707   19.0663 H   0  0  0  0  0  0  0  0  0  0  0  0
    9.5718    0.0009   19.9003 H   0  0  0  0  0  0  0  0  0  0  0  0
  1  3  1  0  0  0  0
  1  5  2  0  0  0  0
  2  4  2  0  0  0  0
  2  6  1  0  0  0  0
  3  9  2  0  0  0  0
  4  8  1  0  0  0  0
  5 11  1  0  0  0  0
  6 16  2  0  0  0  0
  7  8  2  0  0  0  0
  7 16  1  0  0  0  0
  8  9  1  0  0  0  0
  9 10  1  0  0  0  0
 10 11  2  0  0  0  0
 10 17  1  0  0  0  0
 11 19  1  0  0  0  0
 12 15  1  0  0  0  0
 12 17  1  0  0  0  0
 12 18  2  0  0  0  0
 13 14  1  0  0  0  0
 13 17  1  0  0  0  0
 14 19  1  0  0  0  0
 15 20  1  0  0  0  0
  1 21  1  0  0  0  0
  2 22  1  0  0  0  0
  3 23  1  0  0  0  0
  4 24  1  0  0  0  0
  5 25  1  0  0  0  0
  6 26  1  0  0  0  0
  7 27  1  0  0  0  0
 13 28  1  0  0  0  0
 13 29  1  0  0  0  0
 14 30  1  0  0  0  0
 14 31  1  0  0  0  0
 15 32  1  0  0  0  0
 15 33  1  0  0  0  0
M  END
> <Chemgauss4>
-7.955585

> <ref_pdb>
x1418_0

> <CYS145-warhead min dist (A)>
4.6943994

> <CYS145-warhead avg dist (A)>
5.777938

> <CYS145-warhead avg dist stderr (A)>
0.06438935

> <original SMILES>
c1cc(c2c(c1)OCCN2C(=O)CCl)c3cccnc3

$$$$
JAN-GHE-641-5
  -OEChem-04232002263D

 53 55  0     0  0  0  0  0  0999 V2000
   13.4620    0.0836   22.9314 C   0  0  0  0  0  0  0  0  0  0  0  0
   13.1190    1.0461   23.8879 C   0  0  0  0  0  0  0  0  0  0  0  0
   12.6177   -0.9934   22.6687 C   0  0  0  0  0  0  0  0  0  0  0  0
   10.0673    1.0536   25.8998 C   0  0  0  0  0  0  0  0  0  0  0  0
   11.9034    0.9161   24.5885 C   0  0  0  0  0  0  0  0  0  0  0  0
   11.4070   -1.1432   23.3511 C   0  0  0  0  0  0  0  0  0  0  0  0
   11.2536    1.6814   25.5969 C   0  0  0  0  0  0  0  0  0  0  0  0
   11.0771   -0.1734   24.3045 C   0  0  0  0  0  0  0  0  0  0  0  0
    5.2854    0.0278   18.5796 C   0  0  0  0  0  0  0  0  0  0  0  0
    6.1307   -1.0049   18.5579 C   0  0  0  0  0  0  0  0  0  0  0  0
    6.1069   -1.9695   19.6756 C   0  0  0  0  0  0  0  0  0  0  0  0
    9.4071    5.2494   25.7648 C   0  0  0  0  0  0  0  0  0  0  0  0
    7.8500   -0.5798   20.9221 C   0  0  0  0  0  0  0  0  0  0  0  0
    6.8849   -2.6189   21.9216 C   0  0  0  0  0  0  0  0  0  0  0  0
    9.2485   -1.0399   21.3166 C   0  0  0  0  0  0  0  0  0  0  0  0
    8.2712   -3.1078   22.3106 C   0  0  0  0  0  0  0  0  0  0  0  0
    8.0192    5.3926   25.2342 C   0  0  0  0  0  0  0  0  0  0  0  0
   11.7538    2.9262   26.2147 C   0  0  0  0  0  0  0  0  0  0  0  0
   10.5217   -2.3148   23.0434 C   0  0  0  0  0  0  0  0  0  0  0  0
   11.6046    4.1728   25.3238 C   0  0  0  0  0  0  0  0  0  0  0  0
    9.9699   -0.0643   25.1154 N   0  0  0  0  0  0  0  0  0  0  0  0
    6.9355   -1.7197   20.7669 N   0  0  0  0  0  0  0  0  0  0  0  0
   10.2306    4.4432   24.9954 N   0  0  0  0  0  0  0  0  0  0  0  0
    9.1621   -1.9109   22.5468 N   0  3  0  0  0  0  0  0  0  0  0  0
    5.3502   -2.9370   19.5765 O   0  0  0  0  0  0  0  0  0  0  0  0
    9.7212    5.8270   26.7989 O   0  0  0  0  0  0  0  0  0  0  0  0
   14.3988    0.1785   22.3884 H   0  0  0  0  0  0  0  0  0  0  0  0
   13.7885    1.8796   24.0804 H   0  0  0  0  0  0  0  0  0  0  0  0
   12.9131   -1.7252   21.9202 H   0  0  0  0  0  0  0  0  0  0  0  0
    9.2834    1.3003   26.6024 H   0  0  0  0  0  0  0  0  0  0  0  0
    5.2556    0.7690   17.7879 H   0  0  0  0  0  0  0  0  0  0  0  0
    4.5956    0.1491   19.4081 H   0  0  0  0  0  0  0  0  0  0  0  0
    6.8328   -1.1599   17.7492 H   0  0  0  0  0  0  0  0  0  0  0  0
    7.4258    0.0766   21.6911 H   0  0  0  0  0  0  0  0  0  0  0  0
    7.9336    0.0016   20.0031 H   0  0  0  0  0  0  0  0  0  0  0  0
    6.2385   -3.4784   21.7177 H   0  0  0  0  0  0  0  0  0  0  0  0
    6.4264   -2.0621   22.7480 H   0  0  0  0  0  0  0  0  0  0  0  0
    9.7249   -1.6255   20.5223 H   0  0  0  0  0  0  0  0  0  0  0  0
    9.8792   -0.1809   21.5681 H   0  0  0  0  0  0  0  0  0  0  0  0
    8.2319   -3.6756   23.2458 H   0  0  0  0  0  0  0  0  0  0  0  0
    8.7281   -3.7208   21.5257 H   0  0  0  0  0  0  0  0  0  0  0  0
    7.3377    4.6202   25.6254 H   0  0  0  0  0  0  0  0  0  0  0  0
    7.5597    6.3545   25.5128 H   0  0  0  0  0  0  0  0  0  0  0  0
    7.9253    5.3336   24.1380 H   0  0  0  0  0  0  0  0  0  0  0  0
   12.8263    2.8188   26.4712 H   0  0  0  0  0  0  0  0  0  0  0  0
   11.2551    3.1232   27.1852 H   0  0  0  0  0  0  0  0  0  0  0  0
   10.9629   -2.9518   22.2692 H   0  0  0  0  0  0  0  0  0  0  0  0
   10.3608   -2.9334   23.9329 H   0  0  0  0  0  0  0  0  0  0  0  0
   11.9898    5.0644   25.8287 H   0  0  0  0  0  0  0  0  0  0  0  0
   12.1512    4.0504   24.3830 H   0  0  0  0  0  0  0  0  0  0  0  0
    9.1964   -0.7145   25.1300 H   0  0  0  0  0  0  0  0  0  0  0  0
    9.8428    4.0201   24.1536 H   0  0  0  0  0  0  0  0  0  0  0  0
    8.7322   -1.3482   23.2939 H   0  0  0  0  0  0  0  0  0  0  0  0
  1  2  1  0  0  0  0
  1  3  2  0  0  0  0
  2  5  2  0  0  0  0
  3  6  1  0  0  0  0
  4  7  2  0  0  0  0
  4 21  1  0  0  0  0
  5  7  1  0  0  0  0
  5  8  1  0  0  0  0
  6  8  2  0  0  0  0
  6 19  1  0  0  0  0
  7 18  1  0  0  0  0
  8 21  1  0  0  0  0
  9 10  2  0  0  0  0
 10 11  1  0  0  0  0
 11 22  1  0  0  0  0
 11 25  2  0  0  0  0
 12 17  1  0  0  0  0
 12 23  1  0  0  0  0
 12 26  2  0  0  0  0
 13 15  1  0  0  0  0
 13 22  1  0  0  0  0
 14 16  1  0  0  0  0
 14 22  1  0  0  0  0
 15 24  1  0  0  0  0
 16 24  1  0  0  0  0
 18 20  1  0  0  0  0
 19 24  1  0  0  0  0
 20 23  1  0  0  0  0
  1 27  1  0  0  0  0
  2 28  1  0  0  0  0
  3 29  1  0  0  0  0
  4 30  1  0  0  0  0
  9 31  1  0  0  0  0
  9 32  1  0  0  0  0
 10 33  1  0  0  0  0
 13 34  1  0  0  0  0
 13 35  1  0  0  0  0
 14 36  1  0  0  0  0
 14 37  1  0  0  0  0
 15 38  1  0  0  0  0
 15 39  1  0  0  0  0
 16 40  1  0  0  0  0
 16 41  1  0  0  0  0
 17 42  1  0  0  0  0
 17 43  1  0  0  0  0
 17 44  1  0  0  0  0
 18 45  1  0  0  0  0
 18 46  1  0  0  0  0
 19 47  1  0  0  0  0
 19 48  1  0  0  0  0
 20 49  1  0  0  0  0
 20 50  1  0  0  0  0
 21 51  1  0  0  0  0
 23 52  1  0  0  0  0
 24 53  1  0  0  0  0
M  CHG  1  24   1
M  END
> <Chemgauss4>
-7.954009

> <ref_pdb>
x0830_0

> <CYS145-warhead min dist (A)>
5.912964

> <CYS145-warhead avg dist (A)>
7.2514215

> <CYS145-warhead avg dist stderr (A)>
0.017271373

> <original SMILES>
CC(=O)NCCc1c[nH]c2c1cccc2C[NH+]3CCN(CC3)C(=O)C=C

$$$$
STU-CHA-0be-1
  -OEChem-04232002263D

 45 46  0     1  0  0  0  0  0999 V2000
   12.5304   -2.8486   26.3861 C   0  0  0  0  0  0  0  0  0  0  0  0
   12.8745   -1.5463   26.0237 C   0  0  0  0  0  0  0  0  0  0  0  0
   11.6663   -3.5912   25.5814 C   0  0  0  0  0  0  0  0  0  0  0  0
   11.4905   -1.7293   24.0519 C   0  0  0  0  0  0  0  0  0  0  0  0
   12.3546   -0.9867   24.8566 C   0  0  0  0  0  0  0  0  0  0  0  0
   11.1464   -3.0316   24.4143 C   0  0  0  0  0  0  0  0  0  0  0  0
    5.7021   -6.2341   23.8273 C   0  0  0  0  0  0  0  0  0  0  0  0
    6.2505   -2.5961   20.9472 C   0  0  0  0  0  0  0  0  0  0  0  0
    7.7424   -5.3248   24.8845 C   0  0  0  0  0  0  0  0  0  0  0  0
    7.5522   -5.1953   22.4286 C   0  0  0  0  0  0  0  0  0  0  0  0
    8.1373   -3.8588   24.9641 C   0  0  0  0  0  0  0  0  0  0  0  0
    7.9550   -3.7183   22.4305 C   0  0  1  0  0  0  0  0  0  0  0  0
   12.7242    0.4052   24.4691 C   0  0  0  0  0  0  0  0  0  0  0  0
   10.2165   -3.8303   23.5492 C   0  0  0  0  0  0  0  0  0  0  0  0
    4.9270   -6.4746   22.5564 C   0  0  0  0  0  0  0  0  0  0  0  0
    6.7504   -2.7802   22.3618 C   0  0  0  0  0  0  0  0  0  0  0  0
    6.9356   -5.5957   23.6967 N   0  0  0  0  0  0  0  0  0  0  0  0
    6.8495   -1.5227   20.3236 N   0  0  0  0  0  0  0  0  0  0  0  0
    8.7764   -3.3979   23.6727 N   0  3  2  0  0  0  0  0  0  0  0  0
    5.2225   -6.6003   24.9034 O   0  0  0  0  0  0  0  0  0  0  0  0
    5.4104   -3.3140   20.4125 O   0  0  0  0  0  0  0  0  0  0  0  0
    5.4506   -8.0359   21.9350 Cl  0  0  0  0  0  0  0  0  0  0  0  0
   12.9354   -3.2843   27.2949 H   0  0  0  0  0  0  0  0  0  0  0  0
   13.5489   -0.9754   26.6567 H   0  0  0  0  0  0  0  0  0  0  0  0
   11.4031   -4.6049   25.8719 H   0  0  0  0  0  0  0  0  0  0  0  0
   11.0856   -1.2939   23.1414 H   0  0  0  0  0  0  0  0  0  0  0  0
    8.6465   -5.9396   24.9145 H   0  0  0  0  0  0  0  0  0  0  0  0
    7.1405   -5.6084   25.7591 H   0  0  0  0  0  0  0  0  0  0  0  0
    6.8201   -5.4030   21.6377 H   0  0  0  0  0  0  0  0  0  0  0  0
    8.4291   -5.8182   22.2221 H   0  0  0  0  0  0  0  0  0  0  0  0
    7.2465   -3.2358   25.1301 H   0  0  0  0  0  0  0  0  0  0  0  0
    8.8567   -3.6755   25.7769 H   0  0  0  0  0  0  0  0  0  0  0  0
    8.6288   -3.5051   21.5632 H   0  0  0  0  0  0  0  0  0  0  0  0
   13.6220    0.4006   23.8389 H   0  0  0  0  0  0  0  0  0  0  0  0
   11.9123    0.8933   23.9145 H   0  0  0  0  0  0  0  0  0  0  0  0
   12.9226    1.0255   25.3530 H   0  0  0  0  0  0  0  0  0  0  0  0
   10.4830   -3.7378   22.4908 H   0  0  0  0  0  0  0  0  0  0  0  0
   10.2492   -4.8937   23.8098 H   0  0  0  0  0  0  0  0  0  0  0  0
    5.1661   -5.6920   21.8455 H   0  0  0  0  0  0  0  0  0  0  0  0
    3.8690   -6.5026   22.7902 H   0  0  0  0  0  0  0  0  0  0  0  0
    7.0313   -1.8053   22.7681 H   0  0  0  0  0  0  0  0  0  0  0  0
    5.9418   -3.1894   22.9725 H   0  0  0  0  0  0  0  0  0  0  0  0
    7.5370   -0.9713   20.8273 H   0  0  0  0  0  0  0  0  0  0  0  0
    6.6132   -1.2758   19.3683 H   0  0  0  0  0  0  0  0  0  0  0  0
    8.8130   -2.3418   23.7234 H   0  0  0  0  0  0  0  0  0  0  0  0
  1  2  2  0  0  0  0
  1  3  1  0  0  0  0
  2  5  1  0  0  0  0
  3  6  2  0  0  0  0
  4  5  2  0  0  0  0
  4  6  1  0  0  0  0
  5 13  1  0  0  0  0
  6 14  1  0  0  0  0
  7 15  1  0  0  0  0
  7 17  1  0  0  0  0
  7 20  2  0  0  0  0
  8 16  1  0  0  0  0
  8 18  1  0  0  0  0
  8 21  2  0  0  0  0
  9 11  1  0  0  0  0
  9 17  1  0  0  0  0
 10 12  1  0  0  0  0
 10 17  1  0  0  0  0
 11 19  1  0  0  0  0
 12 16  1  0  0  0  0
 12 19  1  0  0  0  0
 14 19  1  0  0  0  0
 15 22  1  0  0  0  0
  1 23  1  0  0  0  0
  2 24  1  0  0  0  0
  3 25  1  0  0  0  0
  4 26  1  0  0  0  0
  9 27  1  0  0  0  0
  9 28  1  0  0  0  0
 10 29  1  0  0  0  0
 10 30  1  0  0  0  0
 11 31  1  0  0  0  0
 11 32  1  0  0  0  0
 12 33  1  0  0  0  0
 13 34  1  0  0  0  0
 13 35  1  0  0  0  0
 13 36  1  0  0  0  0
 14 37  1  0  0  0  0
 14 38  1  0  0  0  0
 15 39  1  0  0  0  0
 15 40  1  0  0  0  0
 16 41  1  0  0  0  0
 16 42  1  0  0  0  0
 18 43  1  0  0  0  0
 18 44  1  0  0  0  0
 19 45  1  0  0  0  0
M  CHG  1  19   1
M  END
> <Chemgauss4>
-7.947461

> <ref_pdb>
x0749_0

> <CYS145-warhead min dist (A)>
3.090558

> <CYS145-warhead avg dist (A)>
4.9118137

> <CYS145-warhead avg dist stderr (A)>
0.06001736

> <original SMILES>
Cc1cccc(c1)C[N@@H+]2CCN(C[C@H]2CC(=O)N)C(=O)CCl

$$$$
JOH-UNI-27a-32_thio_pH
  -OEChem-04232002263D

 39 41  0     0  0  0  0  0  0999 V2000
   12.6176   -1.8845   22.1286 C   0  0  0  0  0  0  0  0  0  0  0  0
   11.4453   -2.3343   22.7359 C   0  0  0  0  0  0  0  0  0  0  0  0
   12.9882   -0.5439   22.2349 C   0  0  0  0  0  0  0  0  0  0  0  0
   11.0139   -0.1029   23.5557 C   0  0  0  0  0  0  0  0  0  0  0  0
   10.6434   -1.4435   23.4495 C   0  0  0  0  0  0  0  0  0  0  0  0
   12.1863    0.3468   22.9484 C   0  0  0  0  0  0  0  0  0  0  0  0
    6.2115   -1.2729   19.6092 C   0  0  0  0  0  0  0  0  0  0  0  0
    9.2482   -1.7857   25.5963 C   0  0  0  0  0  0  0  0  0  0  0  0
    9.4564   -3.1409   24.9929 C   0  0  0  0  0  0  0  0  0  0  0  0
    6.6294   -2.7099   21.5794 C   0  0  0  0  0  0  0  0  0  0  0  0
    6.7538   -0.2673   21.8813 C   0  0  0  0  0  0  0  0  0  0  0  0
    7.9610   -2.8868   22.2944 C   0  0  0  0  0  0  0  0  0  0  0  0
    8.0873   -0.4077   22.6031 C   0  0  0  0  0  0  0  0  0  0  0  0
    9.3973   -1.9222   24.0948 C   0  0  0  0  0  0  0  0  0  0  0  0
    6.7827   -0.0857   18.8757 C   0  0  0  0  0  0  0  0  0  0  0  0
    6.5368   -1.3878   20.9600 N   0  0  0  0  0  0  0  0  0  0  0  0
    8.1432   -1.7572   23.2834 N   0  3  0  0  0  0  0  0  0  0  0  0
    5.5002   -2.0742   18.9978 O   0  0  0  0  0  0  0  0  0  0  0  0
   12.6440    2.0007   23.0792 Cl  0  0  0  0  0  0  0  0  0  0  0  0
    7.8029   -0.7286   17.5937 Cl  0  0  0  0  0  0  0  0  0  0  0  0
   13.2420   -2.5781   21.5730 H   0  0  0  0  0  0  0  0  0  0  0  0
   11.1653   -3.3807   22.6473 H   0  0  0  0  0  0  0  0  0  0  0  0
   13.9045   -0.2077   21.7565 H   0  0  0  0  0  0  0  0  0  0  0  0
   10.3855    0.5882   24.1132 H   0  0  0  0  0  0  0  0  0  0  0  0
    8.2689   -1.5612   26.0035 H   0  0  0  0  0  0  0  0  0  0  0  0
   10.0665   -1.3582   26.1647 H   0  0  0  0  0  0  0  0  0  0  0  0
   10.4142   -3.6210   25.1575 H   0  0  0  0  0  0  0  0  0  0  0  0
    8.6176   -3.8272   24.9946 H   0  0  0  0  0  0  0  0  0  0  0  0
    6.5086   -3.4991   20.8306 H   0  0  0  0  0  0  0  0  0  0  0  0
    5.7953   -2.8022   22.2853 H   0  0  0  0  0  0  0  0  0  0  0  0
    5.9247   -0.2717   22.5990 H   0  0  0  0  0  0  0  0  0  0  0  0
    6.7247    0.6945   21.3666 H   0  0  0  0  0  0  0  0  0  0  0  0
    7.9750   -3.8225   22.8627 H   0  0  0  0  0  0  0  0  0  0  0  0
    8.8067   -2.8652   21.5976 H   0  0  0  0  0  0  0  0  0  0  0  0
    8.9355   -0.3425   21.9125 H   0  0  0  0  0  0  0  0  0  0  0  0
    8.1873    0.3538   23.3832 H   0  0  0  0  0  0  0  0  0  0  0  0
    7.3780    0.5010   19.5661 H   0  0  0  0  0  0  0  0  0  0  0  0
    5.9684    0.4896   18.4504 H   0  0  0  0  0  0  0  0  0  0  0  0
    7.3594   -1.8015   23.9597 H   0  0  0  0  0  0  0  0  0  0  0  0
  1  2  2  0  0  0  0
  1  3  1  0  0  0  0
  2  5  1  0  0  0  0
  3  6  2  0  0  0  0
  4  5  2  0  0  0  0
  4  6  1  0  0  0  0
  5 14  1  0  0  0  0
  6 19  1  0  0  0  0
  7 15  1  0  0  0  0
  7 16  1  0  0  0  0
  7 18  2  0  0  0  0
  8  9  1  0  0  0  0
  8 14  1  0  0  0  0
  9 14  1  0  0  0  0
 10 12  1  0  0  0  0
 10 16  1  0  0  0  0
 11 13  1  0  0  0  0
 11 16  1  0  0  0  0
 12 17  1  0  0  0  0
 13 17  1  0  0  0  0
 14 17  1  0  0  0  0
 15 20  1  0  0  0  0
  1 21  1  0  0  0  0
  2 22  1  0  0  0  0
  3 23  1  0  0  0  0
  4 24  1  0  0  0  0
  8 25  1  0  0  0  0
  8 26  1  0  0  0  0
  9 27  1  0  0  0  0
  9 28  1  0  0  0  0
 10 29  1  0  0  0  0
 10 30  1  0  0  0  0
 11 31  1  0  0  0  0
 11 32  1  0  0  0  0
 12 33  1  0  0  0  0
 12 34  1  0  0  0  0
 13 35  1  0  0  0  0
 13 36  1  0  0  0  0
 15 37  1  0  0  0  0
 15 38  1  0  0  0  0
 17 39  1  0  0  0  0
M  CHG  1  17   1
M  END
> <Chemgauss4>
-7.905780

> <ref_pdb>
x0831_0

> <CYS145-warhead min dist (A)>
5.248814

> <CYS145-warhead avg dist (A)>
6.74296

> <CYS145-warhead avg dist stderr (A)>
0.035029292

> <original SMILES>
c1cc(cc(c1)Cl)C2(CC2)[NH+]3CCN(CC3)C(=O)CCl

$$$$
PAU-WEI-c6d-1
  -OEChem-04232002263D

 55 57  0     1  0  0  0  0  0999 V2000
    4.8668    1.9017   20.3752 C   0  0  0  0  0  0  0  0  0  0  0  0
    4.6977    1.1252   19.2289 C   0  0  0  0  0  0  0  0  0  0  0  0
    6.1242    2.0020   20.9705 C   0  0  0  0  0  0  0  0  0  0  0  0
    5.7861    0.4488   18.6780 C   0  0  0  0  0  0  0  0  0  0  0  0
    7.2127    1.3256   20.4196 C   0  0  0  0  0  0  0  0  0  0  0  0
    7.0436    0.5490   19.2733 C   0  0  0  0  0  0  0  0  0  0  0  0
    9.8757   -0.5233   22.7432 C   0  0  0  0  0  0  0  0  0  0  0  0
    6.2741   -4.1965   21.0083 C   0  0  0  0  0  0  0  0  0  0  0  0
   13.9287    0.2384   23.5881 C   0  0  0  0  0  0  0  0  0  0  0  0
   12.8342    1.3041   23.6115 C   0  0  0  0  0  0  0  0  0  0  0  0
   13.4784   -0.9898   22.7984 C   0  0  0  0  0  0  0  0  0  0  0  0
    8.9788   -2.7970   22.9463 C   0  0  0  0  0  0  0  0  0  0  0  0
   11.5131    0.7276   24.1132 C   0  0  0  0  0  0  0  0  0  0  0  0
   12.1438   -1.5232   23.3146 C   0  0  0  0  0  0  0  0  0  0  0  0
    8.4986   -4.0530   22.2277 C   0  0  0  0  0  0  0  0  0  0  0  0
    8.1088   -2.7737   20.1552 C   0  0  0  0  0  0  0  0  0  0  0  0
    9.5636   -1.7699   21.9694 C   0  0  1  0  0  0  0  0  0  0  0  0
    8.5885   -1.4706   20.8136 C   0  0  1  0  0  0  0  0  0  0  0  0
    8.2206   -0.1821   18.6784 C   0  0  0  0  0  0  0  0  0  0  0  0
    5.8009   -5.1638   22.0639 C   0  0  0  0  0  0  0  0  0  0  0  0
    9.2304   -0.5675   19.7557 C   0  0  0  0  0  0  0  0  0  0  0  0
   11.1331   -0.4584   23.3427 N   0  0  0  0  0  0  0  0  0  0  0  0
    7.5714   -3.7040   21.1480 N   0  0  0  0  0  0  0  0  0  0  0  0
    9.0284    0.3707   22.8130 O   0  0  0  0  0  0  0  0  0  0  0  0
    5.5112   -3.8874   20.0893 O   0  0  0  0  0  0  0  0  0  0  0  0
    5.0875   -4.1966   23.3498 Cl  0  0  0  0  0  0  0  0  0  0  0  0
    4.0195    2.4294   20.8032 H   0  0  0  0  0  0  0  0  0  0  0  0
    3.7189    1.0478   18.7646 H   0  0  0  0  0  0  0  0  0  0  0  0
    6.2564    2.6074   21.8623 H   0  0  0  0  0  0  0  0  0  0  0  0
    5.6450   -0.1541   17.7848 H   0  0  0  0  0  0  0  0  0  0  0  0
    8.1886    1.4095   20.8903 H   0  0  0  0  0  0  0  0  0  0  0  0
   14.8417    0.6519   23.1454 H   0  0  0  0  0  0  0  0  0  0  0  0
   14.1739   -0.0570   24.6156 H   0  0  0  0  0  0  0  0  0  0  0  0
   13.1435    2.1344   24.2561 H   0  0  0  0  0  0  0  0  0  0  0  0
   12.6964    1.7134   22.6032 H   0  0  0  0  0  0  0  0  0  0  0  0
   13.3831   -0.7311   21.7364 H   0  0  0  0  0  0  0  0  0  0  0  0
   14.2417   -1.7725   22.8711 H   0  0  0  0  0  0  0  0  0  0  0  0
    8.1410   -2.3559   23.5030 H   0  0  0  0  0  0  0  0  0  0  0  0
    9.7338   -3.0697   23.6942 H   0  0  0  0  0  0  0  0  0  0  0  0
   11.6025    0.4208   25.1621 H   0  0  0  0  0  0  0  0  0  0  0  0
   10.7327    1.4935   24.0621 H   0  0  0  0  0  0  0  0  0  0  0  0
   11.8311   -2.3695   22.7006 H   0  0  0  0  0  0  0  0  0  0  0  0
   12.2522   -1.8915   24.3418 H   0  0  0  0  0  0  0  0  0  0  0  0
    9.3461   -4.5773   21.7701 H   0  0  0  0  0  0  0  0  0  0  0  0
    8.0509   -4.7366   22.9509 H   0  0  0  0  0  0  0  0  0  0  0  0
    7.3577   -2.5510   19.3898 H   0  0  0  0  0  0  0  0  0  0  0  0
    8.9401   -3.2840   19.6528 H   0  0  0  0  0  0  0  0  0  0  0  0
   10.5088   -2.1583   21.5679 H   0  0  0  0  0  0  0  0  0  0  0  0
    7.7103   -0.9425   21.2106 H   0  0  0  0  0  0  0  0  0  0  0  0
    7.8716   -1.0801   18.1522 H   0  0  0  0  0  0  0  0  0  0  0  0
    8.7031    0.4473   17.9194 H   0  0  0  0  0  0  0  0  0  0  0  0
    6.6536   -5.7156   22.4426 H   0  0  0  0  0  0  0  0  0  0  0  0
    5.0527   -5.8178   21.6310 H   0  0  0  0  0  0  0  0  0  0  0  0
   10.0799   -1.0967   19.3161 H   0  0  0  0  0  0  0  0  0  0  0  0
    9.6238    0.3235   20.2519 H   0  0  0  0  0  0  0  0  0  0  0  0
  1  2  1  0  0  0  0
  1  3  2  0  0  0  0
  2  4  2  0  0  0  0
  3  5  1  0  0  0  0
  4  6  1  0  0  0  0
  5  6  2  0  0  0  0
  6 19  1  0  0  0  0
  7 17  1  0  0  0  0
  7 22  1  0  0  0  0
  7 24  2  0  0  0  0
  8 20  1  0  0  0  0
  8 23  1  0  0  0  0
  8 25  2  0  0  0  0
  9 10  1  0  0  0  0
  9 11  1  0  0  0  0
 10 13  1  0  0  0  0
 11 14  1  0  0  0  0
 12 15  1  0  0  0  0
 12 17  1  0  0  0  0
 13 22  1  0  0  0  0
 14 22  1  0  0  0  0
 15 23  1  0  0  0  0
 16 18  1  0  0  0  0
 16 23  1  0  0  0  0
 17 18  1  0  0  0  0
 18 21  1  0  0  0  0
 19 21  1  0  0  0  0
 20 26  1  0  0  0  0
  1 27  1  0  0  0  0
  2 28  1  0  0  0  0
  3 29  1  0  0  0  0
  4 30  1  0  0  0  0
  5 31  1  0  0  0  0
  9 32  1  0  0  0  0
  9 33  1  0  0  0  0
 10 34  1  0  0  0  0
 10 35  1  0  0  0  0
 11 36  1  0  0  0  0
 11 37  1  0  0  0  0
 12 38  1  0  0  0  0
 12 39  1  0  0  0  0
 13 40  1  0  0  0  0
 13 41  1  0  0  0  0
 14 42  1  0  0  0  0
 14 43  1  0  0  0  0
 15 44  1  0  0  0  0
 15 45  1  0  0  0  0
 16 46  1  0  0  0  0
 16 47  1  0  0  0  0
 17 48  1  0  0  0  0
 18 49  1  0  0  0  0
 19 50  1  0  0  0  0
 19 51  1  0  0  0  0
 20 52  1  0  0  0  0
 20 53  1  0  0  0  0
 21 54  1  0  0  0  0
 21 55  1  0  0  0  0
M  END
> <Chemgauss4>
-7.882946

> <ref_pdb>
x0708_0

> <CYS145-warhead min dist (A)>
8.816704

> <CYS145-warhead avg dist (A)>
9.876663

> <CYS145-warhead avg dist stderr (A)>
0.13271864

> <original SMILES>
c1ccc(cc1)CC[C@H]2CN(CC[C@@H]2C(=O)N3CCCCC3)C(=O)CCl

$$$$
JUA-UNI-bc0-1_thio_pH
  -OEChem-04232002263D

 47 48  0     1  0  0  0  0  0999 V2000
   13.4645    0.1153   22.3484 C   0  0  0  0  0  0  0  0  0  0  0  0
    5.7598    0.7164   18.3711 C   0  0  0  0  0  0  0  0  0  0  0  0
   12.9722    0.9183   23.3772 C   0  0  0  0  0  0  0  0  0  0  0  0
   12.7681   -1.0306   21.9640 C   0  0  0  0  0  0  0  0  0  0  0  0
    6.9402    0.0883   17.9739 C   0  0  0  0  0  0  0  0  0  0  0  0
    5.5192    0.9576   19.7238 C   0  0  0  0  0  0  0  0  0  0  0  0
   11.7836    0.5754   24.0217 C   0  0  0  0  0  0  0  0  0  0  0  0
   11.5796   -1.3735   22.6085 C   0  0  0  0  0  0  0  0  0  0  0  0
    7.8798   -0.2989   18.9293 C   0  0  0  0  0  0  0  0  0  0  0  0
    6.4589    0.5705   20.6792 C   0  0  0  0  0  0  0  0  0  0  0  0
   11.0873   -0.5706   23.6374 C   0  0  0  0  0  0  0  0  0  0  0  0
    7.6392   -0.0577   20.2819 C   0  0  0  0  0  0  0  0  0  0  0  0
    7.8929   -3.6387   22.4316 C   0  0  0  0  0  0  0  0  0  0  0  0
    8.8857   -3.0419   23.3678 C   0  0  0  0  0  0  0  0  0  0  0  0
    6.0977   -4.9831   22.0364 C   0  0  0  0  0  0  0  0  0  0  0  0
    4.0830   -6.4951   21.8035 C   0  0  0  0  0  0  0  0  0  0  0  0
    9.8081   -0.9404   24.3308 C   0  0  0  0  0  0  0  0  0  0  0  0
    5.1174   -5.9032   22.7442 C   0  0  0  0  0  0  0  0  0  0  0  0
    7.9966   -0.8248   22.6543 C   0  0  0  0  0  0  0  0  0  0  0  0
    8.6569   -0.4772   21.3178 C   0  0  2  0  0  0  0  0  0  0  0  0
    7.0090   -4.4373   22.9163 N   0  0  0  0  0  0  0  0  0  0  0  0
    8.8973   -1.6546   23.4488 N   0  0  0  0  0  0  0  0  0  0  0  0
    9.5876   -3.8375   23.9794 O   0  0  0  0  0  0  0  0  0  0  0  0
    6.0442   -4.7823   20.8250 O   0  0  0  0  0  0  0  0  0  0  0  0
    9.5829    0.5944   21.4998 O   0  0  0  0  0  0  0  0  0  0  0  0
   14.3892    0.3832   21.8458 H   0  0  0  0  0  0  0  0  0  0  0  0
    5.0289    1.0190   17.6270 H   0  0  0  0  0  0  0  0  0  0  0  0
   13.5137    1.8112   23.6759 H   0  0  0  0  0  0  0  0  0  0  0  0
   13.1505   -1.6554   21.1623 H   0  0  0  0  0  0  0  0  0  0  0  0
    7.1282   -0.0986   16.9206 H   0  0  0  0  0  0  0  0  0  0  0  0
    4.6008    1.4476   20.0333 H   0  0  0  0  0  0  0  0  0  0  0  0
   11.4077    1.2069   24.8224 H   0  0  0  0  0  0  0  0  0  0  0  0
   11.0439   -2.2682   22.3024 H   0  0  0  0  0  0  0  0  0  0  0  0
    8.7966   -0.7879   18.6106 H   0  0  0  0  0  0  0  0  0  0  0  0
    6.2628    0.7623   21.7308 H   0  0  0  0  0  0  0  0  0  0  0  0
    7.9944   -3.3407   21.3746 H   0  0  0  0  0  0  0  0  0  0  0  0
    3.4991   -5.7076   21.3156 H   0  0  0  0  0  0  0  0  0  0  0  0
    4.5604   -7.0928   21.0201 H   0  0  0  0  0  0  0  0  0  0  0  0
    3.3922   -7.1411   22.3541 H   0  0  0  0  0  0  0  0  0  0  0  0
   10.0094   -1.5799   25.1972 H   0  0  0  0  0  0  0  0  0  0  0  0
    9.2883   -0.0492   24.6982 H   0  0  0  0  0  0  0  0  0  0  0  0
    5.6853   -6.7120   23.2171 H   0  0  0  0  0  0  0  0  0  0  0  0
    4.6115   -5.3294   23.5285 H   0  0  0  0  0  0  0  0  0  0  0  0
    7.0633   -1.3763   22.4967 H   0  0  0  0  0  0  0  0  0  0  0  0
    7.7635    0.0795   23.2270 H   0  0  0  0  0  0  0  0  0  0  0  0
    9.2331   -1.3329   20.9446 H   0  0  0  0  0  0  0  0  0  0  0  0
    9.0644    1.3559   21.8001 H   0  0  0  0  0  0  0  0  0  0  0  0
  1  3  1  0  0  0  0
  1  4  2  0  0  0  0
  2  5  1  0  0  0  0
  2  6  2  0  0  0  0
  3  7  2  0  0  0  0
  4  8  1  0  0  0  0
  5  9  2  0  0  0  0
  6 10  1  0  0  0  0
  7 11  1  0  0  0  0
  8 11  2  0  0  0  0
  9 12  1  0  0  0  0
 10 12  2  0  0  0  0
 11 17  1  0  0  0  0
 12 20  1  0  0  0  0
 13 14  1  0  0  0  0
 13 21  2  0  0  0  0
 14 22  1  0  0  0  0
 14 23  2  0  0  0  0
 15 18  1  0  0  0  0
 15 21  1  0  0  0  0
 15 24  2  0  0  0  0
 16 18  1  0  0  0  0
 17 22  1  0  0  0  0
 19 20  1  0  0  0  0
 19 22  1  0  0  0  0
 20 25  1  0  0  0  0
  1 26  1  0  0  0  0
  2 27  1  0  0  0  0
  3 28  1  0  0  0  0
  4 29  1  0  0  0  0
  5 30  1  0  0  0  0
  6 31  1  0  0  0  0
  7 32  1  0  0  0  0
  8 33  1  0  0  0  0
  9 34  1  0  0  0  0
 10 35  1  0  0  0  0
 13 36  1  0  0  0  0
 16 37  1  0  0  0  0
 16 38  1  0  0  0  0
 16 39  1  0  0  0  0
 17 40  1  0  0  0  0
 17 41  1  0  0  0  0
 18 42  1  0  0  0  0
 18 43  1  0  0  0  0
 19 44  1  0  0  0  0
 19 45  1  0  0  0  0
 20 46  1  0  0  0  0
 25 47  1  0  0  0  0
M  END
> <Chemgauss4>
-7.872019

> <ref_pdb>
x0831_0

> <original SMILES>
CCC(=O)/N=C/C(=O)N(Cc1ccccc1)C[C@@H](c2ccccc2)O

$$$$
JOH-UNI-27a-26_thio_pH
  -OEChem-04232002263D

 34 35  0     0  0  0  0  0  0999 V2000
   11.4710   -0.3861   25.7007 C   0  0  0  0  0  0  0  0  0  0  0  0
   10.5487   -1.3321   25.2535 C   0  0  0  0  0  0  0  0  0  0  0  0
   12.7870   -0.7656   25.9649 C   0  0  0  0  0  0  0  0  0  0  0  0
   12.2584   -3.0372   25.3347 C   0  0  0  0  0  0  0  0  0  0  0  0
   10.9424   -2.6577   25.0705 C   0  0  0  0  0  0  0  0  0  0  0  0
   13.1807   -2.0911   25.7819 C   0  0  0  0  0  0  0  0  0  0  0  0
    5.8795   -0.3967   19.3013 C   0  0  0  0  0  0  0  0  0  0  0  0
    6.8492   -1.2840   19.5332 C   0  0  0  0  0  0  0  0  0  0  0  0
    9.9707   -3.6530   24.6003 C   0  0  0  0  0  0  0  0  0  0  0  0
    6.5711   -2.4277   20.4249 C   0  0  0  0  0  0  0  0  0  0  0  0
    8.3819   -4.4033   22.8596 C   0  0  0  0  0  0  0  0  0  0  0  0
    9.6625   -2.3493   22.4311 C   0  0  0  0  0  0  0  0  0  0  0  0
    7.0922   -3.6835   22.4815 C   0  0  0  0  0  0  0  0  0  0  0  0
    8.3818   -1.6158   22.0353 C   0  0  0  0  0  0  0  0  0  0  0  0
    9.3658   -3.4453   23.3601 N   0  0  0  0  0  0  0  0  0  0  0  0
    7.3497   -2.5600   21.5722 N   0  0  0  0  0  0  0  0  0  0  0  0
    9.7546   -4.6009   25.3537 O   0  0  0  0  0  0  0  0  0  0  0  0
    5.6620   -3.1942   20.1020 O   0  0  0  0  0  0  0  0  0  0  0  0
   14.8049   -2.5586   26.1075 Cl  0  0  0  0  0  0  0  0  0  0  0  0
   11.1643    0.6460   25.8428 H   0  0  0  0  0  0  0  0  0  0  0  0
    9.5260   -1.0243   25.0511 H   0  0  0  0  0  0  0  0  0  0  0  0
   13.4946   -0.0174   26.3128 H   0  0  0  0  0  0  0  0  0  0  0  0
   12.5628   -4.0719   25.1905 H   0  0  0  0  0  0  0  0  0  0  0  0
    6.0233    0.4634   18.6560 H   0  0  0  0  0  0  0  0  0  0  0  0
    4.9061   -0.5210   19.7640 H   0  0  0  0  0  0  0  0  0  0  0  0
    7.8324   -1.1945   19.0900 H   0  0  0  0  0  0  0  0  0  0  0  0
    8.1977   -5.1321   23.6547 H   0  0  0  0  0  0  0  0  0  0  0  0
    8.7755   -4.9431   21.9955 H   0  0  0  0  0  0  0  0  0  0  0  0
   10.1678   -2.7111   21.5293 H   0  0  0  0  0  0  0  0  0  0  0  0
   10.3569   -1.6648   22.9373 H   0  0  0  0  0  0  0  0  0  0  0  0
    6.4049   -4.3676   21.9668 H   0  0  0  0  0  0  0  0  0  0  0  0
    6.6038   -3.3549   23.4021 H   0  0  0  0  0  0  0  0  0  0  0  0
    8.0172   -1.0276   22.8811 H   0  0  0  0  0  0  0  0  0  0  0  0
    8.5772   -0.9214   21.2113 H   0  0  0  0  0  0  0  0  0  0  0  0
  1  2  2  0  0  0  0
  1  3  1  0  0  0  0
  2  5  1  0  0  0  0
  3  6  2  0  0  0  0
  4  5  2  0  0  0  0
  4  6  1  0  0  0  0
  5  9  1  0  0  0  0
  6 19  1  0  0  0  0
  7  8  2  0  0  0  0
  8 10  1  0  0  0  0
  9 15  1  0  0  0  0
  9 17  2  0  0  0  0
 10 16  1  0  0  0  0
 10 18  2  0  0  0  0
 11 13  1  0  0  0  0
 11 15  1  0  0  0  0
 12 14  1  0  0  0  0
 12 15  1  0  0  0  0
 13 16  1  0  0  0  0
 14 16  1  0  0  0  0
  1 20  1  0  0  0  0
  2 21  1  0  0  0  0
  3 22  1  0  0  0  0
  4 23  1  0  0  0  0
  7 24  1  0  0  0  0
  7 25  1  0  0  0  0
  8 26  1  0  0  0  0
 11 27  1  0  0  0  0
 11 28  1  0  0  0  0
 12 29  1  0  0  0  0
 12 30  1  0  0  0  0
 13 31  1  0  0  0  0
 13 32  1  0  0  0  0
 14 33  1  0  0  0  0
 14 34  1  0  0  0  0
M  END
> <Chemgauss4>
-7.855292

> <ref_pdb>
x0749_0

> <CYS145-warhead min dist (A)>
6.485606

> <CYS145-warhead avg dist (A)>
7.6896873

> <CYS145-warhead avg dist stderr (A)>
0.044923123

> <original SMILES>
C=CC(=O)N1CCN(CC1)C(=O)c2cccc(c2)Cl

$$$$
DAR-DIA-cab-5
  -OEChem-04232002263D

 53 56  0     1  0  0  0  0  0999 V2000
    8.4798   -4.6471   25.2582 C   0  0  0  0  0  0  0  0  0  0  0  0
    9.8214   -4.3390   25.0595 C   0  0  0  0  0  0  0  0  0  0  0  0
    7.4960   -3.9404   24.5697 C   0  0  0  0  0  0  0  0  0  0  0  0
   10.1805   -3.3130   24.1848 C   0  0  0  0  0  0  0  0  0  0  0  0
   12.8583    1.0885   23.8943 C   0  0  0  0  0  0  0  0  0  0  0  0
   11.9239   -0.4918   22.3048 C   0  0  0  0  0  0  0  0  0  0  0  0
    9.9327    1.2114   26.0821 C   0  0  0  0  0  0  0  0  0  0  0  0
   11.6633    1.0331   24.6389 C   0  0  0  0  0  0  0  0  0  0  0  0
    7.8445   -2.9145   23.6772 C   0  0  0  0  0  0  0  0  0  0  0  0
    9.2009   -2.5669   23.5057 C   0  0  0  0  0  0  0  0  0  0  0  0
   10.7293   -0.5630   23.0270 C   0  0  0  0  0  0  0  0  0  0  0  0
   11.2101    1.6582   25.8342 C   0  0  0  0  0  0  0  0  0  0  0  0
   10.6285    0.2103   24.1890 C   0  0  0  0  0  0  0  0  0  0  0  0
   12.9733    0.3205   22.7299 C   0  0  0  0  0  0  0  0  0  0  0  0
    6.6225   -1.5108   20.5625 C   0  0  0  0  0  0  0  0  0  0  0  0
   12.0276    4.5058   23.6370 C   0  0  0  0  0  0  0  0  0  0  0  0
    6.7446   -2.1908   22.9401 C   0  0  0  0  0  0  0  0  0  0  0  0
    8.4067   -0.5832   22.1143 C   0  0  0  0  0  0  0  0  0  0  0  0
    9.6027   -1.4608   22.5331 C   0  0  2  0  0  0  0  0  0  0  0  0
   12.8641    4.4362   22.4026 C   0  0  0  0  0  0  0  0  0  0  0  0
   11.9667    2.6156   26.6667 C   0  0  0  0  0  0  0  0  0  0  0  0
    7.2137   -0.6838   19.4488 C   0  0  0  0  0  0  0  0  0  0  0  0
   12.0409    4.0363   26.0787 C   0  0  0  0  0  0  0  0  0  0  0  0
    9.5907    0.3383   25.0844 N   0  0  0  0  0  0  0  0  0  0  0  0
    7.2488   -1.4216   21.8044 N   0  0  0  0  0  0  0  0  0  0  0  0
   12.6638    4.0546   24.7823 N   0  0  0  0  0  0  0  0  0  0  0  0
    5.6361   -2.2155   20.3337 O   0  0  0  0  0  0  0  0  0  0  0  0
   10.8832    4.9386   23.5676 O   0  0  0  0  0  0  0  0  0  0  0  0
   14.4313    0.3831   21.8137 Cl  0  0  0  0  0  0  0  0  0  0  0  0
    6.2556   -1.0184   18.0110 Cl  0  0  0  0  0  0  0  0  0  0  0  0
    8.1992   -5.4366   25.9486 H   0  0  0  0  0  0  0  0  0  0  0  0
   10.5915   -4.8982   25.5839 H   0  0  0  0  0  0  0  0  0  0  0  0
    6.4505   -4.1902   24.7332 H   0  0  0  0  0  0  0  0  0  0  0  0
   11.2366   -3.0969   24.0305 H   0  0  0  0  0  0  0  0  0  0  0  0
   13.6776    1.7217   24.2251 H   0  0  0  0  0  0  0  0  0  0  0  0
   12.0299   -1.0833   21.3966 H   0  0  0  0  0  0  0  0  0  0  0  0
    9.2354    1.4353   26.8775 H   0  0  0  0  0  0  0  0  0  0  0  0
    6.0399   -2.9198   22.5420 H   0  0  0  0  0  0  0  0  0  0  0  0
    6.2307   -1.5359   23.6373 H   0  0  0  0  0  0  0  0  0  0  0  0
    8.1712    0.1463   22.8870 H   0  0  0  0  0  0  0  0  0  0  0  0
    8.6476   -0.0367   21.2008 H   0  0  0  0  0  0  0  0  0  0  0  0
    9.9813   -1.9401   21.5943 H   0  0  0  0  0  0  0  0  0  0  0  0
   12.7559    3.4750   21.8749 H   0  0  0  0  0  0  0  0  0  0  0  0
   12.5889    5.2063   21.6641 H   0  0  0  0  0  0  0  0  0  0  0  0
   13.9476    4.5600   22.5599 H   0  0  0  0  0  0  0  0  0  0  0  0
   13.0037    2.2544   26.8136 H   0  0  0  0  0  0  0  0  0  0  0  0
   11.5471    2.6781   27.6911 H   0  0  0  0  0  0  0  0  0  0  0  0
    8.2411   -0.9907   19.2917 H   0  0  0  0  0  0  0  0  0  0  0  0
    7.1372    0.3645   19.7122 H   0  0  0  0  0  0  0  0  0  0  0  0
   11.0403    4.4622   25.9541 H   0  0  0  0  0  0  0  0  0  0  0  0
   12.6163    4.7014   26.7310 H   0  0  0  0  0  0  0  0  0  0  0  0
    8.7041   -0.1418   25.0157 H   0  0  0  0  0  0  0  0  0  0  0  0
   13.6222    3.7185   24.7020 H   0  0  0  0  0  0  0  0  0  0  0  0
  1  2  1  0  0  0  0
  1  3  2  0  0  0  0
  2  4  2  0  0  0  0
  3  9  1  0  0  0  0
  4 10  1  0  0  0  0
  5  8  1  0  0  0  0
  5 14  2  0  0  0  0
  6 11  2  0  0  0  0
  6 14  1  0  0  0  0
  7 12  2  0  0  0  0
  7 24  1  0  0  0  0
  8 12  1  0  0  0  0
  8 13  2  0  0  0  0
  9 10  2  0  0  0  0
  9 17  1  0  0  0  0
 10 19  1  0  0  0  0
 11 13  1  0  0  0  0
 11 19  1  0  0  0  0
 12 21  1  0  0  0  0
 13 24  1  0  0  0  0
 14 29  1  0  0  0  0
 15 22  1  0  0  0  0
 15 25  1  0  0  0  0
 15 27  2  0  0  0  0
 16 20  1  0  0  0  0
 16 26  1  0  0  0  0
 16 28  2  0  0  0  0
 17 25  1  0  0  0  0
 18 19  1  0  0  0  0
 18 25  1  0  0  0  0
 21 23  1  0  0  0  0
 22 30  1  0  0  0  0
 23 26  1  0  0  0  0
  1 31  1  0  0  0  0
  2 32  1  0  0  0  0
  3 33  1  0  0  0  0
  4 34  1  0  0  0  0
  5 35  1  0  0  0  0
  6 36  1  0  0  0  0
  7 37  1  0  0  0  0
 17 38  1  0  0  0  0
 17 39  1  0  0  0  0
 18 40  1  0  0  0  0
 18 41  1  0  0  0  0
 19 42  1  0  0  0  0
 20 43  1  0  0  0  0
 20 44  1  0  0  0  0
 20 45  1  0  0  0  0
 21 46  1  0  0  0  0
 21 47  1  0  0  0  0
 22 48  1  0  0  0  0
 22 49  1  0  0  0  0
 23 50  1  0  0  0  0
 23 51  1  0  0  0  0
 24 52  1  0  0  0  0
 26 53  1  0  0  0  0
M  END
> <Chemgauss4>
-7.855135

> <ref_pdb>
x0830_0

> <CYS145-warhead min dist (A)>
2.825368

> <CYS145-warhead avg dist (A)>
3.3272984

> <CYS145-warhead avg dist stderr (A)>
0.030279472

> <original SMILES>
CC(=O)NCCc1c[nH]c2c1cc(cc2[C@@H]3CN(Cc4c3cccc4)C(=O)CCl)Cl

$$$$
JOO-PER-d7a-1
  -OEChem-04232002263D

 52 54  0     0  0  0  0  0  0999 V2000
   13.3307    0.8558   23.3822 C   0  0  0  0  0  0  0  0  0  0  0  0
   12.6841   -1.1905   22.2458 C   0  0  0  0  0  0  0  0  0  0  0  0
   10.3126    1.1332   25.4254 C   0  0  0  0  0  0  0  0  0  0  0  0
   12.1186    0.8300   24.1003 C   0  0  0  0  0  0  0  0  0  0  0  0
   11.4755   -1.2371   22.9464 C   0  0  0  0  0  0  0  0  0  0  0  0
   11.5324    1.6719   25.0864 C   0  0  0  0  0  0  0  0  0  0  0  0
   11.2208   -0.2138   23.8663 C   0  0  0  0  0  0  0  0  0  0  0  0
   13.5989   -0.1611   22.4588 C   0  0  0  0  0  0  0  0  0  0  0  0
    6.1506   -1.8798   19.3120 C   0  0  0  0  0  0  0  0  0  0  0  0
    9.9192    5.3547   25.1394 C   0  0  0  0  0  0  0  0  0  0  0  0
    6.8504   -2.4797   21.6079 C   0  0  0  0  0  0  0  0  0  0  0  0
    7.9300   -0.5394   20.5388 C   0  0  0  0  0  0  0  0  0  0  0  0
    8.2069   -3.0358   22.0158 C   0  0  0  0  0  0  0  0  0  0  0  0
    9.3036   -1.0657   20.9325 C   0  0  0  0  0  0  0  0  0  0  0  0
    8.5364    5.5669   24.6186 C   0  0  0  0  0  0  0  0  0  0  0  0
   12.1188    2.9040   25.6515 C   0  0  0  0  0  0  0  0  0  0  0  0
   10.5138   -2.3602   22.6918 C   0  0  0  0  0  0  0  0  0  0  0  0
    6.3334   -0.9672   18.1255 C   0  0  0  0  0  0  0  0  0  0  0  0
   12.0378    4.1240   24.7160 C   0  0  0  0  0  0  0  0  0  0  0  0
   10.1337   -0.0041   24.6845 N   0  0  0  0  0  0  0  0  0  0  0  0
    6.9641   -1.6367   20.4177 N   0  0  0  0  0  0  0  0  0  0  0  0
   10.6796    4.4696   24.3922 N   0  0  0  0  0  0  0  0  0  0  0  0
    9.1762   -1.8887   22.1949 N   0  3  0  0  0  0  0  0  0  0  0  0
    5.3115   -2.7824   19.2547 O   0  0  0  0  0  0  0  0  0  0  0  0
   10.2827    5.9488   26.1477 O   0  0  0  0  0  0  0  0  0  0  0  0
   14.7496   -0.1436   21.7720 F   0  0  0  0  0  0  0  0  0  0  0  0
    5.2046    0.3665   18.3372 Cl  0  0  0  0  0  0  0  0  0  0  0  0
   14.0542    1.6511   23.5368 H   0  0  0  0  0  0  0  0  0  0  0  0
   12.9225   -1.9658   21.5211 H   0  0  0  0  0  0  0  0  0  0  0  0
    9.5556    1.4550   26.1271 H   0  0  0  0  0  0  0  0  0  0  0  0
    6.1542   -3.3060   21.4334 H   0  0  0  0  0  0  0  0  0  0  0  0
    6.4270   -1.8623   22.4095 H   0  0  0  0  0  0  0  0  0  0  0  0
    7.5470    0.1480   21.3028 H   0  0  0  0  0  0  0  0  0  0  0  0
    8.0178    0.0301   19.6120 H   0  0  0  0  0  0  0  0  0  0  0  0
    8.1380   -3.5578   22.9757 H   0  0  0  0  0  0  0  0  0  0  0  0
    8.6197   -3.7103   21.2571 H   0  0  0  0  0  0  0  0  0  0  0  0
    9.7360   -1.7059   20.1554 H   0  0  0  0  0  0  0  0  0  0  0  0
    9.9860   -0.2379   21.1505 H   0  0  0  0  0  0  0  0  0  0  0  0
    7.8123    4.8547   25.0458 H   0  0  0  0  0  0  0  0  0  0  0  0
    8.1427    6.5659   24.8657 H   0  0  0  0  0  0  0  0  0  0  0  0
    8.4246    5.4736   23.5265 H   0  0  0  0  0  0  0  0  0  0  0  0
   13.1855    2.7377   25.9004 H   0  0  0  0  0  0  0  0  0  0  0  0
   11.6463    3.1683   26.6192 H   0  0  0  0  0  0  0  0  0  0  0  0
   10.9036   -3.0519   21.9373 H   0  0  0  0  0  0  0  0  0  0  0  0
   10.3255   -2.9344   23.6054 H   0  0  0  0  0  0  0  0  0  0  0  0
    6.0965   -1.5153   17.2208 H   0  0  0  0  0  0  0  0  0  0  0  0
    7.3519   -0.5961   18.1214 H   0  0  0  0  0  0  0  0  0  0  0  0
   12.4854    5.0070   25.1828 H   0  0  0  0  0  0  0  0  0  0  0  0
   12.5632    3.9321   23.7746 H   0  0  0  0  0  0  0  0  0  0  0  0
    9.3212   -0.6032   24.7324 H   0  0  0  0  0  0  0  0  0  0  0  0
   10.2548    4.0415   23.5711 H   0  0  0  0  0  0  0  0  0  0  0  0
    8.7930   -1.2729   22.9254 H   0  0  0  0  0  0  0  0  0  0  0  0
  1  4  1  0  0  0  0
  1  8  2  0  0  0  0
  2  5  2  0  0  0  0
  2  8  1  0  0  0  0
  3  6  2  0  0  0  0
  3 20  1  0  0  0  0
  4  6  1  0  0  0  0
  4  7  2  0  0  0  0
  5  7  1  0  0  0  0
  5 17  1  0  0  0  0
  6 16  1  0  0  0  0
  7 20  1  0  0  0  0
  8 26  1  0  0  0  0
  9 18  1  0  0  0  0
  9 21  1  0  0  0  0
  9 24  2  0  0  0  0
 10 15  1  0  0  0  0
 10 22  1  0  0  0  0
 10 25  2  0  0  0  0
 11 13  1  0  0  0  0
 11 21  1  0  0  0  0
 12 14  1  0  0  0  0
 12 21  1  0  0  0  0
 13 23  1  0  0  0  0
 14 23  1  0  0  0  0
 16 19  1  0  0  0  0
 17 23  1  0  0  0  0
 18 27  1  0  0  0  0
 19 22  1  0  0  0  0
  1 28  1  0  0  0  0
  2 29  1  0  0  0  0
  3 30  1  0  0  0  0
 11 31  1  0  0  0  0
 11 32  1  0  0  0  0
 12 33  1  0  0  0  0
 12 34  1  0  0  0  0
 13 35  1  0  0  0  0
 13 36  1  0  0  0  0
 14 37  1  0  0  0  0
 14 38  1  0  0  0  0
 15 39  1  0  0  0  0
 15 40  1  0  0  0  0
 15 41  1  0  0  0  0
 16 42  1  0  0  0  0
 16 43  1  0  0  0  0
 17 44  1  0  0  0  0
 17 45  1  0  0  0  0
 18 46  1  0  0  0  0
 18 47  1  0  0  0  0
 19 48  1  0  0  0  0
 19 49  1  0  0  0  0
 20 50  1  0  0  0  0
 22 51  1  0  0  0  0
 23 52  1  0  0  0  0
M  CHG  1  23   1
M  END
> <Chemgauss4>
-7.838070

> <ref_pdb>
x0830_0

> <CYS145-warhead min dist (A)>
3.885323

> <CYS145-warhead avg dist (A)>
5.6215396

> <CYS145-warhead avg dist stderr (A)>
0.090248235

> <original SMILES>
CC(=O)NCCc1c[nH]c2c1cc(cc2C[NH+]3CCN(CC3)C(=O)CCl)F

$$$$
PAU-UNI-8cd-1
  -OEChem-04232002263D

 35 36  0     0  0  0  0  0  0999 V2000
   12.6768   -3.1652   25.4533 C   0  0  0  0  0  0  0  0  0  0  0  0
   11.1663   -1.3628   24.8997 C   0  0  0  0  0  0  0  0  0  0  0  0
   13.5542   -1.0013   24.8332 C   0  0  0  0  0  0  0  0  0  0  0  0
   11.3774   -2.6849   25.2910 C   0  0  0  0  0  0  0  0  0  0  0  0
   13.7652   -2.3234   25.2245 C   0  0  0  0  0  0  0  0  0  0  0  0
   12.2547   -0.5209   24.6709 C   0  0  0  0  0  0  0  0  0  0  0  0
    6.3682   -4.5083   22.3053 C   0  0  0  0  0  0  0  0  0  0  0  0
    8.4677   -3.3453   22.9013 C   0  0  0  0  0  0  0  0  0  0  0  0
    7.5251   -4.9466   24.5264 C   0  0  0  0  0  0  0  0  0  0  0  0
    9.8481   -3.9650   23.0624 C   0  0  0  0  0  0  0  0  0  0  0  0
    8.8943   -5.5870   24.7119 C   0  0  0  0  0  0  0  0  0  0  0  0
   10.2072   -3.5915   25.5357 C   0  0  0  0  0  0  0  0  0  0  0  0
    5.7503   -5.8835   22.2752 C   0  0  0  0  0  0  0  0  0  0  0  0
    7.4129   -4.3119   23.2084 N   0  0  0  0  0  0  0  0  0  0  0  0
    9.9936   -4.5894   24.4307 N   0  3  0  0  0  0  0  0  0  0  0  0
    5.9358   -3.6370   21.5465 O   0  0  0  0  0  0  0  0  0  0  0  0
   15.3684   -2.9159   25.4262 Cl  0  0  0  0  0  0  0  0  0  0  0  0
   11.9937    1.1101   24.1871 Cl  0  0  0  0  0  0  0  0  0  0  0  0
    4.4586   -5.8817   23.4707 Cl  0  0  0  0  0  0  0  0  0  0  0  0
   12.8364   -4.1972   25.7583 H   0  0  0  0  0  0  0  0  0  0  0  0
   10.1508   -0.9936   24.7749 H   0  0  0  0  0  0  0  0  0  0  0  0
   14.4036   -0.3450   24.6554 H   0  0  0  0  0  0  0  0  0  0  0  0
    8.3855   -2.4635   23.5459 H   0  0  0  0  0  0  0  0  0  0  0  0
    8.3125   -3.0060   21.8690 H   0  0  0  0  0  0  0  0  0  0  0  0
    6.7334   -5.7040   24.5907 H   0  0  0  0  0  0  0  0  0  0  0  0
    7.3507   -4.2355   25.3368 H   0  0  0  0  0  0  0  0  0  0  0  0
   10.0013   -4.7647   22.3209 H   0  0  0  0  0  0  0  0  0  0  0  0
   10.6499   -3.2169   22.9471 H   0  0  0  0  0  0  0  0  0  0  0  0
    9.0353   -5.9619   25.7393 H   0  0  0  0  0  0  0  0  0  0  0  0
    9.0264   -6.4245   24.0090 H   0  0  0  0  0  0  0  0  0  0  0  0
   10.3384   -4.1670   26.4583 H   0  0  0  0  0  0  0  0  0  0  0  0
    9.2770   -3.0204   25.6280 H   0  0  0  0  0  0  0  0  0  0  0  0
    6.5050   -6.6139   22.5438 H   0  0  0  0  0  0  0  0  0  0  0  0
    5.3430   -6.0641   21.2870 H   0  0  0  0  0  0  0  0  0  0  0  0
   10.8893   -5.1564   24.3920 H   0  0  0  0  0  0  0  0  0  0  0  0
  1  4  1  0  0  0  0
  1  5  2  0  0  0  0
  2  4  2  0  0  0  0
  2  6  1  0  0  0  0
  3  5  1  0  0  0  0
  3  6  2  0  0  0  0
  4 12  1  0  0  0  0
  5 17  1  0  0  0  0
  6 18  1  0  0  0  0
  7 13  1  0  0  0  0
  7 14  1  0  0  0  0
  7 16  2  0  0  0  0
  8 10  1  0  0  0  0
  8 14  1  0  0  0  0
  9 11  1  0  0  0  0
  9 14  1  0  0  0  0
 10 15  1  0  0  0  0
 11 15  1  0  0  0  0
 12 15  1  0  0  0  0
 13 19  1  0  0  0  0
  1 20  1  0  0  0  0
  2 21  1  0  0  0  0
  3 22  1  0  0  0  0
  8 23  1  0  0  0  0
  8 24  1  0  0  0  0
  9 25  1  0  0  0  0
  9 26  1  0  0  0  0
 10 27  1  0  0  0  0
 10 28  1  0  0  0  0
 11 29  1  0  0  0  0
 11 30  1  0  0  0  0
 12 31  1  0  0  0  0
 12 32  1  0  0  0  0
 13 33  1  0  0  0  0
 13 34  1  0  0  0  0
 15 35  1  0  0  0  0
M  CHG  1  15   1
M  END
> <Chemgauss4>
-7.811671

> <ref_pdb>
x0749_0

> <CYS145-warhead min dist (A)>
4.100583

> <CYS145-warhead avg dist (A)>
4.6749597

> <CYS145-warhead avg dist stderr (A)>
0.046302535

> <original SMILES>
c1c(cc(cc1Cl)Cl)C[NH+]2CCN(CC2)C(=O)CCl

$$$$
DAV-CRI-14a-1
  -OEChem-04232002263D

 40 41  0     1  0  0  0  0  0999 V2000
   10.1278   -2.6124   23.7282 C   0  0  0  0  0  0  0  0  0  0  0  0
   10.3620   -4.4943   25.2251 C   0  0  0  0  0  0  0  0  0  0  0  0
   11.3528   -2.1105   24.1675 C   0  0  0  0  0  0  0  0  0  0  0  0
   11.5871   -3.9925   25.6643 C   0  0  0  0  0  0  0  0  0  0  0  0
    7.9311   -4.0723   22.4992 C   0  0  0  0  0  0  0  0  0  0  0  0
    7.5682   -5.0815   24.6641 C   0  0  0  0  0  0  0  0  0  0  0  0
    5.9127   -5.3309   22.9222 C   0  0  0  0  0  0  0  0  0  0  0  0
    9.6323   -3.8043   24.2571 C   0  0  0  0  0  0  0  0  0  0  0  0
    8.3619   -4.3255   23.8014 C   0  0  0  0  0  0  0  0  0  0  0  0
    6.7064   -4.5749   22.0596 C   0  0  0  0  0  0  0  0  0  0  0  0
   12.0825   -2.8006   25.1355 C   0  0  0  0  0  0  0  0  0  0  0  0
    6.3435   -5.5842   24.2244 C   0  0  0  0  0  0  0  0  0  0  0  0
    5.9367   -2.2842   19.2644 C   0  0  0  0  0  0  0  0  0  0  0  0
    6.6884   -5.3774   19.6621 C   0  0  0  0  0  0  0  0  0  0  0  0
    6.5484   -0.9438   18.9463 C   0  0  0  0  0  0  0  0  0  0  0  0
    6.2457   -4.3037   20.6673 C   0  0  2  0  0  0  0  0  0  0  0  0
   14.6868   -2.9186   24.5801 N   0  0  0  0  0  0  0  0  0  0  0  0
    6.6634   -2.9931   20.1990 N   0  0  0  0  0  0  0  0  0  0  0  0
    4.8915   -2.6617   18.7376 O   0  0  0  0  0  0  0  0  0  0  0  0
   13.6329   -0.7348   25.4553 O   0  0  0  0  0  0  0  0  0  0  0  0
   13.8809   -2.6963   27.0169 O   0  0  0  0  0  0  0  0  0  0  0  0
   13.6168   -2.1728   25.6839 S   0  0  0  0  0  0  0  0  0  0  0  0
    5.3637   -6.5169   25.2886 Cl  0  0  0  0  0  0  0  0  0  0  0  0
    5.8683    0.2451   20.0683 Cl  0  0  0  0  0  0  0  0  0  0  0  0
    9.5706   -2.0628   22.9734 H   0  0  0  0  0  0  0  0  0  0  0  0
    9.9895   -5.4247   25.6474 H   0  0  0  0  0  0  0  0  0  0  0  0
   11.7298   -1.1811   23.7493 H   0  0  0  0  0  0  0  0  0  0  0  0
   12.1476   -4.5373   26.4190 H   0  0  0  0  0  0  0  0  0  0  0  0
    8.5456   -3.4832   21.8215 H   0  0  0  0  0  0  0  0  0  0  0  0
    7.9033   -5.2795   25.6805 H   0  0  0  0  0  0  0  0  0  0  0  0
    4.9587   -5.7207   22.5742 H   0  0  0  0  0  0  0  0  0  0  0  0
    7.7802   -5.4658   19.6461 H   0  0  0  0  0  0  0  0  0  0  0  0
    6.2723   -6.3581   19.9191 H   0  0  0  0  0  0  0  0  0  0  0  0
    6.3535   -5.1422   18.6456 H   0  0  0  0  0  0  0  0  0  0  0  0
    7.6361   -0.9428   19.0520 H   0  0  0  0  0  0  0  0  0  0  0  0
    6.2888   -0.6596   17.9228 H   0  0  0  0  0  0  0  0  0  0  0  0
    5.1425   -4.2698   20.6301 H   0  0  0  0  0  0  0  0  0  0  0  0
   15.1269   -2.3295   23.8627 H   0  0  0  0  0  0  0  0  0  0  0  0
   15.2938   -3.6698   24.9300 H   0  0  0  0  0  0  0  0  0  0  0  0
    7.5128   -2.5879   20.5694 H   0  0  0  0  0  0  0  0  0  0  0  0
  1  3  2  0  0  0  0
  1  8  1  0  0  0  0
  2  4  1  0  0  0  0
  2  8  2  0  0  0  0
  3 11  1  0  0  0  0
  4 11  2  0  0  0  0
  5  9  1  0  0  0  0
  5 10  2  0  0  0  0
  6  9  2  0  0  0  0
  6 12  1  0  0  0  0
  7 10  1  0  0  0  0
  7 12  2  0  0  0  0
  8  9  1  0  0  0  0
 10 16  1  0  0  0  0
 11 22  1  0  0  0  0
 12 23  1  0  0  0  0
 13 15  1  0  0  0  0
 13 18  1  0  0  0  0
 13 19  2  0  0  0  0
 14 16  1  0  0  0  0
 15 24  1  0  0  0  0
 16 18  1  0  0  0  0
 17 22  1  0  0  0  0
 20 22  2  0  0  0  0
 21 22  2  0  0  0  0
  1 25  1  0  0  0  0
  2 26  1  0  0  0  0
  3 27  1  0  0  0  0
  4 28  1  0  0  0  0
  5 29  1  0  0  0  0
  6 30  1  0  0  0  0
  7 31  1  0  0  0  0
 14 32  1  0  0  0  0
 14 33  1  0  0  0  0
 14 34  1  0  0  0  0
 15 35  1  0  0  0  0
 15 36  1  0  0  0  0
 16 37  1  0  0  0  0
 17 38  1  0  0  0  0
 17 39  1  0  0  0  0
 18 40  1  0  0  0  0
M  END
> <Chemgauss4>
-7.801442

> <ref_pdb>
x0749_0

> <CYS145-warhead min dist (A)>
2.945332

> <CYS145-warhead avg dist (A)>
3.8003242

> <CYS145-warhead avg dist stderr (A)>
0.023916293

> <original SMILES>
C[C@@H](c1cc(cc(c1)Cl)c2ccc(cc2)S(=O)(=O)N)NC(=O)CCl

$$$$
JOO-IND-637-2
  -OEChem-04232002263D

 34 35  0     1  0  0  0  0  0999 V2000
    8.2246   -5.4813   22.6372 C   0  0  0  0  0  0  0  0  0  0  0  0
    9.2001   -5.2006   23.5938 C   0  0  0  0  0  0  0  0  0  0  0  0
    7.6039   -4.4397   21.9475 C   0  0  0  0  0  0  0  0  0  0  0  0
    8.9343   -2.8367   23.1713 C   0  0  0  0  0  0  0  0  0  0  0  0
    9.5550   -3.8783   23.8609 C   0  0  0  0  0  0  0  0  0  0  0  0
    7.9588   -3.1174   22.2146 C   0  0  0  0  0  0  0  0  0  0  0  0
   10.5816   -3.5845   24.8676 C   0  0  0  0  0  0  0  0  0  0  0  0
    6.3393   -2.1601   20.5446 C   0  0  0  0  0  0  0  0  0  0  0  0
   12.0083   -2.4473   23.0881 C   0  0  0  0  0  0  0  0  0  0  0  0
   12.7391   -2.5278   25.4494 C   0  0  0  0  0  0  0  0  0  0  0  0
   11.9902   -0.9265   22.9917 C   0  0  0  0  0  0  0  0  0  0  0  0
   12.8091   -1.0161   25.6296 C   0  0  0  0  0  0  0  0  0  0  0  0
    5.9204   -0.8038   20.0305 C   0  0  1  0  0  0  0  0  0  0  0  0
   11.7292   -2.8993   24.4578 N   0  0  0  0  0  0  0  0  0  0  0  0
    7.3380   -2.0757   21.5245 N   0  0  0  0  0  0  0  0  0  0  0  0
   10.3421   -3.9655   26.0123 O   0  0  0  0  0  0  0  0  0  0  0  0
    5.8184   -3.1810   20.1044 O   0  0  0  0  0  0  0  0  0  0  0  0
    5.4448   -0.0255   21.0394 F   0  0  0  0  0  0  0  0  0  0  0  0
   13.2508   -0.1785   24.0734 S   0  0  0  0  0  0  0  0  0  0  0  0
    7.3521   -0.0293   19.3297 Cl  0  0  0  0  0  0  0  0  0  0  0  0
    7.9484   -6.5108   22.4289 H   0  0  0  0  0  0  0  0  0  0  0  0
    9.6760   -6.0204   24.1255 H   0  0  0  0  0  0  0  0  0  0  0  0
    6.8444   -4.6700   21.2044 H   0  0  0  0  0  0  0  0  0  0  0  0
    9.2103   -1.8052   23.3803 H   0  0  0  0  0  0  0  0  0  0  0  0
   11.2764   -2.8567   22.3865 H   0  0  0  0  0  0  0  0  0  0  0  0
   12.9846   -2.8518   22.7931 H   0  0  0  0  0  0  0  0  0  0  0  0
   13.7036   -2.9372   25.1254 H   0  0  0  0  0  0  0  0  0  0  0  0
   12.5034   -2.9908   26.4138 H   0  0  0  0  0  0  0  0  0  0  0  0
   12.2018   -0.6179   21.9632 H   0  0  0  0  0  0  0  0  0  0  0  0
   11.0059   -0.5277   23.2595 H   0  0  0  0  0  0  0  0  0  0  0  0
   11.8536   -0.6196   25.9900 H   0  0  0  0  0  0  0  0  0  0  0  0
   13.5702   -0.7669   26.3759 H   0  0  0  0  0  0  0  0  0  0  0  0
    5.1421   -0.8804   19.2662 H   0  0  0  0  0  0  0  0  0  0  0  0
    7.6430   -1.1261   21.7664 H   0  0  0  0  0  0  0  0  0  0  0  0
  1  2  1  0  0  0  0
  1  3  2  0  0  0  0
  2  5  2  0  0  0  0
  3  6  1  0  0  0  0
  4  5  1  0  0  0  0
  4  6  2  0  0  0  0
  5  7  1  0  0  0  0
  6 15  1  0  0  0  0
  7 14  1  0  0  0  0
  7 16  2  0  0  0  0
  8 13  1  0  0  0  0
  8 15  1  0  0  0  0
  8 17  2  0  0  0  0
  9 11  1  0  0  0  0
  9 14  1  0  0  0  0
 10 12  1  0  0  0  0
 10 14  1  0  0  0  0
 11 19  1  0  0  0  0
 12 19  1  0  0  0  0
 13 18  1  0  0  0  0
 13 20  1  0  0  0  0
  1 21  1  0  0  0  0
  2 22  1  0  0  0  0
  3 23  1  0  0  0  0
  4 24  1  0  0  0  0
  9 25  1  0  0  0  0
  9 26  1  0  0  0  0
 10 27  1  0  0  0  0
 10 28  1  0  0  0  0
 11 29  1  0  0  0  0
 11 30  1  0  0  0  0
 12 31  1  0  0  0  0
 12 32  1  0  0  0  0
 13 33  1  0  0  0  0
 15 34  1  0  0  0  0
M  END
> <Chemgauss4>
-7.782174

> <ref_pdb>
x0749_0

> <original SMILES>
c1cc(cc(c1)NC(=O)[C@@H](F)Cl)C(=O)N2CCSCC2

$$$$
JOH-UNI-27a-38_thio_pH
  -OEChem-04232002263D

 42 43  0     0  0  0  0  0  0999 V2000
   10.8765    0.0532   24.0725 C   0  0  0  0  0  0  0  0  0  0  0  0
   12.4714   -0.9027   22.5300 C   0  0  0  0  0  0  0  0  0  0  0  0
   13.0136    1.1253   23.7258 C   0  0  0  0  0  0  0  0  0  0  0  0
   11.2274   -0.9414   23.1597 C   0  0  0  0  0  0  0  0  0  0  0  0
   11.7696    1.0866   24.3555 C   0  0  0  0  0  0  0  0  0  0  0  0
   13.3646    0.1307   22.8131 C   0  0  0  0  0  0  0  0  0  0  0  0
    6.0906   -1.5276   19.2550 C   0  0  0  0  0  0  0  0  0  0  0  0
    6.6634   -2.1318   21.5848 C   0  0  0  0  0  0  0  0  0  0  0  0
    7.8199   -0.2062   20.5709 C   0  0  0  0  0  0  0  0  0  0  0  0
    7.9902   -2.7031   22.0630 C   0  0  0  0  0  0  0  0  0  0  0  0
    9.1649   -0.7480   21.0358 C   0  0  0  0  0  0  0  0  0  0  0  0
   10.2298    3.6309   23.9291 C   0  0  0  0  0  0  0  0  0  0  0  0
   10.2669   -2.0535   22.8569 C   0  0  0  0  0  0  0  0  0  0  0  0
   11.3939    2.1487   25.3330 C   0  0  0  0  0  0  0  0  0  0  0  0
    5.7894   -0.3318   18.3872 C   0  0  0  0  0  0  0  0  0  0  0  0
    6.8486   -1.2922   20.4012 N   0  0  0  0  0  0  0  0  0  0  0  0
    8.9625   -1.5672   22.2908 N   0  3  0  0  0  0  0  0  0  0  0  0
    5.6664   -2.6370   18.9212 O   0  0  0  0  0  0  0  0  0  0  0  0
   11.4131    3.4148   24.6853 O   0  0  0  0  0  0  0  0  0  0  0  0
   14.8991    0.1791   22.0352 Cl  0  0  0  0  0  0  0  0  0  0  0  0
    4.8623    0.7890   19.3782 Cl  0  0  0  0  0  0  0  0  0  0  0  0
    9.9065    0.0229   24.5633 H   0  0  0  0  0  0  0  0  0  0  0  0
   12.7405   -1.6808   21.8188 H   0  0  0  0  0  0  0  0  0  0  0  0
   13.7066    1.9333   23.9499 H   0  0  0  0  0  0  0  0  0  0  0  0
    5.9674   -2.9501   21.3754 H   0  0  0  0  0  0  0  0  0  0  0  0
    6.2064   -1.5080   22.3627 H   0  0  0  0  0  0  0  0  0  0  0  0
    7.4060    0.4870   21.3132 H   0  0  0  0  0  0  0  0  0  0  0  0
    7.9623    0.3606   19.6492 H   0  0  0  0  0  0  0  0  0  0  0  0
    7.8655   -3.2225   23.0187 H   0  0  0  0  0  0  0  0  0  0  0  0
    8.4338   -3.3837   21.3276 H   0  0  0  0  0  0  0  0  0  0  0  0
    9.6293   -1.3946   20.2828 H   0  0  0  0  0  0  0  0  0  0  0  0
    9.8449    0.0722   21.2879 H   0  0  0  0  0  0  0  0  0  0  0  0
   10.2786    4.6101   23.4467 H   0  0  0  0  0  0  0  0  0  0  0  0
    9.3602    3.5810   24.5893 H   0  0  0  0  0  0  0  0  0  0  0  0
   10.1496    2.8543   23.1649 H   0  0  0  0  0  0  0  0  0  0  0  0
   10.6870   -2.7511   22.1244 H   0  0  0  0  0  0  0  0  0  0  0  0
   10.0247   -2.6239   23.7601 H   0  0  0  0  0  0  0  0  0  0  0  0
   10.3886    1.9791   25.7424 H   0  0  0  0  0  0  0  0  0  0  0  0
   12.0937    2.1744   26.1794 H   0  0  0  0  0  0  0  0  0  0  0  0
    5.1983   -0.6541   17.5376 H   0  0  0  0  0  0  0  0  0  0  0  0
    6.7238    0.1255   18.0827 H   0  0  0  0  0  0  0  0  0  0  0  0
    8.5493   -0.9456   22.9998 H   0  0  0  0  0  0  0  0  0  0  0  0
  1  4  2  0  0  0  0
  1  5  1  0  0  0  0
  2  4  1  0  0  0  0
  2  6  2  0  0  0  0
  3  5  2  0  0  0  0
  3  6  1  0  0  0  0
  4 13  1  0  0  0  0
  5 14  1  0  0  0  0
  6 20  1  0  0  0  0
  7 15  1  0  0  0  0
  7 16  1  0  0  0  0
  7 18  2  0  0  0  0
  8 10  1  0  0  0  0
  8 16  1  0  0  0  0
  9 11  1  0  0  0  0
  9 16  1  0  0  0  0
 10 17  1  0  0  0  0
 11 17  1  0  0  0  0
 12 19  1  0  0  0  0
 13 17  1  0  0  0  0
 14 19  1  0  0  0  0
 15 21  1  0  0  0  0
  1 22  1  0  0  0  0
  2 23  1  0  0  0  0
  3 24  1  0  0  0  0
  8 25  1  0  0  0  0
  8 26  1  0  0  0  0
  9 27  1  0  0  0  0
  9 28  1  0  0  0  0
 10 29  1  0  0  0  0
 10 30  1  0  0  0  0
 11 31  1  0  0  0  0
 11 32  1  0  0  0  0
 12 33  1  0  0  0  0
 12 34  1  0  0  0  0
 12 35  1  0  0  0  0
 13 36  1  0  0  0  0
 13 37  1  0  0  0  0
 14 38  1  0  0  0  0
 14 39  1  0  0  0  0
 15 40  1  0  0  0  0
 15 41  1  0  0  0  0
 17 42  1  0  0  0  0
M  CHG  1  17   1
M  END
> <Chemgauss4>
-7.781659

> <ref_pdb>
x0830_0

> <CYS145-warhead min dist (A)>
2.9254231

> <CYS145-warhead avg dist (A)>
3.3749719

> <CYS145-warhead avg dist stderr (A)>
0.0070927055

> <original SMILES>
COCc1cc(cc(c1)Cl)C[NH+]2CCN(CC2)C(=O)CCl

$$$$
WAR-XCH-79d-7
  -OEChem-04232002263D

 48 50  0     0  0  0  0  0  0999 V2000
   12.4238   -0.1499   22.0323 C   0  0  0  0  0  0  0  0  0  0  0  0
   11.5449    0.7829   22.5828 C   0  0  0  0  0  0  0  0  0  0  0  0
   12.2255   -1.5122   22.2567 C   0  0  0  0  0  0  0  0  0  0  0  0
   10.4677    0.3533   23.3579 C   0  0  0  0  0  0  0  0  0  0  0  0
   11.1483   -1.9418   23.0317 C   0  0  0  0  0  0  0  0  0  0  0  0
   10.2693   -1.0091   23.5823 C   0  0  0  0  0  0  0  0  0  0  0  0
    6.0905   -1.6632   19.7776 C   0  0  0  0  0  0  0  0  0  0  0  0
    7.9769   -2.3179   27.1220 C   0  0  0  0  0  0  0  0  0  0  0  0
    7.5731   -0.9925   26.4910 C   0  0  0  0  0  0  0  0  0  0  0  0
    8.3307   -3.3557   26.0662 C   0  0  0  0  0  0  0  0  0  0  0  0
    8.6513   -0.4742   25.5367 C   0  0  0  0  0  0  0  0  0  0  0  0
    9.4054   -2.8494   25.1013 C   0  0  0  0  0  0  0  0  0  0  0  0
    6.8372   -2.9842   21.7317 C   0  0  0  0  0  0  0  0  0  0  0  0
    6.1698   -0.6415   22.1052 C   0  0  0  0  0  0  0  0  0  0  0  0
    8.1178   -2.7674   22.5246 C   0  0  0  0  0  0  0  0  0  0  0  0
    7.4403   -0.3897   22.9059 C   0  0  0  0  0  0  0  0  0  0  0  0
    9.0817   -1.4835   24.4372 C   0  0  0  0  0  0  0  0  0  0  0  0
    6.2957   -0.3252   19.1133 C   0  0  0  0  0  0  0  0  0  0  0  0
    6.3650   -1.7311   21.1427 N   0  0  0  0  0  0  0  0  0  0  0  0
    7.8833   -1.6831   23.5526 N   0  3  0  0  0  0  0  0  0  0  0  0
    5.7005   -2.6186   19.1014 O   0  0  0  0  0  0  0  0  0  0  0  0
    7.9831    0.1081   19.3638 Cl  0  0  0  0  0  0  0  0  0  0  0  0
   13.2617    0.1847   21.4277 H   0  0  0  0  0  0  0  0  0  0  0  0
   11.6985    1.8436   22.4073 H   0  0  0  0  0  0  0  0  0  0  0  0
   12.9089   -2.2387   21.8273 H   0  0  0  0  0  0  0  0  0  0  0  0
    9.7881    1.0872   23.7830 H   0  0  0  0  0  0  0  0  0  0  0  0
   11.0017   -3.0052   23.2014 H   0  0  0  0  0  0  0  0  0  0  0  0
    8.8390   -2.1604   27.7817 H   0  0  0  0  0  0  0  0  0  0  0  0
    7.1604   -2.6923   27.7496 H   0  0  0  0  0  0  0  0  0  0  0  0
    6.6233   -1.1097   25.9566 H   0  0  0  0  0  0  0  0  0  0  0  0
    7.3986   -0.2510   27.2792 H   0  0  0  0  0  0  0  0  0  0  0  0
    8.6867   -4.2687   26.5577 H   0  0  0  0  0  0  0  0  0  0  0  0
    7.4299   -3.6349   25.5073 H   0  0  0  0  0  0  0  0  0  0  0  0
    8.3083    0.4619   25.0760 H   0  0  0  0  0  0  0  0  0  0  0  0
    9.5322   -0.2014   26.1355 H   0  0  0  0  0  0  0  0  0  0  0  0
   10.3475   -2.7593   25.6610 H   0  0  0  0  0  0  0  0  0  0  0  0
    9.5921   -3.6105   24.3319 H   0  0  0  0  0  0  0  0  0  0  0  0
    7.0107   -3.7367   20.9560 H   0  0  0  0  0  0  0  0  0  0  0  0
    6.0387   -3.3647   22.3803 H   0  0  0  0  0  0  0  0  0  0  0  0
    5.3481   -0.9371   22.7687 H   0  0  0  0  0  0  0  0  0  0  0  0
    5.8668    0.2854   21.6152 H   0  0  0  0  0  0  0  0  0  0  0  0
    8.3952   -3.6769   23.0671 H   0  0  0  0  0  0  0  0  0  0  0  0
    8.9490   -2.4507   21.8846 H   0  0  0  0  0  0  0  0  0  0  0  0
    8.2601   -0.0317   22.2730 H   0  0  0  0  0  0  0  0  0  0  0  0
    7.2536    0.3295   23.7099 H   0  0  0  0  0  0  0  0  0  0  0  0
    5.6496    0.4051   19.5869 H   0  0  0  0  0  0  0  0  0  0  0  0
    6.0899   -0.4238   18.0536 H   0  0  0  0  0  0  0  0  0  0  0  0
    7.1140   -1.9992   24.1607 H   0  0  0  0  0  0  0  0  0  0  0  0
  1  2  1  0  0  0  0
  1  3  2  0  0  0  0
  2  4  2  0  0  0  0
  3  5  1  0  0  0  0
  4  6  1  0  0  0  0
  5  6  2  0  0  0  0
  6 17  1  0  0  0  0
  7 18  1  0  0  0  0
  7 19  1  0  0  0  0
  7 21  2  0  0  0  0
  8  9  1  0  0  0  0
  8 10  1  0  0  0  0
  9 11  1  0  0  0  0
 10 12  1  0  0  0  0
 11 17  1  0  0  0  0
 12 17  1  0  0  0  0
 13 15  1  0  0  0  0
 13 19  1  0  0  0  0
 14 16  1  0  0  0  0
 14 19  1  0  0  0  0
 15 20  1  0  0  0  0
 16 20  1  0  0  0  0
 17 20  1  0  0  0  0
 18 22  1  0  0  0  0
  1 23  1  0  0  0  0
  2 24  1  0  0  0  0
  3 25  1  0  0  0  0
  4 26  1  0  0  0  0
  5 27  1  0  0  0  0
  8 28  1  0  0  0  0
  8 29  1  0  0  0  0
  9 30  1  0  0  0  0
  9 31  1  0  0  0  0
 10 32  1  0  0  0  0
 10 33  1  0  0  0  0
 11 34  1  0  0  0  0
 11 35  1  0  0  0  0
 12 36  1  0  0  0  0
 12 37  1  0  0  0  0
 13 38  1  0  0  0  0
 13 39  1  0  0  0  0
 14 40  1  0  0  0  0
 14 41  1  0  0  0  0
 15 42  1  0  0  0  0
 15 43  1  0  0  0  0
 16 44  1  0  0  0  0
 16 45  1  0  0  0  0
 18 46  1  0  0  0  0
 18 47  1  0  0  0  0
 20 48  1  0  0  0  0
M  CHG  1  20   1
M  END
> <Chemgauss4>
-7.745026

> <ref_pdb>
x0831_0

> <CYS145-warhead min dist (A)>
5.023916

> <CYS145-warhead avg dist (A)>
5.950687

> <CYS145-warhead avg dist stderr (A)>
0.030538216

> <original SMILES>
c1ccc(cc1)C2(CCCCC2)[NH+]3CCN(CC3)C(=O)CCl

$$$$
DAN-LON-a5f-1
  -OEChem-04232002263D

 39 40  0     1  0  0  0  0  0999 V2000
   10.1586   -5.8314   26.0676 C   0  0  0  0  0  0  0  0  0  0  0  0
   10.3886   -5.1161   24.8925 C   0  0  0  0  0  0  0  0  0  0  0  0
    9.1056   -5.4713   26.9087 C   0  0  0  0  0  0  0  0  0  0  0  0
    8.5128   -3.6803   25.3994 C   0  0  0  0  0  0  0  0  0  0  0  0
    9.5657   -4.0405   24.5584 C   0  0  0  0  0  0  0  0  0  0  0  0
    8.2828   -4.3957   26.5746 C   0  0  0  0  0  0  0  0  0  0  0  0
    9.5436   -0.4122   22.5124 C   0  0  0  0  0  0  0  0  0  0  0  0
    6.1149   -1.9593   19.3749 C   0  0  0  0  0  0  0  0  0  0  0  0
    6.4404   -3.1670   21.5052 C   0  0  0  0  0  0  0  0  0  0  0  0
    7.4999   -0.9582   21.2547 C   0  0  0  0  0  0  0  0  0  0  0  0
    7.7423   -3.7587   22.0178 C   0  0  0  0  0  0  0  0  0  0  0  0
    8.8275   -1.5035   21.7822 C   0  0  2  0  0  0  0  0  0  0  0  0
    9.8144   -3.2707   23.2948 C   0  0  0  0  0  0  0  0  0  0  0  0
    6.4212   -0.7374   18.5460 C   0  0  0  0  0  0  0  0  0  0  0  0
    6.6885   -2.0137   20.6451 N   0  0  0  0  0  0  0  0  0  0  0  0
   10.7817   -0.1167   21.9926 N   0  0  0  0  0  0  0  0  0  0  0  0
    8.5572   -2.6827   22.7037 N   0  3  2  0  0  0  0  0  0  0  0  0
    9.0451    0.1653   23.4754 O   0  0  0  0  0  0  0  0  0  0  0  0
    5.3893   -2.8394   18.9046 O   0  0  0  0  0  0  0  0  0  0  0  0
    6.9846   -3.9510   27.6132 Cl  0  0  0  0  0  0  0  0  0  0  0  0
    7.8957   -1.0914   17.6526 Cl  0  0  0  0  0  0  0  0  0  0  0  0
   10.7997   -6.6688   26.3275 H   0  0  0  0  0  0  0  0  0  0  0  0
   11.2114   -5.4037   24.2432 H   0  0  0  0  0  0  0  0  0  0  0  0
    8.9384   -6.0377   27.8215 H   0  0  0  0  0  0  0  0  0  0  0  0
    7.8737   -2.8412   25.1342 H   0  0  0  0  0  0  0  0  0  0  0  0
    5.8741   -3.9366   20.9712 H   0  0  0  0  0  0  0  0  0  0  0  0
    5.8154   -2.8264   22.3396 H   0  0  0  0  0  0  0  0  0  0  0  0
    6.9025   -0.5240   22.0672 H   0  0  0  0  0  0  0  0  0  0  0  0
    7.6971   -0.1439   20.5534 H   0  0  0  0  0  0  0  0  0  0  0  0
    7.5427   -4.5400   22.7585 H   0  0  0  0  0  0  0  0  0  0  0  0
    8.3506   -4.1706   21.2045 H   0  0  0  0  0  0  0  0  0  0  0  0
    9.4625   -1.8664   20.9656 H   0  0  0  0  0  0  0  0  0  0  0  0
   10.5008   -2.4351   23.4689 H   0  0  0  0  0  0  0  0  0  0  0  0
   10.2560   -3.9099   22.5227 H   0  0  0  0  0  0  0  0  0  0  0  0
    6.5807    0.1057   19.2085 H   0  0  0  0  0  0  0  0  0  0  0  0
    5.6013   -0.5649   17.8582 H   0  0  0  0  0  0  0  0  0  0  0  0
   11.1078   -0.6376   21.1852 H   0  0  0  0  0  0  0  0  0  0  0  0
   11.3825    0.6014   22.3841 H   0  0  0  0  0  0  0  0  0  0  0  0
    7.9944   -2.3351   23.4926 H   0  0  0  0  0  0  0  0  0  0  0  0
  1  2  2  0  0  0  0
  1  3  1  0  0  0  0
  2  5  1  0  0  0  0
  3  6  2  0  0  0  0
  4  5  2  0  0  0  0
  4  6  1  0  0  0  0
  5 13  1  0  0  0  0
  6 20  1  0  0  0  0
  7 12  1  0  0  0  0
  7 16  1  0  0  0  0
  7 18  2  0  0  0  0
  8 14  1  0  0  0  0
  8 15  1  0  0  0  0
  8 19  2  0  0  0  0
  9 11  1  0  0  0  0
  9 15  1  0  0  0  0
 10 12  1  0  0  0  0
 10 15  1  0  0  0  0
 11 17  1  0  0  0  0
 12 17  1  0  0  0  0
 13 17  1  0  0  0  0
 14 21  1  0  0  0  0
  1 22  1  0  0  0  0
  2 23  1  0  0  0  0
  3 24  1  0  0  0  0
  4 25  1  0  0  0  0
  9 26  1  0  0  0  0
  9 27  1  0  0  0  0
 10 28  1  0  0  0  0
 10 29  1  0  0  0  0
 11 30  1  0  0  0  0
 11 31  1  0  0  0  0
 12 32  1  0  0  0  0
 13 33  1  0  0  0  0
 13 34  1  0  0  0  0
 14 35  1  0  0  0  0
 14 36  1  0  0  0  0
 16 37  1  0  0  0  0
 16 38  1  0  0  0  0
 17 39  1  0  0  0  0
M  CHG  1  17   1
M  END
> <Chemgauss4>
-7.709465

> <ref_pdb>
x1385_0

> <CYS145-warhead min dist (A)>
2.878201

> <CYS145-warhead avg dist (A)>
3.304355

> <CYS145-warhead avg dist stderr (A)>
0.0076014204

> <original SMILES>
c1cc(cc(c1)Cl)C[N@@H+]2CCN(C[C@H]2C(=O)N)C(=O)CCl

$$$$
GIA-UNK-d2d-9
  -OEChem-04232002263D

 41 42  0     1  0  0  0  0  0999 V2000
    8.4900   -4.9002   25.9987 C   0  0  0  0  0  0  0  0  0  0  0  0
    7.4382   -3.9900   26.1016 C   0  0  0  0  0  0  0  0  0  0  0  0
    8.8970   -5.3569   24.7451 C   0  0  0  0  0  0  0  0  0  0  0  0
    6.7931   -3.5365   24.9510 C   0  0  0  0  0  0  0  0  0  0  0  0
    8.2520   -4.9034   23.5944 C   0  0  0  0  0  0  0  0  0  0  0  0
    7.2000   -3.9932   23.6974 C   0  0  0  0  0  0  0  0  0  0  0  0
    6.5206   -3.5157   22.4857 C   0  0  0  0  0  0  0  0  0  0  0  0
    9.3890   -2.3473   22.1940 C   0  0  0  0  0  0  0  0  0  0  0  0
   11.2207    0.1233   23.4058 C   0  0  0  0  0  0  0  0  0  0  0  0
    7.5139   -0.6170   20.3761 C   0  0  0  0  0  0  0  0  0  0  0  0
    8.0787   -0.2631   21.7500 C   0  0  0  0  0  0  0  0  0  0  0  0
    6.5065   -1.7138   20.6866 C   0  0  0  0  0  0  0  0  0  0  0  0
    8.1167   -1.6046   22.4728 C   0  0  1  0  0  0  0  0  0  0  0  0
   12.5568   -1.4862   21.9611 C   0  0  0  0  0  0  0  0  0  0  0  0
   10.5449   -2.2410   23.1673 C   0  0  0  0  0  0  0  0  0  0  0  0
   12.2212    1.1959   23.0241 C   0  0  0  0  0  0  0  0  0  0  0  0
    7.0294   -2.3738   21.8824 N   0  0  0  0  0  0  0  0  0  0  0  0
   11.4348   -1.1628   22.8583 N   0  0  0  0  0  0  0  0  0  0  0  0
    5.5421   -4.1521   22.1014 O   0  0  0  0  0  0  0  0  0  0  0  0
    9.4996   -3.0398   21.1793 O   0  0  0  0  0  0  0  0  0  0  0  0
   10.2721    0.3675   24.1554 O   0  0  0  0  0  0  0  0  0  0  0  0
   11.8307    2.7338   23.8195 Cl  0  0  0  0  0  0  0  0  0  0  0  0
    8.9922   -5.2533   26.8946 H   0  0  0  0  0  0  0  0  0  0  0  0
    7.1213   -3.6347   27.0778 H   0  0  0  0  0  0  0  0  0  0  0  0
    9.7163   -6.0654   24.6649 H   0  0  0  0  0  0  0  0  0  0  0  0
    5.9746   -2.8272   25.0428 H   0  0  0  0  0  0  0  0  0  0  0  0
    8.5775   -5.2662   22.6228 H   0  0  0  0  0  0  0  0  0  0  0  0
    7.0533    0.2443   19.8840 H   0  0  0  0  0  0  0  0  0  0  0  0
    8.3070   -1.0018   19.7247 H   0  0  0  0  0  0  0  0  0  0  0  0
    9.0584    0.2178   21.6689 H   0  0  0  0  0  0  0  0  0  0  0  0
    7.3952    0.4214   22.2664 H   0  0  0  0  0  0  0  0  0  0  0  0
    5.5246   -1.2951   20.9341 H   0  0  0  0  0  0  0  0  0  0  0  0
    6.3933   -2.4286   19.8663 H   0  0  0  0  0  0  0  0  0  0  0  0
    7.9921   -1.5154   23.5556 H   0  0  0  0  0  0  0  0  0  0  0  0
   13.4194   -1.8188   22.5571 H   0  0  0  0  0  0  0  0  0  0  0  0
   12.2557   -2.2892   21.2723 H   0  0  0  0  0  0  0  0  0  0  0  0
   12.8334   -0.5920   21.3832 H   0  0  0  0  0  0  0  0  0  0  0  0
   11.1223   -3.1689   23.1398 H   0  0  0  0  0  0  0  0  0  0  0  0
   10.1513   -2.0711   24.1728 H   0  0  0  0  0  0  0  0  0  0  0  0
   13.2250    0.9066   23.3452 H   0  0  0  0  0  0  0  0  0  0  0  0
   12.1953    1.3680   21.9451 H   0  0  0  0  0  0  0  0  0  0  0  0
  1  2  1  0  0  0  0
  1  3  2  0  0  0  0
  2  4  2  0  0  0  0
  3  5  1  0  0  0  0
  4  6  1  0  0  0  0
  5  6  2  0  0  0  0
  6  7  1  0  0  0  0
  7 17  1  0  0  0  0
  7 19  2  0  0  0  0
  8 13  1  0  0  0  0
  8 15  1  0  0  0  0
  8 20  2  0  0  0  0
  9 16  1  0  0  0  0
  9 18  1  0  0  0  0
  9 21  2  0  0  0  0
 10 11  1  0  0  0  0
 10 12  1  0  0  0  0
 11 13  1  0  0  0  0
 12 17  1  0  0  0  0
 13 17  1  0  0  0  0
 14 18  1  0  0  0  0
 15 18  1  0  0  0  0
 16 22  1  0  0  0  0
  1 23  1  0  0  0  0
  2 24  1  0  0  0  0
  3 25  1  0  0  0  0
  4 26  1  0  0  0  0
  5 27  1  0  0  0  0
 10 28  1  0  0  0  0
 10 29  1  0  0  0  0
 11 30  1  0  0  0  0
 11 31  1  0  0  0  0
 12 32  1  0  0  0  0
 12 33  1  0  0  0  0
 13 34  1  0  0  0  0
 14 35  1  0  0  0  0
 14 36  1  0  0  0  0
 14 37  1  0  0  0  0
 15 38  1  0  0  0  0
 15 39  1  0  0  0  0
 16 40  1  0  0  0  0
 16 41  1  0  0  0  0
M  END
> <Chemgauss4>
-7.706518

> <ref_pdb>
x1392_0

> <CYS145-warhead min dist (A)>
4.5487986

> <CYS145-warhead avg dist (A)>
6.2868795

> <CYS145-warhead avg dist stderr (A)>
0.16018948

> <original SMILES>
CN(CC(=O)[C@H]1CCCN1C(=O)c2ccccc2)C(=O)CCl

$$$$
DAN-LON-a5f-3
  -OEChem-04232002263D

 47 48  0     1  0  0  0  0  0999 V2000
    8.6966   -4.3553   26.3100 C   0  0  0  0  0  0  0  0  0  0  0  0
    9.1133   -3.6429   25.1855 C   0  0  0  0  0  0  0  0  0  0  0  0
    7.5500   -5.1473   26.2485 C   0  0  0  0  0  0  0  0  0  0  0  0
    7.2367   -4.5144   23.9381 C   0  0  0  0  0  0  0  0  0  0  0  0
    8.3833   -3.7224   23.9995 C   0  0  0  0  0  0  0  0  0  0  0  0
    6.8201   -5.2268   25.0626 C   0  0  0  0  0  0  0  0  0  0  0  0
    6.3618   -1.3496   19.4508 C   0  0  0  0  0  0  0  0  0  0  0  0
    6.2574   -1.4392   21.9019 C   0  0  0  0  0  0  0  0  0  0  0  0
    8.0272   -0.0513   20.8659 C   0  0  0  0  0  0  0  0  0  0  0  0
    7.0857   -1.1826   23.1513 C   0  0  0  0  0  0  0  0  0  0  0  0
    9.1303   -0.6897   21.7172 C   0  0  1  0  0  0  0  0  0  0  0  0
   12.1866   -0.9588   21.6700 C   0  0  0  0  0  0  0  0  0  0  0  0
   12.2854    0.8860   23.3582 C   0  0  0  0  0  0  0  0  0  0  0  0
    8.8314   -2.9549   22.7908 C   0  0  0  0  0  0  0  0  0  0  0  0
    6.5359   -0.3881   18.3031 C   0  0  0  0  0  0  0  0  0  0  0  0
   10.0894    0.3605   22.2682 C   0  0  0  0  0  0  0  0  0  0  0  0
   11.4164   -0.2288   22.7712 C   0  0  0  0  0  0  0  0  0  0  0  0
    6.8995   -0.9652   20.6785 N   0  0  0  0  0  0  0  0  0  0  0  0
    8.5430   -1.4781   22.8883 N   0  3  2  0  0  0  0  0  0  0  0  0
    5.7678   -2.4153   19.2665 O   0  0  0  0  0  0  0  0  0  0  0  0
    5.4049   -6.2032   24.9877 Cl  0  0  0  0  0  0  0  0  0  0  0  0
    5.7144    1.0991   18.7628 Cl  0  0  0  0  0  0  0  0  0  0  0  0
    9.2653   -4.2930   27.2333 H   0  0  0  0  0  0  0  0  0  0  0  0
   10.0079   -3.0282   25.2425 H   0  0  0  0  0  0  0  0  0  0  0  0
    7.2370   -5.6968   27.1329 H   0  0  0  0  0  0  0  0  0  0  0  0
    6.6712   -4.5734   23.0109 H   0  0  0  0  0  0  0  0  0  0  0  0
    6.0204   -2.5140   21.8483 H   0  0  0  0  0  0  0  0  0  0  0  0
    5.2811   -0.9239   21.9767 H   0  0  0  0  0  0  0  0  0  0  0  0
    7.6334    0.8513   21.3460 H   0  0  0  0  0  0  0  0  0  0  0  0
    8.4359    0.2504   19.8977 H   0  0  0  0  0  0  0  0  0  0  0  0
    7.0106   -0.1274   23.4435 H   0  0  0  0  0  0  0  0  0  0  0  0
    6.7610   -1.8137   23.9898 H   0  0  0  0  0  0  0  0  0  0  0  0
    9.7086   -1.4255   21.1147 H   0  0  0  0  0  0  0  0  0  0  0  0
   12.4264   -0.2857   20.8400 H   0  0  0  0  0  0  0  0  0  0  0  0
   11.6111   -1.8000   21.2719 H   0  0  0  0  0  0  0  0  0  0  0  0
   13.1272   -1.3647   22.0580 H   0  0  0  0  0  0  0  0  0  0  0  0
   12.5333    1.6375   22.6008 H   0  0  0  0  0  0  0  0  0  0  0  0
   13.2231    0.4815   23.7540 H   0  0  0  0  0  0  0  0  0  0  0  0
   11.7680    1.3910   24.1807 H   0  0  0  0  0  0  0  0  0  0  0  0
    9.9111   -3.0549   22.6360 H   0  0  0  0  0  0  0  0  0  0  0  0
    8.3298   -3.3143   21.8858 H   0  0  0  0  0  0  0  0  0  0  0  0
    6.0739   -0.8102   17.4179 H   0  0  0  0  0  0  0  0  0  0  0  0
    7.5937   -0.2002   18.1596 H   0  0  0  0  0  0  0  0  0  0  0  0
   10.2755    1.1105   21.4922 H   0  0  0  0  0  0  0  0  0  0  0  0
    9.5856    0.8747   23.0941 H   0  0  0  0  0  0  0  0  0  0  0  0
   11.2031   -0.9463   23.5738 H   0  0  0  0  0  0  0  0  0  0  0  0
    9.0725   -1.1512   23.7409 H   0  0  0  0  0  0  0  0  0  0  0  0
  1  2  2  0  0  0  0
  1  3  1  0  0  0  0
  2  5  1  0  0  0  0
  3  6  2  0  0  0  0
  4  5  2  0  0  0  0
  4  6  1  0  0  0  0
  5 14  1  0  0  0  0
  6 21  1  0  0  0  0
  7 15  1  0  0  0  0
  7 18  1  0  0  0  0
  7 20  2  0  0  0  0
  8 10  1  0  0  0  0
  8 18  1  0  0  0  0
  9 11  1  0  0  0  0
  9 18  1  0  0  0  0
 10 19  1  0  0  0  0
 11 16  1  0  0  0  0
 11 19  1  0  0  0  0
 12 17  1  0  0  0  0
 13 17  1  0  0  0  0
 14 19  1  0  0  0  0
 15 22  1  0  0  0  0
 16 17  1  0  0  0  0
  1 23  1  0  0  0  0
  2 24  1  0  0  0  0
  3 25  1  0  0  0  0
  4 26  1  0  0  0  0
  8 27  1  0  0  0  0
  8 28  1  0  0  0  0
  9 29  1  0  0  0  0
  9 30  1  0  0  0  0
 10 31  1  0  0  0  0
 10 32  1  0  0  0  0
 11 33  1  0  0  0  0
 12 34  1  0  0  0  0
 12 35  1  0  0  0  0
 12 36  1  0  0  0  0
 13 37  1  0  0  0  0
 13 38  1  0  0  0  0
 13 39  1  0  0  0  0
 14 40  1  0  0  0  0
 14 41  1  0  0  0  0
 15 42  1  0  0  0  0
 15 43  1  0  0  0  0
 16 44  1  0  0  0  0
 16 45  1  0  0  0  0
 17 46  1  0  0  0  0
 19 47  1  0  0  0  0
M  CHG  1  19   1
M  END
> <Chemgauss4>
-7.701871

> <ref_pdb>
x1392_0

> <CYS145-warhead min dist (A)>
2.852559

> <CYS145-warhead avg dist (A)>
3.3962283

> <CYS145-warhead avg dist stderr (A)>
0.0055903033

> <original SMILES>
CC(C)C[C@@H]1CN(CC[N@H+]1Cc2cccc(c2)Cl)C(=O)CCl

$$$$
NIR-THE-0d6-4
  -OEChem-04232002263D

 46 48  0     0  0  0  0  0  0999 V2000
   10.6753   -2.6402   24.3900 C   0  0  0  0  0  0  0  0  0  0  0  0
    8.4537   -3.4808   23.7897 C   0  0  0  0  0  0  0  0  0  0  0  0
   11.8173   -1.9072   24.0662 C   0  0  0  0  0  0  0  0  0  0  0  0
    7.4054   -3.5764   22.8741 C   0  0  0  0  0  0  0  0  0  0  0  0
   10.8625   -1.3677   21.9156 C   0  0  0  0  0  0  0  0  0  0  0  0
    8.6408   -2.2082   21.3153 C   0  0  0  0  0  0  0  0  0  0  0  0
    9.6106   -2.7471   23.4805 C   0  0  0  0  0  0  0  0  0  0  0  0
    9.7056   -2.1013   22.2248 C   0  0  0  0  0  0  0  0  0  0  0  0
   11.9108   -1.2722   22.8313 C   0  0  0  0  0  0  0  0  0  0  0  0
    7.4988   -2.9413   21.6392 C   0  0  0  0  0  0  0  0  0  0  0  0
   10.4211    3.7908   24.6824 C   0  0  0  0  0  0  0  0  0  0  0  0
   12.8355    1.0921   24.4296 C   0  0  0  0  0  0  0  0  0  0  0  0
   11.8418    1.6562   22.1838 C   0  0  0  0  0  0  0  0  0  0  0  0
   12.6311    2.5444   24.8575 C   0  0  0  0  0  0  0  0  0  0  0  0
   11.6597    3.0966   22.6565 C   0  0  0  0  0  0  0  0  0  0  0  0
   13.0145    0.9780   22.9081 C   0  0  0  0  0  0  0  0  0  0  0  0
   13.1433   -0.4831   22.4841 C   0  0  0  0  0  0  0  0  0  0  0  0
    9.9778    3.2921   26.0347 C   0  0  0  0  0  0  0  0  0  0  0  0
   11.5238    3.1553   24.1127 N   0  0  0  0  0  0  0  0  0  0  0  0
    6.6390   -4.4614   19.6255 N   0  0  0  0  0  0  0  0  0  0  0  0
    9.8033    4.7159   24.1491 O   0  0  0  0  0  0  0  0  0  0  0  0
    4.9601   -3.3410   21.2291 O   0  0  0  0  0  0  0  0  0  0  0  0
    6.2469   -1.9153   19.5985 O   0  0  0  0  0  0  0  0  0  0  0  0
    6.1859   -3.0617   20.4945 S   0  0  0  0  0  0  0  0  0  0  0  0
    9.5285    1.6032   25.8263 Cl  0  0  0  0  0  0  0  0  0  0  0  0
   10.6234   -3.1280   25.3613 H   0  0  0  0  0  0  0  0  0  0  0  0
    8.3588   -3.9849   24.7492 H   0  0  0  0  0  0  0  0  0  0  0  0
   12.6294   -1.8388   24.7853 H   0  0  0  0  0  0  0  0  0  0  0  0
    6.5202   -4.1500   23.1354 H   0  0  0  0  0  0  0  0  0  0  0  0
   10.9479   -0.8650   20.9536 H   0  0  0  0  0  0  0  0  0  0  0  0
    8.7031   -1.7158   20.3463 H   0  0  0  0  0  0  0  0  0  0  0  0
   13.7178    0.6858   24.9384 H   0  0  0  0  0  0  0  0  0  0  0  0
   11.9751    0.4934   24.7554 H   0  0  0  0  0  0  0  0  0  0  0  0
   10.9142    1.0963   22.3596 H   0  0  0  0  0  0  0  0  0  0  0  0
   12.0183    1.6492   21.1015 H   0  0  0  0  0  0  0  0  0  0  0  0
   12.4710    2.5841   25.9363 H   0  0  0  0  0  0  0  0  0  0  0  0
   13.5296    3.1351   24.6425 H   0  0  0  0  0  0  0  0  0  0  0  0
   12.5314    3.7033   22.3841 H   0  0  0  0  0  0  0  0  0  0  0  0
   10.7876    3.5386   22.1645 H   0  0  0  0  0  0  0  0  0  0  0  0
   13.9415    1.4958   22.6279 H   0  0  0  0  0  0  0  0  0  0  0  0
   14.0194   -0.9273   22.9677 H   0  0  0  0  0  0  0  0  0  0  0  0
   13.3284   -0.5351   21.4062 H   0  0  0  0  0  0  0  0  0  0  0  0
    9.1185    3.8687   26.3576 H   0  0  0  0  0  0  0  0  0  0  0  0
   10.8066    3.3740   26.7285 H   0  0  0  0  0  0  0  0  0  0  0  0
    6.0923   -5.3185   19.7736 H   0  0  0  0  0  0  0  0  0  0  0  0
    6.9726   -4.3431   18.6612 H   0  0  0  0  0  0  0  0  0  0  0  0
  1  3  2  0  0  0  0
  1  7  1  0  0  0  0
  2  4  2  0  0  0  0
  2  7  1  0  0  0  0
  3  9  1  0  0  0  0
  4 10  1  0  0  0  0
  5  8  1  0  0  0  0
  5  9  2  0  0  0  0
  6  8  1  0  0  0  0
  6 10  2  0  0  0  0
  7  8  2  0  0  0  0
  9 17  1  0  0  0  0
 10 24  1  0  0  0  0
 11 18  1  0  0  0  0
 11 19  1  0  0  0  0
 11 21  2  0  0  0  0
 12 14  1  0  0  0  0
 12 16  1  0  0  0  0
 13 15  1  0  0  0  0
 13 16  1  0  0  0  0
 14 19  1  0  0  0  0
 15 19  1  0  0  0  0
 16 17  1  0  0  0  0
 18 25  1  0  0  0  0
 20 24  1  0  0  0  0
 22 24  2  0  0  0  0
 23 24  2  0  0  0  0
  1 26  1  0  0  0  0
  2 27  1  0  0  0  0
  3 28  1  0  0  0  0
  4 29  1  0  0  0  0
  5 30  1  0  0  0  0
  6 31  1  0  0  0  0
 12 32  1  0  0  0  0
 12 33  1  0  0  0  0
 13 34  1  0  0  0  0
 13 35  1  0  0  0  0
 14 36  1  0  0  0  0
 14 37  1  0  0  0  0
 15 38  1  0  0  0  0
 15 39  1  0  0  0  0
 16 40  1  0  0  0  0
 17 41  1  0  0  0  0
 17 42  1  0  0  0  0
 18 43  1  0  0  0  0
 18 44  1  0  0  0  0
 20 45  1  0  0  0  0
 20 46  1  0  0  0  0
M  END
> <Chemgauss4>
-7.682290

> <ref_pdb>
x0830_0

> <CYS145-warhead min dist (A)>
11.75393

> <CYS145-warhead avg dist (A)>
12.072922

> <CYS145-warhead avg dist stderr (A)>
0.046822622

> <original SMILES>
c1cc(cc2c1ccc(c2)S(=O)(=O)N)CC3CCN(CC3)C(=O)CCl

$$$$
ANT-OPE-ab3-2
  -OEChem-04232002263D

 39 40  0     0  0  0  0  0  0999 V2000
   12.2880   -0.4272   22.2675 C   0  0  0  0  0  0  0  0  0  0  0  0
   12.7596    0.2537   23.3881 C   0  0  0  0  0  0  0  0  0  0  0  0
   10.9261   -0.7177   22.1264 C   0  0  0  0  0  0  0  0  0  0  0  0
   11.8887    0.6651   24.4010 C   0  0  0  0  0  0  0  0  0  0  0  0
    8.3038    0.1628   24.5158 C   0  0  0  0  0  0  0  0  0  0  0  0
   10.0290   -0.3129   23.1348 C   0  0  0  0  0  0  0  0  0  0  0  0
    8.6231   -0.4348   23.3183 C   0  0  0  0  0  0  0  0  0  0  0  0
   10.5300    0.3677   24.2466 C   0  0  0  0  0  0  0  0  0  0  0  0
    6.1010   -4.4853   22.8929 C   0  0  0  0  0  0  0  0  0  0  0  0
    5.5426   -4.4617   24.1108 C   0  0  0  0  0  0  0  0  0  0  0  0
    6.3690   -3.2154   22.1634 C   0  0  0  0  0  0  0  0  0  0  0  0
    5.5714   -6.9423   27.0285 C   0  0  0  0  0  0  0  0  0  0  0  0
    7.4216   -5.5642   26.0916 C   0  0  0  0  0  0  0  0  0  0  0  0
    7.6531   -1.0956   22.3822 C   0  0  0  0  0  0  0  0  0  0  0  0
    5.2405   -5.6968   24.8976 C   0  0  0  0  0  0  0  0  0  0  0  0
    9.4604    0.6441   25.0681 N   0  0  0  0  0  0  0  0  0  0  0  0
    7.2300   -2.3904   22.8668 N   0  0  0  0  0  0  0  0  0  0  0  0
    5.9270   -5.7230   26.2154 N   0  3  0  0  0  0  0  0  0  0  0  0
    5.8683   -2.9641   21.0721 O   0  0  0  0  0  0  0  0  0  0  0  0
   12.9846   -0.7363   21.4928 H   0  0  0  0  0  0  0  0  0  0  0  0
   13.8214    0.4688   23.4772 H   0  0  0  0  0  0  0  0  0  0  0  0
   10.5740   -1.2484   21.2464 H   0  0  0  0  0  0  0  0  0  0  0  0
   12.2569    1.1940   25.2735 H   0  0  0  0  0  0  0  0  0  0  0  0
    7.3581    0.2906   25.0242 H   0  0  0  0  0  0  0  0  0  0  0  0
    6.3671   -5.4250   22.4198 H   0  0  0  0  0  0  0  0  0  0  0  0
    5.2751   -3.5170   24.5772 H   0  0  0  0  0  0  0  0  0  0  0  0
    5.9108   -7.8215   26.4779 H   0  0  0  0  0  0  0  0  0  0  0  0
    6.0795   -6.8617   27.9914 H   0  0  0  0  0  0  0  0  0  0  0  0
    4.4873   -6.9540   27.1567 H   0  0  0  0  0  0  0  0  0  0  0  0
    7.8015   -6.4133   25.5205 H   0  0  0  0  0  0  0  0  0  0  0  0
    7.6159   -4.6236   25.5728 H   0  0  0  0  0  0  0  0  0  0  0  0
    7.8407   -5.5503   27.0995 H   0  0  0  0  0  0  0  0  0  0  0  0
    6.7593   -0.4758   22.2516 H   0  0  0  0  0  0  0  0  0  0  0  0
    8.0977   -1.2378   21.3916 H   0  0  0  0  0  0  0  0  0  0  0  0
    4.1681   -5.7574   25.1071 H   0  0  0  0  0  0  0  0  0  0  0  0
    5.5457   -6.6097   24.3763 H   0  0  0  0  0  0  0  0  0  0  0  0
    9.5212    1.1318   25.9513 H   0  0  0  0  0  0  0  0  0  0  0  0
    7.5854   -2.6840   23.7720 H   0  0  0  0  0  0  0  0  0  0  0  0
    5.5952   -4.9084   26.7585 H   0  0  0  0  0  0  0  0  0  0  0  0
  1  2  1  0  0  0  0
  1  3  2  0  0  0  0
  2  4  2  0  0  0  0
  3  6  1  0  0  0  0
  4  8  1  0  0  0  0
  5  7  2  0  0  0  0
  5 16  1  0  0  0  0
  6  7  1  0  0  0  0
  6  8  2  0  0  0  0
  7 14  1  0  0  0  0
  8 16  1  0  0  0  0
  9 10  2  0  0  0  0
  9 11  1  0  0  0  0
 10 15  1  0  0  0  0
 11 17  1  0  0  0  0
 11 19  2  0  0  0  0
 12 18  1  0  0  0  0
 13 18  1  0  0  0  0
 14 17  1  0  0  0  0
 15 18  1  0  0  0  0
  1 20  1  0  0  0  0
  2 21  1  0  0  0  0
  3 22  1  0  0  0  0
  4 23  1  0  0  0  0
  5 24  1  0  0  0  0
  9 25  1  0  0  0  0
 10 26  1  0  0  0  0
 12 27  1  0  0  0  0
 12 28  1  0  0  0  0
 12 29  1  0  0  0  0
 13 30  1  0  0  0  0
 13 31  1  0  0  0  0
 13 32  1  0  0  0  0
 14 33  1  0  0  0  0
 14 34  1  0  0  0  0
 15 35  1  0  0  0  0
 15 36  1  0  0  0  0
 16 37  1  0  0  0  0
 17 38  1  0  0  0  0
 18 39  1  0  0  0  0
M  CHG  1  18   1
M  END
> <Chemgauss4>
-7.678468

> <ref_pdb>
x1392_0

> <original SMILES>
C[NH+](C)C/C=C/C(=O)NCc1c[nH]c2c1cccc2

$$$$
JOH-UNI-27a-39_thio_pH
  -OEChem-04232002263D

 45 46  0     0  0  0  0  0  0999 V2000
    8.9705   -3.2034   26.7114 C   0  0  0  0  0  0  0  0  0  0  0  0
    8.6755   -4.5529   26.9046 C   0  0  0  0  0  0  0  0  0  0  0  0
    9.0179   -4.9650   24.5487 C   0  0  0  0  0  0  0  0  0  0  0  0
    9.2892   -2.7346   25.4369 C   0  0  0  0  0  0  0  0  0  0  0  0
    9.3129   -3.6154   24.3556 C   0  0  0  0  0  0  0  0  0  0  0  0
    8.6992   -5.4337   25.8233 C   0  0  0  0  0  0  0  0  0  0  0  0
    6.1779   -1.4491   19.0020 C   0  0  0  0  0  0  0  0  0  0  0  0
    6.3039   -2.4297   21.2700 C   0  0  0  0  0  0  0  0  0  0  0  0
    7.8784   -0.6209   20.7021 C   0  0  0  0  0  0  0  0  0  0  0  0
    7.4427   -3.2765   21.8191 C   0  0  0  0  0  0  0  0  0  0  0  0
    9.0415   -1.4404   21.2447 C   0  0  0  0  0  0  0  0  0  0  0  0
    6.3056   -0.0197   24.1550 C   0  0  0  0  0  0  0  0  0  0  0  0
    9.6007   -1.2855   25.2540 C   0  0  0  0  0  0  0  0  0  0  0  0
    9.6513   -3.1339   22.9755 C   0  0  0  0  0  0  0  0  0  0  0  0
    6.1944   -0.1202   18.2896 C   0  0  0  0  0  0  0  0  0  0  0  0
    8.3538   -0.4002   25.2426 C   0  0  0  0  0  0  0  0  0  0  0  0
    6.7871   -1.4932   20.2552 N   0  0  0  0  0  0  0  0  0  0  0  0
    8.5341   -2.3629   22.3304 N   0  3  0  0  0  0  0  0  0  0  0  0
    5.6416   -2.4180   18.4584 O   0  0  0  0  0  0  0  0  0  0  0  0
    7.4820   -0.8154   24.1988 O   0  0  0  0  0  0  0  0  0  0  0  0
    8.3334   -7.0981   26.0617 Cl  0  0  0  0  0  0  0  0  0  0  0  0
    5.3158    1.0108   19.3127 Cl  0  0  0  0  0  0  0  0  0  0  0  0
    8.9489   -2.5253   27.5605 H   0  0  0  0  0  0  0  0  0  0  0  0
    8.4274   -4.9034   27.9032 H   0  0  0  0  0  0  0  0  0  0  0  0
    9.0361   -5.6478   23.7021 H   0  0  0  0  0  0  0  0  0  0  0  0
    5.5286   -3.0830   20.8577 H   0  0  0  0  0  0  0  0  0  0  0  0
    5.8394   -1.8388   22.0688 H   0  0  0  0  0  0  0  0  0  0  0  0
    7.4720    0.0349   21.4816 H   0  0  0  0  0  0  0  0  0  0  0  0
    8.2396    0.0236   19.8989 H   0  0  0  0  0  0  0  0  0  0  0  0
    7.1012   -3.8821   22.6648 H   0  0  0  0  0  0  0  0  0  0  0  0
    7.8791   -3.9260   21.0518 H   0  0  0  0  0  0  0  0  0  0  0  0
    9.5060   -2.0580   20.4679 H   0  0  0  0  0  0  0  0  0  0  0  0
    9.7952   -0.7879   21.6972 H   0  0  0  0  0  0  0  0  0  0  0  0
    5.6607   -0.3658   23.3435 H   0  0  0  0  0  0  0  0  0  0  0  0
    6.5781    1.0268   23.9970 H   0  0  0  0  0  0  0  0  0  0  0  0
    5.7753   -0.1166   25.1053 H   0  0  0  0  0  0  0  0  0  0  0  0
   10.2800   -0.9437   26.0494 H   0  0  0  0  0  0  0  0  0  0  0  0
   10.1409   -1.1431   24.3062 H   0  0  0  0  0  0  0  0  0  0  0  0
   10.5232   -2.4712   22.9901 H   0  0  0  0  0  0  0  0  0  0  0  0
    9.8805   -3.9724   22.3091 H   0  0  0  0  0  0  0  0  0  0  0  0
    5.6914   -0.2268   17.3352 H   0  0  0  0  0  0  0  0  0  0  0  0
    7.2223    0.2036   18.1738 H   0  0  0  0  0  0  0  0  0  0  0  0
    7.8137   -0.5001   26.1897 H   0  0  0  0  0  0  0  0  0  0  0  0
    8.6081    0.6541   25.0918 H   0  0  0  0  0  0  0  0  0  0  0  0
    8.1222   -1.7731   23.0667 H   0  0  0  0  0  0  0  0  0  0  0  0
  1  2  1  0  0  0  0
  1  4  2  0  0  0  0
  2  6  2  0  0  0  0
  3  5  2  0  0  0  0
  3  6  1  0  0  0  0
  4  5  1  0  0  0  0
  4 13  1  0  0  0  0
  5 14  1  0  0  0  0
  6 21  1  0  0  0  0
  7 15  1  0  0  0  0
  7 17  1  0  0  0  0
  7 19  2  0  0  0  0
  8 10  1  0  0  0  0
  8 17  1  0  0  0  0
  9 11  1  0  0  0  0
  9 17  1  0  0  0  0
 10 18  1  0  0  0  0
 11 18  1  0  0  0  0
 12 20  1  0  0  0  0
 13 16  1  0  0  0  0
 14 18  1  0  0  0  0
 15 22  1  0  0  0  0
 16 20  1  0  0  0  0
  1 23  1  0  0  0  0
  2 24  1  0  0  0  0
  3 25  1  0  0  0  0
  8 26  1  0  0  0  0
  8 27  1  0  0  0  0
  9 28  1  0  0  0  0
  9 29  1  0  0  0  0
 10 30  1  0  0  0  0
 10 31  1  0  0  0  0
 11 32  1  0  0  0  0
 11 33  1  0  0  0  0
 12 34  1  0  0  0  0
 12 35  1  0  0  0  0
 12 36  1  0  0  0  0
 13 37  1  0  0  0  0
 13 38  1  0  0  0  0
 14 39  1  0  0  0  0
 14 40  1  0  0  0  0
 15 41  1  0  0  0  0
 15 42  1  0  0  0  0
 16 43  1  0  0  0  0
 16 44  1  0  0  0  0
 18 45  1  0  0  0  0
M  CHG  1  18   1
M  END
> <Chemgauss4>
-7.671109

> <ref_pdb>
x1385_0

> <CYS145-warhead min dist (A)>
2.9958367

> <CYS145-warhead avg dist (A)>
3.3711605

> <CYS145-warhead avg dist stderr (A)>
0.017025039

> <original SMILES>
COCCc1ccc(cc1C[NH+]2CCN(CC2)C(=O)CCl)Cl

$$$$
PAU-WEI-f73-3_thio_pH
  -OEChem-04232002263D

 53 55  0     1  0  0  0  0  0999 V2000
   13.8881   -0.7416   21.8869 C   0  0  0  0  0  0  0  0  0  0  0  0
   10.7479   -5.0652   26.5089 C   0  0  0  0  0  0  0  0  0  0  0  0
   10.8385   -4.3957   25.2886 C   0  0  0  0  0  0  0  0  0  0  0  0
    9.5111   -5.2012   27.1396 C   0  0  0  0  0  0  0  0  0  0  0  0
   11.8609   -1.9011   22.6372 C   0  0  0  0  0  0  0  0  0  0  0  0
    8.4558   -3.9979   25.3298 C   0  0  0  0  0  0  0  0  0  0  0  0
   12.3921    0.2227   23.5667 C   0  0  0  0  0  0  0  0  0  0  0  0
   12.7156   -0.8060   22.6967 C   0  0  0  0  0  0  0  0  0  0  0  0
    9.6926   -3.8620   24.6991 C   0  0  0  0  0  0  0  0  0  0  0  0
   10.7249   -1.9336   23.4383 C   0  0  0  0  0  0  0  0  0  0  0  0
    8.3652   -4.6675   26.5501 C   0  0  0  0  0  0  0  0  0  0  0  0
   10.4906   -0.8545   24.2752 C   0  0  0  0  0  0  0  0  0  0  0  0
    5.9041   -2.5056   19.4737 C   0  0  0  0  0  0  0  0  0  0  0  0
    6.4202   -3.5988   21.6322 C   0  0  0  0  0  0  0  0  0  0  0  0
    7.1634   -1.2719   21.3067 C   0  0  0  0  0  0  0  0  0  0  0  0
    7.8032   -3.9926   22.1303 C   0  0  0  0  0  0  0  0  0  0  0  0
    8.5580   -1.6304   21.8020 C   0  0  0  0  0  0  0  0  0  0  0  0
    7.8841   -0.3120   26.9278 C   0  0  0  0  0  0  0  0  0  0  0  0
    6.0276   -1.2749   18.6112 C   0  0  0  0  0  0  0  0  0  0  0  0
    9.1957   -0.0741   26.2602 C   0  0  0  0  0  0  0  0  0  0  0  0
    9.7923   -3.1314   23.3700 C   0  0  2  0  0  0  0  0  0  0  0  0
   14.8420   -0.6892   21.2280 N   0  0  0  0  0  0  0  0  0  0  0  0
   11.2977    0.2267   24.3603 N   0  0  0  0  0  0  0  0  0  0  0  0
    6.4931   -2.4450   20.7358 N   0  0  0  0  0  0  0  0  0  0  0  0
    9.3334   -0.8829   25.0934 N   0  0  0  0  0  0  0  0  0  0  0  0
    8.4581   -2.7885   22.7695 N   0  3  0  0  0  0  0  0  0  0  0  0
    5.3042   -3.4908   19.0361 O   0  0  0  0  0  0  0  0  0  0  0  0
    6.8398   -4.8345   27.3293 Cl  0  0  0  0  0  0  0  0  0  0  0  0
    5.2343   -1.6477   17.0849 Cl  0  0  0  0  0  0  0  0  0  0  0  0
   11.6405   -5.4805   26.9677 H   0  0  0  0  0  0  0  0  0  0  0  0
   11.8063   -4.2944   24.8043 H   0  0  0  0  0  0  0  0  0  0  0  0
    9.4555   -5.7252   28.0906 H   0  0  0  0  0  0  0  0  0  0  0  0
   12.0757   -2.7319   21.9685 H   0  0  0  0  0  0  0  0  0  0  0  0
    7.5652   -3.5804   24.8659 H   0  0  0  0  0  0  0  0  0  0  0  0
   13.0182    1.1053   23.6604 H   0  0  0  0  0  0  0  0  0  0  0  0
    5.9562   -4.4529   21.1290 H   0  0  0  0  0  0  0  0  0  0  0  0
    5.7694   -3.3236   22.4710 H   0  0  0  0  0  0  0  0  0  0  0  0
    6.5407   -0.9125   22.1349 H   0  0  0  0  0  0  0  0  0  0  0  0
    7.2390   -0.4554   20.5866 H   0  0  0  0  0  0  0  0  0  0  0  0
    7.7308   -4.7704   22.8973 H   0  0  0  0  0  0  0  0  0  0  0  0
    8.4511   -4.3358   21.3159 H   0  0  0  0  0  0  0  0  0  0  0  0
    9.2195   -1.9326   20.9823 H   0  0  0  0  0  0  0  0  0  0  0  0
    9.0028   -0.7898   22.3444 H   0  0  0  0  0  0  0  0  0  0  0  0
    7.8066   -1.3701   27.2184 H   0  0  0  0  0  0  0  0  0  0  0  0
    7.8091    0.3208   27.8244 H   0  0  0  0  0  0  0  0  0  0  0  0
    7.0686   -0.0619   26.2333 H   0  0  0  0  0  0  0  0  0  0  0  0
    7.0783   -1.0672   18.4435 H   0  0  0  0  0  0  0  0  0  0  0  0
    5.5231   -0.4502   19.1014 H   0  0  0  0  0  0  0  0  0  0  0  0
    9.2654    0.9854   25.9728 H   0  0  0  0  0  0  0  0  0  0  0  0
   10.0058   -0.3174   26.9633 H   0  0  0  0  0  0  0  0  0  0  0  0
   10.1933   -3.8453   22.6378 H   0  0  0  0  0  0  0  0  0  0  0  0
    8.6037   -1.5062   24.8146 H   0  0  0  0  0  0  0  0  0  0  0  0
    7.8555   -2.4871   23.5478 H   0  0  0  0  0  0  0  0  0  0  0  0
  1  8  1  0  0  0  0
  1 22  3  0  0  0  0
  2  3  2  0  0  0  0
  2  4  1  0  0  0  0
  3  9  1  0  0  0  0
  4 11  2  0  0  0  0
  5  8  1  0  0  0  0
  5 10  2  0  0  0  0
  6  9  2  0  0  0  0
  6 11  1  0  0  0  0
  7  8  2  0  0  0  0
  7 23  1  0  0  0  0
  9 21  1  0  0  0  0
 10 12  1  0  0  0  0
 10 21  1  0  0  0  0
 11 28  1  0  0  0  0
 12 23  2  0  0  0  0
 12 25  1  0  0  0  0
 13 19  1  0  0  0  0
 13 24  1  0  0  0  0
 13 27  2  0  0  0  0
 14 16  1  0  0  0  0
 14 24  1  0  0  0  0
 15 17  1  0  0  0  0
 15 24  1  0  0  0  0
 16 26  1  0  0  0  0
 17 26  1  0  0  0  0
 18 20  1  0  0  0  0
 19 29  1  0  0  0  0
 20 25  1  0  0  0  0
 21 26  1  0  0  0  0
  2 30  1  0  0  0  0
  3 31  1  0  0  0  0
  4 32  1  0  0  0  0
  5 33  1  0  0  0  0
  6 34  1  0  0  0  0
  7 35  1  0  0  0  0
 14 36  1  0  0  0  0
 14 37  1  0  0  0  0
 15 38  1  0  0  0  0
 15 39  1  0  0  0  0
 16 40  1  0  0  0  0
 16 41  1  0  0  0  0
 17 42  1  0  0  0  0
 17 43  1  0  0  0  0
 18 44  1  0  0  0  0
 18 45  1  0  0  0  0
 18 46  1  0  0  0  0
 19 47  1  0  0  0  0
 19 48  1  0  0  0  0
 20 49  1  0  0  0  0
 20 50  1  0  0  0  0
 21 51  1  0  0  0  0
 25 52  1  0  0  0  0
 26 53  1  0  0  0  0
M  CHG  1  26   1
M  END
> <Chemgauss4>
-7.644675

> <ref_pdb>
x0770_0

> <CYS145-warhead min dist (A)>
2.9184306

> <CYS145-warhead avg dist (A)>
3.2968776

> <CYS145-warhead avg dist stderr (A)>
0.009559253

> <original SMILES>
CCNc1c(cc(cn1)C#N)[C@@H](c2cccc(c2)Cl)[NH+]3CCN(CC3)C(=O)CCl

$$$$
JOH-UNI-27a-33_thio_pH
  -OEChem-04232002263D

 40 42  0     1  0  0  0  0  0999 V2000
   13.6758    0.2843   22.5662 C   0  0  0  0  0  0  0  0  0  0  0  0
   12.5946   -0.5926   22.4775 C   0  0  0  0  0  0  0  0  0  0  0  0
   13.5068    1.5438   23.1414 C   0  0  0  0  0  0  0  0  0  0  0  0
   11.1756    1.0496   23.5388 C   0  0  0  0  0  0  0  0  0  0  0  0
   11.3445   -0.2099   22.9637 C   0  0  0  0  0  0  0  0  0  0  0  0
   12.2567    1.9265   23.6276 C   0  0  0  0  0  0  0  0  0  0  0  0
    6.2573   -1.0035   18.8942 C   0  0  0  0  0  0  0  0  0  0  0  0
    9.0096   -1.1315   23.9390 C   0  0  0  0  0  0  0  0  0  0  0  0
    8.2271    0.1606   19.8353 C   0  0  0  0  0  0  0  0  0  0  0  0
    8.3009   -2.2977   19.6794 C   0  0  0  0  0  0  0  0  0  0  0  0
    8.6965    0.1035   21.2817 C   0  0  0  0  0  0  0  0  0  0  0  0
    8.7735   -2.3918   21.1239 C   0  0  0  0  0  0  0  0  0  0  0  0
    9.2821   -2.6158   24.1437 C   0  0  0  0  0  0  0  0  0  0  0  0
   10.1167   -1.2065   22.8635 C   0  0  1  0  0  0  0  0  0  0  0  0
    5.3953    0.1635   19.3050 C   0  0  0  0  0  0  0  0  0  0  0  0
    7.5298   -1.0694   19.4600 N   0  0  0  0  0  0  0  0  0  0  0  0
    9.5395   -1.1367   21.4777 N   0  3  0  0  0  0  0  0  0  0  0  0
    5.8123   -1.8291   18.0927 O   0  0  0  0  0  0  0  0  0  0  0  0
   10.4147   -2.5799   23.2488 O   0  0  0  0  0  0  0  0  0  0  0  0
   12.0486    3.4806   24.3370 Cl  0  0  0  0  0  0  0  0  0  0  0  0
    5.1627    0.0304   21.0445 Cl  0  0  0  0  0  0  0  0  0  0  0  0
   14.6490   -0.0138   22.1874 H   0  0  0  0  0  0  0  0  0  0  0  0
   12.7343   -1.5723   22.0282 H   0  0  0  0  0  0  0  0  0  0  0  0
   14.3583    2.2163   23.2038 H   0  0  0  0  0  0  0  0  0  0  0  0
   10.1982    1.3418   23.9159 H   0  0  0  0  0  0  0  0  0  0  0  0
    8.0014   -0.8941   23.5872 H   0  0  0  0  0  0  0  0  0  0  0  0
    9.2437   -0.5079   24.8073 H   0  0  0  0  0  0  0  0  0  0  0  0
    7.5804    1.0323   19.6941 H   0  0  0  0  0  0  0  0  0  0  0  0
    9.0801    0.2760   19.1557 H   0  0  0  0  0  0  0  0  0  0  0  0
    9.1571   -2.2708   18.9945 H   0  0  0  0  0  0  0  0  0  0  0  0
    7.7235   -3.1906   19.4337 H   0  0  0  0  0  0  0  0  0  0  0  0
    9.3262    0.9673   21.5196 H   0  0  0  0  0  0  0  0  0  0  0  0
    7.8500    0.0584   21.9768 H   0  0  0  0  0  0  0  0  0  0  0  0
    7.9291   -2.4868   21.8166 H   0  0  0  0  0  0  0  0  0  0  0  0
    9.4564   -3.2379   21.2539 H   0  0  0  0  0  0  0  0  0  0  0  0
    9.5744   -2.9022   25.1573 H   0  0  0  0  0  0  0  0  0  0  0  0
    8.5048   -3.2907   23.7742 H   0  0  0  0  0  0  0  0  0  0  0  0
    4.4412    0.0923   18.7954 H   0  0  0  0  0  0  0  0  0  0  0  0
    5.9151    1.0848   19.0682 H   0  0  0  0  0  0  0  0  0  0  0  0
   10.3552   -1.0677   20.7844 H   0  0  0  0  0  0  0  0  0  0  0  0
  1  2  2  0  0  0  0
  1  3  1  0  0  0  0
  2  5  1  0  0  0  0
  3  6  2  0  0  0  0
  4  5  2  0  0  0  0
  4  6  1  0  0  0  0
  5 14  1  0  0  0  0
  6 20  1  0  0  0  0
  7 15  1  0  0  0  0
  7 16  1  0  0  0  0
  7 18  2  0  0  0  0
  8 13  1  0  0  0  0
  8 14  1  0  0  0  0
  9 11  1  0  0  0  0
  9 16  1  0  0  0  0
 10 12  1  0  0  0  0
 10 16  1  0  0  0  0
 11 17  1  0  0  0  0
 12 17  1  0  0  0  0
 13 19  1  0  0  0  0
 14 17  1  0  0  0  0
 14 19  1  0  0  0  0
 15 21  1  0  0  0  0
  1 22  1  0  0  0  0
  2 23  1  0  0  0  0
  3 24  1  0  0  0  0
  4 25  1  0  0  0  0
  8 26  1  0  0  0  0
  8 27  1  0  0  0  0
  9 28  1  0  0  0  0
  9 29  1  0  0  0  0
 10 30  1  0  0  0  0
 10 31  1  0  0  0  0
 11 32  1  0  0  0  0
 11 33  1  0  0  0  0
 12 34  1  0  0  0  0
 12 35  1  0  0  0  0
 13 36  1  0  0  0  0
 13 37  1  0  0  0  0
 15 38  1  0  0  0  0
 15 39  1  0  0  0  0
 17 40  1  0  0  0  0
M  CHG  1  17   1
M  END
> <Chemgauss4>
-7.633010

> <ref_pdb>
x0830_0

> <CYS145-warhead min dist (A)>
6.5419817

> <CYS145-warhead avg dist (A)>
7.1158104

> <CYS145-warhead avg dist stderr (A)>
0.022750186

> <original SMILES>
c1cc(cc(c1)Cl)[C@@]2(CCO2)[NH+]3CCN(CC3)C(=O)CCl

$$$$
WAR-XCH-bdd-16
  -OEChem-04232002263D

 45 48  0     1  0  0  0  0  0999 V2000
   12.0647    0.2821   24.3955 C   0  0  0  0  0  0  0  0  0  0  0  0
   12.1885    1.2843   23.4398 C   0  0  0  0  0  0  0  0  0  0  0  0
    6.4173    0.8378   18.2860 C   0  0  0  0  0  0  0  0  0  0  0  0
   11.0586   -0.6701   24.2653 C   0  0  0  0  0  0  0  0  0  0  0  0
    7.2849    0.7981   19.3719 C   0  0  0  0  0  0  0  0  0  0  0  0
   11.3066    1.3323   22.3561 C   0  0  0  0  0  0  0  0  0  0  0  0
    5.8988   -0.3619   17.8260 C   0  0  0  0  0  0  0  0  0  0  0  0
    7.0312   -1.5661   19.4216 C   0  0  0  0  0  0  0  0  0  0  0  0
   10.1758   -0.6150   23.1728 C   0  0  0  0  0  0  0  0  0  0  0  0
    7.6029   -0.4228   19.9563 C   0  0  0  0  0  0  0  0  0  0  0  0
   10.2907    0.3923   22.2009 C   0  0  0  0  0  0  0  0  0  0  0  0
    9.1491   -1.5359   22.9836 C   0  0  0  0  0  0  0  0  0  0  0  0
    8.4984   -0.4966   21.0813 C   0  0  0  0  0  0  0  0  0  0  0  0
    5.7122   -3.8900   22.4665 C   0  0  0  0  0  0  0  0  0  0  0  0
    9.2013   -4.8320   22.6079 C   0  0  0  0  0  0  0  0  0  0  0  0
    9.7950   -3.9052   23.6657 C   0  0  0  0  0  0  0  0  0  0  0  0
    7.7580   -5.1911   22.9355 C   0  0  0  0  0  0  0  0  0  0  0  0
    7.4286   -3.0518   24.1420 C   0  0  0  0  0  0  0  0  0  0  0  0
    8.9133   -2.6821   23.9680 C   0  0  2  0  0  0  0  0  0  0  0  0
    4.6390   -3.0833   23.1536 C   0  0  0  0  0  0  0  0  0  0  0  0
    6.1844   -1.5671   18.3677 N   0  0  0  0  0  0  0  0  0  0  0  0
    9.4520    0.4542   21.1519 N   0  0  0  0  0  0  0  0  0  0  0  0
    8.2922   -1.5031   21.9458 N   0  0  0  0  0  0  0  0  0  0  0  0
    6.9377   -3.9951   23.1283 N   0  0  0  0  0  0  0  0  0  0  0  0
    5.4691   -4.4067   21.3729 O   0  0  0  0  0  0  0  0  0  0  0  0
    4.3110   -3.8831   24.6868 Cl  0  0  0  0  0  0  0  0  0  0  0  0
   12.7483    0.2434   25.2382 H   0  0  0  0  0  0  0  0  0  0  0  0
   12.9712    2.0316   23.5343 H   0  0  0  0  0  0  0  0  0  0  0  0
    6.1542    1.7778   17.8147 H   0  0  0  0  0  0  0  0  0  0  0  0
   10.9787   -1.4455   25.0232 H   0  0  0  0  0  0  0  0  0  0  0  0
    7.7054    1.7259   19.7517 H   0  0  0  0  0  0  0  0  0  0  0  0
   11.4247    2.1274   21.6223 H   0  0  0  0  0  0  0  0  0  0  0  0
    5.2178   -0.3848   16.9813 H   0  0  0  0  0  0  0  0  0  0  0  0
    7.2379   -2.5501   19.8326 H   0  0  0  0  0  0  0  0  0  0  0  0
    9.2469   -4.3455   21.6262 H   0  0  0  0  0  0  0  0  0  0  0  0
    9.8028   -5.7478   22.5392 H   0  0  0  0  0  0  0  0  0  0  0  0
    9.9785   -4.4798   24.5962 H   0  0  0  0  0  0  0  0  0  0  0  0
   10.7995   -3.5726   23.3305 H   0  0  0  0  0  0  0  0  0  0  0  0
    7.3082   -5.7669   22.1134 H   0  0  0  0  0  0  0  0  0  0  0  0
    7.7289   -5.8319   23.8266 H   0  0  0  0  0  0  0  0  0  0  0  0
    7.2614   -3.4351   25.1663 H   0  0  0  0  0  0  0  0  0  0  0  0
    6.7895   -2.1466   24.0693 H   0  0  0  0  0  0  0  0  0  0  0  0
    9.2681   -2.2645   24.9770 H   0  0  0  0  0  0  0  0  0  0  0  0
    3.7483   -3.0842   22.5355 H   0  0  0  0  0  0  0  0  0  0  0  0
    5.0110   -2.0803   23.3290 H   0  0  0  0  0  0  0  0  0  0  0  0
  1  2  1  0  0  0  0
  1  4  2  0  0  0  0
  2  6  2  0  0  0  0
  3  5  2  0  0  0  0
  3  7  1  0  0  0  0
  4  9  1  0  0  0  0
  5 10  1  0  0  0  0
  6 11  1  0  0  0  0
  7 21  2  0  0  0  0
  8 10  2  0  0  0  0
  8 21  1  0  0  0  0
  9 11  1  0  0  0  0
  9 12  2  0  0  0  0
 10 13  1  0  0  0  0
 11 22  2  0  0  0  0
 12 19  1  0  0  0  0
 12 23  1  0  0  0  0
 13 22  1  0  0  0  0
 13 23  2  0  0  0  0
 14 20  1  0  0  0  0
 14 24  1  0  0  0  0
 14 25  2  0  0  0  0
 15 16  1  0  0  0  0
 15 17  1  0  0  0  0
 16 19  1  0  0  0  0
 17 24  1  0  0  0  0
 18 19  1  0  0  0  0
 18 24  1  0  0  0  0
 20 26  1  0  0  0  0
  1 27  1  0  0  0  0
  2 28  1  0  0  0  0
  3 29  1  0  0  0  0
  4 30  1  0  0  0  0
  5 31  1  0  0  0  0
  6 32  1  0  0  0  0
  7 33  1  0  0  0  0
  8 34  1  0  0  0  0
 15 35  1  0  0  0  0
 15 36  1  0  0  0  0
 16 37  1  0  0  0  0
 16 38  1  0  0  0  0
 17 39  1  0  0  0  0
 17 40  1  0  0  0  0
 18 41  1  0  0  0  0
 18 42  1  0  0  0  0
 19 43  1  0  0  0  0
 20 44  1  0  0  0  0
 20 45  1  0  0  0  0
M  END
> <Chemgauss4>
-7.622127

> <ref_pdb>
x1418_0

> <CYS145-warhead min dist (A)>
5.9874506

> <CYS145-warhead avg dist (A)>
6.964796

> <CYS145-warhead avg dist stderr (A)>
0.034633875

> <original SMILES>
c1ccc2c(c1)c(nc(n2)c3cccnc3)[C@@H]4CCCN(C4)C(=O)CCl

$$$$
TAM-UNI-d1c-12
  -OEChem-04232002263D

 55 57  0     0  0  0  0  0  0999 V2000
   13.2836    0.1815   22.5673 C   0  0  0  0  0  0  0  0  0  0  0  0
   12.9129    0.9480   23.6721 C   0  0  0  0  0  0  0  0  0  0  0  0
   12.5058   -0.9110   22.1837 C   0  0  0  0  0  0  0  0  0  0  0  0
   10.9867   -0.4707   24.0100 C   0  0  0  0  0  0  0  0  0  0  0  0
   11.7645    0.6219   24.3935 C   0  0  0  0  0  0  0  0  0  0  0  0
   11.3574   -1.2371   22.9051 C   0  0  0  0  0  0  0  0  0  0  0  0
    5.9322   -1.9167   19.4290 C   0  0  0  0  0  0  0  0  0  0  0  0
   10.4297    3.6073   24.8029 C   0  0  0  0  0  0  0  0  0  0  0  0
    6.8379   -2.8086   21.5516 C   0  0  0  0  0  0  0  0  0  0  0  0
    7.6129   -0.5922   20.8034 C   0  0  0  0  0  0  0  0  0  0  0  0
    9.3438    5.7091   24.0756 C   0  0  0  0  0  0  0  0  0  0  0  0
    7.8888    3.9163   24.9406 C   0  0  0  0  0  0  0  0  0  0  0  0
    8.2730   -3.2496   21.7995 C   0  0  0  0  0  0  0  0  0  0  0  0
    9.0607   -0.9994   21.0420 C   0  0  0  0  0  0  0  0  0  0  0  0
    8.2993    5.9693   23.0016 C   0  0  0  0  0  0  0  0  0  0  0  0
    6.8984    4.2771   23.8386 C   0  0  0  0  0  0  0  0  0  0  0  0
   11.3681    1.4428   25.5739 C   0  0  0  0  0  0  0  0  0  0  0  0
   10.5212   -2.4126   22.4928 C   0  0  0  0  0  0  0  0  0  0  0  0
    5.9327   -0.7980   18.4179 C   0  0  0  0  0  0  0  0  0  0  0  0
    6.7778   -1.7660   20.5272 N   0  0  0  0  0  0  0  0  0  0  0  0
    9.2499    4.3365   24.5781 N   0  0  0  0  0  0  0  0  0  0  0  0
   10.2524    2.3162   25.2862 N   0  0  0  0  0  0  0  0  0  0  0  0
    9.1092   -2.0366   22.1415 N   0  3  0  0  0  0  0  0  0  0  0  0
    5.2037   -2.8952   19.2452 O   0  0  0  0  0  0  0  0  0  0  0  0
   11.5544    4.0741   24.5945 O   0  0  0  0  0  0  0  0  0  0  0  0
    6.9970    5.6614   23.5022 O   0  0  0  0  0  0  0  0  0  0  0  0
    4.6694    0.3250   18.9087 Cl  0  0  0  0  0  0  0  0  0  0  0  0
   14.1779    0.4356   22.0055 H   0  0  0  0  0  0  0  0  0  0  0  0
   13.5249    1.7978   23.9632 H   0  0  0  0  0  0  0  0  0  0  0  0
   12.8026   -1.5030   21.3220 H   0  0  0  0  0  0  0  0  0  0  0  0
   10.0907   -0.7248   24.5714 H   0  0  0  0  0  0  0  0  0  0  0  0
    6.2347   -3.6743   21.2604 H   0  0  0  0  0  0  0  0  0  0  0  0
    6.3946   -2.3971   22.4666 H   0  0  0  0  0  0  0  0  0  0  0  0
    7.1992   -0.1006   21.6922 H   0  0  0  0  0  0  0  0  0  0  0  0
    7.5757    0.1347   19.9902 H   0  0  0  0  0  0  0  0  0  0  0  0
   10.3455    5.9248   23.6924 H   0  0  0  0  0  0  0  0  0  0  0  0
    9.1663    6.3629   24.9379 H   0  0  0  0  0  0  0  0  0  0  0  0
    7.6382    4.4480   25.8657 H   0  0  0  0  0  0  0  0  0  0  0  0
    7.8240    2.8439   25.1294 H   0  0  0  0  0  0  0  0  0  0  0  0
    8.3254   -3.9333   22.6530 H   0  0  0  0  0  0  0  0  0  0  0  0
    8.7152   -3.7255   20.9170 H   0  0  0  0  0  0  0  0  0  0  0  0
    9.5170   -1.4363   20.1466 H   0  0  0  0  0  0  0  0  0  0  0  0
    9.6527   -0.1415   21.3767 H   0  0  0  0  0  0  0  0  0  0  0  0
    8.3062    7.0282   22.7243 H   0  0  0  0  0  0  0  0  0  0  0  0
    8.4972    5.3863   22.0944 H   0  0  0  0  0  0  0  0  0  0  0  0
    7.0595    3.6676   22.9412 H   0  0  0  0  0  0  0  0  0  0  0  0
    5.8763    4.0917   24.1841 H   0  0  0  0  0  0  0  0  0  0  0  0
   11.0780    0.8049   26.4205 H   0  0  0  0  0  0  0  0  0  0  0  0
   12.1969    2.0743   25.9222 H   0  0  0  0  0  0  0  0  0  0  0  0
   10.9428   -2.9091   21.6122 H   0  0  0  0  0  0  0  0  0  0  0  0
   10.4586   -3.1546   23.2962 H   0  0  0  0  0  0  0  0  0  0  0  0
    5.7069   -1.2080   17.4401 H   0  0  0  0  0  0  0  0  0  0  0  0
    6.8979   -0.3053   18.4395 H   0  0  0  0  0  0  0  0  0  0  0  0
    9.3129    1.9733   25.4429 H   0  0  0  0  0  0  0  0  0  0  0  0
    8.7016   -1.6094   22.9848 H   0  0  0  0  0  0  0  0  0  0  0  0
  1  2  1  0  0  0  0
  1  3  2  0  0  0  0
  2  5  2  0  0  0  0
  3  6  1  0  0  0  0
  4  5  1  0  0  0  0
  4  6  2  0  0  0  0
  5 17  1  0  0  0  0
  6 18  1  0  0  0  0
  7 19  1  0  0  0  0
  7 20  1  0  0  0  0
  7 24  2  0  0  0  0
  8 21  1  0  0  0  0
  8 22  1  0  0  0  0
  8 25  2  0  0  0  0
  9 13  1  0  0  0  0
  9 20  1  0  0  0  0
 10 14  1  0  0  0  0
 10 20  1  0  0  0  0
 11 15  1  0  0  0  0
 11 21  1  0  0  0  0
 12 16  1  0  0  0  0
 12 21  1  0  0  0  0
 13 23  1  0  0  0  0
 14 23  1  0  0  0  0
 15 26  1  0  0  0  0
 16 26  1  0  0  0  0
 17 22  1  0  0  0  0
 18 23  1  0  0  0  0
 19 27  1  0  0  0  0
  1 28  1  0  0  0  0
  2 29  1  0  0  0  0
  3 30  1  0  0  0  0
  4 31  1  0  0  0  0
  9 32  1  0  0  0  0
  9 33  1  0  0  0  0
 10 34  1  0  0  0  0
 10 35  1  0  0  0  0
 11 36  1  0  0  0  0
 11 37  1  0  0  0  0
 12 38  1  0  0  0  0
 12 39  1  0  0  0  0
 13 40  1  0  0  0  0
 13 41  1  0  0  0  0
 14 42  1  0  0  0  0
 14 43  1  0  0  0  0
 15 44  1  0  0  0  0
 15 45  1  0  0  0  0
 16 46  1  0  0  0  0
 16 47  1  0  0  0  0
 17 48  1  0  0  0  0
 17 49  1  0  0  0  0
 18 50  1  0  0  0  0
 18 51  1  0  0  0  0
 19 52  1  0  0  0  0
 19 53  1  0  0  0  0
 22 54  1  0  0  0  0
 23 55  1  0  0  0  0
M  CHG  1  23   1
M  END
> <Chemgauss4>
-7.617505

> <ref_pdb>
x0830_0

> <CYS145-warhead min dist (A)>
4.0621796

> <CYS145-warhead avg dist (A)>
4.4978757

> <CYS145-warhead avg dist stderr (A)>
0.052075177

> <original SMILES>
c1cc(cc(c1)C[NH+]2CCN(CC2)C(=O)CCl)CNC(=O)N3CCOCC3

$$$$
WAR-XCH-79d-6
  -OEChem-04232002263D

 40 41  0     0  0  0  0  0  0999 V2000
   13.5829    0.2935   24.6034 C   0  0  0  0  0  0  0  0  0  0  0  0
   13.7891   -1.0233   25.0146 C   0  0  0  0  0  0  0  0  0  0  0  0
   11.2094   -0.1281   24.4427 C   0  0  0  0  0  0  0  0  0  0  0  0
   12.2931    0.7411   24.3175 C   0  0  0  0  0  0  0  0  0  0  0  0
   12.7054   -1.8925   25.1399 C   0  0  0  0  0  0  0  0  0  0  0  0
   11.4156   -1.4450   24.8539 C   0  0  0  0  0  0  0  0  0  0  0  0
    6.6186   -4.8715   21.5798 C   0  0  0  0  0  0  0  0  0  0  0  0
    7.6979   -2.8538   22.5217 C   0  0  0  0  0  0  0  0  0  0  0  0
    8.3740   -5.0582   23.4113 C   0  0  0  0  0  0  0  0  0  0  0  0
    9.1622   -2.4476   22.4105 C   0  0  0  0  0  0  0  0  0  0  0  0
    9.8393   -4.6495   23.3039 C   0  0  0  0  0  0  0  0  0  0  0  0
   12.0732    2.1496   23.8791 C   0  0  0  0  0  0  0  0  0  0  0  0
   12.9606   -3.2963   25.5824 C   0  0  0  0  0  0  0  0  0  0  0  0
    6.5303   -6.3768   21.5639 C   0  0  0  0  0  0  0  0  0  0  0  0
    7.5507   -4.3100   22.4517 N   0  0  0  0  0  0  0  0  0  0  0  0
    9.9784   -3.1705   23.4269 N   0  0  0  0  0  0  0  0  0  0  0  0
    5.8829   -4.2164   20.8373 O   0  0  0  0  0  0  0  0  0  0  0  0
   10.3682   -3.5662   25.9388 O   0  0  0  0  0  0  0  0  0  0  0  0
    8.8468   -1.6971   25.2040 O   0  0  0  0  0  0  0  0  0  0  0  0
   10.0217   -2.5177   25.0037 S   0  0  0  0  0  0  0  0  0  0  0  0
    7.6435   -6.9336   20.3195 Cl  0  0  0  0  0  0  0  0  0  0  0  0
   14.4332    0.9639   24.5097 H   0  0  0  0  0  0  0  0  0  0  0  0
   14.7979   -1.3608   25.2371 H   0  0  0  0  0  0  0  0  0  0  0  0
   10.2051    0.2240   24.2192 H   0  0  0  0  0  0  0  0  0  0  0  0
    7.2867   -2.5398   23.4905 H   0  0  0  0  0  0  0  0  0  0  0  0
    7.1197   -2.3448   21.7463 H   0  0  0  0  0  0  0  0  0  0  0  0
    8.2744   -6.1356   23.2523 H   0  0  0  0  0  0  0  0  0  0  0  0
    7.9835   -4.8323   24.4103 H   0  0  0  0  0  0  0  0  0  0  0  0
    9.5485   -2.6607   21.4025 H   0  0  0  0  0  0  0  0  0  0  0  0
    9.2453   -1.3650   22.5827 H   0  0  0  0  0  0  0  0  0  0  0  0
   10.4040   -5.1362   24.1131 H   0  0  0  0  0  0  0  0  0  0  0  0
   10.2665   -4.9857   22.3461 H   0  0  0  0  0  0  0  0  0  0  0  0
   12.1347    2.2236   22.7865 H   0  0  0  0  0  0  0  0  0  0  0  0
   11.0891    2.5171   24.1979 H   0  0  0  0  0  0  0  0  0  0  0  0
   12.8209    2.8242   24.3162 H   0  0  0  0  0  0  0  0  0  0  0  0
   12.9080   -3.3653   26.6750 H   0  0  0  0  0  0  0  0  0  0  0  0
   12.2250   -3.9870   25.1524 H   0  0  0  0  0  0  0  0  0  0  0  0
   13.9502   -3.6403   25.2573 H   0  0  0  0  0  0  0  0  0  0  0  0
    5.5164   -6.6668   21.3130 H   0  0  0  0  0  0  0  0  0  0  0  0
    6.8342   -6.7569   22.5325 H   0  0  0  0  0  0  0  0  0  0  0  0
  1  2  2  0  0  0  0
  1  4  1  0  0  0  0
  2  5  1  0  0  0  0
  3  4  2  0  0  0  0
  3  6  1  0  0  0  0
  4 12  1  0  0  0  0
  5  6  2  0  0  0  0
  5 13  1  0  0  0  0
  6 20  1  0  0  0  0
  7 14  1  0  0  0  0
  7 15  1  0  0  0  0
  7 17  2  0  0  0  0
  8 10  1  0  0  0  0
  8 15  1  0  0  0  0
  9 11  1  0  0  0  0
  9 15  1  0  0  0  0
 10 16  1  0  0  0  0
 11 16  1  0  0  0  0
 14 21  1  0  0  0  0
 16 20  1  0  0  0  0
 18 20  2  0  0  0  0
 19 20  2  0  0  0  0
  1 22  1  0  0  0  0
  2 23  1  0  0  0  0
  3 24  1  0  0  0  0
  8 25  1  0  0  0  0
  8 26  1  0  0  0  0
  9 27  1  0  0  0  0
  9 28  1  0  0  0  0
 10 29  1  0  0  0  0
 10 30  1  0  0  0  0
 11 31  1  0  0  0  0
 11 32  1  0  0  0  0
 12 33  1  0  0  0  0
 12 34  1  0  0  0  0
 12 35  1  0  0  0  0
 13 36  1  0  0  0  0
 13 37  1  0  0  0  0
 13 38  1  0  0  0  0
 14 39  1  0  0  0  0
 14 40  1  0  0  0  0
M  END
> <Chemgauss4>
-7.581188

> <ref_pdb>
x0749_0

> <CYS145-warhead min dist (A)>
6.288658

> <CYS145-warhead avg dist (A)>
7.0999274

> <CYS145-warhead avg dist stderr (A)>
0.05627851

> <original SMILES>
Cc1ccc(c(c1)S(=O)(=O)N2CCN(CC2)C(=O)CCl)C

$$$$
JOH-UNI-27a-28_thio_pH
  -OEChem-04232002263D

 38 39  0     1  0  0  0  0  0999 V2000
   12.6761   -0.5757   25.8249 C   0  0  0  0  0  0  0  0  0  0  0  0
   11.7070   -1.5782   25.8632 C   0  0  0  0  0  0  0  0  0  0  0  0
   13.8397   -0.7587   25.0777 C   0  0  0  0  0  0  0  0  0  0  0  0
   13.0651   -2.9467   24.4072 C   0  0  0  0  0  0  0  0  0  0  0  0
   11.9014   -2.7637   25.1543 C   0  0  0  0  0  0  0  0  0  0  0  0
   14.0342   -1.9442   24.3689 C   0  0  0  0  0  0  0  0  0  0  0  0
    6.5181   -4.5477   21.6739 C   0  0  0  0  0  0  0  0  0  0  0  0
    8.7299   -5.3526   22.4121 C   0  0  0  0  0  0  0  0  0  0  0  0
    9.4270   -5.2921   23.7607 C   0  0  0  0  0  0  0  0  0  0  0  0
    9.0060   -2.8443   23.8588 C   0  0  0  0  0  0  0  0  0  0  0  0
    8.2693   -2.8996   22.5164 C   0  0  1  0  0  0  0  0  0  0  0  0
    9.1271   -2.3859   21.3556 C   0  0  0  0  0  0  0  0  0  0  0  0
   10.8591   -3.8420   25.1970 C   0  0  0  0  0  0  0  0  0  0  0  0
    5.9700   -5.9340   21.9053 C   0  0  0  0  0  0  0  0  0  0  0  0
    7.7663   -4.2619   22.2363 N   0  0  0  0  0  0  0  0  0  0  0  0
   10.0506   -3.9300   23.9327 N   0  3  1  0  0  0  0  0  0  0  0  0
    5.8605   -3.7462   21.0049 O   0  0  0  0  0  0  0  0  0  0  0  0
   15.4705   -2.1699   23.4481 Cl  0  0  0  0  0  0  0  0  0  0  0  0
    5.8537   -6.1444   23.6487 Cl  0  0  0  0  0  0  0  0  0  0  0  0
   12.5243    0.3472   26.3771 H   0  0  0  0  0  0  0  0  0  0  0  0
   10.8034   -1.4270   26.4481 H   0  0  0  0  0  0  0  0  0  0  0  0
   14.5866    0.0311   25.0572 H   0  0  0  0  0  0  0  0  0  0  0  0
   13.2117   -3.8726   23.8558 H   0  0  0  0  0  0  0  0  0  0  0  0
    9.4582   -5.2856   21.5953 H   0  0  0  0  0  0  0  0  0  0  0  0
    8.2316   -6.3223   22.3097 H   0  0  0  0  0  0  0  0  0  0  0  0
    8.7304   -5.4537   24.5911 H   0  0  0  0  0  0  0  0  0  0  0  0
   10.2337   -6.0308   23.8104 H   0  0  0  0  0  0  0  0  0  0  0  0
    9.5196   -1.8854   23.9893 H   0  0  0  0  0  0  0  0  0  0  0  0
    8.3150   -2.9964   24.6964 H   0  0  0  0  0  0  0  0  0  0  0  0
    7.4204   -2.2156   22.6046 H   0  0  0  0  0  0  0  0  0  0  0  0
    9.9896   -3.0347   21.2249 H   0  0  0  0  0  0  0  0  0  0  0  0
    9.4656   -1.3757   21.5720 H   0  0  0  0  0  0  0  0  0  0  0  0
    8.5381   -2.3808   20.4418 H   0  0  0  0  0  0  0  0  0  0  0  0
   11.3142   -4.8267   25.3485 H   0  0  0  0  0  0  0  0  0  0  0  0
   10.1488   -3.6734   26.0136 H   0  0  0  0  0  0  0  0  0  0  0  0
    6.6599   -6.6583   21.4879 H   0  0  0  0  0  0  0  0  0  0  0  0
    4.9865   -6.0019   21.4553 H   0  0  0  0  0  0  0  0  0  0  0  0
   10.7114   -3.7885   23.1571 H   0  0  0  0  0  0  0  0  0  0  0  0
  1  2  2  0  0  0  0
  1  3  1  0  0  0  0
  2  5  1  0  0  0  0
  3  6  2  0  0  0  0
  4  5  2  0  0  0  0
  4  6  1  0  0  0  0
  5 13  1  0  0  0  0
  6 18  1  0  0  0  0
  7 14  1  0  0  0  0
  7 15  1  0  0  0  0
  7 17  2  0  0  0  0
  8  9  1  0  0  0  0
  8 15  1  0  0  0  0
  9 16  1  0  0  0  0
 10 11  1  0  0  0  0
 10 16  1  0  0  0  0
 11 12  1  0  0  0  0
 11 15  1  0  0  0  0
 13 16  1  0  0  0  0
 14 19  1  0  0  0  0
  1 20  1  0  0  0  0
  2 21  1  0  0  0  0
  3 22  1  0  0  0  0
  4 23  1  0  0  0  0
  8 24  1  0  0  0  0
  8 25  1  0  0  0  0
  9 26  1  0  0  0  0
  9 27  1  0  0  0  0
 10 28  1  0  0  0  0
 10 29  1  0  0  0  0
 11 30  1  0  0  0  0
 12 31  1  0  0  0  0
 12 32  1  0  0  0  0
 12 33  1  0  0  0  0
 13 34  1  0  0  0  0
 13 35  1  0  0  0  0
 14 36  1  0  0  0  0
 14 37  1  0  0  0  0
 16 38  1  0  0  0  0
M  CHG  1  16   1
M  END
> <Chemgauss4>
-7.579130

> <ref_pdb>
x0749_0

> <CYS145-warhead min dist (A)>
7.365264

> <CYS145-warhead avg dist (A)>
8.987684

> <CYS145-warhead avg dist stderr (A)>
0.11234547

> <original SMILES>
C[C@@H]1C[N@H+](CCN1C(=O)CCl)Cc2cccc(c2)Cl

$$$$
JOH-UNI-27a-29_thio_pH
  -OEChem-04232002263D

 38 39  0     1  0  0  0  0  0999 V2000
   12.6761   -0.5757   25.8249 C   0  0  0  0  0  0  0  0  0  0  0  0
   11.7070   -1.5782   25.8632 C   0  0  0  0  0  0  0  0  0  0  0  0
   13.8397   -0.7587   25.0777 C   0  0  0  0  0  0  0  0  0  0  0  0
   13.0651   -2.9467   24.4072 C   0  0  0  0  0  0  0  0  0  0  0  0
   11.9014   -2.7637   25.1543 C   0  0  0  0  0  0  0  0  0  0  0  0
   14.0342   -1.9442   24.3689 C   0  0  0  0  0  0  0  0  0  0  0  0
    6.5181   -4.5477   21.6739 C   0  0  0  0  0  0  0  0  0  0  0  0
    8.7299   -5.3526   22.4121 C   0  0  0  0  0  0  0  0  0  0  0  0
    9.4270   -5.2921   23.7607 C   0  0  0  0  0  0  0  0  0  0  0  0
    9.0060   -2.8443   23.8588 C   0  0  0  0  0  0  0  0  0  0  0  0
    8.2693   -2.8996   22.5164 C   0  0  1  0  0  0  0  0  0  0  0  0
    9.1271   -2.3859   21.3556 C   0  0  0  0  0  0  0  0  0  0  0  0
   10.8591   -3.8420   25.1970 C   0  0  0  0  0  0  0  0  0  0  0  0
    5.9700   -5.9340   21.9053 C   0  0  0  0  0  0  0  0  0  0  0  0
    7.7663   -4.2619   22.2363 N   0  0  0  0  0  0  0  0  0  0  0  0
   10.0506   -3.9300   23.9327 N   0  3  1  0  0  0  0  0  0  0  0  0
    5.8605   -3.7462   21.0049 O   0  0  0  0  0  0  0  0  0  0  0  0
   15.4705   -2.1699   23.4481 Cl  0  0  0  0  0  0  0  0  0  0  0  0
    5.8537   -6.1444   23.6487 Cl  0  0  0  0  0  0  0  0  0  0  0  0
   12.5243    0.3472   26.3771 H   0  0  0  0  0  0  0  0  0  0  0  0
   10.8034   -1.4270   26.4481 H   0  0  0  0  0  0  0  0  0  0  0  0
   14.5866    0.0311   25.0572 H   0  0  0  0  0  0  0  0  0  0  0  0
   13.2117   -3.8726   23.8558 H   0  0  0  0  0  0  0  0  0  0  0  0
    9.4582   -5.2856   21.5953 H   0  0  0  0  0  0  0  0  0  0  0  0
    8.2316   -6.3223   22.3097 H   0  0  0  0  0  0  0  0  0  0  0  0
    8.7304   -5.4537   24.5911 H   0  0  0  0  0  0  0  0  0  0  0  0
   10.2337   -6.0308   23.8104 H   0  0  0  0  0  0  0  0  0  0  0  0
    9.5196   -1.8854   23.9893 H   0  0  0  0  0  0  0  0  0  0  0  0
    8.3150   -2.9964   24.6964 H   0  0  0  0  0  0  0  0  0  0  0  0
    7.4204   -2.2156   22.6046 H   0  0  0  0  0  0  0  0  0  0  0  0
    9.9896   -3.0347   21.2249 H   0  0  0  0  0  0  0  0  0  0  0  0
    9.4656   -1.3757   21.5720 H   0  0  0  0  0  0  0  0  0  0  0  0
    8.5381   -2.3808   20.4418 H   0  0  0  0  0  0  0  0  0  0  0  0
   11.3142   -4.8267   25.3485 H   0  0  0  0  0  0  0  0  0  0  0  0
   10.1488   -3.6734   26.0136 H   0  0  0  0  0  0  0  0  0  0  0  0
    6.6599   -6.6583   21.4879 H   0  0  0  0  0  0  0  0  0  0  0  0
    4.9865   -6.0019   21.4553 H   0  0  0  0  0  0  0  0  0  0  0  0
   10.7114   -3.7885   23.1571 H   0  0  0  0  0  0  0  0  0  0  0  0
  1  2  2  0  0  0  0
  1  3  1  0  0  0  0
  2  5  1  0  0  0  0
  3  6  2  0  0  0  0
  4  5  2  0  0  0  0
  4  6  1  0  0  0  0
  5 13  1  0  0  0  0
  6 18  1  0  0  0  0
  7 14  1  0  0  0  0
  7 15  1  0  0  0  0
  7 17  2  0  0  0  0
  8  9  1  0  0  0  0
  8 15  1  0  0  0  0
  9 16  1  0  0  0  0
 10 11  1  0  0  0  0
 10 16  1  0  0  0  0
 11 12  1  0  0  0  0
 11 15  1  0  0  0  0
 13 16  1  0  0  0  0
 14 19  1  0  0  0  0
  1 20  1  0  0  0  0
  2 21  1  0  0  0  0
  3 22  1  0  0  0  0
  4 23  1  0  0  0  0
  8 24  1  0  0  0  0
  8 25  1  0  0  0  0
  9 26  1  0  0  0  0
  9 27  1  0  0  0  0
 10 28  1  0  0  0  0
 10 29  1  0  0  0  0
 11 30  1  0  0  0  0
 12 31  1  0  0  0  0
 12 32  1  0  0  0  0
 12 33  1  0  0  0  0
 13 34  1  0  0  0  0
 13 35  1  0  0  0  0
 14 36  1  0  0  0  0
 14 37  1  0  0  0  0
 16 38  1  0  0  0  0
M  CHG  1  16   1
M  END
> <Chemgauss4>
-7.579130

> <ref_pdb>
x0749_0

> <CYS145-warhead min dist (A)>
5.3142

> <CYS145-warhead avg dist (A)>
6.320563

> <CYS145-warhead avg dist stderr (A)>
0.041064654

> <original SMILES>
C[C@@H]1C[N@H+](CCN1C(=O)CCl)Cc2cccc(c2)Cl

$$$$
SEA-TRI-825-1_thio_pH
  -OEChem-04232002263D

 49 51  0     1  0  0  0  0  0999 V2000
   11.7491   -0.6587   26.3686 C   0  0  0  0  0  0  0  0  0  0  0  0
   10.9939   -0.8460   25.2110 C   0  0  0  0  0  0  0  0  0  0  0  0
    7.9940   -0.7056   20.3556 C   0  0  0  0  0  0  0  0  0  0  0  0
    5.9018   -1.8277   19.9080 C   0  0  0  0  0  0  0  0  0  0  0  0
    7.8152    0.0817   19.2182 C   0  0  0  0  0  0  0  0  0  0  0  0
    5.7229   -1.0403   18.7706 C   0  0  0  0  0  0  0  0  0  0  0  0
   12.9506   -1.3471   26.5366 C   0  0  0  0  0  0  0  0  0  0  0  0
   12.6416   -2.4104   24.3893 C   0  0  0  0  0  0  0  0  0  0  0  0
    7.0374   -1.6604   20.7005 C   0  0  0  0  0  0  0  0  0  0  0  0
   11.4401   -1.7219   24.2213 C   0  0  0  0  0  0  0  0  0  0  0  0
    6.6796   -0.0856   18.4257 C   0  0  0  0  0  0  0  0  0  0  0  0
   13.3968   -2.2229   25.5470 C   0  0  0  0  0  0  0  0  0  0  0  0
    6.5132   -5.6181   22.4024 C   0  0  0  0  0  0  0  0  0  0  0  0
    8.6620   -5.1191   23.6316 C   0  0  0  0  0  0  0  0  0  0  0  0
    9.4711   -3.8881   23.9934 C   0  0  0  0  0  0  0  0  0  0  0  0
    9.4969   -3.5868   21.4620 C   0  0  0  0  0  0  0  0  0  0  0  0
    7.9897   -3.7985   21.6054 C   0  0  2  0  0  0  0  0  0  0  0  0
    7.2297   -2.5087   21.9267 C   0  0  0  0  0  0  0  0  0  0  0  0
   10.6267   -1.9239   22.9769 C   0  0  0  0  0  0  0  0  0  0  0  0
    6.2966   -6.7495   23.3771 C   0  0  0  0  0  0  0  0  0  0  0  0
    7.6770   -4.8609   22.5756 N   0  0  0  0  0  0  0  0  0  0  0  0
   10.1903   -3.3505   22.7830 N   0  3  1  0  0  0  0  0  0  0  0  0
    5.6782   -5.4105   21.5186 O   0  0  0  0  0  0  0  0  0  0  0  0
    6.5046    0.6837   17.3166 O   0  0  0  0  0  0  0  0  0  0  0  0
   14.8787   -3.0729   25.7553 Cl  0  0  0  0  0  0  0  0  0  0  0  0
    5.4226   -6.0739   24.7475 Cl  0  0  0  0  0  0  0  0  0  0  0  0
   11.4012    0.0234   27.1391 H   0  0  0  0  0  0  0  0  0  0  0  0
   10.0589   -0.3055   25.0885 H   0  0  0  0  0  0  0  0  0  0  0  0
    8.8818   -0.5685   20.9672 H   0  0  0  0  0  0  0  0  0  0  0  0
    5.1512   -2.5693   20.1690 H   0  0  0  0  0  0  0  0  0  0  0  0
    8.5639    0.8241   18.9549 H   0  0  0  0  0  0  0  0  0  0  0  0
    4.8361   -1.1753   18.1576 H   0  0  0  0  0  0  0  0  0  0  0  0
   13.5287   -1.1914   27.4442 H   0  0  0  0  0  0  0  0  0  0  0  0
   12.9855   -3.0918   23.6145 H   0  0  0  0  0  0  0  0  0  0  0  0
    9.3391   -5.9421   23.3735 H   0  0  0  0  0  0  0  0  0  0  0  0
    8.0917   -5.4674   24.5076 H   0  0  0  0  0  0  0  0  0  0  0  0
    8.8189   -3.0994   24.3839 H   0  0  0  0  0  0  0  0  0  0  0  0
   10.2465   -4.1195   24.7311 H   0  0  0  0  0  0  0  0  0  0  0  0
    9.9694   -4.4848   20.9978 H   0  0  0  0  0  0  0  0  0  0  0  0
    9.7545   -2.7203   20.8041 H   0  0  0  0  0  0  0  0  0  0  0  0
    7.6053   -4.1674   20.6255 H   0  0  0  0  0  0  0  0  0  0  0  0
    7.7764   -1.9460   22.6896 H   0  0  0  0  0  0  0  0  0  0  0  0
    6.2588   -2.7592   22.3650 H   0  0  0  0  0  0  0  0  0  0  0  0
    9.7156   -1.3162   22.9965 H   0  0  0  0  0  0  0  0  0  0  0  0
   11.1950   -1.6445   22.0832 H   0  0  0  0  0  0  0  0  0  0  0  0
    7.2609   -7.1255   23.6997 H   0  0  0  0  0  0  0  0  0  0  0  0
    5.7005   -7.5176   22.8976 H   0  0  0  0  0  0  0  0  0  0  0  0
   11.0950   -3.8933   22.7250 H   0  0  0  0  0  0  0  0  0  0  0  0
    5.6732    0.4507   16.8735 H   0  0  0  0  0  0  0  0  0  0  0  0
  1  2  2  0  0  0  0
  1  7  1  0  0  0  0
  2 10  1  0  0  0  0
  3  5  2  0  0  0  0
  3  9  1  0  0  0  0
  4  6  1  0  0  0  0
  4  9  2  0  0  0  0
  5 11  1  0  0  0  0
  6 11  2  0  0  0  0
  7 12  2  0  0  0  0
  8 10  2  0  0  0  0
  8 12  1  0  0  0  0
  9 18  1  0  0  0  0
 10 19  1  0  0  0  0
 11 24  1  0  0  0  0
 12 25  1  0  0  0  0
 13 20  1  0  0  0  0
 13 21  1  0  0  0  0
 13 23  2  0  0  0  0
 14 15  1  0  0  0  0
 14 21  1  0  0  0  0
 15 22  1  0  0  0  0
 16 17  1  0  0  0  0
 16 22  1  0  0  0  0
 17 18  1  0  0  0  0
 17 21  1  0  0  0  0
 19 22  1  0  0  0  0
 20 26  1  0  0  0  0
  1 27  1  0  0  0  0
  2 28  1  0  0  0  0
  3 29  1  0  0  0  0
  4 30  1  0  0  0  0
  5 31  1  0  0  0  0
  6 32  1  0  0  0  0
  7 33  1  0  0  0  0
  8 34  1  0  0  0  0
 14 35  1  0  0  0  0
 14 36  1  0  0  0  0
 15 37  1  0  0  0  0
 15 38  1  0  0  0  0
 16 39  1  0  0  0  0
 16 40  1  0  0  0  0
 17 41  1  0  0  0  0
 18 42  1  0  0  0  0
 18 43  1  0  0  0  0
 19 44  1  0  0  0  0
 19 45  1  0  0  0  0
 20 46  1  0  0  0  0
 20 47  1  0  0  0  0
 22 48  1  0  0  0  0
 24 49  1  0  0  0  0
M  CHG  1  22   1
M  END
> <Chemgauss4>
-7.567363

> <ref_pdb>
x0749_0

> <CYS145-warhead min dist (A)>
3.2349167

> <CYS145-warhead avg dist (A)>
4.5694523

> <CYS145-warhead avg dist stderr (A)>
0.025730764

> <original SMILES>
c1cc(cc(c1)Cl)C[N@H+]2CCN([C@H](C2)Cc3ccc(cc3)O)C(=O)CCl

$$$$
DUN-NEW-f8c-24
  -OEChem-04232002263D

 52 54  0     0  0  0  0  0  0999 V2000
   13.5762    0.0636   22.5030 C   0  0  0  0  0  0  0  0  0  0  0  0
   13.2580    1.0814   23.4096 C   0  0  0  0  0  0  0  0  0  0  0  0
   12.7205   -1.0206   22.3188 C   0  0  0  0  0  0  0  0  0  0  0  0
   10.2471    1.2249   25.4770 C   0  0  0  0  0  0  0  0  0  0  0  0
   12.0558    1.0000   24.1401 C   0  0  0  0  0  0  0  0  0  0  0  0
   11.5227   -1.1228   23.0321 C   0  0  0  0  0  0  0  0  0  0  0  0
   11.4307    1.8260   25.1157 C   0  0  0  0  0  0  0  0  0  0  0  0
   11.2176   -0.0980   23.9349 C   0  0  0  0  0  0  0  0  0  0  0  0
    6.2104   -2.1397   19.4653 C   0  0  0  0  0  0  0  0  0  0  0  0
    9.7539    3.9785   23.3042 C   0  0  0  0  0  0  0  0  0  0  0  0
    6.9643   -2.6532   21.7651 C   0  0  0  0  0  0  0  0  0  0  0  0
    7.9214   -0.6761   20.6480 C   0  0  0  0  0  0  0  0  0  0  0  0
    8.3540   -3.1229   22.1697 C   0  0  0  0  0  0  0  0  0  0  0  0
    9.3263   -1.1153   21.0376 C   0  0  0  0  0  0  0  0  0  0  0  0
    8.3259    4.3908   23.1664 C   0  0  0  0  0  0  0  0  0  0  0  0
   11.9506    3.1004   25.6516 C   0  0  0  0  0  0  0  0  0  0  0  0
   10.6246   -2.3037   22.8090 C   0  0  0  0  0  0  0  0  0  0  0  0
    6.3299   -1.2419   18.2598 C   0  0  0  0  0  0  0  0  0  0  0  0
   11.7911    4.2953   24.6942 C   0  0  0  0  0  0  0  0  0  0  0  0
   10.1275    0.0649   24.7597 N   0  0  0  0  0  0  0  0  0  0  0  0
    7.0187   -1.8288   20.5579 N   0  0  0  0  0  0  0  0  0  0  0  0
   10.4124    4.5563   24.3778 N   0  0  0  0  0  0  0  0  0  0  0  0
    9.2577   -1.9192   22.3168 N   0  3  0  0  0  0  0  0  0  0  0  0
    5.4238   -3.0896   19.4341 O   0  0  0  0  0  0  0  0  0  0  0  0
   10.2355    3.1901   22.4991 O   0  0  0  0  0  0  0  0  0  0  0  0
    7.6110   -1.9131   17.2568 Cl  0  0  0  0  0  0  0  0  0  0  0  0
   14.5025    0.1209   21.9373 H   0  0  0  0  0  0  0  0  0  0  0  0
   13.9362    1.9197   23.5412 H   0  0  0  0  0  0  0  0  0  0  0  0
   12.9966   -1.7959   21.6076 H   0  0  0  0  0  0  0  0  0  0  0  0
    9.4788    1.5167   26.1796 H   0  0  0  0  0  0  0  0  0  0  0  0
    6.3149   -3.5212   21.6137 H   0  0  0  0  0  0  0  0  0  0  0  0
    6.5136   -2.0453   22.5590 H   0  0  0  0  0  0  0  0  0  0  0  0
    7.5067    0.0034   21.4024 H   0  0  0  0  0  0  0  0  0  0  0  0
    7.9680   -0.1210   19.7095 H   0  0  0  0  0  0  0  0  0  0  0  0
    8.3238   -3.6289   23.1401 H   0  0  0  0  0  0  0  0  0  0  0  0
    8.7978   -3.7876   21.4200 H   0  0  0  0  0  0  0  0  0  0  0  0
    9.7875   -1.7451   20.2686 H   0  0  0  0  0  0  0  0  0  0  0  0
    9.9623   -0.2458   21.2327 H   0  0  0  0  0  0  0  0  0  0  0  0
    8.2056    5.2860   22.5353 H   0  0  0  0  0  0  0  0  0  0  0  0
    7.7078    3.6132   22.6895 H   0  0  0  0  0  0  0  0  0  0  0  0
    7.8114    4.6308   24.1107 H   0  0  0  0  0  0  0  0  0  0  0  0
   13.0273    3.0002   25.8928 H   0  0  0  0  0  0  0  0  0  0  0  0
   11.4725    3.3558   26.6188 H   0  0  0  0  0  0  0  0  0  0  0  0
   11.0464   -2.9868   22.0640 H   0  0  0  0  0  0  0  0  0  0  0  0
   10.4777   -2.8695   23.7353 H   0  0  0  0  0  0  0  0  0  0  0  0
    6.5991   -0.2448   18.5894 H   0  0  0  0  0  0  0  0  0  0  0  0
    5.3902   -1.2519   17.7197 H   0  0  0  0  0  0  0  0  0  0  0  0
   12.1915    5.2114   25.1398 H   0  0  0  0  0  0  0  0  0  0  0  0
   12.3181    4.1157   23.7513 H   0  0  0  0  0  0  0  0  0  0  0  0
    9.3505   -0.5780   24.8265 H   0  0  0  0  0  0  0  0  0  0  0  0
    9.8933    5.1992   24.9738 H   0  0  0  0  0  0  0  0  0  0  0  0
    8.8466   -1.3119   23.0392 H   0  0  0  0  0  0  0  0  0  0  0  0
  1  2  2  0  0  0  0
  1  3  1  0  0  0  0
  2  5  1  0  0  0  0
  3  6  2  0  0  0  0
  4  7  2  0  0  0  0
  4 20  1  0  0  0  0
  5  7  1  0  0  0  0
  5  8  2  0  0  0  0
  6  8  1  0  0  0  0
  6 17  1  0  0  0  0
  7 16  1  0  0  0  0
  8 20  1  0  0  0  0
  9 18  1  0  0  0  0
  9 21  1  0  0  0  0
  9 24  2  0  0  0  0
 10 15  1  0  0  0  0
 10 22  1  0  0  0  0
 10 25  2  0  0  0  0
 11 13  1  0  0  0  0
 11 21  1  0  0  0  0
 12 14  1  0  0  0  0
 12 21  1  0  0  0  0
 13 23  1  0  0  0  0
 14 23  1  0  0  0  0
 16 19  1  0  0  0  0
 17 23  1  0  0  0  0
 18 26  1  0  0  0  0
 19 22  1  0  0  0  0
  1 27  1  0  0  0  0
  2 28  1  0  0  0  0
  3 29  1  0  0  0  0
  4 30  1  0  0  0  0
 11 31  1  0  0  0  0
 11 32  1  0  0  0  0
 12 33  1  0  0  0  0
 12 34  1  0  0  0  0
 13 35  1  0  0  0  0
 13 36  1  0  0  0  0
 14 37  1  0  0  0  0
 14 38  1  0  0  0  0
 15 39  1  0  0  0  0
 15 40  1  0  0  0  0
 15 41  1  0  0  0  0
 16 42  1  0  0  0  0
 16 43  1  0  0  0  0
 17 44  1  0  0  0  0
 17 45  1  0  0  0  0
 18 46  1  0  0  0  0
 18 47  1  0  0  0  0
 19 48  1  0  0  0  0
 19 49  1  0  0  0  0
 20 50  1  0  0  0  0
 22 51  1  0  0  0  0
 23 52  1  0  0  0  0
M  CHG  1  23   1
M  END
> <Chemgauss4>
-7.561834

> <ref_pdb>
x0830_0

> <CYS145-warhead min dist (A)>
2.9480834

> <CYS145-warhead avg dist (A)>
3.3358495

> <CYS145-warhead avg dist stderr (A)>
0.0069930214

> <original SMILES>
CC(=O)NCCc1c[nH]c2c1cccc2C[NH+]3CCN(CC3)C(=O)CCl

$$$$
AGN-NEW-cce-1
  -OEChem-04232002263D

 39 40  0     0  0  0  0  0  0999 V2000
    7.4223   -7.0231   23.6296 C   0  0  0  0  0  0  0  0  0  0  0  0
   13.9213   -2.8873   26.2354 C   0  0  0  0  0  0  0  0  0  0  0  0
    7.0410   -7.0087   22.2880 C   0  0  0  0  0  0  0  0  0  0  0  0
    7.8956   -5.8577   24.2326 C   0  0  0  0  0  0  0  0  0  0  0  0
   12.6379   -3.1471   25.7675 C   0  0  0  0  0  0  0  0  0  0  0  0
   14.3744   -1.5786   26.1934 C   0  0  0  0  0  0  0  0  0  0  0  0
    7.1331   -5.8291   21.5493 C   0  0  0  0  0  0  0  0  0  0  0  0
    7.9878   -4.6781   23.4939 C   0  0  0  0  0  0  0  0  0  0  0  0
   11.8579   -2.1049   25.2789 C   0  0  0  0  0  0  0  0  0  0  0  0
    7.6065   -4.6638   22.1522 C   0  0  0  0  0  0  0  0  0  0  0  0
   12.4033   -0.8311   25.2800 C   0  0  0  0  0  0  0  0  0  0  0  0
    6.3451   -0.7645   19.4081 C   0  0  0  0  0  0  0  0  0  0  0  0
    7.1786   -1.5637   20.0815 C   0  0  0  0  0  0  0  0  0  0  0  0
    6.6691   -2.7865   20.7674 C   0  0  0  0  0  0  0  0  0  0  0  0
    9.8992   -3.5987   24.7528 C   0  0  0  0  0  0  0  0  0  0  0  0
    6.7171   -5.8453   20.1139 C   0  0  0  0  0  0  0  0  0  0  0  0
    8.4985   -3.4462   24.1684 C   0  0  0  0  0  0  0  0  0  0  0  0
   13.6459   -0.5401   25.7261 N   0  0  0  0  0  0  0  0  0  0  0  0
    7.6994   -3.4806   21.4113 N   0  0  0  0  0  0  0  0  0  0  0  0
   10.5515   -2.3694   24.8033 N   0  0  0  0  0  0  0  0  0  0  0  0
    5.4818   -3.0874   20.7308 O   0  0  0  0  0  0  0  0  0  0  0  0
   10.3370   -4.6873   25.1112 O   0  0  0  0  0  0  0  0  0  0  0  0
   11.5422    0.5433   24.7027 Cl  0  0  0  0  0  0  0  0  0  0  0  0
    7.3503   -7.9415   24.2051 H   0  0  0  0  0  0  0  0  0  0  0  0
   14.5474   -3.6841   26.6200 H   0  0  0  0  0  0  0  0  0  0  0  0
    6.6739   -7.9221   21.8272 H   0  0  0  0  0  0  0  0  0  0  0  0
    8.1896   -5.8795   25.2787 H   0  0  0  0  0  0  0  0  0  0  0  0
   12.2572   -4.1648   25.7885 H   0  0  0  0  0  0  0  0  0  0  0  0
   15.3684   -1.3236   26.5457 H   0  0  0  0  0  0  0  0  0  0  0  0
    6.6789    0.1319   18.8976 H   0  0  0  0  0  0  0  0  0  0  0  0
    5.2878   -1.0028   19.3575 H   0  0  0  0  0  0  0  0  0  0  0  0
    8.2357   -1.3264   20.1323 H   0  0  0  0  0  0  0  0  0  0  0  0
    5.6524   -5.6021   20.0253 H   0  0  0  0  0  0  0  0  0  0  0  0
    7.2925   -5.1191   19.5273 H   0  0  0  0  0  0  0  0  0  0  0  0
    6.8905   -6.8301   19.6632 H   0  0  0  0  0  0  0  0  0  0  0  0
    8.5126   -2.6030   23.4598 H   0  0  0  0  0  0  0  0  0  0  0  0
    7.8169   -3.1491   24.9811 H   0  0  0  0  0  0  0  0  0  0  0  0
    8.6366   -3.0723   21.3303 H   0  0  0  0  0  0  0  0  0  0  0  0
   10.0278   -1.5678   24.4578 H   0  0  0  0  0  0  0  0  0  0  0  0
  1  3  1  0  0  0  0
  1  4  2  0  0  0  0
  2  5  2  0  0  0  0
  2  6  1  0  0  0  0
  3  7  2  0  0  0  0
  4  8  1  0  0  0  0
  5  9  1  0  0  0  0
  6 18  2  0  0  0  0
  7 10  1  0  0  0  0
  7 16  1  0  0  0  0
  8 10  2  0  0  0  0
  8 17  1  0  0  0  0
  9 11  2  0  0  0  0
  9 20  1  0  0  0  0
 10 19  1  0  0  0  0
 11 18  1  0  0  0  0
 11 23  1  0  0  0  0
 12 13  2  0  0  0  0
 13 14  1  0  0  0  0
 14 19  1  0  0  0  0
 14 21  2  0  0  0  0
 15 17  1  0  0  0  0
 15 20  1  0  0  0  0
 15 22  2  0  0  0  0
  1 24  1  0  0  0  0
  2 25  1  0  0  0  0
  3 26  1  0  0  0  0
  4 27  1  0  0  0  0
  5 28  1  0  0  0  0
  6 29  1  0  0  0  0
 12 30  1  0  0  0  0
 12 31  1  0  0  0  0
 13 32  1  0  0  0  0
 16 33  1  0  0  0  0
 16 34  1  0  0  0  0
 16 35  1  0  0  0  0
 17 36  1  0  0  0  0
 17 37  1  0  0  0  0
 19 38  1  0  0  0  0
 20 39  1  0  0  0  0
M  END
> <Chemgauss4>
-7.556781

> <ref_pdb>
x0749_0

> <CYS145-warhead min dist (A)>
5.589801

> <CYS145-warhead avg dist (A)>
7.042099

> <CYS145-warhead avg dist stderr (A)>
0.06542861

> <original SMILES>
Cc1cccc(c1NC(=O)C=C)CC(=O)Nc2cccnc2Cl

$$$$
NIR-THE-0d6-6
  -OEChem-04232002263D

 43 44  0     0  0  0  0  0  0999 V2000
   12.5416    0.5646   24.6576 C   0  0  0  0  0  0  0  0  0  0  0  0
   11.3740   -1.5525   25.0718 C   0  0  0  0  0  0  0  0  0  0  0  0
   13.7505   -1.5048   25.1535 C   0  0  0  0  0  0  0  0  0  0  0  0
   12.5563   -0.8293   24.9601 C   0  0  0  0  0  0  0  0  0  0  0  0
   11.4213   -2.9099   25.3692 C   0  0  0  0  0  0  0  0  0  0  0  0
   12.6663   -3.4923   25.5441 C   0  0  0  0  0  0  0  0  0  0  0  0
    6.3826   -5.1142   21.7013 C   0  0  0  0  0  0  0  0  0  0  0  0
    9.0530   -3.2163   23.2644 C   0  0  0  0  0  0  0  0  0  0  0  0
    8.7579   -5.4679   24.3566 C   0  0  0  0  0  0  0  0  0  0  0  0
    8.5552   -3.8159   21.9503 C   0  0  0  0  0  0  0  0  0  0  0  0
    8.2685   -6.0216   23.0206 C   0  0  0  0  0  0  0  0  0  0  0  0
    9.7141   -4.2834   24.1502 C   0  0  0  0  0  0  0  0  0  0  0  0
   13.6420   -6.9502   26.6466 C   0  0  0  0  0  0  0  0  0  0  0  0
   10.1404   -3.6891   25.4904 C   0  0  0  0  0  0  0  0  0  0  0  0
    5.4194   -5.9097   22.5459 C   0  0  0  0  0  0  0  0  0  0  0  0
   13.8600   -5.4891   26.4463 C   0  0  0  0  0  0  0  0  0  0  0  0
   12.5297    1.6986   24.4114 N   0  0  0  0  0  0  0  0  0  0  0  0
   13.8363   -2.8224   25.4437 N   0  0  0  0  0  0  0  0  0  0  0  0
    7.6751   -4.9630   22.2022 N   0  0  0  0  0  0  0  0  0  0  0  0
   12.7196   -4.8758   25.8480 N   0  0  0  0  0  0  0  0  0  0  0  0
    5.9966   -4.6441   20.6280 O   0  0  0  0  0  0  0  0  0  0  0  0
    5.3209   -5.0933   24.1021 Cl  0  0  0  0  0  0  0  0  0  0  0  0
   10.4131   -1.0631   24.9277 H   0  0  0  0  0  0  0  0  0  0  0  0
   14.7082   -0.9976   25.0799 H   0  0  0  0  0  0  0  0  0  0  0  0
    9.7715   -2.4167   23.0480 H   0  0  0  0  0  0  0  0  0  0  0  0
    8.2104   -2.7537   23.7943 H   0  0  0  0  0  0  0  0  0  0  0  0
    7.8947   -5.1564   24.9588 H   0  0  0  0  0  0  0  0  0  0  0  0
    9.2658   -6.2635   24.9149 H   0  0  0  0  0  0  0  0  0  0  0  0
    8.0601   -3.0400   21.3638 H   0  0  0  0  0  0  0  0  0  0  0  0
    9.3998   -4.1816   21.3542 H   0  0  0  0  0  0  0  0  0  0  0  0
    9.1040   -6.4461   22.4515 H   0  0  0  0  0  0  0  0  0  0  0  0
    7.5502   -6.8284   23.1968 H   0  0  0  0  0  0  0  0  0  0  0  0
   10.6146   -4.6493   23.6392 H   0  0  0  0  0  0  0  0  0  0  0  0
   13.4502   -7.4294   25.6752 H   0  0  0  0  0  0  0  0  0  0  0  0
   14.5378   -7.3951   27.1042 H   0  0  0  0  0  0  0  0  0  0  0  0
   12.7770   -7.1044   27.3084 H   0  0  0  0  0  0  0  0  0  0  0  0
   10.2604   -4.4928   26.2241 H   0  0  0  0  0  0  0  0  0  0  0  0
    9.3443   -3.0415   25.8721 H   0  0  0  0  0  0  0  0  0  0  0  0
    5.8109   -6.9122   22.6757 H   0  0  0  0  0  0  0  0  0  0  0  0
    4.4483   -5.9115   22.0642 H   0  0  0  0  0  0  0  0  0  0  0  0
   14.0510   -5.0175   27.4216 H   0  0  0  0  0  0  0  0  0  0  0  0
   14.7315   -5.3426   25.7913 H   0  0  0  0  0  0  0  0  0  0  0  0
   11.9098   -5.4153   25.6203 H   0  0  0  0  0  0  0  0  0  0  0  0
  1  4  1  0  0  0  0
  1 17  3  0  0  0  0
  2  4  2  0  0  0  0
  2  5  1  0  0  0  0
  3  4  1  0  0  0  0
  3 18  2  0  0  0  0
  5  6  2  0  0  0  0
  5 14  1  0  0  0  0
  6 18  1  0  0  0  0
  6 20  1  0  0  0  0
  7 15  1  0  0  0  0
  7 19  1  0  0  0  0
  7 21  2  0  0  0  0
  8 10  1  0  0  0  0
  8 12  1  0  0  0  0
  9 11  1  0  0  0  0
  9 12  1  0  0  0  0
 10 19  1  0  0  0  0
 11 19  1  0  0  0  0
 12 14  1  0  0  0  0
 13 16  1  0  0  0  0
 15 22  1  0  0  0  0
 16 20  1  0  0  0  0
  2 23  1  0  0  0  0
  3 24  1  0  0  0  0
  8 25  1  0  0  0  0
  8 26  1  0  0  0  0
  9 27  1  0  0  0  0
  9 28  1  0  0  0  0
 10 29  1  0  0  0  0
 10 30  1  0  0  0  0
 11 31  1  0  0  0  0
 11 32  1  0  0  0  0
 12 33  1  0  0  0  0
 13 34  1  0  0  0  0
 13 35  1  0  0  0  0
 13 36  1  0  0  0  0
 14 37  1  0  0  0  0
 14 38  1  0  0  0  0
 15 39  1  0  0  0  0
 15 40  1  0  0  0  0
 16 41  1  0  0  0  0
 16 42  1  0  0  0  0
 20 43  1  0  0  0  0
M  END
> <Chemgauss4>
-7.527629

> <ref_pdb>
x0749_0

> <CYS145-warhead min dist (A)>
3.3789573

> <CYS145-warhead avg dist (A)>
3.8064346

> <CYS145-warhead avg dist stderr (A)>
0.026846139

> <original SMILES>
CCNc1c(cc(cn1)C#N)CC2CCN(CC2)C(=O)CCl

$$$$
DUN-NEW-f8c-22
  -OEChem-04232002263D

 37 38  0     1  0  0  0  0  0999 V2000
   12.1004    0.1999   24.1986 C   0  0  0  0  0  0  0  0  0  0  0  0
   12.3473   -0.4697   23.0002 C   0  0  0  0  0  0  0  0  0  0  0  0
   10.8415    0.1226   24.7942 C   0  0  0  0  0  0  0  0  0  0  0  0
   11.3352   -1.2164   22.3972 C   0  0  0  0  0  0  0  0  0  0  0  0
    9.8293   -0.6242   24.1913 C   0  0  0  0  0  0  0  0  0  0  0  0
   10.0762   -1.2937   22.9927 C   0  0  0  0  0  0  0  0  0  0  0  0
    6.5919   -1.6306   19.4384 C   0  0  0  0  0  0  0  0  0  0  0  0
    6.5366   -3.0923   21.4207 C   0  0  0  0  0  0  0  0  0  0  0  0
    6.6484   -2.9101   22.9247 C   0  0  0  0  0  0  0  0  0  0  0  0
    8.1733   -1.2171   21.3714 C   0  0  0  0  0  0  0  0  0  0  0  0
    8.9740   -2.1061   22.3369 C   0  0  2  0  0  0  0  0  0  0  0  0
    7.6268   -4.0190   25.6334 C   0  0  0  0  0  0  0  0  0  0  0  0
    7.2239   -0.4488   18.7453 C   0  0  0  0  0  0  0  0  0  0  0  0
    7.1011   -1.9563   20.6960 N   0  0  0  0  0  0  0  0  0  0  0  0
    8.0700   -2.7609   23.3453 N   0  0  2  0  0  0  0  0  0  0  0  0
    5.6793   -2.2464   18.8824 O   0  0  0  0  0  0  0  0  0  0  0  0
   10.0451   -3.6618   24.7107 O   0  0  0  0  0  0  0  0  0  0  0  0
    8.5110   -5.2810   23.5231 O   0  0  0  0  0  0  0  0  0  0  0  0
    8.7350   -4.0549   24.2505 S   0  0  0  0  0  0  0  0  0  0  0  0
    5.9838    0.2509   17.7107 Cl  0  0  0  0  0  0  0  0  0  0  0  0
   12.8890    0.7802   24.6687 H   0  0  0  0  0  0  0  0  0  0  0  0
   13.3278   -0.4105   22.5368 H   0  0  0  0  0  0  0  0  0  0  0  0
   10.6492    0.6428   25.7279 H   0  0  0  0  0  0  0  0  0  0  0  0
   11.5365   -1.7347   21.4633 H   0  0  0  0  0  0  0  0  0  0  0  0
    8.8515   -0.6786   24.6624 H   0  0  0  0  0  0  0  0  0  0  0  0
    7.0094   -4.0402   21.1321 H   0  0  0  0  0  0  0  0  0  0  0  0
    5.4779   -3.1686   21.1212 H   0  0  0  0  0  0  0  0  0  0  0  0
    6.0909   -2.0064   23.2115 H   0  0  0  0  0  0  0  0  0  0  0  0
    6.1955   -3.7650   23.4500 H   0  0  0  0  0  0  0  0  0  0  0  0
    7.6881   -0.3871   21.9103 H   0  0  0  0  0  0  0  0  0  0  0  0
    8.8440   -0.7559   20.6316 H   0  0  0  0  0  0  0  0  0  0  0  0
    9.4782   -2.9165   21.7596 H   0  0  0  0  0  0  0  0  0  0  0  0
    7.9192   -4.8067   26.3296 H   0  0  0  0  0  0  0  0  0  0  0  0
    7.7021   -3.0403   26.1096 H   0  0  0  0  0  0  0  0  0  0  0  0
    6.6134   -4.1893   25.2669 H   0  0  0  0  0  0  0  0  0  0  0  0
    8.0564   -0.7974   18.1448 H   0  0  0  0  0  0  0  0  0  0  0  0
    7.5353    0.2717   19.4929 H   0  0  0  0  0  0  0  0  0  0  0  0
  1  2  1  0  0  0  0
  1  3  2  0  0  0  0
  2  4  2  0  0  0  0
  3  5  1  0  0  0  0
  4  6  1  0  0  0  0
  5  6  2  0  0  0  0
  6 11  1  0  0  0  0
  7 13  1  0  0  0  0
  7 14  1  0  0  0  0
  7 16  2  0  0  0  0
  8  9  1  0  0  0  0
  8 14  1  0  0  0  0
  9 15  1  0  0  0  0
 10 11  1  0  0  0  0
 10 14  1  0  0  0  0
 11 15  1  0  0  0  0
 12 19  1  0  0  0  0
 13 20  1  0  0  0  0
 15 19  1  0  0  0  0
 17 19  2  0  0  0  0
 18 19  2  0  0  0  0
  1 21  1  0  0  0  0
  2 22  1  0  0  0  0
  3 23  1  0  0  0  0
  4 24  1  0  0  0  0
  5 25  1  0  0  0  0
  8 26  1  0  0  0  0
  8 27  1  0  0  0  0
  9 28  1  0  0  0  0
  9 29  1  0  0  0  0
 10 30  1  0  0  0  0
 10 31  1  0  0  0  0
 11 32  1  0  0  0  0
 12 33  1  0  0  0  0
 12 34  1  0  0  0  0
 12 35  1  0  0  0  0
 13 36  1  0  0  0  0
 13 37  1  0  0  0  0
M  END
> <Chemgauss4>
-7.527215

> <ref_pdb>
x1418_0

> <CYS145-warhead min dist (A)>
5.1534605

> <CYS145-warhead avg dist (A)>
5.90041

> <CYS145-warhead avg dist stderr (A)>
0.040939353

> <original SMILES>
CS(=O)(=O)[N@@]1CCN(C[C@H]1c2ccccc2)C(=O)CCl

$$$$
DAV-CRI-d1e-3_thio_pH
  -OEChem-04232002263D

 42 43  0     0  0  0  0  0  0999 V2000
    7.2035   -6.2369   23.3441 C   0  0  0  0  0  0  0  0  0  0  0  0
    7.6085   -3.0052   21.5287 C   0  0  0  0  0  0  0  0  0  0  0  0
    5.6606   -4.8343   22.0819 C   0  0  0  0  0  0  0  0  0  0  0  0
    6.9360   -5.0656   22.5713 C   0  0  0  0  0  0  0  0  0  0  0  0
    7.9228   -4.1288   22.2850 C   0  0  0  0  0  0  0  0  0  0  0  0
    6.3030   -2.8662   21.0857 C   0  0  0  0  0  0  0  0  0  0  0  0
   12.8587   -1.8623   25.5375 C   0  0  0  0  0  0  0  0  0  0  0  0
   10.7710   -1.8720   24.2120 C   0  0  0  0  0  0  0  0  0  0  0  0
   11.9650   -4.0114   24.5145 C   0  0  0  0  0  0  0  0  0  0  0  0
    9.4515   -2.5345   24.5801 C   0  0  0  0  0  0  0  0  0  0  0  0
   10.6603   -4.7043   24.8844 C   0  0  0  0  0  0  0  0  0  0  0  0
    9.3310   -4.2981   22.7743 C   0  0  0  0  0  0  0  0  0  0  0  0
    5.9299   -1.6724   20.2717 C   0  0  0  0  0  0  0  0  0  0  0  0
   13.9942   -2.6594   26.1286 C   0  0  0  0  0  0  0  0  0  0  0  0
    6.1034   -1.8919   18.7678 C   0  0  0  0  0  0  0  0  0  0  0  0
    7.4209   -7.1884   23.9720 N   0  0  0  0  0  0  0  0  0  0  0  0
    5.3174   -3.7549   21.3438 N   0  0  0  0  0  0  0  0  0  0  0  0
   11.9042   -2.5762   24.8131 N   0  0  0  0  0  0  0  0  0  0  0  0
    9.4839   -4.0069   24.2421 N   0  3  0  0  0  0  0  0  0  0  0  0
   12.8216   -0.6424   25.7176 O   0  0  0  0  0  0  0  0  0  0  0  0
    5.2547   -2.9488   18.3380 O   0  0  0  0  0  0  0  0  0  0  0  0
   15.0470   -1.5084   26.9437 Cl  0  0  0  0  0  0  0  0  0  0  0  0
    8.3627   -2.2610   21.2925 H   0  0  0  0  0  0  0  0  0  0  0  0
    4.8447   -5.5262   22.2710 H   0  0  0  0  0  0  0  0  0  0  0  0
   10.8705   -1.8365   23.1218 H   0  0  0  0  0  0  0  0  0  0  0  0
   10.7990   -0.8357   24.5725 H   0  0  0  0  0  0  0  0  0  0  0  0
   12.8001   -4.4282   25.0920 H   0  0  0  0  0  0  0  0  0  0  0  0
   12.1828   -4.1990   23.4609 H   0  0  0  0  0  0  0  0  0  0  0  0
    9.2669   -2.4523   25.6627 H   0  0  0  0  0  0  0  0  0  0  0  0
    8.6017   -2.0843   24.0407 H   0  0  0  0  0  0  0  0  0  0  0  0
   10.6479   -5.7566   24.5555 H   0  0  0  0  0  0  0  0  0  0  0  0
   10.5027   -4.6728   25.9740 H   0  0  0  0  0  0  0  0  0  0  0  0
    9.6836   -5.3233   22.6187 H   0  0  0  0  0  0  0  0  0  0  0  0
   10.0164   -3.6258   22.2472 H   0  0  0  0  0  0  0  0  0  0  0  0
    4.8867   -1.3870   20.4771 H   0  0  0  0  0  0  0  0  0  0  0  0
    6.5478   -0.8132   20.5737 H   0  0  0  0  0  0  0  0  0  0  0  0
   14.5319   -3.1527   25.3270 H   0  0  0  0  0  0  0  0  0  0  0  0
   13.5915   -3.3672   26.8441 H   0  0  0  0  0  0  0  0  0  0  0  0
    5.8166   -0.9883   18.2202 H   0  0  0  0  0  0  0  0  0  0  0  0
    7.1381   -2.1442   18.5133 H   0  0  0  0  0  0  0  0  0  0  0  0
    8.6220   -4.4237   24.6989 H   0  0  0  0  0  0  0  0  0  0  0  0
    5.3979   -3.0516   17.3834 H   0  0  0  0  0  0  0  0  0  0  0  0
  1  4  1  0  0  0  0
  1 16  3  0  0  0  0
  2  5  2  0  0  0  0
  2  6  1  0  0  0  0
  3  4  2  0  0  0  0
  3 17  1  0  0  0  0
  4  5  1  0  0  0  0
  5 12  1  0  0  0  0
  6 13  1  0  0  0  0
  6 17  2  0  0  0  0
  7 14  1  0  0  0  0
  7 18  1  0  0  0  0
  7 20  2  0  0  0  0
  8 10  1  0  0  0  0
  8 18  1  0  0  0  0
  9 11  1  0  0  0  0
  9 18  1  0  0  0  0
 10 19  1  0  0  0  0
 11 19  1  0  0  0  0
 12 19  1  0  0  0  0
 13 15  1  0  0  0  0
 14 22  1  0  0  0  0
 15 21  1  0  0  0  0
  2 23  1  0  0  0  0
  3 24  1  0  0  0  0
  8 25  1  0  0  0  0
  8 26  1  0  0  0  0
  9 27  1  0  0  0  0
  9 28  1  0  0  0  0
 10 29  1  0  0  0  0
 10 30  1  0  0  0  0
 11 31  1  0  0  0  0
 11 32  1  0  0  0  0
 12 33  1  0  0  0  0
 12 34  1  0  0  0  0
 13 35  1  0  0  0  0
 13 36  1  0  0  0  0
 14 37  1  0  0  0  0
 14 38  1  0  0  0  0
 15 39  1  0  0  0  0
 15 40  1  0  0  0  0
 19 41  1  0  0  0  0
 21 42  1  0  0  0  0
M  CHG  1  19   1
M  END
> <Chemgauss4>
-7.520635

> <ref_pdb>
x0749_0

> <CYS145-warhead min dist (A)>
5.1217217

> <CYS145-warhead avg dist (A)>
6.0028696

> <CYS145-warhead avg dist stderr (A)>
0.06188908

> <original SMILES>
c1c(ncc(c1C[NH+]2CCN(CC2)C(=O)CCl)C#N)CCO

$$$$
GIA-UNK-20b-2
  -OEChem-04232002263D

 49 51  0     1  0  0  0  0  0999 V2000
    6.4086   -6.4031   23.3408 C   0  0  0  0  0  0  0  0  0  0  0  0
    6.5576   -5.3334   24.2235 C   0  0  0  0  0  0  0  0  0  0  0  0
    7.1303   -6.4283   22.1474 C   0  0  0  0  0  0  0  0  0  0  0  0
    7.4281   -4.2888   23.9127 C   0  0  0  0  0  0  0  0  0  0  0  0
    8.0008   -5.3837   21.8366 C   0  0  0  0  0  0  0  0  0  0  0  0
    8.1498   -4.3139   22.7193 C   0  0  0  0  0  0  0  0  0  0  0  0
   13.1375   -1.5509   25.7983 C   0  0  0  0  0  0  0  0  0  0  0  0
    7.2757   -1.4322   22.4174 C   0  0  0  0  0  0  0  0  0  0  0  0
    7.8695   -2.5700   20.2618 C   0  0  0  0  0  0  0  0  0  0  0  0
   11.1573   -0.7858   24.5276 C   0  0  0  0  0  0  0  0  0  0  0  0
   11.0259   -2.9630   25.6746 C   0  0  0  0  0  0  0  0  0  0  0  0
   10.6196   -1.4053   23.2459 C   0  0  0  0  0  0  0  0  0  0  0  0
   10.4841   -3.6153   24.4098 C   0  0  0  0  0  0  0  0  0  0  0  0
    6.5220   -0.4025   21.5844 C   0  0  0  0  0  0  0  0  0  0  0  0
    7.0822   -1.4768   19.5495 C   0  0  0  0  0  0  0  0  0  0  0  0
    8.4115   -2.0612   21.6024 C   0  0  0  0  0  0  0  0  0  0  0  0
   14.0132   -2.7624   25.9961 C   0  0  0  0  0  0  0  0  0  0  0  0
    9.0930   -3.1824   22.3818 C   0  0  1  0  0  0  0  0  0  0  0  0
   11.8387   -1.7860   25.3494 N   0  0  0  0  0  0  0  0  0  0  0  0
    9.7358   -2.5805   23.5996 N   0  3  0  0  0  0  0  0  0  0  0  0
   13.5965   -0.4302   26.0336 O   0  0  0  0  0  0  0  0  0  0  0  0
    6.0294   -0.9886   20.3800 O   0  0  0  0  0  0  0  0  0  0  0  0
   14.1017   -3.5796   24.4398 Cl  0  0  0  0  0  0  0  0  0  0  0  0
    5.7317   -7.2170   23.5836 H   0  0  0  0  0  0  0  0  0  0  0  0
    5.9966   -5.3142   25.1533 H   0  0  0  0  0  0  0  0  0  0  0  0
    7.0153   -7.2615   21.4605 H   0  0  0  0  0  0  0  0  0  0  0  0
    7.5377   -3.4593   24.6064 H   0  0  0  0  0  0  0  0  0  0  0  0
    8.5589   -5.4117   20.9045 H   0  0  0  0  0  0  0  0  0  0  0  0
    7.6682   -0.9639   23.3269 H   0  0  0  0  0  0  0  0  0  0  0  0
    6.5758   -2.2190   22.7265 H   0  0  0  0  0  0  0  0  0  0  0  0
    7.2057   -3.4251   20.4424 H   0  0  0  0  0  0  0  0  0  0  0  0
    8.6891   -2.9179   19.6230 H   0  0  0  0  0  0  0  0  0  0  0  0
   11.8332    0.0386   24.2794 H   0  0  0  0  0  0  0  0  0  0  0  0
   10.3410   -0.3666   25.1283 H   0  0  0  0  0  0  0  0  0  0  0  0
   10.2036   -2.6231   26.3158 H   0  0  0  0  0  0  0  0  0  0  0  0
   11.5904   -3.7029   26.2446 H   0  0  0  0  0  0  0  0  0  0  0  0
   10.0024   -0.6859   22.6982 H   0  0  0  0  0  0  0  0  0  0  0  0
   11.4236   -1.7715   22.5976 H   0  0  0  0  0  0  0  0  0  0  0  0
   11.2852   -4.0202   23.7814 H   0  0  0  0  0  0  0  0  0  0  0  0
    9.7736   -4.4100   24.6596 H   0  0  0  0  0  0  0  0  0  0  0  0
    5.6623   -0.0260   22.1478 H   0  0  0  0  0  0  0  0  0  0  0  0
    7.1585    0.4557   21.3392 H   0  0  0  0  0  0  0  0  0  0  0  0
    7.7320   -0.6439   19.2563 H   0  0  0  0  0  0  0  0  0  0  0  0
    6.6289   -1.8789   18.6379 H   0  0  0  0  0  0  0  0  0  0  0  0
    9.1613   -1.2849   21.3992 H   0  0  0  0  0  0  0  0  0  0  0  0
   13.5533   -3.4121   26.7320 H   0  0  0  0  0  0  0  0  0  0  0  0
   15.0005   -2.4360   26.3021 H   0  0  0  0  0  0  0  0  0  0  0  0
    9.9313   -3.5625   21.7863 H   0  0  0  0  0  0  0  0  0  0  0  0
    8.9705   -2.2240   24.1887 H   0  0  0  0  0  0  0  0  0  0  0  0
  1  2  1  0  0  0  0
  1  3  2  0  0  0  0
  2  4  2  0  0  0  0
  3  5  1  0  0  0  0
  4  6  1  0  0  0  0
  5  6  2  0  0  0  0
  6 18  1  0  0  0  0
  7 17  1  0  0  0  0
  7 19  1  0  0  0  0
  7 21  2  0  0  0  0
  8 14  1  0  0  0  0
  8 16  1  0  0  0  0
  9 15  1  0  0  0  0
  9 16  1  0  0  0  0
 10 12  1  0  0  0  0
 10 19  1  0  0  0  0
 11 13  1  0  0  0  0
 11 19  1  0  0  0  0
 12 20  1  0  0  0  0
 13 20  1  0  0  0  0
 14 22  1  0  0  0  0
 15 22  1  0  0  0  0
 16 18  1  0  0  0  0
 17 23  1  0  0  0  0
 18 20  1  0  0  0  0
  1 24  1  0  0  0  0
  2 25  1  0  0  0  0
  3 26  1  0  0  0  0
  4 27  1  0  0  0  0
  5 28  1  0  0  0  0
  8 29  1  0  0  0  0
  8 30  1  0  0  0  0
  9 31  1  0  0  0  0
  9 32  1  0  0  0  0
 10 33  1  0  0  0  0
 10 34  1  0  0  0  0
 11 35  1  0  0  0  0
 11 36  1  0  0  0  0
 12 37  1  0  0  0  0
 12 38  1  0  0  0  0
 13 39  1  0  0  0  0
 13 40  1  0  0  0  0
 14 41  1  0  0  0  0
 14 42  1  0  0  0  0
 15 43  1  0  0  0  0
 15 44  1  0  0  0  0
 16 45  1  0  0  0  0
 17 46  1  0  0  0  0
 17 47  1  0  0  0  0
 18 48  1  0  0  0  0
 20 49  1  0  0  0  0
M  CHG  1  20   1
M  END
> <Chemgauss4>
-7.492517

> <ref_pdb>
x0749_0

> <CYS145-warhead min dist (A)>
6.071623

> <CYS145-warhead avg dist (A)>
6.976722

> <CYS145-warhead avg dist stderr (A)>
0.02821729

> <original SMILES>
c1ccc(cc1)[C@@H](C2CCOCC2)[NH+]3CCN(CC3)C(=O)CCl

$$$$
JAN-GHE-bf4-10
  -OEChem-04232002263D

 40 42  0     1  0  0  0  0  0999 V2000
   13.7364   -1.1615   21.8485 C   0  0  0  0  0  0  0  0  0  0  0  0
   12.8018    0.9350   22.7631 C   0  0  0  0  0  0  0  0  0  0  0  0
   12.0840    1.6090   23.6734 C   0  0  0  0  0  0  0  0  0  0  0  0
   12.0247   -1.2335   23.5296 C   0  0  0  0  0  0  0  0  0  0  0  0
    9.0876    0.6481   24.4314 C   0  0  0  0  0  0  0  0  0  0  0  0
   12.8418   -0.5121   22.7435 C   0  0  0  0  0  0  0  0  0  0  0  0
    5.8941   -0.0762   17.5350 C   0  0  0  0  0  0  0  0  0  0  0  0
    6.4281   -0.3661   18.7233 C   0  0  0  0  0  0  0  0  0  0  0  0
    6.0220   -1.6101   19.4020 C   0  0  0  0  0  0  0  0  0  0  0  0
    6.5316   -2.8835   21.6090 C   0  0  0  0  0  0  0  0  0  0  0  0
    7.5350   -1.0050   21.3715 C   0  0  0  0  0  0  0  0  0  0  0  0
   11.0449   -0.5959   24.4811 C   0  0  1  0  0  0  0  0  0  0  0  0
   11.2780    0.9099   24.7328 C   0  0  2  0  0  0  0  0  0  0  0  0
    9.6187   -0.6579   23.9378 C   0  0  1  0  0  0  0  0  0  0  0  0
    7.7535   -2.2296   22.2698 C   0  0  0  0  0  0  0  0  0  0  0  0
    8.8154   -1.8296   24.4740 C   0  0  0  0  0  0  0  0  0  0  0  0
   14.4661   -1.6913   21.1187 N   0  0  0  0  0  0  0  0  0  0  0  0
    9.9378    1.5256   24.8512 N   0  0  0  0  0  0  0  0  0  0  0  0
    6.6139   -1.8321   20.6117 N   0  0  0  0  0  0  0  0  0  0  0  0
    7.5623   -1.9466   23.6978 N   0  3  0  0  0  0  0  0  0  0  0  0
    5.2061   -2.3597   18.8714 O   0  0  0  0  0  0  0  0  0  0  0  0
   13.3598    1.4816   22.0067 H   0  0  0  0  0  0  0  0  0  0  0  0
   12.0708    2.6928   23.6511 H   0  0  0  0  0  0  0  0  0  0  0  0
   12.0795   -2.3196   23.5246 H   0  0  0  0  0  0  0  0  0  0  0  0
    8.0025    0.8280   24.4486 H   0  0  0  0  0  0  0  0  0  0  0  0
    6.1532    0.8236   16.9873 H   0  0  0  0  0  0  0  0  0  0  0  0
    5.1740   -0.7502   17.0830 H   0  0  0  0  0  0  0  0  0  0  0  0
    7.1493    0.2805   19.2059 H   0  0  0  0  0  0  0  0  0  0  0  0
    6.7108   -3.8879   21.2168 H   0  0  0  0  0  0  0  0  0  0  0  0
    5.5939   -2.8558   22.1720 H   0  0  0  0  0  0  0  0  0  0  0  0
    7.0416   -0.1406   21.8260 H   0  0  0  0  0  0  0  0  0  0  0  0
    8.4118   -0.6854   20.8025 H   0  0  0  0  0  0  0  0  0  0  0  0
   11.1237   -1.1588   25.4257 H   0  0  0  0  0  0  0  0  0  0  0  0
   11.7994    1.0308   25.7046 H   0  0  0  0  0  0  0  0  0  0  0  0
    9.5906   -0.6643   22.8280 H   0  0  0  0  0  0  0  0  0  0  0  0
    8.6958   -2.7579   22.0699 H   0  0  0  0  0  0  0  0  0  0  0  0
    8.5405   -1.6764   25.5179 H   0  0  0  0  0  0  0  0  0  0  0  0
    9.3595   -2.7675   24.3600 H   0  0  0  0  0  0  0  0  0  0  0  0
    7.0150   -1.0769   23.7925 H   0  0  0  0  0  0  0  0  0  0  0  0
    6.9712   -2.6877   24.1058 H   0  0  0  0  0  0  0  0  0  0  0  0
  1  6  1  0  0  0  0
  1 17  3  0  0  0  0
  2  3  2  0  0  0  0
  2  6  1  0  0  0  0
  3 13  1  0  0  0  0
  4  6  2  0  0  0  0
  4 12  1  0  0  0  0
  5 14  1  0  0  0  0
  5 18  2  0  0  0  0
  7  8  2  0  0  0  0
  8  9  1  0  0  0  0
  9 19  1  0  0  0  0
  9 21  2  0  0  0  0
 10 15  1  0  0  0  0
 10 19  1  0  0  0  0
 11 15  1  0  0  0  0
 11 19  1  0  0  0  0
 12 13  1  0  0  0  0
 12 14  1  0  0  0  0
 13 18  1  0  0  0  0
 14 16  1  0  0  0  0
 15 20  1  0  0  0  0
 16 20  1  0  0  0  0
  2 22  1  0  0  0  0
  3 23  1  0  0  0  0
  4 24  1  0  0  0  0
  5 25  1  0  0  0  0
  7 26  1  0  0  0  0
  7 27  1  0  0  0  0
  8 28  1  0  0  0  0
 10 29  1  0  0  0  0
 10 30  1  0  0  0  0
 11 31  1  0  0  0  0
 11 32  1  0  0  0  0
 12 33  1  0  0  0  0
 13 34  1  0  0  0  0
 14 35  1  0  0  0  0
 15 36  1  0  0  0  0
 16 37  1  0  0  0  0
 16 38  1  0  0  0  0
 20 39  1  0  0  0  0
 20 40  1  0  0  0  0
M  CHG  1  20   1
M  END
> <Chemgauss4>
-7.486821

> <ref_pdb>
x0831_0

> <CYS145-warhead min dist (A)>
7.848022

> <CYS145-warhead avg dist (A)>
8.620194

> <CYS145-warhead avg dist stderr (A)>
0.014329681

> <original SMILES>
C=CC(=O)N1CC(C1)[NH2+]C[C@H]2C=N[C@H]3[C@@H]2C=C(C=C3)C#N

$$$$
DUN-NEW-f8c-21
  -OEChem-04232002263D

 39 40  0     0  0  0  0  0  0999 V2000
   11.1397   -2.2814   22.5812 C   0  0  0  0  0  0  0  0  0  0  0  0
    9.8543   -2.5988   23.0352 C   0  0  0  0  0  0  0  0  0  0  0  0
   11.8847   -1.2762   23.1947 C   0  0  0  0  0  0  0  0  0  0  0  0
    8.1240   -0.9880   25.8230 C   0  0  0  0  0  0  0  0  0  0  0  0
    9.3158   -1.8881   24.1262 C   0  0  0  0  0  0  0  0  0  0  0  0
   11.3713   -0.5577   24.2782 C   0  0  0  0  0  0  0  0  0  0  0  0
    8.0810   -1.9410   24.8316 C   0  0  0  0  0  0  0  0  0  0  0  0
   10.0851   -0.8860   24.7213 C   0  0  0  0  0  0  0  0  0  0  0  0
    6.0816   -2.3916   21.3721 C   0  0  0  0  0  0  0  0  0  0  0  0
   11.7852    2.6984   23.8191 C   0  0  0  0  0  0  0  0  0  0  0  0
    6.5247   -1.6473   20.1565 C   0  0  0  0  0  0  0  0  0  0  0  0
    6.9501   -2.8505   24.5568 C   0  0  0  0  0  0  0  0  0  0  0  0
   12.1963    0.5123   24.9119 C   0  0  0  0  0  0  0  0  0  0  0  0
   12.3595    3.6562   22.8067 C   0  0  0  0  0  0  0  0  0  0  0  0
    5.7693   -2.1816   23.8300 C   0  0  0  0  0  0  0  0  0  0  0  0
    9.3365   -0.3567   25.7483 N   0  0  0  0  0  0  0  0  0  0  0  0
   12.5502    1.5533   23.9811 N   0  0  0  0  0  0  0  0  0  0  0  0
    6.1497   -1.6577   22.5455 N   0  0  0  0  0  0  0  0  0  0  0  0
    5.7006   -3.5514   21.2651 O   0  0  0  0  0  0  0  0  0  0  0  0
   10.7493    2.9476   24.4331 O   0  0  0  0  0  0  0  0  0  0  0  0
   12.6879    5.1881   23.6315 Cl  0  0  0  0  0  0  0  0  0  0  0  0
   11.5599   -2.8259   21.7397 H   0  0  0  0  0  0  0  0  0  0  0  0
    9.2870   -3.3853   22.5458 H   0  0  0  0  0  0  0  0  0  0  0  0
   12.8801   -1.0524   22.8177 H   0  0  0  0  0  0  0  0  0  0  0  0
    7.4019   -0.7012   26.5749 H   0  0  0  0  0  0  0  0  0  0  0  0
    7.6031   -1.7632   19.9622 H   0  0  0  0  0  0  0  0  0  0  0  0
    6.0243   -2.0014   19.2409 H   0  0  0  0  0  0  0  0  0  0  0  0
    6.3497   -0.5597   20.1798 H   0  0  0  0  0  0  0  0  0  0  0  0
    6.5671   -3.2777   25.5045 H   0  0  0  0  0  0  0  0  0  0  0  0
    7.2754   -3.7313   23.9670 H   0  0  0  0  0  0  0  0  0  0  0  0
   11.6589    0.9835   25.7463 H   0  0  0  0  0  0  0  0  0  0  0  0
   13.1311    0.1085   25.3235 H   0  0  0  0  0  0  0  0  0  0  0  0
   13.2891    3.2910   22.3632 H   0  0  0  0  0  0  0  0  0  0  0  0
   11.6278    3.8269   22.0123 H   0  0  0  0  0  0  0  0  0  0  0  0
    4.9614   -2.8983   23.6518 H   0  0  0  0  0  0  0  0  0  0  0  0
    5.3655   -1.3515   24.4189 H   0  0  0  0  0  0  0  0  0  0  0  0
    9.6377    0.3897   26.3596 H   0  0  0  0  0  0  0  0  0  0  0  0
   13.3927    1.4442   23.4218 H   0  0  0  0  0  0  0  0  0  0  0  0
    6.4867   -0.6976   22.4960 H   0  0  0  0  0  0  0  0  0  0  0  0
  1  2  2  0  0  0  0
  1  3  1  0  0  0  0
  2  5  1  0  0  0  0
  3  6  2  0  0  0  0
  4  7  2  0  0  0  0
  4 16  1  0  0  0  0
  5  7  1  0  0  0  0
  5  8  2  0  0  0  0
  6  8  1  0  0  0  0
  6 13  1  0  0  0  0
  7 12  1  0  0  0  0
  8 16  1  0  0  0  0
  9 11  1  0  0  0  0
  9 18  1  0  0  0  0
  9 19  2  0  0  0  0
 10 14  1  0  0  0  0
 10 17  1  0  0  0  0
 10 20  2  0  0  0  0
 12 15  1  0  0  0  0
 13 17  1  0  0  0  0
 14 21  1  0  0  0  0
 15 18  1  0  0  0  0
  1 22  1  0  0  0  0
  2 23  1  0  0  0  0
  3 24  1  0  0  0  0
  4 25  1  0  0  0  0
 11 26  1  0  0  0  0
 11 27  1  0  0  0  0
 11 28  1  0  0  0  0
 12 29  1  0  0  0  0
 12 30  1  0  0  0  0
 13 31  1  0  0  0  0
 13 32  1  0  0  0  0
 14 33  1  0  0  0  0
 14 34  1  0  0  0  0
 15 35  1  0  0  0  0
 15 36  1  0  0  0  0
 16 37  1  0  0  0  0
 17 38  1  0  0  0  0
 18 39  1  0  0  0  0
M  END
> <Chemgauss4>
-7.451364

> <ref_pdb>
x0692_0

> <CYS145-warhead min dist (A)>
9.367413

> <CYS145-warhead avg dist (A)>
10.592547

> <CYS145-warhead avg dist stderr (A)>
0.058636904

> <original SMILES>
CC(=O)NCCc1c[nH]c2c1cccc2CNC(=O)CCl

$$$$
DAV-CRI-3ed-6
  -OEChem-04232002263D

 25 25  0     1  0  0  0  0  0999 V2000
    9.7853   -2.7493   22.9137 C   0  0  0  0  0  0  0  0  0  0  0  0
    8.9044   -4.7622   23.9182 C   0  0  0  0  0  0  0  0  0  0  0  0
    7.8231   -3.8060   21.9808 C   0  0  0  0  0  0  0  0  0  0  0  0
    9.8520   -3.7390   23.8943 C   0  0  0  0  0  0  0  0  0  0  0  0
    8.7707   -2.7827   21.9570 C   0  0  0  0  0  0  0  0  0  0  0  0
    7.8899   -4.7957   22.9614 C   0  0  0  0  0  0  0  0  0  0  0  0
   12.7334   -2.1133   25.5400 C   0  0  0  0  0  0  0  0  0  0  0  0
   10.5274   -4.3290   26.2582 C   0  0  0  0  0  0  0  0  0  0  0  0
   13.0320   -0.6429   25.6844 C   0  0  0  0  0  0  0  0  0  0  0  0
   10.9373   -3.7032   24.9168 C   0  0  2  0  0  0  0  0  0  0  0  0
   11.4362   -2.3563   25.1372 N   0  0  0  0  0  0  0  0  0  0  0  0
   13.5873   -2.9726   25.7518 O   0  0  0  0  0  0  0  0  0  0  0  0
    8.7066   -1.8324   21.0154 F   0  0  0  0  0  0  0  0  0  0  0  0
    6.7205   -6.0579   22.9903 Cl  0  0  0  0  0  0  0  0  0  0  0  0
   12.0176    0.2349   24.5289 Cl  0  0  0  0  0  0  0  0  0  0  0  0
   10.5196   -1.9486   22.8872 H   0  0  0  0  0  0  0  0  0  0  0  0
    8.9612   -5.5310   24.6855 H   0  0  0  0  0  0  0  0  0  0  0  0
    7.0386   -3.8192   21.2285 H   0  0  0  0  0  0  0  0  0  0  0  0
    9.6537   -3.8152   26.6739 H   0  0  0  0  0  0  0  0  0  0  0  0
   10.2741   -5.3888   26.1415 H   0  0  0  0  0  0  0  0  0  0  0  0
   11.3361   -4.2708   26.9954 H   0  0  0  0  0  0  0  0  0  0  0  0
   12.8223   -0.2686   26.6894 H   0  0  0  0  0  0  0  0  0  0  0  0
   14.0840   -0.4609   25.4479 H   0  0  0  0  0  0  0  0  0  0  0  0
   11.8171   -4.2668   24.5592 H   0  0  0  0  0  0  0  0  0  0  0  0
   10.8135   -1.5729   24.9909 H   0  0  0  0  0  0  0  0  0  0  0  0
  1  4  1  0  0  0  0
  1  5  2  0  0  0  0
  2  4  2  0  0  0  0
  2  6  1  0  0  0  0
  3  5  1  0  0  0  0
  3  6  2  0  0  0  0
  4 10  1  0  0  0  0
  5 13  1  0  0  0  0
  6 14  1  0  0  0  0
  7  9  1  0  0  0  0
  7 11  1  0  0  0  0
  7 12  2  0  0  0  0
  8 10  1  0  0  0  0
  9 15  1  0  0  0  0
 10 11  1  0  0  0  0
  1 16  1  0  0  0  0
  2 17  1  0  0  0  0
  3 18  1  0  0  0  0
  8 19  1  0  0  0  0
  8 20  1  0  0  0  0
  8 21  1  0  0  0  0
  9 22  1  0  0  0  0
  9 23  1  0  0  0  0
 10 24  1  0  0  0  0
 11 25  1  0  0  0  0
M  END
> <Chemgauss4>
-7.443560

> <ref_pdb>
x0749_0

> <CYS145-warhead min dist (A)>
5.216005

> <CYS145-warhead avg dist (A)>
6.7052584

> <CYS145-warhead avg dist stderr (A)>
0.061027203

> <original SMILES>
C[C@@H](c1cc(cc(c1)Cl)F)NC(=O)CCl

$$$$
TAM-UNI-d1c-13
  -OEChem-04232002263D

 52 54  0     0  0  0  0  0  0999 V2000
   13.4499   -0.1659   22.3227 C   0  0  0  0  0  0  0  0  0  0  0  0
   13.1801    0.9979   23.0410 C   0  0  0  0  0  0  0  0  0  0  0  0
   12.4878   -1.1621   22.2396 C   0  0  0  0  0  0  0  0  0  0  0  0
   11.9422    1.1950   23.6870 C   0  0  0  0  0  0  0  0  0  0  0  0
   10.9793    0.1649   23.6313 C   0  0  0  0  0  0  0  0  0  0  0  0
   11.2641   -0.9965   22.8854 C   0  0  0  0  0  0  0  0  0  0  0  0
    9.7809    0.1736   26.8179 C   0  0  0  0  0  0  0  0  0  0  0  0
    6.1292   -2.0297   19.0691 C   0  0  0  0  0  0  0  0  0  0  0  0
   11.7728    2.4977   24.4437 C   0  0  0  0  0  0  0  0  0  0  0  0
    9.6205    0.2458   24.2897 C   0  0  0  0  0  0  0  0  0  0  0  0
   10.3469    3.0359   24.5622 C   0  0  0  0  0  0  0  0  0  0  0  0
    9.5299    2.3289   25.6424 C   0  0  0  0  0  0  0  0  0  0  0  0
    6.6745   -2.2880   21.4684 C   0  0  0  0  0  0  0  0  0  0  0  0
    7.8883   -0.5702   20.1843 C   0  0  0  0  0  0  0  0  0  0  0  0
    7.9829   -2.8152   22.0393 C   0  0  0  0  0  0  0  0  0  0  0  0
    9.2157   -1.0706   20.7376 C   0  0  0  0  0  0  0  0  0  0  0  0
    9.8780   -1.3295   26.7216 C   0  0  0  0  0  0  0  0  0  0  0  0
   10.2730   -2.1133   22.7452 C   0  0  0  0  0  0  0  0  0  0  0  0
    6.4143   -1.3177   17.7708 C   0  0  0  0  0  0  0  0  0  0  0  0
    9.6577    0.8730   25.6134 N   0  0  0  0  0  0  0  0  0  0  0  0
    6.8882   -1.6432   20.1728 N   0  0  0  0  0  0  0  0  0  0  0  0
    8.9851   -1.6841   22.1006 N   0  3  0  0  0  0  0  0  0  0  0  0
    9.8115    0.7090   27.9290 O   0  0  0  0  0  0  0  0  0  0  0  0
    5.2597   -2.9044   19.0987 O   0  0  0  0  0  0  0  0  0  0  0  0
    5.3289    0.0663   17.7063 Cl  0  0  0  0  0  0  0  0  0  0  0  0
   14.4098   -0.2914   21.8322 H   0  0  0  0  0  0  0  0  0  0  0  0
   13.9527    1.7661   23.0967 H   0  0  0  0  0  0  0  0  0  0  0  0
   12.6984   -2.0640   21.6720 H   0  0  0  0  0  0  0  0  0  0  0  0
   12.2337    2.3882   25.4457 H   0  0  0  0  0  0  0  0  0  0  0  0
   12.3826    3.2787   23.9478 H   0  0  0  0  0  0  0  0  0  0  0  0
    8.8966    0.7997   23.6729 H   0  0  0  0  0  0  0  0  0  0  0  0
    9.1931   -0.7670   24.3804 H   0  0  0  0  0  0  0  0  0  0  0  0
   10.4067    4.0939   24.8367 H   0  0  0  0  0  0  0  0  0  0  0  0
    9.8293    2.9845   23.5998 H   0  0  0  0  0  0  0  0  0  0  0  0
    9.8330    2.6755   26.6439 H   0  0  0  0  0  0  0  0  0  0  0  0
    8.4778    2.6257   25.5376 H   0  0  0  0  0  0  0  0  0  0  0  0
    5.9572   -3.1099   21.3796 H   0  0  0  0  0  0  0  0  0  0  0  0
    6.2314   -1.5415   22.1387 H   0  0  0  0  0  0  0  0  0  0  0  0
    7.4903    0.2385   20.8092 H   0  0  0  0  0  0  0  0  0  0  0  0
    8.0504   -0.1539   19.1886 H   0  0  0  0  0  0  0  0  0  0  0  0
    7.8396   -3.1764   23.0610 H   0  0  0  0  0  0  0  0  0  0  0  0
    8.4104   -3.6086   21.4191 H   0  0  0  0  0  0  0  0  0  0  0  0
    9.6634   -1.8361   20.0970 H   0  0  0  0  0  0  0  0  0  0  0  0
    9.9142   -0.2404   20.8707 H   0  0  0  0  0  0  0  0  0  0  0  0
   10.9218   -1.6127   26.6352 H   0  0  0  0  0  0  0  0  0  0  0  0
    9.3288   -1.6658   25.8480 H   0  0  0  0  0  0  0  0  0  0  0  0
    9.4463   -1.7709   27.6140 H   0  0  0  0  0  0  0  0  0  0  0  0
   10.6725   -2.9290   22.1306 H   0  0  0  0  0  0  0  0  0  0  0  0
   10.0073   -2.5351   23.7221 H   0  0  0  0  0  0  0  0  0  0  0  0
    6.2072   -1.9918   16.9474 H   0  0  0  0  0  0  0  0  0  0  0  0
    7.4452   -0.9827   17.7728 H   0  0  0  0  0  0  0  0  0  0  0  0
    8.5809   -0.9500   22.7005 H   0  0  0  0  0  0  0  0  0  0  0  0
  1  2  2  0  0  0  0
  1  3  1  0  0  0  0
  2  4  1  0  0  0  0
  3  6  2  0  0  0  0
  4  5  2  0  0  0  0
  4  9  1  0  0  0  0
  5  6  1  0  0  0  0
  5 10  1  0  0  0  0
  6 18  1  0  0  0  0
  7 17  1  0  0  0  0
  7 20  1  0  0  0  0
  7 23  2  0  0  0  0
  8 19  1  0  0  0  0
  8 21  1  0  0  0  0
  8 24  2  0  0  0  0
  9 11  1  0  0  0  0
 10 20  1  0  0  0  0
 11 12  1  0  0  0  0
 12 20  1  0  0  0  0
 13 15  1  0  0  0  0
 13 21  1  0  0  0  0
 14 16  1  0  0  0  0
 14 21  1  0  0  0  0
 15 22  1  0  0  0  0
 16 22  1  0  0  0  0
 18 22  1  0  0  0  0
 19 25  1  0  0  0  0
  1 26  1  0  0  0  0
  2 27  1  0  0  0  0
  3 28  1  0  0  0  0
  9 29  1  0  0  0  0
  9 30  1  0  0  0  0
 10 31  1  0  0  0  0
 10 32  1  0  0  0  0
 11 33  1  0  0  0  0
 11 34  1  0  0  0  0
 12 35  1  0  0  0  0
 12 36  1  0  0  0  0
 13 37  1  0  0  0  0
 13 38  1  0  0  0  0
 14 39  1  0  0  0  0
 14 40  1  0  0  0  0
 15 41  1  0  0  0  0
 15 42  1  0  0  0  0
 16 43  1  0  0  0  0
 16 44  1  0  0  0  0
 17 45  1  0  0  0  0
 17 46  1  0  0  0  0
 17 47  1  0  0  0  0
 18 48  1  0  0  0  0
 18 49  1  0  0  0  0
 19 50  1  0  0  0  0
 19 51  1  0  0  0  0
 22 52  1  0  0  0  0
M  CHG  1  22   1
M  END
> <Chemgauss4>
-7.406506

> <ref_pdb>
x0830_0

> <CYS145-warhead min dist (A)>
5.1033335

> <CYS145-warhead avg dist (A)>
6.3622565

> <CYS145-warhead avg dist stderr (A)>
0.054037277

> <original SMILES>
CC(=O)N1CCCc2cccc(c2C1)C[NH+]3CCN(CC3)C(=O)CCl

$$$$
DAV-CRI-eab-6
  -OEChem-04232002263D

 31 32  0     1  0  0  0  0  0999 V2000
    9.6912   -0.3526   24.2622 C   0  0  0  0  0  0  0  0  0  0  0  0
   11.4542    1.1034   25.0866 C   0  0  0  0  0  0  0  0  0  0  0  0
   12.8947    1.1351   22.1907 C   0  0  0  0  0  0  0  0  0  0  0  0
   10.1558    0.7720   25.0391 C   0  0  0  0  0  0  0  0  0  0  0  0
   10.4985   -1.0012   23.4044 C   0  0  0  0  0  0  0  0  0  0  0  0
    8.5765   -0.6744   21.2229 C   0  0  0  0  0  0  0  0  0  0  0  0
   13.4578    1.2383   23.5651 C   0  0  0  0  0  0  0  0  0  0  0  0
   12.5060    0.3327   24.3272 C   0  0  2  0  0  0  0  0  0  0  0  0
   11.9417   -0.5870   23.2203 C   0  0  2  0  0  0  0  0  0  0  0  0
    8.8734   -2.8750   23.2719 C   0  0  0  0  0  0  0  0  0  0  0  0
    8.3572   -0.1824   19.8151 C   0  0  0  0  0  0  0  0  0  0  0  0
   10.0175   -2.1620   22.5840 C   0  0  1  0  0  0  0  0  0  0  0  0
   12.0681    0.1716   21.9511 N   0  0  0  0  0  0  0  0  0  0  0  0
    9.6239   -1.5819   21.3333 N   0  0  0  0  0  0  0  0  0  0  0  0
    7.8891   -0.2789   22.1628 O   0  0  0  0  0  0  0  0  0  0  0  0
    8.9906    1.6593   25.9534 Cl  0  0  0  0  0  0  0  0  0  0  0  0
    6.7111   -0.6235   19.3344 Cl  0  0  0  0  0  0  0  0  0  0  0  0
    8.6567   -0.6612   24.3815 H   0  0  0  0  0  0  0  0  0  0  0  0
   11.7891    1.9285   25.7103 H   0  0  0  0  0  0  0  0  0  0  0  0
   13.2106    1.8460   21.4138 H   0  0  0  0  0  0  0  0  0  0  0  0
   14.4819    0.8531   23.5495 H   0  0  0  0  0  0  0  0  0  0  0  0
   13.4662    2.2787   23.9000 H   0  0  0  0  0  0  0  0  0  0  0  0
   13.0636   -0.2558   25.0669 H   0  0  0  0  0  0  0  0  0  0  0  0
   12.5717   -1.4839   23.1507 H   0  0  0  0  0  0  0  0  0  0  0  0
    8.0288   -2.2013   23.4572 H   0  0  0  0  0  0  0  0  0  0  0  0
    8.5078   -3.7016   22.6535 H   0  0  0  0  0  0  0  0  0  0  0  0
    9.1900   -3.2814   24.2381 H   0  0  0  0  0  0  0  0  0  0  0  0
    8.4694    0.9010   19.7265 H   0  0  0  0  0  0  0  0  0  0  0  0
    9.0691   -0.6712   19.1444 H   0  0  0  0  0  0  0  0  0  0  0  0
   10.8566   -2.8353   22.4010 H   0  0  0  0  0  0  0  0  0  0  0  0
   10.1335   -1.8459   20.4896 H   0  0  0  0  0  0  0  0  0  0  0  0
  1  4  1  0  0  0  0
  1  5  2  0  0  0  0
  2  4  2  0  0  0  0
  2  8  1  0  0  0  0
  3  7  1  0  0  0  0
  3 13  2  0  0  0  0
  4 16  1  0  0  0  0
  5  9  1  0  0  0  0
  5 12  1  0  0  0  0
  6 11  1  0  0  0  0
  6 14  1  0  0  0  0
  6 15  2  0  0  0  0
  7  8  1  0  0  0  0
  8  9  1  0  0  0  0
  9 13  1  0  0  0  0
 10 12  1  0  0  0  0
 11 17  1  0  0  0  0
 12 14  1  0  0  0  0
  1 18  1  0  0  0  0
  2 19  1  0  0  0  0
  3 20  1  0  0  0  0
  7 21  1  0  0  0  0
  7 22  1  0  0  0  0
  8 23  1  0  0  0  0
  9 24  1  0  0  0  0
 10 25  1  0  0  0  0
 10 26  1  0  0  0  0
 10 27  1  0  0  0  0
 11 28  1  0  0  0  0
 11 29  1  0  0  0  0
 12 30  1  0  0  0  0
 14 31  1  0  0  0  0
M  END
> <Chemgauss4>
-7.395313

> <ref_pdb>
x0830_0

> <CYS145-warhead min dist (A)>
2.9247494

> <CYS145-warhead avg dist (A)>
3.301034

> <CYS145-warhead avg dist stderr (A)>
0.008855647

> <original SMILES>
C[C@H](C1=CC(=C[C@H]2[C@@H]1N=CC2)Cl)NC(=O)CCl

$$$$
NIR-THE-0d6-12_thio_pH
  -OEChem-04232002263D

 49 51  0     0  0  0  0  0  0999 V2000
    8.4303   -6.5917   22.0882 C   0  0  0  0  0  0  0  0  0  0  0  0
    6.7670   -0.0302   20.3449 C   0  0  0  0  0  0  0  0  0  0  0  0
    7.3681   -7.1426   22.8049 C   0  0  0  0  0  0  0  0  0  0  0  0
    8.5455   -5.2069   21.9659 C   0  0  0  0  0  0  0  0  0  0  0  0
    6.0257   -0.6493   19.3386 C   0  0  0  0  0  0  0  0  0  0  0  0
    7.3259   -0.7939   21.3697 C   0  0  0  0  0  0  0  0  0  0  0  0
    6.5360   -4.9241   23.2770 C   0  0  0  0  0  0  0  0  0  0  0  0
    6.4018   -2.7957   20.3819 C   0  0  0  0  0  0  0  0  0  0  0  0
    6.4209   -6.3088   23.3993 C   0  0  0  0  0  0  0  0  0  0  0  0
    7.5983   -4.3731   22.5602 C   0  0  0  0  0  0  0  0  0  0  0  0
    5.8431   -2.0320   19.3570 C   0  0  0  0  0  0  0  0  0  0  0  0
    7.1432   -2.1766   21.3882 C   0  0  0  0  0  0  0  0  0  0  0  0
   12.3073   -2.9536   25.3657 C   0  0  0  0  0  0  0  0  0  0  0  0
    8.8043   -3.0991   24.6230 C   0  0  0  0  0  0  0  0  0  0  0  0
   10.0517   -2.2365   22.6103 C   0  0  0  0  0  0  0  0  0  0  0  0
    9.8814   -2.4916   25.5176 C   0  0  0  0  0  0  0  0  0  0  0  0
   11.1048   -1.6458   23.5456 C   0  0  0  0  0  0  0  0  0  0  0  0
    8.6871   -2.3343   23.3007 C   0  0  0  0  0  0  0  0  0  0  0  0
    5.2850   -6.8982   24.1649 C   0  0  0  0  0  0  0  0  0  0  0  0
   13.5815   -2.8128   24.5719 C   0  0  0  0  0  0  0  0  0  0  0  0
   11.1584   -2.3936   24.8079 N   0  0  0  0  0  0  0  0  0  0  0  0
    5.0931   -2.6577   18.3397 N   0  0  0  0  0  0  0  0  0  0  0  0
    7.7163   -2.9578   22.4356 N   0  0  0  0  0  0  0  0  0  0  0  0
   12.3338   -3.5457   26.4477 O   0  0  0  0  0  0  0  0  0  0  0  0
   14.3172   -1.2921   25.0658 Cl  0  0  0  0  0  0  0  0  0  0  0  0
    9.1680   -7.2411   21.6254 H   0  0  0  0  0  0  0  0  0  0  0  0
    6.9094    1.0465   20.3308 H   0  0  0  0  0  0  0  0  0  0  0  0
    7.2863   -8.2228   22.8951 H   0  0  0  0  0  0  0  0  0  0  0  0
    9.3774   -4.7882   21.4053 H   0  0  0  0  0  0  0  0  0  0  0  0
    5.5947   -0.0440   18.5450 H   0  0  0  0  0  0  0  0  0  0  0  0
    7.9026   -0.3015   22.1486 H   0  0  0  0  0  0  0  0  0  0  0  0
    5.7967   -4.2753   23.7413 H   0  0  0  0  0  0  0  0  0  0  0  0
    6.2593   -3.8741   20.3969 H   0  0  0  0  0  0  0  0  0  0  0  0
    9.0207   -4.1537   24.4390 H   0  0  0  0  0  0  0  0  0  0  0  0
    7.8441   -3.0576   25.1447 H   0  0  0  0  0  0  0  0  0  0  0  0
    9.9586   -1.5923   21.7317 H   0  0  0  0  0  0  0  0  0  0  0  0
   10.3745   -3.2165   22.2534 H   0  0  0  0  0  0  0  0  0  0  0  0
    9.5393   -1.5185   25.8801 H   0  0  0  0  0  0  0  0  0  0  0  0
   10.0492   -3.1169   26.4045 H   0  0  0  0  0  0  0  0  0  0  0  0
   12.1012   -1.6969   23.0942 H   0  0  0  0  0  0  0  0  0  0  0  0
   10.8835   -0.5910   23.7288 H   0  0  0  0  0  0  0  0  0  0  0  0
    8.3302   -1.3101   23.5196 H   0  0  0  0  0  0  0  0  0  0  0  0
    5.5582   -7.0207   25.2202 H   0  0  0  0  0  0  0  0  0  0  0  0
    4.3929   -6.2610   24.1083 H   0  0  0  0  0  0  0  0  0  0  0  0
    5.0002   -7.8795   23.7632 H   0  0  0  0  0  0  0  0  0  0  0  0
   13.3363   -2.7821   23.5164 H   0  0  0  0  0  0  0  0  0  0  0  0
   14.2389   -3.6402   24.8130 H   0  0  0  0  0  0  0  0  0  0  0  0
    4.6582   -2.0942   17.6373 H   0  0  0  0  0  0  0  0  0  0  0  0
    4.9298   -3.6430   18.3899 H   0  0  0  0  0  0  0  0  0  0  0  0
  1  3  2  0  0  0  0
  1  4  1  0  0  0  0
  2  5  2  0  0  0  0
  2  6  1  0  0  0  0
  3  9  1  0  0  0  0
  4 10  2  0  0  0  0
  5 11  1  0  0  0  0
  6 12  2  0  0  0  0
  7  9  2  0  0  0  0
  7 10  1  0  0  0  0
  8 11  2  0  0  0  0
  8 12  1  0  0  0  0
  9 19  1  0  0  0  0
 10 23  1  0  0  0  0
 11 22  1  0  0  0  0
 12 23  1  0  0  0  0
 13 20  1  0  0  0  0
 13 21  1  0  0  0  0
 13 24  2  0  0  0  0
 14 16  1  0  0  0  0
 14 18  1  0  0  0  0
 15 17  1  0  0  0  0
 15 18  1  0  0  0  0
 16 21  1  0  0  0  0
 17 21  1  0  0  0  0
 18 23  1  0  0  0  0
 20 25  1  0  0  0  0
  1 26  1  0  0  0  0
  2 27  1  0  0  0  0
  3 28  1  0  0  0  0
  4 29  1  0  0  0  0
  5 30  1  0  0  0  0
  6 31  1  0  0  0  0
  7 32  1  0  0  0  0
  8 33  1  0  0  0  0
 14 34  1  0  0  0  0
 14 35  1  0  0  0  0
 15 36  1  0  0  0  0
 15 37  1  0  0  0  0
 16 38  1  0  0  0  0
 16 39  1  0  0  0  0
 17 40  1  0  0  0  0
 17 41  1  0  0  0  0
 18 42  1  0  0  0  0
 19 43  1  0  0  0  0
 19 44  1  0  0  0  0
 19 45  1  0  0  0  0
 20 46  1  0  0  0  0
 20 47  1  0  0  0  0
 22 48  1  0  0  0  0
 22 49  1  0  0  0  0
M  END
> <Chemgauss4>
-7.362918

> <ref_pdb>
x0749_0

> <CYS145-warhead min dist (A)>
6.719939

> <CYS145-warhead avg dist (A)>
7.4971704

> <CYS145-warhead avg dist stderr (A)>
0.033013463

> <original SMILES>
Cc1cccc(c1)N(c2cccc(c2)N)C3CCN(CC3)C(=O)CCl

$$$$
WAR-XCH-72a-6
  -OEChem-04232002263D

 56 58  0     1  0  0  0  0  0999 V2000
   10.8207    1.0919   25.0842 C   0  0  0  0  0  0  0  0  0  0  0  0
   12.9444    0.4290   22.1076 C   0  0  0  0  0  0  0  0  0  0  0  0
   12.5743   -0.8774   21.7884 C   0  0  0  0  0  0  0  0  0  0  0  0
   12.3601    1.0727   23.1985 C   0  0  0  0  0  0  0  0  0  0  0  0
   11.6199   -1.5402   22.5601 C   0  0  0  0  0  0  0  0  0  0  0  0
   11.4056    0.4099   23.9701 C   0  0  0  0  0  0  0  0  0  0  0  0
   11.0355   -0.8965   23.6509 C   0  0  0  0  0  0  0  0  0  0  0  0
    6.5490   -2.1616   18.9461 C   0  0  0  0  0  0  0  0  0  0  0  0
    9.8202   -4.6816   24.8788 C   0  0  0  0  0  0  0  0  0  0  0  0
    8.0285   -3.1064   25.7285 C   0  0  0  0  0  0  0  0  0  0  0  0
    9.3297   -5.7612   25.8460 C   0  0  0  0  0  0  0  0  0  0  0  0
    7.5358   -4.1867   26.6933 C   0  0  0  0  0  0  0  0  0  0  0  0
    7.1983   -3.0712   22.3467 C   0  0  0  0  0  0  0  0  0  0  0  0
    8.8618   -1.3194   21.6135 C   0  0  0  0  0  0  0  0  0  0  0  0
    6.1832   -2.4749   21.3735 C   0  0  0  0  0  0  0  0  0  0  0  0
    7.8124   -0.7605   20.6530 C   0  0  0  0  0  0  0  0  0  0  0  0
    8.6875   -3.7303   24.5007 C   0  0  0  0  0  0  0  0  0  0  0  0
    8.1923   -2.0043   22.8049 C   0  0  0  0  0  0  0  0  0  0  0  0
    8.6474   -5.1653   27.0783 C   0  0  0  0  0  0  0  0  0  0  0  0
   10.0127   -1.6407   24.4578 C   0  0  0  0  0  0  0  0  0  0  0  0
    7.2891   -1.4297   17.8551 C   0  0  0  0  0  0  0  0  0  0  0  0
   10.3465    1.6448   25.9876 N   0  0  0  0  0  0  0  0  0  0  0  0
    6.8590   -1.8064   20.2584 N   0  0  0  0  0  0  0  0  0  0  0  0
    9.2369   -2.6444   23.6459 N   0  3  1  0  0  0  0  0  0  0  0  0
    5.7220   -3.0242   18.6392 O   0  0  0  0  0  0  0  0  0  0  0  0
    9.6300   -4.4939   27.8643 O   0  0  0  0  0  0  0  0  0  0  0  0
    6.8776    0.2735   18.0222 Cl  0  0  0  0  0  0  0  0  0  0  0  0
   13.6876    0.9449   21.5066 H   0  0  0  0  0  0  0  0  0  0  0  0
   13.0294   -1.3784   20.9390 H   0  0  0  0  0  0  0  0  0  0  0  0
   12.6600    2.0913   23.4336 H   0  0  0  0  0  0  0  0  0  0  0  0
   11.3387   -2.5580   22.3026 H   0  0  0  0  0  0  0  0  0  0  0  0
   10.6530   -4.1390   25.3199 H   0  0  0  0  0  0  0  0  0  0  0  0
   10.1879   -5.1652   23.9746 H   0  0  0  0  0  0  0  0  0  0  0  0
    7.1745   -2.5133   25.4044 H   0  0  0  0  0  0  0  0  0  0  0  0
    8.7151   -2.4372   26.2408 H   0  0  0  0  0  0  0  0  0  0  0  0
    8.6312   -6.4333   25.3287 H   0  0  0  0  0  0  0  0  0  0  0  0
   10.1659   -6.4030   26.1571 H   0  0  0  0  0  0  0  0  0  0  0  0
    7.1146   -3.7279   27.5983 H   0  0  0  0  0  0  0  0  0  0  0  0
    6.7022   -4.7376   26.2370 H   0  0  0  0  0  0  0  0  0  0  0  0
    6.6683   -3.4565   23.2169 H   0  0  0  0  0  0  0  0  0  0  0  0
    7.7156   -3.9066   21.8815 H   0  0  0  0  0  0  0  0  0  0  0  0
    9.5162   -2.0114   21.0889 H   0  0  0  0  0  0  0  0  0  0  0  0
    9.4770   -0.4982   21.9788 H   0  0  0  0  0  0  0  0  0  0  0  0
    5.5395   -3.2528   20.9487 H   0  0  0  0  0  0  0  0  0  0  0  0
    5.5324   -1.7762   21.9078 H   0  0  0  0  0  0  0  0  0  0  0  0
    7.3136    0.0882   21.1238 H   0  0  0  0  0  0  0  0  0  0  0  0
    8.2795   -0.3853   19.7358 H   0  0  0  0  0  0  0  0  0  0  0  0
    7.9435   -4.2484   23.8920 H   0  0  0  0  0  0  0  0  0  0  0  0
    7.7012   -1.2695   23.4450 H   0  0  0  0  0  0  0  0  0  0  0  0
    8.2313   -5.9765   27.6882 H   0  0  0  0  0  0  0  0  0  0  0  0
   10.4820   -2.1949   25.2778 H   0  0  0  0  0  0  0  0  0  0  0  0
    9.2789   -0.9553   24.8952 H   0  0  0  0  0  0  0  0  0  0  0  0
    6.9543   -1.8008   16.8931 H   0  0  0  0  0  0  0  0  0  0  0  0
    8.3544   -1.5710   17.9972 H   0  0  0  0  0  0  0  0  0  0  0  0
    9.9155   -3.0905   23.0089 H   0  0  0  0  0  0  0  0  0  0  0  0
   10.2882   -5.1610   28.1151 H   0  0  0  0  0  0  0  0  0  0  0  0
  1  6  1  0  0  0  0
  1 22  3  0  0  0  0
  2  3  1  0  0  0  0
  2  4  2  0  0  0  0
  3  5  2  0  0  0  0
  4  6  1  0  0  0  0
  5  7  1  0  0  0  0
  6  7  2  0  0  0  0
  7 20  1  0  0  0  0
  8 21  1  0  0  0  0
  8 23  1  0  0  0  0
  8 25  2  0  0  0  0
  9 11  1  0  0  0  0
  9 17  1  0  0  0  0
 10 12  1  0  0  0  0
 10 17  1  0  0  0  0
 11 19  1  0  0  0  0
 12 19  1  0  0  0  0
 13 15  1  0  0  0  0
 13 18  1  0  0  0  0
 14 16  1  0  0  0  0
 14 18  1  0  0  0  0
 15 23  1  0  0  0  0
 16 23  1  0  0  0  0
 17 24  1  0  0  0  0
 18 24  1  0  0  0  0
 19 26  1  0  0  0  0
 20 24  1  0  0  0  0
 21 27  1  0  0  0  0
  2 28  1  0  0  0  0
  3 29  1  0  0  0  0
  4 30  1  0  0  0  0
  5 31  1  0  0  0  0
  9 32  1  0  0  0  0
  9 33  1  0  0  0  0
 10 34  1  0  0  0  0
 10 35  1  0  0  0  0
 11 36  1  0  0  0  0
 11 37  1  0  0  0  0
 12 38  1  0  0  0  0
 12 39  1  0  0  0  0
 13 40  1  0  0  0  0
 13 41  1  0  0  0  0
 14 42  1  0  0  0  0
 14 43  1  0  0  0  0
 15 44  1  0  0  0  0
 15 45  1  0  0  0  0
 16 46  1  0  0  0  0
 16 47  1  0  0  0  0
 17 48  1  0  0  0  0
 18 49  1  0  0  0  0
 19 50  1  0  0  0  0
 20 51  1  0  0  0  0
 20 52  1  0  0  0  0
 21 53  1  0  0  0  0
 21 54  1  0  0  0  0
 24 55  1  0  0  0  0
 26 56  1  0  0  0  0
M  CHG  1  24   1
M  END
> <Chemgauss4>
-7.360591

> <ref_pdb>
x0830_0

> <CYS145-warhead min dist (A)>
4.737617

> <CYS145-warhead avg dist (A)>
5.9588795

> <CYS145-warhead avg dist stderr (A)>
0.018056218

> <original SMILES>
c1ccc(c(c1)C[N@@H+](C2CCC(CC2)O)C3CCN(CC3)C(=O)CCl)C#N

$$$$
MAK-UNK-e4a-22_thio_pH
  -OEChem-04232002263D

 48 50  0     0  0  0  0  0  0999 V2000
    4.6927   -6.5052   28.8929 C   0  0  0  0  0  0  0  0  0  0  0  0
    4.9827   -5.3387   28.1853 C   0  0  0  0  0  0  0  0  0  0  0  0
    5.7293   -7.3081   29.3688 C   0  0  0  0  0  0  0  0  0  0  0  0
    6.3092   -4.9751   27.9536 C   0  0  0  0  0  0  0  0  0  0  0  0
    7.0558   -6.9446   29.1371 C   0  0  0  0  0  0  0  0  0  0  0  0
    8.9239   -3.3294   26.7717 C   0  0  0  0  0  0  0  0  0  0  0  0
    7.3458   -5.7780   28.4295 C   0  0  0  0  0  0  0  0  0  0  0  0
    9.0143   -4.7025   26.8756 C   0  0  0  0  0  0  0  0  0  0  0  0
    9.3211   -5.3707   25.7079 C   0  0  0  0  0  0  0  0  0  0  0  0
    9.4099   -3.4150   24.5528 C   0  0  0  0  0  0  0  0  0  0  0  0
    5.9280   -1.6210   19.2765 C   0  0  0  0  0  0  0  0  0  0  0  0
    6.2726   -2.7866   21.4315 C   0  0  0  0  0  0  0  0  0  0  0  0
    7.2635   -0.5471   21.1556 C   0  0  0  0  0  0  0  0  0  0  0  0
    7.5938   -3.3291   21.9566 C   0  0  0  0  0  0  0  0  0  0  0  0
    8.6000   -1.0558   21.6788 C   0  0  0  0  0  0  0  0  0  0  0  0
    8.7894   -5.3831   28.1775 C   0  0  0  0  0  0  0  0  0  0  0  0
    9.6307   -2.6957   23.2547 C   0  0  0  0  0  0  0  0  0  0  0  0
    6.2013   -0.4006   18.4342 C   0  0  0  0  0  0  0  0  0  0  0  0
    9.1163   -2.6505   25.6218 N   0  0  0  0  0  0  0  0  0  0  0  0
    9.5260   -4.7564   24.5243 N   0  0  0  0  0  0  0  0  0  0  0  0
    6.4883   -1.6369   20.5530 N   0  0  0  0  0  0  0  0  0  0  0  0
    9.4274   -6.7827   25.7525 N   0  0  0  0  0  0  0  0  0  0  0  0
    8.3551   -2.2077   22.6276 N   0  3  0  0  0  0  0  0  0  0  0  0
    5.2392   -2.5328   18.8113 O   0  0  0  0  0  0  0  0  0  0  0  0
    7.6977   -0.7148   17.5626 Cl  0  0  0  0  0  0  0  0  0  0  0  0
    3.6597   -6.7875   29.0744 H   0  0  0  0  0  0  0  0  0  0  0  0
    4.1757   -4.7128   27.8156 H   0  0  0  0  0  0  0  0  0  0  0  0
    5.5039   -8.2159   29.9207 H   0  0  0  0  0  0  0  0  0  0  0  0
    6.5257   -4.0645   27.4011 H   0  0  0  0  0  0  0  0  0  0  0  0
    7.8569   -7.5763   29.5115 H   0  0  0  0  0  0  0  0  0  0  0  0
    8.6873   -2.7113   27.6320 H   0  0  0  0  0  0  0  0  0  0  0  0
    5.7343   -3.5814   20.9056 H   0  0  0  0  0  0  0  0  0  0  0  0
    5.6334   -2.4538   22.2583 H   0  0  0  0  0  0  0  0  0  0  0  0
    6.6614   -0.1336   21.9738 H   0  0  0  0  0  0  0  0  0  0  0  0
    7.4422    0.2649   20.4488 H   0  0  0  0  0  0  0  0  0  0  0  0
    7.4212   -4.1035   22.7110 H   0  0  0  0  0  0  0  0  0  0  0  0
    8.2223   -3.7293   21.1531 H   0  0  0  0  0  0  0  0  0  0  0  0
    9.2465   -1.4166   20.8709 H   0  0  0  0  0  0  0  0  0  0  0  0
    9.1168   -0.2728   22.2431 H   0  0  0  0  0  0  0  0  0  0  0  0
    9.1331   -4.7490   29.0160 H   0  0  0  0  0  0  0  0  0  0  0  0
    9.4223   -6.2863   28.2621 H   0  0  0  0  0  0  0  0  0  0  0  0
   10.2696   -1.8169   23.3927 H   0  0  0  0  0  0  0  0  0  0  0  0
   10.1139   -3.3473   22.5187 H   0  0  0  0  0  0  0  0  0  0  0  0
    6.3235    0.4565   19.0865 H   0  0  0  0  0  0  0  0  0  0  0  0
    5.3841   -0.2662   17.7348 H   0  0  0  0  0  0  0  0  0  0  0  0
    9.3251   -7.2459   26.6293 H   0  0  0  0  0  0  0  0  0  0  0  0
    9.6948   -7.2716   24.9259 H   0  0  0  0  0  0  0  0  0  0  0  0
    7.7683   -1.8534   23.3956 H   0  0  0  0  0  0  0  0  0  0  0  0
  1  2  1  0  0  0  0
  1  3  2  0  0  0  0
  2  4  2  0  0  0  0
  3  5  1  0  0  0  0
  4  7  1  0  0  0  0
  5  7  2  0  0  0  0
  6  8  2  0  0  0  0
  6 19  1  0  0  0  0
  7 16  1  0  0  0  0
  8  9  1  0  0  0  0
  8 16  1  0  0  0  0
  9 20  2  0  0  0  0
  9 22  1  0  0  0  0
 10 17  1  0  0  0  0
 10 19  2  0  0  0  0
 10 20  1  0  0  0  0
 11 18  1  0  0  0  0
 11 21  1  0  0  0  0
 11 24  2  0  0  0  0
 12 14  1  0  0  0  0
 12 21  1  0  0  0  0
 13 15  1  0  0  0  0
 13 21  1  0  0  0  0
 14 23  1  0  0  0  0
 15 23  1  0  0  0  0
 17 23  1  0  0  0  0
 18 25  1  0  0  0  0
  1 26  1  0  0  0  0
  2 27  1  0  0  0  0
  3 28  1  0  0  0  0
  4 29  1  0  0  0  0
  5 30  1  0  0  0  0
  6 31  1  0  0  0  0
 12 32  1  0  0  0  0
 12 33  1  0  0  0  0
 13 34  1  0  0  0  0
 13 35  1  0  0  0  0
 14 36  1  0  0  0  0
 14 37  1  0  0  0  0
 15 38  1  0  0  0  0
 15 39  1  0  0  0  0
 16 40  1  0  0  0  0
 16 41  1  0  0  0  0
 17 42  1  0  0  0  0
 17 43  1  0  0  0  0
 18 44  1  0  0  0  0
 18 45  1  0  0  0  0
 22 46  1  0  0  0  0
 22 47  1  0  0  0  0
 23 48  1  0  0  0  0
M  CHG  1  23   1
M  END
> <Chemgauss4>
-7.343204

> <ref_pdb>
x1334_0

> <CYS145-warhead min dist (A)>
2.9201481

> <CYS145-warhead avg dist (A)>
3.4113972

> <CYS145-warhead avg dist stderr (A)>
0.03323869

> <original SMILES>
c1ccc(cc1)Cc2cnc(nc2N)C[NH+]3CCN(CC3)C(=O)CCl

$$$$
JAN-GHE-bf4-9
  -OEChem-04232002263D

 43 45  0     1  0  0  0  0  0999 V2000
    7.7548   -5.1378   26.6479 C   0  0  0  0  0  0  0  0  0  0  0  0
    5.8057   -5.2998   25.1380 C   0  0  0  0  0  0  0  0  0  0  0  0
    5.2650   -5.3942   23.9144 C   0  0  0  0  0  0  0  0  0  0  0  0
    8.0223   -4.7923   24.2878 C   0  0  0  0  0  0  0  0  0  0  0  0
    6.1497   -3.3423   21.5727 C   0  0  0  0  0  0  0  0  0  0  0  0
    7.2239   -5.0804   25.3297 C   0  0  0  0  0  0  0  0  0  0  0  0
   11.6239    3.1134   23.6038 C   0  0  0  0  0  0  0  0  0  0  0  0
   11.7042    1.9898   24.3196 C   0  0  0  0  0  0  0  0  0  0  0  0
   12.3231    0.7969   23.7075 C   0  0  0  0  0  0  0  0  0  0  0  0
   11.9637   -1.6321   23.0045 C   0  0  0  0  0  0  0  0  0  0  0  0
   10.1810   -0.3466   24.1260 C   0  0  0  0  0  0  0  0  0  0  0  0
   10.9636   -2.1263   21.9660 C   0  0  0  0  0  0  0  0  0  0  0  0
    9.1680   -0.8122   23.0920 C   0  0  0  0  0  0  0  0  0  0  0  0
    7.5077   -4.7001   22.8740 C   0  0  1  0  0  0  0  0  0  0  0  0
    6.0926   -5.2821   22.6642 C   0  0  2  0  0  0  0  0  0  0  0  0
    7.3745   -3.2471   22.4224 C   0  0  1  0  0  0  0  0  0  0  0  0
    8.5694   -2.7456   21.6310 C   0  0  0  0  0  0  0  0  0  0  0  0
    8.1880   -5.1848   27.7231 N   0  0  0  0  0  0  0  0  0  0  0  0
    5.4224   -4.4048   21.6792 N   0  0  0  0  0  0  0  0  0  0  0  0
   11.5421   -0.3498   23.5857 N   0  0  0  0  0  0  0  0  0  0  0  0
    9.5843   -2.1704   22.5783 N   0  3  0  0  0  0  0  0  0  0  0  0
   13.4945    0.8904   23.3368 O   0  0  0  0  0  0  0  0  0  0  0  0
    5.1672   -5.3740   26.0150 H   0  0  0  0  0  0  0  0  0  0  0  0
    4.1972   -5.5495   23.8101 H   0  0  0  0  0  0  0  0  0  0  0  0
    9.0901   -4.6529   24.4393 H   0  0  0  0  0  0  0  0  0  0  0  0
    5.9050   -2.5322   20.8699 H   0  0  0  0  0  0  0  0  0  0  0  0
   11.1805    4.0214   23.9985 H   0  0  0  0  0  0  0  0  0  0  0  0
   12.0094    3.1416   22.5901 H   0  0  0  0  0  0  0  0  0  0  0  0
   11.3315    1.9227   25.3333 H   0  0  0  0  0  0  0  0  0  0  0  0
   12.0546   -2.3497   23.8285 H   0  0  0  0  0  0  0  0  0  0  0  0
   12.9398   -1.5583   22.5235 H   0  0  0  0  0  0  0  0  0  0  0  0
    9.9061    0.6510   24.4830 H   0  0  0  0  0  0  0  0  0  0  0  0
   10.1754   -1.0118   24.9982 H   0  0  0  0  0  0  0  0  0  0  0  0
   10.9229   -1.4665   21.0919 H   0  0  0  0  0  0  0  0  0  0  0  0
   11.2121   -3.1437   21.6466 H   0  0  0  0  0  0  0  0  0  0  0  0
    8.1775   -0.9235   23.5449 H   0  0  0  0  0  0  0  0  0  0  0  0
    9.1079   -0.1301   22.2365 H   0  0  0  0  0  0  0  0  0  0  0  0
    8.2388   -5.2348   22.2457 H   0  0  0  0  0  0  0  0  0  0  0  0
    6.1874   -6.2929   22.2166 H   0  0  0  0  0  0  0  0  0  0  0  0
    7.1775   -2.5575   23.2688 H   0  0  0  0  0  0  0  0  0  0  0  0
    8.2893   -1.9481   20.9373 H   0  0  0  0  0  0  0  0  0  0  0  0
    9.0618   -3.5553   21.0855 H   0  0  0  0  0  0  0  0  0  0  0  0
    9.6254   -2.8071   23.3861 H   0  0  0  0  0  0  0  0  0  0  0  0
  1  6  1  0  0  0  0
  1 18  3  0  0  0  0
  2  3  2  0  0  0  0
  2  6  1  0  0  0  0
  3 15  1  0  0  0  0
  4  6  2  0  0  0  0
  4 14  1  0  0  0  0
  5 16  1  0  0  0  0
  5 19  2  0  0  0  0
  7  8  2  0  0  0  0
  8  9  1  0  0  0  0
  9 20  1  0  0  0  0
  9 22  2  0  0  0  0
 10 12  1  0  0  0  0
 10 20  1  0  0  0  0
 11 13  1  0  0  0  0
 11 20  1  0  0  0  0
 12 21  1  0  0  0  0
 13 21  1  0  0  0  0
 14 15  1  0  0  0  0
 14 16  1  0  0  0  0
 15 19  1  0  0  0  0
 16 17  1  0  0  0  0
 17 21  1  0  0  0  0
  2 23  1  0  0  0  0
  3 24  1  0  0  0  0
  4 25  1  0  0  0  0
  5 26  1  0  0  0  0
  7 27  1  0  0  0  0
  7 28  1  0  0  0  0
  8 29  1  0  0  0  0
 10 30  1  0  0  0  0
 10 31  1  0  0  0  0
 11 32  1  0  0  0  0
 11 33  1  0  0  0  0
 12 34  1  0  0  0  0
 12 35  1  0  0  0  0
 13 36  1  0  0  0  0
 13 37  1  0  0  0  0
 14 38  1  0  0  0  0
 15 39  1  0  0  0  0
 16 40  1  0  0  0  0
 17 41  1  0  0  0  0
 17 42  1  0  0  0  0
 21 43  1  0  0  0  0
M  CHG  1  21   1
M  END
> <Chemgauss4>
-7.257663

> <ref_pdb>
x1392_0

> <CYS145-warhead min dist (A)>
8.072269

> <CYS145-warhead avg dist (A)>
9.005215

> <CYS145-warhead avg dist stderr (A)>
0.027884101

> <original SMILES>
C=CC(=O)N1CC[NH+](CC1)C[C@H]2C=N[C@H]3[C@@H]2C=C(C=C3)C#N

$$$$
SEL-UNI-cd3-2
  -OEChem-04232002263D

 46 47  0     1  0  0  0  0  0999 V2000
    8.1876   -5.4090   26.9555 C   0  0  0  0  0  0  0  0  0  0  0  0
    9.3330   -5.8151   26.2708 C   0  0  0  0  0  0  0  0  0  0  0  0
    7.5003   -4.2655   26.5483 C   0  0  0  0  0  0  0  0  0  0  0  0
    9.7911   -5.0777   25.1790 C   0  0  0  0  0  0  0  0  0  0  0  0
    7.9584   -3.5281   25.4565 C   0  0  0  0  0  0  0  0  0  0  0  0
    9.1038   -3.9342   24.7718 C   0  0  0  0  0  0  0  0  0  0  0  0
    6.2613   -2.0411   19.3045 C   0  0  0  0  0  0  0  0  0  0  0  0
    6.3186   -2.8098   21.6554 C   0  0  0  0  0  0  0  0  0  0  0  0
    7.8059   -0.9546   21.0078 C   0  0  0  0  0  0  0  0  0  0  0  0
    7.4751   -3.5263   22.3370 C   0  0  0  0  0  0  0  0  0  0  0  0
    8.9853   -1.6429   21.6817 C   0  0  0  0  0  0  0  0  0  0  0  0
   11.6376    0.7213   25.7447 C   0  0  0  0  0  0  0  0  0  0  0  0
    6.8143   -1.1046   18.2601 C   0  0  0  0  0  0  0  0  0  0  0  0
   10.5885   -2.0387   24.0004 C   0  0  0  0  0  0  0  0  0  0  0  0
    9.6002   -3.1340   23.5880 C   0  0  2  0  0  0  0  0  0  0  0  0
    6.7992   -1.9346   20.5862 N   0  0  0  0  0  0  0  0  0  0  0  0
    9.8563   -0.8546   24.5090 N   0  0  0  0  0  0  0  0  0  0  0  0
    8.4756   -2.4997   22.8190 N   0  3  0  0  0  0  0  0  0  0  0  0
    5.3798   -2.8442   18.9881 O   0  0  0  0  0  0  0  0  0  0  0  0
    9.5507    1.7139   24.5159 O   0  0  0  0  0  0  0  0  0  0  0  0
   11.3948    0.6725   23.1478 O   0  0  0  0  0  0  0  0  0  0  0  0
   10.5579    0.6873   24.3322 S   0  0  0  0  0  0  0  0  0  0  0  0
    5.7999    0.3336   18.2853 Cl  0  0  0  0  0  0  0  0  0  0  0  0
    7.8303   -5.9840   27.8048 H   0  0  0  0  0  0  0  0  0  0  0  0
    9.8677   -6.7060   26.5870 H   0  0  0  0  0  0  0  0  0  0  0  0
    6.6079   -3.9497   27.0804 H   0  0  0  0  0  0  0  0  0  0  0  0
   10.6846   -5.4016   24.6516 H   0  0  0  0  0  0  0  0  0  0  0  0
    7.4166   -2.6385   25.1464 H   0  0  0  0  0  0  0  0  0  0  0  0
    5.6109   -3.5476   21.2646 H   0  0  0  0  0  0  0  0  0  0  0  0
    5.7727   -2.1845   22.3724 H   0  0  0  0  0  0  0  0  0  0  0  0
    7.3149   -0.2625   21.7027 H   0  0  0  0  0  0  0  0  0  0  0  0
    8.1712   -0.3594   20.1692 H   0  0  0  0  0  0  0  0  0  0  0  0
    7.1244   -4.0778   23.2153 H   0  0  0  0  0  0  0  0  0  0  0  0
    7.9948   -4.2090   21.6552 H   0  0  0  0  0  0  0  0  0  0  0  0
    9.5316   -2.2928   20.9891 H   0  0  0  0  0  0  0  0  0  0  0  0
    9.6692   -0.9038   22.1115 H   0  0  0  0  0  0  0  0  0  0  0  0
   12.1623    1.6780   25.7541 H   0  0  0  0  0  0  0  0  0  0  0  0
   11.0310    0.6091   26.6446 H   0  0  0  0  0  0  0  0  0  0  0  0
   12.3467   -0.1030   25.6559 H   0  0  0  0  0  0  0  0  0  0  0  0
    6.7547   -1.5851   17.2902 H   0  0  0  0  0  0  0  0  0  0  0  0
    7.8334   -0.8462   18.5241 H   0  0  0  0  0  0  0  0  0  0  0  0
   11.1920   -1.7174   23.1437 H   0  0  0  0  0  0  0  0  0  0  0  0
   11.2756   -2.3818   24.7820 H   0  0  0  0  0  0  0  0  0  0  0  0
   10.0795   -3.8054   22.8649 H   0  0  0  0  0  0  0  0  0  0  0  0
    9.3295   -1.0377   25.3689 H   0  0  0  0  0  0  0  0  0  0  0  0
    7.9858   -1.8774   23.4766 H   0  0  0  0  0  0  0  0  0  0  0  0
  1  2  1  0  0  0  0
  1  3  2  0  0  0  0
  2  4  2  0  0  0  0
  3  5  1  0  0  0  0
  4  6  1  0  0  0  0
  5  6  2  0  0  0  0
  6 15  1  0  0  0  0
  7 13  1  0  0  0  0
  7 16  1  0  0  0  0
  7 19  2  0  0  0  0
  8 10  1  0  0  0  0
  8 16  1  0  0  0  0
  9 11  1  0  0  0  0
  9 16  1  0  0  0  0
 10 18  1  0  0  0  0
 11 18  1  0  0  0  0
 12 22  1  0  0  0  0
 13 23  1  0  0  0  0
 14 15  1  0  0  0  0
 14 17  1  0  0  0  0
 15 18  1  0  0  0  0
 17 22  1  0  0  0  0
 20 22  2  0  0  0  0
 21 22  2  0  0  0  0
  1 24  1  0  0  0  0
  2 25  1  0  0  0  0
  3 26  1  0  0  0  0
  4 27  1  0  0  0  0
  5 28  1  0  0  0  0
  8 29  1  0  0  0  0
  8 30  1  0  0  0  0
  9 31  1  0  0  0  0
  9 32  1  0  0  0  0
 10 33  1  0  0  0  0
 10 34  1  0  0  0  0
 11 35  1  0  0  0  0
 11 36  1  0  0  0  0
 12 37  1  0  0  0  0
 12 38  1  0  0  0  0
 12 39  1  0  0  0  0
 13 40  1  0  0  0  0
 13 41  1  0  0  0  0
 14 42  1  0  0  0  0
 14 43  1  0  0  0  0
 15 44  1  0  0  0  0
 17 45  1  0  0  0  0
 18 46  1  0  0  0  0
M  CHG  1  18   1
M  END
> <Chemgauss4>
-7.221564

> <ref_pdb>
x1385_0

> <CYS145-warhead min dist (A)>
3.208168

> <CYS145-warhead avg dist (A)>
4.5691247

> <CYS145-warhead avg dist stderr (A)>
0.09193267

> <original SMILES>
CS(=O)(=O)NC[C@@H](c1ccccc1)[NH+]2CCN(CC2)C(=O)CCl

$$$$
MAK-UNK-e4a-20_thio_pH
  -OEChem-04232002263D

 44 46  0     0  0  0  0  0  0999 V2000
   12.1108    5.7798   22.6108 C   0  0  0  0  0  0  0  0  0  0  0  0
   13.2741    5.0337   22.4223 C   0  0  0  0  0  0  0  0  0  0  0  0
   11.1401    5.3425   23.5122 C   0  0  0  0  0  0  0  0  0  0  0  0
   13.4669    3.8503   23.1351 C   0  0  0  0  0  0  0  0  0  0  0  0
   11.3329    4.1591   24.2249 C   0  0  0  0  0  0  0  0  0  0  0  0
   13.1655    0.2461   23.0943 C   0  0  0  0  0  0  0  0  0  0  0  0
   12.4962    3.4130   24.0364 C   0  0  0  0  0  0  0  0  0  0  0  0
   12.4119    0.8936   24.0509 C   0  0  0  0  0  0  0  0  0  0  0  0
   11.4347   -1.1007   23.1178 C   0  0  0  0  0  0  0  0  0  0  0  0
    6.2561   -1.8080   19.2891 C   0  0  0  0  0  0  0  0  0  0  0  0
    6.9057   -2.4656   21.5840 C   0  0  0  0  0  0  0  0  0  0  0  0
    7.9427   -0.4481   20.6210 C   0  0  0  0  0  0  0  0  0  0  0  0
    8.2691   -2.9851   22.0163 C   0  0  0  0  0  0  0  0  0  0  0  0
    9.3225   -0.9367   21.0407 C   0  0  0  0  0  0  0  0  0  0  0  0
   12.7058    2.1217   24.8143 C   0  0  0  0  0  0  0  0  0  0  0  0
   10.5256   -2.2489   22.7917 C   0  0  0  0  0  0  0  0  0  0  0  0
    6.4409   -0.8461   18.1426 C   0  0  0  0  0  0  0  0  0  0  0  0
   12.6069   -0.8979   22.5585 N   0  0  0  0  0  0  0  0  0  0  0  0
    7.0243   -1.5755   20.4291 N   0  0  0  0  0  0  0  0  0  0  0  0
    9.1871   -1.8099   22.2681 N   0  3  0  0  0  0  0  0  0  0  0  0
    5.4548   -2.7387   19.1721 O   0  0  0  0  0  0  0  0  0  0  0  0
   10.9414    0.0455   24.2959 S   0  0  0  0  0  0  0  0  0  0  0  0
    5.2553    0.4356   18.3644 Cl  0  0  0  0  0  0  0  0  0  0  0  0
   11.9614    6.7019   22.0568 H   0  0  0  0  0  0  0  0  0  0  0  0
   14.0305    5.3746   21.7214 H   0  0  0  0  0  0  0  0  0  0  0  0
   10.2348    5.9237   23.6600 H   0  0  0  0  0  0  0  0  0  0  0  0
   14.3763    3.2754   22.9816 H   0  0  0  0  0  0  0  0  0  0  0  0
   10.5711    3.8261   24.9250 H   0  0  0  0  0  0  0  0  0  0  0  0
   14.1386    0.5666   22.7466 H   0  0  0  0  0  0  0  0  0  0  0  0
    6.2478   -3.3104   21.3573 H   0  0  0  0  0  0  0  0  0  0  0  0
    6.4336   -1.8945   22.3927 H   0  0  0  0  0  0  0  0  0  0  0  0
    7.5095    0.1959   21.3959 H   0  0  0  0  0  0  0  0  0  0  0  0
    8.0377    0.1581   19.7185 H   0  0  0  0  0  0  0  0  0  0  0  0
    8.1901   -3.5443   22.9542 H   0  0  0  0  0  0  0  0  0  0  0  0
    8.7314   -3.6152   21.2481 H   0  0  0  0  0  0  0  0  0  0  0  0
    9.8036   -1.5311   20.2560 H   0  0  0  0  0  0  0  0  0  0  0  0
    9.9652   -0.0924   21.3105 H   0  0  0  0  0  0  0  0  0  0  0  0
   13.7465    2.1167   25.1999 H   0  0  0  0  0  0  0  0  0  0  0  0
   12.0975    2.1747   25.7411 H   0  0  0  0  0  0  0  0  0  0  0  0
   10.9656   -2.8972   22.0263 H   0  0  0  0  0  0  0  0  0  0  0  0
   10.3309   -2.8630   23.6775 H   0  0  0  0  0  0  0  0  0  0  0  0
    6.2541   -1.3690   17.2116 H   0  0  0  0  0  0  0  0  0  0  0  0
    7.4439   -0.4372   18.1853 H   0  0  0  0  0  0  0  0  0  0  0  0
    8.7575   -1.2362   23.0071 H   0  0  0  0  0  0  0  0  0  0  0  0
  1  2  1  0  0  0  0
  1  3  2  0  0  0  0
  2  4  2  0  0  0  0
  3  5  1  0  0  0  0
  4  7  1  0  0  0  0
  5  7  2  0  0  0  0
  6  8  2  0  0  0  0
  6 18  1  0  0  0  0
  7 15  1  0  0  0  0
  8 15  1  0  0  0  0
  8 22  1  0  0  0  0
  9 16  1  0  0  0  0
  9 18  2  0  0  0  0
  9 22  1  0  0  0  0
 10 17  1  0  0  0  0
 10 19  1  0  0  0  0
 10 21  2  0  0  0  0
 11 13  1  0  0  0  0
 11 19  1  0  0  0  0
 12 14  1  0  0  0  0
 12 19  1  0  0  0  0
 13 20  1  0  0  0  0
 14 20  1  0  0  0  0
 16 20  1  0  0  0  0
 17 23  1  0  0  0  0
  1 24  1  0  0  0  0
  2 25  1  0  0  0  0
  3 26  1  0  0  0  0
  4 27  1  0  0  0  0
  5 28  1  0  0  0  0
  6 29  1  0  0  0  0
 11 30  1  0  0  0  0
 11 31  1  0  0  0  0
 12 32  1  0  0  0  0
 12 33  1  0  0  0  0
 13 34  1  0  0  0  0
 13 35  1  0  0  0  0
 14 36  1  0  0  0  0
 14 37  1  0  0  0  0
 15 38  1  0  0  0  0
 15 39  1  0  0  0  0
 16 40  1  0  0  0  0
 16 41  1  0  0  0  0
 17 42  1  0  0  0  0
 17 43  1  0  0  0  0
 20 44  1  0  0  0  0
M  CHG  1  20   1
M  END
> <Chemgauss4>
-7.156308

> <ref_pdb>
x0831_0

> <CYS145-warhead min dist (A)>
5.5078278

> <CYS145-warhead avg dist (A)>
6.601506

> <CYS145-warhead avg dist stderr (A)>
0.055985313

> <original SMILES>
c1ccc(cc1)Cc2cnc(s2)C[NH+]3CCN(CC3)C(=O)CCl

$$$$
BRU-LEF-ae0-1
  -OEChem-04232002263D

 43 44  0     0  0  0  0  0  0999 V2000
   11.2265    1.5879   25.8388 C   0  0  0  0  0  0  0  0  0  0  0  0
   10.8326   -0.2174   24.2256 C   0  0  0  0  0  0  0  0  0  0  0  0
   12.8262    1.0690   24.0608 C   0  0  0  0  0  0  0  0  0  0  0  0
   11.6285    0.8149   24.7094 C   0  0  0  0  0  0  0  0  0  0  0  0
   11.2528   -0.9538   23.1235 C   0  0  0  0  0  0  0  0  0  0  0  0
   12.4672   -0.6204   22.5458 C   0  0  0  0  0  0  0  0  0  0  0  0
    6.0736   -1.2189   19.2399 C   0  0  0  0  0  0  0  0  0  0  0  0
    6.7737   -2.2346   21.3845 C   0  0  0  0  0  0  0  0  0  0  0  0
    7.7115   -0.0360   20.7846 C   0  0  0  0  0  0  0  0  0  0  0  0
    8.1628   -2.7593   21.7174 C   0  0  0  0  0  0  0  0  0  0  0  0
    9.1154   -0.5273   21.1105 C   0  0  0  0  0  0  0  0  0  0  0  0
   14.5659   -0.3220   20.0363 C   0  0  0  0  0  0  0  0  0  0  0  0
   10.3921   -2.0678   22.6047 C   0  0  0  0  0  0  0  0  0  0  0  0
    5.6342    0.0955   18.6459 C   0  0  0  0  0  0  0  0  0  0  0  0
   14.2636   -1.4131   21.0062 C   0  0  0  0  0  0  0  0  0  0  0  0
   10.8994    2.2167   26.7577 N   0  0  0  0  0  0  0  0  0  0  0  0
   13.2677    0.3755   22.9876 N   0  0  0  0  0  0  0  0  0  0  0  0
    6.8418   -1.1533   20.4015 N   0  0  0  0  0  0  0  0  0  0  0  0
   12.9000   -1.3686   21.4224 N   0  0  0  0  0  0  0  0  0  0  0  0
    9.0306   -1.6054   22.1678 N   0  3  0  0  0  0  0  0  0  0  0  0
    5.7453   -2.2709   18.6854 O   0  0  0  0  0  0  0  0  0  0  0  0
    4.6374    0.8890   19.8603 Cl  0  0  0  0  0  0  0  0  0  0  0  0
    9.8839   -0.4520   24.7036 H   0  0  0  0  0  0  0  0  0  0  0  0
   13.4928    1.8613   24.3889 H   0  0  0  0  0  0  0  0  0  0  0  0
    6.1515   -3.0561   21.0157 H   0  0  0  0  0  0  0  0  0  0  0  0
    6.2848   -1.8343   22.2810 H   0  0  0  0  0  0  0  0  0  0  0  0
    7.2578    0.4436   21.6605 H   0  0  0  0  0  0  0  0  0  0  0  0
    7.7709    0.7212   20.0010 H   0  0  0  0  0  0  0  0  0  0  0  0
    8.1176   -3.4757   22.5440 H   0  0  0  0  0  0  0  0  0  0  0  0
    8.6450   -3.2250   20.8506 H   0  0  0  0  0  0  0  0  0  0  0  0
    9.6147   -0.9544   20.2335 H   0  0  0  0  0  0  0  0  0  0  0  0
    9.7229    0.2854   21.5217 H   0  0  0  0  0  0  0  0  0  0  0  0
   14.3704    0.6526   20.5074 H   0  0  0  0  0  0  0  0  0  0  0  0
   15.6231   -0.3794   19.7378 H   0  0  0  0  0  0  0  0  0  0  0  0
   13.9274   -0.4342   19.1476 H   0  0  0  0  0  0  0  0  0  0  0  0
   10.8527   -2.5530   21.7375 H   0  0  0  0  0  0  0  0  0  0  0  0
   10.2332   -2.8344   23.3707 H   0  0  0  0  0  0  0  0  0  0  0  0
    5.0495   -0.0998   17.7542 H   0  0  0  0  0  0  0  0  0  0  0  0
    6.5113    0.6960   18.4338 H   0  0  0  0  0  0  0  0  0  0  0  0
   14.4615   -2.3837   20.5279 H   0  0  0  0  0  0  0  0  0  0  0  0
   14.9119   -1.2998   21.8876 H   0  0  0  0  0  0  0  0  0  0  0  0
   12.1966   -1.8729   20.9228 H   0  0  0  0  0  0  0  0  0  0  0  0
    8.5833   -1.1886   22.9960 H   0  0  0  0  0  0  0  0  0  0  0  0
  1  4  1  0  0  0  0
  1 16  3  0  0  0  0
  2  4  2  0  0  0  0
  2  5  1  0  0  0  0
  3  4  1  0  0  0  0
  3 17  2  0  0  0  0
  5  6  2  0  0  0  0
  5 13  1  0  0  0  0
  6 17  1  0  0  0  0
  6 19  1  0  0  0  0
  7 14  1  0  0  0  0
  7 18  1  0  0  0  0
  7 21  2  0  0  0  0
  8 10  1  0  0  0  0
  8 18  1  0  0  0  0
  9 11  1  0  0  0  0
  9 18  1  0  0  0  0
 10 20  1  0  0  0  0
 11 20  1  0  0  0  0
 12 15  1  0  0  0  0
 13 20  1  0  0  0  0
 14 22  1  0  0  0  0
 15 19  1  0  0  0  0
  2 23  1  0  0  0  0
  3 24  1  0  0  0  0
  8 25  1  0  0  0  0
  8 26  1  0  0  0  0
  9 27  1  0  0  0  0
  9 28  1  0  0  0  0
 10 29  1  0  0  0  0
 10 30  1  0  0  0  0
 11 31  1  0  0  0  0
 11 32  1  0  0  0  0
 12 33  1  0  0  0  0
 12 34  1  0  0  0  0
 12 35  1  0  0  0  0
 13 36  1  0  0  0  0
 13 37  1  0  0  0  0
 14 38  1  0  0  0  0
 14 39  1  0  0  0  0
 15 40  1  0  0  0  0
 15 41  1  0  0  0  0
 19 42  1  0  0  0  0
 20 43  1  0  0  0  0
M  CHG  1  20   1
M  END
> <Chemgauss4>
-7.142884

> <ref_pdb>
x0831_0

> <CYS145-warhead min dist (A)>
4.096659

> <CYS145-warhead avg dist (A)>
6.290001

> <CYS145-warhead avg dist stderr (A)>
0.04319049

> <original SMILES>
CCNc1c(cc(cn1)C#N)C[NH+]2CCN(CC2)C(=O)CCl

$$$$
WAR-XCH-79d-4
  -OEChem-04232002263D

 40 41  0     0  0  0  0  0  0999 V2000
   10.9553    1.9579   25.2645 C   0  0  0  0  0  0  0  0  0  0  0  0
   11.9615    3.1273   23.4052 C   0  0  0  0  0  0  0  0  0  0  0  0
   11.2535    0.7375   24.6583 C   0  0  0  0  0  0  0  0  0  0  0  0
   12.2598    1.9069   22.7990 C   0  0  0  0  0  0  0  0  0  0  0  0
   11.3092    3.1528   24.6378 C   0  0  0  0  0  0  0  0  0  0  0  0
   11.9057    0.7120   23.4256 C   0  0  0  0  0  0  0  0  0  0  0  0
    6.2720   -1.9695   19.9061 C   0  0  0  0  0  0  0  0  0  0  0  0
    8.6606   -0.1132   21.9073 C   0  0  0  0  0  0  0  0  0  0  0  0
    8.9838   -2.6074   22.1590 C   0  0  0  0  0  0  0  0  0  0  0  0
    8.1473   -0.3525   20.4866 C   0  0  0  0  0  0  0  0  0  0  0  0
    8.4532   -2.7894   20.7369 C   0  0  0  0  0  0  0  0  0  0  0  0
    9.6074   -1.2233   22.3777 C   0  0  0  0  0  0  0  0  0  0  0  0
   10.9899    4.4578   25.2853 C   0  0  0  0  0  0  0  0  0  0  0  0
    5.4270   -0.7863   19.5060 C   0  0  0  0  0  0  0  0  0  0  0  0
    7.5589   -1.6916   20.3660 N   0  0  0  0  0  0  0  0  0  0  0  0
   10.8940   -1.1168   21.7291 N   0  0  0  0  0  0  0  0  0  0  0  0
    5.7998   -3.1055   19.8138 O   0  0  0  0  0  0  0  0  0  0  0  0
   13.4212   -0.6306   21.7791 O   0  0  0  0  0  0  0  0  0  0  0  0
   12.3497   -1.8262   23.7148 O   0  0  0  0  0  0  0  0  0  0  0  0
   12.2857   -0.8345   22.6584 S   0  0  0  0  0  0  0  0  0  0  0  0
    5.7598   -0.4817   17.8047 Cl  0  0  0  0  0  0  0  0  0  0  0  0
   10.4466    1.9679   26.2247 H   0  0  0  0  0  0  0  0  0  0  0  0
   12.2407    4.0533   22.9094 H   0  0  0  0  0  0  0  0  0  0  0  0
   10.9728   -0.1876   25.1548 H   0  0  0  0  0  0  0  0  0  0  0  0
   12.7678    1.8986   21.8383 H   0  0  0  0  0  0  0  0  0  0  0  0
    9.1668    0.8585   21.9491 H   0  0  0  0  0  0  0  0  0  0  0  0
    7.8033   -0.0575   22.5899 H   0  0  0  0  0  0  0  0  0  0  0  0
    8.1547   -2.7417   22.8656 H   0  0  0  0  0  0  0  0  0  0  0  0
    9.7173   -3.3933   22.3752 H   0  0  0  0  0  0  0  0  0  0  0  0
    7.4323    0.4312   20.2296 H   0  0  0  0  0  0  0  0  0  0  0  0
    8.9630   -0.2881   19.7573 H   0  0  0  0  0  0  0  0  0  0  0  0
    9.2741   -2.8038   20.0109 H   0  0  0  0  0  0  0  0  0  0  0  0
    7.9390   -3.7529   20.6605 H   0  0  0  0  0  0  0  0  0  0  0  0
    9.7789   -1.0887   23.4670 H   0  0  0  0  0  0  0  0  0  0  0  0
   11.8164    4.7754   25.9326 H   0  0  0  0  0  0  0  0  0  0  0  0
   10.8132    5.2412   24.5370 H   0  0  0  0  0  0  0  0  0  0  0  0
   10.0785    4.3883   25.8935 H   0  0  0  0  0  0  0  0  0  0  0  0
    5.7185    0.0714   20.1015 H   0  0  0  0  0  0  0  0  0  0  0  0
    4.3816   -1.0391   19.6414 H   0  0  0  0  0  0  0  0  0  0  0  0
   10.9715   -1.5996   20.8330 H   0  0  0  0  0  0  0  0  0  0  0  0
  1  3  2  0  0  0  0
  1  5  1  0  0  0  0
  2  4  1  0  0  0  0
  2  5  2  0  0  0  0
  3  6  1  0  0  0  0
  4  6  2  0  0  0  0
  5 13  1  0  0  0  0
  6 20  1  0  0  0  0
  7 14  1  0  0  0  0
  7 15  1  0  0  0  0
  7 17  2  0  0  0  0
  8 10  1  0  0  0  0
  8 12  1  0  0  0  0
  9 11  1  0  0  0  0
  9 12  1  0  0  0  0
 10 15  1  0  0  0  0
 11 15  1  0  0  0  0
 12 16  1  0  0  0  0
 14 21  1  0  0  0  0
 16 20  1  0  0  0  0
 18 20  2  0  0  0  0
 19 20  2  0  0  0  0
  1 22  1  0  0  0  0
  2 23  1  0  0  0  0
  3 24  1  0  0  0  0
  4 25  1  0  0  0  0
  8 26  1  0  0  0  0
  8 27  1  0  0  0  0
  9 28  1  0  0  0  0
  9 29  1  0  0  0  0
 10 30  1  0  0  0  0
 10 31  1  0  0  0  0
 11 32  1  0  0  0  0
 11 33  1  0  0  0  0
 12 34  1  0  0  0  0
 13 35  1  0  0  0  0
 13 36  1  0  0  0  0
 13 37  1  0  0  0  0
 14 38  1  0  0  0  0
 14 39  1  0  0  0  0
 16 40  1  0  0  0  0
M  END
> <Chemgauss4>
-7.116641

> <ref_pdb>
x0830_0

> <CYS145-warhead min dist (A)>
5.2977223

> <CYS145-warhead avg dist (A)>
6.144863

> <CYS145-warhead avg dist stderr (A)>
0.070947744

> <original SMILES>
Cc1ccc(cc1)S(=O)(=O)NC2CCN(CC2)C(=O)CCl

$$$$
DAV-CRI-3ed-2
  -OEChem-04232002263D

 26 26  0     1  0  0  0  0  0999 V2000
    9.6712   -2.9894   22.7587 C   0  0  0  0  0  0  0  0  0  0  0  0
    9.0713   -4.9223   24.0781 C   0  0  0  0  0  0  0  0  0  0  0  0
    7.6978   -4.2672   22.2015 C   0  0  0  0  0  0  0  0  0  0  0  0
    9.9290   -3.8521   23.8240 C   0  0  0  0  0  0  0  0  0  0  0  0
    8.5555   -3.1969   21.9474 C   0  0  0  0  0  0  0  0  0  0  0  0
    7.9557   -5.1299   23.2668 C   0  0  0  0  0  0  0  0  0  0  0  0
   12.8514   -1.8675   24.9073 C   0  0  0  0  0  0  0  0  0  0  0  0
   10.9229   -4.1185   26.1334 C   0  0  0  0  0  0  0  0  0  0  0  0
   13.0514   -0.3744   24.8532 C   0  0  0  0  0  0  0  0  0  0  0  0
   11.1215   -3.6289   24.6911 C   0  0  2  0  0  0  0  0  0  0  0  0
   11.5382   -2.2368   24.7000 N   0  0  0  0  0  0  0  0  0  0  0  0
   13.7878   -2.6408   25.1013 O   0  0  0  0  0  0  0  0  0  0  0  0
    8.3036   -2.3552   20.9079 O   0  0  0  0  0  0  0  0  0  0  0  0
    6.8979   -6.4509   23.5794 Cl  0  0  0  0  0  0  0  0  0  0  0  0
   11.8431    0.2970   23.7468 Cl  0  0  0  0  0  0  0  0  0  0  0  0
   10.3369   -2.1533   22.5599 H   0  0  0  0  0  0  0  0  0  0  0  0
    9.2770   -5.5921   24.9102 H   0  0  0  0  0  0  0  0  0  0  0  0
    6.8303   -4.4221   21.5642 H   0  0  0  0  0  0  0  0  0  0  0  0
   10.0676   -3.6159   26.5982 H   0  0  0  0  0  0  0  0  0  0  0  0
   10.7400   -5.1985   26.1650 H   0  0  0  0  0  0  0  0  0  0  0  0
   11.8063   -3.9236   26.7517 H   0  0  0  0  0  0  0  0  0  0  0  0
   12.9339    0.1007   25.8303 H   0  0  0  0  0  0  0  0  0  0  0  0
   14.0509   -0.1555   24.4675 H   0  0  0  0  0  0  0  0  0  0  0  0
   11.9937   -4.1739   24.2884 H   0  0  0  0  0  0  0  0  0  0  0  0
   10.8444   -1.5165   24.5497 H   0  0  0  0  0  0  0  0  0  0  0  0
    8.9848   -1.6656   20.8608 H   0  0  0  0  0  0  0  0  0  0  0  0
  1  4  1  0  0  0  0
  1  5  2  0  0  0  0
  2  4  2  0  0  0  0
  2  6  1  0  0  0  0
  3  5  1  0  0  0  0
  3  6  2  0  0  0  0
  4 10  1  0  0  0  0
  5 13  1  0  0  0  0
  6 14  1  0  0  0  0
  7  9  1  0  0  0  0
  7 11  1  0  0  0  0
  7 12  2  0  0  0  0
  8 10  1  0  0  0  0
  9 15  1  0  0  0  0
 10 11  1  0  0  0  0
  1 16  1  0  0  0  0
  2 17  1  0  0  0  0
  3 18  1  0  0  0  0
  8 19  1  0  0  0  0
  8 20  1  0  0  0  0
  8 21  1  0  0  0  0
  9 22  1  0  0  0  0
  9 23  1  0  0  0  0
 10 24  1  0  0  0  0
 11 25  1  0  0  0  0
 13 26  1  0  0  0  0
M  END
> <Chemgauss4>
-7.091048

> <ref_pdb>
x0749_0

> <CYS145-warhead min dist (A)>
7.954474

> <CYS145-warhead avg dist (A)>
9.06817

> <CYS145-warhead avg dist stderr (A)>
0.04544161

> <original SMILES>
C[C@@H](c1cc(cc(c1)Cl)O)NC(=O)CCl

$$$$
DAV-CRI-eab-5
  -OEChem-04232002263D

 34 35  0     1  0  0  0  0  0999 V2000
    7.9148   -1.3838   24.4586 C   0  0  0  0  0  0  0  0  0  0  0  0
   10.3374   -1.5707   24.5477 C   0  0  0  0  0  0  0  0  0  0  0  0
    9.1903   -1.1392   25.0932 C   0  0  0  0  0  0  0  0  0  0  0  0
    7.8323   -1.8356   23.1939 C   0  0  0  0  0  0  0  0  0  0  0  0
    5.9922   -1.6747   20.1226 C   0  0  0  0  0  0  0  0  0  0  0  0
   11.4745   -1.8903   22.3094 C   0  0  0  0  0  0  0  0  0  0  0  0
    9.4100   -0.9480   21.4464 C   0  0  0  0  0  0  0  0  0  0  0  0
   10.3539   -2.3241   23.2409 C   0  0  2  0  0  0  0  0  0  0  0  0
    9.0829   -2.1138   22.3865 C   0  0  1  0  0  0  0  0  0  0  0  0
    5.3657   -1.6612   23.4042 C   0  0  0  0  0  0  0  0  0  0  0  0
    6.1781   -0.6795   19.0058 C   0  0  0  0  0  0  0  0  0  0  0  0
    6.5173   -2.0697   22.5122 C   0  0  1  0  0  0  0  0  0  0  0  0
    6.5869   -1.2821   21.3166 N   0  0  0  0  0  0  0  0  0  0  0  0
   10.8899   -0.7448   21.5530 N   0  3  0  0  0  0  0  0  0  0  0  0
    5.3564   -2.7155   19.9650 O   0  0  0  0  0  0  0  0  0  0  0  0
    9.1940   -0.3193   26.6121 Cl  0  0  0  0  0  0  0  0  0  0  0  0
    5.4503    0.8522   19.5146 Cl  0  0  0  0  0  0  0  0  0  0  0  0
    7.0187   -1.1983   25.0340 H   0  0  0  0  0  0  0  0  0  0  0  0
   11.2844   -1.3994   25.0349 H   0  0  0  0  0  0  0  0  0  0  0  0
   12.3582   -1.5062   22.8321 H   0  0  0  0  0  0  0  0  0  0  0  0
   11.7690   -2.6571   21.5863 H   0  0  0  0  0  0  0  0  0  0  0  0
    9.1727   -1.1540   20.3912 H   0  0  0  0  0  0  0  0  0  0  0  0
    8.9358    0.0008   21.7482 H   0  0  0  0  0  0  0  0  0  0  0  0
   10.4443   -3.3819   23.4550 H   0  0  0  0  0  0  0  0  0  0  0  0
    8.9167   -3.0098   21.8007 H   0  0  0  0  0  0  0  0  0  0  0  0
    5.4291   -0.6051   23.6909 H   0  0  0  0  0  0  0  0  0  0  0  0
    4.4105   -1.8075   22.8889 H   0  0  0  0  0  0  0  0  0  0  0  0
    5.3544   -2.2534   24.3253 H   0  0  0  0  0  0  0  0  0  0  0  0
    7.2307   -0.5056   18.7693 H   0  0  0  0  0  0  0  0  0  0  0  0
    5.6654   -1.0393   18.1095 H   0  0  0  0  0  0  0  0  0  0  0  0
    6.4520   -3.1208   22.2284 H   0  0  0  0  0  0  0  0  0  0  0  0
    7.0939   -0.3968   21.3427 H   0  0  0  0  0  0  0  0  0  0  0  0
   11.1176    0.1671   21.9992 H   0  0  0  0  0  0  0  0  0  0  0  0
   11.3071   -0.6974   20.6015 H   0  0  0  0  0  0  0  0  0  0  0  0
  1  3  1  0  0  0  0
  1  4  2  0  0  0  0
  2  3  2  0  0  0  0
  2  8  1  0  0  0  0
  3 16  1  0  0  0  0
  4  9  1  0  0  0  0
  4 12  1  0  0  0  0
  5 11  1  0  0  0  0
  5 13  1  0  0  0  0
  5 15  2  0  0  0  0
  6  8  1  0  0  0  0
  6 14  1  0  0  0  0
  7  9  1  0  0  0  0
  7 14  1  0  0  0  0
  8  9  1  0  0  0  0
 10 12  1  0  0  0  0
 11 17  1  0  0  0  0
 12 13  1  0  0  0  0
  1 18  1  0  0  0  0
  2 19  1  0  0  0  0
  6 20  1  0  0  0  0
  6 21  1  0  0  0  0
  7 22  1  0  0  0  0
  7 23  1  0  0  0  0
  8 24  1  0  0  0  0
  9 25  1  0  0  0  0
 10 26  1  0  0  0  0
 10 27  1  0  0  0  0
 10 28  1  0  0  0  0
 11 29  1  0  0  0  0
 11 30  1  0  0  0  0
 12 31  1  0  0  0  0
 13 32  1  0  0  0  0
 14 33  1  0  0  0  0
 14 34  1  0  0  0  0
M  CHG  1  14   1
M  END
> <Chemgauss4>
-7.074773

> <ref_pdb>
x0831_0

> <CYS145-warhead min dist (A)>
5.1511497

> <CYS145-warhead avg dist (A)>
6.399548

> <CYS145-warhead avg dist stderr (A)>
0.020996206

> <original SMILES>
C[C@H](C1=CC(=C[C@H]2[C@@H]1C[NH2+]C2)Cl)NC(=O)CCl

$$$$
VIT-UNK-026-3
  -OEChem-04232002263D

 46 47  0     1  0  0  0  0  0999 V2000
    8.8360   -5.1127   24.3509 C   0  0  0  0  0  0  0  0  0  0  0  0
    7.4501   -3.1818   24.7844 C   0  0  0  0  0  0  0  0  0  0  0  0
    7.7278   -5.7957   23.8501 C   0  0  0  0  0  0  0  0  0  0  0  0
    6.3419   -3.8648   24.2835 C   0  0  0  0  0  0  0  0  0  0  0  0
   12.1746   -1.3626   26.0495 C   0  0  0  0  0  0  0  0  0  0  0  0
   13.5642   -3.2955   25.6375 C   0  0  0  0  0  0  0  0  0  0  0  0
   14.5331   -1.2876   26.5684 C   0  0  0  0  0  0  0  0  0  0  0  0
    8.6972   -3.8058   24.8182 C   0  0  0  0  0  0  0  0  0  0  0  0
   12.3149   -2.6762   25.6018 C   0  0  0  0  0  0  0  0  0  0  0  0
    6.4807   -5.1718   23.8163 C   0  0  0  0  0  0  0  0  0  0  0  0
   13.2838   -0.6683   26.5327 C   0  0  0  0  0  0  0  0  0  0  0  0
   14.6733   -2.6012   26.1207 C   0  0  0  0  0  0  0  0  0  0  0  0
    9.8527   -3.0934   25.3406 C   0  0  0  0  0  0  0  0  0  0  0  0
   11.1448   -3.4099   25.0880 C   0  0  0  0  0  0  0  0  0  0  0  0
    5.8839   -2.9357   21.2804 C   0  0  0  0  0  0  0  0  0  0  0  0
    6.2549   -4.1918   20.9974 C   0  0  0  0  0  0  0  0  0  0  0  0
    6.9096   -1.8807   21.4845 C   0  0  0  0  0  0  0  0  0  0  0  0
    5.2775   -5.3126   20.7828 C   0  0  0  0  0  0  0  0  0  0  0  0
    5.4622   -6.4142   21.8304 C   0  0  0  0  0  0  0  0  0  0  0  0
    5.2812   -5.9115   23.2715 C   0  0  1  0  0  0  0  0  0  0  0  0
    6.3522   -0.6547   21.7656 N   0  0  0  0  0  0  0  0  0  0  0  0
    8.1155   -2.0890   21.4088 O   0  0  0  0  0  0  0  0  0  0  0  0
   13.1475    0.6141   26.9686 O   0  0  0  0  0  0  0  0  0  0  0  0
   15.8923   -3.2055   26.1563 O   0  0  0  0  0  0  0  0  0  0  0  0
    5.0262   -7.0279   24.1260 O   0  0  0  0  0  0  0  0  0  0  0  0
    9.8016   -5.6124   24.3711 H   0  0  0  0  0  0  0  0  0  0  0  0
    7.3262   -2.1633   25.1446 H   0  0  0  0  0  0  0  0  0  0  0  0
    7.8453   -6.8136   23.4877 H   0  0  0  0  0  0  0  0  0  0  0  0
    5.3738   -3.3712   24.2609 H   0  0  0  0  0  0  0  0  0  0  0  0
   11.2046   -0.8709   26.0227 H   0  0  0  0  0  0  0  0  0  0  0  0
   13.6833   -4.3197   25.2905 H   0  0  0  0  0  0  0  0  0  0  0  0
   15.3974   -0.7464   26.9454 H   0  0  0  0  0  0  0  0  0  0  0  0
    9.6354   -2.2166   25.9606 H   0  0  0  0  0  0  0  0  0  0  0  0
   11.3771   -4.2471   24.4342 H   0  0  0  0  0  0  0  0  0  0  0  0
    4.8362   -2.6664   21.3637 H   0  0  0  0  0  0  0  0  0  0  0  0
    7.3077   -4.4522   20.9209 H   0  0  0  0  0  0  0  0  0  0  0  0
    5.3888   -5.7382   19.7781 H   0  0  0  0  0  0  0  0  0  0  0  0
    4.2659   -4.8950   20.8426 H   0  0  0  0  0  0  0  0  0  0  0  0
    4.7350   -7.2173   21.6473 H   0  0  0  0  0  0  0  0  0  0  0  0
    6.4463   -6.8874   21.7137 H   0  0  0  0  0  0  0  0  0  0  0  0
    4.3929   -5.2701   23.3228 H   0  0  0  0  0  0  0  0  0  0  0  0
    5.3499   -0.5035   21.8240 H   0  0  0  0  0  0  0  0  0  0  0  0
    6.9401    0.1564   21.9277 H   0  0  0  0  0  0  0  0  0  0  0  0
   12.2253    0.9029   26.8804 H   0  0  0  0  0  0  0  0  0  0  0  0
   15.8287   -4.1116   25.8146 H   0  0  0  0  0  0  0  0  0  0  0  0
    4.2555   -7.4837   23.7563 H   0  0  0  0  0  0  0  0  0  0  0  0
  1  3  2  0  0  0  0
  1  8  1  0  0  0  0
  2  4  1  0  0  0  0
  2  8  2  0  0  0  0
  3 10  1  0  0  0  0
  4 10  2  0  0  0  0
  5  9  1  0  0  0  0
  5 11  2  0  0  0  0
  6  9  2  0  0  0  0
  6 12  1  0  0  0  0
  7 11  1  0  0  0  0
  7 12  2  0  0  0  0
  8 13  1  0  0  0  0
  9 14  1  0  0  0  0
 10 20  1  0  0  0  0
 11 23  1  0  0  0  0
 12 24  1  0  0  0  0
 13 14  2  0  0  0  0
 15 16  2  0  0  0  0
 15 17  1  0  0  0  0
 16 18  1  0  0  0  0
 17 21  1  0  0  0  0
 17 22  2  0  0  0  0
 18 19  1  0  0  0  0
 19 20  1  0  0  0  0
 20 25  1  0  0  0  0
  1 26  1  0  0  0  0
  2 27  1  0  0  0  0
  3 28  1  0  0  0  0
  4 29  1  0  0  0  0
  5 30  1  0  0  0  0
  6 31  1  0  0  0  0
  7 32  1  0  0  0  0
 13 33  1  0  0  0  0
 14 34  1  0  0  0  0
 15 35  1  0  0  0  0
 16 36  1  0  0  0  0
 18 37  1  0  0  0  0
 18 38  1  0  0  0  0
 19 39  1  0  0  0  0
 19 40  1  0  0  0  0
 20 41  1  0  0  0  0
 21 42  1  0  0  0  0
 21 43  1  0  0  0  0
 23 44  1  0  0  0  0
 24 45  1  0  0  0  0
 25 46  1  0  0  0  0
M  END
> <Chemgauss4>
-7.070283

> <ref_pdb>
x0749_0

> <original SMILES>
c1cc(ccc1/C=C/c2cc(cc(c2)O)O)[C@@H](CC/C=C/C(=O)N)O

$$$$
DAN-PUR-390-2
  -OEChem-04232002263D

 38 38  0     1  0  0  0  0  0999 V2000
    6.8778   -2.3737   21.9783 C   0  0  0  0  0  0  0  0  0  0  0  0
    6.0019   -3.8939   24.4745 C   0  0  0  0  0  0  0  0  0  0  0  0
   11.1661   -2.9701   24.3901 C   0  0  0  0  0  0  0  0  0  0  0  0
    6.7260   -6.4806   22.0347 C   0  0  0  0  0  0  0  0  0  0  0  0
    9.1807   -2.6108   22.8561 C   0  0  0  0  0  0  0  0  0  0  0  0
    9.5374   -4.7695   24.0359 C   0  0  0  0  0  0  0  0  0  0  0  0
    7.6955   -2.6270   23.2112 C   0  0  2  0  0  0  0  0  0  0  0  0
    8.0894   -5.0781   23.6242 C   0  0  2  0  0  0  0  0  0  0  0  0
    7.1448   -1.0892   21.2413 C   0  0  0  0  0  0  0  0  0  0  0  0
    5.5368   -5.2115   25.0423 C   0  0  0  0  0  0  0  0  0  0  0  0
   11.8319   -3.9289   25.3443 C   0  0  0  0  0  0  0  0  0  0  0  0
    7.9857   -5.6685   22.2159 C   0  0  0  0  0  0  0  0  0  0  0  0
    9.9697   -3.3918   23.8053 N   0  0  0  0  0  0  0  0  0  0  0  0
    7.2207   -3.8941   23.7814 N   0  0  0  0  0  0  0  0  0  0  0  0
    6.9219   -7.8074   22.3527 N   0  0  0  0  0  0  0  0  0  0  0  0
    6.0324   -3.1776   21.5883 O   0  0  0  0  0  0  0  0  0  0  0  0
    5.3017   -2.8900   24.6348 O   0  0  0  0  0  0  0  0  0  0  0  0
   11.6920   -1.8768   24.1642 O   0  0  0  0  0  0  0  0  0  0  0  0
    5.6540   -6.0222   21.6506 O   0  0  0  0  0  0  0  0  0  0  0  0
   13.3148   -3.1515   25.8870 Cl  0  0  0  0  0  0  0  0  0  0  0  0
    9.3360   -2.9744   21.8366 H   0  0  0  0  0  0  0  0  0  0  0  0
    9.5610   -1.5846   22.8988 H   0  0  0  0  0  0  0  0  0  0  0  0
    9.6584   -4.9580   25.1260 H   0  0  0  0  0  0  0  0  0  0  0  0
   10.2238   -5.4977   23.5555 H   0  0  0  0  0  0  0  0  0  0  0  0
    7.4840   -1.8111   23.8891 H   0  0  0  0  0  0  0  0  0  0  0  0
    7.7340   -5.8547   24.3191 H   0  0  0  0  0  0  0  0  0  0  0  0
    7.9232   -1.2499   20.4902 H   0  0  0  0  0  0  0  0  0  0  0  0
    7.4858   -0.3267   21.9459 H   0  0  0  0  0  0  0  0  0  0  0  0
    6.2323   -0.7582   20.7395 H   0  0  0  0  0  0  0  0  0  0  0  0
    5.9247   -5.3192   26.0494 H   0  0  0  0  0  0  0  0  0  0  0  0
    5.9032   -6.0169   24.4146 H   0  0  0  0  0  0  0  0  0  0  0  0
    4.4521   -5.2269   25.0579 H   0  0  0  0  0  0  0  0  0  0  0  0
   12.0646   -4.8463   24.8156 H   0  0  0  0  0  0  0  0  0  0  0  0
   11.1720   -4.1013   26.1868 H   0  0  0  0  0  0  0  0  0  0  0  0
    8.8521   -6.3067   22.0353 H   0  0  0  0  0  0  0  0  0  0  0  0
    7.9936   -4.8541   21.4897 H   0  0  0  0  0  0  0  0  0  0  0  0
    7.8370   -8.1174   22.6639 H   0  0  0  0  0  0  0  0  0  0  0  0
    6.1645   -8.4786   22.2803 H   0  0  0  0  0  0  0  0  0  0  0  0
  1  7  1  0  0  0  0
  1  9  1  0  0  0  0
  1 16  2  0  0  0  0
  2 10  1  0  0  0  0
  2 14  1  0  0  0  0
  2 17  2  0  0  0  0
  3 11  1  0  0  0  0
  3 13  1  0  0  0  0
  3 18  2  0  0  0  0
  4 12  1  0  0  0  0
  4 15  1  0  0  0  0
  4 19  2  0  0  0  0
  5  7  1  0  0  0  0
  5 13  1  0  0  0  0
  6  8  1  0  0  0  0
  6 13  1  0  0  0  0
  7 14  1  0  0  0  0
  8 12  1  0  0  0  0
  8 14  1  0  0  0  0
 11 20  1  0  0  0  0
  5 21  1  0  0  0  0
  5 22  1  0  0  0  0
  6 23  1  0  0  0  0
  6 24  1  0  0  0  0
  7 25  1  0  0  0  0
  8 26  1  0  0  0  0
  9 27  1  0  0  0  0
  9 28  1  0  0  0  0
  9 29  1  0  0  0  0
 10 30  1  0  0  0  0
 10 31  1  0  0  0  0
 10 32  1  0  0  0  0
 11 33  1  0  0  0  0
 11 34  1  0  0  0  0
 12 35  1  0  0  0  0
 12 36  1  0  0  0  0
 15 37  1  0  0  0  0
 15 38  1  0  0  0  0
M  END
> <Chemgauss4>
-7.026890

> <ref_pdb>
x0749_0

> <CYS145-warhead min dist (A)>
5.3260303

> <CYS145-warhead avg dist (A)>
6.6863832

> <CYS145-warhead avg dist stderr (A)>
0.042954903

> <original SMILES>
CC(=O)[C@@H]1CN(C[C@@H](N1C(=O)C)CC(=O)N)C(=O)CCl

$$$$
NIR-THE-ed2-2
  -OEChem-04232002263D

 58 61  0     0  0  0  0  0  0999 V2000
   14.2811   -2.8215   26.7487 C   0  0  0  0  0  0  0  0  0  0  0  0
    6.0349   -1.9184   23.7415 C   0  0  0  0  0  0  0  0  0  0  0  0
   11.9054   -4.0168   25.5244 C   0  0  0  0  0  0  0  0  0  0  0  0
    5.6193   -1.8264   22.4132 C   0  0  0  0  0  0  0  0  0  0  0  0
    7.1046   -2.7465   24.0818 C   0  0  0  0  0  0  0  0  0  0  0  0
   10.7678   -4.5608   24.9255 C   0  0  0  0  0  0  0  0  0  0  0  0
   10.3813   -2.4826   23.7582 C   0  0  0  0  0  0  0  0  0  0  0  0
    7.3429   -3.3907   21.7655 C   0  0  0  0  0  0  0  0  0  0  0  0
   13.7515   -0.8131   25.5076 C   0  0  0  0  0  0  0  0  0  0  0  0
   13.4316   -2.1227   25.8318 C   0  0  0  0  0  0  0  0  0  0  0  0
   12.2966   -2.6966   25.2476 C   0  0  0  0  0  0  0  0  0  0  0  0
   11.5242   -1.9250   24.3550 C   0  0  0  0  0  0  0  0  0  0  0  0
    6.2732   -2.5625   21.4252 C   0  0  0  0  0  0  0  0  0  0  0  0
   10.0075   -3.7954   24.0444 C   0  0  0  0  0  0  0  0  0  0  0  0
    7.7585   -3.4826   23.0938 C   0  0  0  0  0  0  0  0  0  0  0  0
   11.9439   -0.6171   24.1044 C   0  0  0  0  0  0  0  0  0  0  0  0
    5.8348   -2.4647   20.0280 C   0  0  0  0  0  0  0  0  0  0  0  0
    8.8143   -5.7446   23.1921 C   0  0  0  0  0  0  0  0  0  0  0  0
    6.1100   -1.2507   17.8041 C   0  0  0  0  0  0  0  0  0  0  0  0
    7.3855   -0.5528   19.8048 C   0  0  0  0  0  0  0  0  0  0  0  0
    5.4073    0.0867   17.6041 C   0  0  0  0  0  0  0  0  0  0  0  0
    6.8342    0.8677   19.8383 C   0  0  0  0  0  0  0  0  0  0  0  0
   10.5876    2.1451   21.9464 C   0  0  0  0  0  0  0  0  0  0  0  0
    7.4433   -6.4010   23.2218 C   0  0  0  0  0  0  0  0  0  0  0  0
   11.5542    1.5351   22.9036 C   0  0  0  0  0  0  0  0  0  0  0  0
   14.9695   -3.3877   27.4918 N   0  0  0  0  0  0  0  0  0  0  0  0
   13.0365   -0.0448   24.6584 N   0  0  0  0  0  0  0  0  0  0  0  0
    6.4201   -1.4846   19.2209 N   0  0  0  0  0  0  0  0  0  0  0  0
   11.1933    0.1905   23.2127 N   0  0  0  0  0  0  0  0  0  0  0  0
    8.8714   -4.3437   23.4480 N   0  0  0  0  0  0  0  0  0  0  0  0
    4.9777   -3.2718   19.6718 O   0  0  0  0  0  0  0  0  0  0  0  0
    9.8126   -6.4167   22.9142 O   0  0  0  0  0  0  0  0  0  0  0  0
    6.4482    1.4730   18.1641 S   0  0  0  0  0  0  0  0  0  0  0  0
    7.6375   -8.1069   23.6851 Cl  0  0  0  0  0  0  0  0  0  0  0  0
    5.5261   -1.3450   24.5108 H   0  0  0  0  0  0  0  0  0  0  0  0
   12.4701   -4.6486   26.2059 H   0  0  0  0  0  0  0  0  0  0  0  0
    4.7840   -1.1787   22.1602 H   0  0  0  0  0  0  0  0  0  0  0  0
    7.4198   -2.8110   25.1204 H   0  0  0  0  0  0  0  0  0  0  0  0
   10.4845   -5.5851   25.1547 H   0  0  0  0  0  0  0  0  0  0  0  0
    9.7698   -1.9062   23.0669 H   0  0  0  0  0  0  0  0  0  0  0  0
    7.8523   -3.9657   20.9950 H   0  0  0  0  0  0  0  0  0  0  0  0
   14.6206   -0.3182   25.9325 H   0  0  0  0  0  0  0  0  0  0  0  0
    5.4759   -2.0482   17.4077 H   0  0  0  0  0  0  0  0  0  0  0  0
    7.0518   -1.2917   17.2428 H   0  0  0  0  0  0  0  0  0  0  0  0
    8.3117   -0.6087   19.2202 H   0  0  0  0  0  0  0  0  0  0  0  0
    7.6331   -0.8627   20.8259 H   0  0  0  0  0  0  0  0  0  0  0  0
    5.1896    0.2357   16.5419 H   0  0  0  0  0  0  0  0  0  0  0  0
    4.4540    0.1140   18.1428 H   0  0  0  0  0  0  0  0  0  0  0  0
    5.9307    0.9231   20.4553 H   0  0  0  0  0  0  0  0  0  0  0  0
    7.5748    1.5421   20.2796 H   0  0  0  0  0  0  0  0  0  0  0  0
    9.5805    2.1408   22.3888 H   0  0  0  0  0  0  0  0  0  0  0  0
   10.8890    3.1808   21.7311 H   0  0  0  0  0  0  0  0  0  0  0  0
   10.5802    1.5637   21.0126 H   0  0  0  0  0  0  0  0  0  0  0  0
    6.9523   -6.3998   22.2475 H   0  0  0  0  0  0  0  0  0  0  0  0
    6.8129   -5.9127   23.9686 H   0  0  0  0  0  0  0  0  0  0  0  0
   12.5581    1.5431   22.4541 H   0  0  0  0  0  0  0  0  0  0  0  0
   11.5629    2.1267   23.8310 H   0  0  0  0  0  0  0  0  0  0  0  0
   10.3846   -0.2292   22.8028 H   0  0  0  0  0  0  0  0  0  0  0  0
  1 10  1  0  0  0  0
  1 26  3  0  0  0  0
  2  4  1  0  0  0  0
  2  5  2  0  0  0  0
  3  6  2  0  0  0  0
  3 11  1  0  0  0  0
  4 13  2  0  0  0  0
  5 15  1  0  0  0  0
  6 14  1  0  0  0  0
  7 12  1  0  0  0  0
  7 14  2  0  0  0  0
  8 13  1  0  0  0  0
  8 15  2  0  0  0  0
  9 10  1  0  0  0  0
  9 27  2  0  0  0  0
 10 11  2  0  0  0  0
 11 12  1  0  0  0  0
 12 16  2  0  0  0  0
 13 17  1  0  0  0  0
 14 30  1  0  0  0  0
 15 30  1  0  0  0  0
 16 27  1  0  0  0  0
 16 29  1  0  0  0  0
 17 28  1  0  0  0  0
 17 31  2  0  0  0  0
 18 24  1  0  0  0  0
 18 30  1  0  0  0  0
 18 32  2  0  0  0  0
 19 21  1  0  0  0  0
 19 28  1  0  0  0  0
 20 22  1  0  0  0  0
 20 28  1  0  0  0  0
 21 33  1  0  0  0  0
 22 33  1  0  0  0  0
 23 25  1  0  0  0  0
 24 34  1  0  0  0  0
 25 29  1  0  0  0  0
  2 35  1  0  0  0  0
  3 36  1  0  0  0  0
  4 37  1  0  0  0  0
  5 38  1  0  0  0  0
  6 39  1  0  0  0  0
  7 40  1  0  0  0  0
  8 41  1  0  0  0  0
  9 42  1  0  0  0  0
 19 43  1  0  0  0  0
 19 44  1  0  0  0  0
 20 45  1  0  0  0  0
 20 46  1  0  0  0  0
 21 47  1  0  0  0  0
 21 48  1  0  0  0  0
 22 49  1  0  0  0  0
 22 50  1  0  0  0  0
 23 51  1  0  0  0  0
 23 52  1  0  0  0  0
 23 53  1  0  0  0  0
 24 54  1  0  0  0  0
 24 55  1  0  0  0  0
 25 56  1  0  0  0  0
 25 57  1  0  0  0  0
 29 58  1  0  0  0  0
M  END
> <Chemgauss4>
-6.970510

> <ref_pdb>
x0749_0

> <CYS145-warhead min dist (A)>
2.9134645

> <CYS145-warhead avg dist (A)>
3.53148

> <CYS145-warhead avg dist stderr (A)>
0.012225413

> <original SMILES>
CCNc1c2cc(ccc2c(cn1)C#N)N(c3cccc(c3)C(=O)N4CCSCC4)C(=O)CCl

$$$$
WAR-XCH-79d-9
  -OEChem-04232002263D

 47 49  0     0  0  0  0  0  0999 V2000
    9.3559    1.4790   24.2628 C   0  0  0  0  0  0  0  0  0  0  0  0
   10.2461    0.4653   23.9762 C   0  0  0  0  0  0  0  0  0  0  0  0
    9.3431    0.4687   26.2094 C   0  0  0  0  0  0  0  0  0  0  0  0
    6.7195   -3.0653   21.2826 C   0  0  0  0  0  0  0  0  0  0  0  0
   13.5973    1.6801   22.5818 C   0  0  0  0  0  0  0  0  0  0  0  0
   13.4602    0.4068   23.4099 C   0  0  0  0  0  0  0  0  0  0  0  0
   12.2544    2.3734   22.3778 C   0  0  0  0  0  0  0  0  0  0  0  0
   12.3870   -0.5294   22.8434 C   0  0  0  0  0  0  0  0  0  0  0  0
   11.2207    1.4142   21.7844 C   0  0  0  0  0  0  0  0  0  0  0  0
    8.1224   -1.1668   20.5420 C   0  0  0  0  0  0  0  0  0  0  0  0
    9.2376   -3.0710   21.6390 C   0  0  0  0  0  0  0  0  0  0  0  0
    8.8579   -0.1886   21.4462 C   0  0  0  0  0  0  0  0  0  0  0  0
    9.9918   -2.1207   22.5591 C   0  0  0  0  0  0  0  0  0  0  0  0
   11.0040    0.1591   22.6745 C   0  0  0  0  0  0  0  0  0  0  0  0
    9.0209    0.1479   27.6172 C   0  0  0  0  0  0  0  0  0  0  0  0
    6.4843   -3.9615   22.4722 C   0  0  0  0  0  0  0  0  0  0  0  0
    8.8367    1.4823   25.5428 N   0  0  0  0  0  0  0  0  0  0  0  0
    7.9773   -2.4718   21.1870 N   0  0  0  0  0  0  0  0  0  0  0  0
   10.1813   -0.7954   21.8556 N   0  3  0  0  0  0  0  0  0  0  0  0
    5.8105   -2.8970   20.4656 O   0  0  0  0  0  0  0  0  0  0  0  0
   10.4504   -0.5289   25.3587 S   0  0  0  0  0  0  0  0  0  0  0  0
    6.7442   -2.9742   23.9059 Cl  0  0  0  0  0  0  0  0  0  0  0  0
    9.0459    2.2498   23.5696 H   0  0  0  0  0  0  0  0  0  0  0  0
   14.2898    2.3685   23.0834 H   0  0  0  0  0  0  0  0  0  0  0  0
   14.0410    1.4414   21.6077 H   0  0  0  0  0  0  0  0  0  0  0  0
   14.4255   -0.1128   23.4539 H   0  0  0  0  0  0  0  0  0  0  0  0
   13.2028    0.6697   24.4435 H   0  0  0  0  0  0  0  0  0  0  0  0
   11.8908    2.7503   23.3366 H   0  0  0  0  0  0  0  0  0  0  0  0
   12.3817    3.2382   21.7227 H   0  0  0  0  0  0  0  0  0  0  0  0
   12.7266   -0.9351   21.8892 H   0  0  0  0  0  0  0  0  0  0  0  0
   12.2837   -1.3789   23.5228 H   0  0  0  0  0  0  0  0  0  0  0  0
   10.2762    1.9488   21.6857 H   0  0  0  0  0  0  0  0  0  0  0  0
   11.5256    1.1216   20.7821 H   0  0  0  0  0  0  0  0  0  0  0  0
    7.1441   -0.7541   20.2762 H   0  0  0  0  0  0  0  0  0  0  0  0
    8.6744   -1.3213   19.6068 H   0  0  0  0  0  0  0  0  0  0  0  0
    9.8312   -3.2934   20.7440 H   0  0  0  0  0  0  0  0  0  0  0  0
    9.0756   -4.0173   22.1579 H   0  0  0  0  0  0  0  0  0  0  0  0
    9.0767    0.7418   20.9123 H   0  0  0  0  0  0  0  0  0  0  0  0
    8.2924    0.0330   22.3583 H   0  0  0  0  0  0  0  0  0  0  0  0
    9.4465   -1.9324   23.4908 H   0  0  0  0  0  0  0  0  0  0  0  0
   10.9877   -2.5140   22.7875 H   0  0  0  0  0  0  0  0  0  0  0  0
    8.1573   -0.5324   27.6785 H   0  0  0  0  0  0  0  0  0  0  0  0
    9.8678   -0.3338   28.1326 H   0  0  0  0  0  0  0  0  0  0  0  0
    8.7808    1.0523   28.1997 H   0  0  0  0  0  0  0  0  0  0  0  0
    7.2000   -4.7753   22.4460 H   0  0  0  0  0  0  0  0  0  0  0  0
    5.4612   -4.3186   22.4464 H   0  0  0  0  0  0  0  0  0  0  0  0
   10.7125   -0.9817   20.9925 H   0  0  0  0  0  0  0  0  0  0  0  0
  1  2  2  0  0  0  0
  1 17  1  0  0  0  0
  2 14  1  0  0  0  0
  2 21  1  0  0  0  0
  3 15  1  0  0  0  0
  3 17  2  0  0  0  0
  3 21  1  0  0  0  0
  4 16  1  0  0  0  0
  4 18  1  0  0  0  0
  4 20  2  0  0  0  0
  5  6  1  0  0  0  0
  5  7  1  0  0  0  0
  6  8  1  0  0  0  0
  7  9  1  0  0  0  0
  8 14  1  0  0  0  0
  9 14  1  0  0  0  0
 10 12  1  0  0  0  0
 10 18  1  0  0  0  0
 11 13  1  0  0  0  0
 11 18  1  0  0  0  0
 12 19  1  0  0  0  0
 13 19  1  0  0  0  0
 14 19  1  0  0  0  0
 16 22  1  0  0  0  0
  1 23  1  0  0  0  0
  5 24  1  0  0  0  0
  5 25  1  0  0  0  0
  6 26  1  0  0  0  0
  6 27  1  0  0  0  0
  7 28  1  0  0  0  0
  7 29  1  0  0  0  0
  8 30  1  0  0  0  0
  8 31  1  0  0  0  0
  9 32  1  0  0  0  0
  9 33  1  0  0  0  0
 10 34  1  0  0  0  0
 10 35  1  0  0  0  0
 11 36  1  0  0  0  0
 11 37  1  0  0  0  0
 12 38  1  0  0  0  0
 12 39  1  0  0  0  0
 13 40  1  0  0  0  0
 13 41  1  0  0  0  0
 15 42  1  0  0  0  0
 15 43  1  0  0  0  0
 15 44  1  0  0  0  0
 16 45  1  0  0  0  0
 16 46  1  0  0  0  0
 19 47  1  0  0  0  0
M  CHG  1  19   1
M  END
> <Chemgauss4>
-6.953305

> <ref_pdb>
x0830_0

> <CYS145-warhead min dist (A)>
5.693629

> <CYS145-warhead avg dist (A)>
6.5839005

> <CYS145-warhead avg dist stderr (A)>
0.019965777

> <original SMILES>
Cc1ncc(s1)C2(CCCCC2)[NH+]3CCN(CC3)C(=O)CCl

$$$$
TAM-UNI-d1c-17
  -OEChem-04232002263D

 43 44  0     0  0  0  0  0  0999 V2000
    6.9264   -6.7473   25.5620 C   0  0  0  0  0  0  0  0  0  0  0  0
    5.4974   -5.5684   23.9653 C   0  0  0  0  0  0  0  0  0  0  0  0
    5.3417   -4.6648   22.9142 C   0  0  0  0  0  0  0  0  0  0  0  0
    7.8806   -5.1720   23.9531 C   0  0  0  0  0  0  0  0  0  0  0  0
    6.7669   -5.8220   24.4848 C   0  0  0  0  0  0  0  0  0  0  0  0
    6.4554   -4.0149   22.3825 C   0  0  0  0  0  0  0  0  0  0  0  0
    7.7249   -4.2684   22.9019 C   0  0  0  0  0  0  0  0  0  0  0  0
    6.2642   -3.0793   21.2823 C   0  0  0  0  0  0  0  0  0  0  0  0
   12.6419   -0.3873   24.9487 C   0  0  0  0  0  0  0  0  0  0  0  0
   10.6963   -0.3633   23.4206 C   0  0  0  0  0  0  0  0  0  0  0  0
   10.6446   -1.9134   25.3357 C   0  0  0  0  0  0  0  0  0  0  0  0
   10.2832   -1.4831   22.4767 C   0  0  0  0  0  0  0  0  0  0  0  0
   10.2286   -3.0569   24.4203 C   0  0  0  0  0  0  0  0  0  0  0  0
    6.5164   -0.7079   20.5159 C   0  0  0  0  0  0  0  0  0  0  0  0
    8.9394   -3.5838   22.3476 C   0  0  0  0  0  0  0  0  0  0  0  0
   13.2929   -0.9910   26.1675 C   0  0  0  0  0  0  0  0  0  0  0  0
    7.0561   -7.4988   26.4368 N   0  0  0  0  0  0  0  0  0  0  0  0
   11.3928   -0.8938   24.5926 N   0  0  0  0  0  0  0  0  0  0  0  0
    6.6625   -1.7564   21.4998 N   0  0  0  0  0  0  0  0  0  0  0  0
    9.4624   -2.4961   23.2431 N   0  3  0  0  0  0  0  0  0  0  0  0
    5.7495   -3.4584   20.2168 O   0  0  0  0  0  0  0  0  0  0  0  0
   13.2286    0.5054   24.3317 O   0  0  0  0  0  0  0  0  0  0  0  0
   14.2282   -2.3726   25.6069 Cl  0  0  0  0  0  0  0  0  0  0  0  0
    4.6200   -6.0676   24.3699 H   0  0  0  0  0  0  0  0  0  0  0  0
    4.3475   -4.4758   22.5172 H   0  0  0  0  0  0  0  0  0  0  0  0
    8.8732   -5.3656   24.3547 H   0  0  0  0  0  0  0  0  0  0  0  0
   11.3277    0.3522   22.8846 H   0  0  0  0  0  0  0  0  0  0  0  0
    9.8173    0.1853   23.7802 H   0  0  0  0  0  0  0  0  0  0  0  0
    9.7626   -1.4219   25.7639 H   0  0  0  0  0  0  0  0  0  0  0  0
   11.2223   -2.3155   26.1697 H   0  0  0  0  0  0  0  0  0  0  0  0
    9.6529   -1.0957   21.6697 H   0  0  0  0  0  0  0  0  0  0  0  0
   11.1492   -2.0033   22.0520 H   0  0  0  0  0  0  0  0  0  0  0  0
   11.0932   -3.6048   24.0291 H   0  0  0  0  0  0  0  0  0  0  0  0
    9.5605   -3.7477   24.9449 H   0  0  0  0  0  0  0  0  0  0  0  0
    7.4477   -0.6142   19.9381 H   0  0  0  0  0  0  0  0  0  0  0  0
    5.6871   -0.9554   19.8369 H   0  0  0  0  0  0  0  0  0  0  0  0
    6.3028    0.2442   21.0237 H   0  0  0  0  0  0  0  0  0  0  0  0
    9.7613   -4.2928   22.2010 H   0  0  0  0  0  0  0  0  0  0  0  0
    8.7238   -3.1181   21.3799 H   0  0  0  0  0  0  0  0  0  0  0  0
   12.5196   -1.3186   26.8531 H   0  0  0  0  0  0  0  0  0  0  0  0
   13.9492   -0.2544   26.6165 H   0  0  0  0  0  0  0  0  0  0  0  0
    7.0189   -1.4877   22.4112 H   0  0  0  0  0  0  0  0  0  0  0  0
    8.6393   -2.0050   23.6185 H   0  0  0  0  0  0  0  0  0  0  0  0
  1  5  1  0  0  0  0
  1 17  3  0  0  0  0
  2  3  2  0  0  0  0
  2  5  1  0  0  0  0
  3  6  1  0  0  0  0
  4  5  2  0  0  0  0
  4  7  1  0  0  0  0
  6  7  2  0  0  0  0
  6  8  1  0  0  0  0
  7 15  1  0  0  0  0
  8 19  1  0  0  0  0
  8 21  2  0  0  0  0
  9 16  1  0  0  0  0
  9 18  1  0  0  0  0
  9 22  2  0  0  0  0
 10 12  1  0  0  0  0
 10 18  1  0  0  0  0
 11 13  1  0  0  0  0
 11 18  1  0  0  0  0
 12 20  1  0  0  0  0
 13 20  1  0  0  0  0
 14 19  1  0  0  0  0
 15 20  1  0  0  0  0
 16 23  1  0  0  0  0
  2 24  1  0  0  0  0
  3 25  1  0  0  0  0
  4 26  1  0  0  0  0
 10 27  1  0  0  0  0
 10 28  1  0  0  0  0
 11 29  1  0  0  0  0
 11 30  1  0  0  0  0
 12 31  1  0  0  0  0
 12 32  1  0  0  0  0
 13 33  1  0  0  0  0
 13 34  1  0  0  0  0
 14 35  1  0  0  0  0
 14 36  1  0  0  0  0
 14 37  1  0  0  0  0
 15 38  1  0  0  0  0
 15 39  1  0  0  0  0
 16 40  1  0  0  0  0
 16 41  1  0  0  0  0
 19 42  1  0  0  0  0
 20 43  1  0  0  0  0
M  CHG  1  20   1
M  END
> <Chemgauss4>
-6.939832

> <ref_pdb>
x0749_0

> <CYS145-warhead min dist (A)>
7.709803

> <CYS145-warhead avg dist (A)>
9.006251

> <CYS145-warhead avg dist stderr (A)>
0.050458536

> <original SMILES>
CNC(=O)c1ccc(cc1C[NH+]2CCN(CC2)C(=O)CCl)C#N

$$$$
VIT-UNK-525-6
  -OEChem-04232002263D

 48 49  0     1  0  0  0  0  0999 V2000
   12.0991    0.2276   24.0156 C   0  0  0  0  0  0  0  0  0  0  0  0
   12.0113   -1.3774   22.2121 C   0  0  0  0  0  0  0  0  0  0  0  0
   13.8922    0.1272   22.3996 C   0  0  0  0  0  0  0  0  0  0  0  0
   11.4428   -0.8089   23.3519 C   0  0  0  0  0  0  0  0  0  0  0  0
   13.3238    0.6958   23.5395 C   0  0  0  0  0  0  0  0  0  0  0  0
   13.2360   -0.9093   21.7359 C   0  0  0  0  0  0  0  0  0  0  0  0
    4.7681    1.6305   19.7948 C   0  0  0  0  0  0  0  0  0  0  0  0
    4.8477    0.6091   18.9312 C   0  0  0  0  0  0  0  0  0  0  0  0
    3.4573    2.2680   20.0807 C   0  0  0  0  0  0  0  0  0  0  0  0
    6.6997   -2.0047   22.6661 C   0  0  0  0  0  0  0  0  0  0  0  0
    8.3212   -1.7936   20.7667 C   0  0  0  0  0  0  0  0  0  0  0  0
    6.9059   -1.4667   21.2455 C   0  0  1  0  0  0  0  0  0  0  0  0
    7.8261   -1.5487   23.5854 C   0  0  1  0  0  0  0  0  0  0  0  0
    9.1975   -1.8299   22.9758 C   0  0  2  0  0  0  0  0  0  0  0  0
    6.1357   -0.0850   18.5909 C   0  0  0  0  0  0  0  0  0  0  0  0
    6.0804   -1.5958   18.8327 C   0  0  0  0  0  0  0  0  0  0  0  0
    5.8592   -2.0220   20.2901 C   0  0  1  0  0  0  0  0  0  0  0  0
    3.5618    3.2971   20.9878 N   0  0  0  0  0  0  0  0  0  0  0  0
   10.2260   -1.2725   23.8239 N   0  0  0  0  0  0  0  0  0  0  0  0
    2.4056    1.9097   19.5623 O   0  0  0  0  0  0  0  0  0  0  0  0
    9.2910   -1.2607   21.6683 O   0  0  0  0  0  0  0  0  0  0  0  0
   13.9640    1.7076   24.1865 O   0  0  0  0  0  0  0  0  0  0  0  0
   13.7903   -1.4633   20.6232 O   0  0  0  0  0  0  0  0  0  0  0  0
    5.9296   -3.4470   20.3612 O   0  0  0  0  0  0  0  0  0  0  0  0
    7.6971   -0.2030   23.7708 F   0  0  0  0  0  0  0  0  0  0  0  0
   11.6594    0.6746   24.9042 H   0  0  0  0  0  0  0  0  0  0  0  0
   11.5034   -2.1860   21.6915 H   0  0  0  0  0  0  0  0  0  0  0  0
   14.8470    0.4917   22.0289 H   0  0  0  0  0  0  0  0  0  0  0  0
    5.6515    2.0058   20.3006 H   0  0  0  0  0  0  0  0  0  0  0  0
    3.9574    0.2423   18.4266 H   0  0  0  0  0  0  0  0  0  0  0  0
    5.7388   -1.6504   23.0566 H   0  0  0  0  0  0  0  0  0  0  0  0
    6.6672   -3.1013   22.6493 H   0  0  0  0  0  0  0  0  0  0  0  0
    8.4769   -2.8743   20.6621 H   0  0  0  0  0  0  0  0  0  0  0  0
    8.5020   -1.3399   19.7863 H   0  0  0  0  0  0  0  0  0  0  0  0
    6.8004   -0.3741   21.2833 H   0  0  0  0  0  0  0  0  0  0  0  0
    7.7267   -2.0236   24.5674 H   0  0  0  0  0  0  0  0  0  0  0  0
    9.3610   -2.9114   22.8983 H   0  0  0  0  0  0  0  0  0  0  0  0
    6.9789    0.3534   19.1368 H   0  0  0  0  0  0  0  0  0  0  0  0
    6.3402    0.0893   17.5272 H   0  0  0  0  0  0  0  0  0  0  0  0
    5.2880   -2.0352   18.2116 H   0  0  0  0  0  0  0  0  0  0  0  0
    7.0113   -2.0477   18.4647 H   0  0  0  0  0  0  0  0  0  0  0  0
    4.8613   -1.7296   20.6342 H   0  0  0  0  0  0  0  0  0  0  0  0
    4.4613    3.5489   21.3842 H   0  0  0  0  0  0  0  0  0  0  0  0
    2.7644    3.8438   21.2975 H   0  0  0  0  0  0  0  0  0  0  0  0
   10.0444   -1.2175   24.8193 H   0  0  0  0  0  0  0  0  0  0  0  0
   13.4465    1.9958   24.9554 H   0  0  0  0  0  0  0  0  0  0  0  0
   13.2184   -2.1670   20.2771 H   0  0  0  0  0  0  0  0  0  0  0  0
    5.2588   -3.7842   19.7489 H   0  0  0  0  0  0  0  0  0  0  0  0
  1  4  1  0  0  0  0
  1  5  2  0  0  0  0
  2  4  2  0  0  0  0
  2  6  1  0  0  0  0
  3  5  1  0  0  0  0
  3  6  2  0  0  0  0
  4 19  1  0  0  0  0
  5 22  1  0  0  0  0
  6 23  1  0  0  0  0
  7  8  2  0  0  0  0
  7  9  1  0  0  0  0
  8 15  1  0  0  0  0
  9 18  1  0  0  0  0
  9 20  2  0  0  0  0
 10 12  1  0  0  0  0
 10 13  1  0  0  0  0
 11 12  1  0  0  0  0
 11 21  1  0  0  0  0
 12 17  1  0  0  0  0
 13 14  1  0  0  0  0
 13 25  1  0  0  0  0
 14 19  1  0  0  0  0
 14 21  1  0  0  0  0
 15 16  1  0  0  0  0
 16 17  1  0  0  0  0
 17 24  1  0  0  0  0
  1 26  1  0  0  0  0
  2 27  1  0  0  0  0
  3 28  1  0  0  0  0
  7 29  1  0  0  0  0
  8 30  1  0  0  0  0
 10 31  1  0  0  0  0
 10 32  1  0  0  0  0
 11 33  1  0  0  0  0
 11 34  1  0  0  0  0
 12 35  1  0  0  0  0
 13 36  1  0  0  0  0
 14 37  1  0  0  0  0
 15 38  1  0  0  0  0
 15 39  1  0  0  0  0
 16 40  1  0  0  0  0
 16 41  1  0  0  0  0
 17 42  1  0  0  0  0
 18 43  1  0  0  0  0
 18 44  1  0  0  0  0
 19 45  1  0  0  0  0
 22 46  1  0  0  0  0
 23 47  1  0  0  0  0
 24 48  1  0  0  0  0
M  END
> <Chemgauss4>
-6.926483

> <ref_pdb>
x0831_0

> <original SMILES>
c1c(cc(cc1O)O)N[C@H]2[C@H](C[C@@H](CO2)[C@@H](CC/C=C/C(=O)N)O)F

$$$$
WAL-WAB-df1-1
  -OEChem-04232002263D

 41 43  0     0  0  0  0  0  0999 V2000
    8.8544   -4.0294   24.3905 C   0  0  0  0  0  0  0  0  0  0  0  0
   10.4553    1.4252   25.3616 C   0  0  0  0  0  0  0  0  0  0  0  0
    9.8157   -3.1170   23.9701 C   0  0  0  0  0  0  0  0  0  0  0  0
   11.4802    0.5804   24.9357 C   0  0  0  0  0  0  0  0  0  0  0  0
   10.2986    2.6817   24.7765 C   0  0  0  0  0  0  0  0  0  0  0  0
    7.6162   -4.1129   23.7487 C   0  0  0  0  0  0  0  0  0  0  0  0
   12.1919    2.2487   23.3396 C   0  0  0  0  0  0  0  0  0  0  0  0
    9.5613   -2.2624   22.8936 C   0  0  0  0  0  0  0  0  0  0  0  0
   12.3486    0.9922   23.9247 C   0  0  0  0  0  0  0  0  0  0  0  0
    8.3183   -2.3260   22.2273 C   0  0  0  0  0  0  0  0  0  0  0  0
   11.1669    3.0935   23.7656 C   0  0  0  0  0  0  0  0  0  0  0  0
    7.3675   -3.2515   22.6680 C   0  0  0  0  0  0  0  0  0  0  0  0
    6.7091   -1.8753   20.7871 C   0  0  0  0  0  0  0  0  0  0  0  0
   10.5777   -1.3144   22.4683 C   0  0  0  0  0  0  0  0  0  0  0  0
    6.3557   -0.3153   18.8886 C   0  0  0  0  0  0  0  0  0  0  0  0
   13.4570    0.0773   23.4648 C   0  0  0  0  0  0  0  0  0  0  0  0
    5.2712    0.0456   17.9001 C   0  0  0  0  0  0  0  0  0  0  0  0
   13.0355   -0.8397   22.3192 C   0  0  0  0  0  0  0  0  0  0  0  0
    7.9267   -1.5454   21.1494 N   0  0  0  0  0  0  0  0  0  0  0  0
    5.9666   -1.3399   19.7683 N   0  0  0  0  0  0  0  0  0  0  0  0
   11.9139   -1.6822   22.6672 N   0  0  0  0  0  0  0  0  0  0  0  0
   10.2537   -0.2209   21.9708 O   0  0  0  0  0  0  0  0  0  0  0  0
    7.4280    0.2830   18.8744 O   0  0  0  0  0  0  0  0  0  0  0  0
   11.0169    4.3001   23.2039 F   0  0  0  0  0  0  0  0  0  0  0  0
    5.9551   -3.1186   21.6880 S   0  0  0  0  0  0  0  0  0  0  0  0
    4.8738    1.7551   18.1346 Cl  0  0  0  0  0  0  0  0  0  0  0  0
    9.0666   -4.6865   25.2301 H   0  0  0  0  0  0  0  0  0  0  0  0
    9.7788    1.1045   26.1486 H   0  0  0  0  0  0  0  0  0  0  0  0
   10.7707   -3.0761   24.4888 H   0  0  0  0  0  0  0  0  0  0  0  0
   11.5948   -0.3968   25.3976 H   0  0  0  0  0  0  0  0  0  0  0  0
    9.5010    3.3393   25.1086 H   0  0  0  0  0  0  0  0  0  0  0  0
    6.8710   -4.8289   24.0815 H   0  0  0  0  0  0  0  0  0  0  0  0
   12.8630    2.5780   22.5510 H   0  0  0  0  0  0  0  0  0  0  0  0
   13.7809   -0.5329   24.3173 H   0  0  0  0  0  0  0  0  0  0  0  0
   14.3310    0.6723   23.1702 H   0  0  0  0  0  0  0  0  0  0  0  0
    4.3636   -0.5489   18.0317 H   0  0  0  0  0  0  0  0  0  0  0  0
    5.6438   -0.0986   16.8820 H   0  0  0  0  0  0  0  0  0  0  0  0
   12.7249   -0.2409   21.4572 H   0  0  0  0  0  0  0  0  0  0  0  0
   13.8546   -1.4940   22.0032 H   0  0  0  0  0  0  0  0  0  0  0  0
    5.0231   -1.7294   19.6326 H   0  0  0  0  0  0  0  0  0  0  0  0
   12.1224   -2.5583   23.1348 H   0  0  0  0  0  0  0  0  0  0  0  0
  1  3  1  0  0  0  0
  1  6  2  0  0  0  0
  2  4  2  0  0  0  0
  2  5  1  0  0  0  0
  3  8  2  0  0  0  0
  4  9  1  0  0  0  0
  5 11  2  0  0  0  0
  6 12  1  0  0  0  0
  7  9  2  0  0  0  0
  7 11  1  0  0  0  0
  8 10  1  0  0  0  0
  8 14  1  0  0  0  0
  9 16  1  0  0  0  0
 10 12  2  0  0  0  0
 10 19  1  0  0  0  0
 11 24  1  0  0  0  0
 12 25  1  0  0  0  0
 13 19  2  0  0  0  0
 13 20  1  0  0  0  0
 13 25  1  0  0  0  0
 14 21  1  0  0  0  0
 14 22  2  0  0  0  0
 15 17  1  0  0  0  0
 15 20  1  0  0  0  0
 15 23  2  0  0  0  0
 16 18  1  0  0  0  0
 17 26  1  0  0  0  0
 18 21  1  0  0  0  0
  1 27  1  0  0  0  0
  2 28  1  0  0  0  0
  3 29  1  0  0  0  0
  4 30  1  0  0  0  0
  5 31  1  0  0  0  0
  6 32  1  0  0  0  0
  7 33  1  0  0  0  0
 16 34  1  0  0  0  0
 16 35  1  0  0  0  0
 17 36  1  0  0  0  0
 17 37  1  0  0  0  0
 18 38  1  0  0  0  0
 18 39  1  0  0  0  0
 20 40  1  0  0  0  0
 21 41  1  0  0  0  0
M  END
> <Chemgauss4>
-6.912929

> <ref_pdb>
x0692_0

> <CYS145-warhead min dist (A)>
5.2578783

> <CYS145-warhead avg dist (A)>
6.4679885

> <CYS145-warhead avg dist stderr (A)>
0.03896225

> <original SMILES>
c1cc(cc(c1)F)CCNC(=O)c2cccc3c2nc(s3)NC(=O)CCl

$$$$
DAV-CRI-3fe-2
  -OEChem-04232002263D

 51 54  0     1  0  0  0  0  0999 V2000
    5.1267   -6.4260   24.9734 C   0  0  0  0  0  0  0  0  0  0  0  0
    5.9892   -5.6992   25.7863 C   0  0  0  0  0  0  0  0  0  0  0  0
    5.0533   -6.1415   23.6116 C   0  0  0  0  0  0  0  0  0  0  0  0
    6.7914   -4.6992   25.2354 C   0  0  0  0  0  0  0  0  0  0  0  0
    9.8981   -4.2736   23.7599 C   0  0  0  0  0  0  0  0  0  0  0  0
   11.1781   -4.1695   24.3030 C   0  0  0  0  0  0  0  0  0  0  0  0
    9.4167   -2.0197   24.4724 C   0  0  0  0  0  0  0  0  0  0  0  0
    9.0167   -3.2000   23.8470 C   0  0  0  0  0  0  0  0  0  0  0  0
   11.5893   -2.9910   24.9443 C   0  0  0  0  0  0  0  0  0  0  0  0
    5.8476   -5.1308   23.0460 C   0  0  0  0  0  0  0  0  0  0  0  0
    6.7572   -4.4220   23.8571 C   0  0  0  0  0  0  0  0  0  0  0  0
   10.7057   -1.8983   25.0134 C   0  0  0  0  0  0  0  0  0  0  0  0
    5.9472   -2.7544   20.1526 C   0  0  0  0  0  0  0  0  0  0  0  0
   12.9931   -2.9071   25.4904 C   0  0  0  0  0  0  0  0  0  0  0  0
   11.0889   -0.6170   25.7105 C   0  0  0  0  0  0  0  0  0  0  0  0
    5.6998   -4.8441   21.5706 C   0  0  0  0  0  0  0  0  0  0  0  0
   12.5955   -0.4660   25.9108 C   0  0  0  0  0  0  0  0  0  0  0  0
    7.7220   -3.4419   21.7285 C   0  0  0  0  0  0  0  0  0  0  0  0
    7.6173   -3.3141   23.2586 C   0  0  2  0  0  0  0  0  0  0  0  0
   13.1884   -1.7531   26.4754 C   0  0  2  0  0  0  0  0  0  0  0  0
    6.8267   -1.5661   19.8533 C   0  0  0  0  0  0  0  0  0  0  0  0
    6.4014   -3.6326   21.1370 N   0  0  0  0  0  0  0  0  0  0  0  0
   14.8007   -0.2295   27.9308 N   0  0  0  0  0  0  0  0  0  0  0  0
    4.8930   -2.8979   19.5282 O   0  0  0  0  0  0  0  0  0  0  0  0
   15.3529   -2.7160   27.5717 O   0  0  0  0  0  0  0  0  0  0  0  0
   15.5744   -1.1037   25.6386 O   0  0  0  0  0  0  0  0  0  0  0  0
   14.9071   -1.5409   26.8491 S   0  0  0  0  0  0  0  0  0  0  0  0
    6.0341   -0.6656   18.5657 Cl  0  0  0  0  0  0  0  0  0  0  0  0
    4.5123   -7.2136   25.3983 H   0  0  0  0  0  0  0  0  0  0  0  0
    6.0388   -5.9076   26.8515 H   0  0  0  0  0  0  0  0  0  0  0  0
    4.3732   -6.7146   22.9851 H   0  0  0  0  0  0  0  0  0  0  0  0
    7.4487   -4.1292   25.8910 H   0  0  0  0  0  0  0  0  0  0  0  0
    9.5974   -5.1970   23.2716 H   0  0  0  0  0  0  0  0  0  0  0  0
   11.8568   -5.0151   24.2242 H   0  0  0  0  0  0  0  0  0  0  0  0
    8.7226   -1.1848   24.5399 H   0  0  0  0  0  0  0  0  0  0  0  0
   13.1944   -3.8486   26.0102 H   0  0  0  0  0  0  0  0  0  0  0  0
   13.7058   -2.8194   24.6667 H   0  0  0  0  0  0  0  0  0  0  0  0
   10.7101    0.2219   25.1166 H   0  0  0  0  0  0  0  0  0  0  0  0
   10.6008   -0.5704   26.6901 H   0  0  0  0  0  0  0  0  0  0  0  0
    6.0651   -5.7051   21.0104 H   0  0  0  0  0  0  0  0  0  0  0  0
    4.6418   -4.6955   21.3386 H   0  0  0  0  0  0  0  0  0  0  0  0
   13.0642   -0.2030   24.9655 H   0  0  0  0  0  0  0  0  0  0  0  0
   12.7829    0.3448   26.6139 H   0  0  0  0  0  0  0  0  0  0  0  0
    8.1254   -2.5185   21.3022 H   0  0  0  0  0  0  0  0  0  0  0  0
    8.3988   -4.2527   21.4530 H   0  0  0  0  0  0  0  0  0  0  0  0
    7.1167   -2.3344   23.4558 H   0  0  0  0  0  0  0  0  0  0  0  0
   12.7280   -1.9937   27.4185 H   0  0  0  0  0  0  0  0  0  0  0  0
    7.7942   -1.9216   19.5186 H   0  0  0  0  0  0  0  0  0  0  0  0
    6.9034   -0.9537   20.7441 H   0  0  0  0  0  0  0  0  0  0  0  0
   14.9851   -0.4114   28.9251 H   0  0  0  0  0  0  0  0  0  0  0  0
   15.1358    0.6867   27.6084 H   0  0  0  0  0  0  0  0  0  0  0  0
  1  2  1  0  0  0  0
  1  3  2  0  0  0  0
  2  4  2  0  0  0  0
  3 10  1  0  0  0  0
  4 11  1  0  0  0  0
  5  6  2  0  0  0  0
  5  8  1  0  0  0  0
  6  9  1  0  0  0  0
  7  8  2  0  0  0  0
  7 12  1  0  0  0  0
  8 19  1  0  0  0  0
  9 12  2  0  0  0  0
  9 14  1  0  0  0  0
 10 11  2  0  0  0  0
 10 16  1  0  0  0  0
 11 19  1  0  0  0  0
 12 15  1  0  0  0  0
 13 21  1  0  0  0  0
 13 22  1  0  0  0  0
 13 24  2  0  0  0  0
 14 20  1  0  0  0  0
 15 17  1  0  0  0  0
 16 22  1  0  0  0  0
 17 20  1  0  0  0  0
 18 19  1  0  0  0  0
 18 22  1  0  0  0  0
 20 27  1  0  0  0  0
 21 28  1  0  0  0  0
 23 27  1  0  0  0  0
 25 27  2  0  0  0  0
 26 27  2  0  0  0  0
  1 29  1  0  0  0  0
  2 30  1  0  0  0  0
  3 31  1  0  0  0  0
  4 32  1  0  0  0  0
  5 33  1  0  0  0  0
  6 34  1  0  0  0  0
  7 35  1  0  0  0  0
 14 36  1  0  0  0  0
 14 37  1  0  0  0  0
 15 38  1  0  0  0  0
 15 39  1  0  0  0  0
 16 40  1  0  0  0  0
 16 41  1  0  0  0  0
 17 42  1  0  0  0  0
 17 43  1  0  0  0  0
 18 44  1  0  0  0  0
 18 45  1  0  0  0  0
 19 46  1  0  0  0  0
 20 47  1  0  0  0  0
 21 48  1  0  0  0  0
 21 49  1  0  0  0  0
 23 50  1  0  0  0  0
 23 51  1  0  0  0  0
M  END
> <Chemgauss4>
-6.900335

> <ref_pdb>
x0749_0

> <CYS145-warhead min dist (A)>
2.8976827

> <CYS145-warhead avg dist (A)>
3.3145618

> <CYS145-warhead avg dist stderr (A)>
0.011512936

> <original SMILES>
c1ccc2c(c1)CN(C[C@@H]2c3ccc4c(c3)CC[C@@H](C4)S(=O)(=O)N)C(=O)CCl

$$$$
SEA-TRI-078-1
  -OEChem-04232002263D

 58 61  0     1  0  0  0  0  0999 V2000
    9.9227   -5.2484   25.2774 C   0  0  0  0  0  0  0  0  0  0  0  0
   11.2067    0.2227   24.7629 C   0  0  0  0  0  0  0  0  0  0  0  0
   10.1382   -4.2014   24.3806 C   0  0  0  0  0  0  0  0  0  0  0  0
   10.2233   -0.6865   24.3732 C   0  0  0  0  0  0  0  0  0  0  0  0
    8.6269   -5.6658   25.5627 C   0  0  0  0  0  0  0  0  0  0  0  0
   12.3433    0.4013   23.9743 C   0  0  0  0  0  0  0  0  0  0  0  0
   11.5132   -1.2387   22.4064 C   0  0  0  0  0  0  0  0  0  0  0  0
   10.3765   -1.4172   23.1950 C   0  0  0  0  0  0  0  0  0  0  0  0
    9.0581   -3.5436   23.7661 C   0  0  0  0  0  0  0  0  0  0  0  0
    7.7484   -4.0024   24.0252 C   0  0  0  0  0  0  0  0  0  0  0  0
    7.5450   -5.0480   24.9390 C   0  0  0  0  0  0  0  0  0  0  0  0
   12.4966   -0.3294   22.7961 C   0  0  0  0  0  0  0  0  0  0  0  0
    5.7810   -1.1225   19.2654 C   0  0  0  0  0  0  0  0  0  0  0  0
    6.6632   -1.9481   19.8323 C   0  0  0  0  0  0  0  0  0  0  0  0
    6.2368   -2.7641   20.9867 C   0  0  0  0  0  0  0  0  0  0  0  0
    6.5464   -3.3779   23.3578 C   0  0  0  0  0  0  0  0  0  0  0  0
    8.0098   -1.6430   22.4369 C   0  0  0  0  0  0  0  0  0  0  0  0
    4.9114   -3.5740   28.1942 C   0  0  0  0  0  0  0  0  0  0  0  0
    2.9315   -3.9432   26.7364 C   0  0  0  0  0  0  0  0  0  0  0  0
    4.6548   -2.0830   28.0557 C   0  0  0  0  0  0  0  0  0  0  0  0
    2.7768   -2.4330   26.6736 C   0  0  0  0  0  0  0  0  0  0  0  0
    9.3032   -2.4105   22.7709 C   0  0  1  0  0  0  0  0  0  0  0  0
    4.6497   -5.7415   26.9787 C   0  0  0  0  0  0  0  0  0  0  0  0
    6.0777   -6.0081   26.5450 C   0  0  0  0  0  0  0  0  0  0  0  0
    6.9188   -2.5870   22.1861 N   0  0  0  0  0  0  0  0  0  0  0  0
    4.3921   -4.2622   26.9539 N   0  3  0  0  0  0  0  0  0  0  0  0
    5.3109   -3.5588   20.8166 O   0  0  0  0  0  0  0  0  0  0  0  0
    3.2609   -1.8293   27.8742 O   0  0  0  0  0  0  0  0  0  0  0  0
    6.2858   -5.4801   25.2378 O   0  0  0  0  0  0  0  0  0  0  0  0
   13.8997   -0.1095   21.8242 Cl  0  0  0  0  0  0  0  0  0  0  0  0
   10.7692   -5.7382   25.7514 H   0  0  0  0  0  0  0  0  0  0  0  0
   11.0870    0.7915   25.6805 H   0  0  0  0  0  0  0  0  0  0  0  0
   11.1605   -3.9000   24.1574 H   0  0  0  0  0  0  0  0  0  0  0  0
    9.3409   -0.8193   24.9939 H   0  0  0  0  0  0  0  0  0  0  0  0
    8.4659   -6.4720   26.2730 H   0  0  0  0  0  0  0  0  0  0  0  0
   13.1018    1.1132   24.2905 H   0  0  0  0  0  0  0  0  0  0  0  0
   11.6278   -1.8105   21.4884 H   0  0  0  0  0  0  0  0  0  0  0  0
    6.0349   -0.4982   18.4153 H   0  0  0  0  0  0  0  0  0  0  0  0
    4.7695   -1.0580   19.6523 H   0  0  0  0  0  0  0  0  0  0  0  0
    7.6805   -2.0405   19.4749 H   0  0  0  0  0  0  0  0  0  0  0  0
    5.8729   -4.1580   23.0175 H   0  0  0  0  0  0  0  0  0  0  0  0
    6.0549   -2.7362   24.0794 H   0  0  0  0  0  0  0  0  0  0  0  0
    7.7564   -0.9483   23.2312 H   0  0  0  0  0  0  0  0  0  0  0  0
    8.1427   -1.0741   21.5181 H   0  0  0  0  0  0  0  0  0  0  0  0
    5.9798   -3.7884   28.2713 H   0  0  0  0  0  0  0  0  0  0  0  0
    4.3714   -3.9975   29.0457 H   0  0  0  0  0  0  0  0  0  0  0  0
    2.3822   -4.3693   27.5806 H   0  0  0  0  0  0  0  0  0  0  0  0
    2.6239   -4.4144   25.8001 H   0  0  0  0  0  0  0  0  0  0  0  0
    4.9673   -1.5687   28.9701 H   0  0  0  0  0  0  0  0  0  0  0  0
    5.2218   -1.6481   27.2239 H   0  0  0  0  0  0  0  0  0  0  0  0
    3.2982   -2.0064   25.8084 H   0  0  0  0  0  0  0  0  0  0  0  0
    1.7174   -2.1750   26.5788 H   0  0  0  0  0  0  0  0  0  0  0  0
    9.6591   -2.8572   21.8098 H   0  0  0  0  0  0  0  0  0  0  0  0
    4.4626   -6.0698   28.0050 H   0  0  0  0  0  0  0  0  0  0  0  0
    3.9279   -6.1971   26.2957 H   0  0  0  0  0  0  0  0  0  0  0  0
    6.7726   -5.5069   27.2261 H   0  0  0  0  0  0  0  0  0  0  0  0
    6.3046   -7.0791   26.5366 H   0  0  0  0  0  0  0  0  0  0  0  0
    4.9120   -3.8796   26.1504 H   0  0  0  0  0  0  0  0  0  0  0  0
  1  3  2  0  0  0  0
  1  5  1  0  0  0  0
  2  4  2  0  0  0  0
  2  6  1  0  0  0  0
  3  9  1  0  0  0  0
  4  8  1  0  0  0  0
  5 11  2  0  0  0  0
  6 12  2  0  0  0  0
  7  8  2  0  0  0  0
  7 12  1  0  0  0  0
  8 22  1  0  0  0  0
  9 10  2  0  0  0  0
  9 22  1  0  0  0  0
 10 11  1  0  0  0  0
 10 16  1  0  0  0  0
 11 29  1  0  0  0  0
 12 30  1  0  0  0  0
 13 14  2  0  0  0  0
 14 15  1  0  0  0  0
 15 25  1  0  0  0  0
 15 27  2  0  0  0  0
 16 25  1  0  0  0  0
 17 22  1  0  0  0  0
 17 25  1  0  0  0  0
 18 20  1  0  0  0  0
 18 26  1  0  0  0  0
 19 21  1  0  0  0  0
 19 26  1  0  0  0  0
 20 28  1  0  0  0  0
 21 28  1  0  0  0  0
 23 24  1  0  0  0  0
 23 26  1  0  0  0  0
 24 29  1  0  0  0  0
  1 31  1  0  0  0  0
  2 32  1  0  0  0  0
  3 33  1  0  0  0  0
  4 34  1  0  0  0  0
  5 35  1  0  0  0  0
  6 36  1  0  0  0  0
  7 37  1  0  0  0  0
 13 38  1  0  0  0  0
 13 39  1  0  0  0  0
 14 40  1  0  0  0  0
 16 41  1  0  0  0  0
 16 42  1  0  0  0  0
 17 43  1  0  0  0  0
 17 44  1  0  0  0  0
 18 45  1  0  0  0  0
 18 46  1  0  0  0  0
 19 47  1  0  0  0  0
 19 48  1  0  0  0  0
 20 49  1  0  0  0  0
 20 50  1  0  0  0  0
 21 51  1  0  0  0  0
 21 52  1  0  0  0  0
 22 53  1  0  0  0  0
 23 54  1  0  0  0  0
 23 55  1  0  0  0  0
 24 56  1  0  0  0  0
 24 57  1  0  0  0  0
 26 58  1  0  0  0  0
M  CHG  1  26   1
M  END
> <Chemgauss4>
-6.865626

> <ref_pdb>
x1392_0

> <CYS145-warhead min dist (A)>
3.2622027

> <CYS145-warhead avg dist (A)>
5.1581163

> <CYS145-warhead avg dist stderr (A)>
0.07119227

> <original SMILES>
C=CC(=O)N1Cc2c(cccc2OCC[NH+]3CCOCC3)[C@@H](C1)c4cccc(c4)Cl

$$$$
DAR-DIA-fb2-3
  -OEChem-04232002263D

 44 45  0     0  0  0  0  0  0999 V2000
   13.8726   -0.0285   22.4812 C   0  0  0  0  0  0  0  0  0  0  0  0
   12.5102    0.4331   24.4590 C   0  0  0  0  0  0  0  0  0  0  0  0
   11.3397    0.2498   25.1951 C   0  0  0  0  0  0  0  0  0  0  0  0
   11.6678   -1.0519   22.7495 C   0  0  0  0  0  0  0  0  0  0  0  0
   12.6743   -0.2177   23.2361 C   0  0  0  0  0  0  0  0  0  0  0  0
   10.4973   -1.2352   23.4857 C   0  0  0  0  0  0  0  0  0  0  0  0
   10.3333   -0.5844   24.7085 C   0  0  0  0  0  0  0  0  0  0  0  0
    6.4838   -1.3832   18.8454 C   0  0  0  0  0  0  0  0  0  0  0  0
    7.1615   -2.7237   20.8100 C   0  0  0  0  0  0  0  0  0  0  0  0
    8.3650   -0.6132   20.3726 C   0  0  0  0  0  0  0  0  0  0  0  0
    7.0018   -2.3509   22.2765 C   0  0  0  0  0  0  0  0  0  0  0  0
    8.2240   -0.2125   21.8350 C   0  0  0  0  0  0  0  0  0  0  0  0
    7.2881    0.0221   26.7758 C   0  0  0  0  0  0  0  0  0  0  0  0
    9.4311   -2.1382   22.9389 C   0  0  0  0  0  0  0  0  0  0  0  0
    6.6781   -0.1270   18.0341 C   0  0  0  0  0  0  0  0  0  0  0  0
    8.7418    0.1653   26.4779 C   0  0  0  0  0  0  0  0  0  0  0  0
   14.8458    0.1251   21.8679 N   0  0  0  0  0  0  0  0  0  0  0  0
    7.2941   -1.5322   19.9709 N   0  0  0  0  0  0  0  0  0  0  0  0
    9.1540   -0.7562   25.4661 N   0  0  0  0  0  0  0  0  0  0  0  0
    8.1201   -1.4350   22.7167 N   0  3  0  0  0  0  0  0  0  0  0  0
    5.6353   -2.2049   18.4894 O   0  0  0  0  0  0  0  0  0  0  0  0
    5.5574    1.0673   18.6787 Cl  0  0  0  0  0  0  0  0  0  0  0  0
   13.2847    1.0889   24.8502 H   0  0  0  0  0  0  0  0  0  0  0  0
   11.2222    0.7634   26.1457 H   0  0  0  0  0  0  0  0  0  0  0  0
   11.7915   -1.5626   21.7966 H   0  0  0  0  0  0  0  0  0  0  0  0
    8.0307   -3.3797   20.6922 H   0  0  0  0  0  0  0  0  0  0  0  0
    6.2858   -3.2812   20.4534 H   0  0  0  0  0  0  0  0  0  0  0  0
    8.2968    0.2688   19.7229 H   0  0  0  0  0  0  0  0  0  0  0  0
    9.3545   -1.0477   20.2152 H   0  0  0  0  0  0  0  0  0  0  0  0
    6.0555   -1.8107   22.4369 H   0  0  0  0  0  0  0  0  0  0  0  0
    7.0176   -3.2390   22.9299 H   0  0  0  0  0  0  0  0  0  0  0  0
    9.0865    0.3802   22.1823 H   0  0  0  0  0  0  0  0  0  0  0  0
    7.3062    0.3773   21.9862 H   0  0  0  0  0  0  0  0  0  0  0  0
    7.0835   -1.0013   27.1234 H   0  0  0  0  0  0  0  0  0  0  0  0
    7.0021    0.7394   27.5593 H   0  0  0  0  0  0  0  0  0  0  0  0
    6.7056    0.2230   25.8646 H   0  0  0  0  0  0  0  0  0  0  0  0
    9.7281   -2.5623   21.9737 H   0  0  0  0  0  0  0  0  0  0  0  0
    9.2297   -2.9709   23.6215 H   0  0  0  0  0  0  0  0  0  0  0  0
    6.4415   -0.3380   16.9974 H   0  0  0  0  0  0  0  0  0  0  0  0
    7.6990    0.2161   18.1567 H   0  0  0  0  0  0  0  0  0  0  0  0
    8.9380    1.1906   26.1312 H   0  0  0  0  0  0  0  0  0  0  0  0
    9.3170   -0.0279   27.3954 H   0  0  0  0  0  0  0  0  0  0  0  0
    8.6019   -1.5678   25.2663 H   0  0  0  0  0  0  0  0  0  0  0  0
    7.8339   -1.0734   23.6719 H   0  0  0  0  0  0  0  0  0  0  0  0
  1  5  1  0  0  0  0
  1 17  3  0  0  0  0
  2  3  2  0  0  0  0
  2  5  1  0  0  0  0
  3  7  1  0  0  0  0
  4  5  2  0  0  0  0
  4  6  1  0  0  0  0
  6  7  2  0  0  0  0
  6 14  1  0  0  0  0
  7 19  1  0  0  0  0
  8 15  1  0  0  0  0
  8 18  1  0  0  0  0
  8 21  2  0  0  0  0
  9 11  1  0  0  0  0
  9 18  1  0  0  0  0
 10 12  1  0  0  0  0
 10 18  1  0  0  0  0
 11 20  1  0  0  0  0
 12 20  1  0  0  0  0
 13 16  1  0  0  0  0
 14 20  1  0  0  0  0
 15 22  1  0  0  0  0
 16 19  1  0  0  0  0
  2 23  1  0  0  0  0
  3 24  1  0  0  0  0
  4 25  1  0  0  0  0
  9 26  1  0  0  0  0
  9 27  1  0  0  0  0
 10 28  1  0  0  0  0
 10 29  1  0  0  0  0
 11 30  1  0  0  0  0
 11 31  1  0  0  0  0
 12 32  1  0  0  0  0
 12 33  1  0  0  0  0
 13 34  1  0  0  0  0
 13 35  1  0  0  0  0
 13 36  1  0  0  0  0
 14 37  1  0  0  0  0
 14 38  1  0  0  0  0
 15 39  1  0  0  0  0
 15 40  1  0  0  0  0
 16 41  1  0  0  0  0
 16 42  1  0  0  0  0
 19 43  1  0  0  0  0
 20 44  1  0  0  0  0
M  CHG  1  20   1
M  END
> <Chemgauss4>
-6.863504

> <ref_pdb>
x0830_0

> <CYS145-warhead min dist (A)>
5.4645424

> <CYS145-warhead avg dist (A)>
6.4502015

> <CYS145-warhead avg dist stderr (A)>
0.052106395

> <original SMILES>
CCNc1ccc(cc1C[NH+]2CCN(CC2)C(=O)CCl)C#N

$$$$
MIH-UNI-e57-5
  -OEChem-04232002263D

 46 47  0     0  0  0  0  0  0999 V2000
   13.0544    1.1784   23.9476 C   0  0  0  0  0  0  0  0  0  0  0  0
   13.4352    0.2370   22.9914 C   0  0  0  0  0  0  0  0  0  0  0  0
   11.8054    1.0831   24.5614 C   0  0  0  0  0  0  0  0  0  0  0  0
   12.5670   -0.7996   22.6488 C   0  0  0  0  0  0  0  0  0  0  0  0
   10.9372    0.0465   24.2188 C   0  0  0  0  0  0  0  0  0  0  0  0
   11.3180   -0.8948   23.2625 C   0  0  0  0  0  0  0  0  0  0  0  0
    6.2816   -1.4224   19.2211 C   0  0  0  0  0  0  0  0  0  0  0  0
    6.8280   -2.1391   21.5252 C   0  0  0  0  0  0  0  0  0  0  0  0
    7.9398   -0.1232   20.6460 C   0  0  0  0  0  0  0  0  0  0  0  0
    8.1633   -2.6940   21.9992 C   0  0  0  0  0  0  0  0  0  0  0  0
    9.2926   -0.6472   21.1088 C   0  0  0  0  0  0  0  0  0  0  0  0
    9.6054   -0.0362   24.8898 C   0  0  0  0  0  0  0  0  0  0  0  0
   10.4010   -2.0181   22.8772 C   0  0  0  0  0  0  0  0  0  0  0  0
    6.5293   -0.4412   18.1033 C   0  0  0  0  0  0  0  0  0  0  0  0
    9.4920    0.8462   26.1349 C   0  0  0  0  0  0  0  0  0  0  0  0
    7.0085   -1.2283   20.3948 N   0  0  0  0  0  0  0  0  0  0  0  0
    8.1595    1.7803   28.2332 N   0  0  0  0  0  0  0  0  0  0  0  0
    9.0926   -1.5423   22.3112 N   0  3  0  0  0  0  0  0  0  0  0  0
    5.4681   -2.3346   19.0534 O   0  0  0  0  0  0  0  0  0  0  0  0
    6.9086    1.2295   26.0541 O   0  0  0  0  0  0  0  0  0  0  0  0
    7.8208   -0.6532   27.4715 O   0  0  0  0  0  0  0  0  0  0  0  0
    7.9280    0.6942   26.9396 S   0  0  0  0  0  0  0  0  0  0  0  0
    5.5167   -0.9469   16.7555 Cl  0  0  0  0  0  0  0  0  0  0  0  0
   13.7303    1.9857   24.2134 H   0  0  0  0  0  0  0  0  0  0  0  0
   14.4077    0.3120   22.5136 H   0  0  0  0  0  0  0  0  0  0  0  0
   11.5175    1.8226   25.3041 H   0  0  0  0  0  0  0  0  0  0  0  0
   12.8730   -1.5284   21.9029 H   0  0  0  0  0  0  0  0  0  0  0  0
    6.1637   -2.9661   21.2553 H   0  0  0  0  0  0  0  0  0  0  0  0
    6.3353   -1.5754   22.3268 H   0  0  0  0  0  0  0  0  0  0  0  0
    7.4886    0.5133   21.4169 H   0  0  0  0  0  0  0  0  0  0  0  0
    8.0815    0.4993   19.7609 H   0  0  0  0  0  0  0  0  0  0  0  0
    8.0370   -3.2705   22.9212 H   0  0  0  0  0  0  0  0  0  0  0  0
    8.6435   -3.3172   21.2364 H   0  0  0  0  0  0  0  0  0  0  0  0
    9.7929   -1.2349   20.3310 H   0  0  0  0  0  0  0  0  0  0  0  0
    9.9399    0.1786   21.4211 H   0  0  0  0  0  0  0  0  0  0  0  0
    9.4137   -1.0797   25.1920 H   0  0  0  0  0  0  0  0  0  0  0  0
    8.7924    0.2188   24.1893 H   0  0  0  0  0  0  0  0  0  0  0  0
   10.8584   -2.6592   22.1160 H   0  0  0  0  0  0  0  0  0  0  0  0
   10.1601   -2.6462   23.7416 H   0  0  0  0  0  0  0  0  0  0  0  0
    7.5749   -0.4869   17.8208 H   0  0  0  0  0  0  0  0  0  0  0  0
    6.2405    0.5495   18.4349 H   0  0  0  0  0  0  0  0  0  0  0  0
   10.2410    0.5554   26.8784 H   0  0  0  0  0  0  0  0  0  0  0  0
    9.6320    1.9061   25.9015 H   0  0  0  0  0  0  0  0  0  0  0  0
    8.8063    1.5022   28.9815 H   0  0  0  0  0  0  0  0  0  0  0  0
    8.1848    2.7842   28.0160 H   0  0  0  0  0  0  0  0  0  0  0  0
    8.6452   -0.9755   23.0449 H   0  0  0  0  0  0  0  0  0  0  0  0
  1  2  1  0  0  0  0
  1  3  2  0  0  0  0
  2  4  2  0  0  0  0
  3  5  1  0  0  0  0
  4  6  1  0  0  0  0
  5  6  2  0  0  0  0
  5 12  1  0  0  0  0
  6 13  1  0  0  0  0
  7 14  1  0  0  0  0
  7 16  1  0  0  0  0
  7 19  2  0  0  0  0
  8 10  1  0  0  0  0
  8 16  1  0  0  0  0
  9 11  1  0  0  0  0
  9 16  1  0  0  0  0
 10 18  1  0  0  0  0
 11 18  1  0  0  0  0
 12 15  1  0  0  0  0
 13 18  1  0  0  0  0
 14 23  1  0  0  0  0
 15 22  1  0  0  0  0
 17 22  1  0  0  0  0
 20 22  2  0  0  0  0
 21 22  2  0  0  0  0
  1 24  1  0  0  0  0
  2 25  1  0  0  0  0
  3 26  1  0  0  0  0
  4 27  1  0  0  0  0
  8 28  1  0  0  0  0
  8 29  1  0  0  0  0
  9 30  1  0  0  0  0
  9 31  1  0  0  0  0
 10 32  1  0  0  0  0
 10 33  1  0  0  0  0
 11 34  1  0  0  0  0
 11 35  1  0  0  0  0
 12 36  1  0  0  0  0
 12 37  1  0  0  0  0
 13 38  1  0  0  0  0
 13 39  1  0  0  0  0
 14 40  1  0  0  0  0
 14 41  1  0  0  0  0
 15 42  1  0  0  0  0
 15 43  1  0  0  0  0
 17 44  1  0  0  0  0
 17 45  1  0  0  0  0
 18 46  1  0  0  0  0
M  CHG  1  18   1
M  END
> <Chemgauss4>
-6.855927

> <ref_pdb>
x0830_0

> <CYS145-warhead min dist (A)>
2.989699

> <CYS145-warhead avg dist (A)>
3.3998978

> <CYS145-warhead avg dist stderr (A)>
0.0072277714

> <original SMILES>
c1ccc(c(c1)CCS(=O)(=O)N)C[NH+]2CCN(CC2)C(=O)CCl

$$$$
DAV-CRI-1c7-1
  -OEChem-04232002263D

 48 51  0     1  0  0  0  0  0999 V2000
    5.9790   -1.7785   19.6523 C   0  0  0  0  0  0  0  0  0  0  0  0
    5.7698   -0.6044   20.3756 C   0  0  0  0  0  0  0  0  0  0  0  0
    6.7403   -2.8100   20.2019 C   0  0  0  0  0  0  0  0  0  0  0  0
    7.5694   -5.0048   25.8706 C   0  0  0  0  0  0  0  0  0  0  0  0
    6.4063   -4.2688   25.6686 C   0  0  0  0  0  0  0  0  0  0  0  0
   12.8587    1.6899   24.4641 C   0  0  0  0  0  0  0  0  0  0  0  0
    6.3219   -0.4617   21.6485 C   0  0  0  0  0  0  0  0  0  0  0  0
    7.2925   -2.6673   21.4749 C   0  0  0  0  0  0  0  0  0  0  0  0
    8.7769   -4.5585   25.3349 C   0  0  0  0  0  0  0  0  0  0  0  0
    6.4515   -3.0856   24.9329 C   0  0  0  0  0  0  0  0  0  0  0  0
   11.8855    0.7240   24.6947 C   0  0  0  0  0  0  0  0  0  0  0  0
   12.4387    2.9633   24.1152 C   0  0  0  0  0  0  0  0  0  0  0  0
   10.2248    2.3582   24.2176 C   0  0  0  0  0  0  0  0  0  0  0  0
    7.0833   -1.4932   22.1982 C   0  0  0  0  0  0  0  0  0  0  0  0
    8.8356   -3.3709   24.5888 C   0  0  0  0  0  0  0  0  0  0  0  0
    7.6633   -2.6248   24.3915 C   0  0  0  0  0  0  0  0  0  0  0  0
   10.5410    1.0564   24.5711 C   0  0  0  0  0  0  0  0  0  0  0  0
   11.1413   -1.3868   22.2915 C   0  0  0  0  0  0  0  0  0  0  0  0
   10.1638   -2.9333   24.0297 C   0  0  0  0  0  0  0  0  0  0  0  0
    7.6879   -1.3376   23.5907 C   0  0  1  0  0  0  0  0  0  0  0  0
    9.1026   -0.7099   23.5221 C   0  0  1  0  0  0  0  0  0  0  0  0
    9.4668    0.0365   24.8141 C   0  0  0  0  0  0  0  0  0  0  0  0
   12.2843   -2.3651   22.1716 C   0  0  0  0  0  0  0  0  0  0  0  0
   11.1422    3.3237   23.9855 N   0  0  0  0  0  0  0  0  0  0  0  0
   10.1333   -1.7147   23.2079 N   0  0  0  0  0  0  0  0  0  0  0  0
   11.1397   -0.3717   21.5906 O   0  0  0  0  0  0  0  0  0  0  0  0
   13.6967   -1.4310   21.6935 Cl  0  0  0  0  0  0  0  0  0  0  0  0
    5.5479   -1.8900   18.6616 H   0  0  0  0  0  0  0  0  0  0  0  0
    5.1761    0.1985   19.9482 H   0  0  0  0  0  0  0  0  0  0  0  0
    6.9025   -3.7247   19.6395 H   0  0  0  0  0  0  0  0  0  0  0  0
    7.5374   -5.9264   26.4444 H   0  0  0  0  0  0  0  0  0  0  0  0
    5.4644   -4.6147   26.0840 H   0  0  0  0  0  0  0  0  0  0  0  0
   13.9127    1.4535   24.5549 H   0  0  0  0  0  0  0  0  0  0  0  0
    6.1538    0.4568   22.2048 H   0  0  0  0  0  0  0  0  0  0  0  0
    7.8844   -3.4762   21.8950 H   0  0  0  0  0  0  0  0  0  0  0  0
    9.6779   -5.1447   25.5001 H   0  0  0  0  0  0  0  0  0  0  0  0
    5.5347   -2.5201   24.7844 H   0  0  0  0  0  0  0  0  0  0  0  0
   12.1835   -0.2840   24.9702 H   0  0  0  0  0  0  0  0  0  0  0  0
   13.1589    3.7522   23.9245 H   0  0  0  0  0  0  0  0  0  0  0  0
    9.1927    2.6761   24.1062 H   0  0  0  0  0  0  0  0  0  0  0  0
   10.8554   -2.7352   24.8576 H   0  0  0  0  0  0  0  0  0  0  0  0
   10.5733   -3.7548   23.4338 H   0  0  0  0  0  0  0  0  0  0  0  0
    7.0246   -0.5977   24.1209 H   0  0  0  0  0  0  0  0  0  0  0  0
    9.1047    0.0495   22.7283 H   0  0  0  0  0  0  0  0  0  0  0  0
    9.7937   -0.6875   25.5634 H   0  0  0  0  0  0  0  0  0  0  0  0
    8.5707    0.5170   25.2125 H   0  0  0  0  0  0  0  0  0  0  0  0
   12.0425   -3.0937   21.4069 H   0  0  0  0  0  0  0  0  0  0  0  0
   12.4517   -2.8273   23.1371 H   0  0  0  0  0  0  0  0  0  0  0  0
  1  2  1  0  0  0  0
  1  3  2  0  0  0  0
  2  7  2  0  0  0  0
  3  8  1  0  0  0  0
  4  5  1  0  0  0  0
  4  9  2  0  0  0  0
  5 10  2  0  0  0  0
  6 11  2  0  0  0  0
  6 12  1  0  0  0  0
  7 14  1  0  0  0  0
  8 14  2  0  0  0  0
  9 15  1  0  0  0  0
 10 16  1  0  0  0  0
 11 17  1  0  0  0  0
 12 24  2  0  0  0  0
 13 17  2  0  0  0  0
 13 24  1  0  0  0  0
 14 20  1  0  0  0  0
 15 16  2  0  0  0  0
 15 19  1  0  0  0  0
 16 20  1  0  0  0  0
 17 22  1  0  0  0  0
 18 23  1  0  0  0  0
 18 25  1  0  0  0  0
 18 26  2  0  0  0  0
 19 25  1  0  0  0  0
 20 21  1  0  0  0  0
 21 22  1  0  0  0  0
 21 25  1  0  0  0  0
 23 27  1  0  0  0  0
  1 28  1  0  0  0  0
  2 29  1  0  0  0  0
  3 30  1  0  0  0  0
  4 31  1  0  0  0  0
  5 32  1  0  0  0  0
  6 33  1  0  0  0  0
  7 34  1  0  0  0  0
  8 35  1  0  0  0  0
  9 36  1  0  0  0  0
 10 37  1  0  0  0  0
 11 38  1  0  0  0  0
 12 39  1  0  0  0  0
 13 40  1  0  0  0  0
 19 41  1  0  0  0  0
 19 42  1  0  0  0  0
 20 43  1  0  0  0  0
 21 44  1  0  0  0  0
 22 45  1  0  0  0  0
 22 46  1  0  0  0  0
 23 47  1  0  0  0  0
 23 48  1  0  0  0  0
M  END
> <Chemgauss4>
-6.837407

> <ref_pdb>
x0831_0

> <CYS145-warhead min dist (A)>
6.1138115

> <CYS145-warhead avg dist (A)>
6.73478

> <CYS145-warhead avg dist stderr (A)>
0.03397687

> <original SMILES>
c1ccc(cc1)[C@H]2c3ccccc3CN([C@@H]2Cc4cccnc4)C(=O)CCl

$$$$
REN-UFA-aaa-3
  -OEChem-04232002263D

 49 51  0     1  0  0  0  0  0999 V2000
   12.5587    0.6370   23.8536 C   0  0  0  0  0  0  0  0  0  0  0  0
   12.5285    0.1749   22.5379 C   0  0  0  0  0  0  0  0  0  0  0  0
   11.6264    0.1678   24.7791 C   0  0  0  0  0  0  0  0  0  0  0  0
    8.6341   -5.2426   25.6379 C   0  0  0  0  0  0  0  0  0  0  0  0
    9.9548   -4.8614   25.4257 C   0  0  0  0  0  0  0  0  0  0  0  0
   11.5661   -0.7562   22.1475 C   0  0  0  0  0  0  0  0  0  0  0  0
   10.6640   -0.7634   24.3888 C   0  0  0  0  0  0  0  0  0  0  0  0
    7.6157   -4.6714   24.8777 C   0  0  0  0  0  0  0  0  0  0  0  0
   10.2578   -3.8962   24.4648 C   0  0  0  0  0  0  0  0  0  0  0  0
   10.6338   -1.2254   23.0730 C   0  0  0  0  0  0  0  0  0  0  0  0
    7.9081   -3.7090   23.8990 C   0  0  0  0  0  0  0  0  0  0  0  0
    9.2411   -3.2843   23.7106 C   0  0  0  0  0  0  0  0  0  0  0  0
    8.1877   -2.5889   18.8095 C   0  0  0  0  0  0  0  0  0  0  0  0
    7.1892   -1.9981   19.4766 C   0  0  0  0  0  0  0  0  0  0  0  0
    6.6600   -2.7119   20.6558 C   0  0  0  0  0  0  0  0  0  0  0  0
    6.7735   -3.1340   23.0852 C   0  0  0  0  0  0  0  0  0  0  0  0
    8.3324   -1.4940   22.1467 C   0  0  0  0  0  0  0  0  0  0  0  0
    9.5827   -2.2417   22.6475 C   0  0  1  0  0  0  0  0  0  0  0  0
    5.0323   -1.7068   17.5064 C   0  0  0  0  0  0  0  0  0  0  0  0
    5.4666    0.7438   17.4245 C   0  0  0  0  0  0  0  0  0  0  0  0
    6.6096   -0.6666   19.1288 C   0  0  0  0  0  0  0  0  0  0  0  0
    7.2503   -2.4458   21.8869 N   0  0  0  0  0  0  0  0  0  0  0  0
    6.0376   -0.6114   17.7571 N   0  3  0  0  0  0  0  0  0  0  0  0
    5.7353   -3.5064   20.4779 O   0  0  0  0  0  0  0  0  0  0  0  0
   13.3090    1.3610   24.1577 H   0  0  0  0  0  0  0  0  0  0  0  0
   13.2550    0.5393   21.8174 H   0  0  0  0  0  0  0  0  0  0  0  0
   11.6503    0.5264   25.8038 H   0  0  0  0  0  0  0  0  0  0  0  0
    8.3963   -5.9825   26.3962 H   0  0  0  0  0  0  0  0  0  0  0  0
   10.7525   -5.3156   26.0073 H   0  0  0  0  0  0  0  0  0  0  0  0
   11.5500   -1.1104   21.1201 H   0  0  0  0  0  0  0  0  0  0  0  0
    9.9416   -1.1232   25.1166 H   0  0  0  0  0  0  0  0  0  0  0  0
    6.5871   -4.9762   25.0536 H   0  0  0  0  0  0  0  0  0  0  0  0
   11.2994   -3.6230   24.3018 H   0  0  0  0  0  0  0  0  0  0  0  0
    8.6324   -2.1147   17.9404 H   0  0  0  0  0  0  0  0  0  0  0  0
    8.5892   -3.5534   19.1032 H   0  0  0  0  0  0  0  0  0  0  0  0
    6.1199   -3.9365   22.7584 H   0  0  0  0  0  0  0  0  0  0  0  0
    6.2319   -2.4355   23.7120 H   0  0  0  0  0  0  0  0  0  0  0  0
    8.0268   -0.7328   22.8575 H   0  0  0  0  0  0  0  0  0  0  0  0
    8.5472   -1.0052   21.1977 H   0  0  0  0  0  0  0  0  0  0  0  0
   10.0076   -2.7710   21.7592 H   0  0  0  0  0  0  0  0  0  0  0  0
    4.2021   -1.5633   18.2004 H   0  0  0  0  0  0  0  0  0  0  0  0
    4.6975   -1.6225   16.4708 H   0  0  0  0  0  0  0  0  0  0  0  0
    5.5294   -2.6628   17.6817 H   0  0  0  0  0  0  0  0  0  0  0  0
    4.6455    0.9392   18.1167 H   0  0  0  0  0  0  0  0  0  0  0  0
    6.2636    1.4804   17.5427 H   0  0  0  0  0  0  0  0  0  0  0  0
    5.1109    0.7124   16.3928 H   0  0  0  0  0  0  0  0  0  0  0  0
    7.3613    0.1285   19.1729 H   0  0  0  0  0  0  0  0  0  0  0  0
    5.7979   -0.4025   19.8148 H   0  0  0  0  0  0  0  0  0  0  0  0
    6.8100   -0.7706   17.0894 H   0  0  0  0  0  0  0  0  0  0  0  0
  1  2  1  0  0  0  0
  1  3  2  0  0  0  0
  2  6  2  0  0  0  0
  3  7  1  0  0  0  0
  4  5  1  0  0  0  0
  4  8  2  0  0  0  0
  5  9  2  0  0  0  0
  6 10  1  0  0  0  0
  7 10  2  0  0  0  0
  8 11  1  0  0  0  0
  9 12  1  0  0  0  0
 10 18  1  0  0  0  0
 11 12  2  0  0  0  0
 11 16  1  0  0  0  0
 12 18  1  0  0  0  0
 13 14  2  0  0  0  0
 14 15  1  0  0  0  0
 14 21  1  0  0  0  0
 15 22  1  0  0  0  0
 15 24  2  0  0  0  0
 16 22  1  0  0  0  0
 17 18  1  0  0  0  0
 17 22  1  0  0  0  0
 19 23  1  0  0  0  0
 20 23  1  0  0  0  0
 21 23  1  0  0  0  0
  1 25  1  0  0  0  0
  2 26  1  0  0  0  0
  3 27  1  0  0  0  0
  4 28  1  0  0  0  0
  5 29  1  0  0  0  0
  6 30  1  0  0  0  0
  7 31  1  0  0  0  0
  8 32  1  0  0  0  0
  9 33  1  0  0  0  0
 13 34  1  0  0  0  0
 13 35  1  0  0  0  0
 16 36  1  0  0  0  0
 16 37  1  0  0  0  0
 17 38  1  0  0  0  0
 17 39  1  0  0  0  0
 18 40  1  0  0  0  0
 19 41  1  0  0  0  0
 19 42  1  0  0  0  0
 19 43  1  0  0  0  0
 20 44  1  0  0  0  0
 20 45  1  0  0  0  0
 20 46  1  0  0  0  0
 21 47  1  0  0  0  0
 21 48  1  0  0  0  0
 23 49  1  0  0  0  0
M  CHG  1  23   1
M  END
> <Chemgauss4>
-6.805647

> <ref_pdb>
x1418_0

> <original SMILES>
C[NH+](C)CC(=C)C(=O)N1Cc2ccccc2[C@@H](C1)c3ccccc3

$$$$
NIR-THE-ed2-1
  -OEChem-04232002263D

 59 61  0     0  0  0  0  0  0999 V2000
    7.6808   -5.4975   23.3124 C   0  0  0  0  0  0  0  0  0  0  0  0
    8.7500   -4.6599   22.9949 C   0  0  0  0  0  0  0  0  0  0  0  0
   13.2628   -0.7346   25.7517 C   0  0  0  0  0  0  0  0  0  0  0  0
    6.1590   -3.9661   22.2281 C   0  0  0  0  0  0  0  0  0  0  0  0
   13.8561   -1.9867   25.7484 C   0  0  0  0  0  0  0  0  0  0  0  0
   11.9948   -2.9649   24.8229 C   0  0  0  0  0  0  0  0  0  0  0  0
    6.3853   -5.1506   22.9290 C   0  0  0  0  0  0  0  0  0  0  0  0
    8.5237   -3.4754   22.2940 C   0  0  0  0  0  0  0  0  0  0  0  0
   11.9675   -0.6269   25.2581 C   0  0  0  0  0  0  0  0  0  0  0  0
    7.2282   -3.1284   21.9105 C   0  0  0  0  0  0  0  0  0  0  0  0
   11.3142   -1.7586   24.7830 C   0  0  0  0  0  0  0  0  0  0  0  0
    5.2611   -6.0329   23.2631 C   0  0  0  0  0  0  0  0  0  0  0  0
    8.8513   -1.8879   25.1418 C   0  0  0  0  0  0  0  0  0  0  0  0
    5.9581   -1.7399   20.2914 C   0  0  0  0  0  0  0  0  0  0  0  0
    5.7892   -5.7750   25.7430 C   0  0  0  0  0  0  0  0  0  0  0  0
    3.8556   -7.1170   24.9833 C   0  0  0  0  0  0  0  0  0  0  0  0
    4.9698   -4.7928   26.5714 C   0  0  0  0  0  0  0  0  0  0  0  0
    2.8092   -6.2935   25.7247 C   0  0  0  0  0  0  0  0  0  0  0  0
   11.3035    0.7109   25.2504 C   0  0  0  0  0  0  0  0  0  0  0  0
    9.2229   -2.2898   26.5507 C   0  0  0  0  0  0  0  0  0  0  0  0
    9.6878   -2.5969   21.9683 C   0  0  0  0  0  0  0  0  0  0  0  0
    5.9913   -0.3407   19.7217 C   0  0  0  0  0  0  0  0  0  0  0  0
    9.7870   -1.3580   22.8650 C   0  0  0  0  0  0  0  0  0  0  0  0
   13.2533   -3.1086   25.2951 N   0  0  0  0  0  0  0  0  0  0  0  0
    5.0112   -6.2995   24.6125 N   0  0  0  0  0  0  0  0  0  0  0  0
    6.9817   -1.9465   21.2073 N   0  0  0  0  0  0  0  0  0  0  0  0
    9.9508   -1.6985   24.2529 N   0  0  0  0  0  0  0  0  0  0  0  0
    4.6138   -6.4687   22.3123 O   0  0  0  0  0  0  0  0  0  0  0  0
    7.6525   -1.7926   24.8668 O   0  0  0  0  0  0  0  0  0  0  0  0
    5.1047   -2.5393   19.9160 O   0  0  0  0  0  0  0  0  0  0  0  0
    3.4832   -5.5871   27.2626 S   0  0  0  0  0  0  0  0  0  0  0  0
    7.0063   -0.3722   18.2710 Cl  0  0  0  0  0  0  0  0  0  0  0  0
    7.8687   -6.4183   23.8587 H   0  0  0  0  0  0  0  0  0  0  0  0
    9.7555   -4.9392   23.2984 H   0  0  0  0  0  0  0  0  0  0  0  0
   13.7999    0.1287   26.1298 H   0  0  0  0  0  0  0  0  0  0  0  0
    5.1479   -3.6960   21.9303 H   0  0  0  0  0  0  0  0  0  0  0  0
   14.8652   -2.1241   26.1229 H   0  0  0  0  0  0  0  0  0  0  0  0
   11.5382   -3.8834   24.4660 H   0  0  0  0  0  0  0  0  0  0  0  0
    6.6959   -5.2746   25.3925 H   0  0  0  0  0  0  0  0  0  0  0  0
    6.1174   -6.6282   26.3497 H   0  0  0  0  0  0  0  0  0  0  0  0
    4.2115   -7.9553   25.5944 H   0  0  0  0  0  0  0  0  0  0  0  0
    3.3992   -7.5475   24.0854 H   0  0  0  0  0  0  0  0  0  0  0  0
    5.5718   -4.4194   27.4057 H   0  0  0  0  0  0  0  0  0  0  0  0
    4.6677   -3.9284   25.9703 H   0  0  0  0  0  0  0  0  0  0  0  0
    2.4308   -5.4814   25.0944 H   0  0  0  0  0  0  0  0  0  0  0  0
    1.9573   -6.9283   25.9887 H   0  0  0  0  0  0  0  0  0  0  0  0
   11.5081    1.2310   24.3075 H   0  0  0  0  0  0  0  0  0  0  0  0
   10.2171    0.6148   25.3681 H   0  0  0  0  0  0  0  0  0  0  0  0
   11.6604    1.3352   26.0788 H   0  0  0  0  0  0  0  0  0  0  0  0
    9.3636   -1.4020   27.1731 H   0  0  0  0  0  0  0  0  0  0  0  0
   10.1236   -2.9094   26.5465 H   0  0  0  0  0  0  0  0  0  0  0  0
    8.4095   -2.8789   26.9866 H   0  0  0  0  0  0  0  0  0  0  0  0
    9.6110   -2.2670   20.9195 H   0  0  0  0  0  0  0  0  0  0  0  0
   10.6295   -3.1674   22.0255 H   0  0  0  0  0  0  0  0  0  0  0  0
    6.3997    0.3920   20.4222 H   0  0  0  0  0  0  0  0  0  0  0  0
    4.9784   -0.0369   19.4429 H   0  0  0  0  0  0  0  0  0  0  0  0
   10.6540   -0.7518   22.5843 H   0  0  0  0  0  0  0  0  0  0  0  0
    8.8919   -0.7329   22.7817 H   0  0  0  0  0  0  0  0  0  0  0  0
    7.6097   -1.1654   21.3822 H   0  0  0  0  0  0  0  0  0  0  0  0
  1  2  2  0  0  0  0
  1  7  1  0  0  0  0
  2  8  1  0  0  0  0
  3  5  2  0  0  0  0
  3  9  1  0  0  0  0
  4  7  2  0  0  0  0
  4 10  1  0  0  0  0
  5 24  1  0  0  0  0
  6 11  1  0  0  0  0
  6 24  2  0  0  0  0
  7 12  1  0  0  0  0
  8 10  2  0  0  0  0
  8 21  1  0  0  0  0
  9 11  2  0  0  0  0
  9 19  1  0  0  0  0
 10 26  1  0  0  0  0
 11 27  1  0  0  0  0
 12 25  1  0  0  0  0
 12 28  2  0  0  0  0
 13 20  1  0  0  0  0
 13 27  1  0  0  0  0
 13 29  2  0  0  0  0
 14 22  1  0  0  0  0
 14 26  1  0  0  0  0
 14 30  2  0  0  0  0
 15 17  1  0  0  0  0
 15 25  1  0  0  0  0
 16 18  1  0  0  0  0
 16 25  1  0  0  0  0
 17 31  1  0  0  0  0
 18 31  1  0  0  0  0
 21 23  1  0  0  0  0
 22 32  1  0  0  0  0
 23 27  1  0  0  0  0
  1 33  1  0  0  0  0
  2 34  1  0  0  0  0
  3 35  1  0  0  0  0
  4 36  1  0  0  0  0
  5 37  1  0  0  0  0
  6 38  1  0  0  0  0
 15 39  1  0  0  0  0
 15 40  1  0  0  0  0
 16 41  1  0  0  0  0
 16 42  1  0  0  0  0
 17 43  1  0  0  0  0
 17 44  1  0  0  0  0
 18 45  1  0  0  0  0
 18 46  1  0  0  0  0
 19 47  1  0  0  0  0
 19 48  1  0  0  0  0
 19 49  1  0  0  0  0
 20 50  1  0  0  0  0
 20 51  1  0  0  0  0
 20 52  1  0  0  0  0
 21 53  1  0  0  0  0
 21 54  1  0  0  0  0
 22 55  1  0  0  0  0
 22 56  1  0  0  0  0
 23 57  1  0  0  0  0
 23 58  1  0  0  0  0
 26 59  1  0  0  0  0
M  END
> <Chemgauss4>
-6.801996

> <ref_pdb>
x0749_0

> <CYS145-warhead min dist (A)>
3.1508956

> <CYS145-warhead avg dist (A)>
3.777544

> <CYS145-warhead avg dist stderr (A)>
0.014425981

> <original SMILES>
Cc1ccncc1N(CCc2ccc(cc2NC(=O)CCl)C(=O)N3CCSCC3)C(=O)C

$$$$
PAU-UNI-f43-1
  -OEChem-04232002263D

 58 60  0     1  0  0  0  0  0999 V2000
    7.3755   -2.8287   22.3872 C   0  0  0  0  0  0  0  0  0  0  0  0
    6.9168   -2.0449   21.3347 C   0  0  0  0  0  0  0  0  0  0  0  0
    9.1476   -1.1646   21.0459 C   0  0  0  0  0  0  0  0  0  0  0  0
    8.7237   -2.7784   22.7824 C   0  0  0  0  0  0  0  0  0  0  0  0
    9.6499   -1.9508   22.1016 C   0  0  0  0  0  0  0  0  0  0  0  0
    7.8023   -1.2105   20.6664 C   0  0  0  0  0  0  0  0  0  0  0  0
    7.6374    2.0579   25.1546 C   0  0  0  0  0  0  0  0  0  0  0  0
    9.1668   -3.6641   23.9217 C   0  0  0  0  0  0  0  0  0  0  0  0
   10.4691   -3.1657   24.5318 C   0  0  0  0  0  0  0  0  0  0  0  0
    9.8552    4.6494   24.0939 C   0  0  0  0  0  0  0  0  0  0  0  0
   11.2296    3.9810   24.1279 C   0  0  0  0  0  0  0  0  0  0  0  0
   11.4881   -2.9129   23.4308 C   0  0  0  0  0  0  0  0  0  0  0  0
    8.9674    4.1424   25.2261 C   0  0  0  0  0  0  0  0  0  0  0  0
   10.1787    1.9909   25.2731 C   0  0  0  0  0  0  0  0  0  0  0  0
   11.0984    2.4501   24.1326 C   0  0  2  0  0  0  0  0  0  0  0  0
    7.6361    0.5501   25.1342 C   0  0  0  0  0  0  0  0  0  0  0  0
   12.4703    1.7895   24.2429 C   0  0  0  0  0  0  0  0  0  0  0  0
   12.4355    0.3526   23.7300 C   0  0  0  0  0  0  0  0  0  0  0  0
   12.0429    0.3043   22.2534 C   0  0  0  0  0  0  0  0  0  0  0  0
   11.9695   -1.1307   21.7456 C   0  0  0  0  0  0  0  0  0  0  0  0
   10.9909   -1.9118   22.4883 N   0  0  3  0  0  0  0  0  0  0  0  0
    8.8837    2.6812   25.2063 N   0  0  0  0  0  0  0  0  0  0  0  0
    6.7784    1.2012   20.1764 N   0  0  0  0  0  0  0  0  0  0  0  0
    6.5620    2.6618   25.1231 O   0  0  0  0  0  0  0  0  0  0  0  0
    8.3676    0.0850   18.4811 O   0  0  0  0  0  0  0  0  0  0  0  0
    6.0423   -0.8368   18.7830 O   0  0  0  0  0  0  0  0  0  0  0  0
    7.2354   -0.2194   19.3445 S   0  0  0  0  0  0  0  0  0  0  0  0
    5.9494    0.0481   25.1054 Cl  0  0  0  0  0  0  0  0  0  0  0  0
    6.6775   -3.4820   22.9054 H   0  0  0  0  0  0  0  0  0  0  0  0
    5.8708   -2.0934   21.0455 H   0  0  0  0  0  0  0  0  0  0  0  0
    9.8069   -0.5000   20.4913 H   0  0  0  0  0  0  0  0  0  0  0  0
    8.3973   -3.6938   24.7020 H   0  0  0  0  0  0  0  0  0  0  0  0
    9.2979   -4.6836   23.5387 H   0  0  0  0  0  0  0  0  0  0  0  0
   10.2970   -2.2410   25.0981 H   0  0  0  0  0  0  0  0  0  0  0  0
   10.8543   -3.9077   25.2404 H   0  0  0  0  0  0  0  0  0  0  0  0
    9.9733    5.7357   24.1752 H   0  0  0  0  0  0  0  0  0  0  0  0
    9.3716    4.4501   23.1297 H   0  0  0  0  0  0  0  0  0  0  0  0
   11.8149    4.3062   23.2598 H   0  0  0  0  0  0  0  0  0  0  0  0
   11.7719    4.3136   25.0224 H   0  0  0  0  0  0  0  0  0  0  0  0
   12.4186   -2.5664   23.8923 H   0  0  0  0  0  0  0  0  0  0  0  0
   11.7153   -3.8422   22.8969 H   0  0  0  0  0  0  0  0  0  0  0  0
    9.3815    4.4334   26.1988 H   0  0  0  0  0  0  0  0  0  0  0  0
    7.9731    4.5928   25.1461 H   0  0  0  0  0  0  0  0  0  0  0  0
   10.0607    0.9061   25.2367 H   0  0  0  0  0  0  0  0  0  0  0  0
   10.6196    2.2323   26.2484 H   0  0  0  0  0  0  0  0  0  0  0  0
   10.6497    2.1365   23.1800 H   0  0  0  0  0  0  0  0  0  0  0  0
    8.1174    0.1860   26.0347 H   0  0  0  0  0  0  0  0  0  0  0  0
    8.1411    0.2104   24.2372 H   0  0  0  0  0  0  0  0  0  0  0  0
   12.7881    1.8087   25.2897 H   0  0  0  0  0  0  0  0  0  0  0  0
   13.1924    2.3775   23.6685 H   0  0  0  0  0  0  0  0  0  0  0  0
   11.7198   -0.2331   24.3198 H   0  0  0  0  0  0  0  0  0  0  0  0
   13.4204   -0.1114   23.8637 H   0  0  0  0  0  0  0  0  0  0  0  0
   12.7702    0.8688   21.6565 H   0  0  0  0  0  0  0  0  0  0  0  0
   11.0722    0.7957   22.1112 H   0  0  0  0  0  0  0  0  0  0  0  0
   12.9355   -1.6345   21.8494 H   0  0  0  0  0  0  0  0  0  0  0  0
   11.6763   -1.1563   20.6912 H   0  0  0  0  0  0  0  0  0  0  0  0
    5.9354    1.1662   20.7626 H   0  0  0  0  0  0  0  0  0  0  0  0
    7.5233    1.7983   20.5557 H   0  0  0  0  0  0  0  0  0  0  0  0
  1  2  2  0  0  0  0
  1  4  1  0  0  0  0
  2  6  1  0  0  0  0
  3  5  1  0  0  0  0
  3  6  2  0  0  0  0
  4  5  2  0  0  0  0
  4  8  1  0  0  0  0
  5 21  1  0  0  0  0
  6 27  1  0  0  0  0
  7 16  1  0  0  0  0
  7 22  1  0  0  0  0
  7 24  2  0  0  0  0
  8  9  1  0  0  0  0
  9 12  1  0  0  0  0
 10 11  1  0  0  0  0
 10 13  1  0  0  0  0
 11 15  1  0  0  0  0
 12 21  1  0  0  0  0
 13 22  1  0  0  0  0
 14 15  1  0  0  0  0
 14 22  1  0  0  0  0
 15 17  1  0  0  0  0
 16 28  1  0  0  0  0
 17 18  1  0  0  0  0
 18 19  1  0  0  0  0
 19 20  1  0  0  0  0
 20 21  1  0  0  0  0
 23 27  1  0  0  0  0
 25 27  2  0  0  0  0
 26 27  2  0  0  0  0
  1 29  1  0  0  0  0
  2 30  1  0  0  0  0
  3 31  1  0  0  0  0
  8 32  1  0  0  0  0
  8 33  1  0  0  0  0
  9 34  1  0  0  0  0
  9 35  1  0  0  0  0
 10 36  1  0  0  0  0
 10 37  1  0  0  0  0
 11 38  1  0  0  0  0
 11 39  1  0  0  0  0
 12 40  1  0  0  0  0
 12 41  1  0  0  0  0
 13 42  1  0  0  0  0
 13 43  1  0  0  0  0
 14 44  1  0  0  0  0
 14 45  1  0  0  0  0
 15 46  1  0  0  0  0
 16 47  1  0  0  0  0
 16 48  1  0  0  0  0
 17 49  1  0  0  0  0
 17 50  1  0  0  0  0
 18 51  1  0  0  0  0
 18 52  1  0  0  0  0
 19 53  1  0  0  0  0
 19 54  1  0  0  0  0
 20 55  1  0  0  0  0
 20 56  1  0  0  0  0
 23 57  1  0  0  0  0
 23 58  1  0  0  0  0
M  END
> <Chemgauss4>
-6.794876

> <ref_pdb>
x0830_0

> <CYS145-warhead min dist (A)>
7.0606003

> <CYS145-warhead avg dist (A)>
8.622405

> <CYS145-warhead avg dist stderr (A)>
0.046761215

> <original SMILES>
c1cc2c(cc1S(=O)(=O)N)N(CCC2)CCCC[C@@H]3CCCN(C3)C(=O)CCl

$$$$
NIR-THE-99f-1_thio_pH
  -OEChem-04232002263D

 58 61  0     1  0  0  0  0  0999 V2000
    2.9542   -1.4592   23.2796 C   0  0  0  0  0  0  0  0  0  0  0  0
   12.1785    2.4915   24.0901 C   0  0  0  0  0  0  0  0  0  0  0  0
   10.9793    2.0171   24.6133 C   0  0  0  0  0  0  0  0  0  0  0  0
    3.7112   -2.6300   23.2384 C   0  0  0  0  0  0  0  0  0  0  0  0
    3.4002   -0.3165   22.6156 C   0  0  0  0  0  0  0  0  0  0  0  0
   12.8396   -1.7350   21.7725 C   0  0  0  0  0  0  0  0  0  0  0  0
   12.9445    1.6805   23.2523 C   0  0  0  0  0  0  0  0  0  0  0  0
   10.5414    0.7299   24.3005 C   0  0  0  0  0  0  0  0  0  0  0  0
   13.2773   -0.4478   22.0852 C   0  0  0  0  0  0  0  0  0  0  0  0
    4.9144   -2.6581   22.5332 C   0  0  0  0  0  0  0  0  0  0  0  0
    4.6034   -0.3446   21.9104 C   0  0  0  0  0  0  0  0  0  0  0  0
   11.6403   -2.2094   22.2957 C   0  0  0  0  0  0  0  0  0  0  0  0
   12.5191    0.3823   22.9269 C   0  0  0  0  0  0  0  0  0  0  0  0
   11.2996   -0.1002   23.4589 C   0  0  0  0  0  0  0  0  0  0  0  0
    5.3605   -1.5154   21.8692 C   0  0  0  0  0  0  0  0  0  0  0  0
   10.8743   -1.3985   23.1335 C   0  0  0  0  0  0  0  0  0  0  0  0
    6.0116   -1.1731   18.7015 C   0  0  0  0  0  0  0  0  0  0  0  0
    9.0223   -3.4315   25.5958 C   0  0  0  0  0  0  0  0  0  0  0  0
    8.1888   -0.4309   19.6328 C   0  0  0  0  0  0  0  0  0  0  0  0
    8.7980   -0.3126   21.0231 C   0  0  0  0  0  0  0  0  0  0  0  0
    6.6701   -1.5452   21.1016 C   0  0  1  0  0  0  0  0  0  0  0  0
    6.6976   -0.5921   19.8980 C   0  0  2  0  0  0  0  0  0  0  0  0
    7.8947   -1.1365   21.9559 C   0  0  1  0  0  0  0  0  0  0  0  0
    9.4863   -4.6542   26.3454 C   0  0  0  0  0  0  0  0  0  0  0  0
    8.6181   -2.3522   22.5296 C   0  0  0  0  0  0  0  0  0  0  0  0
    9.5800   -1.9776   23.6678 C   0  0  1  0  0  0  0  0  0  0  0  0
    6.1216   -0.4004   17.5696 N   0  0  0  0  0  0  0  0  0  0  0  0
    9.8472   -3.1039   24.5343 N   0  0  0  0  0  0  0  0  0  0  0  0
    5.4245   -2.2514   18.7453 O   0  0  0  0  0  0  0  0  0  0  0  0
    8.0018   -2.8238   25.9143 O   0  0  0  0  0  0  0  0  0  0  0  0
    8.1997   -5.8674   26.2577 Cl  0  0  0  0  0  0  0  0  0  0  0  0
    2.0167   -1.4379   23.8276 H   0  0  0  0  0  0  0  0  0  0  0  0
   12.5188    3.4937   24.3340 H   0  0  0  0  0  0  0  0  0  0  0  0
   10.3836    2.6493   25.2654 H   0  0  0  0  0  0  0  0  0  0  0  0
    3.3635   -3.5202   23.7544 H   0  0  0  0  0  0  0  0  0  0  0  0
    2.8106    0.5949   22.6465 H   0  0  0  0  0  0  0  0  0  0  0  0
   13.4355   -2.3669   21.1204 H   0  0  0  0  0  0  0  0  0  0  0  0
   13.8785    2.0722   22.8547 H   0  0  0  0  0  0  0  0  0  0  0  0
    9.5993    0.3956   24.7289 H   0  0  0  0  0  0  0  0  0  0  0  0
   14.2179   -0.0978   21.6649 H   0  0  0  0  0  0  0  0  0  0  0  0
    5.4977   -3.5747   22.5067 H   0  0  0  0  0  0  0  0  0  0  0  0
    4.9431    0.5506   21.3961 H   0  0  0  0  0  0  0  0  0  0  0  0
   11.3099   -3.2141   22.0447 H   0  0  0  0  0  0  0  0  0  0  0  0
    8.4061    0.4519   19.0152 H   0  0  0  0  0  0  0  0  0  0  0  0
    8.6009   -1.3054   19.1052 H   0  0  0  0  0  0  0  0  0  0  0  0
    9.8489   -0.6322   21.0400 H   0  0  0  0  0  0  0  0  0  0  0  0
    8.7776    0.7417   21.3393 H   0  0  0  0  0  0  0  0  0  0  0  0
    6.7916   -2.6023   20.7522 H   0  0  0  0  0  0  0  0  0  0  0  0
    6.2428    0.3793   20.1274 H   0  0  0  0  0  0  0  0  0  0  0  0
    7.5987   -0.4975   22.8043 H   0  0  0  0  0  0  0  0  0  0  0  0
   10.4002   -5.0821   25.9261 H   0  0  0  0  0  0  0  0  0  0  0  0
    9.6618   -4.3935   27.3927 H   0  0  0  0  0  0  0  0  0  0  0  0
    7.8661   -3.0714   22.8731 H   0  0  0  0  0  0  0  0  0  0  0  0
    9.1731   -2.8331   21.7159 H   0  0  0  0  0  0  0  0  0  0  0  0
    9.0912   -1.2310   24.3060 H   0  0  0  0  0  0  0  0  0  0  0  0
    6.6379    0.4714   17.6234 H   0  0  0  0  0  0  0  0  0  0  0  0
    5.7071   -0.6671   16.6825 H   0  0  0  0  0  0  0  0  0  0  0  0
   10.6680   -3.6737   24.3578 H   0  0  0  0  0  0  0  0  0  0  0  0
  1  4  1  0  0  0  0
  1  5  2  0  0  0  0
  2  3  1  0  0  0  0
  2  7  2  0  0  0  0
  3  8  2  0  0  0  0
  4 10  2  0  0  0  0
  5 11  1  0  0  0  0
  6  9  1  0  0  0  0
  6 12  2  0  0  0  0
  7 13  1  0  0  0  0
  8 14  1  0  0  0  0
  9 13  2  0  0  0  0
 10 15  1  0  0  0  0
 11 15  2  0  0  0  0
 12 16  1  0  0  0  0
 13 14  1  0  0  0  0
 14 16  2  0  0  0  0
 15 21  1  0  0  0  0
 16 26  1  0  0  0  0
 17 22  1  0  0  0  0
 17 27  1  0  0  0  0
 17 29  2  0  0  0  0
 18 24  1  0  0  0  0
 18 28  1  0  0  0  0
 18 30  2  0  0  0  0
 19 20  1  0  0  0  0
 19 22  1  0  0  0  0
 20 23  1  0  0  0  0
 21 22  1  0  0  0  0
 21 23  1  0  0  0  0
 23 25  1  0  0  0  0
 24 31  1  0  0  0  0
 25 26  1  0  0  0  0
 26 28  1  0  0  0  0
  1 32  1  0  0  0  0
  2 33  1  0  0  0  0
  3 34  1  0  0  0  0
  4 35  1  0  0  0  0
  5 36  1  0  0  0  0
  6 37  1  0  0  0  0
  7 38  1  0  0  0  0
  8 39  1  0  0  0  0
  9 40  1  0  0  0  0
 10 41  1  0  0  0  0
 11 42  1  0  0  0  0
 12 43  1  0  0  0  0
 19 44  1  0  0  0  0
 19 45  1  0  0  0  0
 20 46  1  0  0  0  0
 20 47  1  0  0  0  0
 21 48  1  0  0  0  0
 22 49  1  0  0  0  0
 23 50  1  0  0  0  0
 24 51  1  0  0  0  0
 24 52  1  0  0  0  0
 25 53  1  0  0  0  0
 25 54  1  0  0  0  0
 26 55  1  0  0  0  0
 27 56  1  0  0  0  0
 27 57  1  0  0  0  0
 28 58  1  0  0  0  0
M  END
> <Chemgauss4>
-6.793869

> <ref_pdb>
x0831_0

> <CYS145-warhead min dist (A)>
5.164091

> <CYS145-warhead avg dist (A)>
6.4253144

> <CYS145-warhead avg dist stderr (A)>
0.02680099

> <original SMILES>
c1ccc(cc1)[C@@H]2[C@H](CC[C@H]2C(=O)N)C[C@H](c3cccc4c3cccc4)NC(=O)CCl

$$$$
MAK-UNK-e4a-21_thio_pH
  -OEChem-04232002263D

 44 46  0     0  0  0  0  0  0999 V2000
    9.7996    5.0869   24.4069 C   0  0  0  0  0  0  0  0  0  0  0  0
   10.7096    4.9336   23.3610 C   0  0  0  0  0  0  0  0  0  0  0  0
    9.8809    4.2618   25.5287 C   0  0  0  0  0  0  0  0  0  0  0  0
   11.7008    3.9551   23.4367 C   0  0  0  0  0  0  0  0  0  0  0  0
   10.8721    3.2834   25.6045 C   0  0  0  0  0  0  0  0  0  0  0  0
   12.7575   -0.8058   22.4293 C   0  0  0  0  0  0  0  0  0  0  0  0
   11.7821    3.1300   24.5585 C   0  0  0  0  0  0  0  0  0  0  0  0
   11.5535   -1.1679   22.9963 C   0  0  0  0  0  0  0  0  0  0  0  0
   12.5661    0.8345   23.8725 C   0  0  0  0  0  0  0  0  0  0  0  0
    6.2154   -1.9701   19.4133 C   0  0  0  0  0  0  0  0  0  0  0  0
    6.9955   -2.6422   21.6629 C   0  0  0  0  0  0  0  0  0  0  0  0
    7.9258   -0.5811   20.6834 C   0  0  0  0  0  0  0  0  0  0  0  0
    8.3928   -3.1278   22.0198 C   0  0  0  0  0  0  0  0  0  0  0  0
    9.3380   -1.0351   21.0275 C   0  0  0  0  0  0  0  0  0  0  0  0
   12.8621    2.0631   24.6416 C   0  0  0  0  0  0  0  0  0  0  0  0
   10.6627   -2.3373   22.6962 C   0  0  0  0  0  0  0  0  0  0  0  0
    6.3160   -0.9863   18.2750 C   0  0  0  0  0  0  0  0  0  0  0  0
   13.3394    0.3423   22.9302 N   0  0  0  0  0  0  0  0  0  0  0  0
    7.0316   -1.7321   20.5181 N   0  0  0  0  0  0  0  0  0  0  0  0
    9.2881   -1.9300   22.2456 N   0  3  0  0  0  0  0  0  0  0  0  0
    5.4362   -2.9220   19.3203 O   0  0  0  0  0  0  0  0  0  0  0  0
   11.1239   -0.0329   24.2081 S   0  0  0  0  0  0  0  0  0  0  0  0
    5.1065    0.2567   18.5750 Cl  0  0  0  0  0  0  0  0  0  0  0  0
    9.0287    5.8497   24.3484 H   0  0  0  0  0  0  0  0  0  0  0  0
   10.6471    5.5766   22.4879 H   0  0  0  0  0  0  0  0  0  0  0  0
    9.1732    4.3817   26.3437 H   0  0  0  0  0  0  0  0  0  0  0  0
   12.4054    3.8427   22.6169 H   0  0  0  0  0  0  0  0  0  0  0  0
   10.9277    2.6450   26.4823 H   0  0  0  0  0  0  0  0  0  0  0  0
   13.2614   -1.3471   21.6395 H   0  0  0  0  0  0  0  0  0  0  0  0
    6.3517   -3.5026   21.4548 H   0  0  0  0  0  0  0  0  0  0  0  0
    6.5476   -2.0973   22.5028 H   0  0  0  0  0  0  0  0  0  0  0  0
    7.5129    0.0383   21.4889 H   0  0  0  0  0  0  0  0  0  0  0  0
    7.9589    0.0409   19.7873 H   0  0  0  0  0  0  0  0  0  0  0  0
    8.3760   -3.7030   22.9512 H   0  0  0  0  0  0  0  0  0  0  0  0
    8.8346   -3.7326   21.2198 H   0  0  0  0  0  0  0  0  0  0  0  0
    9.7967   -1.6035   20.2107 H   0  0  0  0  0  0  0  0  0  0  0  0
    9.9687   -0.1765   21.2793 H   0  0  0  0  0  0  0  0  0  0  0  0
   13.8218    2.5142   24.3189 H   0  0  0  0  0  0  0  0  0  0  0  0
   13.0402    1.8309   25.7108 H   0  0  0  0  0  0  0  0  0  0  0  0
   11.0829   -2.9609   21.8999 H   0  0  0  0  0  0  0  0  0  0  0  0
   10.5294   -2.9700   23.5804 H   0  0  0  0  0  0  0  0  0  0  0  0
    6.0986   -1.5005   17.3458 H   0  0  0  0  0  0  0  0  0  0  0  0
    7.3077   -0.5487   18.2754 H   0  0  0  0  0  0  0  0  0  0  0  0
    8.8791   -1.3803   23.0139 H   0  0  0  0  0  0  0  0  0  0  0  0
  1  2  1  0  0  0  0
  1  3  2  0  0  0  0
  2  4  2  0  0  0  0
  3  5  1  0  0  0  0
  4  7  1  0  0  0  0
  5  7  2  0  0  0  0
  6  8  2  0  0  0  0
  6 18  1  0  0  0  0
  7 15  1  0  0  0  0
  8 16  1  0  0  0  0
  8 22  1  0  0  0  0
  9 15  1  0  0  0  0
  9 18  2  0  0  0  0
  9 22  1  0  0  0  0
 10 17  1  0  0  0  0
 10 19  1  0  0  0  0
 10 21  2  0  0  0  0
 11 13  1  0  0  0  0
 11 19  1  0  0  0  0
 12 14  1  0  0  0  0
 12 19  1  0  0  0  0
 13 20  1  0  0  0  0
 14 20  1  0  0  0  0
 16 20  1  0  0  0  0
 17 23  1  0  0  0  0
  1 24  1  0  0  0  0
  2 25  1  0  0  0  0
  3 26  1  0  0  0  0
  4 27  1  0  0  0  0
  5 28  1  0  0  0  0
  6 29  1  0  0  0  0
 11 30  1  0  0  0  0
 11 31  1  0  0  0  0
 12 32  1  0  0  0  0
 12 33  1  0  0  0  0
 13 34  1  0  0  0  0
 13 35  1  0  0  0  0
 14 36  1  0  0  0  0
 14 37  1  0  0  0  0
 15 38  1  0  0  0  0
 15 39  1  0  0  0  0
 16 40  1  0  0  0  0
 16 41  1  0  0  0  0
 17 42  1  0  0  0  0
 17 43  1  0  0  0  0
 20 44  1  0  0  0  0
M  CHG  1  20   1
M  END
> <Chemgauss4>
-6.788824

> <ref_pdb>
x0830_0

> <CYS145-warhead min dist (A)>
2.908327

> <CYS145-warhead avg dist (A)>
3.3811836

> <CYS145-warhead avg dist stderr (A)>
0.008859964

> <original SMILES>
c1ccc(cc1)Cc2ncc(s2)C[NH+]3CCN(CC3)C(=O)CCl

$$$$
NAU-LAT-f72-4
  -OEChem-04232002263D

 38 39  0     1  0  0  0  0  0999 V2000
    9.6290   -5.1038   26.0822 C   0  0  0  0  0  0  0  0  0  0  0  0
    9.8791   -4.9224   24.7220 C   0  0  0  0  0  0  0  0  0  0  0  0
    8.7058   -4.2881   26.7365 C   0  0  0  0  0  0  0  0  0  0  0  0
    9.2061   -3.9252   24.0161 C   0  0  0  0  0  0  0  0  0  0  0  0
    8.0329   -3.2909   26.0305 C   0  0  0  0  0  0  0  0  0  0  0  0
    8.2830   -3.1094   24.6703 C   0  0  0  0  0  0  0  0  0  0  0  0
    5.0924   -5.3102   22.9156 C   0  0  0  0  0  0  0  0  0  0  0  0
    5.5538   -4.0916   23.2043 C   0  0  0  0  0  0  0  0  0  0  0  0
    6.2048   -3.3038   22.1372 C   0  0  0  0  0  0  0  0  0  0  0  0
    7.8442   -1.6170   21.4411 C   0  0  0  0  0  0  0  0  0  0  0  0
    9.3090   -1.2974   21.7089 C   0  0  0  0  0  0  0  0  0  0  0  0
    8.3379   -0.6983   23.9441 C   0  0  0  0  0  0  0  0  0  0  0  0
    7.5461   -2.0175   23.8982 C   0  0  1  0  0  0  0  0  0  0  0  0
   12.1402   -0.4761   22.6607 C   0  0  0  0  0  0  0  0  0  0  0  0
    7.2033   -2.3955   22.5051 N   0  0  0  0  0  0  0  0  0  0  0  0
    9.5464   -0.7996   23.0896 N   0  0  2  0  0  0  0  0  0  0  0  0
    5.8263   -3.4951   20.9798 O   0  0  0  0  0  0  0  0  0  0  0  0
   10.9386    0.6324   24.6990 O   0  0  0  0  0  0  0  0  0  0  0  0
   10.4468    1.4932   22.3746 O   0  0  0  0  0  0  0  0  0  0  0  0
   10.7341    0.4071   23.2852 S   0  0  0  0  0  0  0  0  0  0  0  0
   10.1521   -5.8812   26.6314 H   0  0  0  0  0  0  0  0  0  0  0  0
   10.5970   -5.5582   24.2122 H   0  0  0  0  0  0  0  0  0  0  0  0
    8.5100   -4.4297   27.7952 H   0  0  0  0  0  0  0  0  0  0  0  0
    9.4075   -3.7910   22.9565 H   0  0  0  0  0  0  0  0  0  0  0  0
    7.3154   -2.6600   26.5486 H   0  0  0  0  0  0  0  0  0  0  0  0
    4.6055   -5.9358   23.6562 H   0  0  0  0  0  0  0  0  0  0  0  0
    5.1974   -5.7083   21.9119 H   0  0  0  0  0  0  0  0  0  0  0  0
    5.4674   -3.6603   24.1930 H   0  0  0  0  0  0  0  0  0  0  0  0
    7.3198   -0.6674   21.2769 H   0  0  0  0  0  0  0  0  0  0  0  0
    7.7470   -2.2054   20.5157 H   0  0  0  0  0  0  0  0  0  0  0  0
    9.9058   -2.2166   21.5465 H   0  0  0  0  0  0  0  0  0  0  0  0
    9.6798   -0.5502   20.9777 H   0  0  0  0  0  0  0  0  0  0  0  0
    7.7095    0.1156   23.5739 H   0  0  0  0  0  0  0  0  0  0  0  0
    8.6317   -0.4695   24.9707 H   0  0  0  0  0  0  0  0  0  0  0  0
    6.6029   -1.8443   24.4610 H   0  0  0  0  0  0  0  0  0  0  0  0
   13.0114    0.1782   22.7187 H   0  0  0  0  0  0  0  0  0  0  0  0
   12.2885   -1.3657   23.2747 H   0  0  0  0  0  0  0  0  0  0  0  0
   11.9395   -0.7549   21.6252 H   0  0  0  0  0  0  0  0  0  0  0  0
  1  2  1  0  0  0  0
  1  3  2  0  0  0  0
  2  4  2  0  0  0  0
  3  5  1  0  0  0  0
  4  6  1  0  0  0  0
  5  6  2  0  0  0  0
  6 13  1  0  0  0  0
  7  8  2  0  0  0  0
  8  9  1  0  0  0  0
  9 15  1  0  0  0  0
  9 17  2  0  0  0  0
 10 11  1  0  0  0  0
 10 15  1  0  0  0  0
 11 16  1  0  0  0  0
 12 13  1  0  0  0  0
 12 16  1  0  0  0  0
 13 15  1  0  0  0  0
 14 20  1  0  0  0  0
 16 20  1  0  0  0  0
 18 20  2  0  0  0  0
 19 20  2  0  0  0  0
  1 21  1  0  0  0  0
  2 22  1  0  0  0  0
  3 23  1  0  0  0  0
  4 24  1  0  0  0  0
  5 25  1  0  0  0  0
  7 26  1  0  0  0  0
  7 27  1  0  0  0  0
  8 28  1  0  0  0  0
 10 29  1  0  0  0  0
 10 30  1  0  0  0  0
 11 31  1  0  0  0  0
 11 32  1  0  0  0  0
 12 33  1  0  0  0  0
 12 34  1  0  0  0  0
 13 35  1  0  0  0  0
 14 36  1  0  0  0  0
 14 37  1  0  0  0  0
 14 38  1  0  0  0  0
M  END
> <Chemgauss4>
-6.774153

> <ref_pdb>
x1392_0

> <CYS145-warhead min dist (A)>
6.4828405

> <CYS145-warhead avg dist (A)>
7.11384

> <CYS145-warhead avg dist stderr (A)>
0.069793396

> <original SMILES>
CS(=O)(=O)[N@@]1CCN([C@H](C1)c2ccccc2)C(=O)C=C

$$$$
NIR-THE-0d6-5
  -OEChem-04232002263D

 45 47  0     0  0  0  0  0  0999 V2000
    6.6189   -3.2525   21.8361 C   0  0  0  0  0  0  0  0  0  0  0  0
    5.3329   -4.5764   23.4474 C   0  0  0  0  0  0  0  0  0  0  0  0
    7.8016   -2.6072   21.4739 C   0  0  0  0  0  0  0  0  0  0  0  0
    5.2479   -5.2363   24.6737 C   0  0  0  0  0  0  0  0  0  0  0  0
    8.8101   -3.2817   23.5609 C   0  0  0  0  0  0  0  0  0  0  0  0
    7.5242   -4.6057   25.1722 C   0  0  0  0  0  0  0  0  0  0  0  0
    6.5155   -3.9217   23.0665 C   0  0  0  0  0  0  0  0  0  0  0  0
    7.6276   -3.9365   23.9418 C   0  0  0  0  0  0  0  0  0  0  0  0
    8.8951   -2.6218   22.3346 C   0  0  0  0  0  0  0  0  0  0  0  0
    6.3415   -5.2510   25.5344 C   0  0  0  0  0  0  0  0  0  0  0  0
   12.8833    2.1868   24.0615 C   0  0  0  0  0  0  0  0  0  0  0  0
   12.1996   -0.8059   22.2122 C   0  0  0  0  0  0  0  0  0  0  0  0
   10.2772   -0.3267   23.7698 C   0  0  0  0  0  0  0  0  0  0  0  0
   13.1374   -0.1190   23.2014 C   0  0  0  0  0  0  0  0  0  0  0  0
   11.2539    0.3513   24.7285 C   0  0  0  0  0  0  0  0  0  0  0  0
   10.9789   -1.3960   22.9255 C   0  0  0  0  0  0  0  0  0  0  0  0
   11.8455    3.2626   24.2604 C   0  0  0  0  0  0  0  0  0  0  0  0
   12.4184    0.8734   24.0027 N   0  0  0  0  0  0  0  0  0  0  0  0
    5.6641   -4.8194   28.0760 N   0  0  0  0  0  0  0  0  0  0  0  0
   10.0663   -1.9812   21.9745 N   0  0  0  0  0  0  0  0  0  0  0  0
   14.0705    2.5064   23.9593 O   0  0  0  0  0  0  0  0  0  0  0  0
    5.2023   -7.1006   26.9677 O   0  0  0  0  0  0  0  0  0  0  0  0
    7.5771   -6.4434   27.4929 O   0  0  0  0  0  0  0  0  0  0  0  0
    6.2330   -6.0770   27.0690 S   0  0  0  0  0  0  0  0  0  0  0  0
   12.4747    4.7171   23.4946 Cl  0  0  0  0  0  0  0  0  0  0  0  0
    5.7765   -3.2286   21.1476 H   0  0  0  0  0  0  0  0  0  0  0  0
    4.4657   -4.5774   22.7903 H   0  0  0  0  0  0  0  0  0  0  0  0
    7.8572   -2.0955   20.5165 H   0  0  0  0  0  0  0  0  0  0  0  0
    4.3217   -5.7353   24.9465 H   0  0  0  0  0  0  0  0  0  0  0  0
    9.6729   -3.2878   24.2257 H   0  0  0  0  0  0  0  0  0  0  0  0
    8.3734   -4.6230   25.8536 H   0  0  0  0  0  0  0  0  0  0  0  0
   11.8858   -0.0989   21.4411 H   0  0  0  0  0  0  0  0  0  0  0  0
   12.7417   -1.6104   21.7074 H   0  0  0  0  0  0  0  0  0  0  0  0
    9.4814   -0.7996   24.3514 H   0  0  0  0  0  0  0  0  0  0  0  0
    9.8041    0.4193   23.1282 H   0  0  0  0  0  0  0  0  0  0  0  0
   13.6141   -0.8791   23.8262 H   0  0  0  0  0  0  0  0  0  0  0  0
   13.9463    0.4074   22.6788 H   0  0  0  0  0  0  0  0  0  0  0  0
   10.7802    1.1975   25.2365 H   0  0  0  0  0  0  0  0  0  0  0  0
   11.5642   -0.3584   25.5000 H   0  0  0  0  0  0  0  0  0  0  0  0
   11.3251   -2.2007   23.5942 H   0  0  0  0  0  0  0  0  0  0  0  0
   11.7118    3.4296   25.3231 H   0  0  0  0  0  0  0  0  0  0  0  0
   10.9247    2.9561   23.7777 H   0  0  0  0  0  0  0  0  0  0  0  0
    4.6923   -4.8683   28.4056 H   0  0  0  0  0  0  0  0  0  0  0  0
    6.3156   -4.4193   28.7621 H   0  0  0  0  0  0  0  0  0  0  0  0
   10.3010   -1.9150   20.9930 H   0  0  0  0  0  0  0  0  0  0  0  0
  1  3  2  0  0  0  0
  1  7  1  0  0  0  0
  2  4  2  0  0  0  0
  2  7  1  0  0  0  0
  3  9  1  0  0  0  0
  4 10  1  0  0  0  0
  5  8  1  0  0  0  0
  5  9  2  0  0  0  0
  6  8  1  0  0  0  0
  6 10  2  0  0  0  0
  7  8  2  0  0  0  0
  9 20  1  0  0  0  0
 10 24  1  0  0  0  0
 11 17  1  0  0  0  0
 11 18  1  0  0  0  0
 11 21  2  0  0  0  0
 12 14  1  0  0  0  0
 12 16  1  0  0  0  0
 13 15  1  0  0  0  0
 13 16  1  0  0  0  0
 14 18  1  0  0  0  0
 15 18  1  0  0  0  0
 16 20  1  0  0  0  0
 17 25  1  0  0  0  0
 19 24  1  0  0  0  0
 22 24  2  0  0  0  0
 23 24  2  0  0  0  0
  1 26  1  0  0  0  0
  2 27  1  0  0  0  0
  3 28  1  0  0  0  0
  4 29  1  0  0  0  0
  5 30  1  0  0  0  0
  6 31  1  0  0  0  0
 12 32  1  0  0  0  0
 12 33  1  0  0  0  0
 13 34  1  0  0  0  0
 13 35  1  0  0  0  0
 14 36  1  0  0  0  0
 14 37  1  0  0  0  0
 15 38  1  0  0  0  0
 15 39  1  0  0  0  0
 16 40  1  0  0  0  0
 17 41  1  0  0  0  0
 17 42  1  0  0  0  0
 19 43  1  0  0  0  0
 19 44  1  0  0  0  0
 20 45  1  0  0  0  0
M  END
> <Chemgauss4>
-6.766786

> <ref_pdb>
x1392_0

> <CYS145-warhead min dist (A)>
5.5236874

> <CYS145-warhead avg dist (A)>
7.55768

> <CYS145-warhead avg dist stderr (A)>
0.041347146

> <original SMILES>
c1cc(cc2c1ccc(c2)S(=O)(=O)N)NC3CCN(CC3)C(=O)CCl

$$$$
ANT-OPE-ab3-1
  -OEChem-04232002263D

 36 37  0     0  0  0  0  0  0999 V2000
   11.2811   -0.3044   24.9260 C   0  0  0  0  0  0  0  0  0  0  0  0
   12.0975    0.1038   23.8731 C   0  0  0  0  0  0  0  0  0  0  0  0
   10.1746   -1.1300   24.6960 C   0  0  0  0  0  0  0  0  0  0  0  0
   11.8356   -0.2984   22.5602 C   0  0  0  0  0  0  0  0  0  0  0  0
    9.1188   -2.4158   21.4413 C   0  0  0  0  0  0  0  0  0  0  0  0
    9.8907   -1.5482   23.3807 C   0  0  0  0  0  0  0  0  0  0  0  0
   10.7261   -1.1236   22.3453 C   0  0  0  0  0  0  0  0  0  0  0  0
    8.8813   -2.3629   22.7955 C   0  0  0  0  0  0  0  0  0  0  0  0
    5.8777   -4.3184   23.9122 C   0  0  0  0  0  0  0  0  0  0  0  0
    6.3166   -5.0782   24.9252 C   0  0  0  0  0  0  0  0  0  0  0  0
    6.8279   -3.8114   22.8779 C   0  0  0  0  0  0  0  0  0  0  0  0
    7.1673   -5.7046   27.7615 C   0  0  0  0  0  0  0  0  0  0  0  0
    5.7266   -3.6870   27.5276 C   0  0  0  0  0  0  0  0  0  0  0  0
    5.4187   -5.6216   25.9903 C   0  0  0  0  0  0  0  0  0  0  0  0
   10.2337   -1.6655   21.1794 N   0  0  0  0  0  0  0  0  0  0  0  0
    7.8410   -2.9987   23.4351 N   0  0  0  0  0  0  0  0  0  0  0  0
    5.8121   -5.1828   27.3545 N   0  3  0  0  0  0  0  0  0  0  0  0
    6.6942   -4.1006   21.6947 O   0  0  0  0  0  0  0  0  0  0  0  0
   11.5045    0.0213   25.9386 H   0  0  0  0  0  0  0  0  0  0  0  0
   12.9519    0.7448   24.0743 H   0  0  0  0  0  0  0  0  0  0  0  0
    9.5481   -1.4398   25.5275 H   0  0  0  0  0  0  0  0  0  0  0  0
   12.4715    0.0199   21.7409 H   0  0  0  0  0  0  0  0  0  0  0  0
    8.5964   -2.9188   20.6391 H   0  0  0  0  0  0  0  0  0  0  0  0
    4.8272   -4.0596   23.8286 H   0  0  0  0  0  0  0  0  0  0  0  0
    7.3688   -5.3396   25.0045 H   0  0  0  0  0  0  0  0  0  0  0  0
    7.9052   -5.2912   27.0716 H   0  0  0  0  0  0  0  0  0  0  0  0
    7.3587   -5.3753   28.7846 H   0  0  0  0  0  0  0  0  0  0  0  0
    7.1385   -6.7941   27.6987 H   0  0  0  0  0  0  0  0  0  0  0  0
    6.4331   -3.2296   26.8325 H   0  0  0  0  0  0  0  0  0  0  0  0
    4.7025   -3.3827   27.3036 H   0  0  0  0  0  0  0  0  0  0  0  0
    5.9878   -3.4550   28.5619 H   0  0  0  0  0  0  0  0  0  0  0  0
    5.4580   -6.7152   25.9947 H   0  0  0  0  0  0  0  0  0  0  0  0
    4.3775   -5.3109   25.8582 H   0  0  0  0  0  0  0  0  0  0  0  0
   10.6380   -1.5285   20.2633 H   0  0  0  0  0  0  0  0  0  0  0  0
    7.7948   -2.8635   24.4605 H   0  0  0  0  0  0  0  0  0  0  0  0
    5.1353   -5.5887   28.0222 H   0  0  0  0  0  0  0  0  0  0  0  0
  1  2  1  0  0  0  0
  1  3  2  0  0  0  0
  2  4  2  0  0  0  0
  3  6  1  0  0  0  0
  4  7  1  0  0  0  0
  5  8  2  0  0  0  0
  5 15  1  0  0  0  0
  6  7  2  0  0  0  0
  6  8  1  0  0  0  0
  7 15  1  0  0  0  0
  8 16  1  0  0  0  0
  9 10  2  0  0  0  0
  9 11  1  0  0  0  0
 10 14  1  0  0  0  0
 11 16  1  0  0  0  0
 11 18  2  0  0  0  0
 12 17  1  0  0  0  0
 13 17  1  0  0  0  0
 14 17  1  0  0  0  0
  1 19  1  0  0  0  0
  2 20  1  0  0  0  0
  3 21  1  0  0  0  0
  4 22  1  0  0  0  0
  5 23  1  0  0  0  0
  9 24  1  0  0  0  0
 10 25  1  0  0  0  0
 12 26  1  0  0  0  0
 12 27  1  0  0  0  0
 12 28  1  0  0  0  0
 13 29  1  0  0  0  0
 13 30  1  0  0  0  0
 13 31  1  0  0  0  0
 14 32  1  0  0  0  0
 14 33  1  0  0  0  0
 15 34  1  0  0  0  0
 16 35  1  0  0  0  0
 17 36  1  0  0  0  0
M  CHG  1  17   1
M  END
> <Chemgauss4>
-6.766029

> <ref_pdb>
x1392_0

> <original SMILES>
C[NH+](C)C/C=C/C(=O)Nc1c[nH]c2c1cccc2

$$$$
DAN-PUR-390-1
  -OEChem-04232002263D

 33 33  0     1  0  0  0  0  0999 V2000
    6.8441   -5.1117   22.1615 C   0  0  0  0  0  0  0  0  0  0  0  0
   11.1423   -2.4100   24.4013 C   0  0  0  0  0  0  0  0  0  0  0  0
    6.5820   -1.8259   21.5587 C   0  0  0  0  0  0  0  0  0  0  0  0
    9.7767   -4.4703   24.4031 C   0  0  0  0  0  0  0  0  0  0  0  0
    8.2710   -4.5521   24.1798 C   0  0  0  0  0  0  0  0  0  0  0  0
   10.0648   -3.2840   22.2725 C   0  0  0  0  0  0  0  0  0  0  0  0
    8.5554   -3.3312   22.0049 C   0  0  2  0  0  0  0  0  0  0  0  0
    6.5202   -6.4720   22.7268 C   0  0  0  0  0  0  0  0  0  0  0  0
   11.9231   -2.9444   25.5754 C   0  0  0  0  0  0  0  0  0  0  0  0
    7.8864   -1.9858   22.3021 C   0  0  0  0  0  0  0  0  0  0  0  0
   10.3551   -3.3265   23.7063 N   0  0  0  0  0  0  0  0  0  0  0  0
    7.8998   -4.4160   22.7624 N   0  0  0  0  0  0  0  0  0  0  0  0
    5.5175   -1.6661   22.4196 N   0  0  0  0  0  0  0  0  0  0  0  0
    6.1829   -4.6807   21.2131 O   0  0  0  0  0  0  0  0  0  0  0  0
   11.2332   -1.2146   24.1104 O   0  0  0  0  0  0  0  0  0  0  0  0
    6.4747   -1.8365   20.3358 O   0  0  0  0  0  0  0  0  0  0  0  0
   13.3944   -1.9843   25.6808 Cl  0  0  0  0  0  0  0  0  0  0  0  0
    9.9885   -4.4233   25.4761 H   0  0  0  0  0  0  0  0  0  0  0  0
   10.2669   -5.3709   24.0140 H   0  0  0  0  0  0  0  0  0  0  0  0
    7.9061   -5.4933   24.5962 H   0  0  0  0  0  0  0  0  0  0  0  0
    7.7636   -3.7450   24.7211 H   0  0  0  0  0  0  0  0  0  0  0  0
   10.5463   -4.1641   21.8277 H   0  0  0  0  0  0  0  0  0  0  0  0
   10.5049   -2.4096   21.7885 H   0  0  0  0  0  0  0  0  0  0  0  0
    8.4181   -3.5281   20.9346 H   0  0  0  0  0  0  0  0  0  0  0  0
    5.7859   -6.3615   23.5177 H   0  0  0  0  0  0  0  0  0  0  0  0
    7.4273   -6.9175   23.1221 H   0  0  0  0  0  0  0  0  0  0  0  0
    6.1223   -7.0993   21.9357 H   0  0  0  0  0  0  0  0  0  0  0  0
   12.1694   -3.9837   25.3899 H   0  0  0  0  0  0  0  0  0  0  0  0
   11.3324   -2.8208   26.4758 H   0  0  0  0  0  0  0  0  0  0  0  0
    8.5643   -1.1814   22.0119 H   0  0  0  0  0  0  0  0  0  0  0  0
    7.6973   -1.9136   23.3745 H   0  0  0  0  0  0  0  0  0  0  0  0
    5.6798   -1.6678   23.4216 H   0  0  0  0  0  0  0  0  0  0  0  0
    4.5739   -1.5467   22.0662 H   0  0  0  0  0  0  0  0  0  0  0  0
  1  8  1  0  0  0  0
  1 12  1  0  0  0  0
  1 14  2  0  0  0  0
  2  9  1  0  0  0  0
  2 11  1  0  0  0  0
  2 15  2  0  0  0  0
  3 10  1  0  0  0  0
  3 13  1  0  0  0  0
  3 16  2  0  0  0  0
  4  5  1  0  0  0  0
  4 11  1  0  0  0  0
  5 12  1  0  0  0  0
  6  7  1  0  0  0  0
  6 11  1  0  0  0  0
  7 10  1  0  0  0  0
  7 12  1  0  0  0  0
  9 17  1  0  0  0  0
  4 18  1  0  0  0  0
  4 19  1  0  0  0  0
  5 20  1  0  0  0  0
  5 21  1  0  0  0  0
  6 22  1  0  0  0  0
  6 23  1  0  0  0  0
  7 24  1  0  0  0  0
  8 25  1  0  0  0  0
  8 26  1  0  0  0  0
  8 27  1  0  0  0  0
  9 28  1  0  0  0  0
  9 29  1  0  0  0  0
 10 30  1  0  0  0  0
 10 31  1  0  0  0  0
 13 32  1  0  0  0  0
 13 33  1  0  0  0  0
M  END
> <Chemgauss4>
-6.704082

> <ref_pdb>
x0749_0

> <CYS145-warhead min dist (A)>
3.9466038

> <CYS145-warhead avg dist (A)>
4.312817

> <CYS145-warhead avg dist stderr (A)>
0.03182235

> <original SMILES>
CC(=O)N1CCN(C[C@@H]1CC(=O)N)C(=O)CCl

$$$$
STU-CHA-464-1
  -OEChem-04232002263D

 47 48  0     0  0  0  0  0  0999 V2000
   12.7823    0.2428   23.2267 C   0  0  0  0  0  0  0  0  0  0  0  0
   12.0963   -0.8824   22.7834 C   0  0  0  0  0  0  0  0  0  0  0  0
   12.2369    0.9627   24.2775 C   0  0  0  0  0  0  0  0  0  0  0  0
   10.9027   -1.2482   23.3957 C   0  0  0  0  0  0  0  0  0  0  0  0
   10.4416   -0.4617   24.4391 C   0  0  0  0  0  0  0  0  0  0  0  0
    5.8844   -2.1952   19.4087 C   0  0  0  0  0  0  0  0  0  0  0  0
    6.6154   -3.0336   21.6186 C   0  0  0  0  0  0  0  0  0  0  0  0
    7.3591   -0.7875   20.9291 C   0  0  0  0  0  0  0  0  0  0  0  0
    8.0375   -3.4065   22.0110 C   0  0  0  0  0  0  0  0  0  0  0  0
    8.7931   -1.1263   21.3132 C   0  0  0  0  0  0  0  0  0  0  0  0
   10.1657   -2.4632   22.9144 C   0  0  0  0  0  0  0  0  0  0  0  0
    5.9340   -1.0829   18.3918 C   0  0  0  0  0  0  0  0  0  0  0  0
    8.4480    0.0832   25.8371 C   0  0  0  0  0  0  0  0  0  0  0  0
    7.2344   -0.5806   26.4591 C   0  0  0  0  0  0  0  0  0  0  0  0
   11.0801    0.6383   24.8973 N   0  0  0  0  0  0  0  0  0  0  0  0
    6.6095   -2.0000   20.5833 N   0  0  0  0  0  0  0  0  0  0  0  0
    4.7054   -1.3405   26.1801 N   0  0  0  0  0  0  0  0  0  0  0  0
    9.2260   -0.8313   25.0668 N   0  0  0  0  0  0  0  0  0  0  0  0
    8.7798   -2.1546   22.4221 N   0  3  0  0  0  0  0  0  0  0  0  0
    5.2229   -3.2073   19.1634 O   0  0  0  0  0  0  0  0  0  0  0  0
    5.9351   -0.2128   24.2222 O   0  0  0  0  0  0  0  0  0  0  0  0
    6.5675   -2.5649   24.8954 O   0  0  0  0  0  0  0  0  0  0  0  0
    6.1264   -1.2260   25.2452 S   0  0  0  0  0  0  0  0  0  0  0  0
    4.9713   -1.6137   17.0173 Cl  0  0  0  0  0  0  0  0  0  0  0  0
   13.7146    0.5463   22.7646 H   0  0  0  0  0  0  0  0  0  0  0  0
   12.4996   -1.4669   21.9610 H   0  0  0  0  0  0  0  0  0  0  0  0
   12.7323    1.8490   24.6604 H   0  0  0  0  0  0  0  0  0  0  0  0
    6.0839   -3.9276   21.2778 H   0  0  0  0  0  0  0  0  0  0  0  0
    6.0656   -2.6384   22.4815 H   0  0  0  0  0  0  0  0  0  0  0  0
    6.8375   -0.3111   21.7681 H   0  0  0  0  0  0  0  0  0  0  0  0
    7.3694   -0.0673   20.1093 H   0  0  0  0  0  0  0  0  0  0  0  0
    8.0363   -4.0827   22.8720 H   0  0  0  0  0  0  0  0  0  0  0  0
    8.5859   -3.8660   21.1810 H   0  0  0  0  0  0  0  0  0  0  0  0
    9.3551   -1.5461   20.4714 H   0  0  0  0  0  0  0  0  0  0  0  0
    9.3095   -0.2402   21.6964 H   0  0  0  0  0  0  0  0  0  0  0  0
   10.6945   -2.9441   22.0845 H   0  0  0  0  0  0  0  0  0  0  0  0
   10.0577   -3.2031   23.7148 H   0  0  0  0  0  0  0  0  0  0  0  0
    6.9634   -0.9298   18.0883 H   0  0  0  0  0  0  0  0  0  0  0  0
    5.5010   -0.1895   18.8269 H   0  0  0  0  0  0  0  0  0  0  0  0
    8.1611    0.9089   25.1786 H   0  0  0  0  0  0  0  0  0  0  0  0
    9.1035    0.4776   26.6195 H   0  0  0  0  0  0  0  0  0  0  0  0
    6.6601    0.1457   27.0420 H   0  0  0  0  0  0  0  0  0  0  0  0
    7.5159   -1.4131   27.1109 H   0  0  0  0  0  0  0  0  0  0  0  0
    3.9466   -0.6772   25.9802 H   0  0  0  0  0  0  0  0  0  0  0  0
    4.3775   -2.2791   26.4388 H   0  0  0  0  0  0  0  0  0  0  0  0
    8.9301   -1.7785   24.9466 H   0  0  0  0  0  0  0  0  0  0  0  0
    8.2718   -1.7423   23.2169 H   0  0  0  0  0  0  0  0  0  0  0  0
  1  2  2  0  0  0  0
  1  3  1  0  0  0  0
  2  4  1  0  0  0  0
  3 15  2  0  0  0  0
  4  5  2  0  0  0  0
  4 11  1  0  0  0  0
  5 15  1  0  0  0  0
  5 18  1  0  0  0  0
  6 12  1  0  0  0  0
  6 16  1  0  0  0  0
  6 20  2  0  0  0  0
  7  9  1  0  0  0  0
  7 16  1  0  0  0  0
  8 10  1  0  0  0  0
  8 16  1  0  0  0  0
  9 19  1  0  0  0  0
 10 19  1  0  0  0  0
 11 19  1  0  0  0  0
 12 24  1  0  0  0  0
 13 14  1  0  0  0  0
 13 18  1  0  0  0  0
 14 23  1  0  0  0  0
 17 23  1  0  0  0  0
 21 23  2  0  0  0  0
 22 23  2  0  0  0  0
  1 25  1  0  0  0  0
  2 26  1  0  0  0  0
  3 27  1  0  0  0  0
  7 28  1  0  0  0  0
  7 29  1  0  0  0  0
  8 30  1  0  0  0  0
  8 31  1  0  0  0  0
  9 32  1  0  0  0  0
  9 33  1  0  0  0  0
 10 34  1  0  0  0  0
 10 35  1  0  0  0  0
 11 36  1  0  0  0  0
 11 37  1  0  0  0  0
 12 38  1  0  0  0  0
 12 39  1  0  0  0  0
 13 40  1  0  0  0  0
 13 41  1  0  0  0  0
 14 42  1  0  0  0  0
 14 43  1  0  0  0  0
 17 44  1  0  0  0  0
 17 45  1  0  0  0  0
 18 46  1  0  0  0  0
 19 47  1  0  0  0  0
M  CHG  1  19   1
M  END
> <Chemgauss4>
-6.692834

> <ref_pdb>
x1418_0

> <CYS145-warhead min dist (A)>
2.9767637

> <CYS145-warhead avg dist (A)>
3.4548545

> <CYS145-warhead avg dist stderr (A)>
0.0099509405

> <original SMILES>
c1cc(c(nc1)NCCS(=O)(=O)N)C[NH+]2CCN(CC2)C(=O)CCl

$$$$
DAR-DIA-fb2-5
  -OEChem-04232002263D

 46 47  0     0  0  0  0  0  0999 V2000
   11.9548   -1.4759   22.7738 C   0  0  0  0  0  0  0  0  0  0  0  0
   12.2598    0.4454   24.1421 C   0  0  0  0  0  0  0  0  0  0  0  0
   10.6901   -1.6334   23.3295 C   0  0  0  0  0  0  0  0  0  0  0  0
   12.7609   -0.4192   23.1824 C   0  0  0  0  0  0  0  0  0  0  0  0
   10.2817   -0.7146   24.2828 C   0  0  0  0  0  0  0  0  0  0  0  0
    6.1051   -1.5828   18.9546 C   0  0  0  0  0  0  0  0  0  0  0  0
    6.5102   -2.9366   20.9854 C   0  0  0  0  0  0  0  0  0  0  0  0
    7.3222   -0.6099   20.9646 C   0  0  0  0  0  0  0  0  0  0  0  0
    7.8627   -3.4259   21.4822 C   0  0  0  0  0  0  0  0  0  0  0  0
    8.6873   -1.0643   21.4632 C   0  0  0  0  0  0  0  0  0  0  0  0
    7.6545    1.0988   24.5139 C   0  0  0  0  0  0  0  0  0  0  0  0
   14.7579    0.8713   23.1352 C   0  0  0  0  0  0  0  0  0  0  0  0
    9.8228   -2.7742   22.8853 C   0  0  0  0  0  0  0  0  0  0  0  0
    6.2920   -0.2633   18.2490 C   0  0  0  0  0  0  0  0  0  0  0  0
    8.3045    0.1935   25.5042 C   0  0  0  0  0  0  0  0  0  0  0  0
   11.0365    0.3245   24.7049 N   0  0  0  0  0  0  0  0  0  0  0  0
    6.6460   -1.6880   20.2352 N   0  0  0  0  0  0  0  0  0  0  0  0
    8.9933   -0.8721   24.8527 N   0  0  0  0  0  0  0  0  0  0  0  0
    8.5216   -2.3247   22.2825 N   0  3  0  0  0  0  0  0  0  0  0  0
    5.4987   -2.4920   18.3822 O   0  0  0  0  0  0  0  0  0  0  0  0
   13.9981   -0.2408   22.6573 O   0  0  0  0  0  0  0  0  0  0  0  0
    7.8216   -0.3667   17.3844 Cl  0  0  0  0  0  0  0  0  0  0  0  0
   12.3148   -2.1743   22.0226 H   0  0  0  0  0  0  0  0  0  0  0  0
   12.8446    1.2878   24.4981 H   0  0  0  0  0  0  0  0  0  0  0  0
    6.0453   -3.7118   20.3682 H   0  0  0  0  0  0  0  0  0  0  0  0
    5.8342   -2.7431   21.8272 H   0  0  0  0  0  0  0  0  0  0  0  0
    6.6767   -0.3326   21.8069 H   0  0  0  0  0  0  0  0  0  0  0  0
    7.4456    0.2830   20.3495 H   0  0  0  0  0  0  0  0  0  0  0  0
    7.7417   -4.2861   22.1486 H   0  0  0  0  0  0  0  0  0  0  0  0
    8.5332   -3.6896   20.6564 H   0  0  0  0  0  0  0  0  0  0  0  0
    9.3725   -1.2870   20.6376 H   0  0  0  0  0  0  0  0  0  0  0  0
    9.1311   -0.3065   22.1170 H   0  0  0  0  0  0  0  0  0  0  0  0
    6.9339    0.5266   23.9111 H   0  0  0  0  0  0  0  0  0  0  0  0
    7.1288    1.9060   25.0451 H   0  0  0  0  0  0  0  0  0  0  0  0
    8.4213    1.5321   23.8549 H   0  0  0  0  0  0  0  0  0  0  0  0
   15.7272    0.8950   22.6311 H   0  0  0  0  0  0  0  0  0  0  0  0
   14.8990    0.7803   24.2151 H   0  0  0  0  0  0  0  0  0  0  0  0
   14.2139    1.7934   22.9173 H   0  0  0  0  0  0  0  0  0  0  0  0
   10.3270   -3.3830   22.1270 H   0  0  0  0  0  0  0  0  0  0  0  0
    9.5703   -3.4298   23.7257 H   0  0  0  0  0  0  0  0  0  0  0  0
    6.3354    0.5278   18.9888 H   0  0  0  0  0  0  0  0  0  0  0  0
    5.4771   -0.1210   17.5484 H   0  0  0  0  0  0  0  0  0  0  0  0
    9.0231    0.7727   26.1026 H   0  0  0  0  0  0  0  0  0  0  0  0
    7.5331   -0.2287   26.1651 H   0  0  0  0  0  0  0  0  0  0  0  0
    8.5795   -1.7787   24.7791 H   0  0  0  0  0  0  0  0  0  0  0  0
    7.8969   -2.0996   23.0691 H   0  0  0  0  0  0  0  0  0  0  0  0
  1  3  1  0  0  0  0
  1  4  2  0  0  0  0
  2  4  1  0  0  0  0
  2 16  2  0  0  0  0
  3  5  2  0  0  0  0
  3 13  1  0  0  0  0
  4 21  1  0  0  0  0
  5 16  1  0  0  0  0
  5 18  1  0  0  0  0
  6 14  1  0  0  0  0
  6 17  1  0  0  0  0
  6 20  2  0  0  0  0
  7  9  1  0  0  0  0
  7 17  1  0  0  0  0
  8 10  1  0  0  0  0
  8 17  1  0  0  0  0
  9 19  1  0  0  0  0
 10 19  1  0  0  0  0
 11 15  1  0  0  0  0
 12 21  1  0  0  0  0
 13 19  1  0  0  0  0
 14 22  1  0  0  0  0
 15 18  1  0  0  0  0
  1 23  1  0  0  0  0
  2 24  1  0  0  0  0
  7 25  1  0  0  0  0
  7 26  1  0  0  0  0
  8 27  1  0  0  0  0
  8 28  1  0  0  0  0
  9 29  1  0  0  0  0
  9 30  1  0  0  0  0
 10 31  1  0  0  0  0
 10 32  1  0  0  0  0
 11 33  1  0  0  0  0
 11 34  1  0  0  0  0
 11 35  1  0  0  0  0
 12 36  1  0  0  0  0
 12 37  1  0  0  0  0
 12 38  1  0  0  0  0
 13 39  1  0  0  0  0
 13 40  1  0  0  0  0
 14 41  1  0  0  0  0
 14 42  1  0  0  0  0
 15 43  1  0  0  0  0
 15 44  1  0  0  0  0
 18 45  1  0  0  0  0
 19 46  1  0  0  0  0
M  CHG  1  19   1
M  END
> <Chemgauss4>
-6.676678

> <ref_pdb>
x1418_0

> <CYS145-warhead min dist (A)>
2.9579446

> <CYS145-warhead avg dist (A)>
3.7555585

> <CYS145-warhead avg dist stderr (A)>
0.044383556

> <original SMILES>
CCNc1c(cc(cn1)OC)C[NH+]2CCN(CC2)C(=O)CCl

$$$$
NIR-THE-0d6-2
  -OEChem-04232002263D

 52 54  0     0  0  0  0  0  0999 V2000
   13.2181    0.3512   23.3416 C   0  0  0  0  0  0  0  0  0  0  0  0
   12.0690   -1.6575   22.6054 C   0  0  0  0  0  0  0  0  0  0  0  0
   10.2772    1.9710   24.7866 C   0  0  0  0  0  0  0  0  0  0  0  0
   12.0032    0.8482   23.8539 C   0  0  0  0  0  0  0  0  0  0  0  0
   10.8524   -1.1851   23.1061 C   0  0  0  0  0  0  0  0  0  0  0  0
   11.6262    2.0445   24.5260 C   0  0  0  0  0  0  0  0  0  0  0  0
   10.8507    0.0702   23.7246 C   0  0  0  0  0  0  0  0  0  0  0  0
   13.2348   -0.9029   22.7203 C   0  0  0  0  0  0  0  0  0  0  0  0
    5.6520   -0.9900   19.2575 C   0  0  0  0  0  0  0  0  0  0  0  0
   13.1465    4.7908   22.0428 C   0  0  0  0  0  0  0  0  0  0  0  0
    8.7203   -0.5296   21.1417 C   0  0  0  0  0  0  0  0  0  0  0  0
    7.8122   -2.8646   21.4110 C   0  0  0  0  0  0  0  0  0  0  0  0
    8.0929   -0.4725   19.7498 C   0  0  0  0  0  0  0  0  0  0  0  0
    7.2055   -2.7607   20.0137 C   0  0  0  0  0  0  0  0  0  0  0  0
    9.0565   -1.9737   21.5439 C   0  0  0  0  0  0  0  0  0  0  0  0
   12.8835    4.6824   20.5774 C   0  0  0  0  0  0  0  0  0  0  0  0
    9.6135   -2.0263   22.9645 C   0  0  0  0  0  0  0  0  0  0  0  0
   12.5146    3.1685   24.8846 C   0  0  0  0  0  0  0  0  0  0  0  0
    5.4615    0.4566   18.8772 C   0  0  0  0  0  0  0  0  0  0  0  0
   12.0930    4.5196   24.2787 C   0  0  0  0  0  0  0  0  0  0  0  0
    9.8185    0.7765   24.2997 N   0  0  0  0  0  0  0  0  0  0  0  0
    6.9313   -1.3656   19.6657 N   0  0  0  0  0  0  0  0  0  0  0  0
   12.0571    4.4815   22.8413 N   0  0  0  0  0  0  0  0  0  0  0  0
    4.6909   -1.7610   19.1954 O   0  0  0  0  0  0  0  0  0  0  0  0
   14.2575    5.1291   22.4339 O   0  0  0  0  0  0  0  0  0  0  0  0
   14.3864   -1.3826   22.2307 F   0  0  0  0  0  0  0  0  0  0  0  0
    4.9612    1.3001   20.3388 Cl  0  0  0  0  0  0  0  0  0  0  0  0
   14.1355    0.9269   23.4233 H   0  0  0  0  0  0  0  0  0  0  0  0
   12.1156   -2.6283   22.1170 H   0  0  0  0  0  0  0  0  0  0  0  0
    9.6017    2.6596   25.2749 H   0  0  0  0  0  0  0  0  0  0  0  0
    9.6314    0.0804   21.1530 H   0  0  0  0  0  0  0  0  0  0  0  0
    8.0294   -0.0851   21.8695 H   0  0  0  0  0  0  0  0  0  0  0  0
    7.0596   -2.5763   22.1561 H   0  0  0  0  0  0  0  0  0  0  0  0
    8.0784   -3.9089   21.6141 H   0  0  0  0  0  0  0  0  0  0  0  0
    7.8338    0.5607   19.5124 H   0  0  0  0  0  0  0  0  0  0  0  0
    8.8128   -0.8069   18.9933 H   0  0  0  0  0  0  0  0  0  0  0  0
    7.9004   -3.1551   19.2629 H   0  0  0  0  0  0  0  0  0  0  0  0
    6.2930   -3.3629   19.9623 H   0  0  0  0  0  0  0  0  0  0  0  0
    9.8293   -2.3529   20.8620 H   0  0  0  0  0  0  0  0  0  0  0  0
   12.5179    5.6275   20.1448 H   0  0  0  0  0  0  0  0  0  0  0  0
   13.7910    4.4319   20.0048 H   0  0  0  0  0  0  0  0  0  0  0  0
   12.1393    3.9237   20.2870 H   0  0  0  0  0  0  0  0  0  0  0  0
    9.8351   -3.0649   23.2311 H   0  0  0  0  0  0  0  0  0  0  0  0
    8.8482   -1.6852   23.6693 H   0  0  0  0  0  0  0  0  0  0  0  0
   13.5498    2.9558   24.5520 H   0  0  0  0  0  0  0  0  0  0  0  0
   12.5949    3.2838   25.9844 H   0  0  0  0  0  0  0  0  0  0  0  0
    4.6840    0.5229   18.1247 H   0  0  0  0  0  0  0  0  0  0  0  0
    6.4056    0.8540   18.5226 H   0  0  0  0  0  0  0  0  0  0  0  0
   11.0898    4.8033   24.6121 H   0  0  0  0  0  0  0  0  0  0  0  0
   12.7874    5.3142   24.5708 H   0  0  0  0  0  0  0  0  0  0  0  0
    8.8605    0.4592   24.3555 H   0  0  0  0  0  0  0  0  0  0  0  0
   11.1856    4.2132   22.3868 H   0  0  0  0  0  0  0  0  0  0  0  0
  1  4  1  0  0  0  0
  1  8  2  0  0  0  0
  2  5  2  0  0  0  0
  2  8  1  0  0  0  0
  3  6  2  0  0  0  0
  3 21  1  0  0  0  0
  4  6  1  0  0  0  0
  4  7  2  0  0  0  0
  5  7  1  0  0  0  0
  5 17  1  0  0  0  0
  6 18  1  0  0  0  0
  7 21  1  0  0  0  0
  8 26  1  0  0  0  0
  9 19  1  0  0  0  0
  9 22  1  0  0  0  0
  9 24  2  0  0  0  0
 10 16  1  0  0  0  0
 10 23  1  0  0  0  0
 10 25  2  0  0  0  0
 11 13  1  0  0  0  0
 11 15  1  0  0  0  0
 12 14  1  0  0  0  0
 12 15  1  0  0  0  0
 13 22  1  0  0  0  0
 14 22  1  0  0  0  0
 15 17  1  0  0  0  0
 18 20  1  0  0  0  0
 19 27  1  0  0  0  0
 20 23  1  0  0  0  0
  1 28  1  0  0  0  0
  2 29  1  0  0  0  0
  3 30  1  0  0  0  0
 11 31  1  0  0  0  0
 11 32  1  0  0  0  0
 12 33  1  0  0  0  0
 12 34  1  0  0  0  0
 13 35  1  0  0  0  0
 13 36  1  0  0  0  0
 14 37  1  0  0  0  0
 14 38  1  0  0  0  0
 15 39  1  0  0  0  0
 16 40  1  0  0  0  0
 16 41  1  0  0  0  0
 16 42  1  0  0  0  0
 17 43  1  0  0  0  0
 17 44  1  0  0  0  0
 18 45  1  0  0  0  0
 18 46  1  0  0  0  0
 19 47  1  0  0  0  0
 19 48  1  0  0  0  0
 20 49  1  0  0  0  0
 20 50  1  0  0  0  0
 21 51  1  0  0  0  0
 23 52  1  0  0  0  0
M  END
> <Chemgauss4>
-6.666932

> <ref_pdb>
x0830_0

> <CYS145-warhead min dist (A)>
2.94169

> <CYS145-warhead avg dist (A)>
3.2964904

> <CYS145-warhead avg dist stderr (A)>
0.010001018

> <original SMILES>
CC(=O)NCCc1c[nH]c2c1cc(cc2CC3CCN(CC3)C(=O)CCl)F

$$$$
GIA-UNK-20b-9
  -OEChem-04232002263D

 49 51  0     1  0  0  0  0  0999 V2000
    7.6374   -3.2147   25.3275 C   0  0  0  0  0  0  0  0  0  0  0  0
    8.7000   -3.9313   24.7772 C   0  0  0  0  0  0  0  0  0  0  0  0
    7.0092   -2.2165   24.5826 C   0  0  0  0  0  0  0  0  0  0  0  0
    9.1346   -3.6497   23.4820 C   0  0  0  0  0  0  0  0  0  0  0  0
    7.4438   -1.9349   23.2875 C   0  0  0  0  0  0  0  0  0  0  0  0
    8.5065   -2.6515   22.7371 C   0  0  0  0  0  0  0  0  0  0  0  0
    5.6574   -2.5322   19.3146 C   0  0  0  0  0  0  0  0  0  0  0  0
   12.7940    1.1760   23.2627 C   0  0  0  0  0  0  0  0  0  0  0  0
    6.7290   -2.8663   20.3344 C   0  0  0  0  0  0  0  0  0  0  0  0
    8.3738   -1.5232   19.0326 C   0  0  0  0  0  0  0  0  0  0  0  0
    7.2463   -0.9355   18.2039 C   0  0  0  0  0  0  0  0  0  0  0  0
   12.4460   -0.8271   21.8528 C   0  0  0  0  0  0  0  0  0  0  0  0
   10.7974    0.9980   21.6975 C   0  0  0  0  0  0  0  0  0  0  0  0
   11.3299   -1.8498   22.0072 C   0  0  0  0  0  0  0  0  0  0  0  0
    9.6556    0.0018   21.8477 C   0  0  0  0  0  0  0  0  0  0  0  0
    7.8535   -1.8361   20.4346 C   0  0  2  0  0  0  0  0  0  0  0  0
   13.5887    0.3342   24.2289 C   0  0  0  0  0  0  0  0  0  0  0  0
    8.9770   -2.3457   21.3339 C   0  0  1  0  0  0  0  0  0  0  0  0
    6.0254   -1.7149   18.2695 N   0  0  0  0  0  0  0  0  0  0  0  0
   12.0212    0.4902   22.3266 N   0  0  0  0  0  0  0  0  0  0  0  0
   10.0928   -1.3394   21.3027 N   0  3  0  0  0  0  0  0  0  0  0  0
    4.5391   -3.0448   19.3897 O   0  0  0  0  0  0  0  0  0  0  0  0
   12.8612    2.4055   23.3376 O   0  0  0  0  0  0  0  0  0  0  0  0
   12.4246   -0.6181   25.1430 Cl  0  0  0  0  0  0  0  0  0  0  0  0
    7.2983   -3.4350   26.3355 H   0  0  0  0  0  0  0  0  0  0  0  0
    9.1886   -4.7093   25.3566 H   0  0  0  0  0  0  0  0  0  0  0  0
    6.1812   -1.6592   25.0104 H   0  0  0  0  0  0  0  0  0  0  0  0
    9.9635   -4.2130   23.0614 H   0  0  0  0  0  0  0  0  0  0  0  0
    6.9485   -1.1554   22.7146 H   0  0  0  0  0  0  0  0  0  0  0  0
    6.2435   -2.9733   21.3118 H   0  0  0  0  0  0  0  0  0  0  0  0
    7.1336   -3.8478   20.0566 H   0  0  0  0  0  0  0  0  0  0  0  0
    8.7589   -2.4314   18.5520 H   0  0  0  0  0  0  0  0  0  0  0  0
    9.2025   -0.8074   19.0805 H   0  0  0  0  0  0  0  0  0  0  0  0
    6.9971    0.0716   18.5565 H   0  0  0  0  0  0  0  0  0  0  0  0
    7.5362   -0.8585   17.1513 H   0  0  0  0  0  0  0  0  0  0  0  0
   13.3322   -1.1683   22.3970 H   0  0  0  0  0  0  0  0  0  0  0  0
   12.7327   -0.7214   20.7994 H   0  0  0  0  0  0  0  0  0  0  0  0
   11.0233    1.1687   20.6378 H   0  0  0  0  0  0  0  0  0  0  0  0
   10.4917    1.9578   22.1173 H   0  0  0  0  0  0  0  0  0  0  0  0
   11.6065   -2.7981   21.5351 H   0  0  0  0  0  0  0  0  0  0  0  0
   11.0722   -2.0216   23.0584 H   0  0  0  0  0  0  0  0  0  0  0  0
    9.3683   -0.1381   22.8959 H   0  0  0  0  0  0  0  0  0  0  0  0
    8.7851    0.3221   21.2661 H   0  0  0  0  0  0  0  0  0  0  0  0
    7.4515   -0.9147   20.8766 H   0  0  0  0  0  0  0  0  0  0  0  0
   14.1390    0.9889   24.8951 H   0  0  0  0  0  0  0  0  0  0  0  0
   14.2457   -0.3198   23.6671 H   0  0  0  0  0  0  0  0  0  0  0  0
    9.4055   -3.2474   20.8809 H   0  0  0  0  0  0  0  0  0  0  0  0
    5.3898   -1.6529   17.4801 H   0  0  0  0  0  0  0  0  0  0  0  0
   10.3366   -1.2034   20.3118 H   0  0  0  0  0  0  0  0  0  0  0  0
  1  2  1  0  0  0  0
  1  3  2  0  0  0  0
  2  4  2  0  0  0  0
  3  5  1  0  0  0  0
  4  6  1  0  0  0  0
  5  6  2  0  0  0  0
  6 18  1  0  0  0  0
  7  9  1  0  0  0  0
  7 19  1  0  0  0  0
  7 22  2  0  0  0  0
  8 17  1  0  0  0  0
  8 20  1  0  0  0  0
  8 23  2  0  0  0  0
  9 16  1  0  0  0  0
 10 11  1  0  0  0  0
 10 16  1  0  0  0  0
 11 19  1  0  0  0  0
 12 14  1  0  0  0  0
 12 20  1  0  0  0  0
 13 15  1  0  0  0  0
 13 20  1  0  0  0  0
 14 21  1  0  0  0  0
 15 21  1  0  0  0  0
 16 18  1  0  0  0  0
 17 24  1  0  0  0  0
 18 21  1  0  0  0  0
  1 25  1  0  0  0  0
  2 26  1  0  0  0  0
  3 27  1  0  0  0  0
  4 28  1  0  0  0  0
  5 29  1  0  0  0  0
  9 30  1  0  0  0  0
  9 31  1  0  0  0  0
 10 32  1  0  0  0  0
 10 33  1  0  0  0  0
 11 34  1  0  0  0  0
 11 35  1  0  0  0  0
 12 36  1  0  0  0  0
 12 37  1  0  0  0  0
 13 38  1  0  0  0  0
 13 39  1  0  0  0  0
 14 40  1  0  0  0  0
 14 41  1  0  0  0  0
 15 42  1  0  0  0  0
 15 43  1  0  0  0  0
 16 44  1  0  0  0  0
 17 45  1  0  0  0  0
 17 46  1  0  0  0  0
 18 47  1  0  0  0  0
 19 48  1  0  0  0  0
 21 49  1  0  0  0  0
M  CHG  1  21   1
M  END
> <Chemgauss4>
-6.647769

> <ref_pdb>
x0708_0

> <CYS145-warhead min dist (A)>
5.776536

> <CYS145-warhead avg dist (A)>
6.994011

> <CYS145-warhead avg dist stderr (A)>
0.04602349

> <original SMILES>
c1ccc(cc1)[C@@H]([C@H]2CCNC(=O)C2)[NH+]3CCN(CC3)C(=O)CCl

$$$$
PED-UNI-89d-1
  -OEChem-04232002263D

 46 47  0     1  0  0  0  0  0999 V2000
    6.2816    0.3667   21.5736 C   0  0  0  0  0  0  0  0  0  0  0  0
    6.5300    0.1446   22.9280 C   0  0  0  0  0  0  0  0  0  0  0  0
    7.5013   -1.6441   21.0201 C   0  0  0  0  0  0  0  0  0  0  0  0
    7.7497   -1.8662   22.3746 C   0  0  0  0  0  0  0  0  0  0  0  0
    6.7672   -0.5277   20.6196 C   0  0  0  0  0  0  0  0  0  0  0  0
    7.2641   -0.9718   23.3285 C   0  0  0  0  0  0  0  0  0  0  0  0
   11.6441    1.8542   24.2049 C   0  0  0  0  0  0  0  0  0  0  0  0
   12.4475   -0.2637   21.6915 C   0  0  0  0  0  0  0  0  0  0  0  0
   12.9681    0.1078   23.0762 C   0  0  0  0  0  0  0  0  0  0  0  0
   11.0942   -0.5669   24.6209 C   0  0  0  0  0  0  0  0  0  0  0  0
   11.8786   -1.6733   21.5880 C   0  0  0  0  0  0  0  0  0  0  0  0
   11.1479   -1.9519   23.9885 C   0  0  0  0  0  0  0  0  0  0  0  0
    8.5442   -3.0808   22.7587 C   0  0  0  0  0  0  0  0  0  0  0  0
   10.5044    2.1936   25.1354 C   0  0  0  0  0  0  0  0  0  0  0  0
    9.9410   -3.1228   22.1473 C   0  0  0  0  0  0  0  0  0  0  0  0
   11.8795    0.4910   23.9767 N   0  0  0  0  0  0  0  0  0  0  0  0
    7.8145    0.6935   18.4943 N   0  0  0  0  0  0  0  0  0  0  0  0
   10.7224   -1.8916   22.5366 N   0  3  2  0  0  0  0  0  0  0  0  0
   12.2980    2.7671   23.6938 O   0  0  0  0  0  0  0  0  0  0  0  0
    6.5302   -1.5258   18.2277 O   0  0  0  0  0  0  0  0  0  0  0  0
    5.2596    0.5725   18.8026 O   0  0  0  0  0  0  0  0  0  0  0  0
    6.4558   -0.2492   18.9243 S   0  0  0  0  0  0  0  0  0  0  0  0
    9.0732    2.3783   24.1289 Cl  0  0  0  0  0  0  0  0  0  0  0  0
    7.5756   -1.2313   25.1811 Br  0  0  0  0  0  0  0  0  0  0  0  0
    5.7086    1.2396   21.2724 H   0  0  0  0  0  0  0  0  0  0  0  0
    6.1433    0.8525   23.6568 H   0  0  0  0  0  0  0  0  0  0  0  0
    7.8799   -2.3413   20.2763 H   0  0  0  0  0  0  0  0  0  0  0  0
   11.7267    0.4839   21.3266 H   0  0  0  0  0  0  0  0  0  0  0  0
   13.2996   -0.1934   20.9970 H   0  0  0  0  0  0  0  0  0  0  0  0
   13.4931   -0.7318   23.4898 H   0  0  0  0  0  0  0  0  0  0  0  0
   13.6299    0.9516   22.9964 H   0  0  0  0  0  0  0  0  0  0  0  0
   10.0420   -0.2042   24.7529 H   0  0  0  0  0  0  0  0  0  0  0  0
   11.4523   -0.6676   25.6752 H   0  0  0  0  0  0  0  0  0  0  0  0
   11.4770   -1.8167   20.5733 H   0  0  0  0  0  0  0  0  0  0  0  0
   12.6285   -2.4575   21.7754 H   0  0  0  0  0  0  0  0  0  0  0  0
   12.1397   -2.4064   24.0380 H   0  0  0  0  0  0  0  0  0  0  0  0
   10.4289   -2.6022   24.4923 H   0  0  0  0  0  0  0  0  0  0  0  0
    8.6446   -3.1008   23.8521 H   0  0  0  0  0  0  0  0  0  0  0  0
    7.9949   -3.9943   22.4960 H   0  0  0  0  0  0  0  0  0  0  0  0
   10.7301    3.1261   25.6384 H   0  0  0  0  0  0  0  0  0  0  0  0
   10.3678    1.3759   25.8327 H   0  0  0  0  0  0  0  0  0  0  0  0
    9.8866   -3.1196   21.0547 H   0  0  0  0  0  0  0  0  0  0  0  0
   10.5237   -3.9876   22.4786 H   0  0  0  0  0  0  0  0  0  0  0  0
    8.5359    0.2588   17.9061 H   0  0  0  0  0  0  0  0  0  0  0  0
    7.6670    1.6915   18.3010 H   0  0  0  0  0  0  0  0  0  0  0  0
   10.0880   -1.0993   22.4357 H   0  0  0  0  0  0  0  0  0  0  0  0
  1  2  2  0  0  0  0
  1  5  1  0  0  0  0
  2  6  1  0  0  0  0
  3  4  1  0  0  0  0
  3  5  2  0  0  0  0
  4  6  2  0  0  0  0
  4 13  1  0  0  0  0
  5 22  1  0  0  0  0
  6 24  1  0  0  0  0
  7 14  1  0  0  0  0
  7 16  1  0  0  0  0
  7 19  2  0  0  0  0
  8  9  1  0  0  0  0
  8 11  1  0  0  0  0
  9 16  1  0  0  0  0
 10 12  1  0  0  0  0
 10 16  1  0  0  0  0
 11 18  1  0  0  0  0
 12 18  1  0  0  0  0
 13 15  1  0  0  0  0
 14 23  1  0  0  0  0
 15 18  1  0  0  0  0
 17 22  1  0  0  0  0
 20 22  2  0  0  0  0
 21 22  2  0  0  0  0
  1 25  1  0  0  0  0
  2 26  1  0  0  0  0
  3 27  1  0  0  0  0
  8 28  1  0  0  0  0
  8 29  1  0  0  0  0
  9 30  1  0  0  0  0
  9 31  1  0  0  0  0
 10 32  1  0  0  0  0
 10 33  1  0  0  0  0
 11 34  1  0  0  0  0
 11 35  1  0  0  0  0
 12 36  1  0  0  0  0
 12 37  1  0  0  0  0
 13 38  1  0  0  0  0
 13 39  1  0  0  0  0
 14 40  1  0  0  0  0
 14 41  1  0  0  0  0
 15 42  1  0  0  0  0
 15 43  1  0  0  0  0
 17 44  1  0  0  0  0
 17 45  1  0  0  0  0
 18 46  1  0  0  0  0
M  CHG  1  18   1
M  END
> <Chemgauss4>
-6.614774

> <ref_pdb>
x0831_0

> <CYS145-warhead min dist (A)>
7.751069

> <CYS145-warhead avg dist (A)>
8.421493

> <CYS145-warhead avg dist stderr (A)>
0.033924

> <original SMILES>
c1cc(c(cc1S(=O)(=O)N)CC[N@@H+]2CCCN(CC2)C(=O)CCl)Br

$$$$
BOG-INS-bdb-1
  -OEChem-04232002263D

 60 63  0     0  0  0  0  0  0999 V2000
   13.8795   -1.0522   21.7108 C   0  0  0  0  0  0  0  0  0  0  0  0
   13.8753    0.1700   22.3768 C   0  0  0  0  0  0  0  0  0  0  0  0
   12.7635   -1.8766   21.7834 C   0  0  0  0  0  0  0  0  0  0  0  0
   12.7207    1.7963   23.7993 C   0  0  0  0  0  0  0  0  0  0  0  0
   12.7517    0.5714   23.1192 C   0  0  0  0  0  0  0  0  0  0  0  0
   11.5960    2.1639   24.5239 C   0  0  0  0  0  0  0  0  0  0  0  0
   11.6465   -1.4773   22.5215 C   0  0  0  0  0  0  0  0  0  0  0  0
   11.6152   -0.2606   23.1975 C   0  0  0  0  0  0  0  0  0  0  0  0
   10.5329    1.2840   24.5420 C   0  0  0  0  0  0  0  0  0  0  0  0
   11.5800    3.4403   25.2246 C   0  0  0  0  0  0  0  0  0  0  0  0
    6.0287   -1.7979   19.3100 C   0  0  0  0  0  0  0  0  0  0  0  0
    6.7767   -1.9962   21.6600 C   0  0  0  0  0  0  0  0  0  0  0  0
    8.1273   -0.6170   20.1281 C   0  0  0  0  0  0  0  0  0  0  0  0
    8.6168    2.8394   24.9671 C   0  0  0  0  0  0  0  0  0  0  0  0
    8.6627    0.6356   26.0413 C   0  0  0  0  0  0  0  0  0  0  0  0
    8.0259   -2.7164   22.1460 C   0  0  0  0  0  0  0  0  0  0  0  0
    9.3980   -1.3157   20.5927 C   0  0  0  0  0  0  0  0  0  0  0  0
    7.3420    2.4236   24.2409 C   0  0  0  0  0  0  0  0  0  0  0  0
    7.3761    0.2976   25.2868 C   0  0  0  0  0  0  0  0  0  0  0  0
   11.7695    5.9282   24.9970 C   0  0  0  0  0  0  0  0  0  0  0  0
   10.4665   -2.4026   22.5706 C   0  0  0  0  0  0  0  0  0  0  0  0
    5.8435   -0.7793   18.2137 C   0  0  0  0  0  0  0  0  0  0  0  0
   10.5224    0.0934   23.8999 N   0  0  0  0  0  0  0  0  0  0  0  0
    9.3988    1.6369   25.2623 N   0  0  0  0  0  0  0  0  0  0  0  0
    6.9588   -1.4867   20.3008 N   0  0  0  0  0  0  0  0  0  0  0  0
   11.7400    4.5920   24.4468 N   0  0  0  0  0  0  0  0  0  0  0  0
    9.2121   -1.7869   22.0177 N   0  3  0  0  0  0  0  0  0  0  0  0
   11.4498    3.4786   26.4600 O   0  0  0  0  0  0  0  0  0  0  0  0
    5.3677   -2.8392   19.2834 O   0  0  0  0  0  0  0  0  0  0  0  0
    6.6115    1.4823   25.0365 O   0  0  0  0  0  0  0  0  0  0  0  0
    5.2750    0.6958   18.9875 Cl  0  0  0  0  0  0  0  0  0  0  0  0
   14.7496   -1.3585   21.1382 H   0  0  0  0  0  0  0  0  0  0  0  0
   14.7543    0.8075   22.3133 H   0  0  0  0  0  0  0  0  0  0  0  0
   12.7679   -2.8307   21.2626 H   0  0  0  0  0  0  0  0  0  0  0  0
   13.5796    2.4638   23.7606 H   0  0  0  0  0  0  0  0  0  0  0  0
    5.9206   -2.6764   21.7082 H   0  0  0  0  0  0  0  0  0  0  0  0
    6.5470   -1.1392   22.3049 H   0  0  0  0  0  0  0  0  0  0  0  0
    7.9479    0.2897   20.7185 H   0  0  0  0  0  0  0  0  0  0  0  0
    8.2514   -0.3028   19.0903 H   0  0  0  0  0  0  0  0  0  0  0  0
    9.1839    3.5392   24.3437 H   0  0  0  0  0  0  0  0  0  0  0  0
    8.3588    3.3431   25.9065 H   0  0  0  0  0  0  0  0  0  0  0  0
    8.4156    1.0507   27.0231 H   0  0  0  0  0  0  0  0  0  0  0  0
    9.2545   -0.2718   26.1829 H   0  0  0  0  0  0  0  0  0  0  0  0
    7.9322   -2.9818   23.2040 H   0  0  0  0  0  0  0  0  0  0  0  0
    8.2375   -3.6158   21.5567 H   0  0  0  0  0  0  0  0  0  0  0  0
    9.6339   -2.1907   19.9767 H   0  0  0  0  0  0  0  0  0  0  0  0
   10.2444   -0.6212   20.5868 H   0  0  0  0  0  0  0  0  0  0  0  0
    6.7014    3.2946   24.0876 H   0  0  0  0  0  0  0  0  0  0  0  0
    7.5587    1.9899   23.2605 H   0  0  0  0  0  0  0  0  0  0  0  0
    7.5881   -0.2135   24.3404 H   0  0  0  0  0  0  0  0  0  0  0  0
    6.7592   -0.3731   25.8926 H   0  0  0  0  0  0  0  0  0  0  0  0
   10.7599    6.3633   24.9589 H   0  0  0  0  0  0  0  0  0  0  0  0
   12.1116    5.8869   26.0417 H   0  0  0  0  0  0  0  0  0  0  0  0
   12.4597    6.5514   24.4095 H   0  0  0  0  0  0  0  0  0  0  0  0
   10.6526   -3.3126   21.9902 H   0  0  0  0  0  0  0  0  0  0  0  0
   10.2422   -2.7032   23.5998 H   0  0  0  0  0  0  0  0  0  0  0  0
    5.0983   -1.1449   17.5165 H   0  0  0  0  0  0  0  0  0  0  0  0
    6.7988   -0.6032   17.7327 H   0  0  0  0  0  0  0  0  0  0  0  0
   11.9057    4.4996   23.4500 H   0  0  0  0  0  0  0  0  0  0  0  0
    9.0158   -0.9559   22.5927 H   0  0  0  0  0  0  0  0  0  0  0  0
  1  2  2  0  0  0  0
  1  3  1  0  0  0  0
  2  5  1  0  0  0  0
  3  7  2  0  0  0  0
  4  5  2  0  0  0  0
  4  6  1  0  0  0  0
  5  8  1  0  0  0  0
  6  9  2  0  0  0  0
  6 10  1  0  0  0  0
  7  8  1  0  0  0  0
  7 21  1  0  0  0  0
  8 23  2  0  0  0  0
  9 23  1  0  0  0  0
  9 24  1  0  0  0  0
 10 26  1  0  0  0  0
 10 28  2  0  0  0  0
 11 22  1  0  0  0  0
 11 25  1  0  0  0  0
 11 29  2  0  0  0  0
 12 16  1  0  0  0  0
 12 25  1  0  0  0  0
 13 17  1  0  0  0  0
 13 25  1  0  0  0  0
 14 18  1  0  0  0  0
 14 24  1  0  0  0  0
 15 19  1  0  0  0  0
 15 24  1  0  0  0  0
 16 27  1  0  0  0  0
 17 27  1  0  0  0  0
 18 30  1  0  0  0  0
 19 30  1  0  0  0  0
 20 26  1  0  0  0  0
 21 27  1  0  0  0  0
 22 31  1  0  0  0  0
  1 32  1  0  0  0  0
  2 33  1  0  0  0  0
  3 34  1  0  0  0  0
  4 35  1  0  0  0  0
 12 36  1  0  0  0  0
 12 37  1  0  0  0  0
 13 38  1  0  0  0  0
 13 39  1  0  0  0  0
 14 40  1  0  0  0  0
 14 41  1  0  0  0  0
 15 42  1  0  0  0  0
 15 43  1  0  0  0  0
 16 44  1  0  0  0  0
 16 45  1  0  0  0  0
 17 46  1  0  0  0  0
 17 47  1  0  0  0  0
 18 48  1  0  0  0  0
 18 49  1  0  0  0  0
 19 50  1  0  0  0  0
 19 51  1  0  0  0  0
 20 52  1  0  0  0  0
 20 53  1  0  0  0  0
 20 54  1  0  0  0  0
 21 55  1  0  0  0  0
 21 56  1  0  0  0  0
 22 57  1  0  0  0  0
 22 58  1  0  0  0  0
 26 59  1  0  0  0  0
 27 60  1  0  0  0  0
M  CHG  1  27   1
M  END
> <Chemgauss4>
-6.598248

> <ref_pdb>
x0830_0

> <CYS145-warhead min dist (A)>
4.5100694

> <CYS145-warhead avg dist (A)>
5.3068714

> <CYS145-warhead avg dist stderr (A)>
0.026360437

> <original SMILES>
CNC(=O)c1cc2cccc(c2nc1N3CCOCC3)C[NH+]4CCN(CC4)C(=O)CCl

$$$$
STU-CHA-535-1
  -OEChem-04232002263D

 55 57  0     0  0  0  0  0  0999 V2000
   11.4959   -1.8516   22.1363 C   0  0  0  0  0  0  0  0  0  0  0  0
   12.8079   -1.8481   21.6629 C   0  0  0  0  0  0  0  0  0  0  0  0
   13.4167   -0.2415   23.3615 C   0  0  0  0  0  0  0  0  0  0  0  0
   11.1442   -1.0499   23.2224 C   0  0  0  0  0  0  0  0  0  0  0  0
   12.1046   -0.2449   23.8349 C   0  0  0  0  0  0  0  0  0  0  0  0
   13.7683   -1.0431   22.2754 C   0  0  0  0  0  0  0  0  0  0  0  0
    6.1461   -2.4946   19.4418 C   0  0  0  0  0  0  0  0  0  0  0  0
   10.1774    5.9386   24.9445 C   0  0  0  0  0  0  0  0  0  0  0  0
    8.2533   -0.3219   21.8610 C   0  0  0  0  0  0  0  0  0  0  0  0
    6.9773   -2.1568   20.6677 C   0  0  0  0  0  0  0  0  0  0  0  0
    6.5054   -0.1672   18.6557 C   0  0  0  0  0  0  0  0  0  0  0  0
    6.6075    0.2451   20.1068 C   0  0  0  0  0  0  0  0  0  0  0  0
   10.9882    4.0731   23.5362 C   0  0  0  0  0  0  0  0  0  0  0  0
    9.3201    3.5677   25.2783 C   0  0  0  0  0  0  0  0  0  0  0  0
   11.8541    2.9105   23.9989 C   0  0  0  0  0  0  0  0  0  0  0  0
   10.1606    2.3955   25.7665 C   0  0  0  0  0  0  0  0  0  0  0  0
    9.7332   -1.0693   23.7114 C   0  0  0  0  0  0  0  0  0  0  0  0
   11.7494    0.6267   25.0033 C   0  0  0  0  0  0  0  0  0  0  0  0
    9.2982    6.3784   26.0879 C   0  0  0  0  0  0  0  0  0  0  0  0
    5.9374   -1.4880   18.5314 N   0  0  0  0  0  0  0  0  0  0  0  0
   10.1605    4.5804   24.6306 N   0  0  0  0  0  0  0  0  0  0  0  0
    7.3442   -0.7547   20.8729 N   0  0  0  0  0  0  0  0  0  0  0  0
    8.7893   -1.3365   22.6500 N   0  0  0  0  0  0  0  0  0  0  0  0
   10.9676    1.8485   24.6103 N   0  3  0  0  0  0  0  0  0  0  0  0
    5.7157   -3.6373   19.2750 O   0  0  0  0  0  0  0  0  0  0  0  0
   10.8596    6.7780   24.3511 O   0  0  0  0  0  0  0  0  0  0  0  0
    8.5559    0.8639   22.0257 O   0  0  0  0  0  0  0  0  0  0  0  0
   15.3862   -1.0378   21.6899 Cl  0  0  0  0  0  0  0  0  0  0  0  0
   10.2626    6.2261   27.5523 Cl  0  0  0  0  0  0  0  0  0  0  0  0
   10.7551   -2.4821   21.6518 H   0  0  0  0  0  0  0  0  0  0  0  0
   13.0668   -2.4769   20.8148 H   0  0  0  0  0  0  0  0  0  0  0  0
   14.1618    0.3892   23.8415 H   0  0  0  0  0  0  0  0  0  0  0  0
    6.4104   -2.4966   21.5414 H   0  0  0  0  0  0  0  0  0  0  0  0
    7.9091   -2.7309   20.6094 H   0  0  0  0  0  0  0  0  0  0  0  0
    5.8679    0.5231   18.0925 H   0  0  0  0  0  0  0  0  0  0  0  0
    7.4933   -0.1830   18.1849 H   0  0  0  0  0  0  0  0  0  0  0  0
    7.1481    1.1941   20.2058 H   0  0  0  0  0  0  0  0  0  0  0  0
    5.6068    0.3960   20.5237 H   0  0  0  0  0  0  0  0  0  0  0  0
   11.6259    4.8655   23.1321 H   0  0  0  0  0  0  0  0  0  0  0  0
   10.3129    3.7579   22.7314 H   0  0  0  0  0  0  0  0  0  0  0  0
    8.5849    3.2325   24.5367 H   0  0  0  0  0  0  0  0  0  0  0  0
    8.7600    3.9803   26.1192 H   0  0  0  0  0  0  0  0  0  0  0  0
   12.3733    2.4534   23.1503 H   0  0  0  0  0  0  0  0  0  0  0  0
   12.5837    3.2174   24.7568 H   0  0  0  0  0  0  0  0  0  0  0  0
   10.8609    2.6929   26.5550 H   0  0  0  0  0  0  0  0  0  0  0  0
    9.5194    1.5853   26.1286 H   0  0  0  0  0  0  0  0  0  0  0  0
    9.5935   -1.8402   24.4810 H   0  0  0  0  0  0  0  0  0  0  0  0
    9.4535   -0.1101   24.1666 H   0  0  0  0  0  0  0  0  0  0  0  0
   11.1381    0.0829   25.7315 H   0  0  0  0  0  0  0  0  0  0  0  0
   12.6479    0.9809   25.5201 H   0  0  0  0  0  0  0  0  0  0  0  0
    8.4360    5.7234   26.1403 H   0  0  0  0  0  0  0  0  0  0  0  0
    9.0143    7.4133   25.9349 H   0  0  0  0  0  0  0  0  0  0  0  0
    5.3507   -1.6838   17.7260 H   0  0  0  0  0  0  0  0  0  0  0  0
    8.5100   -2.2965   22.4765 H   0  0  0  0  0  0  0  0  0  0  0  0
   10.3011    1.5489   23.8853 H   0  0  0  0  0  0  0  0  0  0  0  0
  1  2  2  0  0  0  0
  1  4  1  0  0  0  0
  2  6  1  0  0  0  0
  3  5  1  0  0  0  0
  3  6  2  0  0  0  0
  4  5  2  0  0  0  0
  4 17  1  0  0  0  0
  5 18  1  0  0  0  0
  6 28  1  0  0  0  0
  7 10  1  0  0  0  0
  7 20  1  0  0  0  0
  7 25  2  0  0  0  0
  8 19  1  0  0  0  0
  8 21  1  0  0  0  0
  8 26  2  0  0  0  0
  9 22  1  0  0  0  0
  9 23  1  0  0  0  0
  9 27  2  0  0  0  0
 10 22  1  0  0  0  0
 11 12  1  0  0  0  0
 11 20  1  0  0  0  0
 12 22  1  0  0  0  0
 13 15  1  0  0  0  0
 13 21  1  0  0  0  0
 14 16  1  0  0  0  0
 14 21  1  0  0  0  0
 15 24  1  0  0  0  0
 16 24  1  0  0  0  0
 17 23  1  0  0  0  0
 18 24  1  0  0  0  0
 19 29  1  0  0  0  0
  1 30  1  0  0  0  0
  2 31  1  0  0  0  0
  3 32  1  0  0  0  0
 10 33  1  0  0  0  0
 10 34  1  0  0  0  0
 11 35  1  0  0  0  0
 11 36  1  0  0  0  0
 12 37  1  0  0  0  0
 12 38  1  0  0  0  0
 13 39  1  0  0  0  0
 13 40  1  0  0  0  0
 14 41  1  0  0  0  0
 14 42  1  0  0  0  0
 15 43  1  0  0  0  0
 15 44  1  0  0  0  0
 16 45  1  0  0  0  0
 16 46  1  0  0  0  0
 17 47  1  0  0  0  0
 17 48  1  0  0  0  0
 18 49  1  0  0  0  0
 18 50  1  0  0  0  0
 19 51  1  0  0  0  0
 19 52  1  0  0  0  0
 20 53  1  0  0  0  0
 23 54  1  0  0  0  0
 24 55  1  0  0  0  0
M  CHG  1  24   1
M  END
> <Chemgauss4>
-6.591172

> <ref_pdb>
x0831_0

> <CYS145-warhead min dist (A)>
11.035715

> <CYS145-warhead avg dist (A)>
11.725358

> <CYS145-warhead avg dist stderr (A)>
0.039058212

> <original SMILES>
c1cc(c(cc1Cl)C[NH+]2CCN(CC2)C(=O)CCl)CNC(=O)N3CCNC(=O)C3

$$$$
PAU-UNI-2d6-1
  -OEChem-04232002263D

 55 57  0     1  0  0  0  0  0999 V2000
   12.7763    2.7035   23.5908 C   0  0  0  0  0  0  0  0  0  0  0  0
   11.8374    3.4341   24.3100 C   0  0  0  0  0  0  0  0  0  0  0  0
   10.7609    1.3715   24.9591 C   0  0  0  0  0  0  0  0  0  0  0  0
   12.7078    1.3001   23.5436 C   0  0  0  0  0  0  0  0  0  0  0  0
   11.6996    0.5979   24.2483 C   0  0  0  0  0  0  0  0  0  0  0  0
   10.8279    2.7681   24.9913 C   0  0  0  0  0  0  0  0  0  0  0  0
    5.5393   -1.5195   18.9660 C   0  0  0  0  0  0  0  0  0  0  0  0
   13.7644    0.5602   22.7594 C   0  0  0  0  0  0  0  0  0  0  0  0
   13.3026   -0.8462   22.4050 C   0  0  0  0  0  0  0  0  0  0  0  0
   12.7683   -1.5398   23.6491 C   0  0  0  0  0  0  0  0  0  0  0  0
    6.3865   -3.0800   20.6889 C   0  0  0  0  0  0  0  0  0  0  0  0
    6.2571   -0.6859   21.2590 C   0  0  0  0  0  0  0  0  0  0  0  0
    7.8134   -3.1488   21.2130 C   0  0  0  0  0  0  0  0  0  0  0  0
    7.6825   -0.7192   21.7938 C   0  0  0  0  0  0  0  0  0  0  0  0
    5.8608   -0.1984   18.3140 C   0  0  0  0  0  0  0  0  0  0  0  0
    9.3005   -1.5395   24.3064 C   0  0  0  0  0  0  0  0  0  0  0  0
   10.6624   -1.5341   24.9957 C   0  0  0  0  0  0  0  0  0  0  0  0
    9.3524   -2.1882   22.9289 C   0  0  0  0  0  0  0  0  0  0  0  0
   11.6410   -0.7965   24.2098 N   0  0  3  0  0  0  0  0  0  0  0  0
    6.0542   -1.7262   20.2450 N   0  0  0  0  0  0  0  0  0  0  0  0
    8.4463    3.9293   24.7010 N   0  0  0  0  0  0  0  0  0  0  0  0
    7.9902   -2.1111   22.2989 N   0  3  0  0  0  0  0  0  0  0  0  0
    4.8534   -2.3426   18.3544 O   0  0  0  0  0  0  0  0  0  0  0  0
    9.0949    2.8133   26.9324 O   0  0  0  0  0  0  0  0  0  0  0  0
   10.2213    4.9630   26.2558 O   0  0  0  0  0  0  0  0  0  0  0  0
    9.6415    3.6769   25.8955 S   0  0  0  0  0  0  0  0  0  0  0  0
    7.6156   -0.0912   18.2314 Cl  0  0  0  0  0  0  0  0  0  0  0  0
   13.5661    3.2308   23.0610 H   0  0  0  0  0  0  0  0  0  0  0  0
   11.9032    4.5182   24.3321 H   0  0  0  0  0  0  0  0  0  0  0  0
    9.9557    0.8912   25.5114 H   0  0  0  0  0  0  0  0  0  0  0  0
   14.0002    1.1003   21.8351 H   0  0  0  0  0  0  0  0  0  0  0  0
   14.6778    0.5137   23.3651 H   0  0  0  0  0  0  0  0  0  0  0  0
   12.5205   -0.8094   21.6354 H   0  0  0  0  0  0  0  0  0  0  0  0
   14.1389   -1.4158   21.9842 H   0  0  0  0  0  0  0  0  0  0  0  0
   12.4545   -2.5528   23.3745 H   0  0  0  0  0  0  0  0  0  0  0  0
   13.5570   -1.6374   24.4040 H   0  0  0  0  0  0  0  0  0  0  0  0
    6.2621   -3.7979   19.8722 H   0  0  0  0  0  0  0  0  0  0  0  0
    5.6710   -3.3540   21.4737 H   0  0  0  0  0  0  0  0  0  0  0  0
    5.5382   -0.8735   22.0657 H   0  0  0  0  0  0  0  0  0  0  0  0
    6.0454    0.3107   20.8680 H   0  0  0  0  0  0  0  0  0  0  0  0
    8.0139   -4.1274   21.6610 H   0  0  0  0  0  0  0  0  0  0  0  0
    8.5501   -2.9437   20.4280 H   0  0  0  0  0  0  0  0  0  0  0  0
    8.4172   -0.4719   21.0194 H   0  0  0  0  0  0  0  0  0  0  0  0
    7.7932   -0.0333   22.6399 H   0  0  0  0  0  0  0  0  0  0  0  0
    5.4676    0.6023   18.9299 H   0  0  0  0  0  0  0  0  0  0  0  0
    5.4396   -0.1878   17.3153 H   0  0  0  0  0  0  0  0  0  0  0  0
    8.9219   -0.5130   24.2208 H   0  0  0  0  0  0  0  0  0  0  0  0
    8.5923   -2.0883   24.9397 H   0  0  0  0  0  0  0  0  0  0  0  0
   10.5734   -1.0594   25.9783 H   0  0  0  0  0  0  0  0  0  0  0  0
   11.0161   -2.5582   25.1551 H   0  0  0  0  0  0  0  0  0  0  0  0
   10.0403   -1.6736   22.2520 H   0  0  0  0  0  0  0  0  0  0  0  0
    9.6153   -3.2487   22.9855 H   0  0  0  0  0  0  0  0  0  0  0  0
    8.6548    4.5906   23.9429 H   0  0  0  0  0  0  0  0  0  0  0  0
    7.8828    3.1229   24.4051 H   0  0  0  0  0  0  0  0  0  0  0  0
    7.3113   -2.3248   23.0426 H   0  0  0  0  0  0  0  0  0  0  0  0
  1  2  2  0  0  0  0
  1  4  1  0  0  0  0
  2  6  1  0  0  0  0
  3  5  1  0  0  0  0
  3  6  2  0  0  0  0
  4  5  2  0  0  0  0
  4  8  1  0  0  0  0
  5 19  1  0  0  0  0
  6 26  1  0  0  0  0
  7 15  1  0  0  0  0
  7 20  1  0  0  0  0
  7 23  2  0  0  0  0
  8  9  1  0  0  0  0
  9 10  1  0  0  0  0
 10 19  1  0  0  0  0
 11 13  1  0  0  0  0
 11 20  1  0  0  0  0
 12 14  1  0  0  0  0
 12 20  1  0  0  0  0
 13 22  1  0  0  0  0
 14 22  1  0  0  0  0
 15 27  1  0  0  0  0
 16 17  1  0  0  0  0
 16 18  1  0  0  0  0
 17 19  1  0  0  0  0
 18 22  1  0  0  0  0
 21 26  1  0  0  0  0
 24 26  2  0  0  0  0
 25 26  2  0  0  0  0
  1 28  1  0  0  0  0
  2 29  1  0  0  0  0
  3 30  1  0  0  0  0
  8 31  1  0  0  0  0
  8 32  1  0  0  0  0
  9 33  1  0  0  0  0
  9 34  1  0  0  0  0
 10 35  1  0  0  0  0
 10 36  1  0  0  0  0
 11 37  1  0  0  0  0
 11 38  1  0  0  0  0
 12 39  1  0  0  0  0
 12 40  1  0  0  0  0
 13 41  1  0  0  0  0
 13 42  1  0  0  0  0
 14 43  1  0  0  0  0
 14 44  1  0  0  0  0
 15 45  1  0  0  0  0
 15 46  1  0  0  0  0
 16 47  1  0  0  0  0
 16 48  1  0  0  0  0
 17 49  1  0  0  0  0
 17 50  1  0  0  0  0
 18 51  1  0  0  0  0
 18 52  1  0  0  0  0
 21 53  1  0  0  0  0
 21 54  1  0  0  0  0
 22 55  1  0  0  0  0
M  CHG  1  22   1
M  END
> <Chemgauss4>
-6.568425

> <ref_pdb>
x0830_0

> <CYS145-warhead min dist (A)>
4.158908

> <CYS145-warhead avg dist (A)>
6.6235075

> <CYS145-warhead avg dist stderr (A)>
0.039651778

> <original SMILES>
c1cc2c(cc1S(=O)(=O)N)N(CCC2)CCC[NH+]3CCN(CC3)C(=O)CCl

$$$$
TAM-UNI-d1c-23
  -OEChem-04232002263D

 45 46  0     1  0  0  0  0  0999 V2000
    9.5628   -2.6028   21.4237 C   0  0  0  0  0  0  0  0  0  0  0  0
   10.7063   -1.8132   21.2565 C   0  0  0  0  0  0  0  0  0  0  0  0
   10.6240   -1.1080   23.5804 C   0  0  0  0  0  0  0  0  0  0  0  0
    7.6708   -2.9777   24.5285 C   0  0  0  0  0  0  0  0  0  0  0  0
    8.9377   -2.6487   22.6856 C   0  0  0  0  0  0  0  0  0  0  0  0
   11.2270   -1.0781   22.3197 C   0  0  0  0  0  0  0  0  0  0  0  0
    7.7956   -3.3222   23.2024 C   0  0  0  0  0  0  0  0  0  0  0  0
    9.4816   -1.9017   23.7328 C   0  0  0  0  0  0  0  0  0  0  0  0
    5.7520   -2.5329   19.8306 C   0  0  0  0  0  0  0  0  0  0  0  0
   11.8212    2.1295   22.4533 C   0  0  0  0  0  0  0  0  0  0  0  0
    5.9290   -1.2183   19.1460 C   0  0  0  0  0  0  0  0  0  0  0  0
   13.7537   -1.0064   22.3732 C   0  0  0  0  0  0  0  0  0  0  0  0
    8.8973   -1.5365   26.1472 C   0  0  0  0  0  0  0  0  0  0  0  0
    6.8996   -4.2307   22.4588 C   0  0  0  0  0  0  0  0  0  0  0  0
   11.8963    3.2537   23.4547 C   0  0  0  0  0  0  0  0  0  0  0  0
    5.5508   -3.6003   22.0673 C   0  0  0  0  0  0  0  0  0  0  0  0
   12.4475   -0.2437   22.1104 C   0  0  2  0  0  0  0  0  0  0  0  0
    8.6921   -2.1205   24.8391 N   0  0  0  0  0  0  0  0  0  0  0  0
    5.7153   -2.4544   21.2135 N   0  0  0  0  0  0  0  0  0  0  0  0
   12.4197    0.9712   22.9060 N   0  0  0  0  0  0  0  0  0  0  0  0
    5.6529   -3.5544   19.1609 O   0  0  0  0  0  0  0  0  0  0  0  0
   11.2627    2.2654   21.3661 O   0  0  0  0  0  0  0  0  0  0  0  0
   10.4588    3.1626   24.4844 Cl  0  0  0  0  0  0  0  0  0  0  0  0
    9.1686   -3.1690   20.5844 H   0  0  0  0  0  0  0  0  0  0  0  0
   11.1859   -1.7798   20.2811 H   0  0  0  0  0  0  0  0  0  0  0  0
   11.0266   -0.5345   24.4095 H   0  0  0  0  0  0  0  0  0  0  0  0
    6.9437   -3.2710   25.2744 H   0  0  0  0  0  0  0  0  0  0  0  0
    6.9898   -0.9665   18.9867 H   0  0  0  0  0  0  0  0  0  0  0  0
    5.4721   -1.2014   18.1435 H   0  0  0  0  0  0  0  0  0  0  0  0
    5.5014   -0.3508   19.6737 H   0  0  0  0  0  0  0  0  0  0  0  0
   13.7789   -1.3897   23.3992 H   0  0  0  0  0  0  0  0  0  0  0  0
   13.8604   -1.8569   21.6905 H   0  0  0  0  0  0  0  0  0  0  0  0
   14.6317   -0.3666   22.2298 H   0  0  0  0  0  0  0  0  0  0  0  0
    9.5423   -2.2087   26.7192 H   0  0  0  0  0  0  0  0  0  0  0  0
    9.3682   -0.5556   26.0383 H   0  0  0  0  0  0  0  0  0  0  0  0
    7.9310   -1.4166   26.6450 H   0  0  0  0  0  0  0  0  0  0  0  0
    6.6887   -5.1351   23.0630 H   0  0  0  0  0  0  0  0  0  0  0  0
    7.3885   -4.6178   21.5419 H   0  0  0  0  0  0  0  0  0  0  0  0
   12.7850    3.1934   24.0878 H   0  0  0  0  0  0  0  0  0  0  0  0
   11.8984    4.2111   22.9265 H   0  0  0  0  0  0  0  0  0  0  0  0
    4.9277   -4.3147   21.5200 H   0  0  0  0  0  0  0  0  0  0  0  0
    4.9978   -3.2745   22.9544 H   0  0  0  0  0  0  0  0  0  0  0  0
   12.4904    0.1114   21.0662 H   0  0  0  0  0  0  0  0  0  0  0  0
    5.8098   -1.5378   21.6481 H   0  0  0  0  0  0  0  0  0  0  0  0
   12.8525    0.9682   23.8204 H   0  0  0  0  0  0  0  0  0  0  0  0
  1  2  2  0  0  0  0
  1  5  1  0  0  0  0
  2  6  1  0  0  0  0
  3  6  2  0  0  0  0
  3  8  1  0  0  0  0
  4  7  2  0  0  0  0
  4 18  1  0  0  0  0
  5  7  1  0  0  0  0
  5  8  2  0  0  0  0
  6 17  1  0  0  0  0
  7 14  1  0  0  0  0
  8 18  1  0  0  0  0
  9 11  1  0  0  0  0
  9 19  1  0  0  0  0
  9 21  2  0  0  0  0
 10 15  1  0  0  0  0
 10 20  1  0  0  0  0
 10 22  2  0  0  0  0
 12 17  1  0  0  0  0
 13 18  1  0  0  0  0
 14 16  1  0  0  0  0
 15 23  1  0  0  0  0
 16 19  1  0  0  0  0
 17 20  1  0  0  0  0
  1 24  1  0  0  0  0
  2 25  1  0  0  0  0
  3 26  1  0  0  0  0
  4 27  1  0  0  0  0
 11 28  1  0  0  0  0
 11 29  1  0  0  0  0
 11 30  1  0  0  0  0
 12 31  1  0  0  0  0
 12 32  1  0  0  0  0
 12 33  1  0  0  0  0
 13 34  1  0  0  0  0
 13 35  1  0  0  0  0
 13 36  1  0  0  0  0
 14 37  1  0  0  0  0
 14 38  1  0  0  0  0
 15 39  1  0  0  0  0
 15 40  1  0  0  0  0
 16 41  1  0  0  0  0
 16 42  1  0  0  0  0
 17 43  1  0  0  0  0
 19 44  1  0  0  0  0
 20 45  1  0  0  0  0
M  END
> <Chemgauss4>
-6.564020

> <ref_pdb>
x0830_0

> <CYS145-warhead min dist (A)>
8.914298

> <CYS145-warhead avg dist (A)>
9.777938

> <CYS145-warhead avg dist stderr (A)>
0.035685968

> <original SMILES>
C[C@@H](c1ccc2c(c1)n(cc2CCNC(=O)C)C)NC(=O)CCl

$$$$
MAK-UNK-176-4
  -OEChem-04232002263D

 56 58  0     1  0  0  0  0  0999 V2000
   12.8855    0.6014   23.1278 C   0  0  0  0  0  0  0  0  0  0  0  0
   12.2324   -0.4976   22.5698 C   0  0  0  0  0  0  0  0  0  0  0  0
   12.3344    1.2544   24.2304 C   0  0  0  0  0  0  0  0  0  0  0  0
   10.4770   -0.2905   24.2168 C   0  0  0  0  0  0  0  0  0  0  0  0
   11.0282   -0.9435   23.1143 C   0  0  0  0  0  0  0  0  0  0  0  0
   11.1302    0.8084   24.7748 C   0  0  0  0  0  0  0  0  0  0  0  0
    6.1207   -1.6316   18.9405 C   0  0  0  0  0  0  0  0  0  0  0  0
    7.2103    2.6497   26.9621 C   0  0  0  0  0  0  0  0  0  0  0  0
    8.5666    1.9545   27.0276 C   0  0  0  0  0  0  0  0  0  0  0  0
    7.3404    4.0829   26.4562 C   0  0  0  0  0  0  0  0  0  0  0  0
    9.4263    3.4495   25.1862 C   0  0  0  0  0  0  0  0  0  0  0  0
    6.8170   -2.6431   21.0883 C   0  0  0  0  0  0  0  0  0  0  0  0
    7.5334   -0.3341   20.6105 C   0  0  0  0  0  0  0  0  0  0  0  0
    8.2367   -3.0240   21.4820 C   0  0  0  0  0  0  0  0  0  0  0  0
    8.9645   -0.6800   20.9991 C   0  0  0  0  0  0  0  0  0  0  0  0
    9.2978    2.0131   25.6877 C   0  0  1  0  0  0  0  0  0  0  0  0
    8.0694    4.1459   25.1153 C   0  0  2  0  0  0  0  0  0  0  0  0
    8.4915    5.6596   23.3679 C   0  0  0  0  0  0  0  0  0  0  0  0
   10.3255   -2.1253   22.5137 C   0  0  0  0  0  0  0  0  0  0  0  0
    6.1722   -0.4357   18.0234 C   0  0  0  0  0  0  0  0  0  0  0  0
    6.8151   -1.5252   20.1447 N   0  0  0  0  0  0  0  0  0  0  0  0
    8.9455   -1.7993   22.0159 N   0  3  0  0  0  0  0  0  0  0  0  0
    5.4843   -2.6301   18.5941 O   0  0  0  0  0  0  0  0  0  0  0  0
   10.5927    1.4453   25.8512 O   0  0  0  0  0  0  0  0  0  0  0  0
    8.2503    5.5122   24.7599 O   0  0  0  0  0  0  0  0  0  0  0  0
    5.2513   -0.8634   16.5858 Cl  0  0  0  0  0  0  0  0  0  0  0  0
   13.8234    0.9482   22.7041 H   0  0  0  0  0  0  0  0  0  0  0  0
   12.6693   -0.9996   21.7106 H   0  0  0  0  0  0  0  0  0  0  0  0
   12.8480    2.1097   24.6603 H   0  0  0  0  0  0  0  0  0  0  0  0
    9.5381   -0.6358   24.6433 H   0  0  0  0  0  0  0  0  0  0  0  0
    6.5436    2.0870   26.2973 H   0  0  0  0  0  0  0  0  0  0  0  0
    6.7465    2.6495   27.9548 H   0  0  0  0  0  0  0  0  0  0  0  0
    9.1852    2.4185   27.8070 H   0  0  0  0  0  0  0  0  0  0  0  0
    8.4389    0.9094   27.3347 H   0  0  0  0  0  0  0  0  0  0  0  0
    6.3480    4.5394   26.3597 H   0  0  0  0  0  0  0  0  0  0  0  0
    7.8754    4.6917   27.1970 H   0  0  0  0  0  0  0  0  0  0  0  0
   10.1095    4.0169   25.8331 H   0  0  0  0  0  0  0  0  0  0  0  0
    9.9099    3.4634   24.2011 H   0  0  0  0  0  0  0  0  0  0  0  0
    6.3106   -3.5137   20.6599 H   0  0  0  0  0  0  0  0  0  0  0  0
    6.2403   -2.3325   21.9681 H   0  0  0  0  0  0  0  0  0  0  0  0
    6.9839    0.0599   21.4741 H   0  0  0  0  0  0  0  0  0  0  0  0
    7.5486    0.4536   19.8554 H   0  0  0  0  0  0  0  0  0  0  0  0
    8.2288   -3.7713   22.2821 H   0  0  0  0  0  0  0  0  0  0  0  0
    8.8125   -3.4015   20.6294 H   0  0  0  0  0  0  0  0  0  0  0  0
    9.5534   -1.0168   20.1385 H   0  0  0  0  0  0  0  0  0  0  0  0
    9.4551    0.1788   21.4686 H   0  0  0  0  0  0  0  0  0  0  0  0
    8.7565    1.4079   24.9503 H   0  0  0  0  0  0  0  0  0  0  0  0
    7.4500    3.6780   24.3408 H   0  0  0  0  0  0  0  0  0  0  0  0
    8.6254    6.7178   23.1306 H   0  0  0  0  0  0  0  0  0  0  0  0
    7.6469    5.2532   22.8058 H   0  0  0  0  0  0  0  0  0  0  0  0
    9.3994    5.1117   23.1045 H   0  0  0  0  0  0  0  0  0  0  0  0
   10.8821   -2.5244   21.6590 H   0  0  0  0  0  0  0  0  0  0  0  0
   10.2135   -2.9326   23.2454 H   0  0  0  0  0  0  0  0  0  0  0  0
    7.2051   -0.2398   17.7591 H   0  0  0  0  0  0  0  0  0  0  0  0
    5.7126    0.4097   18.5223 H   0  0  0  0  0  0  0  0  0  0  0  0
    8.4119   -1.4652   22.8303 H   0  0  0  0  0  0  0  0  0  0  0  0
  1  2  1  0  0  0  0
  1  3  2  0  0  0  0
  2  5  2  0  0  0  0
  3  6  1  0  0  0  0
  4  5  1  0  0  0  0
  4  6  2  0  0  0  0
  5 19  1  0  0  0  0
  6 24  1  0  0  0  0
  7 20  1  0  0  0  0
  7 21  1  0  0  0  0
  7 23  2  0  0  0  0
  8  9  1  0  0  0  0
  8 10  1  0  0  0  0
  9 16  1  0  0  0  0
 10 17  1  0  0  0  0
 11 16  1  0  0  0  0
 11 17  1  0  0  0  0
 12 14  1  0  0  0  0
 12 21  1  0  0  0  0
 13 15  1  0  0  0  0
 13 21  1  0  0  0  0
 14 22  1  0  0  0  0
 15 22  1  0  0  0  0
 16 24  1  0  0  0  0
 17 25  1  0  0  0  0
 18 25  1  0  0  0  0
 19 22  1  0  0  0  0
 20 26  1  0  0  0  0
  1 27  1  0  0  0  0
  2 28  1  0  0  0  0
  3 29  1  0  0  0  0
  4 30  1  0  0  0  0
  8 31  1  0  0  0  0
  8 32  1  0  0  0  0
  9 33  1  0  0  0  0
  9 34  1  0  0  0  0
 10 35  1  0  0  0  0
 10 36  1  0  0  0  0
 11 37  1  0  0  0  0
 11 38  1  0  0  0  0
 12 39  1  0  0  0  0
 12 40  1  0  0  0  0
 13 41  1  0  0  0  0
 13 42  1  0  0  0  0
 14 43  1  0  0  0  0
 14 44  1  0  0  0  0
 15 45  1  0  0  0  0
 15 46  1  0  0  0  0
 16 47  1  0  0  0  0
 17 48  1  0  0  0  0
 18 49  1  0  0  0  0
 18 50  1  0  0  0  0
 18 51  1  0  0  0  0
 19 52  1  0  0  0  0
 19 53  1  0  0  0  0
 20 54  1  0  0  0  0
 20 55  1  0  0  0  0
 22 56  1  0  0  0  0
M  CHG  1  22   1
M  END
> <Chemgauss4>
-6.563586

> <ref_pdb>
x0830_0

> <CYS145-warhead min dist (A)>
4.434205

> <CYS145-warhead avg dist (A)>
5.6574264

> <CYS145-warhead avg dist stderr (A)>
0.035061065

> <original SMILES>
CO[C@@H]1CCC[C@@H](C1)Oc2cccc(c2)C[NH+]3CCN(CC3)C(=O)CCl

$$$$
SEA-TRI-9e6-1
  -OEChem-04232002263D

 45 47  0     0  0  0  0  0  0999 V2000
   12.5613    0.4480   24.6387 C   0  0  0  0  0  0  0  0  0  0  0  0
   11.4161    0.5990   23.8569 C   0  0  0  0  0  0  0  0  0  0  0  0
   13.6880   -0.1825   24.1108 C   0  0  0  0  0  0  0  0  0  0  0  0
    6.5478   -3.9092   25.1719 C   0  0  0  0  0  0  0  0  0  0  0  0
   12.5243   -0.5110   22.0192 C   0  0  0  0  0  0  0  0  0  0  0  0
    6.3919   -2.7879   26.0051 C   0  0  0  0  0  0  0  0  0  0  0  0
   11.3976    0.1195   22.5472 C   0  0  0  0  0  0  0  0  0  0  0  0
   13.6695   -0.6620   22.8011 C   0  0  0  0  0  0  0  0  0  0  0  0
    5.5706   -3.7501   24.2255 C   0  0  0  0  0  0  0  0  0  0  0  0
    7.1049   -5.8110   22.0855 C   0  0  0  0  0  0  0  0  0  0  0  0
    6.2471   -4.7842   22.0362 C   0  0  0  0  0  0  0  0  0  0  0  0
    6.4569   -3.7978   20.9575 C   0  0  0  0  0  0  0  0  0  0  0  0
    8.7875   -3.2858   21.8684 C   0  0  0  0  0  0  0  0  0  0  0  0
    7.9407   -2.1878   19.8274 C   0  0  0  0  0  0  0  0  0  0  0  0
    9.2660   -1.9407   22.4019 C   0  0  0  0  0  0  0  0  0  0  0  0
    8.3937   -0.8319   20.3455 C   0  0  0  0  0  0  0  0  0  0  0  0
   10.1650    0.2813   21.7072 C   0  0  0  0  0  0  0  0  0  0  0  0
    5.1399   -4.5547   23.0228 C   0  0  0  0  0  0  0  0  0  0  0  0
    5.3942   -1.9941   25.6059 N   0  0  0  0  0  0  0  0  0  0  0  0
    7.6738   -3.1213   20.9237 N   0  0  0  0  0  0  0  0  0  0  0  0
    9.5921   -1.0285   21.2439 N   0  3  0  0  0  0  0  0  0  0  0  0
    5.5417   -3.6362   20.1483 O   0  0  0  0  0  0  0  0  0  0  0  0
    4.8753   -2.6108   24.4737 O   0  0  0  0  0  0  0  0  0  0  0  0
   15.0596   -1.4408   22.1507 Cl  0  0  0  0  0  0  0  0  0  0  0  0
   12.5752    0.8214   25.6586 H   0  0  0  0  0  0  0  0  0  0  0  0
   10.5427    1.0915   24.2765 H   0  0  0  0  0  0  0  0  0  0  0  0
   14.5735   -0.2935   24.7319 H   0  0  0  0  0  0  0  0  0  0  0  0
    7.2648   -4.7129   25.2494 H   0  0  0  0  0  0  0  0  0  0  0  0
   12.5050   -0.8826   20.9973 H   0  0  0  0  0  0  0  0  0  0  0  0
    6.9589   -2.5145   26.8828 H   0  0  0  0  0  0  0  0  0  0  0  0
    7.0358   -6.5884   22.8396 H   0  0  0  0  0  0  0  0  0  0  0  0
    7.9098   -5.8973   21.3625 H   0  0  0  0  0  0  0  0  0  0  0  0
    9.5947   -3.8014   21.3347 H   0  0  0  0  0  0  0  0  0  0  0  0
    8.5082   -3.9061   22.7209 H   0  0  0  0  0  0  0  0  0  0  0  0
    7.0532   -2.0608   19.1993 H   0  0  0  0  0  0  0  0  0  0  0  0
    8.7171   -2.6389   19.1974 H   0  0  0  0  0  0  0  0  0  0  0  0
    8.5012   -1.4484   23.0132 H   0  0  0  0  0  0  0  0  0  0  0  0
   10.1820   -2.0638   22.9890 H   0  0  0  0  0  0  0  0  0  0  0  0
    8.7078   -0.1877   19.5179 H   0  0  0  0  0  0  0  0  0  0  0  0
    7.6125   -0.3303   20.9275 H   0  0  0  0  0  0  0  0  0  0  0  0
    9.3716    0.7927   22.2627 H   0  0  0  0  0  0  0  0  0  0  0  0
   10.3742    0.8691   20.8069 H   0  0  0  0  0  0  0  0  0  0  0  0
    4.2958   -4.0404   22.5438 H   0  0  0  0  0  0  0  0  0  0  0  0
    4.7325   -5.5215   23.3465 H   0  0  0  0  0  0  0  0  0  0  0  0
   10.3248   -1.4880   20.6858 H   0  0  0  0  0  0  0  0  0  0  0  0
  1  2  2  0  0  0  0
  1  3  1  0  0  0  0
  2  7  1  0  0  0  0
  3  8  2  0  0  0  0
  4  6  1  0  0  0  0
  4  9  2  0  0  0  0
  5  7  2  0  0  0  0
  5  8  1  0  0  0  0
  6 19  2  0  0  0  0
  7 17  1  0  0  0  0
  8 24  1  0  0  0  0
  9 18  1  0  0  0  0
  9 23  1  0  0  0  0
 10 11  2  0  0  0  0
 11 12  1  0  0  0  0
 11 18  1  0  0  0  0
 12 20  1  0  0  0  0
 12 22  2  0  0  0  0
 13 15  1  0  0  0  0
 13 20  1  0  0  0  0
 14 16  1  0  0  0  0
 14 20  1  0  0  0  0
 15 21  1  0  0  0  0
 16 21  1  0  0  0  0
 17 21  1  0  0  0  0
 19 23  1  0  0  0  0
  1 25  1  0  0  0  0
  2 26  1  0  0  0  0
  3 27  1  0  0  0  0
  4 28  1  0  0  0  0
  5 29  1  0  0  0  0
  6 30  1  0  0  0  0
 10 31  1  0  0  0  0
 10 32  1  0  0  0  0
 13 33  1  0  0  0  0
 13 34  1  0  0  0  0
 14 35  1  0  0  0  0
 14 36  1  0  0  0  0
 15 37  1  0  0  0  0
 15 38  1  0  0  0  0
 16 39  1  0  0  0  0
 16 40  1  0  0  0  0
 17 41  1  0  0  0  0
 17 42  1  0  0  0  0
 18 43  1  0  0  0  0
 18 44  1  0  0  0  0
 21 45  1  0  0  0  0
M  CHG  1  21   1
M  END
> <Chemgauss4>
-6.563030

> <ref_pdb>
x0708_0

> <original SMILES>
C=C(Cc1ccno1)C(=O)N2CC[NH+](CC2)Cc3cccc(c3)Cl

$$$$
GIA-UNK-3f3-5
  -OEChem-04232002263D

 34 34  0     0  0  0  0  0  0999 V2000
   12.6834    1.0428   23.0553 C   0  0  0  0  0  0  0  0  0  0  0  0
   12.3742    0.0936   22.0812 C   0  0  0  0  0  0  0  0  0  0  0  0
   12.2942    0.8362   24.3788 C   0  0  0  0  0  0  0  0  0  0  0  0
   11.6756   -1.0622   22.4304 C   0  0  0  0  0  0  0  0  0  0  0  0
   11.5956   -0.3195   24.7280 C   0  0  0  0  0  0  0  0  0  0  0  0
   11.2863   -1.2687   23.7539 C   0  0  0  0  0  0  0  0  0  0  0  0
    6.7415    0.2387   19.2487 C   0  0  0  0  0  0  0  0  0  0  0  0
    8.3976   -2.5976   22.8608 C   0  0  0  0  0  0  0  0  0  0  0  0
    6.2428   -1.8562   21.7206 C   0  0  0  0  0  0  0  0  0  0  0  0
   10.5342   -2.5123   24.1305 C   0  0  0  0  0  0  0  0  0  0  0  0
    5.7401    0.1861   20.3860 C   0  0  0  0  0  0  0  0  0  0  0  0
    6.1435    0.2344   17.8589 C   0  0  0  0  0  0  0  0  0  0  0  0
    6.9198   -2.2962   23.0027 C   0  0  0  0  0  0  0  0  0  0  0  0
    9.1044   -2.3330   24.0228 N   0  0  0  0  0  0  0  0  0  0  0  0
    6.3297   -0.4877   21.5208 N   0  0  0  0  0  0  0  0  0  0  0  0
    7.9500    0.3386   19.4587 O   0  0  0  0  0  0  0  0  0  0  0  0
    8.8872   -3.0056   21.8100 O   0  0  0  0  0  0  0  0  0  0  0  0
    5.6681   -2.6479   20.9769 O   0  0  0  0  0  0  0  0  0  0  0  0
    7.4137    0.3105   16.6284 Cl  0  0  0  0  0  0  0  0  0  0  0  0
   13.2285    1.9420   22.7834 H   0  0  0  0  0  0  0  0  0  0  0  0
   12.6782    0.2537   21.0508 H   0  0  0  0  0  0  0  0  0  0  0  0
   12.5357    1.5745   25.1377 H   0  0  0  0  0  0  0  0  0  0  0  0
   11.4389   -1.7962   21.6647 H   0  0  0  0  0  0  0  0  0  0  0  0
   11.2962   -0.4718   25.7616 H   0  0  0  0  0  0  0  0  0  0  0  0
   10.8192   -3.3474   23.4812 H   0  0  0  0  0  0  0  0  0  0  0  0
   10.7577   -2.8100   25.1603 H   0  0  0  0  0  0  0  0  0  0  0  0
    5.4582    1.2010   20.6756 H   0  0  0  0  0  0  0  0  0  0  0  0
    4.8567   -0.3841   20.0888 H   0  0  0  0  0  0  0  0  0  0  0  0
    5.4930    1.1042   17.7388 H   0  0  0  0  0  0  0  0  0  0  0  0
    5.5768   -0.6875   17.7059 H   0  0  0  0  0  0  0  0  0  0  0  0
    6.3834   -3.1836   23.3583 H   0  0  0  0  0  0  0  0  0  0  0  0
    6.8252   -1.5182   23.7691 H   0  0  0  0  0  0  0  0  0  0  0  0
    8.6154   -1.9638   24.8328 H   0  0  0  0  0  0  0  0  0  0  0  0
    6.8211    0.0857   22.1999 H   0  0  0  0  0  0  0  0  0  0  0  0
  1  2  1  0  0  0  0
  1  3  2  0  0  0  0
  2  4  2  0  0  0  0
  3  5  1  0  0  0  0
  4  6  1  0  0  0  0
  5  6  2  0  0  0  0
  6 10  1  0  0  0  0
  7 11  1  0  0  0  0
  7 12  1  0  0  0  0
  7 16  2  0  0  0  0
  8 13  1  0  0  0  0
  8 14  1  0  0  0  0
  8 17  2  0  0  0  0
  9 13  1  0  0  0  0
  9 15  1  0  0  0  0
  9 18  2  0  0  0  0
 10 14  1  0  0  0  0
 11 15  1  0  0  0  0
 12 19  1  0  0  0  0
  1 20  1  0  0  0  0
  2 21  1  0  0  0  0
  3 22  1  0  0  0  0
  4 23  1  0  0  0  0
  5 24  1  0  0  0  0
 10 25  1  0  0  0  0
 10 26  1  0  0  0  0
 11 27  1  0  0  0  0
 11 28  1  0  0  0  0
 12 29  1  0  0  0  0
 12 30  1  0  0  0  0
 13 31  1  0  0  0  0
 13 32  1  0  0  0  0
 14 33  1  0  0  0  0
 15 34  1  0  0  0  0
M  END
> <Chemgauss4>
-6.562965

> <ref_pdb>
x0831_0

> <original SMILES>
c1ccc(cc1)CNC(=O)CC(=O)NCC(=O)CCl

$$$$
MAK-UNK-e05-8_thio_pH
  -OEChem-04232002263D

 53 56  0     0  0  0  0  0  0999 V2000
   10.0541    4.1129   24.9640 C   0  0  0  0  0  0  0  0  0  0  0  0
    9.4785    2.9791   25.5297 C   0  0  0  0  0  0  0  0  0  0  0  0
   13.2381    1.3085   22.5830 C   0  0  0  0  0  0  0  0  0  0  0  0
   11.1334    3.9858   24.0891 C   0  0  0  0  0  0  0  0  0  0  0  0
    9.9798    1.7139   25.2226 C   0  0  0  0  0  0  0  0  0  0  0  0
   12.7367    2.5736   22.8900 C   0  0  0  0  0  0  0  0  0  0  0  0
   12.6625    0.1746   23.1487 C   0  0  0  0  0  0  0  0  0  0  0  0
    8.6558   -1.7917   24.3495 C   0  0  0  0  0  0  0  0  0  0  0  0
   10.1430   -1.9034   22.4487 C   0  0  0  0  0  0  0  0  0  0  0  0
    7.6328   -2.3482   23.5819 C   0  0  0  0  0  0  0  0  0  0  0  0
    9.1200   -2.4600   21.6811 C   0  0  0  0  0  0  0  0  0  0  0  0
   11.6510    2.7202   23.7687 C   0  0  0  0  0  0  0  0  0  0  0  0
   11.0656    1.5673   24.3440 C   0  0  0  0  0  0  0  0  0  0  0  0
    9.9109   -1.5692   23.7829 C   0  0  0  0  0  0  0  0  0  0  0  0
   11.5832    0.3016   24.0236 C   0  0  0  0  0  0  0  0  0  0  0  0
    7.8649   -2.6824   22.2477 C   0  0  0  0  0  0  0  0  0  0  0  0
    6.6806    1.5966   18.2810 C   0  0  0  0  0  0  0  0  0  0  0  0
    5.2701    0.1468   19.8237 C   0  0  0  0  0  0  0  0  0  0  0  0
    6.7366   -0.8729   18.1263 C   0  0  0  0  0  0  0  0  0  0  0  0
    5.8153   -0.8145   20.8755 C   0  0  0  0  0  0  0  0  0  0  0  0
    7.2889   -1.8348   19.1722 C   0  0  0  0  0  0  0  0  0  0  0  0
   11.0047   -0.9735   24.6032 C   0  0  0  0  0  0  0  0  0  0  0  0
    6.6837    2.7326   19.2724 C   0  0  0  0  0  0  0  0  0  0  0  0
    6.2523    0.3574   18.7538 N   0  0  0  0  0  0  0  0  0  0  0  0
    6.2480   -2.0831   20.2150 N   0  0  0  0  0  0  0  0  0  0  0  0
    7.0505    1.8053   17.1228 O   0  0  0  0  0  0  0  0  0  0  0  0
    7.1343   -4.4849   20.5183 O   0  0  0  0  0  0  0  0  0  0  0  0
    5.4251   -3.5878   22.1375 O   0  0  0  0  0  0  0  0  0  0  0  0
    6.5710   -3.3888   21.2766 S   0  0  0  0  0  0  0  0  0  0  0  0
    8.0005    3.8038   18.8070 Cl  0  0  0  0  0  0  0  0  0  0  0  0
    9.6634    5.0976   25.2036 H   0  0  0  0  0  0  0  0  0  0  0  0
    8.6383    3.0790   26.2107 H   0  0  0  0  0  0  0  0  0  0  0  0
   14.0784    1.2089   21.9020 H   0  0  0  0  0  0  0  0  0  0  0  0
   11.5676    4.8858   23.6586 H   0  0  0  0  0  0  0  0  0  0  0  0
    9.5031    0.8526   25.6846 H   0  0  0  0  0  0  0  0  0  0  0  0
   13.2023    3.4460   22.4362 H   0  0  0  0  0  0  0  0  0  0  0  0
   13.0621   -0.8055   22.9016 H   0  0  0  0  0  0  0  0  0  0  0  0
    8.4657   -1.5342   25.3880 H   0  0  0  0  0  0  0  0  0  0  0  0
   11.1175   -1.7333   21.9988 H   0  0  0  0  0  0  0  0  0  0  0  0
    6.6585   -2.5169   24.0329 H   0  0  0  0  0  0  0  0  0  0  0  0
    9.3115   -2.7162   20.6424 H   0  0  0  0  0  0  0  0  0  0  0  0
    4.3729   -0.2723   19.3520 H   0  0  0  0  0  0  0  0  0  0  0  0
    4.9786    1.0827   20.3034 H   0  0  0  0  0  0  0  0  0  0  0  0
    7.5056   -0.6546   17.3787 H   0  0  0  0  0  0  0  0  0  0  0  0
    5.8847   -1.3231   17.6025 H   0  0  0  0  0  0  0  0  0  0  0  0
    6.6608   -0.3664   21.4101 H   0  0  0  0  0  0  0  0  0  0  0  0
    5.0240   -1.0360   21.5999 H   0  0  0  0  0  0  0  0  0  0  0  0
    7.5466   -2.7815   18.6852 H   0  0  0  0  0  0  0  0  0  0  0  0
    8.1925   -1.4260   19.6387 H   0  0  0  0  0  0  0  0  0  0  0  0
   10.6518   -0.7708   25.6298 H   0  0  0  0  0  0  0  0  0  0  0  0
   11.8216   -1.7025   24.7472 H   0  0  0  0  0  0  0  0  0  0  0  0
    6.8619    2.3330   20.2643 H   0  0  0  0  0  0  0  0  0  0  0  0
    5.7371    3.2569   19.2091 H   0  0  0  0  0  0  0  0  0  0  0  0
  1  2  1  0  0  0  0
  1  4  2  0  0  0  0
  2  5  2  0  0  0  0
  3  6  1  0  0  0  0
  3  7  2  0  0  0  0
  4 12  1  0  0  0  0
  5 13  1  0  0  0  0
  6 12  2  0  0  0  0
  7 15  1  0  0  0  0
  8 10  2  0  0  0  0
  8 14  1  0  0  0  0
  9 11  1  0  0  0  0
  9 14  2  0  0  0  0
 10 16  1  0  0  0  0
 11 16  2  0  0  0  0
 12 13  1  0  0  0  0
 13 15  2  0  0  0  0
 14 22  1  0  0  0  0
 15 22  1  0  0  0  0
 16 29  1  0  0  0  0
 17 23  1  0  0  0  0
 17 24  1  0  0  0  0
 17 26  2  0  0  0  0
 18 20  1  0  0  0  0
 18 24  1  0  0  0  0
 19 21  1  0  0  0  0
 19 24  1  0  0  0  0
 20 25  1  0  0  0  0
 21 25  1  0  0  0  0
 23 30  1  0  0  0  0
 25 29  1  0  0  0  0
 27 29  2  0  0  0  0
 28 29  2  0  0  0  0
  1 31  1  0  0  0  0
  2 32  1  0  0  0  0
  3 33  1  0  0  0  0
  4 34  1  0  0  0  0
  5 35  1  0  0  0  0
  6 36  1  0  0  0  0
  7 37  1  0  0  0  0
  8 38  1  0  0  0  0
  9 39  1  0  0  0  0
 10 40  1  0  0  0  0
 11 41  1  0  0  0  0
 18 42  1  0  0  0  0
 18 43  1  0  0  0  0
 19 44  1  0  0  0  0
 19 45  1  0  0  0  0
 20 46  1  0  0  0  0
 20 47  1  0  0  0  0
 21 48  1  0  0  0  0
 21 49  1  0  0  0  0
 22 50  1  0  0  0  0
 22 51  1  0  0  0  0
 23 52  1  0  0  0  0
 23 53  1  0  0  0  0
M  END
> <Chemgauss4>
-6.518343

> <ref_pdb>
x0830_0

> <CYS145-warhead min dist (A)>
5.9361367

> <CYS145-warhead avg dist (A)>
7.49267

> <CYS145-warhead avg dist stderr (A)>
0.07567915

> <original SMILES>
c1ccc2c(c1)cccc2Cc3ccc(cc3)S(=O)(=O)N4CCN(CC4)C(=O)CCl

$$$$
MAT-POS-916-1_thio_pH
  -OEChem-04232002263D

 44 46  0     1  0  0  0  0  0999 V2000
    6.3288   -6.2876   27.1258 C   0  0  0  0  0  0  0  0  0  0  0  0
    7.5672   -5.6619   26.9831 C   0  0  0  0  0  0  0  0  0  0  0  0
    5.2660   -5.9280   26.2970 C   0  0  0  0  0  0  0  0  0  0  0  0
    7.7428   -4.6763   26.0118 C   0  0  0  0  0  0  0  0  0  0  0  0
    5.4416   -4.9425   25.3257 C   0  0  0  0  0  0  0  0  0  0  0  0
    9.7614   -1.9816   22.3213 C   0  0  0  0  0  0  0  0  0  0  0  0
   11.0978   -1.7047   22.0335 C   0  0  0  0  0  0  0  0  0  0  0  0
    9.4384    0.3074   23.0238 C   0  0  0  0  0  0  0  0  0  0  0  0
    6.6800   -4.3166   25.1830 C   0  0  0  0  0  0  0  0  0  0  0  0
    8.9316   -0.9755   22.8164 C   0  0  0  0  0  0  0  0  0  0  0  0
   11.6046   -0.4218   22.2409 C   0  0  0  0  0  0  0  0  0  0  0  0
   10.7749    0.5843   22.7360 C   0  0  0  0  0  0  0  0  0  0  0  0
    6.8664   -3.2713   24.1529 C   0  0  0  0  0  0  0  0  0  0  0  0
    6.7088   -2.1606   20.8851 C   0  0  0  0  0  0  0  0  0  0  0  0
    7.2693   -1.8627   24.5152 C   0  0  0  0  0  0  0  0  0  0  0  0
    7.4776   -1.2758   23.1269 C   0  0  2  0  0  0  0  0  0  0  0  0
   13.6911   -1.2480   21.4536 C   0  0  0  0  0  0  0  0  0  0  0  0
   11.8098    2.1190   24.2291 C   0  0  0  0  0  0  0  0  0  0  0  0
    7.0100   -0.7931   20.3225 C   0  0  0  0  0  0  0  0  0  0  0  0
    6.6731   -3.4798   22.8857 N   0  0  0  0  0  0  0  0  0  0  0  0
    6.9592   -2.3146   22.2358 N   0  0  0  0  0  0  0  0  0  0  0  0
    6.2717   -3.0542   20.1586 O   0  0  0  0  0  0  0  0  0  0  0  0
   12.9118   -0.1643   21.9559 O   0  0  0  0  0  0  0  0  0  0  0  0
   11.2587    1.8407   22.9434 O   0  0  0  0  0  0  0  0  0  0  0  0
    6.6465   -0.8662   18.6023 Cl  0  0  0  0  0  0  0  0  0  0  0  0
    6.1921   -7.0549   27.8821 H   0  0  0  0  0  0  0  0  0  0  0  0
    8.3945   -5.9419   27.6287 H   0  0  0  0  0  0  0  0  0  0  0  0
    4.3019   -6.4155   26.4079 H   0  0  0  0  0  0  0  0  0  0  0  0
    8.7121   -4.1951   25.9092 H   0  0  0  0  0  0  0  0  0  0  0  0
    4.6064   -4.6702   24.6855 H   0  0  0  0  0  0  0  0  0  0  0  0
    9.3748   -2.9834   22.1551 H   0  0  0  0  0  0  0  0  0  0  0  0
   11.7387   -2.4931   21.6485 H   0  0  0  0  0  0  0  0  0  0  0  0
    8.7936    1.0936   23.4091 H   0  0  0  0  0  0  0  0  0  0  0  0
    6.4291   -1.3848   25.0296 H   0  0  0  0  0  0  0  0  0  0  0  0
    8.1558   -1.8634   25.1557 H   0  0  0  0  0  0  0  0  0  0  0  0
    6.9009   -0.3477   22.9703 H   0  0  0  0  0  0  0  0  0  0  0  0
   14.7129   -0.9078   21.2682 H   0  0  0  0  0  0  0  0  0  0  0  0
   13.2457   -1.6196   20.5273 H   0  0  0  0  0  0  0  0  0  0  0  0
   13.7054   -2.0496   22.1959 H   0  0  0  0  0  0  0  0  0  0  0  0
   12.1584    3.1542   24.2606 H   0  0  0  0  0  0  0  0  0  0  0  0
   12.6410    1.4372   24.4255 H   0  0  0  0  0  0  0  0  0  0  0  0
   11.0357    1.9744   24.9865 H   0  0  0  0  0  0  0  0  0  0  0  0
    8.0611   -0.5764   20.4726 H   0  0  0  0  0  0  0  0  0  0  0  0
    6.3703   -0.0660   20.8084 H   0  0  0  0  0  0  0  0  0  0  0  0
  1  2  1  0  0  0  0
  1  3  2  0  0  0  0
  2  4  2  0  0  0  0
  3  5  1  0  0  0  0
  4  9  1  0  0  0  0
  5  9  2  0  0  0  0
  6  7  1  0  0  0  0
  6 10  2  0  0  0  0
  7 11  2  0  0  0  0
  8 10  1  0  0  0  0
  8 12  2  0  0  0  0
  9 13  1  0  0  0  0
 10 16  1  0  0  0  0
 11 12  1  0  0  0  0
 11 23  1  0  0  0  0
 12 24  1  0  0  0  0
 13 15  1  0  0  0  0
 13 20  2  0  0  0  0
 14 19  1  0  0  0  0
 14 21  1  0  0  0  0
 14 22  2  0  0  0  0
 15 16  1  0  0  0  0
 16 21  1  0  0  0  0
 17 23  1  0  0  0  0
 18 24  1  0  0  0  0
 19 25  1  0  0  0  0
 20 21  1  0  0  0  0
  1 26  1  0  0  0  0
  2 27  1  0  0  0  0
  3 28  1  0  0  0  0
  4 29  1  0  0  0  0
  5 30  1  0  0  0  0
  6 31  1  0  0  0  0
  7 32  1  0  0  0  0
  8 33  1  0  0  0  0
 15 34  1  0  0  0  0
 15 35  1  0  0  0  0
 16 36  1  0  0  0  0
 17 37  1  0  0  0  0
 17 38  1  0  0  0  0
 17 39  1  0  0  0  0
 18 40  1  0  0  0  0
 18 41  1  0  0  0  0
 18 42  1  0  0  0  0
 19 43  1  0  0  0  0
 19 44  1  0  0  0  0
M  END
> <Chemgauss4>
-6.500078

> <ref_pdb>
x1392_0

> <CYS145-warhead min dist (A)>
3.0025349

> <CYS145-warhead avg dist (A)>
3.8593595

> <CYS145-warhead avg dist stderr (A)>
0.06425289

> <original SMILES>
COc1ccc(cc1OC)[C@@H]2CC(=NN2C(=O)CCl)c3ccccc3

$$$$
TAM-UNI-d1c-10
  -OEChem-04232002263D

 45 47  0     1  0  0  0  0  0999 V2000
   10.4685   -3.1890   25.1754 C   0  0  0  0  0  0  0  0  0  0  0  0
   13.7189   -0.1952   23.0694 C   0  0  0  0  0  0  0  0  0  0  0  0
   12.9526   -0.9772   22.2125 C   0  0  0  0  0  0  0  0  0  0  0  0
    8.9204   -4.5465   23.8767 C   0  0  0  0  0  0  0  0  0  0  0  0
   13.1219    0.4165   24.1695 C   0  0  0  0  0  0  0  0  0  0  0  0
   11.5928   -1.1623   22.4645 C   0  0  0  0  0  0  0  0  0  0  0  0
    7.9154   -4.6696   22.9173 C   0  0  0  0  0  0  0  0  0  0  0  0
    7.9443   -2.2774   22.5801 C   0  0  0  0  0  0  0  0  0  0  0  0
    9.4373   -3.2889   24.1878 C   0  0  0  0  0  0  0  0  0  0  0  0
   11.7521    0.2468   24.4290 C   0  0  0  0  0  0  0  0  0  0  0  0
   10.9803   -0.5822   23.5896 C   0  0  0  0  0  0  0  0  0  0  0  0
    8.9493   -2.1544   23.5395 C   0  0  0  0  0  0  0  0  0  0  0  0
    7.4273   -3.5351   22.2690 C   0  0  0  0  0  0  0  0  0  0  0  0
    8.8584    1.9222   26.1167 C   0  0  0  0  0  0  0  0  0  0  0  0
   11.1535    0.9624   25.6167 C   0  0  0  0  0  0  0  0  0  0  0  0
    9.1195   -0.3953   25.3000 C   0  0  0  0  0  0  0  0  0  0  0  0
    9.4895   -0.7660   23.8528 C   0  0  1  0  0  0  0  0  0  0  0  0
    4.2086   -4.7133   22.7071 C   0  0  0  0  0  0  0  0  0  0  0  0
    9.5397    3.1819   26.5904 C   0  0  0  0  0  0  0  0  0  0  0  0
   11.3046   -3.1079   25.9761 N   0  0  0  0  0  0  0  0  0  0  0  0
    9.6899    0.8987   25.6611 N   0  0  0  0  0  0  0  0  0  0  0  0
    4.7469   -3.5412   22.0020 N   0  0  0  0  0  0  0  0  0  0  0  0
    7.6271    1.8534   26.1479 O   0  0  0  0  0  0  0  0  0  0  0  0
    6.2496   -2.5546   20.1567 O   0  0  0  0  0  0  0  0  0  0  0  0
    6.2338   -5.0417   20.5287 O   0  0  0  0  0  0  0  0  0  0  0  0
    6.1701   -3.6896   21.0673 S   0  0  0  0  0  0  0  0  0  0  0  0
    9.7194    4.2175   25.1789 Cl  0  0  0  0  0  0  0  0  0  0  0  0
   14.7797   -0.0617   22.8822 H   0  0  0  0  0  0  0  0  0  0  0  0
   13.4109   -1.4440   21.3449 H   0  0  0  0  0  0  0  0  0  0  0  0
    9.2895   -5.4415   24.3720 H   0  0  0  0  0  0  0  0  0  0  0  0
   13.7301    1.0284   24.8321 H   0  0  0  0  0  0  0  0  0  0  0  0
   11.0052   -1.7648   21.7727 H   0  0  0  0  0  0  0  0  0  0  0  0
    7.5186   -5.6539   22.6832 H   0  0  0  0  0  0  0  0  0  0  0  0
    7.5650   -1.3922   22.0751 H   0  0  0  0  0  0  0  0  0  0  0  0
   11.5714    0.5340   26.5279 H   0  0  0  0  0  0  0  0  0  0  0  0
   11.4214    2.0213   25.5696 H   0  0  0  0  0  0  0  0  0  0  0  0
    8.0340   -0.2964   25.3956 H   0  0  0  0  0  0  0  0  0  0  0  0
    9.4396   -1.1751   25.9934 H   0  0  0  0  0  0  0  0  0  0  0  0
    8.9262   -0.0582   23.1963 H   0  0  0  0  0  0  0  0  0  0  0  0
    5.0237   -5.4209   22.9188 H   0  0  0  0  0  0  0  0  0  0  0  0
    3.7472   -4.3922   23.6527 H   0  0  0  0  0  0  0  0  0  0  0  0
    3.4515   -5.2038   22.0777 H   0  0  0  0  0  0  0  0  0  0  0  0
   10.5135    2.9246   26.9902 H   0  0  0  0  0  0  0  0  0  0  0  0
    8.9103    3.6642   27.3290 H   0  0  0  0  0  0  0  0  0  0  0  0
    4.0665   -2.8126   21.7543 H   0  0  0  0  0  0  0  0  0  0  0  0
  1  9  1  0  0  0  0
  1 20  3  0  0  0  0
  2  3  1  0  0  0  0
  2  5  2  0  0  0  0
  3  6  2  0  0  0  0
  4  7  2  0  0  0  0
  4  9  1  0  0  0  0
  5 10  1  0  0  0  0
  6 11  1  0  0  0  0
  7 13  1  0  0  0  0
  8 12  1  0  0  0  0
  8 13  2  0  0  0  0
  9 12  2  0  0  0  0
 10 11  2  0  0  0  0
 10 15  1  0  0  0  0
 11 17  1  0  0  0  0
 12 17  1  0  0  0  0
 13 26  1  0  0  0  0
 14 19  1  0  0  0  0
 14 21  1  0  0  0  0
 14 23  2  0  0  0  0
 15 21  1  0  0  0  0
 16 17  1  0  0  0  0
 16 21  1  0  0  0  0
 18 22  1  0  0  0  0
 19 27  1  0  0  0  0
 22 26  1  0  0  0  0
 24 26  2  0  0  0  0
 25 26  2  0  0  0  0
  2 28  1  0  0  0  0
  3 29  1  0  0  0  0
  4 30  1  0  0  0  0
  5 31  1  0  0  0  0
  6 32  1  0  0  0  0
  7 33  1  0  0  0  0
  8 34  1  0  0  0  0
 15 35  1  0  0  0  0
 15 36  1  0  0  0  0
 16 37  1  0  0  0  0
 16 38  1  0  0  0  0
 17 39  1  0  0  0  0
 18 40  1  0  0  0  0
 18 41  1  0  0  0  0
 18 42  1  0  0  0  0
 19 43  1  0  0  0  0
 19 44  1  0  0  0  0
 22 45  1  0  0  0  0
M  END
> <Chemgauss4>
-6.491475

> <ref_pdb>
x0830_0

> <CYS145-warhead min dist (A)>
7.536116

> <CYS145-warhead avg dist (A)>
9.435576

> <CYS145-warhead avg dist stderr (A)>
0.06882001

> <original SMILES>
CNS(=O)(=O)c1ccc(c(c1)[C@H]2CN(Cc3c2cccc3)C(=O)CCl)C#N

$$$$
TOB-UNK-c2a-1
  -OEChem-04232002263D

 27 27  0     0  0  0  0  0  0999 V2000
   12.3585    0.0735   24.8290 C   0  0  0  0  0  0  0  0  0  0  0  0
   12.0775   -1.0896   24.7309 C   0  0  0  0  0  0  0  0  0  0  0  0
    7.3096   -4.5859   22.0192 C   0  0  0  0  0  0  0  0  0  0  0  0
    8.2627   -4.0456   24.2375 C   0  0  0  0  0  0  0  0  0  0  0  0
    8.6213   -2.4410   22.4018 C   0  0  0  0  0  0  0  0  0  0  0  0
    9.7419   -4.0023   24.5918 C   0  0  0  0  0  0  0  0  0  0  0  0
   10.1067   -2.3721   22.7299 C   0  0  0  0  0  0  0  0  0  0  0  0
   11.7409   -2.5060   24.6132 C   0  0  0  0  0  0  0  0  0  0  0  0
    7.3491   -6.0495   22.3801 C   0  0  0  0  0  0  0  0  0  0  0  0
    8.0505   -3.7238   22.8262 N   0  0  0  0  0  0  0  0  0  0  0  0
   10.3026   -2.6525   24.2031 N   0  3  0  0  0  0  0  0  0  0  0  0
    6.6379   -4.2217   21.0506 O   0  0  0  0  0  0  0  0  0  0  0  0
    6.0459   -6.3197   23.5318 Cl  0  0  0  0  0  0  0  0  0  0  0  0
   12.6071    1.1053   24.9161 H   0  0  0  0  0  0  0  0  0  0  0  0
    7.8587   -5.0346   24.4752 H   0  0  0  0  0  0  0  0  0  0  0  0
    7.7000   -3.3141   24.8302 H   0  0  0  0  0  0  0  0  0  0  0  0
    8.0730   -1.6508   22.9289 H   0  0  0  0  0  0  0  0  0  0  0  0
    8.4831   -2.2673   21.3333 H   0  0  0  0  0  0  0  0  0  0  0  0
    9.8843   -4.1163   25.6713 H   0  0  0  0  0  0  0  0  0  0  0  0
   10.3146   -4.7707   24.0603 H   0  0  0  0  0  0  0  0  0  0  0  0
   10.6862   -3.1118   22.1663 H   0  0  0  0  0  0  0  0  0  0  0  0
   10.4990   -1.3689   22.5340 H   0  0  0  0  0  0  0  0  0  0  0  0
   11.8524   -3.0334   25.5644 H   0  0  0  0  0  0  0  0  0  0  0  0
   12.3394   -3.0067   23.8473 H   0  0  0  0  0  0  0  0  0  0  0  0
    8.3048   -6.2723   22.8405 H   0  0  0  0  0  0  0  0  0  0  0  0
    7.1822   -6.6368   21.4844 H   0  0  0  0  0  0  0  0  0  0  0  0
    9.7754   -1.9383   24.7243 H   0  0  0  0  0  0  0  0  0  0  0  0
  1  2  3  0  0  0  0
  2  8  1  0  0  0  0
  3  9  1  0  0  0  0
  3 10  1  0  0  0  0
  3 12  2  0  0  0  0
  4  6  1  0  0  0  0
  4 10  1  0  0  0  0
  5  7  1  0  0  0  0
  5 10  1  0  0  0  0
  6 11  1  0  0  0  0
  7 11  1  0  0  0  0
  8 11  1  0  0  0  0
  9 13  1  0  0  0  0
  1 14  1  0  0  0  0
  4 15  1  0  0  0  0
  4 16  1  0  0  0  0
  5 17  1  0  0  0  0
  5 18  1  0  0  0  0
  6 19  1  0  0  0  0
  6 20  1  0  0  0  0
  7 21  1  0  0  0  0
  7 22  1  0  0  0  0
  8 23  1  0  0  0  0
  8 24  1  0  0  0  0
  9 25  1  0  0  0  0
  9 26  1  0  0  0  0
 11 27  1  0  0  0  0
M  CHG  1  11   1
M  END
> <Chemgauss4>
-6.445418

> <ref_pdb>
x0749_0

> <CYS145-warhead min dist (A)>
3.7047892

> <CYS145-warhead avg dist (A)>
4.8144617

> <CYS145-warhead avg dist stderr (A)>
0.04079289

> <original SMILES>
C#CC[NH+]1CCN(CC1)C(=O)CCl

$$$$
TAM-UNI-d1c-6
  -OEChem-04232002263D

 49 51  0     0  0  0  0  0  0999 V2000
    9.1902   -1.6566   24.4927 C   0  0  0  0  0  0  0  0  0  0  0  0
    7.2983   -2.5449   23.2143 C   0  0  0  0  0  0  0  0  0  0  0  0
   10.4565   -1.0722   24.5271 C   0  0  0  0  0  0  0  0  0  0  0  0
    6.6995   -2.8362   21.9883 C   0  0  0  0  0  0  0  0  0  0  0  0
   10.5230   -1.0715   22.1139 C   0  0  0  0  0  0  0  0  0  0  0  0
    8.6310   -1.9597   20.8355 C   0  0  0  0  0  0  0  0  0  0  0  0
    8.5724   -1.9567   23.2677 C   0  0  0  0  0  0  0  0  0  0  0  0
    9.2488   -1.6597   22.0605 C   0  0  0  0  0  0  0  0  0  0  0  0
   11.1217   -0.7802   23.3400 C   0  0  0  0  0  0  0  0  0  0  0  0
    7.3646   -2.5442   20.8012 C   0  0  0  0  0  0  0  0  0  0  0  0
   10.3435    4.7484   24.8258 C   0  0  0  0  0  0  0  0  0  0  0  0
   11.9868    3.0125   25.4640 C   0  0  0  0  0  0  0  0  0  0  0  0
   11.7874    3.5960   23.0780 C   0  0  0  0  0  0  0  0  0  0  0  0
   11.9014    1.5304   25.1299 C   0  0  0  0  0  0  0  0  0  0  0  0
   11.7009    2.1215   22.7076 C   0  0  0  0  0  0  0  0  0  0  0  0
    6.4827   -0.1989   18.7964 C   0  0  0  0  0  0  0  0  0  0  0  0
   12.4838   -0.1525   23.3795 C   0  0  0  0  0  0  0  0  0  0  0  0
    9.6948    5.5374   23.7166 C   0  0  0  0  0  0  0  0  0  0  0  0
   11.3126    3.8203   24.4476 N   0  0  0  0  0  0  0  0  0  0  0  0
    5.7567   -1.4705   18.9256 N   0  0  0  0  0  0  0  0  0  0  0  0
   12.4496    1.3065   23.7383 N   0  3  0  0  0  0  0  0  0  0  0  0
    9.9963    4.9506   25.9923 O   0  0  0  0  0  0  0  0  0  0  0  0
    7.6563   -3.0800   18.2639 O   0  0  0  0  0  0  0  0  0  0  0  0
    5.6528   -3.9818   19.4874 O   0  0  0  0  0  0  0  0  0  0  0  0
    6.6138   -2.9091   19.2677 S   0  0  0  0  0  0  0  0  0  0  0  0
    8.3074    4.5991   23.1758 Cl  0  0  0  0  0  0  0  0  0  0  0  0
    8.6882   -1.8757   25.4329 H   0  0  0  0  0  0  0  0  0  0  0  0
    6.7598   -2.7812   24.1297 H   0  0  0  0  0  0  0  0  0  0  0  0
   10.9157   -0.8494   25.4867 H   0  0  0  0  0  0  0  0  0  0  0  0
    5.7130   -3.2918   21.9719 H   0  0  0  0  0  0  0  0  0  0  0  0
   11.0536   -0.8367   21.1927 H   0  0  0  0  0  0  0  0  0  0  0  0
    9.1422   -1.7360   19.9006 H   0  0  0  0  0  0  0  0  0  0  0  0
   11.5517    3.1899   26.4525 H   0  0  0  0  0  0  0  0  0  0  0  0
   13.0323    3.3414   25.5058 H   0  0  0  0  0  0  0  0  0  0  0  0
   12.8264    3.9445   23.0330 H   0  0  0  0  0  0  0  0  0  0  0  0
   11.2227    4.1810   22.3502 H   0  0  0  0  0  0  0  0  0  0  0  0
   12.5144    0.9424   25.8207 H   0  0  0  0  0  0  0  0  0  0  0  0
   10.8689    1.1637   25.1483 H   0  0  0  0  0  0  0  0  0  0  0  0
   10.6652    1.7645   22.6836 H   0  0  0  0  0  0  0  0  0  0  0  0
   12.1768    1.9385   21.7388 H   0  0  0  0  0  0  0  0  0  0  0  0
    7.5188   -0.3976   18.4849 H   0  0  0  0  0  0  0  0  0  0  0  0
    5.9876    0.4308   18.0425 H   0  0  0  0  0  0  0  0  0  0  0  0
    6.4847    0.3220   19.7652 H   0  0  0  0  0  0  0  0  0  0  0  0
   13.1247   -0.6435   24.1196 H   0  0  0  0  0  0  0  0  0  0  0  0
   12.9813   -0.2255   22.4064 H   0  0  0  0  0  0  0  0  0  0  0  0
   10.4049    5.6529   22.9057 H   0  0  0  0  0  0  0  0  0  0  0  0
    9.3677    6.4930   24.1100 H   0  0  0  0  0  0  0  0  0  0  0  0
    4.7732   -1.4006   19.2138 H   0  0  0  0  0  0  0  0  0  0  0  0
   13.4264    1.6314   23.7361 H   0  0  0  0  0  0  0  0  0  0  0  0
  1  3  2  0  0  0  0
  1  7  1  0  0  0  0
  2  4  2  0  0  0  0
  2  7  1  0  0  0  0
  3  9  1  0  0  0  0
  4 10  1  0  0  0  0
  5  8  1  0  0  0  0
  5  9  2  0  0  0  0
  6  8  1  0  0  0  0
  6 10  2  0  0  0  0
  7  8  2  0  0  0  0
  9 17  1  0  0  0  0
 10 25  1  0  0  0  0
 11 18  1  0  0  0  0
 11 19  1  0  0  0  0
 11 22  2  0  0  0  0
 12 14  1  0  0  0  0
 12 19  1  0  0  0  0
 13 15  1  0  0  0  0
 13 19  1  0  0  0  0
 14 21  1  0  0  0  0
 15 21  1  0  0  0  0
 16 20  1  0  0  0  0
 17 21  1  0  0  0  0
 18 26  1  0  0  0  0
 20 25  1  0  0  0  0
 23 25  2  0  0  0  0
 24 25  2  0  0  0  0
  1 27  1  0  0  0  0
  2 28  1  0  0  0  0
  3 29  1  0  0  0  0
  4 30  1  0  0  0  0
  5 31  1  0  0  0  0
  6 32  1  0  0  0  0
 12 33  1  0  0  0  0
 12 34  1  0  0  0  0
 13 35  1  0  0  0  0
 13 36  1  0  0  0  0
 14 37  1  0  0  0  0
 14 38  1  0  0  0  0
 15 39  1  0  0  0  0
 15 40  1  0  0  0  0
 16 41  1  0  0  0  0
 16 42  1  0  0  0  0
 16 43  1  0  0  0  0
 17 44  1  0  0  0  0
 17 45  1  0  0  0  0
 18 46  1  0  0  0  0
 18 47  1  0  0  0  0
 20 48  1  0  0  0  0
 21 49  1  0  0  0  0
M  CHG  1  21   1
M  END
> <Chemgauss4>
-6.404947

> <ref_pdb>
x0830_0

> <CYS145-warhead min dist (A)>
6.5239

> <CYS145-warhead avg dist (A)>
7.3301845

> <CYS145-warhead avg dist stderr (A)>
0.04688419

> <original SMILES>
CNS(=O)(=O)c1ccc2ccc(cc2c1)C[NH+]3CCN(CC3)C(=O)CCl

$$$$
BEN-VAN-ed8-10
  -OEChem-04232002263D

 50 51  0     0  0  0  0  0  0999 V2000
   14.3246   -1.1938   26.4265 C   0  0  0  0  0  0  0  0  0  0  0  0
   13.7630   -0.0044   25.9756 C   0  0  0  0  0  0  0  0  0  0  0  0
   10.4371   -4.3091   25.5284 C   0  0  0  0  0  0  0  0  0  0  0  0
    8.2552   -4.2777   24.4915 C   0  0  0  0  0  0  0  0  0  0  0  0
   10.2079   -3.6466   23.2164 C   0  0  0  0  0  0  0  0  0  0  0  0
    9.0589   -4.5089   25.6078 C   0  0  0  0  0  0  0  0  0  0  0  0
   11.0116   -3.8778   24.3327 C   0  0  0  0  0  0  0  0  0  0  0  0
    8.8297   -3.8465   23.2957 C   0  0  0  0  0  0  0  0  0  0  0  0
   13.9186   -2.4022   25.8714 C   0  0  0  0  0  0  0  0  0  0  0  0
   12.9554   -2.3675   24.8759 C   0  0  0  0  0  0  0  0  0  0  0  0
   12.8070   -0.0771   24.9754 C   0  0  0  0  0  0  0  0  0  0  0  0
    6.1479    0.6378   18.1242 C   0  0  0  0  0  0  0  0  0  0  0  0
    6.4178   -0.1085   19.1996 C   0  0  0  0  0  0  0  0  0  0  0  0
    5.9613   -1.5229   19.2680 C   0  0  0  0  0  0  0  0  0  0  0  0
    6.0493   -3.4523   20.8086 C   0  0  0  0  0  0  0  0  0  0  0  0
    8.4448   -4.9700   26.8863 C   0  0  0  0  0  0  0  0  0  0  0  0
   10.8414    2.6115   23.2342 C   0  0  0  0  0  0  0  0  0  0  0  0
   12.4851   -3.6641   24.2480 C   0  0  0  0  0  0  0  0  0  0  0  0
    6.6009   -3.7961   22.1752 C   0  0  0  0  0  0  0  0  0  0  0  0
   11.2495    1.2035   23.5057 C   0  0  0  0  0  0  0  0  0  0  0  0
   12.3871   -1.2320   24.4120 N   0  0  0  0  0  0  0  0  0  0  0  0
    8.0302   -3.6164   22.1853 N   0  0  0  0  0  0  0  0  0  0  0  0
   12.2420    1.1434   24.5286 N   0  0  0  0  0  0  0  0  0  0  0  0
    6.3388   -2.1293   20.4639 N   0  0  0  0  0  0  0  0  0  0  0  0
    5.3305   -2.0558   18.3609 O   0  0  0  0  0  0  0  0  0  0  0  0
    5.4292   -4.2488   20.1092 O   0  0  0  0  0  0  0  0  0  0  0  0
   14.4469   -3.5571   26.2946 F   0  0  0  0  0  0  0  0  0  0  0  0
   15.0769   -1.1790   27.2093 H   0  0  0  0  0  0  0  0  0  0  0  0
   14.0754    0.9434   26.4022 H   0  0  0  0  0  0  0  0  0  0  0  0
   11.0637   -4.4894   26.3988 H   0  0  0  0  0  0  0  0  0  0  0  0
    7.1807   -4.4341   24.5552 H   0  0  0  0  0  0  0  0  0  0  0  0
   10.6575   -3.3103   22.2848 H   0  0  0  0  0  0  0  0  0  0  0  0
    6.4841    1.6686   18.0813 H   0  0  0  0  0  0  0  0  0  0  0  0
    5.5973    0.2566   17.2715 H   0  0  0  0  0  0  0  0  0  0  0  0
    6.9723    0.3123   20.0312 H   0  0  0  0  0  0  0  0  0  0  0  0
    8.1626   -4.1102   27.5063 H   0  0  0  0  0  0  0  0  0  0  0  0
    7.5478   -5.5754   26.7020 H   0  0  0  0  0  0  0  0  0  0  0  0
    9.1399   -5.5983   27.4584 H   0  0  0  0  0  0  0  0  0  0  0  0
   11.7183    3.1924   22.9122 H   0  0  0  0  0  0  0  0  0  0  0  0
   10.0805    2.6259   22.4400 H   0  0  0  0  0  0  0  0  0  0  0  0
   10.4239    3.0552   24.1501 H   0  0  0  0  0  0  0  0  0  0  0  0
   13.0255   -4.5047   24.7178 H   0  0  0  0  0  0  0  0  0  0  0  0
   12.8207   -3.6933   23.1963 H   0  0  0  0  0  0  0  0  0  0  0  0
    6.3567   -4.8363   22.4125 H   0  0  0  0  0  0  0  0  0  0  0  0
    6.1408   -3.1449   22.9253 H   0  0  0  0  0  0  0  0  0  0  0  0
   10.3677    0.6297   23.8268 H   0  0  0  0  0  0  0  0  0  0  0  0
   11.6572    0.7637   22.5835 H   0  0  0  0  0  0  0  0  0  0  0  0
    8.4814   -3.3044   21.3308 H   0  0  0  0  0  0  0  0  0  0  0  0
   12.5746    1.9777   24.9671 H   0  0  0  0  0  0  0  0  0  0  0  0
    6.8621   -1.5697   21.1334 H   0  0  0  0  0  0  0  0  0  0  0  0
  1  2  2  0  0  0  0
  1  9  1  0  0  0  0
  2 11  1  0  0  0  0
  3  6  1  0  0  0  0
  3  7  2  0  0  0  0
  4  6  2  0  0  0  0
  4  8  1  0  0  0  0
  5  7  1  0  0  0  0
  5  8  2  0  0  0  0
  6 16  1  0  0  0  0
  7 18  1  0  0  0  0
  8 22  1  0  0  0  0
  9 10  2  0  0  0  0
  9 27  1  0  0  0  0
 10 18  1  0  0  0  0
 10 21  1  0  0  0  0
 11 21  2  0  0  0  0
 11 23  1  0  0  0  0
 12 13  2  0  0  0  0
 13 14  1  0  0  0  0
 14 24  1  0  0  0  0
 14 25  2  0  0  0  0
 15 19  1  0  0  0  0
 15 24  1  0  0  0  0
 15 26  2  0  0  0  0
 17 20  1  0  0  0  0
 19 22  1  0  0  0  0
 20 23  1  0  0  0  0
  1 28  1  0  0  0  0
  2 29  1  0  0  0  0
  3 30  1  0  0  0  0
  4 31  1  0  0  0  0
  5 32  1  0  0  0  0
 12 33  1  0  0  0  0
 12 34  1  0  0  0  0
 13 35  1  0  0  0  0
 16 36  1  0  0  0  0
 16 37  1  0  0  0  0
 16 38  1  0  0  0  0
 17 39  1  0  0  0  0
 17 40  1  0  0  0  0
 17 41  1  0  0  0  0
 18 42  1  0  0  0  0
 18 43  1  0  0  0  0
 19 44  1  0  0  0  0
 19 45  1  0  0  0  0
 20 46  1  0  0  0  0
 20 47  1  0  0  0  0
 22 48  1  0  0  0  0
 23 49  1  0  0  0  0
 24 50  1  0  0  0  0
M  END
> <Chemgauss4>
-6.401421

> <ref_pdb>
x0749_0

> <CYS145-warhead min dist (A)>
7.053961

> <CYS145-warhead avg dist (A)>
8.441575

> <CYS145-warhead avg dist stderr (A)>
0.12369535

> <original SMILES>
CCNc1ccc(c(n1)Cc2cc(cc(c2)NCC(=O)NC(=O)C=C)C)F

$$$$
GIA-UNK-20b-5
  -OEChem-04232002263D

 54 56  0     1  0  0  0  0  0999 V2000
    6.3619   -6.3382   23.3190 C   0  0  0  0  0  0  0  0  0  0  0  0
    6.5472   -5.2183   24.1296 C   0  0  0  0  0  0  0  0  0  0  0  0
    7.1232   -6.4945   22.1607 C   0  0  0  0  0  0  0  0  0  0  0  0
    7.4938   -4.2546   23.7818 C   0  0  0  0  0  0  0  0  0  0  0  0
    8.0697   -5.5308   21.8129 C   0  0  0  0  0  0  0  0  0  0  0  0
    8.2551   -4.4108   22.6234 C   0  0  0  0  0  0  0  0  0  0  0  0
   13.2952   -1.7429   25.7009 C   0  0  0  0  0  0  0  0  0  0  0  0
    7.5829   -1.5126   22.0931 C   0  0  0  0  0  0  0  0  0  0  0  0
    8.1821   -2.8439   20.0403 C   0  0  0  0  0  0  0  0  0  0  0  0
   11.4156   -0.9520   24.2999 C   0  0  0  0  0  0  0  0  0  0  0  0
   11.1032   -3.0277   25.5910 C   0  0  0  0  0  0  0  0  0  0  0  0
    6.9470   -0.4482   21.2093 C   0  0  0  0  0  0  0  0  0  0  0  0
    7.5434   -1.7726   19.1670 C   0  0  0  0  0  0  0  0  0  0  0  0
   10.8860   -1.6289   23.0442 C   0  0  0  0  0  0  0  0  0  0  0  0
   10.5667   -3.7359   24.3543 C   0  0  0  0  0  0  0  0  0  0  0  0
    8.7008   -2.2650   21.3618 C   0  0  0  0  0  0  0  0  0  0  0  0
    5.6952   -0.1018   19.0816 C   0  0  0  0  0  0  0  0  0  0  0  0
   14.0835   -2.9883   26.0190 C   0  0  0  0  0  0  0  0  0  0  0  0
    9.2806   -3.3669   22.2459 C   0  0  1  0  0  0  0  0  0  0  0  0
   12.0011   -1.9298   25.2172 N   0  0  0  0  0  0  0  0  0  0  0  0
    6.4419   -1.0868   19.9383 N   0  3  0  0  0  0  0  0  0  0  0  0
    9.9163   -2.7187   23.4435 N   0  3  0  0  0  0  0  0  0  0  0  0
   13.8165   -0.6384   25.8752 O   0  0  0  0  0  0  0  0  0  0  0  0
   14.1756   -3.9205   24.5289 Cl  0  0  0  0  0  0  0  0  0  0  0  0
    5.6258   -7.0892   23.5907 H   0  0  0  0  0  0  0  0  0  0  0  0
    5.9553   -5.0970   25.0321 H   0  0  0  0  0  0  0  0  0  0  0  0
    6.9799   -7.3668   21.5300 H   0  0  0  0  0  0  0  0  0  0  0  0
    7.6312   -3.3851   24.4193 H   0  0  0  0  0  0  0  0  0  0  0  0
    8.6582   -5.6608   20.9085 H   0  0  0  0  0  0  0  0  0  0  0  0
    7.9849   -1.0360   22.9950 H   0  0  0  0  0  0  0  0  0  0  0  0
    6.8105   -2.2175   22.4274 H   0  0  0  0  0  0  0  0  0  0  0  0
    7.4501   -3.6378   20.2378 H   0  0  0  0  0  0  0  0  0  0  0  0
    9.0086   -3.3087   19.4895 H   0  0  0  0  0  0  0  0  0  0  0  0
   12.1515   -0.1909   24.0221 H   0  0  0  0  0  0  0  0  0  0  0  0
   10.6067   -0.4408   24.8360 H   0  0  0  0  0  0  0  0  0  0  0  0
   10.2817   -2.5922   26.1727 H   0  0  0  0  0  0  0  0  0  0  0  0
   11.5979   -3.7575   26.2341 H   0  0  0  0  0  0  0  0  0  0  0  0
    6.0882    0.0075   21.7130 H   0  0  0  0  0  0  0  0  0  0  0  0
    7.6640    0.3315   20.9290 H   0  0  0  0  0  0  0  0  0  0  0  0
    8.2668   -1.0066   18.8659 H   0  0  0  0  0  0  0  0  0  0  0  0
    7.0921   -2.2208   18.2758 H   0  0  0  0  0  0  0  0  0  0  0  0
   10.3364   -0.9147   22.4225 H   0  0  0  0  0  0  0  0  0  0  0  0
   11.6877   -2.0901   22.4565 H   0  0  0  0  0  0  0  0  0  0  0  0
   11.3624   -4.2339   23.7890 H   0  0  0  0  0  0  0  0  0  0  0  0
    9.7981   -4.4650   24.6302 H   0  0  0  0  0  0  0  0  0  0  0  0
    9.5066   -1.5539   21.1360 H   0  0  0  0  0  0  0  0  0  0  0  0
    6.3969    0.6783   18.7807 H   0  0  0  0  0  0  0  0  0  0  0  0
    5.3095   -0.6392   18.2132 H   0  0  0  0  0  0  0  0  0  0  0  0
    4.8815    0.3121   19.6802 H   0  0  0  0  0  0  0  0  0  0  0  0
   13.5565   -3.5532   26.7794 H   0  0  0  0  0  0  0  0  0  0  0  0
   15.0781   -2.7019   26.3411 H   0  0  0  0  0  0  0  0  0  0  0  0
   10.1138   -3.8403   21.7132 H   0  0  0  0  0  0  0  0  0  0  0  0
    5.7615   -1.8103   20.2087 H   0  0  0  0  0  0  0  0  0  0  0  0
    9.1546   -2.2740   23.9743 H   0  0  0  0  0  0  0  0  0  0  0  0
  1  2  1  0  0  0  0
  1  3  2  0  0  0  0
  2  4  2  0  0  0  0
  3  5  1  0  0  0  0
  4  6  1  0  0  0  0
  5  6  2  0  0  0  0
  6 19  1  0  0  0  0
  7 18  1  0  0  0  0
  7 20  1  0  0  0  0
  7 23  2  0  0  0  0
  8 12  1  0  0  0  0
  8 16  1  0  0  0  0
  9 13  1  0  0  0  0
  9 16  1  0  0  0  0
 10 14  1  0  0  0  0
 10 20  1  0  0  0  0
 11 15  1  0  0  0  0
 11 20  1  0  0  0  0
 12 21  1  0  0  0  0
 13 21  1  0  0  0  0
 14 22  1  0  0  0  0
 15 22  1  0  0  0  0
 16 19  1  0  0  0  0
 17 21  1  0  0  0  0
 18 24  1  0  0  0  0
 19 22  1  0  0  0  0
  1 25  1  0  0  0  0
  2 26  1  0  0  0  0
  3 27  1  0  0  0  0
  4 28  1  0  0  0  0
  5 29  1  0  0  0  0
  8 30  1  0  0  0  0
  8 31  1  0  0  0  0
  9 32  1  0  0  0  0
  9 33  1  0  0  0  0
 10 34  1  0  0  0  0
 10 35  1  0  0  0  0
 11 36  1  0  0  0  0
 11 37  1  0  0  0  0
 12 38  1  0  0  0  0
 12 39  1  0  0  0  0
 13 40  1  0  0  0  0
 13 41  1  0  0  0  0
 14 42  1  0  0  0  0
 14 43  1  0  0  0  0
 15 44  1  0  0  0  0
 15 45  1  0  0  0  0
 16 46  1  0  0  0  0
 17 47  1  0  0  0  0
 17 48  1  0  0  0  0
 17 49  1  0  0  0  0
 18 50  1  0  0  0  0
 18 51  1  0  0  0  0
 19 52  1  0  0  0  0
 21 53  1  0  0  0  0
 22 54  1  0  0  0  0
M  CHG  2  21   1  22   1
M  END
> <Chemgauss4>
-6.351235

> <ref_pdb>
x0749_0

> <CYS145-warhead min dist (A)>
6.210491

> <CYS145-warhead avg dist (A)>
7.035091

> <CYS145-warhead avg dist stderr (A)>
0.03008462

> <original SMILES>
C[NH+]1CCC(CC1)[C@H](c2ccccc2)[NH+]3CCN(CC3)C(=O)CCl

$$$$
WAR-XCH-72a-10
  -OEChem-04232002263D

 57 59  0     1  0  0  0  0  0999 V2000
   10.6426    0.1972   25.6750 C   0  0  0  0  0  0  0  0  0  0  0  0
   12.6022   -0.0558   22.5278 C   0  0  0  0  0  0  0  0  0  0  0  0
   12.2073   -1.3073   22.0552 C   0  0  0  0  0  0  0  0  0  0  0  0
   12.0804    0.4341   23.7250 C   0  0  0  0  0  0  0  0  0  0  0  0
   11.2905   -2.0689   22.7798 C   0  0  0  0  0  0  0  0  0  0  0  0
   11.1636   -0.3275   24.4496 C   0  0  0  0  0  0  0  0  0  0  0  0
   10.7686   -1.5791   23.9770 C   0  0  0  0  0  0  0  0  0  0  0  0
    5.5273    0.2984   18.9730 C   0  0  0  0  0  0  0  0  0  0  0  0
    6.2377   -0.7702   18.6059 C   0  0  0  0  0  0  0  0  0  0  0  0
    6.0825   -2.0257   19.3674 C   0  0  0  0  0  0  0  0  0  0  0  0
    9.5971   -5.4955   24.7454 C   0  0  0  0  0  0  0  0  0  0  0  0
    7.8614   -4.0524   25.8937 C   0  0  0  0  0  0  0  0  0  0  0  0
    9.1524   -6.6966   25.5828 C   0  0  0  0  0  0  0  0  0  0  0  0
    7.4145   -5.2540   26.7287 C   0  0  0  0  0  0  0  0  0  0  0  0
    6.8545   -3.5594   22.5973 C   0  0  0  0  0  0  0  0  0  0  0  0
    8.4844   -1.7316   22.0155 C   0  0  0  0  0  0  0  0  0  0  0  0
    5.7840   -2.8470   21.7687 C   0  0  0  0  0  0  0  0  0  0  0  0
    7.3841   -1.0409   21.2146 C   0  0  0  0  0  0  0  0  0  0  0  0
    8.4513   -4.5037   24.5598 C   0  0  0  0  0  0  0  0  0  0  0  0
    7.8770   -2.5648   23.1415 C   0  0  0  0  0  0  0  0  0  0  0  0
    8.5395   -6.2737   26.9186 C   0  0  0  0  0  0  0  0  0  0  0  0
    9.7849   -2.4262   24.7291 C   0  0  0  0  0  0  0  0  0  0  0  0
   10.2202    0.6226   26.6687 N   0  0  0  0  0  0  0  0  0  0  0  0
    6.3921   -2.0047   20.7256 N   0  0  0  0  0  0  0  0  0  0  0  0
    8.9607   -3.3114   23.8313 N   0  3  1  0  0  0  0  0  0  0  0  0
    5.6917   -3.0194   18.7523 O   0  0  0  0  0  0  0  0  0  0  0  0
    9.5659   -5.7129   27.7348 O   0  0  0  0  0  0  0  0  0  0  0  0
   13.3161    0.5371   21.9634 H   0  0  0  0  0  0  0  0  0  0  0  0
   12.6137   -1.6886   21.1230 H   0  0  0  0  0  0  0  0  0  0  0  0
   12.3989    1.4117   24.0793 H   0  0  0  0  0  0  0  0  0  0  0  0
   10.9895   -3.0428   22.4026 H   0  0  0  0  0  0  0  0  0  0  0  0
    5.5982    1.2479   18.4531 H   0  0  0  0  0  0  0  0  0  0  0  0
    4.8493    0.2372   19.8177 H   0  0  0  0  0  0  0  0  0  0  0  0
    6.9236   -0.7484   17.7692 H   0  0  0  0  0  0  0  0  0  0  0  0
   10.4550   -5.0160   25.2109 H   0  0  0  0  0  0  0  0  0  0  0  0
    9.9138   -5.8520   23.7661 H   0  0  0  0  0  0  0  0  0  0  0  0
    6.9949   -3.4225   25.6984 H   0  0  0  0  0  0  0  0  0  0  0  0
    8.5779   -3.4574   26.4544 H   0  0  0  0  0  0  0  0  0  0  0  0
    8.4239   -7.2939   25.0174 H   0  0  0  0  0  0  0  0  0  0  0  0
   10.0004   -7.3731   25.7596 H   0  0  0  0  0  0  0  0  0  0  0  0
    7.0442   -4.9222   27.7085 H   0  0  0  0  0  0  0  0  0  0  0  0
    6.5550   -5.7396   26.2472 H   0  0  0  0  0  0  0  0  0  0  0  0
    6.3720   -4.0613   23.4352 H   0  0  0  0  0  0  0  0  0  0  0  0
    7.3422   -4.3234   21.9965 H   0  0  0  0  0  0  0  0  0  0  0  0
    9.0898   -2.3519   21.3600 H   0  0  0  0  0  0  0  0  0  0  0  0
    9.1364   -0.9738   22.4467 H   0  0  0  0  0  0  0  0  0  0  0  0
    5.1299   -3.5669   21.2651 H   0  0  0  0  0  0  0  0  0  0  0  0
    5.1637   -2.2643   22.4503 H   0  0  0  0  0  0  0  0  0  0  0  0
    6.9086   -0.2749   21.8349 H   0  0  0  0  0  0  0  0  0  0  0  0
    7.7973   -0.5282   20.3391 H   0  0  0  0  0  0  0  0  0  0  0  0
    7.6733   -4.9362   23.9271 H   0  0  0  0  0  0  0  0  0  0  0  0
    7.4267   -1.9216   23.8979 H   0  0  0  0  0  0  0  0  0  0  0  0
    8.1517   -7.1605   27.4347 H   0  0  0  0  0  0  0  0  0  0  0  0
   10.2931   -3.0858   25.4407 H   0  0  0  0  0  0  0  0  0  0  0  0
    9.0796   -1.8066   25.2935 H   0  0  0  0  0  0  0  0  0  0  0  0
    9.6023   -3.6668   23.1049 H   0  0  0  0  0  0  0  0  0  0  0  0
   10.2327   -6.4067   27.8580 H   0  0  0  0  0  0  0  0  0  0  0  0
  1  6  1  0  0  0  0
  1 23  3  0  0  0  0
  2  3  1  0  0  0  0
  2  4  2  0  0  0  0
  3  5  2  0  0  0  0
  4  6  1  0  0  0  0
  5  7  1  0  0  0  0
  6  7  2  0  0  0  0
  7 22  1  0  0  0  0
  8  9  2  0  0  0  0
  9 10  1  0  0  0  0
 10 24  1  0  0  0  0
 10 26  2  0  0  0  0
 11 13  1  0  0  0  0
 11 19  1  0  0  0  0
 12 14  1  0  0  0  0
 12 19  1  0  0  0  0
 13 21  1  0  0  0  0
 14 21  1  0  0  0  0
 15 17  1  0  0  0  0
 15 20  1  0  0  0  0
 16 18  1  0  0  0  0
 16 20  1  0  0  0  0
 17 24  1  0  0  0  0
 18 24  1  0  0  0  0
 19 25  1  0  0  0  0
 20 25  1  0  0  0  0
 21 27  1  0  0  0  0
 22 25  1  0  0  0  0
  2 28  1  0  0  0  0
  3 29  1  0  0  0  0
  4 30  1  0  0  0  0
  5 31  1  0  0  0  0
  8 32  1  0  0  0  0
  8 33  1  0  0  0  0
  9 34  1  0  0  0  0
 11 35  1  0  0  0  0
 11 36  1  0  0  0  0
 12 37  1  0  0  0  0
 12 38  1  0  0  0  0
 13 39  1  0  0  0  0
 13 40  1  0  0  0  0
 14 41  1  0  0  0  0
 14 42  1  0  0  0  0
 15 43  1  0  0  0  0
 15 44  1  0  0  0  0
 16 45  1  0  0  0  0
 16 46  1  0  0  0  0
 17 47  1  0  0  0  0
 17 48  1  0  0  0  0
 18 49  1  0  0  0  0
 18 50  1  0  0  0  0
 19 51  1  0  0  0  0
 20 52  1  0  0  0  0
 21 53  1  0  0  0  0
 22 54  1  0  0  0  0
 22 55  1  0  0  0  0
 25 56  1  0  0  0  0
 27 57  1  0  0  0  0
M  CHG  1  25   1
M  END
> <Chemgauss4>
-6.337164

> <ref_pdb>
x0770_0

> <CYS145-warhead min dist (A)>
5.631709

> <CYS145-warhead avg dist (A)>
6.948978

> <CYS145-warhead avg dist stderr (A)>
0.03807918

> <original SMILES>
C=CC(=O)N1CCC(CC1)[N@@H+](Cc2ccccc2C#N)C3CCC(CC3)O

$$$$
VIT-UNK-cff-1
  -OEChem-04232002263D

 50 52  0     1  0  0  0  0  0999 V2000
   13.7725   -0.9302   23.8691 C   0  0  0  0  0  0  0  0  0  0  0  0
   12.3849   -1.0111   23.7526 C   0  0  0  0  0  0  0  0  0  0  0  0
   14.4028   -1.3840   25.0278 C   0  0  0  0  0  0  0  0  0  0  0  0
   12.2578   -1.9994   25.9536 C   0  0  0  0  0  0  0  0  0  0  0  0
   11.6275   -1.5456   24.7949 C   0  0  0  0  0  0  0  0  0  0  0  0
   13.6454   -1.9185   26.0700 C   0  0  0  0  0  0  0  0  0  0  0  0
    6.2040   -1.6709   19.0650 C   0  0  0  0  0  0  0  0  0  0  0  0
    7.6137   -0.4873   20.3947 C   0  0  0  0  0  0  0  0  0  0  0  0
    7.1327   -5.6985   22.4007 C   0  0  0  0  0  0  0  0  0  0  0  0
    9.4374   -4.8893   22.7939 C   0  0  0  0  0  0  0  0  0  0  0  0
    7.8034   -4.6633   24.6248 C   0  0  0  0  0  0  0  0  0  0  0  0
    9.8615   -3.4380   22.9656 C   0  0  0  0  0  0  0  0  0  0  0  0
    8.2045   -3.2082   24.8255 C   0  0  0  0  0  0  0  0  0  0  0  0
    5.7995   -2.0001   20.4944 C   0  0  1  0  0  0  0  0  0  0  0  0
   10.1350   -1.6322   24.6684 C   0  0  0  0  0  0  0  0  0  0  0  0
    5.9365   -3.4850   20.7937 C   0  0  0  0  0  0  0  0  0  0  0  0
    5.4943   -3.8108   22.2237 C   0  0  0  0  0  0  0  0  0  0  0  0
    5.6937   -5.2797   22.5665 C   0  0  1  0  0  0  0  0  0  0  0  0
    7.2590   -0.7922   19.1002 N   0  0  0  0  0  0  0  0  0  0  0  0
    6.7530   -1.2033   21.2278 N   0  0  0  0  0  0  0  0  0  0  0  0
    8.0608   -5.0918   23.2458 N   0  0  0  0  0  0  0  0  0  0  0  0
    9.6463   -3.0288   24.4056 N   0  3  0  0  0  0  0  0  0  0  0  0
    5.6669   -2.1289   18.0661 O   0  0  0  0  0  0  0  0  0  0  0  0
    8.5069    0.2685   20.7516 O   0  0  0  0  0  0  0  0  0  0  0  0
    7.4215   -6.5377   21.5438 O   0  0  0  0  0  0  0  0  0  0  0  0
   14.2504   -2.3539   27.1829 F   0  0  0  0  0  0  0  0  0  0  0  0
    4.7733   -6.3145   21.4511 Cl  0  0  0  0  0  0  0  0  0  0  0  0
   14.3624   -0.5144   23.0574 H   0  0  0  0  0  0  0  0  0  0  0  0
   11.9024   -0.6548   22.8461 H   0  0  0  0  0  0  0  0  0  0  0  0
   15.4829   -1.3205   25.1184 H   0  0  0  0  0  0  0  0  0  0  0  0
   11.6763   -2.4180   26.7706 H   0  0  0  0  0  0  0  0  0  0  0  0
    9.5485   -5.1808   21.7448 H   0  0  0  0  0  0  0  0  0  0  0  0
   10.0791   -5.5538   23.3851 H   0  0  0  0  0  0  0  0  0  0  0  0
    8.3870   -5.3184   25.2830 H   0  0  0  0  0  0  0  0  0  0  0  0
    6.7547   -4.7861   24.9004 H   0  0  0  0  0  0  0  0  0  0  0  0
   10.9278   -3.3185   22.7482 H   0  0  0  0  0  0  0  0  0  0  0  0
    9.2770   -2.7612   22.3322 H   0  0  0  0  0  0  0  0  0  0  0  0
    7.5916   -2.5269   24.2247 H   0  0  0  0  0  0  0  0  0  0  0  0
    8.1359   -2.9313   25.8825 H   0  0  0  0  0  0  0  0  0  0  0  0
    4.7945   -1.6211   20.6997 H   0  0  0  0  0  0  0  0  0  0  0  0
    9.6397   -1.2927   25.5844 H   0  0  0  0  0  0  0  0  0  0  0  0
    9.7714   -1.0111   23.8426 H   0  0  0  0  0  0  0  0  0  0  0  0
    6.9812   -3.7846   20.6505 H   0  0  0  0  0  0  0  0  0  0  0  0
    5.3347   -4.0494   20.0722 H   0  0  0  0  0  0  0  0  0  0  0  0
    4.4424   -3.5227   22.3495 H   0  0  0  0  0  0  0  0  0  0  0  0
    6.0800   -3.1980   22.9209 H   0  0  0  0  0  0  0  0  0  0  0  0
    5.3804   -5.5147   23.5830 H   0  0  0  0  0  0  0  0  0  0  0  0
    7.7176   -0.4164   18.2782 H   0  0  0  0  0  0  0  0  0  0  0  0
    6.7935   -1.1675   22.2416 H   0  0  0  0  0  0  0  0  0  0  0  0
   10.2168   -3.6537   24.9919 H   0  0  0  0  0  0  0  0  0  0  0  0
  1  2  2  0  0  0  0
  1  3  1  0  0  0  0
  2  5  1  0  0  0  0
  3  6  2  0  0  0  0
  4  5  2  0  0  0  0
  4  6  1  0  0  0  0
  5 15  1  0  0  0  0
  6 26  1  0  0  0  0
  7 14  1  0  0  0  0
  7 19  1  0  0  0  0
  7 23  2  0  0  0  0
  8 19  1  0  0  0  0
  8 20  1  0  0  0  0
  8 24  2  0  0  0  0
  9 18  1  0  0  0  0
  9 21  1  0  0  0  0
  9 25  2  0  0  0  0
 10 12  1  0  0  0  0
 10 21  1  0  0  0  0
 11 13  1  0  0  0  0
 11 21  1  0  0  0  0
 12 22  1  0  0  0  0
 13 22  1  0  0  0  0
 14 16  1  0  0  0  0
 14 20  1  0  0  0  0
 15 22  1  0  0  0  0
 16 17  1  0  0  0  0
 17 18  1  0  0  0  0
 18 27  1  0  0  0  0
  1 28  1  0  0  0  0
  2 29  1  0  0  0  0
  3 30  1  0  0  0  0
  4 31  1  0  0  0  0
 10 32  1  0  0  0  0
 10 33  1  0  0  0  0
 11 34  1  0  0  0  0
 11 35  1  0  0  0  0
 12 36  1  0  0  0  0
 12 37  1  0  0  0  0
 13 38  1  0  0  0  0
 13 39  1  0  0  0  0
 14 40  1  0  0  0  0
 15 41  1  0  0  0  0
 15 42  1  0  0  0  0
 16 43  1  0  0  0  0
 16 44  1  0  0  0  0
 17 45  1  0  0  0  0
 17 46  1  0  0  0  0
 18 47  1  0  0  0  0
 19 48  1  0  0  0  0
 20 49  1  0  0  0  0
 22 50  1  0  0  0  0
M  CHG  1  22   1
M  END
> <Chemgauss4>
-6.327873

> <ref_pdb>
x0749_0

> <original SMILES>
c1cc(cc(c1)F)C[NH+]2CCN(CC2)C(=O)[C@@H](CC[C@@H]3C(=O)NC(=O)N3)Cl

$$$$
TAM-UNI-d1c-5
  -OEChem-04232002263D

 50 52  0     1  0  0  0  0  0999 V2000
    9.9653   -4.9429   24.7892 C   0  0  0  0  0  0  0  0  0  0  0  0
    9.9965   -3.9337   23.8273 C   0  0  0  0  0  0  0  0  0  0  0  0
    8.7944   -2.4698   25.3236 C   0  0  0  0  0  0  0  0  0  0  0  0
    9.3561   -4.7215   26.0321 C   0  0  0  0  0  0  0  0  0  0  0  0
    8.7492   -3.4795   26.2947 C   0  0  0  0  0  0  0  0  0  0  0  0
    9.4139   -2.6975   24.0951 C   0  0  0  0  0  0  0  0  0  0  0  0
    5.7794   -1.4031   18.9222 C   0  0  0  0  0  0  0  0  0  0  0  0
    9.3051   -5.8374   27.0459 C   0  0  0  0  0  0  0  0  0  0  0  0
    8.0955   -3.2013   27.6251 C   0  0  0  0  0  0  0  0  0  0  0  0
    9.0255   -5.3314   28.4577 C   0  0  0  0  0  0  0  0  0  0  0  0
    6.2572   -2.4146   21.1290 C   0  0  0  0  0  0  0  0  0  0  0  0
    6.8000   -0.0326   20.8058 C   0  0  0  0  0  0  0  0  0  0  0  0
    7.6364   -2.6701   21.7189 C   0  0  0  0  0  0  0  0  0  0  0  0
    8.1877   -0.2520   21.3931 C   0  0  0  0  0  0  0  0  0  0  0  0
    5.4896   -4.2449   29.6488 C   0  0  0  0  0  0  0  0  0  0  0  0
    9.4544   -1.6097   23.0626 C   0  0  0  0  0  0  0  0  0  0  0  0
    5.8423   -0.1777   18.0458 C   0  0  0  0  0  0  0  0  0  0  0  0
    6.2791   -1.2709   20.2170 N   0  0  0  0  0  0  0  0  0  0  0  0
    7.8504   -4.4191   28.4523 N   0  0  2  0  0  0  0  0  0  0  0  0
    8.1348   -1.4015   22.3744 N   0  3  0  0  0  0  0  0  0  0  0  0
    5.3025   -2.4459   18.4672 O   0  0  0  0  0  0  0  0  0  0  0  0
    6.4027   -6.5208   28.7468 O   0  0  0  0  0  0  0  0  0  0  0  0
    5.6954   -4.7463   27.0926 O   0  0  0  0  0  0  0  0  0  0  0  0
    6.3029   -5.1343   28.3467 S   0  0  0  0  0  0  0  0  0  0  0  0
    7.4058   -0.2155   17.2385 Cl  0  0  0  0  0  0  0  0  0  0  0  0
   10.4185   -5.9053   24.5643 H   0  0  0  0  0  0  0  0  0  0  0  0
   10.4786   -4.1212   22.8714 H   0  0  0  0  0  0  0  0  0  0  0  0
    8.3441   -1.5012   25.5305 H   0  0  0  0  0  0  0  0  0  0  0  0
    8.5281   -6.5608   26.7690 H   0  0  0  0  0  0  0  0  0  0  0  0
   10.2709   -6.3594   27.0240 H   0  0  0  0  0  0  0  0  0  0  0  0
    8.7455   -2.5307   28.2025 H   0  0  0  0  0  0  0  0  0  0  0  0
    7.1376   -2.6957   27.4435 H   0  0  0  0  0  0  0  0  0  0  0  0
    8.8344   -6.1713   29.1471 H   0  0  0  0  0  0  0  0  0  0  0  0
    9.9141   -4.7962   28.8285 H   0  0  0  0  0  0  0  0  0  0  0  0
    5.9073   -3.3150   20.6143 H   0  0  0  0  0  0  0  0  0  0  0  0
    5.5317   -2.1907   21.9206 H   0  0  0  0  0  0  0  0  0  0  0  0
    6.0954    0.2775   21.5870 H   0  0  0  0  0  0  0  0  0  0  0  0
    6.8448    0.7779   20.0764 H   0  0  0  0  0  0  0  0  0  0  0  0
    7.5883   -3.4411   22.4947 H   0  0  0  0  0  0  0  0  0  0  0  0
    8.3637   -2.9616   20.9528 H   0  0  0  0  0  0  0  0  0  0  0  0
    8.9250   -0.5014   20.6217 H   0  0  0  0  0  0  0  0  0  0  0  0
    8.5172    0.6337   21.9459 H   0  0  0  0  0  0  0  0  0  0  0  0
    4.4584   -4.5956   29.7135 H   0  0  0  0  0  0  0  0  0  0  0  0
    6.0192   -4.4404   30.5824 H   0  0  0  0  0  0  0  0  0  0  0  0
    5.5174   -3.1810   29.4086 H   0  0  0  0  0  0  0  0  0  0  0  0
    9.7307   -0.6490   23.5103 H   0  0  0  0  0  0  0  0  0  0  0  0
   10.1858   -1.8352   22.2790 H   0  0  0  0  0  0  0  0  0  0  0  0
    5.7671    0.7053   18.6702 H   0  0  0  0  0  0  0  0  0  0  0  0
    5.0441   -0.2276   17.3141 H   0  0  0  0  0  0  0  0  0  0  0  0
    7.4588   -1.1479   23.1081 H   0  0  0  0  0  0  0  0  0  0  0  0
  1  2  2  0  0  0  0
  1  4  1  0  0  0  0
  2  6  1  0  0  0  0
  3  5  1  0  0  0  0
  3  6  2  0  0  0  0
  4  5  2  0  0  0  0
  4  8  1  0  0  0  0
  5  9  1  0  0  0  0
  6 16  1  0  0  0  0
  7 17  1  0  0  0  0
  7 18  1  0  0  0  0
  7 21  2  0  0  0  0
  8 10  1  0  0  0  0
  9 19  1  0  0  0  0
 10 19  1  0  0  0  0
 11 13  1  0  0  0  0
 11 18  1  0  0  0  0
 12 14  1  0  0  0  0
 12 18  1  0  0  0  0
 13 20  1  0  0  0  0
 14 20  1  0  0  0  0
 15 24  1  0  0  0  0
 16 20  1  0  0  0  0
 17 25  1  0  0  0  0
 19 24  1  0  0  0  0
 22 24  2  0  0  0  0
 23 24  2  0  0  0  0
  1 26  1  0  0  0  0
  2 27  1  0  0  0  0
  3 28  1  0  0  0  0
  8 29  1  0  0  0  0
  8 30  1  0  0  0  0
  9 31  1  0  0  0  0
  9 32  1  0  0  0  0
 10 33  1  0  0  0  0
 10 34  1  0  0  0  0
 11 35  1  0  0  0  0
 11 36  1  0  0  0  0
 12 37  1  0  0  0  0
 12 38  1  0  0  0  0
 13 39  1  0  0  0  0
 13 40  1  0  0  0  0
 14 41  1  0  0  0  0
 14 42  1  0  0  0  0
 15 43  1  0  0  0  0
 15 44  1  0  0  0  0
 15 45  1  0  0  0  0
 16 46  1  0  0  0  0
 16 47  1  0  0  0  0
 17 48  1  0  0  0  0
 17 49  1  0  0  0  0
 20 50  1  0  0  0  0
M  CHG  1  20   1
M  END
> <Chemgauss4>
-6.300625

> <ref_pdb>
x1334_0

> <CYS145-warhead min dist (A)>
5.7495255

> <CYS145-warhead avg dist (A)>
6.58562

> <CYS145-warhead avg dist stderr (A)>
0.026992068

> <original SMILES>
CS(=O)(=O)[N@]1CCc2ccc(cc2C1)C[NH+]3CCN(CC3)C(=O)CCl

$$$$
NIR-THE-99f-4_Ph_thio_pH
  -OEChem-04232002263D

 45 47  0     1  0  0  0  0  0999 V2000
   10.5958    4.0398   24.3536 C   0  0  0  0  0  0  0  0  0  0  0  0
   11.7638    3.3144   24.1185 C   0  0  0  0  0  0  0  0  0  0  0  0
    9.3589    3.5070   23.9904 C   0  0  0  0  0  0  0  0  0  0  0  0
   11.6948    2.0563   23.5200 C   0  0  0  0  0  0  0  0  0  0  0  0
    9.2900    2.2490   23.3919 C   0  0  0  0  0  0  0  0  0  0  0  0
    8.8390   -3.8867   24.2571 C   0  0  0  0  0  0  0  0  0  0  0  0
    7.8982   -4.7703   24.7611 C   0  0  0  0  0  0  0  0  0  0  0  0
   10.4579    1.5236   23.1567 C   0  0  0  0  0  0  0  0  0  0  0  0
    8.4457   -3.0310   23.2341 C   0  0  0  0  0  0  0  0  0  0  0  0
    7.1422   -3.0844   22.7532 C   0  0  0  0  0  0  0  0  0  0  0  0
    6.2775   -4.0040   23.3244 C   0  0  0  0  0  0  0  0  0  0  0  0
   12.4560   -1.0302   21.7853 C   0  0  0  0  0  0  0  0  0  0  0  0
    6.2441   -2.6254   20.4848 C   0  0  0  0  0  0  0  0  0  0  0  0
    9.0731   -0.5848   22.8233 C   0  0  0  0  0  0  0  0  0  0  0  0
   10.8350   -2.1203   23.3287 C   0  0  0  0  0  0  0  0  0  0  0  0
   10.3825    0.1589   22.5072 C   0  0  2  0  0  0  0  0  0  0  0  0
    9.4525   -2.0595   22.6687 C   0  0  1  0  0  0  0  0  0  0  0  0
   11.5160   -0.8047   22.9327 C   0  0  2  0  0  0  0  0  0  0  0  0
    5.8916   -1.4372   19.6203 C   0  0  0  0  0  0  0  0  0  0  0  0
    6.6230   -4.8513   24.3196 N   0  0  0  0  0  0  0  0  0  0  0  0
   11.8410   -1.4987   20.6484 N   0  0  0  0  0  0  0  0  0  0  0  0
    6.7289   -2.2323   21.7256 N   0  0  0  0  0  0  0  0  0  0  0  0
   13.6588   -0.7948   21.8708 O   0  0  0  0  0  0  0  0  0  0  0  0
    6.1058   -3.7664   20.0523 O   0  0  0  0  0  0  0  0  0  0  0  0
    4.6392   -4.1723   22.8216 Cl  0  0  0  0  0  0  0  0  0  0  0  0
    7.3334   -0.9995   18.6901 Cl  0  0  0  0  0  0  0  0  0  0  0  0
   10.6495    5.0188   24.8208 H   0  0  0  0  0  0  0  0  0  0  0  0
   12.7269    3.7285   24.4022 H   0  0  0  0  0  0  0  0  0  0  0  0
    8.4493    4.0710   24.1743 H   0  0  0  0  0  0  0  0  0  0  0  0
   12.6101    1.4984   23.3405 H   0  0  0  0  0  0  0  0  0  0  0  0
    8.3219    1.8419   23.1121 H   0  0  0  0  0  0  0  0  0  0  0  0
    9.8480   -3.8704   24.6546 H   0  0  0  0  0  0  0  0  0  0  0  0
    8.1546   -5.4587   25.5596 H   0  0  0  0  0  0  0  0  0  0  0  0
    8.7313   -0.3736   23.8461 H   0  0  0  0  0  0  0  0  0  0  0  0
    8.2636   -0.2938   22.1444 H   0  0  0  0  0  0  0  0  0  0  0  0
   10.7359   -2.1599   24.4217 H   0  0  0  0  0  0  0  0  0  0  0  0
   11.3907   -3.0125   23.0190 H   0  0  0  0  0  0  0  0  0  0  0  0
   10.4259    0.3366   21.4041 H   0  0  0  0  0  0  0  0  0  0  0  0
    9.5619   -2.2909   21.5782 H   0  0  0  0  0  0  0  0  0  0  0  0
   12.1148   -0.4204   23.7672 H   0  0  0  0  0  0  0  0  0  0  0  0
    5.5709   -0.5700   20.2029 H   0  0  0  0  0  0  0  0  0  0  0  0
    5.0907   -1.7146   18.9291 H   0  0  0  0  0  0  0  0  0  0  0  0
   10.8381   -1.6522   20.6653 H   0  0  0  0  0  0  0  0  0  0  0  0
   12.3498   -1.6973   19.7930 H   0  0  0  0  0  0  0  0  0  0  0  0
    6.7885   -1.2323   21.9025 H   0  0  0  0  0  0  0  0  0  0  0  0
  1  2  1  0  0  0  0
  1  3  2  0  0  0  0
  2  4  2  0  0  0  0
  3  5  1  0  0  0  0
  4  8  1  0  0  0  0
  5  8  2  0  0  0  0
  6  7  1  0  0  0  0
  6  9  2  0  0  0  0
  7 20  2  0  0  0  0
  8 16  1  0  0  0  0
  9 10  1  0  0  0  0
  9 17  1  0  0  0  0
 10 11  2  0  0  0  0
 10 22  1  0  0  0  0
 11 20  1  0  0  0  0
 11 25  1  0  0  0  0
 12 18  1  0  0  0  0
 12 21  1  0  0  0  0
 12 23  2  0  0  0  0
 13 19  1  0  0  0  0
 13 22  1  0  0  0  0
 13 24  2  0  0  0  0
 14 16  1  0  0  0  0
 14 17  1  0  0  0  0
 15 17  1  0  0  0  0
 15 18  1  0  0  0  0
 16 18  1  0  0  0  0
 19 26  1  0  0  0  0
  1 27  1  0  0  0  0
  2 28  1  0  0  0  0
  3 29  1  0  0  0  0
  4 30  1  0  0  0  0
  5 31  1  0  0  0  0
  6 32  1  0  0  0  0
  7 33  1  0  0  0  0
 14 34  1  0  0  0  0
 14 35  1  0  0  0  0
 15 36  1  0  0  0  0
 15 37  1  0  0  0  0
 16 38  1  0  0  0  0
 17 39  1  0  0  0  0
 18 40  1  0  0  0  0
 19 41  1  0  0  0  0
 19 42  1  0  0  0  0
 21 43  1  0  0  0  0
 21 44  1  0  0  0  0
 22 45  1  0  0  0  0
M  END
> <Chemgauss4>
-6.295231

> <ref_pdb>
x1392_0

> <CYS145-warhead min dist (A)>
2.944368

> <CYS145-warhead avg dist (A)>
3.568664

> <CYS145-warhead avg dist stderr (A)>
0.022532582

> <original SMILES>
c1ccc(cc1)[C@@H]2C[C@@H](C[C@H]2C(=O)N)c3ccnc(c3NC(=O)CCl)Cl

$$$$
JAN-GHE-641-7
  -OEChem-04232002263D

 54 56  0     0  0  0  0  0  0999 V2000
   13.2584    0.0548   22.8177 C   0  0  0  0  0  0  0  0  0  0  0  0
   12.8529    0.9938   23.7731 C   0  0  0  0  0  0  0  0  0  0  0  0
   12.5039   -1.0924   22.5802 C   0  0  0  0  0  0  0  0  0  0  0  0
    9.8502    0.7614   25.8445 C   0  0  0  0  0  0  0  0  0  0  0  0
   11.6662    0.7677   24.4985 C   0  0  0  0  0  0  0  0  0  0  0  0
   11.3235   -1.3380   23.2874 C   0  0  0  0  0  0  0  0  0  0  0  0
   10.9728    1.4847   25.5134 C   0  0  0  0  0  0  0  0  0  0  0  0
   10.9304   -0.3906   24.2394 C   0  0  0  0  0  0  0  0  0  0  0  0
    5.7287   -2.1636   17.3711 C   0  0  0  0  0  0  0  0  0  0  0  0
    5.9649   -1.6937   18.5978 C   0  0  0  0  0  0  0  0  0  0  0  0
    6.0444   -2.6462   19.7233 C   0  0  0  0  0  0  0  0  0  0  0  0
    7.6862   -1.1016   20.9244 C   0  0  0  0  0  0  0  0  0  0  0  0
    6.9171   -3.2057   21.9587 C   0  0  0  0  0  0  0  0  0  0  0  0
    9.1259   -1.4376   21.2949 C   0  0  0  0  0  0  0  0  0  0  0  0
    8.3470   -3.5714   22.3242 C   0  0  0  0  0  0  0  0  0  0  0  0
    9.4214    5.7405   22.7686 C   0  0  0  0  0  0  0  0  0  0  0  0
   11.3770    2.7733   26.1114 C   0  0  0  0  0  0  0  0  0  0  0  0
   10.5354   -2.5833   23.0063 C   0  0  0  0  0  0  0  0  0  0  0  0
   11.1055    3.9942   25.2138 C   0  0  0  0  0  0  0  0  0  0  0  0
    9.8335   -0.3681   25.0709 N   0  0  0  0  0  0  0  0  0  0  0  0
    6.8692   -2.3165   20.7961 N   0  0  0  0  0  0  0  0  0  0  0  0
    9.7075    4.1439   24.9103 N   0  0  0  0  0  0  0  0  0  0  0  0
    9.1372   -2.3011   22.5334 N   0  3  0  0  0  0  0  0  0  0  0  0
    5.3709   -3.6752   19.6467 O   0  0  0  0  0  0  0  0  0  0  0  0
    7.7305    3.8064   23.2696 O   0  0  0  0  0  0  0  0  0  0  0  0
   10.0620    3.2253   22.5058 O   0  0  0  0  0  0  0  0  0  0  0  0
    9.1585    4.0570   23.2775 S   0  0  0  0  0  0  0  0  0  0  0  0
   14.1733    0.2237   22.2557 H   0  0  0  0  0  0  0  0  0  0  0  0
   13.4527    1.8828   23.9459 H   0  0  0  0  0  0  0  0  0  0  0  0
   12.8464   -1.8036   21.8318 H   0  0  0  0  0  0  0  0  0  0  0  0
    9.0616    0.9474   26.5604 H   0  0  0  0  0  0  0  0  0  0  0  0
    5.6592   -1.5139   16.5051 H   0  0  0  0  0  0  0  0  0  0  0  0
    5.5987   -3.2289   17.2121 H   0  0  0  0  0  0  0  0  0  0  0  0
    6.1003   -0.6385   18.7960 H   0  0  0  0  0  0  0  0  0  0  0  0
    7.2223   -0.4763   21.6963 H   0  0  0  0  0  0  0  0  0  0  0  0
    7.7027   -0.5241   19.9993 H   0  0  0  0  0  0  0  0  0  0  0  0
    6.3423   -4.1189   21.7743 H   0  0  0  0  0  0  0  0  0  0  0  0
    6.4285   -2.6820   22.7894 H   0  0  0  0  0  0  0  0  0  0  0  0
    9.6354   -1.9883   20.4961 H   0  0  0  0  0  0  0  0  0  0  0  0
    9.6860   -0.5259   21.5271 H   0  0  0  0  0  0  0  0  0  0  0  0
    8.3738   -4.1316   23.2644 H   0  0  0  0  0  0  0  0  0  0  0  0
    8.8395   -4.1509   21.5353 H   0  0  0  0  0  0  0  0  0  0  0  0
    9.1101    5.8381   21.7274 H   0  0  0  0  0  0  0  0  0  0  0  0
    8.8239    6.3910   23.4090 H   0  0  0  0  0  0  0  0  0  0  0  0
   10.4827    5.9701   22.8736 H   0  0  0  0  0  0  0  0  0  0  0  0
   12.4594    2.7598   26.3476 H   0  0  0  0  0  0  0  0  0  0  0  0
   10.8818    2.9365   27.0899 H   0  0  0  0  0  0  0  0  0  0  0  0
   11.0144   -3.1880   22.2288 H   0  0  0  0  0  0  0  0  0  0  0  0
   10.4445   -3.2048   23.9037 H   0  0  0  0  0  0  0  0  0  0  0  0
   11.4230    4.9200   25.7040 H   0  0  0  0  0  0  0  0  0  0  0  0
   11.6427    3.9097   24.2634 H   0  0  0  0  0  0  0  0  0  0  0  0
    9.1184   -1.0815   25.1059 H   0  0  0  0  0  0  0  0  0  0  0  0
    9.1839    4.8190   25.5090 H   0  0  0  0  0  0  0  0  0  0  0  0
    8.6752   -1.7698   23.2843 H   0  0  0  0  0  0  0  0  0  0  0  0
  1  2  1  0  0  0  0
  1  3  2  0  0  0  0
  2  5  2  0  0  0  0
  3  6  1  0  0  0  0
  4  7  2  0  0  0  0
  4 20  1  0  0  0  0
  5  7  1  0  0  0  0
  5  8  1  0  0  0  0
  6  8  2  0  0  0  0
  6 18  1  0  0  0  0
  7 17  1  0  0  0  0
  8 20  1  0  0  0  0
  9 10  2  0  0  0  0
 10 11  1  0  0  0  0
 11 21  1  0  0  0  0
 11 24  2  0  0  0  0
 12 14  1  0  0  0  0
 12 21  1  0  0  0  0
 13 15  1  0  0  0  0
 13 21  1  0  0  0  0
 14 23  1  0  0  0  0
 15 23  1  0  0  0  0
 16 27  1  0  0  0  0
 17 19  1  0  0  0  0
 18 23  1  0  0  0  0
 19 22  1  0  0  0  0
 22 27  1  0  0  0  0
 25 27  2  0  0  0  0
 26 27  2  0  0  0  0
  1 28  1  0  0  0  0
  2 29  1  0  0  0  0
  3 30  1  0  0  0  0
  4 31  1  0  0  0  0
  9 32  1  0  0  0  0
  9 33  1  0  0  0  0
 10 34  1  0  0  0  0
 12 35  1  0  0  0  0
 12 36  1  0  0  0  0
 13 37  1  0  0  0  0
 13 38  1  0  0  0  0
 14 39  1  0  0  0  0
 14 40  1  0  0  0  0
 15 41  1  0  0  0  0
 15 42  1  0  0  0  0
 16 43  1  0  0  0  0
 16 44  1  0  0  0  0
 16 45  1  0  0  0  0
 17 46  1  0  0  0  0
 17 47  1  0  0  0  0
 18 48  1  0  0  0  0
 18 49  1  0  0  0  0
 19 50  1  0  0  0  0
 19 51  1  0  0  0  0
 20 52  1  0  0  0  0
 22 53  1  0  0  0  0
 23 54  1  0  0  0  0
M  CHG  1  23   1
M  END
> <Chemgauss4>
-6.279801

> <ref_pdb>
x0830_0

> <CYS145-warhead min dist (A)>
6.396751

> <CYS145-warhead avg dist (A)>
7.420915

> <CYS145-warhead avg dist stderr (A)>
0.040116087

> <original SMILES>
CS(=O)(=O)NCCc1c[nH]c2c1cccc2C[NH+]3CCN(CC3)C(=O)C=C

$$$$
DAN-LON-a5f-10
  -OEChem-04232002263D

 48 50  0     1  0  0  0  0  0999 V2000
    6.6062   -0.3358   19.0941 C   0  0  0  0  0  0  0  0  0  0  0  0
    7.8221   -0.1688   19.7568 C   0  0  0  0  0  0  0  0  0  0  0  0
    5.6678   -1.2475   19.5777 C   0  0  0  0  0  0  0  0  0  0  0  0
   12.4621   -0.7306   26.4892 C   0  0  0  0  0  0  0  0  0  0  0  0
    8.0998   -0.9135   20.9030 C   0  0  0  0  0  0  0  0  0  0  0  0
    5.9454   -1.9923   20.7240 C   0  0  0  0  0  0  0  0  0  0  0  0
   11.5858   -0.9429   25.4249 C   0  0  0  0  0  0  0  0  0  0  0  0
   13.6575   -1.4458   26.5617 C   0  0  0  0  0  0  0  0  0  0  0  0
   13.1003   -2.5857   24.5057 C   0  0  0  0  0  0  0  0  0  0  0  0
    7.1614   -1.8253   21.3867 C   0  0  0  0  0  0  0  0  0  0  0  0
   11.9049   -1.8705   24.4332 C   0  0  0  0  0  0  0  0  0  0  0  0
   13.9765   -2.3734   25.5700 C   0  0  0  0  0  0  0  0  0  0  0  0
    6.7218   -5.6943   23.3029 C   0  0  0  0  0  0  0  0  0  0  0  0
    8.9987   -5.2078   24.2809 C   0  0  0  0  0  0  0  0  0  0  0  0
    9.8708   -3.9869   24.5036 C   0  0  0  0  0  0  0  0  0  0  0  0
    9.6395   -3.7890   21.9725 C   0  0  0  0  0  0  0  0  0  0  0  0
    8.1508   -3.9514   22.2798 C   0  0  2  0  0  0  0  0  0  0  0  0
    7.4601   -2.6285   22.6220 C   0  0  0  0  0  0  0  0  0  0  0  0
   10.9613   -2.0992   23.2894 C   0  0  0  0  0  0  0  0  0  0  0  0
    6.5808   -6.7788   24.3427 C   0  0  0  0  0  0  0  0  0  0  0  0
    7.9154   -4.9644   23.3221 N   0  0  0  0  0  0  0  0  0  0  0  0
   10.4726   -3.5195   23.2033 N   0  3  1  0  0  0  0  0  0  0  0  0
    5.8044   -5.4988   22.5019 O   0  0  0  0  0  0  0  0  0  0  0  0
   15.4510   -3.2563   25.6607 Cl  0  0  0  0  0  0  0  0  0  0  0  0
    5.8713   -6.0236   25.7656 Cl  0  0  0  0  0  0  0  0  0  0  0  0
    6.3896    0.2452   18.2023 H   0  0  0  0  0  0  0  0  0  0  0  0
    8.5525    0.5419   19.3810 H   0  0  0  0  0  0  0  0  0  0  0  0
    4.7205   -1.3770   19.0627 H   0  0  0  0  0  0  0  0  0  0  0  0
   12.2132   -0.0084   27.2613 H   0  0  0  0  0  0  0  0  0  0  0  0
    9.0499   -0.7769   21.4127 H   0  0  0  0  0  0  0  0  0  0  0  0
    5.2083   -2.7003   21.0935 H   0  0  0  0  0  0  0  0  0  0  0  0
   10.6566   -0.3813   25.3765 H   0  0  0  0  0  0  0  0  0  0  0  0
   14.3308   -1.2702   27.3971 H   0  0  0  0  0  0  0  0  0  0  0  0
   13.3447   -3.3075   23.7297 H   0  0  0  0  0  0  0  0  0  0  0  0
    9.6250   -6.0596   23.9900 H   0  0  0  0  0  0  0  0  0  0  0  0
    8.5147   -5.5040   25.2253 H   0  0  0  0  0  0  0  0  0  0  0  0
    9.2823   -3.1647   24.9250 H   0  0  0  0  0  0  0  0  0  0  0  0
   10.7131   -4.2104   25.1666 H   0  0  0  0  0  0  0  0  0  0  0  0
   10.0390   -4.7182   21.5012 H   0  0  0  0  0  0  0  0  0  0  0  0
    9.8479   -2.9576   21.2547 H   0  0  0  0  0  0  0  0  0  0  0  0
    7.6573   -4.3486   21.3617 H   0  0  0  0  0  0  0  0  0  0  0  0
    8.0969   -2.0513   23.2992 H   0  0  0  0  0  0  0  0  0  0  0  0
    6.5344   -2.8332   23.1686 H   0  0  0  0  0  0  0  0  0  0  0  0
   10.0723   -1.4654   23.3767 H   0  0  0  0  0  0  0  0  0  0  0  0
   11.4398   -1.8726   22.3305 H   0  0  0  0  0  0  0  0  0  0  0  0
    7.5641   -7.1688   24.5798 H   0  0  0  0  0  0  0  0  0  0  0  0
    5.9194   -7.5482   23.9609 H   0  0  0  0  0  0  0  0  0  0  0  0
   11.3528   -4.0899   23.0757 H   0  0  0  0  0  0  0  0  0  0  0  0
  1  2  1  0  0  0  0
  1  3  2  0  0  0  0
  2  5  2  0  0  0  0
  3  6  1  0  0  0  0
  4  7  2  0  0  0  0
  4  8  1  0  0  0  0
  5 10  1  0  0  0  0
  6 10  2  0  0  0  0
  7 11  1  0  0  0  0
  8 12  2  0  0  0  0
  9 11  2  0  0  0  0
  9 12  1  0  0  0  0
 10 18  1  0  0  0  0
 11 19  1  0  0  0  0
 12 24  1  0  0  0  0
 13 20  1  0  0  0  0
 13 21  1  0  0  0  0
 13 23  2  0  0  0  0
 14 15  1  0  0  0  0
 14 21  1  0  0  0  0
 15 22  1  0  0  0  0
 16 17  1  0  0  0  0
 16 22  1  0  0  0  0
 17 18  1  0  0  0  0
 17 21  1  0  0  0  0
 19 22  1  0  0  0  0
 20 25  1  0  0  0  0
  1 26  1  0  0  0  0
  2 27  1  0  0  0  0
  3 28  1  0  0  0  0
  4 29  1  0  0  0  0
  5 30  1  0  0  0  0
  6 31  1  0  0  0  0
  7 32  1  0  0  0  0
  8 33  1  0  0  0  0
  9 34  1  0  0  0  0
 14 35  1  0  0  0  0
 14 36  1  0  0  0  0
 15 37  1  0  0  0  0
 15 38  1  0  0  0  0
 16 39  1  0  0  0  0
 16 40  1  0  0  0  0
 17 41  1  0  0  0  0
 18 42  1  0  0  0  0
 18 43  1  0  0  0  0
 19 44  1  0  0  0  0
 19 45  1  0  0  0  0
 20 46  1  0  0  0  0
 20 47  1  0  0  0  0
 22 48  1  0  0  0  0
M  CHG  1  22   1
M  END
> <Chemgauss4>
-6.265866

> <ref_pdb>
x0749_0

> <CYS145-warhead min dist (A)>
3.7107089

> <CYS145-warhead avg dist (A)>
4.492327

> <CYS145-warhead avg dist stderr (A)>
0.016190212

> <original SMILES>
c1ccc(cc1)C[C@H]2C[N@H+](CCN2C(=O)CCl)Cc3cccc(c3)Cl

$$$$
NIR-THE-99f-3
  -OEChem-04232002263D

 39 40  0     1  0  0  0  0  0999 V2000
    9.0067    0.8416   24.8016 C   0  0  0  0  0  0  0  0  0  0  0  0
   10.3754    0.7066   25.0335 C   0  0  0  0  0  0  0  0  0  0  0  0
    8.3605   -0.0224   23.9174 C   0  0  0  0  0  0  0  0  0  0  0  0
   11.0981   -0.2923   24.3812 C   0  0  0  0  0  0  0  0  0  0  0  0
    9.0832   -1.0213   23.2651 C   0  0  0  0  0  0  0  0  0  0  0  0
   10.4520   -1.1563   23.4970 C   0  0  0  0  0  0  0  0  0  0  0  0
    6.4818   -3.5874   22.3392 C   0  0  0  0  0  0  0  0  0  0  0  0
   13.3721   -1.2897   21.9357 C   0  0  0  0  0  0  0  0  0  0  0  0
    7.1622   -0.5503   20.7441 C   0  0  0  0  0  0  0  0  0  0  0  0
    8.3999   -1.4243   20.8664 C   0  0  0  0  0  0  0  0  0  0  0  0
    6.1005   -1.2528   21.5843 C   0  0  0  0  0  0  0  0  0  0  0  0
    8.3572   -1.9522   22.3065 C   0  0  2  0  0  0  0  0  0  0  0  0
    6.8514   -2.1514   22.5770 C   0  0  2  0  0  0  0  0  0  0  0  0
   11.2468   -2.2177   22.8097 C   0  0  0  0  0  0  0  0  0  0  0  0
   14.0295   -0.7884   20.6753 C   0  0  0  0  0  0  0  0  0  0  0  0
    7.0893   -4.4669   23.2039 N   0  0  0  0  0  0  0  0  0  0  0  0
   12.0577   -1.6882   21.7439 N   0  0  0  0  0  0  0  0  0  0  0  0
    5.6935   -3.9213   21.4580 O   0  0  0  0  0  0  0  0  0  0  0  0
   13.9759   -1.3418   23.0058 O   0  0  0  0  0  0  0  0  0  0  0  0
   13.7436    0.9557   20.5686 Cl  0  0  0  0  0  0  0  0  0  0  0  0
    8.4446    1.6199   25.3090 H   0  0  0  0  0  0  0  0  0  0  0  0
   10.8780    1.3799   25.7219 H   0  0  0  0  0  0  0  0  0  0  0  0
    7.2940    0.0922   23.7424 H   0  0  0  0  0  0  0  0  0  0  0  0
   12.1642   -0.3898   24.5689 H   0  0  0  0  0  0  0  0  0  0  0  0
    7.3461    0.4793   21.0883 H   0  0  0  0  0  0  0  0  0  0  0  0
    6.8383   -0.4917   19.6914 H   0  0  0  0  0  0  0  0  0  0  0  0
    8.4028   -2.2397   20.1289 H   0  0  0  0  0  0  0  0  0  0  0  0
    9.3032   -0.8199   20.6850 H   0  0  0  0  0  0  0  0  0  0  0  0
    5.5245   -0.4973   22.1434 H   0  0  0  0  0  0  0  0  0  0  0  0
    5.3837   -1.7977   20.9510 H   0  0  0  0  0  0  0  0  0  0  0  0
    8.8952   -2.9229   22.3368 H   0  0  0  0  0  0  0  0  0  0  0  0
    6.5573   -1.9123   23.6046 H   0  0  0  0  0  0  0  0  0  0  0  0
   11.9174   -2.7266   23.5151 H   0  0  0  0  0  0  0  0  0  0  0  0
   10.5960   -2.9884   22.3762 H   0  0  0  0  0  0  0  0  0  0  0  0
   15.1074   -0.9678   20.6640 H   0  0  0  0  0  0  0  0  0  0  0  0
   13.5767   -1.2791   19.8094 H   0  0  0  0  0  0  0  0  0  0  0  0
    7.7173   -4.0992   23.9110 H   0  0  0  0  0  0  0  0  0  0  0  0
    6.9349   -5.4691   23.1633 H   0  0  0  0  0  0  0  0  0  0  0  0
   11.6509   -1.6033   20.8152 H   0  0  0  0  0  0  0  0  0  0  0  0
  1  2  1  0  0  0  0
  1  3  2  0  0  0  0
  2  4  2  0  0  0  0
  3  5  1  0  0  0  0
  4  6  1  0  0  0  0
  5  6  2  0  0  0  0
  5 12  1  0  0  0  0
  6 14  1  0  0  0  0
  7 13  1  0  0  0  0
  7 16  1  0  0  0  0
  7 18  2  0  0  0  0
  8 15  1  0  0  0  0
  8 17  1  0  0  0  0
  8 19  2  0  0  0  0
  9 10  1  0  0  0  0
  9 11  1  0  0  0  0
 10 12  1  0  0  0  0
 11 13  1  0  0  0  0
 12 13  1  0  0  0  0
 14 17  1  0  0  0  0
 15 20  1  0  0  0  0
  1 21  1  0  0  0  0
  2 22  1  0  0  0  0
  3 23  1  0  0  0  0
  4 24  1  0  0  0  0
  9 25  1  0  0  0  0
  9 26  1  0  0  0  0
 10 27  1  0  0  0  0
 10 28  1  0  0  0  0
 11 29  1  0  0  0  0
 11 30  1  0  0  0  0
 12 31  1  0  0  0  0
 13 32  1  0  0  0  0
 14 33  1  0  0  0  0
 14 34  1  0  0  0  0
 15 35  1  0  0  0  0
 15 36  1  0  0  0  0
 16 37  1  0  0  0  0
 16 38  1  0  0  0  0
 17 39  1  0  0  0  0
M  END
> <Chemgauss4>
-6.253385

> <ref_pdb>
x0831_0

> <CYS145-warhead min dist (A)>
4.43417

> <CYS145-warhead avg dist (A)>
5.4051275

> <CYS145-warhead avg dist stderr (A)>
0.027135175

> <original SMILES>
c1ccc(c(c1)CNC(=O)CCl)[C@@H]2CCC[C@H]2C(=O)N

$$$$
TAM-UNI-d1c-18
  -OEChem-04232002263D

 43 44  0     0  0  0  0  0  0999 V2000
    9.2871    1.2610   26.4573 C   0  0  0  0  0  0  0  0  0  0  0  0
   11.2873    1.2192   25.0512 C   0  0  0  0  0  0  0  0  0  0  0  0
   12.0415    0.6380   24.0319 C   0  0  0  0  0  0  0  0  0  0  0  0
    9.5844   -0.4686   24.7536 C   0  0  0  0  0  0  0  0  0  0  0  0
   10.0588    0.6659   25.4121 C   0  0  0  0  0  0  0  0  0  0  0  0
   10.3386   -1.0498   23.7343 C   0  0  0  0  0  0  0  0  0  0  0  0
   11.5672   -0.4965   23.3734 C   0  0  0  0  0  0  0  0  0  0  0  0
    6.0787   -2.0274   18.9516 C   0  0  0  0  0  0  0  0  0  0  0  0
   13.5830   -0.6405   21.8768 C   0  0  0  0  0  0  0  0  0  0  0  0
    6.5575   -3.0130   21.1699 C   0  0  0  0  0  0  0  0  0  0  0  0
    7.1668   -0.6546   20.7954 C   0  0  0  0  0  0  0  0  0  0  0  0
    7.9368   -3.2993   21.7453 C   0  0  0  0  0  0  0  0  0  0  0  0
    8.5556   -0.9052   21.3674 C   0  0  0  0  0  0  0  0  0  0  0  0
   14.0853   -1.5288   20.7664 C   0  0  0  0  0  0  0  0  0  0  0  0
    9.8049   -2.2703   23.0441 C   0  0  0  0  0  0  0  0  0  0  0  0
    6.1657   -0.8205   18.0520 C   0  0  0  0  0  0  0  0  0  0  0  0
    8.6604    1.7443   27.3060 N   0  0  0  0  0  0  0  0  0  0  0  0
    6.6006   -1.8871   20.2367 N   0  0  0  0  0  0  0  0  0  0  0  0
   12.3382   -1.0653   22.3566 N   0  0  0  0  0  0  0  0  0  0  0  0
    8.4823   -2.0348   22.3704 N   0  3  0  0  0  0  0  0  0  0  0  0
    5.5643   -3.0634   18.5225 O   0  0  0  0  0  0  0  0  0  0  0  0
   14.2439    0.3188   22.2614 O   0  0  0  0  0  0  0  0  0  0  0  0
    7.7157   -0.9201   17.2240 Cl  0  0  0  0  0  0  0  0  0  0  0  0
   11.6711    2.1024   25.5564 H   0  0  0  0  0  0  0  0  0  0  0  0
   12.9985    1.0771   23.7610 H   0  0  0  0  0  0  0  0  0  0  0  0
    8.6261   -0.9034   25.0307 H   0  0  0  0  0  0  0  0  0  0  0  0
    6.1735   -3.9115   20.6767 H   0  0  0  0  0  0  0  0  0  0  0  0
    5.8506   -2.7530   21.9671 H   0  0  0  0  0  0  0  0  0  0  0  0
    6.4830   -0.3094   21.5804 H   0  0  0  0  0  0  0  0  0  0  0  0
    7.2254    0.1408   20.0506 H   0  0  0  0  0  0  0  0  0  0  0  0
    7.8767   -4.0545   22.5358 H   0  0  0  0  0  0  0  0  0  0  0  0
    8.6440   -3.6264   20.9748 H   0  0  0  0  0  0  0  0  0  0  0  0
    9.2739   -1.1907   20.5907 H   0  0  0  0  0  0  0  0  0  0  0  0
    8.9193   -0.0201   21.8992 H   0  0  0  0  0  0  0  0  0  0  0  0
   13.7376   -1.1483   19.8018 H   0  0  0  0  0  0  0  0  0  0  0  0
   13.7049   -2.5449   20.9045 H   0  0  0  0  0  0  0  0  0  0  0  0
   15.1789   -1.5568   20.7765 H   0  0  0  0  0  0  0  0  0  0  0  0
   10.4949   -2.6203   22.2687 H   0  0  0  0  0  0  0  0  0  0  0  0
    9.6550   -3.0918   23.7529 H   0  0  0  0  0  0  0  0  0  0  0  0
    6.1260    0.0755   18.6610 H   0  0  0  0  0  0  0  0  0  0  0  0
    5.3560   -0.8594   17.3324 H   0  0  0  0  0  0  0  0  0  0  0  0
   11.9478   -1.8983   21.9030 H   0  0  0  0  0  0  0  0  0  0  0  0
    7.8248   -1.7477   23.1086 H   0  0  0  0  0  0  0  0  0  0  0  0
  1  5  1  0  0  0  0
  1 17  3  0  0  0  0
  2  3  2  0  0  0  0
  2  5  1  0  0  0  0
  3  7  1  0  0  0  0
  4  5  2  0  0  0  0
  4  6  1  0  0  0  0
  6  7  2  0  0  0  0
  6 15  1  0  0  0  0
  7 19  1  0  0  0  0
  8 16  1  0  0  0  0
  8 18  1  0  0  0  0
  8 21  2  0  0  0  0
  9 14  1  0  0  0  0
  9 19  1  0  0  0  0
  9 22  2  0  0  0  0
 10 12  1  0  0  0  0
 10 18  1  0  0  0  0
 11 13  1  0  0  0  0
 11 18  1  0  0  0  0
 12 20  1  0  0  0  0
 13 20  1  0  0  0  0
 15 20  1  0  0  0  0
 16 23  1  0  0  0  0
  2 24  1  0  0  0  0
  3 25  1  0  0  0  0
  4 26  1  0  0  0  0
 10 27  1  0  0  0  0
 10 28  1  0  0  0  0
 11 29  1  0  0  0  0
 11 30  1  0  0  0  0
 12 31  1  0  0  0  0
 12 32  1  0  0  0  0
 13 33  1  0  0  0  0
 13 34  1  0  0  0  0
 14 35  1  0  0  0  0
 14 36  1  0  0  0  0
 14 37  1  0  0  0  0
 15 38  1  0  0  0  0
 15 39  1  0  0  0  0
 16 40  1  0  0  0  0
 16 41  1  0  0  0  0
 19 42  1  0  0  0  0
 20 43  1  0  0  0  0
M  CHG  1  20   1
M  END
> <Chemgauss4>
-6.252570

> <ref_pdb>
x0830_0

> <CYS145-warhead min dist (A)>
2.9681501

> <CYS145-warhead avg dist (A)>
3.3334827

> <CYS145-warhead avg dist stderr (A)>
0.01741955

> <original SMILES>
CC(=O)Nc1ccc(cc1C[NH+]2CCN(CC2)C(=O)CCl)C#N

$$$$
NIM-UNI-7ba-4_thio_pH
  -OEChem-04232002263D

 40 42  0     0  0  0  0  0  0999 V2000
    7.2627   -4.1082   27.9873 C   0  0  0  0  0  0  0  0  0  0  0  0
    8.3970   -4.8922   27.7773 C   0  0  0  0  0  0  0  0  0  0  0  0
    6.5285   -3.6379   26.8985 C   0  0  0  0  0  0  0  0  0  0  0  0
    8.6656    1.4523   22.7683 C   0  0  0  0  0  0  0  0  0  0  0  0
    8.1920    0.1534   22.9161 C   0  0  0  0  0  0  0  0  0  0  0  0
    8.7974   -5.2059   26.4785 C   0  0  0  0  0  0  0  0  0  0  0  0
    6.9288   -3.9516   25.5996 C   0  0  0  0  0  0  0  0  0  0  0  0
    9.1621    1.8245   21.5294 C   0  0  0  0  0  0  0  0  0  0  0  0
    8.7446   -0.2516   20.6387 C   0  0  0  0  0  0  0  0  0  0  0  0
    8.2287   -0.7212   21.8358 C   0  0  0  0  0  0  0  0  0  0  0  0
    8.0632   -4.7356   25.3896 C   0  0  0  0  0  0  0  0  0  0  0  0
    8.2811   -2.9447   22.8411 C   0  0  0  0  0  0  0  0  0  0  0  0
    7.7370   -2.0982   21.9600 C   0  0  0  0  0  0  0  0  0  0  0  0
    6.6028   -2.6485   21.1480 C   0  0  0  0  0  0  0  0  0  0  0  0
    6.7581   -4.7241   22.2352 C   0  0  0  0  0  0  0  0  0  0  0  0
    5.4059   -2.3609   19.0457 C   0  0  0  0  0  0  0  0  0  0  0  0
    8.4937   -5.0726   23.9913 C   0  0  0  0  0  0  0  0  0  0  0  0
    4.7914   -1.2838   18.1870 C   0  0  0  0  0  0  0  0  0  0  0  0
    9.2139    1.0031   20.4570 N   0  0  0  0  0  0  0  0  0  0  0  0
    6.1777   -3.8759   21.3115 N   0  0  0  0  0  0  0  0  0  0  0  0
    7.8291   -4.2348   22.9984 N   0  0  0  0  0  0  0  0  0  0  0  0
    5.9904   -1.8593   20.1985 N   0  0  0  0  0  0  0  0  0  0  0  0
    6.3366   -5.8741   22.3711 O   0  0  0  0  0  0  0  0  0  0  0  0
    5.3568   -3.5473   18.7241 O   0  0  0  0  0  0  0  0  0  0  0  0
    6.0414   -0.6861   17.0846 Cl  0  0  0  0  0  0  0  0  0  0  0  0
    6.9503   -3.8651   28.9988 H   0  0  0  0  0  0  0  0  0  0  0  0
    8.9682   -5.2593   28.6251 H   0  0  0  0  0  0  0  0  0  0  0  0
    5.6446   -3.0284   27.0616 H   0  0  0  0  0  0  0  0  0  0  0  0
    8.6466    2.1513   23.5965 H   0  0  0  0  0  0  0  0  0  0  0  0
    7.7975   -0.1629   23.8785 H   0  0  0  0  0  0  0  0  0  0  0  0
    9.6827   -5.8172   26.3244 H   0  0  0  0  0  0  0  0  0  0  0  0
    6.3508   -3.5807   24.7574 H   0  0  0  0  0  0  0  0  0  0  0  0
    9.5440    2.8264   21.3633 H   0  0  0  0  0  0  0  0  0  0  0  0
    8.8009   -0.8844   19.7575 H   0  0  0  0  0  0  0  0  0  0  0  0
    9.1101   -2.6519   23.4786 H   0  0  0  0  0  0  0  0  0  0  0  0
    9.5748   -4.9379   23.8771 H   0  0  0  0  0  0  0  0  0  0  0  0
    8.2691   -6.1174   23.7521 H   0  0  0  0  0  0  0  0  0  0  0  0
    4.4520   -0.4618   18.8234 H   0  0  0  0  0  0  0  0  0  0  0  0
    3.9479   -1.6476   17.5949 H   0  0  0  0  0  0  0  0  0  0  0  0
    5.9792   -0.8593   20.3781 H   0  0  0  0  0  0  0  0  0  0  0  0
  1  2  1  0  0  0  0
  1  3  2  0  0  0  0
  2  6  2  0  0  0  0
  3  7  1  0  0  0  0
  4  5  1  0  0  0  0
  4  8  2  0  0  0  0
  5 10  2  0  0  0  0
  6 11  1  0  0  0  0
  7 11  2  0  0  0  0
  8 19  1  0  0  0  0
  9 10  1  0  0  0  0
  9 19  2  0  0  0  0
 10 13  1  0  0  0  0
 11 17  1  0  0  0  0
 12 13  2  0  0  0  0
 12 21  1  0  0  0  0
 13 14  1  0  0  0  0
 14 20  2  0  0  0  0
 14 22  1  0  0  0  0
 15 20  1  0  0  0  0
 15 21  1  0  0  0  0
 15 23  2  0  0  0  0
 16 18  1  0  0  0  0
 16 22  1  0  0  0  0
 16 24  2  0  0  0  0
 17 21  1  0  0  0  0
 18 25  1  0  0  0  0
  1 26  1  0  0  0  0
  2 27  1  0  0  0  0
  3 28  1  0  0  0  0
  4 29  1  0  0  0  0
  5 30  1  0  0  0  0
  6 31  1  0  0  0  0
  7 32  1  0  0  0  0
  8 33  1  0  0  0  0
  9 34  1  0  0  0  0
 12 35  1  0  0  0  0
 17 36  1  0  0  0  0
 17 37  1  0  0  0  0
 18 38  1  0  0  0  0
 18 39  1  0  0  0  0
 22 40  1  0  0  0  0
M  END
> <Chemgauss4>
-6.249019

> <ref_pdb>
x1412_0

> <CYS145-warhead min dist (A)>
2.9012682

> <CYS145-warhead avg dist (A)>
3.405378

> <CYS145-warhead avg dist stderr (A)>
0.017662624

> <original SMILES>
c1ccc(cc1)Cn2cc(c(nc2=O)NC(=O)CCl)c3cccnc3

$$$$
STU-CHA-7b3-1
  -OEChem-04232002263D

 56 58  0     1  0  0  0  0  0999 V2000
    8.8478   -1.4854   26.4088 C   0  0  0  0  0  0  0  0  0  0  0  0
    8.7853   -2.7884   26.9027 C   0  0  0  0  0  0  0  0  0  0  0  0
    9.2942   -3.6468   24.7024 C   0  0  0  0  0  0  0  0  0  0  0  0
    9.1334   -1.2631   25.0617 C   0  0  0  0  0  0  0  0  0  0  0  0
    9.3566   -2.3438   24.2085 C   0  0  0  0  0  0  0  0  0  0  0  0
    9.0085   -3.8691   26.0495 C   0  0  0  0  0  0  0  0  0  0  0  0
   10.9542    1.8964   24.5087 C   0  0  0  0  0  0  0  0  0  0  0  0
    6.1213   -2.0257   18.4977 C   0  0  0  0  0  0  0  0  0  0  0  0
   12.5621    1.3279   21.8250 C   0  0  0  0  0  0  0  0  0  0  0  0
   12.6178    2.5282   22.7670 C   0  0  0  0  0  0  0  0  0  0  0  0
    6.3204   -2.4369   20.9293 C   0  0  0  0  0  0  0  0  0  0  0  0
    7.5771   -0.5473   19.9684 C   0  0  0  0  0  0  0  0  0  0  0  0
    7.5654   -2.9210   21.6581 C   0  0  0  0  0  0  0  0  0  0  0  0
    8.8415   -1.0022   20.6848 C   0  0  0  0  0  0  0  0  0  0  0  0
   13.4195    0.1866   22.3490 C   0  0  0  0  0  0  0  0  0  0  0  0
   13.2099    0.8853   24.6040 C   0  0  0  0  0  0  0  0  0  0  0  0
   12.4101    2.1307   24.2279 C   0  0  2  0  0  0  0  0  0  0  0  0
    9.1943    0.1405   24.5552 C   0  0  0  0  0  0  0  0  0  0  0  0
    9.6639   -2.1292   22.7558 C   0  0  0  0  0  0  0  0  0  0  0  0
    6.5417   -1.1962   17.3108 C   0  0  0  0  0  0  0  0  0  0  0  0
    6.6751   -1.6790   19.7293 N   0  0  0  0  0  0  0  0  0  0  0  0
   10.5470    0.5840   24.3377 N   0  0  0  0  0  0  0  0  0  0  0  0
    8.4576   -1.7353   21.9507 N   0  3  0  0  0  0  0  0  0  0  0  0
   10.2474    2.8349   24.8572 O   0  0  0  0  0  0  0  0  0  0  0  0
    5.3267   -2.9549   18.3328 O   0  0  0  0  0  0  0  0  0  0  0  0
   13.0142   -0.1750   23.6672 O   0  0  0  0  0  0  0  0  0  0  0  0
    8.9296   -5.4763   26.6588 Cl  0  0  0  0  0  0  0  0  0  0  0  0
    5.7254   -1.8753   15.9071 Cl  0  0  0  0  0  0  0  0  0  0  0  0
    8.6720   -0.6503   27.0818 H   0  0  0  0  0  0  0  0  0  0  0  0
    8.5602   -2.9462   27.9544 H   0  0  0  0  0  0  0  0  0  0  0  0
    9.4674   -4.4864   24.0328 H   0  0  0  0  0  0  0  0  0  0  0  0
   11.5218    0.9889   21.7484 H   0  0  0  0  0  0  0  0  0  0  0  0
   12.8866    1.6193   20.8204 H   0  0  0  0  0  0  0  0  0  0  0  0
   13.6031    3.0022   22.6646 H   0  0  0  0  0  0  0  0  0  0  0  0
   11.8755    3.2734   22.4550 H   0  0  0  0  0  0  0  0  0  0  0  0
    5.6895   -3.2942   20.6747 H   0  0  0  0  0  0  0  0  0  0  0  0
    5.7263   -1.7763   21.5724 H   0  0  0  0  0  0  0  0  0  0  0  0
    7.0296    0.1817   20.5780 H   0  0  0  0  0  0  0  0  0  0  0  0
    7.8538   -0.0439   19.0405 H   0  0  0  0  0  0  0  0  0  0  0  0
    7.2994   -3.3741   22.6186 H   0  0  0  0  0  0  0  0  0  0  0  0
    8.1407   -3.6358   21.0590 H   0  0  0  0  0  0  0  0  0  0  0  0
    9.4394   -1.6836   20.0692 H   0  0  0  0  0  0  0  0  0  0  0  0
    9.4496   -0.1406   20.9787 H   0  0  0  0  0  0  0  0  0  0  0  0
   13.2979   -0.6934   21.7095 H   0  0  0  0  0  0  0  0  0  0  0  0
   14.4835    0.4511   22.3500 H   0  0  0  0  0  0  0  0  0  0  0  0
   14.2824    1.1097   24.6632 H   0  0  0  0  0  0  0  0  0  0  0  0
   12.9007    0.5121   25.5870 H   0  0  0  0  0  0  0  0  0  0  0  0
   12.7162    2.9623   24.8782 H   0  0  0  0  0  0  0  0  0  0  0  0
    8.6558    0.2396   23.6031 H   0  0  0  0  0  0  0  0  0  0  0  0
    8.7276    0.8415   25.2597 H   0  0  0  0  0  0  0  0  0  0  0  0
   10.4052   -1.3342   22.6211 H   0  0  0  0  0  0  0  0  0  0  0  0
   10.0643   -3.0399   22.2975 H   0  0  0  0  0  0  0  0  0  0  0  0
    7.6162   -1.2741   17.1903 H   0  0  0  0  0  0  0  0  0  0  0  0
    6.2231   -0.1720   17.4674 H   0  0  0  0  0  0  0  0  0  0  0  0
   11.2390   -0.1021   24.0432 H   0  0  0  0  0  0  0  0  0  0  0  0
    7.9180   -1.0802   22.5332 H   0  0  0  0  0  0  0  0  0  0  0  0
  1  2  2  0  0  0  0
  1  4  1  0  0  0  0
  2  6  1  0  0  0  0
  3  5  1  0  0  0  0
  3  6  2  0  0  0  0
  4  5  2  0  0  0  0
  4 18  1  0  0  0  0
  5 19  1  0  0  0  0
  6 27  1  0  0  0  0
  7 17  1  0  0  0  0
  7 22  1  0  0  0  0
  7 24  2  0  0  0  0
  8 20  1  0  0  0  0
  8 21  1  0  0  0  0
  8 25  2  0  0  0  0
  9 10  1  0  0  0  0
  9 15  1  0  0  0  0
 10 17  1  0  0  0  0
 11 13  1  0  0  0  0
 11 21  1  0  0  0  0
 12 14  1  0  0  0  0
 12 21  1  0  0  0  0
 13 23  1  0  0  0  0
 14 23  1  0  0  0  0
 15 26  1  0  0  0  0
 16 17  1  0  0  0  0
 16 26  1  0  0  0  0
 18 22  1  0  0  0  0
 19 23  1  0  0  0  0
 20 28  1  0  0  0  0
  1 29  1  0  0  0  0
  2 30  1  0  0  0  0
  3 31  1  0  0  0  0
  9 32  1  0  0  0  0
  9 33  1  0  0  0  0
 10 34  1  0  0  0  0
 10 35  1  0  0  0  0
 11 36  1  0  0  0  0
 11 37  1  0  0  0  0
 12 38  1  0  0  0  0
 12 39  1  0  0  0  0
 13 40  1  0  0  0  0
 13 41  1  0  0  0  0
 14 42  1  0  0  0  0
 14 43  1  0  0  0  0
 15 44  1  0  0  0  0
 15 45  1  0  0  0  0
 16 46  1  0  0  0  0
 16 47  1  0  0  0  0
 17 48  1  0  0  0  0
 18 49  1  0  0  0  0
 18 50  1  0  0  0  0
 19 51  1  0  0  0  0
 19 52  1  0  0  0  0
 20 53  1  0  0  0  0
 20 54  1  0  0  0  0
 22 55  1  0  0  0  0
 23 56  1  0  0  0  0
M  CHG  1  23   1
M  END
> <Chemgauss4>
-6.233713

> <ref_pdb>
x0830_0

> <CYS145-warhead min dist (A)>
6.4905205

> <CYS145-warhead avg dist (A)>
7.2822256

> <CYS145-warhead avg dist stderr (A)>
0.027506128

> <original SMILES>
c1cc(c(cc1Cl)C[NH+]2CCN(CC2)C(=O)CCl)CNC(=O)[C@@H]3CCCOC3

$$$$
SEA-TRI-146-1
  -OEChem-04232002263D

 45 47  0     0  0  0  0  0  0999 V2000
   12.4676    0.6870   24.7317 C   0  0  0  0  0  0  0  0  0  0  0  0
   11.3108    0.8221   23.9642 C   0  0  0  0  0  0  0  0  0  0  0  0
   13.6008    0.0846   24.1853 C   0  0  0  0  0  0  0  0  0  0  0  0
    6.6146   -3.9230   25.2424 C   0  0  0  0  0  0  0  0  0  0  0  0
   12.4204   -0.2478   22.1037 C   0  0  0  0  0  0  0  0  0  0  0  0
    6.5618   -2.8911   26.1415 C   0  0  0  0  0  0  0  0  0  0  0  0
   11.2871    0.3547   22.6502 C   0  0  0  0  0  0  0  0  0  0  0  0
   13.5772   -0.3828   22.8713 C   0  0  0  0  0  0  0  0  0  0  0  0
    5.5590   -3.6483   24.3559 C   0  0  0  0  0  0  0  0  0  0  0  0
    7.1104   -5.6574   22.1792 C   0  0  0  0  0  0  0  0  0  0  0  0
    6.2315   -4.6478   22.1494 C   0  0  0  0  0  0  0  0  0  0  0  0
    6.4090   -3.6472   21.0780 C   0  0  0  0  0  0  0  0  0  0  0  0
    8.7390   -3.0966   21.9677 C   0  0  0  0  0  0  0  0  0  0  0  0
    7.8471   -1.9968   19.9469 C   0  0  0  0  0  0  0  0  0  0  0  0
    9.1962   -1.7471   22.5088 C   0  0  0  0  0  0  0  0  0  0  0  0
    8.2784   -0.6369   20.4730 C   0  0  0  0  0  0  0  0  0  0  0  0
   10.0421    0.4992   21.8256 C   0  0  0  0  0  0  0  0  0  0  0  0
    5.1311   -4.4502   23.1504 C   0  0  0  0  0  0  0  0  0  0  0  0
    4.9017   -2.5314   24.6804 N   0  0  0  0  0  0  0  0  0  0  0  0
    7.6116   -2.9458   21.0371 N   0  0  0  0  0  0  0  0  0  0  0  0
    9.4906   -0.8175   21.3561 N   0  3  0  0  0  0  0  0  0  0  0  0
    5.4817   -3.4966   20.2806 O   0  0  0  0  0  0  0  0  0  0  0  0
    5.5436   -2.0539   25.8167 O   0  0  0  0  0  0  0  0  0  0  0  0
   14.9752   -1.1270   22.1980 Cl  0  0  0  0  0  0  0  0  0  0  0  0
   12.4855    1.0510   25.7550 H   0  0  0  0  0  0  0  0  0  0  0  0
   10.4324    1.2927   24.3982 H   0  0  0  0  0  0  0  0  0  0  0  0
   14.4953   -0.0142   24.7953 H   0  0  0  0  0  0  0  0  0  0  0  0
    7.3124   -4.7470   25.2332 H   0  0  0  0  0  0  0  0  0  0  0  0
   12.3970   -0.6101   21.0785 H   0  0  0  0  0  0  0  0  0  0  0  0
    7.1363   -2.6194   27.0144 H   0  0  0  0  0  0  0  0  0  0  0  0
    7.0656   -6.4430   22.9265 H   0  0  0  0  0  0  0  0  0  0  0  0
    7.9087   -5.7204   21.4465 H   0  0  0  0  0  0  0  0  0  0  0  0
    9.5503   -3.5906   21.4202 H   0  0  0  0  0  0  0  0  0  0  0  0
    8.4820   -3.7304   22.8173 H   0  0  0  0  0  0  0  0  0  0  0  0
    6.9502   -1.8820   19.3301 H   0  0  0  0  0  0  0  0  0  0  0  0
    8.6253   -2.4261   19.3040 H   0  0  0  0  0  0  0  0  0  0  0  0
    8.4286   -1.2762   23.1333 H   0  0  0  0  0  0  0  0  0  0  0  0
   10.1211   -1.8570   23.0844 H   0  0  0  0  0  0  0  0  0  0  0  0
    8.5700    0.0213   19.6482 H   0  0  0  0  0  0  0  0  0  0  0  0
    7.4938   -0.1568   21.0685 H   0  0  0  0  0  0  0  0  0  0  0  0
    9.2448    0.9891   22.3948 H   0  0  0  0  0  0  0  0  0  0  0  0
   10.2292    1.0996   20.9287 H   0  0  0  0  0  0  0  0  0  0  0  0
    4.2714   -3.9487   22.6857 H   0  0  0  0  0  0  0  0  0  0  0  0
    4.7470   -5.4281   23.4693 H   0  0  0  0  0  0  0  0  0  0  0  0
   10.2261   -1.2568   20.7854 H   0  0  0  0  0  0  0  0  0  0  0  0
  1  2  2  0  0  0  0
  1  3  1  0  0  0  0
  2  7  1  0  0  0  0
  3  8  2  0  0  0  0
  4  6  2  0  0  0  0
  4  9  1  0  0  0  0
  5  7  2  0  0  0  0
  5  8  1  0  0  0  0
  6 23  1  0  0  0  0
  7 17  1  0  0  0  0
  8 24  1  0  0  0  0
  9 18  1  0  0  0  0
  9 19  2  0  0  0  0
 10 11  2  0  0  0  0
 11 12  1  0  0  0  0
 11 18  1  0  0  0  0
 12 20  1  0  0  0  0
 12 22  2  0  0  0  0
 13 15  1  0  0  0  0
 13 20  1  0  0  0  0
 14 16  1  0  0  0  0
 14 20  1  0  0  0  0
 15 21  1  0  0  0  0
 16 21  1  0  0  0  0
 17 21  1  0  0  0  0
 19 23  1  0  0  0  0
  1 25  1  0  0  0  0
  2 26  1  0  0  0  0
  3 27  1  0  0  0  0
  4 28  1  0  0  0  0
  5 29  1  0  0  0  0
  6 30  1  0  0  0  0
 10 31  1  0  0  0  0
 10 32  1  0  0  0  0
 13 33  1  0  0  0  0
 13 34  1  0  0  0  0
 14 35  1  0  0  0  0
 14 36  1  0  0  0  0
 15 37  1  0  0  0  0
 15 38  1  0  0  0  0
 16 39  1  0  0  0  0
 16 40  1  0  0  0  0
 17 41  1  0  0  0  0
 17 42  1  0  0  0  0
 18 43  1  0  0  0  0
 18 44  1  0  0  0  0
 21 45  1  0  0  0  0
M  CHG  1  21   1
M  END
> <Chemgauss4>
-6.222857

> <ref_pdb>
x0708_0

> <original SMILES>
C=C(Cc1ccon1)C(=O)N2CC[NH+](CC2)Cc3cccc(c3)Cl

$$$$
JUA-UNI-bc0-5
  -OEChem-04232002263D

 53 55  0     1  0  0  0  0  0999 V2000
   12.8992    5.0911   23.7249 C   0  0  0  0  0  0  0  0  0  0  0  0
   12.1432    4.7759   24.8539 C   0  0  0  0  0  0  0  0  0  0  0  0
   12.8110    4.2961   22.5821 C   0  0  0  0  0  0  0  0  0  0  0  0
   13.9782   -0.9668   22.2778 C   0  0  0  0  0  0  0  0  0  0  0  0
   13.3681   -1.3660   21.0939 C   0  0  0  0  0  0  0  0  0  0  0  0
    7.4020   -4.0061   22.1142 C   0  0  0  0  0  0  0  0  0  0  0  0
   11.2992    3.6654   24.8402 C   0  0  0  0  0  0  0  0  0  0  0  0
   11.9670    3.1856   22.5685 C   0  0  0  0  0  0  0  0  0  0  0  0
    6.5338   -4.3053   21.0644 C   0  0  0  0  0  0  0  0  0  0  0  0
   13.2131   -0.3991   23.2906 C   0  0  0  0  0  0  0  0  0  0  0  0
    7.7631   -1.8041   21.1879 C   0  0  0  0  0  0  0  0  0  0  0  0
   12.0008   -1.1772   20.9731 C   0  0  0  0  0  0  0  0  0  0  0  0
    8.0167   -2.7554   22.1760 C   0  0  0  0  0  0  0  0  0  0  0  0
   11.2110    2.8703   23.6975 C   0  0  0  0  0  0  0  0  0  0  0  0
    6.8949   -2.1034   20.1380 C   0  0  0  0  0  0  0  0  0  0  0  0
    6.2803   -3.3541   20.0763 C   0  0  0  0  0  0  0  0  0  0  0  0
   11.8527   -0.2534   23.0714 C   0  0  0  0  0  0  0  0  0  0  0  0
    7.0617    2.1242   17.6031 C   0  0  0  0  0  0  0  0  0  0  0  0
    6.6707    0.8726   17.8632 C   0  0  0  0  0  0  0  0  0  0  0  0
    8.9408   -2.4374   23.2949 C   0  0  0  0  0  0  0  0  0  0  0  0
    7.1801    0.1531   19.0666 C   0  0  0  0  0  0  0  0  0  0  0  0
   10.2970    1.6670   23.6822 C   0  0  0  0  0  0  0  0  0  0  0  0
    9.9238   -0.6260   24.6765 C   0  0  0  0  0  0  0  0  0  0  0  0
   10.9834    0.3648   24.1588 C   0  0  1  0  0  0  0  0  0  0  0  0
   11.2246   -0.6293   21.9348 N   0  0  0  0  0  0  0  0  0  0  0  0
    6.6508   -1.1407   19.1558 N   0  0  0  0  0  0  0  0  0  0  0  0
    9.0512   -1.0945   23.6314 N   0  0  0  0  0  0  0  0  0  0  0  0
    9.5602   -3.3479   23.8388 O   0  0  0  0  0  0  0  0  0  0  0  0
    7.9640    0.6876   19.8420 O   0  0  0  0  0  0  0  0  0  0  0  0
    5.4298   -3.6673   19.0581 O   0  0  0  0  0  0  0  0  0  0  0  0
   13.5553    5.9566   23.7352 H   0  0  0  0  0  0  0  0  0  0  0  0
   12.2109    5.3954   25.7433 H   0  0  0  0  0  0  0  0  0  0  0  0
   13.3986    4.5419   21.7026 H   0  0  0  0  0  0  0  0  0  0  0  0
   15.0478   -1.0981   22.4110 H   0  0  0  0  0  0  0  0  0  0  0  0
   13.9448   -1.8109   20.2910 H   0  0  0  0  0  0  0  0  0  0  0  0
    7.5929   -4.7547   22.8790 H   0  0  0  0  0  0  0  0  0  0  0  0
   10.7140    3.4273   25.7246 H   0  0  0  0  0  0  0  0  0  0  0  0
   11.9049    2.5718   21.6738 H   0  0  0  0  0  0  0  0  0  0  0  0
    6.0577   -5.2814   21.0234 H   0  0  0  0  0  0  0  0  0  0  0  0
   13.6768   -0.0836   24.2190 H   0  0  0  0  0  0  0  0  0  0  0  0
    8.2433   -0.8288   21.2372 H   0  0  0  0  0  0  0  0  0  0  0  0
   11.4773   -1.4717   20.0695 H   0  0  0  0  0  0  0  0  0  0  0  0
    6.7129    2.6783   16.7389 H   0  0  0  0  0  0  0  0  0  0  0  0
    7.7557    2.6251   18.2699 H   0  0  0  0  0  0  0  0  0  0  0  0
    5.9767    0.3713   17.1974 H   0  0  0  0  0  0  0  0  0  0  0  0
    9.8720    1.5371   22.6783 H   0  0  0  0  0  0  0  0  0  0  0  0
    9.4410    1.8913   24.3331 H   0  0  0  0  0  0  0  0  0  0  0  0
   10.4057   -1.5146   25.0980 H   0  0  0  0  0  0  0  0  0  0  0  0
    9.2942   -0.1859   25.4566 H   0  0  0  0  0  0  0  0  0  0  0  0
   11.6305    0.6157   25.0115 H   0  0  0  0  0  0  0  0  0  0  0  0
    6.0040   -1.4151   18.4074 H   0  0  0  0  0  0  0  0  0  0  0  0
    8.5513   -0.3927   23.0907 H   0  0  0  0  0  0  0  0  0  0  0  0
    5.0949   -4.5708   19.1682 H   0  0  0  0  0  0  0  0  0  0  0  0
  1  2  1  0  0  0  0
  1  3  2  0  0  0  0
  2  7  2  0  0  0  0
  3  8  1  0  0  0  0
  4  5  1  0  0  0  0
  4 10  2  0  0  0  0
  5 12  2  0  0  0  0
  6  9  2  0  0  0  0
  6 13  1  0  0  0  0
  7 14  1  0  0  0  0
  8 14  2  0  0  0  0
  9 16  1  0  0  0  0
 10 17  1  0  0  0  0
 11 13  2  0  0  0  0
 11 15  1  0  0  0  0
 12 25  1  0  0  0  0
 13 20  1  0  0  0  0
 14 22  1  0  0  0  0
 15 16  2  0  0  0  0
 15 26  1  0  0  0  0
 16 30  1  0  0  0  0
 17 24  1  0  0  0  0
 17 25  2  0  0  0  0
 18 19  2  0  0  0  0
 19 21  1  0  0  0  0
 20 27  1  0  0  0  0
 20 28  2  0  0  0  0
 21 26  1  0  0  0  0
 21 29  2  0  0  0  0
 22 24  1  0  0  0  0
 23 24  1  0  0  0  0
 23 27  1  0  0  0  0
  1 31  1  0  0  0  0
  2 32  1  0  0  0  0
  3 33  1  0  0  0  0
  4 34  1  0  0  0  0
  5 35  1  0  0  0  0
  6 36  1  0  0  0  0
  7 37  1  0  0  0  0
  8 38  1  0  0  0  0
  9 39  1  0  0  0  0
 10 40  1  0  0  0  0
 11 41  1  0  0  0  0
 12 42  1  0  0  0  0
 18 43  1  0  0  0  0
 18 44  1  0  0  0  0
 19 45  1  0  0  0  0
 22 46  1  0  0  0  0
 22 47  1  0  0  0  0
 23 48  1  0  0  0  0
 23 49  1  0  0  0  0
 24 50  1  0  0  0  0
 26 51  1  0  0  0  0
 27 52  1  0  0  0  0
 30 53  1  0  0  0  0
M  END
> <Chemgauss4>
-6.176222

> <ref_pdb>
x0830_0

> <CYS145-warhead min dist (A)>
4.4578795

> <CYS145-warhead avg dist (A)>
5.1410737

> <CYS145-warhead avg dist stderr (A)>
0.010984731

> <original SMILES>
C=CC(=O)Nc1cc(ccc1O)C(=O)NC[C@H](Cc2ccccc2)c3ccccn3

$$$$
SEA-TRI-fac-1
  -OEChem-04232002263D

 57 60  0     1  0  0  0  0  0999 V2000
    9.9629   -4.9499   25.5531 C   0  0  0  0  0  0  0  0  0  0  0  0
   11.5416    0.3717   24.5236 C   0  0  0  0  0  0  0  0  0  0  0  0
   10.2393   -4.0058   24.5637 C   0  0  0  0  0  0  0  0  0  0  0  0
   10.5126   -0.5173   24.2133 C   0  0  0  0  0  0  0  0  0  0  0  0
    8.6451   -5.2720   25.8596 C   0  0  0  0  0  0  0  0  0  0  0  0
   12.6923    0.4089   23.7360 C   0  0  0  0  0  0  0  0  0  0  0  0
   11.7849   -1.3321   22.3280 C   0  0  0  0  0  0  0  0  0  0  0  0
   10.6342   -1.3692   23.1156 C   0  0  0  0  0  0  0  0  0  0  0  0
    9.1998   -3.3558   23.8750 C   0  0  0  0  0  0  0  0  0  0  0  0
    7.8670   -3.7203   24.1592 C   0  0  0  0  0  0  0  0  0  0  0  0
    7.6022   -4.6622   25.1656 C   0  0  0  0  0  0  0  0  0  0  0  0
   12.8140   -0.4430   22.6383 C   0  0  0  0  0  0  0  0  0  0  0  0
    6.4271   -2.6611   21.0014 C   0  0  0  0  0  0  0  0  0  0  0  0
    6.7048   -3.1017   23.4221 C   0  0  0  0  0  0  0  0  0  0  0  0
    8.2658   -1.5398   22.3484 C   0  0  0  0  0  0  0  0  0  0  0  0
    2.2615   -5.5086   25.4455 C   0  0  0  0  0  0  0  0  0  0  0  0
    3.5123   -6.3271   23.4589 C   0  0  0  0  0  0  0  0  0  0  0  0
    1.4651   -4.6254   24.5000 C   0  0  0  0  0  0  0  0  0  0  0  0
    2.6509   -5.4021   22.6158 C   0  0  0  0  0  0  0  0  0  0  0  0
    9.5108   -2.3405   22.7782 C   0  0  1  0  0  0  0  0  0  0  0  0
    6.9281   -1.9323   19.7801 C   0  0  0  0  0  0  0  0  0  0  0  0
    4.5088   -6.5611   25.7386 C   0  0  0  0  0  0  0  0  0  0  0  0
    5.9561   -6.3708   25.3297 C   0  0  0  0  0  0  0  0  0  0  0  0
    7.1195   -2.4346   22.1897 N   0  0  0  0  0  0  0  0  0  0  0  0
    3.6284   -5.7362   24.8443 N   0  3  0  0  0  0  0  0  0  0  0  0
    5.4521   -3.4099   20.9002 O   0  0  0  0  0  0  0  0  0  0  0  0
    1.3637   -5.2343   23.2119 O   0  0  0  0  0  0  0  0  0  0  0  0
    6.3198   -5.0016   25.4854 O   0  0  0  0  0  0  0  0  0  0  0  0
   14.2344   -0.3975   21.6677 Cl  0  0  0  0  0  0  0  0  0  0  0  0
    5.9012   -2.4307   18.4407 Cl  0  0  0  0  0  0  0  0  0  0  0  0
   10.7788   -5.4346   26.0823 H   0  0  0  0  0  0  0  0  0  0  0  0
   11.4466    1.0348   25.3786 H   0  0  0  0  0  0  0  0  0  0  0  0
   11.2777   -3.7782   24.3271 H   0  0  0  0  0  0  0  0  0  0  0  0
    9.6196   -0.5395   24.8326 H   0  0  0  0  0  0  0  0  0  0  0  0
    8.4365   -5.9988   26.6395 H   0  0  0  0  0  0  0  0  0  0  0  0
   13.4865    1.1067   23.9899 H   0  0  0  0  0  0  0  0  0  0  0  0
   11.8748   -1.9980   21.4729 H   0  0  0  0  0  0  0  0  0  0  0  0
    6.0012   -3.8828   23.1373 H   0  0  0  0  0  0  0  0  0  0  0  0
    6.2122   -2.3899   24.0774 H   0  0  0  0  0  0  0  0  0  0  0  0
    8.0512   -0.7445   23.0596 H   0  0  0  0  0  0  0  0  0  0  0  0
    8.4373   -1.0795   21.3738 H   0  0  0  0  0  0  0  0  0  0  0  0
    2.4007   -5.0279   26.4165 H   0  0  0  0  0  0  0  0  0  0  0  0
    1.7964   -6.4911   25.5656 H   0  0  0  0  0  0  0  0  0  0  0  0
    3.0540   -7.3139   23.5698 H   0  0  0  0  0  0  0  0  0  0  0  0
    4.5211   -6.4154   23.0492 H   0  0  0  0  0  0  0  0  0  0  0  0
    0.4485   -4.4963   24.8847 H   0  0  0  0  0  0  0  0  0  0  0  0
    1.9095   -3.6275   24.4042 H   0  0  0  0  0  0  0  0  0  0  0  0
    3.1238   -4.4230   22.4741 H   0  0  0  0  0  0  0  0  0  0  0  0
    2.5004   -5.8409   21.6245 H   0  0  0  0  0  0  0  0  0  0  0  0
    9.8509   -2.8996   21.8693 H   0  0  0  0  0  0  0  0  0  0  0  0
    7.9541   -2.2265   19.5927 H   0  0  0  0  0  0  0  0  0  0  0  0
    6.8338   -0.8655   19.9454 H   0  0  0  0  0  0  0  0  0  0  0  0
    4.3202   -6.2170   26.7594 H   0  0  0  0  0  0  0  0  0  0  0  0
    4.1889   -7.5999   25.6220 H   0  0  0  0  0  0  0  0  0  0  0  0
    6.6065   -6.9684   25.9760 H   0  0  0  0  0  0  0  0  0  0  0  0
    6.1250   -6.6678   24.2895 H   0  0  0  0  0  0  0  0  0  0  0  0
    4.0781   -4.8138   24.7471 H   0  0  0  0  0  0  0  0  0  0  0  0
  1  3  2  0  0  0  0
  1  5  1  0  0  0  0
  2  4  2  0  0  0  0
  2  6  1  0  0  0  0
  3  9  1  0  0  0  0
  4  8  1  0  0  0  0
  5 11  2  0  0  0  0
  6 12  2  0  0  0  0
  7  8  2  0  0  0  0
  7 12  1  0  0  0  0
  8 20  1  0  0  0  0
  9 10  2  0  0  0  0
  9 20  1  0  0  0  0
 10 11  1  0  0  0  0
 10 14  1  0  0  0  0
 11 28  1  0  0  0  0
 12 29  1  0  0  0  0
 13 21  1  0  0  0  0
 13 24  1  0  0  0  0
 13 26  2  0  0  0  0
 14 24  1  0  0  0  0
 15 20  1  0  0  0  0
 15 24  1  0  0  0  0
 16 18  1  0  0  0  0
 16 25  1  0  0  0  0
 17 19  1  0  0  0  0
 17 25  1  0  0  0  0
 18 27  1  0  0  0  0
 19 27  1  0  0  0  0
 21 30  1  0  0  0  0
 22 23  1  0  0  0  0
 22 25  1  0  0  0  0
 23 28  1  0  0  0  0
  1 31  1  0  0  0  0
  2 32  1  0  0  0  0
  3 33  1  0  0  0  0
  4 34  1  0  0  0  0
  5 35  1  0  0  0  0
  6 36  1  0  0  0  0
  7 37  1  0  0  0  0
 14 38  1  0  0  0  0
 14 39  1  0  0  0  0
 15 40  1  0  0  0  0
 15 41  1  0  0  0  0
 16 42  1  0  0  0  0
 16 43  1  0  0  0  0
 17 44  1  0  0  0  0
 17 45  1  0  0  0  0
 18 46  1  0  0  0  0
 18 47  1  0  0  0  0
 19 48  1  0  0  0  0
 19 49  1  0  0  0  0
 20 50  1  0  0  0  0
 21 51  1  0  0  0  0
 21 52  1  0  0  0  0
 22 53  1  0  0  0  0
 22 54  1  0  0  0  0
 23 55  1  0  0  0  0
 23 56  1  0  0  0  0
 25 57  1  0  0  0  0
M  CHG  1  25   1
M  END
> <Chemgauss4>
-6.164674

> <ref_pdb>
x1392_0

> <CYS145-warhead min dist (A)>
2.8423178

> <CYS145-warhead avg dist (A)>
3.4057596

> <CYS145-warhead avg dist stderr (A)>
0.013977884

> <original SMILES>
c1cc(cc(c1)Cl)[C@@H]2CN(Cc3c2cccc3OCC[NH+]4CCOCC4)C(=O)CCl

$$$$
TOB-UNK-c2a-2
  -OEChem-04232002263D

 28 28  0     0  0  0  0  0  0999 V2000
   12.8475   -1.7147   24.6174 C   0  0  0  0  0  0  0  0  0  0  0  0
   11.9299   -2.4293   24.9152 C   0  0  0  0  0  0  0  0  0  0  0  0
    5.5002   -5.4504   23.8272 C   0  0  0  0  0  0  0  0  0  0  0  0
    5.7609   -5.6078   22.5277 C   0  0  0  0  0  0  0  0  0  0  0  0
    6.6421   -4.6332   21.8539 C   0  0  0  0  0  0  0  0  0  0  0  0
    8.7495   -5.5443   22.9729 C   0  0  0  0  0  0  0  0  0  0  0  0
    8.6413   -3.2225   22.1448 C   0  0  0  0  0  0  0  0  0  0  0  0
    9.3505   -5.0555   24.2855 C   0  0  0  0  0  0  0  0  0  0  0  0
    9.2237   -2.7085   23.4519 C   0  0  0  0  0  0  0  0  0  0  0  0
   10.8145   -3.2977   25.2830 C   0  0  0  0  0  0  0  0  0  0  0  0
    7.9437   -4.4967   22.3303 N   0  0  0  0  0  0  0  0  0  0  0  0
   10.1145   -3.7762   24.0423 N   0  3  0  0  0  0  0  0  0  0  0  0
    6.1723   -4.0016   20.9059 O   0  0  0  0  0  0  0  0  0  0  0  0
   13.6612   -1.0809   24.3526 H   0  0  0  0  0  0  0  0  0  0  0  0
    4.8607   -6.1331   24.3767 H   0  0  0  0  0  0  0  0  0  0  0  0
    5.9326   -4.6179   24.3720 H   0  0  0  0  0  0  0  0  0  0  0  0
    5.3488   -6.4253   21.9507 H   0  0  0  0  0  0  0  0  0  0  0  0
    9.5384   -5.8286   22.2666 H   0  0  0  0  0  0  0  0  0  0  0  0
    8.1601   -6.4372   23.1844 H   0  0  0  0  0  0  0  0  0  0  0  0
    7.9691   -2.4685   21.7230 H   0  0  0  0  0  0  0  0  0  0  0  0
    9.4363   -3.3909   21.4081 H   0  0  0  0  0  0  0  0  0  0  0  0
    8.5791   -4.8493   25.0361 H   0  0  0  0  0  0  0  0  0  0  0  0
   10.0601   -5.7898   24.6806 H   0  0  0  0  0  0  0  0  0  0  0  0
    9.8452   -1.8245   23.2764 H   0  0  0  0  0  0  0  0  0  0  0  0
    8.4454   -2.4724   24.1862 H   0  0  0  0  0  0  0  0  0  0  0  0
   10.0672   -2.7718   25.8832 H   0  0  0  0  0  0  0  0  0  0  0  0
   11.1498   -4.1895   25.8193 H   0  0  0  0  0  0  0  0  0  0  0  0
   10.8495   -3.9821   23.3518 H   0  0  0  0  0  0  0  0  0  0  0  0
  1  2  3  0  0  0  0
  2 10  1  0  0  0  0
  3  4  2  0  0  0  0
  4  5  1  0  0  0  0
  5 11  1  0  0  0  0
  5 13  2  0  0  0  0
  6  8  1  0  0  0  0
  6 11  1  0  0  0  0
  7  9  1  0  0  0  0
  7 11  1  0  0  0  0
  8 12  1  0  0  0  0
  9 12  1  0  0  0  0
 10 12  1  0  0  0  0
  1 14  1  0  0  0  0
  3 15  1  0  0  0  0
  3 16  1  0  0  0  0
  4 17  1  0  0  0  0
  6 18  1  0  0  0  0
  6 19  1  0  0  0  0
  7 20  1  0  0  0  0
  7 21  1  0  0  0  0
  8 22  1  0  0  0  0
  8 23  1  0  0  0  0
  9 24  1  0  0  0  0
  9 25  1  0  0  0  0
 10 26  1  0  0  0  0
 10 27  1  0  0  0  0
 12 28  1  0  0  0  0
M  CHG  1  12   1
M  END
> <Chemgauss4>
-6.150137

> <ref_pdb>
x0749_0

> <CYS145-warhead min dist (A)>
5.838132

> <CYS145-warhead avg dist (A)>
7.5931334

> <CYS145-warhead avg dist stderr (A)>
0.048129108

> <original SMILES>
C=CC(=O)N1CC[NH+](CC1)CC#C

$$$$
MAK-UNK-e4a-2_thio_pH
  -OEChem-04232002263D

 50 51  0     1  0  0  0  0  0999 V2000
    7.0300   -5.4876   26.2572 C   0  0  0  0  0  0  0  0  0  0  0  0
    6.1645   -4.5416   25.7082 C   0  0  0  0  0  0  0  0  0  0  0  0
    8.4011   -5.2349   26.3031 C   0  0  0  0  0  0  0  0  0  0  0  0
    6.6700   -3.3429   25.2048 C   0  0  0  0  0  0  0  0  0  0  0  0
    8.9066   -4.0363   25.7997 C   0  0  0  0  0  0  0  0  0  0  0  0
    8.0411   -3.0902   25.2506 C   0  0  0  0  0  0  0  0  0  0  0  0
    6.1203   -1.3668   19.0472 C   0  0  0  0  0  0  0  0  0  0  0  0
   10.1028   -0.0446   24.6941 C   0  0  0  0  0  0  0  0  0  0  0  0
    7.0932   -2.4098   21.0688 C   0  0  0  0  0  0  0  0  0  0  0  0
    7.4906   -0.0055   20.7017 C   0  0  0  0  0  0  0  0  0  0  0  0
    8.5739   -2.6345   21.3381 C   0  0  0  0  0  0  0  0  0  0  0  0
    8.9781   -0.1938   20.9675 C   0  0  0  0  0  0  0  0  0  0  0  0
   11.8320    1.7409   24.7355 C   0  0  0  0  0  0  0  0  0  0  0  0
    5.9590   -0.1215   18.2124 C   0  0  0  0  0  0  0  0  0  0  0  0
   10.6846   -2.2768   23.6227 C   0  0  0  0  0  0  0  0  0  0  0  0
   10.6127   -1.5465   22.2841 C   0  0  0  0  0  0  0  0  0  0  0  0
    9.9491   -1.5587   24.7612 C   0  0  2  0  0  0  0  0  0  0  0  0
    6.8863   -1.2467   20.2059 N   0  0  0  0  0  0  0  0  0  0  0  0
    8.5429   -1.9012   24.7515 N   0  0  0  0  0  0  0  0  0  0  0  0
   11.4291    0.3543   24.7742 N   0  0  0  0  0  0  0  0  0  0  0  0
    9.1699   -1.3652   21.9047 N   0  3  0  0  0  0  0  0  0  0  0  0
    5.5831   -2.4141   18.6778 O   0  0  0  0  0  0  0  0  0  0  0  0
    9.1459    0.7193   24.5840 O   0  0  0  0  0  0  0  0  0  0  0  0
    4.9894   -0.5740   16.8149 Cl  0  0  0  0  0  0  0  0  0  0  0  0
    6.6363   -6.4211   26.6490 H   0  0  0  0  0  0  0  0  0  0  0  0
    5.0973   -4.7384   25.6725 H   0  0  0  0  0  0  0  0  0  0  0  0
    9.0750   -5.9718   26.7307 H   0  0  0  0  0  0  0  0  0  0  0  0
    5.9871   -2.6123   24.7789 H   0  0  0  0  0  0  0  0  0  0  0  0
    9.9769   -3.8502   25.8410 H   0  0  0  0  0  0  0  0  0  0  0  0
    6.6632   -3.3095   20.6175 H   0  0  0  0  0  0  0  0  0  0  0  0
    6.5519   -2.2258   22.0049 H   0  0  0  0  0  0  0  0  0  0  0  0
    6.9651    0.2655   21.6255 H   0  0  0  0  0  0  0  0  0  0  0  0
    7.3544    0.8214   20.0027 H   0  0  0  0  0  0  0  0  0  0  0  0
    8.7159   -3.4230   22.0841 H   0  0  0  0  0  0  0  0  0  0  0  0
    9.1243   -2.8865   20.4246 H   0  0  0  0  0  0  0  0  0  0  0  0
    9.5359   -0.4034   20.0480 H   0  0  0  0  0  0  0  0  0  0  0  0
    9.3968    0.6897   21.4600 H   0  0  0  0  0  0  0  0  0  0  0  0
   12.0554    2.0296   23.6979 H   0  0  0  0  0  0  0  0  0  0  0  0
   11.0176    2.3702   25.1238 H   0  0  0  0  0  0  0  0  0  0  0  0
   12.7298    1.8791   25.3559 H   0  0  0  0  0  0  0  0  0  0  0  0
    6.9381    0.2163   17.8923 H   0  0  0  0  0  0  0  0  0  0  0  0
    5.4409    0.6293   18.7978 H   0  0  0  0  0  0  0  0  0  0  0  0
   10.2612   -3.2833   23.5059 H   0  0  0  0  0  0  0  0  0  0  0  0
   11.7380   -2.4134   23.8992 H   0  0  0  0  0  0  0  0  0  0  0  0
   11.0504   -0.5455   22.3311 H   0  0  0  0  0  0  0  0  0  0  0  0
   11.0777   -2.1155   21.4743 H   0  0  0  0  0  0  0  0  0  0  0  0
   10.3672   -1.8954   25.7178 H   0  0  0  0  0  0  0  0  0  0  0  0
    7.8946   -1.2306   24.3582 H   0  0  0  0  0  0  0  0  0  0  0  0
   12.1543   -0.3452   24.9030 H   0  0  0  0  0  0  0  0  0  0  0  0
    8.6635   -1.1486   22.7744 H   0  0  0  0  0  0  0  0  0  0  0  0
  1  2  1  0  0  0  0
  1  3  2  0  0  0  0
  2  4  2  0  0  0  0
  3  5  1  0  0  0  0
  4  6  1  0  0  0  0
  5  6  2  0  0  0  0
  6 19  1  0  0  0  0
  7 14  1  0  0  0  0
  7 18  1  0  0  0  0
  7 22  2  0  0  0  0
  8 17  1  0  0  0  0
  8 20  1  0  0  0  0
  8 23  2  0  0  0  0
  9 11  1  0  0  0  0
  9 18  1  0  0  0  0
 10 12  1  0  0  0  0
 10 18  1  0  0  0  0
 11 21  1  0  0  0  0
 12 21  1  0  0  0  0
 13 20  1  0  0  0  0
 14 24  1  0  0  0  0
 15 16  1  0  0  0  0
 15 17  1  0  0  0  0
 16 21  1  0  0  0  0
 17 19  1  0  0  0  0
  1 25  1  0  0  0  0
  2 26  1  0  0  0  0
  3 27  1  0  0  0  0
  4 28  1  0  0  0  0
  5 29  1  0  0  0  0
  9 30  1  0  0  0  0
  9 31  1  0  0  0  0
 10 32  1  0  0  0  0
 10 33  1  0  0  0  0
 11 34  1  0  0  0  0
 11 35  1  0  0  0  0
 12 36  1  0  0  0  0
 12 37  1  0  0  0  0
 13 38  1  0  0  0  0
 13 39  1  0  0  0  0
 13 40  1  0  0  0  0
 14 41  1  0  0  0  0
 14 42  1  0  0  0  0
 15 43  1  0  0  0  0
 15 44  1  0  0  0  0
 16 45  1  0  0  0  0
 16 46  1  0  0  0  0
 17 47  1  0  0  0  0
 19 48  1  0  0  0  0
 20 49  1  0  0  0  0
 21 50  1  0  0  0  0
M  CHG  1  21   1
M  END
> <Chemgauss4>
-6.114532

> <ref_pdb>
x1392_0

> <CYS145-warhead min dist (A)>
6.713224

> <CYS145-warhead avg dist (A)>
7.154376

> <CYS145-warhead avg dist stderr (A)>
0.030369667

> <original SMILES>
CNC(=O)[C@H](CC[NH+]1CCN(CC1)C(=O)CCl)Nc2ccccc2

$$$$
STU-CHA-073-1
  -OEChem-04232002263D

 49 51  0     0  0  0  0  0  0999 V2000
    6.1615    0.9975   21.8200 C   0  0  0  0  0  0  0  0  0  0  0  0
    6.6176    0.0025   22.6845 C   0  0  0  0  0  0  0  0  0  0  0  0
    6.2981    0.8395   20.4408 C   0  0  0  0  0  0  0  0  0  0  0  0
    7.3471   -1.3086   20.7908 C   0  0  0  0  0  0  0  0  0  0  0  0
    7.2105   -1.1505   22.1700 C   0  0  0  0  0  0  0  0  0  0  0  0
    6.8909   -0.3135   19.9263 C   0  0  0  0  0  0  0  0  0  0  0  0
    5.0887   -3.8732   22.6481 C   0  0  0  0  0  0  0  0  0  0  0  0
   12.2627    0.8099   23.8982 C   0  0  0  0  0  0  0  0  0  0  0  0
    7.7235   -3.7741   22.6752 C   0  0  0  0  0  0  0  0  0  0  0  0
    6.8003   -2.7671   24.3195 C   0  0  0  0  0  0  0  0  0  0  0  0
   10.4059   -0.3353   25.0652 C   0  0  0  0  0  0  0  0  0  0  0  0
   11.4713   -1.4945   23.1693 C   0  0  0  0  0  0  0  0  0  0  0  0
    9.0260   -0.6209   24.4911 C   0  0  0  0  0  0  0  0  0  0  0  0
   10.1063   -1.7994   22.5672 C   0  0  0  0  0  0  0  0  0  0  0  0
    6.3972   -3.9781   23.4450 C   0  0  0  0  0  0  0  0  0  0  0  0
    7.7302   -2.2888   23.1590 C   0  0  0  0  0  0  0  0  0  0  0  0
    7.0371   -0.4816   18.4517 C   0  0  0  0  0  0  0  0  0  0  0  0
   11.7084    2.1350   24.3571 C   0  0  0  0  0  0  0  0  0  0  0  0
   11.4165   -0.2926   24.0083 N   0  0  0  0  0  0  0  0  0  0  0  0
    3.9608   -3.8550   23.4340 N   0  0  0  0  0  0  0  0  0  0  0  0
    9.0844   -1.8948   23.6780 N   0  3  0  0  0  0  0  0  0  0  0  0
    5.0755   -3.7964   21.4220 O   0  0  0  0  0  0  0  0  0  0  0  0
   13.4139    0.7579   23.4578 O   0  0  0  0  0  0  0  0  0  0  0  0
   10.3103    2.4746   23.3433 Cl  0  0  0  0  0  0  0  0  0  0  0  0
    5.6995    1.8953   22.2204 H   0  0  0  0  0  0  0  0  0  0  0  0
    6.5087    0.1328   23.7579 H   0  0  0  0  0  0  0  0  0  0  0  0
    5.9406    1.6208   19.7752 H   0  0  0  0  0  0  0  0  0  0  0  0
    7.8108   -2.2072   20.3916 H   0  0  0  0  0  0  0  0  0  0  0  0
    8.5564   -4.3931   23.0153 H   0  0  0  0  0  0  0  0  0  0  0  0
    7.6304   -3.8865   21.5901 H   0  0  0  0  0  0  0  0  0  0  0  0
    5.9750   -2.0816   24.5378 H   0  0  0  0  0  0  0  0  0  0  0  0
    7.2966   -3.0191   25.2593 H   0  0  0  0  0  0  0  0  0  0  0  0
   10.3839    0.6079   25.6200 H   0  0  0  0  0  0  0  0  0  0  0  0
   10.7014   -1.1204   25.7718 H   0  0  0  0  0  0  0  0  0  0  0  0
   11.8047   -2.3217   23.8076 H   0  0  0  0  0  0  0  0  0  0  0  0
   12.2027   -1.3970   22.3652 H   0  0  0  0  0  0  0  0  0  0  0  0
    8.2972   -0.7787   25.2931 H   0  0  0  0  0  0  0  0  0  0  0  0
    8.6878    0.1907   23.8364 H   0  0  0  0  0  0  0  0  0  0  0  0
    9.7889   -1.0117   21.8738 H   0  0  0  0  0  0  0  0  0  0  0  0
   10.1174   -2.7650   22.0508 H   0  0  0  0  0  0  0  0  0  0  0  0
    6.4032   -4.9130   24.0217 H   0  0  0  0  0  0  0  0  0  0  0  0
    7.9954   -0.0688   18.1133 H   0  0  0  0  0  0  0  0  0  0  0  0
    6.9938   -1.5404   18.1650 H   0  0  0  0  0  0  0  0  0  0  0  0
    6.2286    0.0271   17.9105 H   0  0  0  0  0  0  0  0  0  0  0  0
   12.4641    2.8996   24.2171 H   0  0  0  0  0  0  0  0  0  0  0  0
   11.4044    2.0486   25.3940 H   0  0  0  0  0  0  0  0  0  0  0  0
    4.0683   -3.9099   24.4415 H   0  0  0  0  0  0  0  0  0  0  0  0
    3.0250   -3.7890   23.0469 H   0  0  0  0  0  0  0  0  0  0  0  0
    9.4208   -2.6684   24.3407 H   0  0  0  0  0  0  0  0  0  0  0  0
  1  2  1  0  0  0  0
  1  3  2  0  0  0  0
  2  5  2  0  0  0  0
  3  6  1  0  0  0  0
  4  5  1  0  0  0  0
  4  6  2  0  0  0  0
  5 16  1  0  0  0  0
  6 17  1  0  0  0  0
  7 15  1  0  0  0  0
  7 20  1  0  0  0  0
  7 22  2  0  0  0  0
  8 18  1  0  0  0  0
  8 19  1  0  0  0  0
  8 23  2  0  0  0  0
  9 15  1  0  0  0  0
  9 16  1  0  0  0  0
 10 15  1  0  0  0  0
 10 16  1  0  0  0  0
 11 13  1  0  0  0  0
 11 19  1  0  0  0  0
 12 14  1  0  0  0  0
 12 19  1  0  0  0  0
 13 21  1  0  0  0  0
 14 21  1  0  0  0  0
 16 21  1  0  0  0  0
 18 24  1  0  0  0  0
  1 25  1  0  0  0  0
  2 26  1  0  0  0  0
  3 27  1  0  0  0  0
  4 28  1  0  0  0  0
  9 29  1  0  0  0  0
  9 30  1  0  0  0  0
 10 31  1  0  0  0  0
 10 32  1  0  0  0  0
 11 33  1  0  0  0  0
 11 34  1  0  0  0  0
 12 35  1  0  0  0  0
 12 36  1  0  0  0  0
 13 37  1  0  0  0  0
 13 38  1  0  0  0  0
 14 39  1  0  0  0  0
 14 40  1  0  0  0  0
 15 41  1  0  0  0  0
 17 42  1  0  0  0  0
 17 43  1  0  0  0  0
 17 44  1  0  0  0  0
 18 45  1  0  0  0  0
 18 46  1  0  0  0  0
 20 47  1  0  0  0  0
 20 48  1  0  0  0  0
 21 49  1  0  0  0  0
M  CHG  1  21   1
M  END
> <Chemgauss4>
-6.104793

> <ref_pdb>
x0830_0

> <CYS145-warhead min dist (A)>
7.963329

> <CYS145-warhead avg dist (A)>
9.8114605

> <CYS145-warhead avg dist stderr (A)>
0.03402276

> <original SMILES>
Cc1cccc(c1)C2(CC(C2)C(=O)N)[NH+]3CCN(CC3)C(=O)CCl

$$$$
STU-CHA-6ca-1
  -OEChem-04232002263D

 55 57  0     0  0  0  0  0  0999 V2000
    6.7373   -5.2595   22.0450 C   0  0  0  0  0  0  0  0  0  0  0  0
    7.3433   -6.5147   21.9916 C   0  0  0  0  0  0  0  0  0  0  0  0
    8.6630   -5.9605   23.9380 C   0  0  0  0  0  0  0  0  0  0  0  0
    7.0942   -4.3547   23.0448 C   0  0  0  0  0  0  0  0  0  0  0  0
    8.0570   -4.7052   23.9913 C   0  0  0  0  0  0  0  0  0  0  0  0
    8.3061   -6.8652   22.9380 C   0  0  0  0  0  0  0  0  0  0  0  0
   13.1240   -0.9490   24.0333 C   0  0  0  0  0  0  0  0  0  0  0  0
    6.3387   -2.0247   20.8083 C   0  0  0  0  0  0  0  0  0  0  0  0
   11.0986   -1.9235   22.9994 C   0  0  0  0  0  0  0  0  0  0  0  0
   10.8520   -0.7669   25.1615 C   0  0  0  0  0  0  0  0  0  0  0  0
    6.3868   -0.9575   18.5758 C   0  0  0  0  0  0  0  0  0  0  0  0
    8.2143   -0.4112   20.1382 C   0  0  0  0  0  0  0  0  0  0  0  0
   10.3085   -3.1140   23.5228 C   0  0  0  0  0  0  0  0  0  0  0  0
   10.0561   -1.9401   25.7172 C   0  0  0  0  0  0  0  0  0  0  0  0
    6.3607    0.5085   18.1731 C   0  0  0  0  0  0  0  0  0  0  0  0
    8.1196    1.0283   19.6439 C   0  0  0  0  0  0  0  0  0  0  0  0
    6.4327   -3.0163   23.0817 C   0  0  0  0  0  0  0  0  0  0  0  0
    8.4581   -3.7481   25.0749 C   0  0  0  0  0  0  0  0  0  0  0  0
   13.7230   -0.2082   25.2021 C   0  0  0  0  0  0  0  0  0  0  0  0
   11.7552   -1.2066   24.0926 N   0  0  0  0  0  0  0  0  0  0  0  0
    6.9475   -1.1236   19.9187 N   0  0  0  0  0  0  0  0  0  0  0  0
    6.9369   -2.1276   22.0588 N   0  0  0  0  0  0  0  0  0  0  0  0
    9.3399   -2.6358   24.5813 N   0  3  0  0  0  0  0  0  0  0  0  0
   13.8528   -1.2897   23.0980 O   0  0  0  0  0  0  0  0  0  0  0  0
    5.3423   -2.6907   20.5082 O   0  0  0  0  0  0  0  0  0  0  0  0
    7.6694    1.0701   18.2893 O   0  0  0  0  0  0  0  0  0  0  0  0
    9.0546   -8.4131   22.8707 Cl  0  0  0  0  0  0  0  0  0  0  0  0
   14.1998   -1.4263   26.3797 Cl  0  0  0  0  0  0  0  0  0  0  0  0
    5.9886   -4.9960   21.3026 H   0  0  0  0  0  0  0  0  0  0  0  0
    7.0561   -7.2087   21.2057 H   0  0  0  0  0  0  0  0  0  0  0  0
    9.4144   -6.2287   24.6774 H   0  0  0  0  0  0  0  0  0  0  0  0
   11.8329   -2.2670   22.2640 H   0  0  0  0  0  0  0  0  0  0  0  0
   10.4371   -1.2123   22.4898 H   0  0  0  0  0  0  0  0  0  0  0  0
   10.1801   -0.0148   24.7305 H   0  0  0  0  0  0  0  0  0  0  0  0
   11.3917   -0.2828   25.9772 H   0  0  0  0  0  0  0  0  0  0  0  0
    5.3838   -1.3888   18.5073 H   0  0  0  0  0  0  0  0  0  0  0  0
    7.0413   -1.5208   17.8997 H   0  0  0  0  0  0  0  0  0  0  0  0
    8.9774   -0.9579   19.5723 H   0  0  0  0  0  0  0  0  0  0  0  0
    8.5051   -0.3998   21.1895 H   0  0  0  0  0  0  0  0  0  0  0  0
    9.7176   -3.5685   22.7210 H   0  0  0  0  0  0  0  0  0  0  0  0
   10.9580   -3.8705   23.9775 H   0  0  0  0  0  0  0  0  0  0  0  0
   10.7006   -2.6764   26.2102 H   0  0  0  0  0  0  0  0  0  0  0  0
    9.2919   -1.5901   26.4187 H   0  0  0  0  0  0  0  0  0  0  0  0
    6.0514    0.6021   17.1274 H   0  0  0  0  0  0  0  0  0  0  0  0
    5.6531    1.0834   18.7823 H   0  0  0  0  0  0  0  0  0  0  0  0
    7.4479    1.6238   20.2739 H   0  0  0  0  0  0  0  0  0  0  0  0
    9.1078    1.4978   19.6796 H   0  0  0  0  0  0  0  0  0  0  0  0
    5.3482   -3.1086   22.9353 H   0  0  0  0  0  0  0  0  0  0  0  0
    6.5827   -2.5215   24.0503 H   0  0  0  0  0  0  0  0  0  0  0  0
    7.5812   -3.2757   25.5304 H   0  0  0  0  0  0  0  0  0  0  0  0
    9.0120   -4.2597   25.8694 H   0  0  0  0  0  0  0  0  0  0  0  0
   12.9699    0.4456   25.6271 H   0  0  0  0  0  0  0  0  0  0  0  0
   14.5931    0.3412   24.8614 H   0  0  0  0  0  0  0  0  0  0  0  0
    7.7523   -1.5635   22.2635 H   0  0  0  0  0  0  0  0  0  0  0  0
    8.7187   -1.9436   24.1402 H   0  0  0  0  0  0  0  0  0  0  0  0
  1  2  2  0  0  0  0
  1  4  1  0  0  0  0
  2  6  1  0  0  0  0
  3  5  1  0  0  0  0
  3  6  2  0  0  0  0
  4  5  2  0  0  0  0
  4 17  1  0  0  0  0
  5 18  1  0  0  0  0
  6 27  1  0  0  0  0
  7 19  1  0  0  0  0
  7 20  1  0  0  0  0
  7 24  2  0  0  0  0
  8 21  1  0  0  0  0
  8 22  1  0  0  0  0
  8 25  2  0  0  0  0
  9 13  1  0  0  0  0
  9 20  1  0  0  0  0
 10 14  1  0  0  0  0
 10 20  1  0  0  0  0
 11 15  1  0  0  0  0
 11 21  1  0  0  0  0
 12 16  1  0  0  0  0
 12 21  1  0  0  0  0
 13 23  1  0  0  0  0
 14 23  1  0  0  0  0
 15 26  1  0  0  0  0
 16 26  1  0  0  0  0
 17 22  1  0  0  0  0
 18 23  1  0  0  0  0
 19 28  1  0  0  0  0
  1 29  1  0  0  0  0
  2 30  1  0  0  0  0
  3 31  1  0  0  0  0
  9 32  1  0  0  0  0
  9 33  1  0  0  0  0
 10 34  1  0  0  0  0
 10 35  1  0  0  0  0
 11 36  1  0  0  0  0
 11 37  1  0  0  0  0
 12 38  1  0  0  0  0
 12 39  1  0  0  0  0
 13 40  1  0  0  0  0
 13 41  1  0  0  0  0
 14 42  1  0  0  0  0
 14 43  1  0  0  0  0
 15 44  1  0  0  0  0
 15 45  1  0  0  0  0
 16 46  1  0  0  0  0
 16 47  1  0  0  0  0
 17 48  1  0  0  0  0
 17 49  1  0  0  0  0
 18 50  1  0  0  0  0
 18 51  1  0  0  0  0
 19 52  1  0  0  0  0
 19 53  1  0  0  0  0
 22 54  1  0  0  0  0
 23 55  1  0  0  0  0
M  CHG  1  23   1
M  END
> <Chemgauss4>
-6.094482

> <ref_pdb>
x0749_0

> <CYS145-warhead min dist (A)>
4.0237064

> <CYS145-warhead avg dist (A)>
6.3335376

> <CYS145-warhead avg dist stderr (A)>
0.06793872

> <original SMILES>
c1cc(c(cc1Cl)C[NH+]2CCN(CC2)C(=O)CCl)CNC(=O)N3CCOCC3

$$$$
BEN-DND-031-1
  -OEChem-04232002263D

 48 50  0     1  0  0  0  0  0999 V2000
   11.9851    5.2416   24.5991 C   0  0  0  0  0  0  0  0  0  0  0  0
   12.9131    4.3792   24.0154 C   0  0  0  0  0  0  0  0  0  0  0  0
   10.8162    4.7303   25.1630 C   0  0  0  0  0  0  0  0  0  0  0  0
    6.2515    0.9591   21.4358 C   0  0  0  0  0  0  0  0  0  0  0  0
    6.0897   -0.4173   21.3233 C   0  0  0  0  0  0  0  0  0  0  0  0
   12.6721    3.0054   23.9954 C   0  0  0  0  0  0  0  0  0  0  0  0
   10.5752    3.3565   25.1430 C   0  0  0  0  0  0  0  0  0  0  0  0
    7.2037    1.5678   20.6343 C   0  0  0  0  0  0  0  0  0  0  0  0
    7.7982   -0.4304   19.6689 C   0  0  0  0  0  0  0  0  0  0  0  0
    6.8740   -1.1328   20.4254 C   0  0  0  0  0  0  0  0  0  0  0  0
   11.5032    2.4941   24.5592 C   0  0  0  0  0  0  0  0  0  0  0  0
   10.1559    0.4280   25.0494 C   0  0  0  0  0  0  0  0  0  0  0  0
    7.3063   -3.0643   22.6528 C   0  0  0  0  0  0  0  0  0  0  0  0
    9.0814   -1.7791   25.4563 C   0  0  0  0  0  0  0  0  0  0  0  0
   10.4306   -1.3774   23.3393 C   0  0  0  0  0  0  0  0  0  0  0  0
    7.8098   -1.6504   24.6196 C   0  0  0  0  0  0  0  0  0  0  0  0
    9.1158   -1.2799   22.5644 C   0  0  0  0  0  0  0  0  0  0  0  0
   10.2746   -1.0519   24.8283 C   0  0  0  0  0  0  0  0  0  0  0  0
    6.7220   -2.6271   20.2795 C   0  0  0  0  0  0  0  0  0  0  0  0
    7.6287   -3.4105   21.2210 C   0  0  2  0  0  0  0  0  0  0  0  0
    7.9840    0.9062   19.7505 N   0  0  0  0  0  0  0  0  0  0  0  0
    8.0590   -2.0444   23.2336 N   0  0  0  0  0  0  0  0  0  0  0  0
   11.2589    1.1004   24.5389 N   0  0  0  0  0  0  0  0  0  0  0  0
    9.1755    0.9020   25.6143 O   0  0  0  0  0  0  0  0  0  0  0  0
    6.4134   -3.6841   23.2364 O   0  0  0  0  0  0  0  0  0  0  0  0
    7.3822   -5.1651   21.0883 Cl  0  0  0  0  0  0  0  0  0  0  0  0
   12.1728    6.3113   24.6156 H   0  0  0  0  0  0  0  0  0  0  0  0
   13.8237    4.7768   23.5772 H   0  0  0  0  0  0  0  0  0  0  0  0
   10.0943    5.4020   25.6183 H   0  0  0  0  0  0  0  0  0  0  0  0
    5.6511    1.5372   22.1289 H   0  0  0  0  0  0  0  0  0  0  0  0
    5.3508   -0.9235   21.9386 H   0  0  0  0  0  0  0  0  0  0  0  0
   13.4026    2.3429   23.5379 H   0  0  0  0  0  0  0  0  0  0  0  0
    9.6607    2.9694   25.5855 H   0  0  0  0  0  0  0  0  0  0  0  0
    7.3685    2.6391   20.6848 H   0  0  0  0  0  0  0  0  0  0  0  0
    8.4381   -0.9349   18.9516 H   0  0  0  0  0  0  0  0  0  0  0  0
    8.8884   -1.3967   26.4659 H   0  0  0  0  0  0  0  0  0  0  0  0
    9.3284   -2.8434   25.5615 H   0  0  0  0  0  0  0  0  0  0  0  0
   10.8199   -2.3989   23.2398 H   0  0  0  0  0  0  0  0  0  0  0  0
   11.1693   -0.7101   22.8792 H   0  0  0  0  0  0  0  0  0  0  0  0
    7.0162   -2.2607   25.0623 H   0  0  0  0  0  0  0  0  0  0  0  0
    7.4533   -0.6138   24.6089 H   0  0  0  0  0  0  0  0  0  0  0  0
    8.7754   -0.2397   22.5060 H   0  0  0  0  0  0  0  0  0  0  0  0
    9.2780   -1.6166   21.5388 H   0  0  0  0  0  0  0  0  0  0  0  0
   11.1875   -1.3570   25.3547 H   0  0  0  0  0  0  0  0  0  0  0  0
    6.8953   -2.9236   19.2359 H   0  0  0  0  0  0  0  0  0  0  0  0
    5.6705   -2.8810   20.4734 H   0  0  0  0  0  0  0  0  0  0  0  0
    8.6864   -3.2016   21.0609 H   0  0  0  0  0  0  0  0  0  0  0  0
   11.9821    0.5375   24.0958 H   0  0  0  0  0  0  0  0  0  0  0  0
  1  2  1  0  0  0  0
  1  3  2  0  0  0  0
  2  6  2  0  0  0  0
  3  7  1  0  0  0  0
  4  5  2  0  0  0  0
  4  8  1  0  0  0  0
  5 10  1  0  0  0  0
  6 11  1  0  0  0  0
  7 11  2  0  0  0  0
  8 21  2  0  0  0  0
  9 10  2  0  0  0  0
  9 21  1  0  0  0  0
 10 19  1  0  0  0  0
 11 23  1  0  0  0  0
 12 18  1  0  0  0  0
 12 23  1  0  0  0  0
 12 24  2  0  0  0  0
 13 20  1  0  0  0  0
 13 22  1  0  0  0  0
 13 25  2  0  0  0  0
 14 16  1  0  0  0  0
 14 18  1  0  0  0  0
 15 17  1  0  0  0  0
 15 18  1  0  0  0  0
 16 22  1  0  0  0  0
 17 22  1  0  0  0  0
 19 20  1  0  0  0  0
 20 26  1  0  0  0  0
  1 27  1  0  0  0  0
  2 28  1  0  0  0  0
  3 29  1  0  0  0  0
  4 30  1  0  0  0  0
  5 31  1  0  0  0  0
  6 32  1  0  0  0  0
  7 33  1  0  0  0  0
  8 34  1  0  0  0  0
  9 35  1  0  0  0  0
 14 36  1  0  0  0  0
 14 37  1  0  0  0  0
 15 38  1  0  0  0  0
 15 39  1  0  0  0  0
 16 40  1  0  0  0  0
 16 41  1  0  0  0  0
 17 42  1  0  0  0  0
 17 43  1  0  0  0  0
 18 44  1  0  0  0  0
 19 45  1  0  0  0  0
 19 46  1  0  0  0  0
 20 47  1  0  0  0  0
 23 48  1  0  0  0  0
M  END
> <Chemgauss4>
-6.091582

> <ref_pdb>
x0830_0

> <original SMILES>
c1ccc(cc1)NC(=O)C2CCN(CC2)C(=O)[C@H](Cc3cccnc3)Cl

$$$$
MAK-UNK-e4a-26
  -OEChem-04232002263D

 56 58  0     0  0  0  0  0  0999 V2000
    9.1895   -4.3742   25.6166 C   0  0  0  0  0  0  0  0  0  0  0  0
    7.8303   -4.1246   25.4272 C   0  0  0  0  0  0  0  0  0  0  0  0
   10.1380   -3.6688   24.8760 C   0  0  0  0  0  0  0  0  0  0  0  0
    8.3680   -2.4641   23.7567 C   0  0  0  0  0  0  0  0  0  0  0  0
    7.4195   -3.1695   24.4973 C   0  0  0  0  0  0  0  0  0  0  0  0
    9.7272   -2.7137   23.9461 C   0  0  0  0  0  0  0  0  0  0  0  0
    7.9359   -1.4586   22.7780 C   0  0  0  0  0  0  0  0  0  0  0  0
   12.5311    3.0959   24.5489 C   0  0  0  0  0  0  0  0  0  0  0  0
    6.6262   -3.8340   20.4463 C   0  0  0  0  0  0  0  0  0  0  0  0
    6.0629   -1.5035   19.6698 C   0  0  0  0  0  0  0  0  0  0  0  0
    7.8845   -3.2830   21.1099 C   0  0  0  0  0  0  0  0  0  0  0  0
    7.3354   -1.0000   20.3430 C   0  0  0  0  0  0  0  0  0  0  0  0
   11.5650    1.7407   22.7182 C   0  0  0  0  0  0  0  0  0  0  0  0
   10.7061    1.3831   25.0002 C   0  0  0  0  0  0  0  0  0  0  0  0
   11.7365    0.2410   22.5256 C   0  0  0  0  0  0  0  0  0  0  0  0
   10.8630   -0.1231   24.8412 C   0  0  0  0  0  0  0  0  0  0  0  0
    6.2007   -2.9709   19.2573 C   0  0  0  0  0  0  0  0  0  0  0  0
    5.9566   -2.9242   24.3170 C   0  0  0  0  0  0  0  0  0  0  0  0
   10.7709   -1.9714   23.1646 C   0  0  0  0  0  0  0  0  0  0  0  0
   12.5554    3.4048   26.0246 C   0  0  0  0  0  0  0  0  0  0  0  0
    7.7044   -1.8745   21.4648 N   0  0  0  0  0  0  0  0  0  0  0  0
   11.6464    2.1017   24.1336 N   0  0  0  0  0  0  0  0  0  0  0  0
   10.7210   -0.4848   23.3796 N   0  3  0  0  0  0  0  0  0  0  0  0
    7.8191   -0.3081   23.1970 O   0  0  0  0  0  0  0  0  0  0  0  0
   13.2785    3.7186   23.7902 O   0  0  0  0  0  0  0  0  0  0  0  0
    4.9563   -3.4518   18.7638 O   0  0  0  0  0  0  0  0  0  0  0  0
   13.7726    4.6546   26.2577 Cl  0  0  0  0  0  0  0  0  0  0  0  0
    9.5091   -5.1184   26.3403 H   0  0  0  0  0  0  0  0  0  0  0  0
    7.0994   -4.6799   26.0091 H   0  0  0  0  0  0  0  0  0  0  0  0
   11.1946   -3.8709   25.0310 H   0  0  0  0  0  0  0  0  0  0  0  0
    6.7972   -4.8642   20.1117 H   0  0  0  0  0  0  0  0  0  0  0  0
    5.8095   -3.8910   21.1779 H   0  0  0  0  0  0  0  0  0  0  0  0
    5.2056   -1.3829   20.3448 H   0  0  0  0  0  0  0  0  0  0  0  0
    5.8371   -0.8921   18.7881 H   0  0  0  0  0  0  0  0  0  0  0  0
    8.1289   -3.8773   21.9961 H   0  0  0  0  0  0  0  0  0  0  0  0
    8.7394   -3.3434   20.4261 H   0  0  0  0  0  0  0  0  0  0  0  0
    8.1725   -1.0077   19.6347 H   0  0  0  0  0  0  0  0  0  0  0  0
    7.1933    0.0339   20.6670 H   0  0  0  0  0  0  0  0  0  0  0  0
   12.3248    2.2730   22.1374 H   0  0  0  0  0  0  0  0  0  0  0  0
   10.5856    2.0699   22.3503 H   0  0  0  0  0  0  0  0  0  0  0  0
    9.6951    1.6978   24.7144 H   0  0  0  0  0  0  0  0  0  0  0  0
   10.8375    1.6470   26.0510 H   0  0  0  0  0  0  0  0  0  0  0  0
   11.5471   -0.0392   21.4844 H   0  0  0  0  0  0  0  0  0  0  0  0
   12.7338   -0.1005   22.8247 H   0  0  0  0  0  0  0  0  0  0  0  0
   11.8449   -0.4715   25.1804 H   0  0  0  0  0  0  0  0  0  0  0  0
   10.0749   -0.6528   25.3862 H   0  0  0  0  0  0  0  0  0  0  0  0
    6.9409   -3.0656   18.4536 H   0  0  0  0  0  0  0  0  0  0  0  0
    5.6170   -2.1381   25.0008 H   0  0  0  0  0  0  0  0  0  0  0  0
    5.7309   -2.6159   23.2890 H   0  0  0  0  0  0  0  0  0  0  0  0
    5.3760   -3.8339   24.5129 H   0  0  0  0  0  0  0  0  0  0  0  0
   11.7793   -2.2957   23.4431 H   0  0  0  0  0  0  0  0  0  0  0  0
   10.6521   -2.1378   22.0885 H   0  0  0  0  0  0  0  0  0  0  0  0
   12.8338    2.5083   26.5668 H   0  0  0  0  0  0  0  0  0  0  0  0
   11.5807    3.7741   26.3223 H   0  0  0  0  0  0  0  0  0  0  0  0
    9.7868   -0.1764   23.0764 H   0  0  0  0  0  0  0  0  0  0  0  0
    4.7160   -2.8850   18.0135 H   0  0  0  0  0  0  0  0  0  0  0  0
  1  2  2  0  0  0  0
  1  3  1  0  0  0  0
  2  5  1  0  0  0  0
  3  6  2  0  0  0  0
  4  5  2  0  0  0  0
  4  6  1  0  0  0  0
  4  7  1  0  0  0  0
  5 18  1  0  0  0  0
  6 19  1  0  0  0  0
  7 21  1  0  0  0  0
  7 24  2  0  0  0  0
  8 20  1  0  0  0  0
  8 22  1  0  0  0  0
  8 25  2  0  0  0  0
  9 11  1  0  0  0  0
  9 17  1  0  0  0  0
 10 12  1  0  0  0  0
 10 17  1  0  0  0  0
 11 21  1  0  0  0  0
 12 21  1  0  0  0  0
 13 15  1  0  0  0  0
 13 22  1  0  0  0  0
 14 16  1  0  0  0  0
 14 22  1  0  0  0  0
 15 23  1  0  0  0  0
 16 23  1  0  0  0  0
 17 26  1  0  0  0  0
 19 23  1  0  0  0  0
 20 27  1  0  0  0  0
  1 28  1  0  0  0  0
  2 29  1  0  0  0  0
  3 30  1  0  0  0  0
  9 31  1  0  0  0  0
  9 32  1  0  0  0  0
 10 33  1  0  0  0  0
 10 34  1  0  0  0  0
 11 35  1  0  0  0  0
 11 36  1  0  0  0  0
 12 37  1  0  0  0  0
 12 38  1  0  0  0  0
 13 39  1  0  0  0  0
 13 40  1  0  0  0  0
 14 41  1  0  0  0  0
 14 42  1  0  0  0  0
 15 43  1  0  0  0  0
 15 44  1  0  0  0  0
 16 45  1  0  0  0  0
 16 46  1  0  0  0  0
 17 47  1  0  0  0  0
 18 48  1  0  0  0  0
 18 49  1  0  0  0  0
 18 50  1  0  0  0  0
 19 51  1  0  0  0  0
 19 52  1  0  0  0  0
 20 53  1  0  0  0  0
 20 54  1  0  0  0  0
 23 55  1  0  0  0  0
 26 56  1  0  0  0  0
M  CHG  1  23   1
M  END
> <Chemgauss4>
-6.035875

> <ref_pdb>
x0830_0

> <CYS145-warhead min dist (A)>
7.854045

> <CYS145-warhead avg dist (A)>
9.736267

> <CYS145-warhead avg dist stderr (A)>
0.0922359

> <original SMILES>
Cc1cccc(c1C(=O)N2CCC(CC2)O)C[NH+]3CCN(CC3)C(=O)CCl

$$$$
BEN-VAN-77c-11
  -OEChem-04232002263D

 52 54  0     1  0  0  0  0  0999 V2000
   11.3325    3.5278   24.3686 C   0  0  0  0  0  0  0  0  0  0  0  0
    9.2612    2.2166   24.3344 C   0  0  0  0  0  0  0  0  0  0  0  0
    8.5156    1.1387   24.7986 C   0  0  0  0  0  0  0  0  0  0  0  0
   10.8432   -1.4050   22.2919 C   0  0  0  0  0  0  0  0  0  0  0  0
   11.5327   -1.8508   24.9580 C   0  0  0  0  0  0  0  0  0  0  0  0
   11.0308    1.5464   25.7751 C   0  0  0  0  0  0  0  0  0  0  0  0
   10.5436    2.4314   24.8268 C   0  0  0  0  0  0  0  0  0  0  0  0
    9.9321   -2.0128   23.1556 C   0  0  0  0  0  0  0  0  0  0  0  0
   10.2768   -2.2357   24.4887 C   0  0  0  0  0  0  0  0  0  0  0  0
   12.0991   -1.0202   22.7612 C   0  0  0  0  0  0  0  0  0  0  0  0
   12.4439   -1.2431   24.0943 C   0  0  0  0  0  0  0  0  0  0  0  0
    9.0937    0.3114   25.7480 C   0  0  0  0  0  0  0  0  0  0  0  0
    6.2802   -0.1099   18.1571 C   0  0  0  0  0  0  0  0  0  0  0  0
    6.6291   -0.5707   19.3601 C   0  0  0  0  0  0  0  0  0  0  0  0
    6.3275   -1.9757   19.7007 C   0  0  0  0  0  0  0  0  0  0  0  0
    6.9146   -4.0198   20.9406 C   0  0  0  0  0  0  0  0  0  0  0  0
    8.4381   -2.0872   21.1310 C   0  0  0  0  0  0  0  0  0  0  0  0
    7.1002   -4.2552   22.4306 C   0  0  0  0  0  0  0  0  0  0  0  0
    8.5762   -2.4222   22.6228 C   0  0  1  0  0  0  0  0  0  0  0  0
    7.9426   -2.7058   27.5773 C   0  0  0  0  0  0  0  0  0  0  0  0
    9.3180   -2.8841   25.4323 C   0  0  0  0  0  0  0  0  0  0  0  0
    8.9392   -2.0097   26.6501 C   0  0  1  0  0  0  0  0  0  0  0  0
   11.9743    4.4199   23.9959 N   0  0  0  0  0  0  0  0  0  0  0  0
   10.3364    0.4882   26.2501 N   0  0  0  0  0  0  0  0  0  0  0  0
    7.1820   -2.6244   20.5887 N   0  0  0  0  0  0  0  0  0  0  0  0
    8.3447   -0.7487   26.1974 N   0  0  0  0  0  0  0  0  0  0  0  0
    5.3406   -2.4920   19.1737 O   0  0  0  0  0  0  0  0  0  0  0  0
    8.3978   -3.8266   22.8421 O   0  0  0  0  0  0  0  0  0  0  0  0
   12.9738   -0.4356   21.9320 F   0  0  0  0  0  0  0  0  0  0  0  0
   13.6506   -0.8749   24.5443 F   0  0  0  0  0  0  0  0  0  0  0  0
    8.8301    2.8804   23.5891 H   0  0  0  0  0  0  0  0  0  0  0  0
    7.5144    0.9629   24.4190 H   0  0  0  0  0  0  0  0  0  0  0  0
   10.5847   -1.2268   21.2514 H   0  0  0  0  0  0  0  0  0  0  0  0
   11.8110   -2.0200   25.9948 H   0  0  0  0  0  0  0  0  0  0  0  0
   12.0249    1.6588   26.1983 H   0  0  0  0  0  0  0  0  0  0  0  0
    6.4749    0.9120   17.8493 H   0  0  0  0  0  0  0  0  0  0  0  0
    5.7841   -0.7630   17.4470 H   0  0  0  0  0  0  0  0  0  0  0  0
    7.1255    0.0497   20.0948 H   0  0  0  0  0  0  0  0  0  0  0  0
    7.6371   -4.6198   20.3745 H   0  0  0  0  0  0  0  0  0  0  0  0
    5.9105   -4.3229   20.6289 H   0  0  0  0  0  0  0  0  0  0  0  0
    8.5095   -1.0054   20.9980 H   0  0  0  0  0  0  0  0  0  0  0  0
    9.2435   -2.5524   20.5485 H   0  0  0  0  0  0  0  0  0  0  0  0
    6.3353   -3.7345   23.0189 H   0  0  0  0  0  0  0  0  0  0  0  0
    7.0178   -5.3240   22.6518 H   0  0  0  0  0  0  0  0  0  0  0  0
    7.8140   -1.8712   23.2110 H   0  0  0  0  0  0  0  0  0  0  0  0
    7.0244   -2.9670   27.0387 H   0  0  0  0  0  0  0  0  0  0  0  0
    7.6664   -2.0677   28.4243 H   0  0  0  0  0  0  0  0  0  0  0  0
    8.3579   -3.6368   27.9765 H   0  0  0  0  0  0  0  0  0  0  0  0
    8.3991   -3.1901   24.9021 H   0  0  0  0  0  0  0  0  0  0  0  0
    9.7659   -3.8285   25.7875 H   0  0  0  0  0  0  0  0  0  0  0  0
    9.8390   -1.7671   27.2272 H   0  0  0  0  0  0  0  0  0  0  0  0
    7.3436   -0.6814   26.2251 H   0  0  0  0  0  0  0  0  0  0  0  0
  1  7  1  0  0  0  0
  1 23  3  0  0  0  0
  2  3  2  0  0  0  0
  2  7  1  0  0  0  0
  3 12  1  0  0  0  0
  4  8  1  0  0  0  0
  4 10  2  0  0  0  0
  5  9  1  0  0  0  0
  5 11  2  0  0  0  0
  6  7  2  0  0  0  0
  6 24  1  0  0  0  0
  8  9  2  0  0  0  0
  8 19  1  0  0  0  0
  9 21  1  0  0  0  0
 10 11  1  0  0  0  0
 10 29  1  0  0  0  0
 11 30  1  0  0  0  0
 12 24  2  0  0  0  0
 12 26  1  0  0  0  0
 13 14  2  0  0  0  0
 14 15  1  0  0  0  0
 15 25  1  0  0  0  0
 15 27  2  0  0  0  0
 16 18  1  0  0  0  0
 16 25  1  0  0  0  0
 17 19  1  0  0  0  0
 17 25  1  0  0  0  0
 18 28  1  0  0  0  0
 19 28  1  0  0  0  0
 20 22  1  0  0  0  0
 21 22  1  0  0  0  0
 22 26  1  0  0  0  0
  2 31  1  0  0  0  0
  3 32  1  0  0  0  0
  4 33  1  0  0  0  0
  5 34  1  0  0  0  0
  6 35  1  0  0  0  0
 13 36  1  0  0  0  0
 13 37  1  0  0  0  0
 14 38  1  0  0  0  0
 16 39  1  0  0  0  0
 16 40  1  0  0  0  0
 17 41  1  0  0  0  0
 17 42  1  0  0  0  0
 18 43  1  0  0  0  0
 18 44  1  0  0  0  0
 19 45  1  0  0  0  0
 20 46  1  0  0  0  0
 20 47  1  0  0  0  0
 20 48  1  0  0  0  0
 21 49  1  0  0  0  0
 21 50  1  0  0  0  0
 22 51  1  0  0  0  0
 26 52  1  0  0  0  0
M  END
> <Chemgauss4>
-6.008495

> <ref_pdb>
x0830_0

> <CYS145-warhead min dist (A)>
5.146951

> <CYS145-warhead avg dist (A)>
6.1327786

> <CYS145-warhead avg dist stderr (A)>
0.03407375

> <original SMILES>
C[C@@H](Cc1cc(c(cc1[C@H]2CN(CCO2)C(=O)C=C)F)F)Nc3ccc(cn3)C#N

$$$$
STU-CHA-7e7-1
  -OEChem-04232002263D

 53 55  0     1  0  0  0  0  0999 V2000
    5.2126   -4.9264   24.4684 C   0  0  0  0  0  0  0  0  0  0  0  0
    5.2747   -5.5120   25.7325 C   0  0  0  0  0  0  0  0  0  0  0  0
    7.6339   -5.0177   25.8437 C   0  0  0  0  0  0  0  0  0  0  0  0
    6.3639   -4.3892   23.8748 C   0  0  0  0  0  0  0  0  0  0  0  0
    7.5811   -4.4199   24.5767 C   0  0  0  0  0  0  0  0  0  0  0  0
    6.4851   -5.5597   26.4188 C   0  0  0  0  0  0  0  0  0  0  0  0
   11.9095    2.1746   24.0239 C   0  0  0  0  0  0  0  0  0  0  0  0
    6.2630   -3.7287   22.5223 C   0  0  0  0  0  0  0  0  0  0  0  0
    8.8413   -3.8673   23.9699 C   0  0  0  0  0  0  0  0  0  0  0  0
    9.8052   -0.7772   23.8346 C   0  0  0  0  0  0  0  0  0  0  0  0
   11.8349   -0.9932   22.3571 C   0  0  0  0  0  0  0  0  0  0  0  0
   10.6133    0.1184   24.7723 C   0  0  0  0  0  0  0  0  0  0  0  0
   12.6018   -0.0956   23.3254 C   0  0  0  0  0  0  0  0  0  0  0  0
   10.7140   -1.7575   23.0776 C   0  0  0  0  0  0  0  0  0  0  0  0
    7.6003   -3.6100   21.7773 C   0  0  2  0  0  0  0  0  0  0  0  0
    8.0733   -4.9378   21.1863 C   0  0  0  0  0  0  0  0  0  0  0  0
   10.9504    3.0223   24.8210 C   0  0  0  0  0  0  0  0  0  0  0  0
    9.9058   -2.5956   22.0899 C   0  0  0  0  0  0  0  0  0  0  0  0
   11.6906    0.7976   24.0428 N   0  0  0  0  0  0  0  0  0  0  0  0
    6.2361   -4.9523   29.0022 N   0  0  0  0  0  0  0  0  0  0  0  0
    8.6152   -3.0159   22.7372 N   0  3  2  0  0  0  0  0  0  0  0  0
   12.8236    2.7218   23.4018 O   0  0  0  0  0  0  0  0  0  0  0  0
    5.4693   -7.2492   28.1179 O   0  0  0  0  0  0  0  0  0  0  0  0
    7.9326   -6.7340   28.2381 O   0  0  0  0  0  0  0  0  0  0  0  0
    6.5643   -6.2964   27.9997 S   0  0  0  0  0  0  0  0  0  0  0  0
    9.6491    3.4758   23.7260 Cl  0  0  0  0  0  0  0  0  0  0  0  0
    4.2595   -4.8908   23.9466 H   0  0  0  0  0  0  0  0  0  0  0  0
    4.3719   -5.9268   26.1725 H   0  0  0  0  0  0  0  0  0  0  0  0
    8.5791   -5.0579   26.3804 H   0  0  0  0  0  0  0  0  0  0  0  0
    5.5504   -4.2784   21.8948 H   0  0  0  0  0  0  0  0  0  0  0  0
    5.8473   -2.7239   22.6747 H   0  0  0  0  0  0  0  0  0  0  0  0
    9.3550   -3.2215   24.6910 H   0  0  0  0  0  0  0  0  0  0  0  0
    9.5067   -4.6889   23.6814 H   0  0  0  0  0  0  0  0  0  0  0  0
    9.0624   -1.3345   24.4177 H   0  0  0  0  0  0  0  0  0  0  0  0
    9.2494   -0.1511   23.1247 H   0  0  0  0  0  0  0  0  0  0  0  0
   11.4156   -0.3806   21.5487 H   0  0  0  0  0  0  0  0  0  0  0  0
   12.5301   -1.7024   21.8922 H   0  0  0  0  0  0  0  0  0  0  0  0
    9.9426    0.8246   25.2646 H   0  0  0  0  0  0  0  0  0  0  0  0
   11.0849   -0.4816   25.5598 H   0  0  0  0  0  0  0  0  0  0  0  0
   13.1265   -0.6993   24.0752 H   0  0  0  0  0  0  0  0  0  0  0  0
   13.3584    0.4754   22.7782 H   0  0  0  0  0  0  0  0  0  0  0  0
   11.1692   -2.4430   23.8032 H   0  0  0  0  0  0  0  0  0  0  0  0
    7.4824   -2.8833   20.9639 H   0  0  0  0  0  0  0  0  0  0  0  0
    8.1957   -5.6713   21.9809 H   0  0  0  0  0  0  0  0  0  0  0  0
    9.0265   -4.7964   20.6803 H   0  0  0  0  0  0  0  0  0  0  0  0
    7.3394   -5.3043   20.4710 H   0  0  0  0  0  0  0  0  0  0  0  0
   11.4697    3.9080   25.1688 H   0  0  0  0  0  0  0  0  0  0  0  0
   10.5582    2.4323   25.6413 H   0  0  0  0  0  0  0  0  0  0  0  0
   10.4355   -3.5092   21.8064 H   0  0  0  0  0  0  0  0  0  0  0  0
    9.6450   -2.0251   21.1942 H   0  0  0  0  0  0  0  0  0  0  0  0
    5.3257   -4.9159   29.4768 H   0  0  0  0  0  0  0  0  0  0  0  0
    7.0090   -4.5642   29.5565 H   0  0  0  0  0  0  0  0  0  0  0  0
    8.1903   -2.1411   23.0751 H   0  0  0  0  0  0  0  0  0  0  0  0
  1  2  2  0  0  0  0
  1  4  1  0  0  0  0
  2  6  1  0  0  0  0
  3  5  1  0  0  0  0
  3  6  2  0  0  0  0
  4  5  2  0  0  0  0
  4  8  1  0  0  0  0
  5  9  1  0  0  0  0
  6 25  1  0  0  0  0
  7 17  1  0  0  0  0
  7 19  1  0  0  0  0
  7 22  2  0  0  0  0
  8 15  1  0  0  0  0
  9 21  1  0  0  0  0
 10 12  1  0  0  0  0
 10 14  1  0  0  0  0
 11 13  1  0  0  0  0
 11 14  1  0  0  0  0
 12 19  1  0  0  0  0
 13 19  1  0  0  0  0
 14 18  1  0  0  0  0
 15 16  1  0  0  0  0
 15 21  1  0  0  0  0
 17 26  1  0  0  0  0
 18 21  1  0  0  0  0
 20 25  1  0  0  0  0
 23 25  2  0  0  0  0
 24 25  2  0  0  0  0
  1 27  1  0  0  0  0
  2 28  1  0  0  0  0
  3 29  1  0  0  0  0
  8 30  1  0  0  0  0
  8 31  1  0  0  0  0
  9 32  1  0  0  0  0
  9 33  1  0  0  0  0
 10 34  1  0  0  0  0
 10 35  1  0  0  0  0
 11 36  1  0  0  0  0
 11 37  1  0  0  0  0
 12 38  1  0  0  0  0
 12 39  1  0  0  0  0
 13 40  1  0  0  0  0
 13 41  1  0  0  0  0
 14 42  1  0  0  0  0
 15 43  1  0  0  0  0
 16 44  1  0  0  0  0
 16 45  1  0  0  0  0
 16 46  1  0  0  0  0
 17 47  1  0  0  0  0
 17 48  1  0  0  0  0
 18 49  1  0  0  0  0
 18 50  1  0  0  0  0
 20 51  1  0  0  0  0
 20 52  1  0  0  0  0
 21 53  1  0  0  0  0
M  CHG  1  21   1
M  END
> <Chemgauss4>
-6.008464

> <ref_pdb>
x1392_0

> <CYS145-warhead min dist (A)>
7.146446

> <CYS145-warhead avg dist (A)>
7.7826924

> <CYS145-warhead avg dist stderr (A)>
0.03217818

> <original SMILES>
C[C@H]1Cc2ccc(cc2C[N@H+]1CC3CCN(CC3)C(=O)CCl)S(=O)(=O)N

$$$$
WAR-XCH-72a-5
  -OEChem-04232002263D

 61 63  0     1  0  0  0  0  0999 V2000
    5.5096   -6.0159   24.7947 C   0  0  0  0  0  0  0  0  0  0  0  0
   12.5668   -0.9875   25.6967 C   0  0  0  0  0  0  0  0  0  0  0  0
   11.0963   -0.6142   25.5373 C   0  0  0  0  0  0  0  0  0  0  0  0
   13.1825   -1.4212   24.3701 C   0  0  0  0  0  0  0  0  0  0  0  0
    7.5235   -6.4355   21.8580 C   0  0  0  0  0  0  0  0  0  0  0  0
   10.2956   -1.7422   24.8906 C   0  0  0  0  0  0  0  0  0  0  0  0
   12.3853   -2.5504   23.7212 C   0  0  0  0  0  0  0  0  0  0  0  0
    8.3855   -5.1731   21.8312 C   0  0  0  0  0  0  0  0  0  0  0  0
    8.3956   -2.8711   20.3278 C   0  0  0  0  0  0  0  0  0  0  0  0
    7.3081   -1.1309   21.8119 C   0  0  0  0  0  0  0  0  0  0  0  0
    8.1253   -1.9951   19.1025 C   0  0  0  0  0  0  0  0  0  0  0  0
    7.0407   -0.2533   20.5874 C   0  0  0  0  0  0  0  0  0  0  0  0
    7.2662   -6.8970   23.2907 C   0  0  0  0  0  0  0  0  0  0  0  0
    7.5051   -4.5835   24.1285 C   0  0  0  0  0  0  0  0  0  0  0  0
   10.9070   -2.1752   23.5512 C   0  0  0  0  0  0  0  0  0  0  0  0
    8.5281   -2.0215   21.5893 C   0  0  0  0  0  0  0  0  0  0  0  0
    7.7630   -4.0861   22.7074 C   0  0  1  0  0  0  0  0  0  0  0  0
    6.9185   -1.0775   19.3039 C   0  0  0  0  0  0  0  0  0  0  0  0
    4.6351   -4.8055   25.0034 C   0  0  0  0  0  0  0  0  0  0  0  0
   10.1207   -3.3389   22.9504 C   0  0  0  0  0  0  0  0  0  0  0  0
    6.7011   -5.8135   24.0990 N   0  0  0  0  0  0  0  0  0  0  0  0
    8.6857   -2.9228   22.7617 N   0  3  1  0  0  0  0  0  0  0  0  0
    5.1421   -7.1080   25.2356 O   0  0  0  0  0  0  0  0  0  0  0  0
    5.7396   -1.8785   19.3558 O   0  0  0  0  0  0  0  0  0  0  0  0
    4.2461   -4.1830   23.4037 Cl  0  0  0  0  0  0  0  0  0  0  0  0
   13.1226   -0.1331   26.0993 H   0  0  0  0  0  0  0  0  0  0  0  0
   12.6591   -1.8025   26.4251 H   0  0  0  0  0  0  0  0  0  0  0  0
   10.6694   -0.3739   26.5177 H   0  0  0  0  0  0  0  0  0  0  0  0
   11.0136    0.2906   24.9226 H   0  0  0  0  0  0  0  0  0  0  0  0
   13.2213   -0.5633   23.6875 H   0  0  0  0  0  0  0  0  0  0  0  0
   14.2165   -1.7460   24.5331 H   0  0  0  0  0  0  0  0  0  0  0  0
    6.5680   -6.2353   21.3602 H   0  0  0  0  0  0  0  0  0  0  0  0
    8.0109   -7.2388   21.2933 H   0  0  0  0  0  0  0  0  0  0  0  0
   10.2585   -2.5972   25.5779 H   0  0  0  0  0  0  0  0  0  0  0  0
    9.2610   -1.4113   24.7403 H   0  0  0  0  0  0  0  0  0  0  0  0
   12.8254   -2.7898   22.7458 H   0  0  0  0  0  0  0  0  0  0  0  0
   12.4726   -3.4536   24.3389 H   0  0  0  0  0  0  0  0  0  0  0  0
    9.3978   -5.4024   22.1534 H   0  0  0  0  0  0  0  0  0  0  0  0
    8.4402   -4.8072   20.8071 H   0  0  0  0  0  0  0  0  0  0  0  0
    7.6050   -3.6096   20.4374 H   0  0  0  0  0  0  0  0  0  0  0  0
    9.3279   -3.4119   20.1703 H   0  0  0  0  0  0  0  0  0  0  0  0
    7.4972   -0.4853   22.6683 H   0  0  0  0  0  0  0  0  0  0  0  0
    6.4279   -1.7267   22.0401 H   0  0  0  0  0  0  0  0  0  0  0  0
    9.0135   -1.3890   18.8765 H   0  0  0  0  0  0  0  0  0  0  0  0
    7.9728   -2.6212   18.2122 H   0  0  0  0  0  0  0  0  0  0  0  0
    6.1291    0.3418   20.7353 H   0  0  0  0  0  0  0  0  0  0  0  0
    7.8484    0.4827   20.4766 H   0  0  0  0  0  0  0  0  0  0  0  0
    6.5467   -7.7247   23.3036 H   0  0  0  0  0  0  0  0  0  0  0  0
    8.1971   -7.2684   23.7313 H   0  0  0  0  0  0  0  0  0  0  0  0
    8.4430   -4.7140   24.6629 H   0  0  0  0  0  0  0  0  0  0  0  0
    6.9216   -3.8412   24.6789 H   0  0  0  0  0  0  0  0  0  0  0  0
   10.8407   -1.3335   22.8506 H   0  0  0  0  0  0  0  0  0  0  0  0
    9.4369   -1.4175   21.5469 H   0  0  0  0  0  0  0  0  0  0  0  0
    6.8383   -3.7182   22.2527 H   0  0  0  0  0  0  0  0  0  0  0  0
    6.8269   -0.4067   18.4409 H   0  0  0  0  0  0  0  0  0  0  0  0
    5.1900   -4.0637   25.5666 H   0  0  0  0  0  0  0  0  0  0  0  0
    3.7292   -5.1103   25.5147 H   0  0  0  0  0  0  0  0  0  0  0  0
   10.1184   -4.2097   23.6117 H   0  0  0  0  0  0  0  0  0  0  0  0
   10.5053   -3.6216   21.9666 H   0  0  0  0  0  0  0  0  0  0  0  0
    8.4320   -2.3664   23.5930 H   0  0  0  0  0  0  0  0  0  0  0  0
    5.6861   -2.3489   18.5089 H   0  0  0  0  0  0  0  0  0  0  0  0
  1 19  1  0  0  0  0
  1 21  1  0  0  0  0
  1 23  2  0  0  0  0
  2  3  1  0  0  0  0
  2  4  1  0  0  0  0
  3  6  1  0  0  0  0
  4  7  1  0  0  0  0
  5  8  1  0  0  0  0
  5 13  1  0  0  0  0
  6 15  1  0  0  0  0
  7 15  1  0  0  0  0
  8 17  1  0  0  0  0
  9 11  1  0  0  0  0
  9 16  1  0  0  0  0
 10 12  1  0  0  0  0
 10 16  1  0  0  0  0
 11 18  1  0  0  0  0
 12 18  1  0  0  0  0
 13 21  1  0  0  0  0
 14 17  1  0  0  0  0
 14 21  1  0  0  0  0
 15 20  1  0  0  0  0
 16 22  1  0  0  0  0
 17 22  1  0  0  0  0
 18 24  1  0  0  0  0
 19 25  1  0  0  0  0
 20 22  1  0  0  0  0
  2 26  1  0  0  0  0
  2 27  1  0  0  0  0
  3 28  1  0  0  0  0
  3 29  1  0  0  0  0
  4 30  1  0  0  0  0
  4 31  1  0  0  0  0
  5 32  1  0  0  0  0
  5 33  1  0  0  0  0
  6 34  1  0  0  0  0
  6 35  1  0  0  0  0
  7 36  1  0  0  0  0
  7 37  1  0  0  0  0
  8 38  1  0  0  0  0
  8 39  1  0  0  0  0
  9 40  1  0  0  0  0
  9 41  1  0  0  0  0
 10 42  1  0  0  0  0
 10 43  1  0  0  0  0
 11 44  1  0  0  0  0
 11 45  1  0  0  0  0
 12 46  1  0  0  0  0
 12 47  1  0  0  0  0
 13 48  1  0  0  0  0
 13 49  1  0  0  0  0
 14 50  1  0  0  0  0
 14 51  1  0  0  0  0
 15 52  1  0  0  0  0
 16 53  1  0  0  0  0
 17 54  1  0  0  0  0
 18 55  1  0  0  0  0
 19 56  1  0  0  0  0
 19 57  1  0  0  0  0
 20 58  1  0  0  0  0
 20 59  1  0  0  0  0
 22 60  1  0  0  0  0
 24 61  1  0  0  0  0
M  CHG  1  22   1
M  END
> <Chemgauss4>
-5.993455

> <ref_pdb>
x0749_0

> <CYS145-warhead min dist (A)>
8.249258

> <CYS145-warhead avg dist (A)>
9.161939

> <CYS145-warhead avg dist stderr (A)>
0.058828503

> <original SMILES>
C1CCC(CC1)C[N@H+]([C@H]2CCCN(C2)C(=O)CCl)C3CCC(CC3)O

$$$$
NIM-UNI-7ba-5_thio_pH
  -OEChem-04232002263D

 40 42  0     0  0  0  0  0  0999 V2000
   12.6825    1.5805   23.9248 C   0  0  0  0  0  0  0  0  0  0  0  0
    6.2924    0.8954   19.0143 C   0  0  0  0  0  0  0  0  0  0  0  0
    6.9130    0.3578   20.1364 C   0  0  0  0  0  0  0  0  0  0  0  0
   12.4617    0.2872   23.4511 C   0  0  0  0  0  0  0  0  0  0  0  0
   11.6259    2.3170   24.4604 C   0  0  0  0  0  0  0  0  0  0  0  0
   10.1276    0.4671   24.0483 C   0  0  0  0  0  0  0  0  0  0  0  0
    5.7241    0.0181   18.1048 C   0  0  0  0  0  0  0  0  0  0  0  0
    6.3483   -1.8125   19.3447 C   0  0  0  0  0  0  0  0  0  0  0  0
    6.9460   -1.0211   20.3122 C   0  0  0  0  0  0  0  0  0  0  0  0
   11.1842   -0.2695   23.5129 C   0  0  0  0  0  0  0  0  0  0  0  0
   10.3484    1.7603   24.5221 C   0  0  0  0  0  0  0  0  0  0  0  0
    8.8933   -1.4181   21.7290 C   0  0  0  0  0  0  0  0  0  0  0  0
    7.5937   -1.6191   21.4854 C   0  0  0  0  0  0  0  0  0  0  0  0
    6.8688   -2.4632   22.4907 C   0  0  0  0  0  0  0  0  0  0  0  0
    8.8240   -2.7229   23.7651 C   0  0  0  0  0  0  0  0  0  0  0  0
    4.7876   -3.5138   23.1976 C   0  0  0  0  0  0  0  0  0  0  0  0
   10.9470   -1.6611   23.0016 C   0  0  0  0  0  0  0  0  0  0  0  0
    3.3450   -3.6507   22.7791 C   0  0  0  0  0  0  0  0  0  0  0  0
    5.7361   -1.3268   18.2415 N   0  0  0  0  0  0  0  0  0  0  0  0
    7.4805   -2.9540   23.5389 N   0  0  0  0  0  0  0  0  0  0  0  0
    9.5259   -1.9454   22.8313 N   0  0  0  0  0  0  0  0  0  0  0  0
    5.5310   -2.7444   22.3158 N   0  0  0  0  0  0  0  0  0  0  0  0
    9.3747   -3.1945   24.7615 O   0  0  0  0  0  0  0  0  0  0  0  0
    5.2116   -4.0351   24.2280 O   0  0  0  0  0  0  0  0  0  0  0  0
    9.0449    2.6699   25.1818 Cl  0  0  0  0  0  0  0  0  0  0  0  0
    2.8816   -2.1693   21.9271 Cl  0  0  0  0  0  0  0  0  0  0  0  0
   13.6774    2.0136   23.8765 H   0  0  0  0  0  0  0  0  0  0  0  0
    6.2544    1.9671   18.8567 H   0  0  0  0  0  0  0  0  0  0  0  0
    7.3666    1.0254   20.8648 H   0  0  0  0  0  0  0  0  0  0  0  0
   13.2909   -0.2793   23.0354 H   0  0  0  0  0  0  0  0  0  0  0  0
   11.8126    3.3239   24.8255 H   0  0  0  0  0  0  0  0  0  0  0  0
    9.1335    0.0283   24.0947 H   0  0  0  0  0  0  0  0  0  0  0  0
    5.2289    0.3877   17.2130 H   0  0  0  0  0  0  0  0  0  0  0  0
    6.3394   -2.8960   19.4231 H   0  0  0  0  0  0  0  0  0  0  0  0
    9.5147   -0.8248   21.0647 H   0  0  0  0  0  0  0  0  0  0  0  0
   11.4384   -1.8056   22.0333 H   0  0  0  0  0  0  0  0  0  0  0  0
   11.3578   -2.4077   23.6894 H   0  0  0  0  0  0  0  0  0  0  0  0
    2.7183   -3.7637   23.6680 H   0  0  0  0  0  0  0  0  0  0  0  0
    3.1784   -4.5026   22.1151 H   0  0  0  0  0  0  0  0  0  0  0  0
    5.0894   -2.3534   21.4884 H   0  0  0  0  0  0  0  0  0  0  0  0
  1  4  2  0  0  0  0
  1  5  1  0  0  0  0
  2  3  1  0  0  0  0
  2  7  2  0  0  0  0
  3  9  2  0  0  0  0
  4 10  1  0  0  0  0
  5 11  2  0  0  0  0
  6 10  2  0  0  0  0
  6 11  1  0  0  0  0
  7 19  1  0  0  0  0
  8  9  1  0  0  0  0
  8 19  2  0  0  0  0
  9 13  1  0  0  0  0
 10 17  1  0  0  0  0
 11 25  1  0  0  0  0
 12 13  2  0  0  0  0
 12 21  1  0  0  0  0
 13 14  1  0  0  0  0
 14 20  2  0  0  0  0
 14 22  1  0  0  0  0
 15 20  1  0  0  0  0
 15 21  1  0  0  0  0
 15 23  2  0  0  0  0
 16 18  1  0  0  0  0
 16 22  1  0  0  0  0
 16 24  2  0  0  0  0
 17 21  1  0  0  0  0
 18 26  1  0  0  0  0
  1 27  1  0  0  0  0
  2 28  1  0  0  0  0
  3 29  1  0  0  0  0
  4 30  1  0  0  0  0
  5 31  1  0  0  0  0
  6 32  1  0  0  0  0
  7 33  1  0  0  0  0
  8 34  1  0  0  0  0
 12 35  1  0  0  0  0
 17 36  1  0  0  0  0
 17 37  1  0  0  0  0
 18 38  1  0  0  0  0
 18 39  1  0  0  0  0
 22 40  1  0  0  0  0
M  END
> <Chemgauss4>
-5.938422

> <ref_pdb>
x0692_0

> <CYS145-warhead min dist (A)>
3.1524935

> <CYS145-warhead avg dist (A)>
3.668307

> <CYS145-warhead avg dist stderr (A)>
0.012821955

> <original SMILES>
c1cc(cc(c1)Cl)Cn2cc(c(nc2=O)NC(=O)CCl)c3cccnc3

$$$$
JAN-GHE-bf4-2
  -OEChem-04232002263D

 57 60  0     0  0  0  0  0  0999 V2000
   14.0789    1.8450   25.5263 C   0  0  0  0  0  0  0  0  0  0  0  0
    4.6673   -6.0166   25.5853 C   0  0  0  0  0  0  0  0  0  0  0  0
    4.1165   -6.2448   24.3243 C   0  0  0  0  0  0  0  0  0  0  0  0
   14.1882   -0.5374   26.0945 C   0  0  0  0  0  0  0  0  0  0  0  0
    5.9687   -5.5277   25.6999 C   0  0  0  0  0  0  0  0  0  0  0  0
    9.1403   -5.6485   24.8060 C   0  0  0  0  0  0  0  0  0  0  0  0
    8.2953   -3.3855   24.7673 C   0  0  0  0  0  0  0  0  0  0  0  0
   10.4384   -5.1612   24.9574 C   0  0  0  0  0  0  0  0  0  0  0  0
    9.5934   -2.8981   24.9188 C   0  0  0  0  0  0  0  0  0  0  0  0
    4.8671   -5.9841   23.1779 C   0  0  0  0  0  0  0  0  0  0  0  0
   13.6570   -1.8189   26.0005 C   0  0  0  0  0  0  0  0  0  0  0  0
   12.4085    0.2445   24.7241 C   0  0  0  0  0  0  0  0  0  0  0  0
   13.5581    0.5195   25.4471 C   0  0  0  0  0  0  0  0  0  0  0  0
    8.0687   -4.7606   24.7109 C   0  0  0  0  0  0  0  0  0  0  0  0
    6.7193   -5.2671   24.5535 C   0  0  0  0  0  0  0  0  0  0  0  0
   10.6650   -3.7860   25.0138 C   0  0  0  0  0  0  0  0  0  0  0  0
    6.1685   -5.4953   23.2924 C   0  0  0  0  0  0  0  0  0  0  0  0
   12.5029   -1.9892   25.2530 C   0  0  0  0  0  0  0  0  0  0  0  0
    4.9412    1.6879   18.7932 C   0  0  0  0  0  0  0  0  0  0  0  0
    5.3357    0.4283   18.9910 C   0  0  0  0  0  0  0  0  0  0  0  0
    6.6506    0.1817   19.6311 C   0  0  0  0  0  0  0  0  0  0  0  0
    5.6493   -1.9298   20.5681 C   0  0  0  0  0  0  0  0  0  0  0  0
    8.0224   -1.3234   21.0144 C   0  0  0  0  0  0  0  0  0  0  0  0
    5.8193   -2.7559   21.8359 C   0  0  0  0  0  0  0  0  0  0  0  0
    8.2200   -2.8316   21.0712 C   0  0  0  0  0  0  0  0  0  0  0  0
   14.5027    2.9234   25.5907 N   0  0  0  0  0  0  0  0  0  0  0  0
   11.8627   -0.9870   24.6100 N   0  0  0  0  0  0  0  0  0  0  0  0
    6.7516   -0.9822   20.3796 N   0  0  0  0  0  0  0  0  0  0  0  0
    7.1234   -3.4784   21.8452 N   0  0  0  0  0  0  0  0  0  0  0  0
   11.9775   -3.2932   25.1669 N   0  0  0  0  0  0  0  0  0  0  0  0
    7.5139    1.0235   19.4224 O   0  0  0  0  0  0  0  0  0  0  0  0
    8.4138   -5.6977   21.9921 O   0  0  0  0  0  0  0  0  0  0  0  0
    6.2579   -5.6053   20.6916 O   0  0  0  0  0  0  0  0  0  0  0  0
    7.0738   -5.1833   21.8096 S   0  0  0  0  0  0  0  0  0  0  0  0
    4.0824   -6.2190   26.4778 H   0  0  0  0  0  0  0  0  0  0  0  0
    3.1030   -6.6247   24.2352 H   0  0  0  0  0  0  0  0  0  0  0  0
   15.0931   -0.3775   26.6754 H   0  0  0  0  0  0  0  0  0  0  0  0
    6.3823   -5.3557   26.6909 H   0  0  0  0  0  0  0  0  0  0  0  0
    8.9798   -6.7232   24.7638 H   0  0  0  0  0  0  0  0  0  0  0  0
    7.4703   -2.6807   24.6945 H   0  0  0  0  0  0  0  0  0  0  0  0
   11.2664   -5.8618   25.0305 H   0  0  0  0  0  0  0  0  0  0  0  0
    9.7585   -1.8246   24.9614 H   0  0  0  0  0  0  0  0  0  0  0  0
    4.4259   -6.1658   22.2014 H   0  0  0  0  0  0  0  0  0  0  0  0
   14.1415   -2.6494   26.5035 H   0  0  0  0  0  0  0  0  0  0  0  0
   11.8695    1.0263   24.1966 H   0  0  0  0  0  0  0  0  0  0  0  0
    3.9908    1.9315   18.3302 H   0  0  0  0  0  0  0  0  0  0  0  0
    5.5775    2.5118   19.0987 H   0  0  0  0  0  0  0  0  0  0  0  0
    4.7292   -0.4195   18.7005 H   0  0  0  0  0  0  0  0  0  0  0  0
    5.5487   -2.5953   19.6995 H   0  0  0  0  0  0  0  0  0  0  0  0
    4.7256   -1.3331   20.6208 H   0  0  0  0  0  0  0  0  0  0  0  0
    7.9997   -0.8988   22.0279 H   0  0  0  0  0  0  0  0  0  0  0  0
    8.8777   -0.8849   20.4935 H   0  0  0  0  0  0  0  0  0  0  0  0
    5.7728   -2.0813   22.7094 H   0  0  0  0  0  0  0  0  0  0  0  0
    4.9915   -3.4817   21.9398 H   0  0  0  0  0  0  0  0  0  0  0  0
    8.2582   -3.2569   20.0548 H   0  0  0  0  0  0  0  0  0  0  0  0
    9.1837   -3.0467   21.5591 H   0  0  0  0  0  0  0  0  0  0  0  0
   12.6817   -4.0230   25.2259 H   0  0  0  0  0  0  0  0  0  0  0  0
  1 13  1  0  0  0  0
  1 26  3  0  0  0  0
  2  3  1  0  0  0  0
  2  5  2  0  0  0  0
  3 10  2  0  0  0  0
  4 11  2  0  0  0  0
  4 13  1  0  0  0  0
  5 15  1  0  0  0  0
  6  8  2  0  0  0  0
  6 14  1  0  0  0  0
  7  9  1  0  0  0  0
  7 14  2  0  0  0  0
  8 16  1  0  0  0  0
  9 16  2  0  0  0  0
 10 17  1  0  0  0  0
 11 18  1  0  0  0  0
 12 13  2  0  0  0  0
 12 27  1  0  0  0  0
 14 15  1  0  0  0  0
 15 17  2  0  0  0  0
 16 30  1  0  0  0  0
 17 34  1  0  0  0  0
 18 27  2  0  0  0  0
 18 30  1  0  0  0  0
 19 20  2  0  0  0  0
 20 21  1  0  0  0  0
 21 28  1  0  0  0  0
 21 31  2  0  0  0  0
 22 24  1  0  0  0  0
 22 28  1  0  0  0  0
 23 25  1  0  0  0  0
 23 28  1  0  0  0  0
 24 29  1  0  0  0  0
 25 29  1  0  0  0  0
 29 34  1  0  0  0  0
 32 34  2  0  0  0  0
 33 34  2  0  0  0  0
  2 35  1  0  0  0  0
  3 36  1  0  0  0  0
  4 37  1  0  0  0  0
  5 38  1  0  0  0  0
  6 39  1  0  0  0  0
  7 40  1  0  0  0  0
  8 41  1  0  0  0  0
  9 42  1  0  0  0  0
 10 43  1  0  0  0  0
 11 44  1  0  0  0  0
 12 45  1  0  0  0  0
 19 46  1  0  0  0  0
 19 47  1  0  0  0  0
 20 48  1  0  0  0  0
 22 49  1  0  0  0  0
 22 50  1  0  0  0  0
 23 51  1  0  0  0  0
 23 52  1  0  0  0  0
 24 53  1  0  0  0  0
 24 54  1  0  0  0  0
 25 55  1  0  0  0  0
 25 56  1  0  0  0  0
 30 57  1  0  0  0  0
M  END
> <Chemgauss4>
-5.927919

> <ref_pdb>
x0749_0

> <CYS145-warhead min dist (A)>
6.800857

> <CYS145-warhead avg dist (A)>
7.591869

> <CYS145-warhead avg dist stderr (A)>
0.03856149

> <original SMILES>
C=CC(=O)N1CCN(CC1)S(=O)(=O)c2ccccc2c3ccc(cc3)Nc4ccc(cn4)C#N

$$$$
NIR-THE-0d6-3
  -OEChem-04232002263D

 51 53  0     0  0  0  0  0  0999 V2000
   11.5794    1.0127   24.7473 C   0  0  0  0  0  0  0  0  0  0  0  0
    9.6330   -0.3971   24.3994 C   0  0  0  0  0  0  0  0  0  0  0  0
   13.2840    0.0894   21.6485 C   0  0  0  0  0  0  0  0  0  0  0  0
   12.1133    0.5630   23.5233 C   0  0  0  0  0  0  0  0  0  0  0  0
   13.3095    0.8373   22.8030 C   0  0  0  0  0  0  0  0  0  0  0  0
   11.3841   -0.3598   22.7704 C   0  0  0  0  0  0  0  0  0  0  0  0
   10.1426   -0.8574   23.1819 C   0  0  0  0  0  0  0  0  0  0  0  0
   10.3386    0.5235   25.1716 C   0  0  0  0  0  0  0  0  0  0  0  0
    6.0347   -1.2916   18.7323 C   0  0  0  0  0  0  0  0  0  0  0  0
   12.9970    4.7457   23.6948 C   0  0  0  0  0  0  0  0  0  0  0  0
    7.3608   -0.5120   22.0170 C   0  0  0  0  0  0  0  0  0  0  0  0
    7.4868   -2.9897   21.5331 C   0  0  0  0  0  0  0  0  0  0  0  0
    7.5089   -0.2415   20.5191 C   0  0  0  0  0  0  0  0  0  0  0  0
    7.6211   -2.6619   20.0460 C   0  0  0  0  0  0  0  0  0  0  0  0
    7.9848   -1.8498   22.4304 C   0  0  0  0  0  0  0  0  0  0  0  0
   11.6540    5.3971   23.7158 C   0  0  0  0  0  0  0  0  0  0  0  0
   14.3904    1.7570   23.2118 C   0  0  0  0  0  0  0  0  0  0  0  0
    5.4736    0.0781   18.4442 C   0  0  0  0  0  0  0  0  0  0  0  0
   14.3908    3.0994   22.4580 C   0  0  0  0  0  0  0  0  0  0  0  0
   12.1186   -0.6291   21.6376 N   0  0  0  0  0  0  0  0  0  0  0  0
    7.0010   -1.3731   19.7346 N   0  0  0  0  0  0  0  0  0  0  0  0
    9.4275   -1.7711   22.4299 N   0  0  0  0  0  0  0  0  0  0  0  0
   13.1731    3.8370   22.6636 N   0  0  0  0  0  0  0  0  0  0  0  0
    5.6238   -2.2589   18.0862 O   0  0  0  0  0  0  0  0  0  0  0  0
   13.8248    5.0403   24.5490 O   0  0  0  0  0  0  0  0  0  0  0  0
    9.8242    0.9465   26.3345 F   0  0  0  0  0  0  0  0  0  0  0  0
    4.3201   -0.1165   17.1291 Cl  0  0  0  0  0  0  0  0  0  0  0  0
   12.1169    1.7300   25.3608 H   0  0  0  0  0  0  0  0  0  0  0  0
    8.6713   -0.7573   24.7586 H   0  0  0  0  0  0  0  0  0  0  0  0
   13.9888    0.0030   20.8331 H   0  0  0  0  0  0  0  0  0  0  0  0
    7.8075    0.3098   22.5897 H   0  0  0  0  0  0  0  0  0  0  0  0
    6.2929   -0.5224   22.2714 H   0  0  0  0  0  0  0  0  0  0  0  0
    6.4294   -3.1813   21.7581 H   0  0  0  0  0  0  0  0  0  0  0  0
    8.0242   -3.9182   21.7603 H   0  0  0  0  0  0  0  0  0  0  0  0
    6.9927    0.6882   20.2730 H   0  0  0  0  0  0  0  0  0  0  0  0
    8.5605   -0.1012   20.2453 H   0  0  0  0  0  0  0  0  0  0  0  0
    8.6757   -2.5975   19.7547 H   0  0  0  0  0  0  0  0  0  0  0  0
    7.1716   -3.4644   19.4525 H   0  0  0  0  0  0  0  0  0  0  0  0
    7.6693   -2.0650   23.4721 H   0  0  0  0  0  0  0  0  0  0  0  0
   10.9232    4.8346   24.3188 H   0  0  0  0  0  0  0  0  0  0  0  0
   11.6827    6.4054   24.1591 H   0  0  0  0  0  0  0  0  0  0  0  0
   11.1779    5.5272   22.7307 H   0  0  0  0  0  0  0  0  0  0  0  0
   15.3770    1.2786   23.0529 H   0  0  0  0  0  0  0  0  0  0  0  0
   14.3543    1.9629   24.3007 H   0  0  0  0  0  0  0  0  0  0  0  0
    6.2820    0.7315   18.1365 H   0  0  0  0  0  0  0  0  0  0  0  0
    4.9691    0.4447   19.3308 H   0  0  0  0  0  0  0  0  0  0  0  0
   15.2097    3.7407   22.7989 H   0  0  0  0  0  0  0  0  0  0  0  0
   14.5048    2.9441   21.3801 H   0  0  0  0  0  0  0  0  0  0  0  0
   11.8376   -1.2656   20.9045 H   0  0  0  0  0  0  0  0  0  0  0  0
    9.9354   -2.4229   21.8469 H   0  0  0  0  0  0  0  0  0  0  0  0
   12.4003    3.6834   22.0178 H   0  0  0  0  0  0  0  0  0  0  0  0
  1  4  1  0  0  0  0
  1  8  2  0  0  0  0
  2  7  2  0  0  0  0
  2  8  1  0  0  0  0
  3  5  2  0  0  0  0
  3 20  1  0  0  0  0
  4  5  1  0  0  0  0
  4  6  2  0  0  0  0
  5 17  1  0  0  0  0
  6  7  1  0  0  0  0
  6 20  1  0  0  0  0
  7 22  1  0  0  0  0
  8 26  1  0  0  0  0
  9 18  1  0  0  0  0
  9 21  1  0  0  0  0
  9 24  2  0  0  0  0
 10 16  1  0  0  0  0
 10 23  1  0  0  0  0
 10 25  2  0  0  0  0
 11 13  1  0  0  0  0
 11 15  1  0  0  0  0
 12 14  1  0  0  0  0
 12 15  1  0  0  0  0
 13 21  1  0  0  0  0
 14 21  1  0  0  0  0
 15 22  1  0  0  0  0
 17 19  1  0  0  0  0
 18 27  1  0  0  0  0
 19 23  1  0  0  0  0
  1 28  1  0  0  0  0
  2 29  1  0  0  0  0
  3 30  1  0  0  0  0
 11 31  1  0  0  0  0
 11 32  1  0  0  0  0
 12 33  1  0  0  0  0
 12 34  1  0  0  0  0
 13 35  1  0  0  0  0
 13 36  1  0  0  0  0
 14 37  1  0  0  0  0
 14 38  1  0  0  0  0
 15 39  1  0  0  0  0
 16 40  1  0  0  0  0
 16 41  1  0  0  0  0
 16 42  1  0  0  0  0
 17 43  1  0  0  0  0
 17 44  1  0  0  0  0
 18 45  1  0  0  0  0
 18 46  1  0  0  0  0
 19 47  1  0  0  0  0
 19 48  1  0  0  0  0
 20 49  1  0  0  0  0
 22 50  1  0  0  0  0
 23 51  1  0  0  0  0
M  END
> <Chemgauss4>
-5.927221

> <ref_pdb>
x0830_0

> <CYS145-warhead min dist (A)>
2.967501

> <CYS145-warhead avg dist (A)>
3.4194107

> <CYS145-warhead avg dist stderr (A)>
0.015956644

> <original SMILES>
CC(=O)NCCc1c[nH]c2c1cc(cc2NC3CCN(CC3)C(=O)CCl)F

$$$$
TAM-UNI-d1c-21
  -OEChem-04232002263D

 45 46  0     1  0  0  0  0  0999 V2000
    9.0942   -2.3183   20.3616 C   0  0  0  0  0  0  0  0  0  0  0  0
    8.6277   -3.4193   19.6434 C   0  0  0  0  0  0  0  0  0  0  0  0
    8.9960   -2.3006   21.7529 C   0  0  0  0  0  0  0  0  0  0  0  0
    8.0629   -4.5026   20.3166 C   0  0  0  0  0  0  0  0  0  0  0  0
    8.4312   -3.3838   22.4260 C   0  0  0  0  0  0  0  0  0  0  0  0
    7.9646   -4.4849   21.7079 C   0  0  0  0  0  0  0  0  0  0  0  0
    5.1105   -4.6600   22.7390 C   0  0  0  0  0  0  0  0  0  0  0  0
   10.6336   -3.1463   24.8443 C   0  0  0  0  0  0  0  0  0  0  0  0
   12.8884   -2.7929   25.8016 C   0  0  0  0  0  0  0  0  0  0  0  0
   11.3324   -0.8804   25.8178 C   0  0  0  0  0  0  0  0  0  0  0  0
   13.9943   -1.8250   25.4115 C   0  0  0  0  0  0  0  0  0  0  0  0
   12.5185    0.0047   25.4500 C   0  0  0  0  0  0  0  0  0  0  0  0
    6.9156   -6.7704   21.4469 C   0  0  0  0  0  0  0  0  0  0  0  0
    8.3370   -3.3432   23.9239 C   0  0  0  0  0  0  0  0  0  0  0  0
    4.0775   -4.3652   23.7964 C   0  0  0  0  0  0  0  0  0  0  0  0
    7.3554   -5.6560   22.4066 C   0  0  2  0  0  0  0  0  0  0  0  0
   11.5748   -2.2731   25.4151 N   0  0  0  0  0  0  0  0  0  0  0  0
    6.2399   -5.2662   23.2510 N   0  0  0  0  0  0  0  0  0  0  0  0
    9.4107   -2.5747   24.5129 N   0  0  0  0  0  0  0  0  0  0  0  0
    4.9221   -4.3886   21.5544 O   0  0  0  0  0  0  0  0  0  0  0  0
   10.8642   -4.3446   24.6509 O   0  0  0  0  0  0  0  0  0  0  0  0
   13.7340   -0.5357   25.9696 O   0  0  0  0  0  0  0  0  0  0  0  0
    2.5972   -5.2379   23.3696 Cl  0  0  0  0  0  0  0  0  0  0  0  0
    9.5332   -1.4748   19.8371 H   0  0  0  0  0  0  0  0  0  0  0  0
    8.7042   -3.4322   18.5601 H   0  0  0  0  0  0  0  0  0  0  0  0
    9.3611   -1.4373   22.3031 H   0  0  0  0  0  0  0  0  0  0  0  0
    7.7026   -5.3560   19.7482 H   0  0  0  0  0  0  0  0  0  0  0  0
   13.0718   -3.7776   25.3615 H   0  0  0  0  0  0  0  0  0  0  0  0
   12.8612   -2.9121   26.8914 H   0  0  0  0  0  0  0  0  0  0  0  0
   11.1909   -0.8940   26.9045 H   0  0  0  0  0  0  0  0  0  0  0  0
   10.4340   -0.4675   25.3570 H   0  0  0  0  0  0  0  0  0  0  0  0
   14.9518   -2.1725   25.8121 H   0  0  0  0  0  0  0  0  0  0  0  0
   14.0979   -1.7457   24.3229 H   0  0  0  0  0  0  0  0  0  0  0  0
   12.6045    0.1266   24.3635 H   0  0  0  0  0  0  0  0  0  0  0  0
   12.3860    1.0007   25.8843 H   0  0  0  0  0  0  0  0  0  0  0  0
    6.1854   -6.3925   20.7228 H   0  0  0  0  0  0  0  0  0  0  0  0
    7.7689   -7.1730   20.8896 H   0  0  0  0  0  0  0  0  0  0  0  0
    6.4569   -7.6088   21.9831 H   0  0  0  0  0  0  0  0  0  0  0  0
    7.3887   -2.8944   24.2391 H   0  0  0  0  0  0  0  0  0  0  0  0
    8.3760   -4.3522   24.3476 H   0  0  0  0  0  0  0  0  0  0  0  0
    4.3950   -4.6809   24.7932 H   0  0  0  0  0  0  0  0  0  0  0  0
    3.8688   -3.2920   23.8112 H   0  0  0  0  0  0  0  0  0  0  0  0
    8.0852   -6.1042   23.1027 H   0  0  0  0  0  0  0  0  0  0  0  0
    6.2923   -5.4446   24.2455 H   0  0  0  0  0  0  0  0  0  0  0  0
    9.2672   -1.5889   24.6896 H   0  0  0  0  0  0  0  0  0  0  0  0
  1  2  1  0  0  0  0
  1  3  2  0  0  0  0
  2  4  2  0  0  0  0
  3  5  1  0  0  0  0
  4  6  1  0  0  0  0
  5  6  2  0  0  0  0
  5 14  1  0  0  0  0
  6 16  1  0  0  0  0
  7 15  1  0  0  0  0
  7 18  1  0  0  0  0
  7 20  2  0  0  0  0
  8 17  1  0  0  0  0
  8 19  1  0  0  0  0
  8 21  2  0  0  0  0
  9 11  1  0  0  0  0
  9 17  1  0  0  0  0
 10 12  1  0  0  0  0
 10 17  1  0  0  0  0
 11 22  1  0  0  0  0
 12 22  1  0  0  0  0
 13 16  1  0  0  0  0
 14 19  1  0  0  0  0
 15 23  1  0  0  0  0
 16 18  1  0  0  0  0
  1 24  1  0  0  0  0
  2 25  1  0  0  0  0
  3 26  1  0  0  0  0
  4 27  1  0  0  0  0
  9 28  1  0  0  0  0
  9 29  1  0  0  0  0
 10 30  1  0  0  0  0
 10 31  1  0  0  0  0
 11 32  1  0  0  0  0
 11 33  1  0  0  0  0
 12 34  1  0  0  0  0
 12 35  1  0  0  0  0
 13 36  1  0  0  0  0
 13 37  1  0  0  0  0
 13 38  1  0  0  0  0
 14 39  1  0  0  0  0
 14 40  1  0  0  0  0
 15 41  1  0  0  0  0
 15 42  1  0  0  0  0
 16 43  1  0  0  0  0
 18 44  1  0  0  0  0
 19 45  1  0  0  0  0
M  END
> <Chemgauss4>
-5.838292

> <ref_pdb>
x0749_0

> <CYS145-warhead min dist (A)>
11.450428

> <CYS145-warhead avg dist (A)>
12.098642

> <CYS145-warhead avg dist stderr (A)>
0.042917363

> <original SMILES>
C[C@@H](c1ccccc1CNC(=O)N2CCOCC2)NC(=O)CCl

$$$$
SEL-UNI-cd3-9
  -OEChem-04232002263D

 49 50  0     1  0  0  0  0  0999 V2000
    6.0544   -5.3102   24.4136 C   0  0  0  0  0  0  0  0  0  0  0  0
    6.3226   -6.3778   23.5569 C   0  0  0  0  0  0  0  0  0  0  0  0
    6.7215   -4.0967   24.2458 C   0  0  0  0  0  0  0  0  0  0  0  0
    7.9251   -5.0184   22.3647 C   0  0  0  0  0  0  0  0  0  0  0  0
    7.2580   -6.2319   22.5325 C   0  0  0  0  0  0  0  0  0  0  0  0
    7.6568   -3.9508   23.2213 C   0  0  0  0  0  0  0  0  0  0  0  0
   13.2006   -2.3686   25.7580 C   0  0  0  0  0  0  0  0  0  0  0  0
   11.6740   -3.8785   24.5288 C   0  0  0  0  0  0  0  0  0  0  0  0
   12.0139   -1.6043   23.6425 C   0  0  0  0  0  0  0  0  0  0  0  0
   10.1652   -3.7230   24.4062 C   0  0  0  0  0  0  0  0  0  0  0  0
   10.5093   -1.4151   23.5046 C   0  0  0  0  0  0  0  0  0  0  0  0
    7.5432   -7.3735   21.6160 C   0  0  0  0  0  0  0  0  0  0  0  0
    6.2538   -1.0166   18.9855 C   0  0  0  0  0  0  0  0  0  0  0  0
   13.8262   -1.0003   25.8576 C   0  0  0  0  0  0  0  0  0  0  0  0
    8.1612   -2.0386   21.6461 C   0  0  0  0  0  0  0  0  0  0  0  0
    8.3806   -2.6350   23.0398 C   0  0  2  0  0  0  0  0  0  0  0  0
   12.3248   -2.5787   24.6939 N   0  0  0  0  0  0  0  0  0  0  0  0
    6.8377   -1.3747   21.5767 N   0  0  0  0  0  0  0  0  0  0  0  0
    9.8588   -2.7617   23.2795 N   0  3  0  0  0  0  0  0  0  0  0  0
   13.4811   -3.2228   26.6029 O   0  0  0  0  0  0  0  0  0  0  0  0
    4.3818   -1.4314   20.7671 O   0  0  0  0  0  0  0  0  0  0  0  0
    5.9438   -3.3190   20.1723 O   0  0  0  0  0  0  0  0  0  0  0  0
    5.7061   -1.9102   20.4220 S   0  0  0  0  0  0  0  0  0  0  0  0
   14.8417   -1.0141   27.2951 Cl  0  0  0  0  0  0  0  0  0  0  0  0
    5.3260   -5.4238   25.2113 H   0  0  0  0  0  0  0  0  0  0  0  0
    5.7976   -7.3194   23.6951 H   0  0  0  0  0  0  0  0  0  0  0  0
    6.5067   -3.2705   24.9184 H   0  0  0  0  0  0  0  0  0  0  0  0
    8.6537   -4.9038   21.5656 H   0  0  0  0  0  0  0  0  0  0  0  0
   11.9061   -4.5386   25.3704 H   0  0  0  0  0  0  0  0  0  0  0  0
   12.0909   -4.3433   23.6271 H   0  0  0  0  0  0  0  0  0  0  0  0
   12.4417   -1.9869   22.7078 H   0  0  0  0  0  0  0  0  0  0  0  0
   12.4797   -0.6361   23.8338 H   0  0  0  0  0  0  0  0  0  0  0  0
    9.6971   -4.6802   24.1549 H   0  0  0  0  0  0  0  0  0  0  0  0
    9.7174   -3.3218   25.3224 H   0  0  0  0  0  0  0  0  0  0  0  0
   10.0670   -0.9738   24.4048 H   0  0  0  0  0  0  0  0  0  0  0  0
   10.2769   -0.7914   22.6354 H   0  0  0  0  0  0  0  0  0  0  0  0
    6.8727   -7.3434   20.7484 H   0  0  0  0  0  0  0  0  0  0  0  0
    8.5797   -7.3459   21.2558 H   0  0  0  0  0  0  0  0  0  0  0  0
    7.4096   -8.3366   22.1258 H   0  0  0  0  0  0  0  0  0  0  0  0
    5.5998   -1.2727   18.1505 H   0  0  0  0  0  0  0  0  0  0  0  0
    6.1972    0.0513   19.2020 H   0  0  0  0  0  0  0  0  0  0  0  0
    7.2824   -1.3092   18.7695 H   0  0  0  0  0  0  0  0  0  0  0  0
   13.0403   -0.2614   25.9642 H   0  0  0  0  0  0  0  0  0  0  0  0
   14.4317   -0.8258   24.9756 H   0  0  0  0  0  0  0  0  0  0  0  0
    8.1837   -2.8224   20.8802 H   0  0  0  0  0  0  0  0  0  0  0  0
    8.9310   -1.3016   21.3913 H   0  0  0  0  0  0  0  0  0  0  0  0
    8.0420   -1.9208   23.8005 H   0  0  0  0  0  0  0  0  0  0  0  0
    6.8740   -0.3690   21.7709 H   0  0  0  0  0  0  0  0  0  0  0  0
   10.2620   -3.1574   22.4189 H   0  0  0  0  0  0  0  0  0  0  0  0
  1  2  2  0  0  0  0
  1  3  1  0  0  0  0
  2  5  1  0  0  0  0
  3  6  2  0  0  0  0
  4  5  2  0  0  0  0
  4  6  1  0  0  0  0
  5 12  1  0  0  0  0
  6 16  1  0  0  0  0
  7 14  1  0  0  0  0
  7 17  1  0  0  0  0
  7 20  2  0  0  0  0
  8 10  1  0  0  0  0
  8 17  1  0  0  0  0
  9 11  1  0  0  0  0
  9 17  1  0  0  0  0
 10 19  1  0  0  0  0
 11 19  1  0  0  0  0
 13 23  1  0  0  0  0
 14 24  1  0  0  0  0
 15 16  1  0  0  0  0
 15 18  1  0  0  0  0
 16 19  1  0  0  0  0
 18 23  1  0  0  0  0
 21 23  2  0  0  0  0
 22 23  2  0  0  0  0
  1 25  1  0  0  0  0
  2 26  1  0  0  0  0
  3 27  1  0  0  0  0
  4 28  1  0  0  0  0
  8 29  1  0  0  0  0
  8 30  1  0  0  0  0
  9 31  1  0  0  0  0
  9 32  1  0  0  0  0
 10 33  1  0  0  0  0
 10 34  1  0  0  0  0
 11 35  1  0  0  0  0
 11 36  1  0  0  0  0
 12 37  1  0  0  0  0
 12 38  1  0  0  0  0
 12 39  1  0  0  0  0
 13 40  1  0  0  0  0
 13 41  1  0  0  0  0
 13 42  1  0  0  0  0
 14 43  1  0  0  0  0
 14 44  1  0  0  0  0
 15 45  1  0  0  0  0
 15 46  1  0  0  0  0
 16 47  1  0  0  0  0
 18 48  1  0  0  0  0
 19 49  1  0  0  0  0
M  CHG  1  19   1
M  END
> <Chemgauss4>
-5.811709

> <ref_pdb>
x0749_0

> <CYS145-warhead min dist (A)>
6.143739

> <CYS145-warhead avg dist (A)>
6.5759306

> <CYS145-warhead avg dist stderr (A)>
0.020031461

> <original SMILES>
Cc1cccc(c1)[C@H](CNS(=O)(=O)C)[NH+]2CCN(CC2)C(=O)CCl

$$$$
VIT-UNK-525-7
  -OEChem-04232002263D

 67 69  0     1  0  0  0  0  0999 V2000
   11.8336   -0.0218   22.3329 C   0  0  0  0  0  0  0  0  0  0  0  0
    9.8532   -0.0964   23.7146 C   0  0  0  0  0  0  0  0  0  0  0  0
   11.9715    0.5586   24.6741 C   0  0  0  0  0  0  0  0  0  0  0  0
   10.4674   -0.2651   22.4737 C   0  0  0  0  0  0  0  0  0  0  0  0
   12.5857    0.3900   23.4332 C   0  0  0  0  0  0  0  0  0  0  0  0
   10.6052    0.3154   24.8149 C   0  0  0  0  0  0  0  0  0  0  0  0
    3.7950   -6.4204   24.9736 C   0  0  0  0  0  0  0  0  0  0  0  0
    3.7602   -6.3116   23.6385 C   0  0  0  0  0  0  0  0  0  0  0  0
    4.1465   -7.7159   25.6096 C   0  0  0  0  0  0  0  0  0  0  0  0
    7.3295   -5.0690   25.6055 C   0  0  0  0  0  0  0  0  0  0  0  0
    8.9469   -2.9000   22.3369 C   0  0  0  0  0  0  0  0  0  0  0  0
    7.8951   -5.2585   26.9994 C   0  0  0  0  0  0  0  0  0  0  0  0
    9.4707   -6.0528   25.3130 C   0  0  0  0  0  0  0  0  0  0  0  0
    6.4822   -2.7588   20.7489 C   0  0  0  0  0  0  0  0  0  0  0  0
    8.5784   -4.9623   24.7409 C   0  0  1  0  0  0  0  0  0  0  0  0
    7.7679   -3.8398   22.6482 C   0  0  1  0  0  0  0  0  0  0  0  0
    6.9165   -4.0855   21.3786 C   0  0  1  0  0  0  0  0  0  0  0  0
    8.4851   -1.5910   21.6998 C   0  0  1  0  0  0  0  0  0  0  0  0
    9.6557   -0.7108   21.2862 C   0  0  0  0  0  0  0  0  0  0  0  0
    3.4131   -5.0369   22.9235 C   0  0  0  0  0  0  0  0  0  0  0  0
    8.3004   -5.1392   23.2586 C   0  0  0  0  0  0  0  0  0  0  0  0
    4.6461   -4.2141   22.5400 C   0  0  0  0  0  0  0  0  0  0  0  0
    5.6737   -4.9336   21.6625 C   0  0  1  0  0  0  0  0  0  0  0  0
    4.7658   -7.5511   26.8270 N   0  0  0  0  0  0  0  0  0  0  0  0
    9.1588   -6.0409   26.7828 N   0  3  0  0  0  0  0  0  0  0  0  0
    7.6819   -1.9147   20.4779 N   0  3  0  0  0  0  0  0  0  0  0  0
    3.9083   -8.8047   25.0987 O   0  0  0  0  0  0  0  0  0  0  0  0
   13.9191    0.6274   23.2967 O   0  0  0  0  0  0  0  0  0  0  0  0
   10.0058    0.4788   26.0260 O   0  0  0  0  0  0  0  0  0  0  0  0
    5.0751   -5.2322   20.4033 O   0  0  0  0  0  0  0  0  0  0  0  0
   12.3148   -0.1527   21.3668 H   0  0  0  0  0  0  0  0  0  0  0  0
    8.7884   -0.2862   23.8280 H   0  0  0  0  0  0  0  0  0  0  0  0
   12.5578    0.8793   25.5314 H   0  0  0  0  0  0  0  0  0  0  0  0
    3.5730   -5.5706   25.6103 H   0  0  0  0  0  0  0  0  0  0  0  0
    3.9809   -7.1698   23.0088 H   0  0  0  0  0  0  0  0  0  0  0  0
    6.7240   -5.9381   25.3203 H   0  0  0  0  0  0  0  0  0  0  0  0
    6.7001   -4.1765   25.5370 H   0  0  0  0  0  0  0  0  0  0  0  0
    9.4899   -2.6763   23.2640 H   0  0  0  0  0  0  0  0  0  0  0  0
    9.6594   -3.4086   21.6733 H   0  0  0  0  0  0  0  0  0  0  0  0
    8.1855   -4.3088   27.4592 H   0  0  0  0  0  0  0  0  0  0  0  0
    7.2428   -5.8263   27.6675 H   0  0  0  0  0  0  0  0  0  0  0  0
    9.2153   -7.0517   24.9447 H   0  0  0  0  0  0  0  0  0  0  0  0
   10.5388   -5.8582   25.1857 H   0  0  0  0  0  0  0  0  0  0  0  0
    5.9849   -2.9123   19.7858 H   0  0  0  0  0  0  0  0  0  0  0  0
    5.8205   -2.1818   21.4043 H   0  0  0  0  0  0  0  0  0  0  0  0
    9.0495   -3.9840   24.8981 H   0  0  0  0  0  0  0  0  0  0  0  0
    7.1372   -3.3509   23.4035 H   0  0  0  0  0  0  0  0  0  0  0  0
    7.5275   -4.6287   20.6444 H   0  0  0  0  0  0  0  0  0  0  0  0
    7.8228   -1.0375   22.3758 H   0  0  0  0  0  0  0  0  0  0  0  0
    9.2847    0.1656   20.7417 H   0  0  0  0  0  0  0  0  0  0  0  0
   10.2972   -1.2555   20.5832 H   0  0  0  0  0  0  0  0  0  0  0  0
    2.7215   -4.4260   23.5148 H   0  0  0  0  0  0  0  0  0  0  0  0
    2.8737   -5.3027   22.0060 H   0  0  0  0  0  0  0  0  0  0  0  0
    9.2051   -5.4053   22.7226 H   0  0  0  0  0  0  0  0  0  0  0  0
    7.5538   -5.9082   23.0923 H   0  0  0  0  0  0  0  0  0  0  0  0
    4.3267   -3.2990   22.0229 H   0  0  0  0  0  0  0  0  0  0  0  0
    5.1373   -3.8635   23.4575 H   0  0  0  0  0  0  0  0  0  0  0  0
    5.9850   -5.8794   22.1116 H   0  0  0  0  0  0  0  0  0  0  0  0
    4.9369   -6.6230   27.1997 H   0  0  0  0  0  0  0  0  0  0  0  0
    5.0738   -8.3303   27.4003 H   0  0  0  0  0  0  0  0  0  0  0  0
    9.9323   -5.6178   27.3140 H   0  0  0  0  0  0  0  0  0  0  0  0
    9.0571   -7.0035   27.1324 H   0  0  0  0  0  0  0  0  0  0  0  0
    8.2786   -2.3857   19.7830 H   0  0  0  0  0  0  0  0  0  0  0  0
    7.3746   -1.0395   20.0313 H   0  0  0  0  0  0  0  0  0  0  0  0
   14.1971    0.4674   22.3808 H   0  0  0  0  0  0  0  0  0  0  0  0
   10.6557    0.7664   26.6868 H   0  0  0  0  0  0  0  0  0  0  0  0
    4.2899   -5.7688   20.5918 H   0  0  0  0  0  0  0  0  0  0  0  0
  1  4  1  0  0  0  0
  1  5  2  0  0  0  0
  2  4  2  0  0  0  0
  2  6  1  0  0  0  0
  3  5  1  0  0  0  0
  3  6  2  0  0  0  0
  4 19  1  0  0  0  0
  5 28  1  0  0  0  0
  6 29  1  0  0  0  0
  7  8  2  0  0  0  0
  7  9  1  0  0  0  0
  8 20  1  0  0  0  0
  9 24  1  0  0  0  0
  9 27  2  0  0  0  0
 10 12  1  0  0  0  0
 10 15  1  0  0  0  0
 11 16  1  0  0  0  0
 11 18  1  0  0  0  0
 12 25  1  0  0  0  0
 13 15  1  0  0  0  0
 13 25  1  0  0  0  0
 14 17  1  0  0  0  0
 14 26  1  0  0  0  0
 15 21  1  0  0  0  0
 16 17  1  0  0  0  0
 16 21  1  0  0  0  0
 17 23  1  0  0  0  0
 18 19  1  0  0  0  0
 18 26  1  0  0  0  0
 20 22  1  0  0  0  0
 22 23  1  0  0  0  0
 23 30  1  0  0  0  0
  1 31  1  0  0  0  0
  2 32  1  0  0  0  0
  3 33  1  0  0  0  0
  7 34  1  0  0  0  0
  8 35  1  0  0  0  0
 10 36  1  0  0  0  0
 10 37  1  0  0  0  0
 11 38  1  0  0  0  0
 11 39  1  0  0  0  0
 12 40  1  0  0  0  0
 12 41  1  0  0  0  0
 13 42  1  0  0  0  0
 13 43  1  0  0  0  0
 14 44  1  0  0  0  0
 14 45  1  0  0  0  0
 15 46  1  0  0  0  0
 16 47  1  0  0  0  0
 17 48  1  0  0  0  0
 18 49  1  0  0  0  0
 19 50  1  0  0  0  0
 19 51  1  0  0  0  0
 20 52  1  0  0  0  0
 20 53  1  0  0  0  0
 21 54  1  0  0  0  0
 21 55  1  0  0  0  0
 22 56  1  0  0  0  0
 22 57  1  0  0  0  0
 23 58  1  0  0  0  0
 24 59  1  0  0  0  0
 24 60  1  0  0  0  0
 25 61  1  0  0  0  0
 25 62  1  0  0  0  0
 26 63  1  0  0  0  0
 26 64  1  0  0  0  0
 28 65  1  0  0  0  0
 29 66  1  0  0  0  0
 30 67  1  0  0  0  0
M  CHG  2  25   1  26   1
M  END
> <Chemgauss4>
-5.793927

> <ref_pdb>
x1392_0

> <original SMILES>
c1c(cc(cc1O)O)C[C@@H]2C[C@@H]([C@H](C[NH2+]2)[C@@H](CC/C=C/C(=O)N)O)C[C@H]3CC[NH2+]C3

$$$$
PAU-WEI-b9b-3
  -OEChem-04232002263D

 54 56  0     1  0  0  0  0  0999 V2000
    9.5308   -5.4217   26.1405 C   0  0  0  0  0  0  0  0  0  0  0  0
    9.6940   -4.4660   25.1377 C   0  0  0  0  0  0  0  0  0  0  0  0
   12.0251    1.6139   23.2107 C   0  0  0  0  0  0  0  0  0  0  0  0
   11.2595    1.1405   25.4527 C   0  0  0  0  0  0  0  0  0  0  0  0
   11.9669    0.2546   22.9037 C   0  0  0  0  0  0  0  0  0  0  0  0
   11.2012   -0.2189   25.1457 C   0  0  0  0  0  0  0  0  0  0  0  0
    8.4342   -5.3509   26.9996 C   0  0  0  0  0  0  0  0  0  0  0  0
    7.6640   -3.3686   25.8533 C   0  0  0  0  0  0  0  0  0  0  0  0
   11.6715    2.0569   24.4852 C   0  0  0  0  0  0  0  0  0  0  0  0
   11.5549   -0.6619   23.8712 C   0  0  0  0  0  0  0  0  0  0  0  0
    8.7607   -3.4394   24.9941 C   0  0  0  0  0  0  0  0  0  0  0  0
    7.5008   -4.3243   26.8560 C   0  0  0  0  0  0  0  0  0  0  0  0
    5.9190   -1.9812   19.2821 C   0  0  0  0  0  0  0  0  0  0  0  0
    6.3289   -3.3702   21.2880 C   0  0  0  0  0  0  0  0  0  0  0  0
    6.3074   -0.9211   21.5610 C   0  0  0  0  0  0  0  0  0  0  0  0
    7.6360   -3.4655   22.0612 C   0  0  0  0  0  0  0  0  0  0  0  0
    7.6141   -0.9798   22.3405 C   0  0  0  0  0  0  0  0  0  0  0  0
   11.7335    3.5102   24.8142 C   0  0  0  0  0  0  0  0  0  0  0  0
   11.4905   -2.1308   23.5381 C   0  0  0  0  0  0  0  0  0  0  0  0
    5.7960   -0.5959   18.6994 C   0  0  0  0  0  0  0  0  0  0  0  0
   10.1474   -2.6255   22.9736 C   0  0  0  0  0  0  0  0  0  0  0  0
    8.9389   -2.4028   23.9074 C   0  0  1  0  0  0  0  0  0  0  0  0
    6.1915   -2.0624   20.6469 N   0  0  0  0  0  0  0  0  0  0  0  0
    7.7139   -2.3163   23.0413 N   0  3  0  0  0  0  0  0  0  0  0  0
    5.7793   -2.9602   18.5445 O   0  0  0  0  0  0  0  0  0  0  0  0
    6.1486   -4.2369   27.9170 Cl  0  0  0  0  0  0  0  0  0  0  0  0
    7.4149   -0.1106   18.2079 Cl  0  0  0  0  0  0  0  0  0  0  0  0
   10.2579   -6.2208   26.2521 H   0  0  0  0  0  0  0  0  0  0  0  0
   10.5516   -4.5289   24.4729 H   0  0  0  0  0  0  0  0  0  0  0  0
   12.3479    2.3208   22.4508 H   0  0  0  0  0  0  0  0  0  0  0  0
   10.9811    1.4772   26.4479 H   0  0  0  0  0  0  0  0  0  0  0  0
   12.2427   -0.0814   21.9077 H   0  0  0  0  0  0  0  0  0  0  0  0
   10.8793   -0.9262   25.9055 H   0  0  0  0  0  0  0  0  0  0  0  0
    8.3199   -6.1025   27.7769 H   0  0  0  0  0  0  0  0  0  0  0  0
    6.9388   -2.5665   25.7368 H   0  0  0  0  0  0  0  0  0  0  0  0
    6.2841   -4.1732   20.5456 H   0  0  0  0  0  0  0  0  0  0  0  0
    5.4708   -3.5000   21.9587 H   0  0  0  0  0  0  0  0  0  0  0  0
    5.4494   -0.9623   22.2430 H   0  0  0  0  0  0  0  0  0  0  0  0
    6.2493    0.0318   21.0322 H   0  0  0  0  0  0  0  0  0  0  0  0
    7.6750   -4.3928   22.6419 H   0  0  0  0  0  0  0  0  0  0  0  0
    8.5091   -3.4056   21.4017 H   0  0  0  0  0  0  0  0  0  0  0  0
    8.4872   -0.8766   21.6864 H   0  0  0  0  0  0  0  0  0  0  0  0
    7.6379   -0.2041   23.1128 H   0  0  0  0  0  0  0  0  0  0  0  0
   10.7751    3.9940   24.5894 H   0  0  0  0  0  0  0  0  0  0  0  0
   11.9627    3.6690   25.8760 H   0  0  0  0  0  0  0  0  0  0  0  0
   12.5214    4.0154   24.2403 H   0  0  0  0  0  0  0  0  0  0  0  0
   11.7052   -2.6830   24.4627 H   0  0  0  0  0  0  0  0  0  0  0  0
   12.2950   -2.3989   22.8416 H   0  0  0  0  0  0  0  0  0  0  0  0
    5.4224    0.0753   19.4643 H   0  0  0  0  0  0  0  0  0  0  0  0
    5.1408   -0.6345   17.8367 H   0  0  0  0  0  0  0  0  0  0  0  0
    9.9725   -2.0569   22.0495 H   0  0  0  0  0  0  0  0  0  0  0  0
   10.2203   -3.6762   22.6682 H   0  0  0  0  0  0  0  0  0  0  0  0
    9.0219   -1.4052   24.3552 H   0  0  0  0  0  0  0  0  0  0  0  0
    6.9037   -2.3936   23.6716 H   0  0  0  0  0  0  0  0  0  0  0  0
  1  2  2  0  0  0  0
  1  7  1  0  0  0  0
  2 11  1  0  0  0  0
  3  5  2  0  0  0  0
  3  9  1  0  0  0  0
  4  6  1  0  0  0  0
  4  9  2  0  0  0  0
  5 10  1  0  0  0  0
  6 10  2  0  0  0  0
  7 12  2  0  0  0  0
  8 11  2  0  0  0  0
  8 12  1  0  0  0  0
  9 18  1  0  0  0  0
 10 19  1  0  0  0  0
 11 22  1  0  0  0  0
 12 26  1  0  0  0  0
 13 20  1  0  0  0  0
 13 23  1  0  0  0  0
 13 25  2  0  0  0  0
 14 16  1  0  0  0  0
 14 23  1  0  0  0  0
 15 17  1  0  0  0  0
 15 23  1  0  0  0  0
 16 24  1  0  0  0  0
 17 24  1  0  0  0  0
 19 21  1  0  0  0  0
 20 27  1  0  0  0  0
 21 22  1  0  0  0  0
 22 24  1  0  0  0  0
  1 28  1  0  0  0  0
  2 29  1  0  0  0  0
  3 30  1  0  0  0  0
  4 31  1  0  0  0  0
  5 32  1  0  0  0  0
  6 33  1  0  0  0  0
  7 34  1  0  0  0  0
  8 35  1  0  0  0  0
 14 36  1  0  0  0  0
 14 37  1  0  0  0  0
 15 38  1  0  0  0  0
 15 39  1  0  0  0  0
 16 40  1  0  0  0  0
 16 41  1  0  0  0  0
 17 42  1  0  0  0  0
 17 43  1  0  0  0  0
 18 44  1  0  0  0  0
 18 45  1  0  0  0  0
 18 46  1  0  0  0  0
 19 47  1  0  0  0  0
 19 48  1  0  0  0  0
 20 49  1  0  0  0  0
 20 50  1  0  0  0  0
 21 51  1  0  0  0  0
 21 52  1  0  0  0  0
 22 53  1  0  0  0  0
 24 54  1  0  0  0  0
M  CHG  1  24   1
M  END
> <Chemgauss4>
-5.755061

> <ref_pdb>
x1392_0

> <CYS145-warhead min dist (A)>
5.364526

> <CYS145-warhead avg dist (A)>
6.7210484

> <CYS145-warhead avg dist stderr (A)>
0.016291402

> <original SMILES>
Cc1ccc(cc1)CC[C@H](c2cccc(c2)Cl)[NH+]3CCN(CC3)C(=O)CCl

$$$$
SIM-SYN-7db-1
  -OEChem-04232002263D

 52 54  0     1  0  0  0  0  0999 V2000
   14.3543   -0.6540   25.3209 C   0  0  0  0  0  0  0  0  0  0  0  0
    8.3994   -0.3010   18.8658 C   0  0  0  0  0  0  0  0  0  0  0  0
   14.3348   -1.8131   26.0966 C   0  0  0  0  0  0  0  0  0  0  0  0
   13.2612   -0.3357   24.5150 C   0  0  0  0  0  0  0  0  0  0  0  0
    7.0171   -0.4431   18.9865 C   0  0  0  0  0  0  0  0  0  0  0  0
    9.2172   -0.4598   19.9846 C   0  0  0  0  0  0  0  0  0  0  0  0
   13.2223   -2.6538   26.0665 C   0  0  0  0  0  0  0  0  0  0  0  0
   12.1486   -1.1765   24.4848 C   0  0  0  0  0  0  0  0  0  0  0  0
    6.4525   -0.7440   20.2260 C   0  0  0  0  0  0  0  0  0  0  0  0
    8.6527   -0.7606   21.2241 C   0  0  0  0  0  0  0  0  0  0  0  0
   12.1291   -2.3356   25.2606 C   0  0  0  0  0  0  0  0  0  0  0  0
    7.2703   -0.9027   21.3448 C   0  0  0  0  0  0  0  0  0  0  0  0
   10.9442   -3.2312   25.2285 C   0  0  0  0  0  0  0  0  0  0  0  0
    6.5841   -6.0298   21.0769 C   0  0  0  0  0  0  0  0  0  0  0  0
    9.3657   -5.3919   23.3501 C   0  0  0  0  0  0  0  0  0  0  0  0
    8.1141   -6.2329   23.0972 C   0  0  0  0  0  0  0  0  0  0  0  0
    6.7665   -4.1898   22.7214 C   0  0  0  0  0  0  0  0  0  0  0  0
    9.0058   -4.0019   23.8852 C   0  0  2  0  0  0  0  0  0  0  0  0
    7.9998   -3.3188   22.9510 C   0  0  2  0  0  0  0  0  0  0  0  0
    6.6637   -1.2261   22.6784 C   0  0  0  0  0  0  0  0  0  0  0  0
    6.9909   -7.4263   20.6792 C   0  0  0  0  0  0  0  0  0  0  0  0
    7.1581   -5.5186   22.2413 N   0  0  0  0  0  0  0  0  0  0  0  0
   10.1980   -3.2070   24.0598 N   0  0  0  0  0  0  0  0  0  0  0  0
    7.5637   -2.0272   23.5487 N   0  3  0  0  0  0  0  0  0  0  0  0
   10.6801   -3.9124   26.2157 O   0  0  0  0  0  0  0  0  0  0  0  0
    5.7821   -5.4126   20.3713 O   0  0  0  0  0  0  0  0  0  0  0  0
    8.3808   -7.2615   19.6121 Cl  0  0  0  0  0  0  0  0  0  0  0  0
   15.2206    0.0006   25.3444 H   0  0  0  0  0  0  0  0  0  0  0  0
    8.8390   -0.0681   17.9003 H   0  0  0  0  0  0  0  0  0  0  0  0
   15.1862   -2.0609   26.7239 H   0  0  0  0  0  0  0  0  0  0  0  0
   13.2762    0.5670   23.9112 H   0  0  0  0  0  0  0  0  0  0  0  0
    6.3803   -0.3206   18.1152 H   0  0  0  0  0  0  0  0  0  0  0  0
   10.2936   -0.3502   19.8907 H   0  0  0  0  0  0  0  0  0  0  0  0
   13.2177   -3.5545   26.6750 H   0  0  0  0  0  0  0  0  0  0  0  0
   11.3025   -0.9185   23.8531 H   0  0  0  0  0  0  0  0  0  0  0  0
    5.3745   -0.8527   20.3106 H   0  0  0  0  0  0  0  0  0  0  0  0
    9.2976   -0.8824   22.0903 H   0  0  0  0  0  0  0  0  0  0  0  0
   10.0108   -5.9139   24.0672 H   0  0  0  0  0  0  0  0  0  0  0  0
    9.9309   -5.3016   22.4132 H   0  0  0  0  0  0  0  0  0  0  0  0
    8.4067   -7.1943   22.6718 H   0  0  0  0  0  0  0  0  0  0  0  0
    7.6013   -6.4420   24.0438 H   0  0  0  0  0  0  0  0  0  0  0  0
    6.2097   -4.3415   23.6547 H   0  0  0  0  0  0  0  0  0  0  0  0
    6.0884   -3.7075   22.0094 H   0  0  0  0  0  0  0  0  0  0  0  0
    8.5641   -4.1150   24.8839 H   0  0  0  0  0  0  0  0  0  0  0  0
    8.4649   -3.0679   21.9896 H   0  0  0  0  0  0  0  0  0  0  0  0
    6.4190   -0.3142   23.2336 H   0  0  0  0  0  0  0  0  0  0  0  0
    5.7407   -1.8045   22.5632 H   0  0  0  0  0  0  0  0  0  0  0  0
    6.1688   -7.8946   20.1501 H   0  0  0  0  0  0  0  0  0  0  0  0
    7.2686   -7.9784   21.5698 H   0  0  0  0  0  0  0  0  0  0  0  0
   10.4441   -2.5696   23.3085 H   0  0  0  0  0  0  0  0  0  0  0  0
    7.0909   -2.2140   24.4430 H   0  0  0  0  0  0  0  0  0  0  0  0
    8.3950   -1.4677   23.7818 H   0  0  0  0  0  0  0  0  0  0  0  0
  1  3  1  0  0  0  0
  1  4  2  0  0  0  0
  2  5  1  0  0  0  0
  2  6  2  0  0  0  0
  3  7  2  0  0  0  0
  4  8  1  0  0  0  0
  5  9  2  0  0  0  0
  6 10  1  0  0  0  0
  7 11  1  0  0  0  0
  8 11  2  0  0  0  0
  9 12  1  0  0  0  0
 10 12  2  0  0  0  0
 11 13  1  0  0  0  0
 12 20  1  0  0  0  0
 13 23  1  0  0  0  0
 13 25  2  0  0  0  0
 14 21  1  0  0  0  0
 14 22  1  0  0  0  0
 14 26  2  0  0  0  0
 15 16  1  0  0  0  0
 15 18  1  0  0  0  0
 16 22  1  0  0  0  0
 17 19  1  0  0  0  0
 17 22  1  0  0  0  0
 18 19  1  0  0  0  0
 18 23  1  0  0  0  0
 19 24  1  0  0  0  0
 20 24  1  0  0  0  0
 21 27  1  0  0  0  0
  1 28  1  0  0  0  0
  2 29  1  0  0  0  0
  3 30  1  0  0  0  0
  4 31  1  0  0  0  0
  5 32  1  0  0  0  0
  6 33  1  0  0  0  0
  7 34  1  0  0  0  0
  8 35  1  0  0  0  0
  9 36  1  0  0  0  0
 10 37  1  0  0  0  0
 15 38  1  0  0  0  0
 15 39  1  0  0  0  0
 16 40  1  0  0  0  0
 16 41  1  0  0  0  0
 17 42  1  0  0  0  0
 17 43  1  0  0  0  0
 18 44  1  0  0  0  0
 19 45  1  0  0  0  0
 20 46  1  0  0  0  0
 20 47  1  0  0  0  0
 21 48  1  0  0  0  0
 21 49  1  0  0  0  0
 23 50  1  0  0  0  0
 24 51  1  0  0  0  0
 24 52  1  0  0  0  0
M  CHG  1  24   1
M  END
> <Chemgauss4>
-5.691340

> <ref_pdb>
x0749_0

> <CYS145-warhead min dist (A)>
5.3510723

> <CYS145-warhead avg dist (A)>
7.0663676

> <CYS145-warhead avg dist stderr (A)>
0.1021878

> <original SMILES>
c1ccc(cc1)C[NH2+][C@@H]2CN(CC[C@H]2NC(=O)c3ccccc3)C(=O)CCl

$$$$
PAU-WEI-b9b-5
  -OEChem-04232002263D

 55 57  0     1  0  0  0  0  0999 V2000
    6.2906   -5.4035   21.1667 C   0  0  0  0  0  0  0  0  0  0  0  0
    5.4036   -2.3508   23.1032 C   0  0  0  0  0  0  0  0  0  0  0  0
    5.2923   -3.4613   22.2666 C   0  0  0  0  0  0  0  0  0  0  0  0
    6.6279   -2.0453   23.6976 C   0  0  0  0  0  0  0  0  0  0  0  0
    8.9087   -1.0377   21.0524 C   0  0  0  0  0  0  0  0  0  0  0  0
    7.8190    0.8840   22.0305 C   0  0  0  0  0  0  0  0  0  0  0  0
    8.0330   -0.9824   19.9681 C   0  0  0  0  0  0  0  0  0  0  0  0
    6.9433    0.9393   20.9461 C   0  0  0  0  0  0  0  0  0  0  0  0
    7.6297   -3.9608   22.6187 C   0  0  0  0  0  0  0  0  0  0  0  0
    6.4053   -4.2663   22.0243 C   0  0  0  0  0  0  0  0  0  0  0  0
    8.8016   -0.1046   22.0836 C   0  0  0  0  0  0  0  0  0  0  0  0
    7.0504    0.0061   19.9149 C   0  0  0  0  0  0  0  0  0  0  0  0
    7.7410   -2.8503   23.4554 C   0  0  0  0  0  0  0  0  0  0  0  0
    7.9384   -6.1323   28.1445 C   0  0  0  0  0  0  0  0  0  0  0  0
    9.5984   -5.5111   26.4184 C   0  0  0  0  0  0  0  0  0  0  0  0
    8.5251   -3.6985   27.6972 C   0  0  0  0  0  0  0  0  0  0  0  0
    9.3058   -4.7898   25.1109 C   0  0  0  0  0  0  0  0  0  0  0  0
    8.2178   -2.9484   26.4081 C   0  0  0  0  0  0  0  0  0  0  0  0
    9.7477   -0.1636   23.2560 C   0  0  0  0  0  0  0  0  0  0  0  0
    6.9572   -5.6656   29.1900 C   0  0  0  0  0  0  0  0  0  0  0  0
    9.2839   -1.0290   24.4406 C   0  0  0  0  0  0  0  0  0  0  0  0
    9.0683   -2.5189   24.1000 C   0  0  1  0  0  0  0  0  0  0  0  0
    6.1156    0.0656   18.7543 C   0  0  0  0  0  0  0  0  0  0  0  0
    6.1974   -6.3271   20.4702 N   0  0  0  0  0  0  0  0  0  0  0  0
    8.6308   -5.1407   27.4511 N   0  0  0  0  0  0  0  0  0  0  0  0
    9.2591   -3.3004   25.3694 N   0  3  0  0  0  0  0  0  0  0  0  0
    8.0817   -7.3421   27.9495 O   0  0  0  0  0  0  0  0  0  0  0  0
    6.3378   -0.9075   17.8218 F   0  0  0  0  0  0  0  0  0  0  0  0
    4.8018   -0.0690   19.1030 F   0  0  0  0  0  0  0  0  0  0  0  0
    6.1951    1.2474   18.0761 F   0  0  0  0  0  0  0  0  0  0  0  0
    5.4175   -5.4357   28.3690 Cl  0  0  0  0  0  0  0  0  0  0  0  0
    4.5368   -1.7244   23.2930 H   0  0  0  0  0  0  0  0  0  0  0  0
    4.3313   -3.6864   21.8101 H   0  0  0  0  0  0  0  0  0  0  0  0
    6.7048   -1.1775   24.3475 H   0  0  0  0  0  0  0  0  0  0  0  0
    9.6709   -1.8118   21.0857 H   0  0  0  0  0  0  0  0  0  0  0  0
    7.7293    1.6157   22.8291 H   0  0  0  0  0  0  0  0  0  0  0  0
    8.1247   -1.7125   19.1684 H   0  0  0  0  0  0  0  0  0  0  0  0
    6.1804    1.7127   20.9127 H   0  0  0  0  0  0  0  0  0  0  0  0
    8.5013   -4.5857   22.4344 H   0  0  0  0  0  0  0  0  0  0  0  0
    9.5906   -6.5924   26.2489 H   0  0  0  0  0  0  0  0  0  0  0  0
   10.5956   -5.2483   26.7920 H   0  0  0  0  0  0  0  0  0  0  0  0
    9.4837   -3.3690   28.1159 H   0  0  0  0  0  0  0  0  0  0  0  0
    7.7571   -3.4668   28.4371 H   0  0  0  0  0  0  0  0  0  0  0  0
   10.1037   -4.9698   24.3831 H   0  0  0  0  0  0  0  0  0  0  0  0
    8.3418   -5.0879   24.6837 H   0  0  0  0  0  0  0  0  0  0  0  0
    7.2349   -3.2141   26.0031 H   0  0  0  0  0  0  0  0  0  0  0  0
    8.2705   -1.8668   26.5692 H   0  0  0  0  0  0  0  0  0  0  0  0
    9.8899    0.8659   23.6104 H   0  0  0  0  0  0  0  0  0  0  0  0
   10.7390   -0.5019   22.9287 H   0  0  0  0  0  0  0  0  0  0  0  0
    7.3036   -4.7245   29.6018 H   0  0  0  0  0  0  0  0  0  0  0  0
    6.8630   -6.4322   29.9505 H   0  0  0  0  0  0  0  0  0  0  0  0
   10.0766   -0.9648   25.1992 H   0  0  0  0  0  0  0  0  0  0  0  0
    8.3894   -0.5985   24.9065 H   0  0  0  0  0  0  0  0  0  0  0  0
    9.8892   -2.8524   23.4537 H   0  0  0  0  0  0  0  0  0  0  0  0
   10.1758   -3.0246   25.7480 H   0  0  0  0  0  0  0  0  0  0  0  0
  1 10  1  0  0  0  0
  1 24  3  0  0  0  0
  2  3  2  0  0  0  0
  2  4  1  0  0  0  0
  3 10  1  0  0  0  0
  4 13  2  0  0  0  0
  5  7  2  0  0  0  0
  5 11  1  0  0  0  0
  6  8  1  0  0  0  0
  6 11  2  0  0  0  0
  7 12  1  0  0  0  0
  8 12  2  0  0  0  0
  9 10  2  0  0  0  0
  9 13  1  0  0  0  0
 11 19  1  0  0  0  0
 12 23  1  0  0  0  0
 13 22  1  0  0  0  0
 14 20  1  0  0  0  0
 14 25  1  0  0  0  0
 14 27  2  0  0  0  0
 15 17  1  0  0  0  0
 15 25  1  0  0  0  0
 16 18  1  0  0  0  0
 16 25  1  0  0  0  0
 17 26  1  0  0  0  0
 18 26  1  0  0  0  0
 19 21  1  0  0  0  0
 20 31  1  0  0  0  0
 21 22  1  0  0  0  0
 22 26  1  0  0  0  0
 23 28  1  0  0  0  0
 23 29  1  0  0  0  0
 23 30  1  0  0  0  0
  2 32  1  0  0  0  0
  3 33  1  0  0  0  0
  4 34  1  0  0  0  0
  5 35  1  0  0  0  0
  6 36  1  0  0  0  0
  7 37  1  0  0  0  0
  8 38  1  0  0  0  0
  9 39  1  0  0  0  0
 15 40  1  0  0  0  0
 15 41  1  0  0  0  0
 16 42  1  0  0  0  0
 16 43  1  0  0  0  0
 17 44  1  0  0  0  0
 17 45  1  0  0  0  0
 18 46  1  0  0  0  0
 18 47  1  0  0  0  0
 19 48  1  0  0  0  0
 19 49  1  0  0  0  0
 20 50  1  0  0  0  0
 20 51  1  0  0  0  0
 21 52  1  0  0  0  0
 21 53  1  0  0  0  0
 22 54  1  0  0  0  0
 26 55  1  0  0  0  0
M  CHG  1  26   1
M  END
> <Chemgauss4>
-5.683751

> <ref_pdb>
x1334_0

> <CYS145-warhead min dist (A)>
6.3466024

> <CYS145-warhead avg dist (A)>
7.2097874

> <CYS145-warhead avg dist stderr (A)>
0.03129715

> <original SMILES>
c1cc(cc(c1)[C@@H](CCc2ccc(cc2)C(F)(F)F)[NH+]3CCN(CC3)C(=O)CCl)C#N

$$$$
JAN-GHE-641-3
  -OEChem-04232002263D

 55 58  0     0  0  0  0  0  0999 V2000
   11.3373   -2.0242   20.3067 C   0  0  0  0  0  0  0  0  0  0  0  0
    6.5010    0.9019   18.7512 C   0  0  0  0  0  0  0  0  0  0  0  0
   10.2354   -2.7660   20.7476 C   0  0  0  0  0  0  0  0  0  0  0  0
   12.1385   -1.3309   21.2117 C   0  0  0  0  0  0  0  0  0  0  0  0
    6.5727    0.0107   19.8501 C   0  0  0  0  0  0  0  0  0  0  0  0
    6.1179    0.1678   17.6505 C   0  0  0  0  0  0  0  0  0  0  0  0
    9.1556   -3.1115   24.2225 C   0  0  0  0  0  0  0  0  0  0  0  0
    9.9407   -2.8063   22.1249 C   0  0  0  0  0  0  0  0  0  0  0  0
   11.8657   -1.3561   22.5824 C   0  0  0  0  0  0  0  0  0  0  0  0
    8.9320   -3.4382   22.9048 C   0  0  0  0  0  0  0  0  0  0  0  0
   10.7610   -2.1019   23.0087 C   0  0  0  0  0  0  0  0  0  0  0  0
    6.2314   -1.2411   19.3874 C   0  0  0  0  0  0  0  0  0  0  0  0
   14.1777    6.5416   21.4631 C   0  0  0  0  0  0  0  0  0  0  0  0
   14.3093    5.5108   22.3035 C   0  0  0  0  0  0  0  0  0  0  0  0
    6.1561   -2.5162   20.1460 C   0  0  0  0  0  0  0  0  0  0  0  0
   13.1335    4.6699   22.6533 C   0  0  0  0  0  0  0  0  0  0  0  0
   13.0954    1.4912   24.7592 C   0  0  0  0  0  0  0  0  0  0  0  0
   12.0214    1.6748   22.9792 C   0  0  0  0  0  0  0  0  0  0  0  0
   12.4981    2.7024   24.0210 C   0  0  0  0  0  0  0  0  0  0  0  0
    7.8374   -4.2922   22.4008 C   0  0  0  0  0  0  0  0  0  0  0  0
   12.7492   -0.5984   23.5290 C   0  0  0  0  0  0  0  0  0  0  0  0
    6.4657   -3.5945   22.3590 C   0  0  0  0  0  0  0  0  0  0  0  0
   10.2607   -2.3050   24.2751 N   0  0  0  0  0  0  0  0  0  0  0  0
    5.9572   -1.1336   18.0490 N   0  0  0  0  0  0  0  0  0  0  0  0
    6.4694   -2.4425   21.4977 N   0  0  0  0  0  0  0  0  0  0  0  0
   13.4744    3.6614   23.5310 N   0  0  0  0  0  0  0  0  0  0  0  0
   12.1270    0.6453   24.0328 N   0  3  0  0  0  0  0  0  0  0  0  0
    5.8495   -3.5485   19.5553 O   0  0  0  0  0  0  0  0  0  0  0  0
   12.0143    4.8767   22.1953 O   0  0  0  0  0  0  0  0  0  0  0  0
   11.5689   -1.9890   19.2453 H   0  0  0  0  0  0  0  0  0  0  0  0
    6.7075    1.9628   18.7608 H   0  0  0  0  0  0  0  0  0  0  0  0
    9.6211   -3.3008   20.0288 H   0  0  0  0  0  0  0  0  0  0  0  0
   12.9871   -0.7626   20.8375 H   0  0  0  0  0  0  0  0  0  0  0  0
    6.8441    0.2589   20.8671 H   0  0  0  0  0  0  0  0  0  0  0  0
    5.9487    0.4530   16.6217 H   0  0  0  0  0  0  0  0  0  0  0  0
    8.6287   -3.3793   25.1279 H   0  0  0  0  0  0  0  0  0  0  0  0
   15.0399    7.1512   21.2135 H   0  0  0  0  0  0  0  0  0  0  0  0
   13.2304    6.8059   21.0061 H   0  0  0  0  0  0  0  0  0  0  0  0
   15.2756    5.2800   22.7386 H   0  0  0  0  0  0  0  0  0  0  0  0
   14.1470    1.2775   24.5350 H   0  0  0  0  0  0  0  0  0  0  0  0
   12.9452    1.4831   25.8424 H   0  0  0  0  0  0  0  0  0  0  0  0
   10.9990    1.8154   22.6171 H   0  0  0  0  0  0  0  0  0  0  0  0
   12.6930    1.5253   22.1257 H   0  0  0  0  0  0  0  0  0  0  0  0
   11.6812    3.1919   24.5642 H   0  0  0  0  0  0  0  0  0  0  0  0
    7.7389   -5.1965   23.0333 H   0  0  0  0  0  0  0  0  0  0  0  0
    8.0656   -4.6848   21.3893 H   0  0  0  0  0  0  0  0  0  0  0  0
   12.9992   -1.2031   24.4074 H   0  0  0  0  0  0  0  0  0  0  0  0
   13.6883   -0.3071   23.0462 H   0  0  0  0  0  0  0  0  0  0  0  0
    5.6931   -4.2703   21.9789 H   0  0  0  0  0  0  0  0  0  0  0  0
    6.1652   -3.2596   23.3572 H   0  0  0  0  0  0  0  0  0  0  0  0
   10.6519   -1.9159   25.1218 H   0  0  0  0  0  0  0  0  0  0  0  0
    5.6791   -1.8956   17.4458 H   0  0  0  0  0  0  0  0  0  0  0  0
    6.7753   -1.5585   21.8990 H   0  0  0  0  0  0  0  0  0  0  0  0
   14.4316    3.5416   23.8368 H   0  0  0  0  0  0  0  0  0  0  0  0
   11.2488    0.4902   24.5467 H   0  0  0  0  0  0  0  0  0  0  0  0
  1  3  1  0  0  0  0
  1  4  2  0  0  0  0
  2  5  1  0  0  0  0
  2  6  2  0  0  0  0
  3  8  2  0  0  0  0
  4  9  1  0  0  0  0
  5 12  2  0  0  0  0
  6 24  1  0  0  0  0
  7 10  2  0  0  0  0
  7 23  1  0  0  0  0
  8 10  1  0  0  0  0
  8 11  1  0  0  0  0
  9 11  2  0  0  0  0
  9 21  1  0  0  0  0
 10 20  1  0  0  0  0
 11 23  1  0  0  0  0
 12 15  1  0  0  0  0
 12 24  1  0  0  0  0
 13 14  2  0  0  0  0
 14 16  1  0  0  0  0
 15 25  1  0  0  0  0
 15 28  2  0  0  0  0
 16 26  1  0  0  0  0
 16 29  2  0  0  0  0
 17 19  1  0  0  0  0
 17 27  1  0  0  0  0
 18 19  1  0  0  0  0
 18 27  1  0  0  0  0
 19 26  1  0  0  0  0
 20 22  1  0  0  0  0
 21 27  1  0  0  0  0
 22 25  1  0  0  0  0
  1 30  1  0  0  0  0
  2 31  1  0  0  0  0
  3 32  1  0  0  0  0
  4 33  1  0  0  0  0
  5 34  1  0  0  0  0
  6 35  1  0  0  0  0
  7 36  1  0  0  0  0
 13 37  1  0  0  0  0
 13 38  1  0  0  0  0
 14 39  1  0  0  0  0
 17 40  1  0  0  0  0
 17 41  1  0  0  0  0
 18 42  1  0  0  0  0
 18 43  1  0  0  0  0
 19 44  1  0  0  0  0
 20 45  1  0  0  0  0
 20 46  1  0  0  0  0
 21 47  1  0  0  0  0
 21 48  1  0  0  0  0
 22 49  1  0  0  0  0
 22 50  1  0  0  0  0
 23 51  1  0  0  0  0
 24 52  1  0  0  0  0
 25 53  1  0  0  0  0
 26 54  1  0  0  0  0
 27 55  1  0  0  0  0
M  CHG  1  27   1
M  END
> <Chemgauss4>
-5.661937

> <ref_pdb>
x0831_0

> <original SMILES>
C=CC(=O)NC1C[NH+](C1)Cc2cccc3c2[nH]cc3CCNC(=O)c4ccc[nH]4

$$$$
DUN-NEW-f8c-23
  -OEChem-04232002263D

 42 44  0     0  0  0  0  0  0999 V2000
    6.7212   -3.3555   21.6385 C   0  0  0  0  0  0  0  0  0  0  0  0
    7.7383   -3.5121   20.6970 C   0  0  0  0  0  0  0  0  0  0  0  0
    6.4242   -2.0883   22.1402 C   0  0  0  0  0  0  0  0  0  0  0  0
    9.5743   -2.9747   24.9194 C   0  0  0  0  0  0  0  0  0  0  0  0
    8.4585   -2.4015   20.2571 C   0  0  0  0  0  0  0  0  0  0  0  0
    7.1444   -0.9777   21.7003 C   0  0  0  0  0  0  0  0  0  0  0  0
    9.0439   -1.9650   25.7263 C   0  0  0  0  0  0  0  0  0  0  0  0
   10.5114   -2.6824   23.9345 C   0  0  0  0  0  0  0  0  0  0  0  0
    8.1616   -1.1343   20.7588 C   0  0  0  0  0  0  0  0  0  0  0  0
   10.4224   -0.3289   24.5332 C   0  0  0  0  0  0  0  0  0  0  0  0
    9.4813   -0.6472   25.5170 C   0  0  0  0  0  0  0  0  0  0  0  0
   10.9425   -1.3682   23.7318 C   0  0  0  0  0  0  0  0  0  0  0  0
   10.0793    1.6934   25.3454 C   0  0  0  0  0  0  0  0  0  0  0  0
   10.9075    3.9924   24.9081 C   0  0  0  0  0  0  0  0  0  0  0  0
    8.9405    0.0676   20.2836 C   0  0  0  0  0  0  0  0  0  0  0  0
   10.7232    5.3901   25.4521 C   0  0  0  0  0  0  0  0  0  0  0  0
   10.1778    0.3491   21.1327 C   0  0  0  0  0  0  0  0  0  0  0  0
   10.7545    1.0153   24.4471 N   0  0  0  0  0  0  0  0  0  0  0  0
   10.1229    3.0416   25.5830 N   0  0  0  0  0  0  0  0  0  0  0  0
   11.1393   -0.7625   21.1145 N   0  0  0  0  0  0  0  0  0  0  0  0
   11.6931    3.7871   23.9868 O   0  0  0  0  0  0  0  0  0  0  0  0
   12.8461    0.1601   22.8093 O   0  0  0  0  0  0  0  0  0  0  0  0
   12.8653   -2.2937   22.2588 O   0  0  0  0  0  0  0  0  0  0  0  0
    9.0173    0.7947   26.3407 S   0  0  0  0  0  0  0  0  0  0  0  0
   12.1259   -1.0598   22.4762 S   0  0  0  0  0  0  0  0  0  0  0  0
   12.2992    5.9588   26.0251 Cl  0  0  0  0  0  0  0  0  0  0  0  0
    6.1596   -4.2202   21.9799 H   0  0  0  0  0  0  0  0  0  0  0  0
    7.9690   -4.4986   20.3054 H   0  0  0  0  0  0  0  0  0  0  0  0
    5.6316   -1.9659   22.8724 H   0  0  0  0  0  0  0  0  0  0  0  0
    9.2496   -4.0016   25.0653 H   0  0  0  0  0  0  0  0  0  0  0  0
    9.2495   -2.5331   19.5234 H   0  0  0  0  0  0  0  0  0  0  0  0
    6.9062    0.0058   22.0968 H   0  0  0  0  0  0  0  0  0  0  0  0
    8.3127   -2.1993   26.4939 H   0  0  0  0  0  0  0  0  0  0  0  0
   10.9061   -3.4905   23.3234 H   0  0  0  0  0  0  0  0  0  0  0  0
    8.2786    0.9425   20.3062 H   0  0  0  0  0  0  0  0  0  0  0  0
    9.2265   -0.0674   19.2326 H   0  0  0  0  0  0  0  0  0  0  0  0
   10.0108    5.4316   26.2800 H   0  0  0  0  0  0  0  0  0  0  0  0
   10.3744    6.0492   24.6521 H   0  0  0  0  0  0  0  0  0  0  0  0
   10.7036    1.2277   20.7457 H   0  0  0  0  0  0  0  0  0  0  0  0
    9.9151    0.5416   22.1781 H   0  0  0  0  0  0  0  0  0  0  0  0
    9.5165    3.3961   26.3358 H   0  0  0  0  0  0  0  0  0  0  0  0
   10.9118   -1.5448   20.4887 H   0  0  0  0  0  0  0  0  0  0  0  0
  1  2  1  0  0  0  0
  1  3  2  0  0  0  0
  2  5  2  0  0  0  0
  3  6  1  0  0  0  0
  4  7  2  0  0  0  0
  4  8  1  0  0  0  0
  5  9  1  0  0  0  0
  6  9  2  0  0  0  0
  7 11  1  0  0  0  0
  8 12  2  0  0  0  0
  9 15  1  0  0  0  0
 10 11  2  0  0  0  0
 10 12  1  0  0  0  0
 10 18  1  0  0  0  0
 11 24  1  0  0  0  0
 12 25  1  0  0  0  0
 13 18  2  0  0  0  0
 13 19  1  0  0  0  0
 13 24  1  0  0  0  0
 14 16  1  0  0  0  0
 14 19  1  0  0  0  0
 14 21  2  0  0  0  0
 15 17  1  0  0  0  0
 16 26  1  0  0  0  0
 17 20  1  0  0  0  0
 20 25  1  0  0  0  0
 22 25  2  0  0  0  0
 23 25  2  0  0  0  0
  1 27  1  0  0  0  0
  2 28  1  0  0  0  0
  3 29  1  0  0  0  0
  4 30  1  0  0  0  0
  5 31  1  0  0  0  0
  6 32  1  0  0  0  0
  7 33  1  0  0  0  0
  8 34  1  0  0  0  0
 15 35  1  0  0  0  0
 15 36  1  0  0  0  0
 16 37  1  0  0  0  0
 16 38  1  0  0  0  0
 17 39  1  0  0  0  0
 17 40  1  0  0  0  0
 19 41  1  0  0  0  0
 20 42  1  0  0  0  0
M  END
> <Chemgauss4>
-5.604115

> <ref_pdb>
x0830_0

> <CYS145-warhead min dist (A)>
11.075356

> <CYS145-warhead avg dist (A)>
11.735254

> <CYS145-warhead avg dist stderr (A)>
0.040730596

> <original SMILES>
c1ccc(cc1)CCNS(=O)(=O)c2cccc3c2nc(s3)NC(=O)CCl

$$$$
DUN-NEW-f8c-25
  -OEChem-04232002263D

 49 50  0     1  0  0  0  0  0999 V2000
    8.5325    1.0337   26.2917 C   0  0  0  0  0  0  0  0  0  0  0  0
    8.5860    2.3369   25.7974 C   0  0  0  0  0  0  0  0  0  0  0  0
    9.6129    0.1716   26.1038 C   0  0  0  0  0  0  0  0  0  0  0  0
    9.7198    2.7781   25.1152 C   0  0  0  0  0  0  0  0  0  0  0  0
   10.7467    0.6128   25.4215 C   0  0  0  0  0  0  0  0  0  0  0  0
   10.8002    1.9160   24.9272 C   0  0  0  0  0  0  0  0  0  0  0  0
    7.0634   -3.1130   20.5993 C   0  0  0  0  0  0  0  0  0  0  0  0
    9.6281   -1.5809   22.6804 C   0  0  0  0  0  0  0  0  0  0  0  0
    8.1472    0.1571   21.6136 C   0  0  0  0  0  0  0  0  0  0  0  0
    9.3655   -2.5023   21.4895 C   0  0  0  0  0  0  0  0  0  0  0  0
    7.9152   -0.7964   20.4432 C   0  0  0  0  0  0  0  0  0  0  0  0
    9.4871   -0.0924   22.3238 C   0  0  0  0  0  0  0  0  0  0  0  0
   13.6860    0.2186   20.4749 C   0  0  0  0  0  0  0  0  0  0  0  0
   12.0270    2.3926   24.1890 C   0  0  0  0  0  0  0  0  0  0  0  0
    7.3283   -4.5412   21.0043 C   0  0  0  0  0  0  0  0  0  0  0  0
   10.6719    0.4073   21.4935 C   0  0  0  0  0  0  0  0  0  0  0  0
   11.9511    2.1435   22.6847 C   0  0  0  0  0  0  0  0  0  0  0  0
    8.0765   -2.1904   20.8604 N   0  0  0  0  0  0  0  0  0  0  0  0
   11.7774    0.6841   22.3478 N   0  0  2  0  0  0  0  0  0  0  0  0
    5.9867   -2.8274   20.0688 O   0  0  0  0  0  0  0  0  0  0  0  0
   14.2679    0.3900   23.0153 O   0  0  0  0  0  0  0  0  0  0  0  0
   13.0293   -1.6383   22.1904 O   0  0  0  0  0  0  0  0  0  0  0  0
   13.2668   -0.2076   22.1518 S   0  0  0  0  0  0  0  0  0  0  0  0
    5.8835   -5.4580   20.5920 Cl  0  0  0  0  0  0  0  0  0  0  0  0
    7.6502    0.6907   26.8240 H   0  0  0  0  0  0  0  0  0  0  0  0
    7.7453    3.0086   25.9446 H   0  0  0  0  0  0  0  0  0  0  0  0
    9.5721   -0.8428   26.4894 H   0  0  0  0  0  0  0  0  0  0  0  0
    9.7526    3.7951   24.7334 H   0  0  0  0  0  0  0  0  0  0  0  0
   11.5837   -0.0659   25.2797 H   0  0  0  0  0  0  0  0  0  0  0  0
    8.9279   -1.8344   23.4937 H   0  0  0  0  0  0  0  0  0  0  0  0
   10.6394   -1.7801   23.0756 H   0  0  0  0  0  0  0  0  0  0  0  0
    8.1028    1.1976   21.2472 H   0  0  0  0  0  0  0  0  0  0  0  0
    7.3194    0.0526   22.3348 H   0  0  0  0  0  0  0  0  0  0  0  0
   10.1953   -2.4257   20.7840 H   0  0  0  0  0  0  0  0  0  0  0  0
    9.3193   -3.5474   21.8195 H   0  0  0  0  0  0  0  0  0  0  0  0
    6.8951   -0.6867   20.0551 H   0  0  0  0  0  0  0  0  0  0  0  0
    8.6021   -0.5511   19.6265 H   0  0  0  0  0  0  0  0  0  0  0  0
    9.4789    0.4831   23.2729 H   0  0  0  0  0  0  0  0  0  0  0  0
   14.6195   -0.2830   20.2151 H   0  0  0  0  0  0  0  0  0  0  0  0
   12.8779   -0.1154   19.8224 H   0  0  0  0  0  0  0  0  0  0  0  0
   13.8040    1.3015   20.4142 H   0  0  0  0  0  0  0  0  0  0  0  0
   12.9030    1.8739   24.5986 H   0  0  0  0  0  0  0  0  0  0  0  0
   12.1882    3.4599   24.3875 H   0  0  0  0  0  0  0  0  0  0  0  0
    7.4991   -4.5772   22.0742 H   0  0  0  0  0  0  0  0  0  0  0  0
    8.1782   -4.9135   20.4439 H   0  0  0  0  0  0  0  0  0  0  0  0
   10.9235   -0.3789   20.7834 H   0  0  0  0  0  0  0  0  0  0  0  0
   10.3484    1.3114   20.9801 H   0  0  0  0  0  0  0  0  0  0  0  0
   11.0889    2.6696   22.2626 H   0  0  0  0  0  0  0  0  0  0  0  0
   12.8513    2.4963   22.1708 H   0  0  0  0  0  0  0  0  0  0  0  0
  1  2  1  0  0  0  0
  1  3  2  0  0  0  0
  2  4  2  0  0  0  0
  3  5  1  0  0  0  0
  4  6  1  0  0  0  0
  5  6  2  0  0  0  0
  6 14  1  0  0  0  0
  7 15  1  0  0  0  0
  7 18  1  0  0  0  0
  7 20  2  0  0  0  0
  8 10  1  0  0  0  0
  8 12  1  0  0  0  0
  9 11  1  0  0  0  0
  9 12  1  0  0  0  0
 10 18  1  0  0  0  0
 11 18  1  0  0  0  0
 12 16  1  0  0  0  0
 13 23  1  0  0  0  0
 14 17  1  0  0  0  0
 15 24  1  0  0  0  0
 16 19  1  0  0  0  0
 17 19  1  0  0  0  0
 19 23  1  0  0  0  0
 21 23  2  0  0  0  0
 22 23  2  0  0  0  0
  1 25  1  0  0  0  0
  2 26  1  0  0  0  0
  3 27  1  0  0  0  0
  4 28  1  0  0  0  0
  5 29  1  0  0  0  0
  8 30  1  0  0  0  0
  8 31  1  0  0  0  0
  9 32  1  0  0  0  0
  9 33  1  0  0  0  0
 10 34  1  0  0  0  0
 10 35  1  0  0  0  0
 11 36  1  0  0  0  0
 11 37  1  0  0  0  0
 12 38  1  0  0  0  0
 13 39  1  0  0  0  0
 13 40  1  0  0  0  0
 13 41  1  0  0  0  0
 14 42  1  0  0  0  0
 14 43  1  0  0  0  0
 15 44  1  0  0  0  0
 15 45  1  0  0  0  0
 16 46  1  0  0  0  0
 16 47  1  0  0  0  0
 17 48  1  0  0  0  0
 17 49  1  0  0  0  0
M  END
> <Chemgauss4>
-5.564518

> <ref_pdb>
x0830_0

> <CYS145-warhead min dist (A)>
2.9100046

> <CYS145-warhead avg dist (A)>
3.4305396

> <CYS145-warhead avg dist stderr (A)>
0.015353275

> <original SMILES>
CS(=O)(=O)[N@@](CCc1ccccc1)CC2CCN(CC2)C(=O)CCl

$$$$
VIT-UNK-cff-2
  -OEChem-04232002263D

 48 49  0     1  0  0  0  0  0999 V2000
   11.9469    1.6679   24.3305 C   0  0  0  0  0  0  0  0  0  0  0  0
   10.7241    1.4289   23.7033 C   0  0  0  0  0  0  0  0  0  0  0  0
   13.0859    0.9715   23.9264 C   0  0  0  0  0  0  0  0  0  0  0  0
   11.7794   -0.2031   22.2680 C   0  0  0  0  0  0  0  0  0  0  0  0
   10.6404    0.4934   22.6721 C   0  0  0  0  0  0  0  0  0  0  0  0
   13.0021    0.0360   22.8952 C   0  0  0  0  0  0  0  0  0  0  0  0
    5.8356   -4.0168   22.6467 C   0  0  0  0  0  0  0  0  0  0  0  0
    7.4398   -5.1713   27.0895 C   0  0  0  0  0  0  0  0  0  0  0  0
    7.5500   -3.0409   21.1535 C   0  0  0  0  0  0  0  0  0  0  0  0
    7.9507   -2.9603   23.5837 C   0  0  0  0  0  0  0  0  0  0  0  0
    7.8935   -1.5639   21.0271 C   0  0  0  0  0  0  0  0  0  0  0  0
    8.3024   -1.4815   23.4936 C   0  0  0  0  0  0  0  0  0  0  0  0
    9.3246    0.2373   21.9982 C   0  0  0  0  0  0  0  0  0  0  0  0
    5.9303   -5.0631   26.9790 C   0  0  0  0  0  0  0  0  0  0  0  0
    5.3219   -6.0010   25.9369 C   0  0  0  0  0  0  0  0  0  0  0  0
    5.8090   -5.6875   24.5152 C   0  0  0  0  0  0  0  0  0  0  0  0
    5.3925   -4.2960   24.0607 C   0  0  2  0  0  0  0  0  0  0  0  0
    7.0513   -3.3519   22.4932 N   0  0  0  0  0  0  0  0  0  0  0  0
    7.8496   -6.4390   27.4438 N   0  0  0  0  0  0  0  0  0  0  0  0
    8.8676   -1.1890   22.1216 N   0  3  0  0  0  0  0  0  0  0  0  0
    5.1203   -4.3774   21.7084 O   0  0  0  0  0  0  0  0  0  0  0  0
    8.2126   -4.2440   26.8671 O   0  0  0  0  0  0  0  0  0  0  0  0
   14.0957   -0.6332   22.5073 F   0  0  0  0  0  0  0  0  0  0  0  0
    3.6206   -4.1495   24.0337 Cl  0  0  0  0  0  0  0  0  0  0  0  0
   12.0123    2.3967   25.1332 H   0  0  0  0  0  0  0  0  0  0  0  0
    9.8419    1.9762   24.0251 H   0  0  0  0  0  0  0  0  0  0  0  0
   14.0375    1.1573   24.4151 H   0  0  0  0  0  0  0  0  0  0  0  0
   11.7242   -0.9332   21.4652 H   0  0  0  0  0  0  0  0  0  0  0  0
    6.8116   -3.3108   20.3920 H   0  0  0  0  0  0  0  0  0  0  0  0
    8.4371   -3.6620   20.9800 H   0  0  0  0  0  0  0  0  0  0  0  0
    8.8534   -3.5772   23.4980 H   0  0  0  0  0  0  0  0  0  0  0  0
    7.5160   -3.1651   24.5636 H   0  0  0  0  0  0  0  0  0  0  0  0
    8.3847   -1.3618   20.0698 H   0  0  0  0  0  0  0  0  0  0  0  0
    7.0088   -0.9257   21.1305 H   0  0  0  0  0  0  0  0  0  0  0  0
    7.4251   -0.8414   23.6398 H   0  0  0  0  0  0  0  0  0  0  0  0
    9.0740   -1.2230   24.2260 H   0  0  0  0  0  0  0  0  0  0  0  0
    8.5321    0.8597   22.4274 H   0  0  0  0  0  0  0  0  0  0  0  0
    9.3793    0.4585   20.9268 H   0  0  0  0  0  0  0  0  0  0  0  0
    5.6555   -4.0242   26.7627 H   0  0  0  0  0  0  0  0  0  0  0  0
    5.5197   -5.3143   27.9647 H   0  0  0  0  0  0  0  0  0  0  0  0
    5.5488   -7.0445   26.1865 H   0  0  0  0  0  0  0  0  0  0  0  0
    4.2313   -5.8935   25.9759 H   0  0  0  0  0  0  0  0  0  0  0  0
    6.9010   -5.7950   24.4788 H   0  0  0  0  0  0  0  0  0  0  0  0
    5.3924   -6.4258   23.8195 H   0  0  0  0  0  0  0  0  0  0  0  0
    5.7872   -3.5133   24.7075 H   0  0  0  0  0  0  0  0  0  0  0  0
    7.1750   -7.1803   27.6012 H   0  0  0  0  0  0  0  0  0  0  0  0
    8.8285   -6.6806   27.5604 H   0  0  0  0  0  0  0  0  0  0  0  0
    9.7049   -1.7760   22.0031 H   0  0  0  0  0  0  0  0  0  0  0  0
  1  2  2  0  0  0  0
  1  3  1  0  0  0  0
  2  5  1  0  0  0  0
  3  6  2  0  0  0  0
  4  5  2  0  0  0  0
  4  6  1  0  0  0  0
  5 13  1  0  0  0  0
  6 23  1  0  0  0  0
  7 17  1  0  0  0  0
  7 18  1  0  0  0  0
  7 21  2  0  0  0  0
  8 14  1  0  0  0  0
  8 19  1  0  0  0  0
  8 22  2  0  0  0  0
  9 11  1  0  0  0  0
  9 18  1  0  0  0  0
 10 12  1  0  0  0  0
 10 18  1  0  0  0  0
 11 20  1  0  0  0  0
 12 20  1  0  0  0  0
 13 20  1  0  0  0  0
 14 15  1  0  0  0  0
 15 16  1  0  0  0  0
 16 17  1  0  0  0  0
 17 24  1  0  0  0  0
  1 25  1  0  0  0  0
  2 26  1  0  0  0  0
  3 27  1  0  0  0  0
  4 28  1  0  0  0  0
  9 29  1  0  0  0  0
  9 30  1  0  0  0  0
 10 31  1  0  0  0  0
 10 32  1  0  0  0  0
 11 33  1  0  0  0  0
 11 34  1  0  0  0  0
 12 35  1  0  0  0  0
 12 36  1  0  0  0  0
 13 37  1  0  0  0  0
 13 38  1  0  0  0  0
 14 39  1  0  0  0  0
 14 40  1  0  0  0  0
 15 41  1  0  0  0  0
 15 42  1  0  0  0  0
 16 43  1  0  0  0  0
 16 44  1  0  0  0  0
 17 45  1  0  0  0  0
 19 46  1  0  0  0  0
 19 47  1  0  0  0  0
 20 48  1  0  0  0  0
M  CHG  1  20   1
M  END
> <Chemgauss4>
-5.497896

> <ref_pdb>
x1392_0

> <original SMILES>
c1cc(cc(c1)F)C[NH+]2CCN(CC2)C(=O)[C@H](CCCC(=O)N)Cl

$$$$
BEN-DND-031-2
  -OEChem-04232002263D

 45 47  0     1  0  0  0  0  0999 V2000
   14.2209   -1.1628   25.8413 C   0  0  0  0  0  0  0  0  0  0  0  0
   13.8547   -2.3826   26.4099 C   0  0  0  0  0  0  0  0  0  0  0  0
   13.2932   -0.4334   25.0976 C   0  0  0  0  0  0  0  0  0  0  0  0
    5.2510   -7.6884   24.3397 C   0  0  0  0  0  0  0  0  0  0  0  0
    5.8089   -7.3569   23.1100 C   0  0  0  0  0  0  0  0  0  0  0  0
   12.5607   -2.8732   26.2348 C   0  0  0  0  0  0  0  0  0  0  0  0
   11.9992   -0.9240   24.9225 C   0  0  0  0  0  0  0  0  0  0  0  0
    4.4160   -6.7623   24.9438 C   0  0  0  0  0  0  0  0  0  0  0  0
    4.6718   -5.2707   23.2152 C   0  0  0  0  0  0  0  0  0  0  0  0
    5.5190   -6.1268   22.5302 C   0  0  0  0  0  0  0  0  0  0  0  0
   11.6330   -2.1439   25.4911 C   0  0  0  0  0  0  0  0  0  0  0  0
    9.2801   -2.0504   24.6081 C   0  0  0  0  0  0  0  0  0  0  0  0
    6.3166   -4.2522   21.0826 C   0  0  0  0  0  0  0  0  0  0  0  0
    6.8905   -2.1972   23.9304 C   0  0  0  0  0  0  0  0  0  0  0  0
    8.3097   -4.2997   24.0997 C   0  0  0  0  0  0  0  0  0  0  0  0
    7.0166   -2.2857   22.4106 C   0  0  0  0  0  0  0  0  0  0  0  0
    8.3758   -4.3333   22.5722 C   0  0  0  0  0  0  0  0  0  0  0  0
    8.0424   -2.8981   24.6577 C   0  0  0  0  0  0  0  0  0  0  0  0
    6.1046   -5.7402   21.2045 C   0  0  2  0  0  0  0  0  0  0  0  0
    4.1109   -5.5577   24.4113 N   0  0  0  0  0  0  0  0  0  0  0  0
    7.2063   -3.6720   21.9858 N   0  0  0  0  0  0  0  0  0  0  0  0
   10.3203   -2.6418   25.3137 N   0  0  0  0  0  0  0  0  0  0  0  0
    9.2887   -0.9864   23.9975 O   0  0  0  0  0  0  0  0  0  0  0  0
    5.7074   -3.6259   20.2116 O   0  0  0  0  0  0  0  0  0  0  0  0
    5.0601   -6.2334   19.8608 Cl  0  0  0  0  0  0  0  0  0  0  0  0
   15.2281   -0.7800   25.9781 H   0  0  0  0  0  0  0  0  0  0  0  0
   14.5764   -2.9503   26.9897 H   0  0  0  0  0  0  0  0  0  0  0  0
   13.5784    0.5170   24.6558 H   0  0  0  0  0  0  0  0  0  0  0  0
    5.4628   -8.6416   24.8103 H   0  0  0  0  0  0  0  0  0  0  0  0
    6.4677   -8.0625   22.6112 H   0  0  0  0  0  0  0  0  0  0  0  0
   12.2866   -3.8251   26.6828 H   0  0  0  0  0  0  0  0  0  0  0  0
   11.2846   -0.3468   24.3410 H   0  0  0  0  0  0  0  0  0  0  0  0
    3.9562   -6.9731   25.9037 H   0  0  0  0  0  0  0  0  0  0  0  0
    4.4092   -4.2975   22.8122 H   0  0  0  0  0  0  0  0  0  0  0  0
    6.8362   -1.1426   24.2265 H   0  0  0  0  0  0  0  0  0  0  0  0
    5.9432   -2.6615   24.2336 H   0  0  0  0  0  0  0  0  0  0  0  0
    7.5060   -4.9706   24.4296 H   0  0  0  0  0  0  0  0  0  0  0  0
    9.2451   -4.7001   24.5089 H   0  0  0  0  0  0  0  0  0  0  0  0
    6.1267   -1.8524   21.9430 H   0  0  0  0  0  0  0  0  0  0  0  0
    7.8805   -1.7110   22.0568 H   0  0  0  0  0  0  0  0  0  0  0  0
    9.2636   -3.8023   22.2100 H   0  0  0  0  0  0  0  0  0  0  0  0
    8.4703   -5.3688   22.2400 H   0  0  0  0  0  0  0  0  0  0  0  0
    7.7851   -2.9836   25.7208 H   0  0  0  0  0  0  0  0  0  0  0  0
    7.0798   -6.2028   21.0487 H   0  0  0  0  0  0  0  0  0  0  0  0
   10.1298   -3.5372   25.7588 H   0  0  0  0  0  0  0  0  0  0  0  0
  1  2  1  0  0  0  0
  1  3  2  0  0  0  0
  2  6  2  0  0  0  0
  3  7  1  0  0  0  0
  4  5  2  0  0  0  0
  4  8  1  0  0  0  0
  5 10  1  0  0  0  0
  6 11  1  0  0  0  0
  7 11  2  0  0  0  0
  8 20  2  0  0  0  0
  9 10  2  0  0  0  0
  9 20  1  0  0  0  0
 10 19  1  0  0  0  0
 11 22  1  0  0  0  0
 12 18  1  0  0  0  0
 12 22  1  0  0  0  0
 12 23  2  0  0  0  0
 13 19  1  0  0  0  0
 13 21  1  0  0  0  0
 13 24  2  0  0  0  0
 14 16  1  0  0  0  0
 14 18  1  0  0  0  0
 15 17  1  0  0  0  0
 15 18  1  0  0  0  0
 16 21  1  0  0  0  0
 17 21  1  0  0  0  0
 19 25  1  0  0  0  0
  1 26  1  0  0  0  0
  2 27  1  0  0  0  0
  3 28  1  0  0  0  0
  4 29  1  0  0  0  0
  5 30  1  0  0  0  0
  6 31  1  0  0  0  0
  7 32  1  0  0  0  0
  8 33  1  0  0  0  0
  9 34  1  0  0  0  0
 14 35  1  0  0  0  0
 14 36  1  0  0  0  0
 15 37  1  0  0  0  0
 15 38  1  0  0  0  0
 16 39  1  0  0  0  0
 16 40  1  0  0  0  0
 17 41  1  0  0  0  0
 17 42  1  0  0  0  0
 18 43  1  0  0  0  0
 19 44  1  0  0  0  0
 22 45  1  0  0  0  0
M  END
> <Chemgauss4>
-5.372816

> <ref_pdb>
x0749_0

> <original SMILES>
c1ccc(cc1)NC(=O)C2CCN(CC2)C(=O)[C@@H](c3cccnc3)Cl

$$$$
PAU-WEI-b9b-6
  -OEChem-04232002263D

 55 57  0     1  0  0  0  0  0999 V2000
   10.5039   -6.3010   26.1073 C   0  0  0  0  0  0  0  0  0  0  0  0
    7.4593   -4.2389   26.6854 C   0  0  0  0  0  0  0  0  0  0  0  0
    8.4245   -5.2357   26.8282 C   0  0  0  0  0  0  0  0  0  0  0  0
    7.5853   -3.2858   25.6747 C   0  0  0  0  0  0  0  0  0  0  0  0
   11.7679    1.8084   22.9576 C   0  0  0  0  0  0  0  0  0  0  0  0
   11.0377    1.3282   25.2100 C   0  0  0  0  0  0  0  0  0  0  0  0
   11.7486    0.4457   22.6607 C   0  0  0  0  0  0  0  0  0  0  0  0
   11.0184   -0.0346   24.9131 C   0  0  0  0  0  0  0  0  0  0  0  0
    9.6418   -4.3261   24.9499 C   0  0  0  0  0  0  0  0  0  0  0  0
    9.5158   -5.2793   25.9606 C   0  0  0  0  0  0  0  0  0  0  0  0
   11.4125    2.2497   24.2322 C   0  0  0  0  0  0  0  0  0  0  0  0
   11.3738   -0.4758   23.6385 C   0  0  0  0  0  0  0  0  0  0  0  0
    8.6766   -3.3294   24.8070 C   0  0  0  0  0  0  0  0  0  0  0  0
    5.7393   -2.0008   19.1118 C   0  0  0  0  0  0  0  0  0  0  0  0
    6.2100   -3.3618   21.1235 C   0  0  0  0  0  0  0  0  0  0  0  0
    6.1158   -0.9126   21.3794 C   0  0  0  0  0  0  0  0  0  0  0  0
    7.5265   -3.4114   21.8851 C   0  0  0  0  0  0  0  0  0  0  0  0
    7.4308   -0.9255   22.1470 C   0  0  0  0  0  0  0  0  0  0  0  0
   11.4328    3.7065   24.5504 C   0  0  0  0  0  0  0  0  0  0  0  0
   11.3516   -1.9485   23.3163 C   0  0  0  0  0  0  0  0  0  0  0  0
    5.5686   -0.6242   18.5205 C   0  0  0  0  0  0  0  0  0  0  0  0
   10.0191   -2.4882   22.7679 C   0  0  0  0  0  0  0  0  0  0  0  0
    8.8130   -2.2958   23.7114 C   0  0  1  0  0  0  0  0  0  0  0  0
   11.3064   -7.1308   26.2265 N   0  0  0  0  0  0  0  0  0  0  0  0
    6.0267   -2.0636   20.4745 N   0  0  0  0  0  0  0  0  0  0  0  0
    7.5780   -2.2532   22.8562 N   0  3  0  0  0  0  0  0  0  0  0  0
    5.6230   -2.9889   18.3824 O   0  0  0  0  0  0  0  0  0  0  0  0
    7.1672   -0.0932   18.0105 Cl  0  0  0  0  0  0  0  0  0  0  0  0
    6.6101   -4.2040   27.3615 H   0  0  0  0  0  0  0  0  0  0  0  0
    8.3124   -5.9719   27.6206 H   0  0  0  0  0  0  0  0  0  0  0  0
    6.8277   -2.5134   25.5710 H   0  0  0  0  0  0  0  0  0  0  0  0
   12.0618    2.5193   22.1898 H   0  0  0  0  0  0  0  0  0  0  0  0
   10.7582    1.6635   26.2054 H   0  0  0  0  0  0  0  0  0  0  0  0
   12.0255    0.1110   21.6646 H   0  0  0  0  0  0  0  0  0  0  0  0
   10.7253   -0.7459   25.6809 H   0  0  0  0  0  0  0  0  0  0  0  0
   10.4914   -4.3543   24.2707 H   0  0  0  0  0  0  0  0  0  0  0  0
    6.1831   -4.1713   20.3872 H   0  0  0  0  0  0  0  0  0  0  0  0
    5.3625   -3.5129   21.8030 H   0  0  0  0  0  0  0  0  0  0  0  0
    5.2658   -0.9751   22.0697 H   0  0  0  0  0  0  0  0  0  0  0  0
    6.0237    0.0341   20.8444 H   0  0  0  0  0  0  0  0  0  0  0  0
    7.5992   -4.3328   22.4719 H   0  0  0  0  0  0  0  0  0  0  0  0
    8.3913   -3.3296   21.2170 H   0  0  0  0  0  0  0  0  0  0  0  0
    8.2943   -0.8004   21.4840 H   0  0  0  0  0  0  0  0  0  0  0  0
    7.4378   -0.1439   22.9136 H   0  0  0  0  0  0  0  0  0  0  0  0
   10.4580    4.1591   24.3312 H   0  0  0  0  0  0  0  0  0  0  0  0
   11.6668    3.8801   25.6088 H   0  0  0  0  0  0  0  0  0  0  0  0
   12.1996    4.2314   23.9656 H   0  0  0  0  0  0  0  0  0  0  0  0
   11.5915   -2.4870   24.2428 H   0  0  0  0  0  0  0  0  0  0  0  0
   12.1575   -2.1969   22.6143 H   0  0  0  0  0  0  0  0  0  0  0  0
    5.1815    0.0408   19.2841 H   0  0  0  0  0  0  0  0  0  0  0  0
    4.9070   -0.6891   17.6643 H   0  0  0  0  0  0  0  0  0  0  0  0
    9.8184   -1.9320   21.8415 H   0  0  0  0  0  0  0  0  0  0  0  0
   10.1215   -3.5383   22.4692 H   0  0  0  0  0  0  0  0  0  0  0  0
    8.8694   -1.2928   24.1514 H   0  0  0  0  0  0  0  0  0  0  0  0
    6.7763   -2.3507   23.4946 H   0  0  0  0  0  0  0  0  0  0  0  0
  1 10  1  0  0  0  0
  1 24  3  0  0  0  0
  2  3  1  0  0  0  0
  2  4  2  0  0  0  0
  3 10  2  0  0  0  0
  4 13  1  0  0  0  0
  5  7  2  0  0  0  0
  5 11  1  0  0  0  0
  6  8  1  0  0  0  0
  6 11  2  0  0  0  0
  7 12  1  0  0  0  0
  8 12  2  0  0  0  0
  9 10  1  0  0  0  0
  9 13  2  0  0  0  0
 11 19  1  0  0  0  0
 12 20  1  0  0  0  0
 13 23  1  0  0  0  0
 14 21  1  0  0  0  0
 14 25  1  0  0  0  0
 14 27  2  0  0  0  0
 15 17  1  0  0  0  0
 15 25  1  0  0  0  0
 16 18  1  0  0  0  0
 16 25  1  0  0  0  0
 17 26  1  0  0  0  0
 18 26  1  0  0  0  0
 20 22  1  0  0  0  0
 21 28  1  0  0  0  0
 22 23  1  0  0  0  0
 23 26  1  0  0  0  0
  2 29  1  0  0  0  0
  3 30  1  0  0  0  0
  4 31  1  0  0  0  0
  5 32  1  0  0  0  0
  6 33  1  0  0  0  0
  7 34  1  0  0  0  0
  8 35  1  0  0  0  0
  9 36  1  0  0  0  0
 15 37  1  0  0  0  0
 15 38  1  0  0  0  0
 16 39  1  0  0  0  0
 16 40  1  0  0  0  0
 17 41  1  0  0  0  0
 17 42  1  0  0  0  0
 18 43  1  0  0  0  0
 18 44  1  0  0  0  0
 19 45  1  0  0  0  0
 19 46  1  0  0  0  0
 19 47  1  0  0  0  0
 20 48  1  0  0  0  0
 20 49  1  0  0  0  0
 21 50  1  0  0  0  0
 21 51  1  0  0  0  0
 22 52  1  0  0  0  0
 22 53  1  0  0  0  0
 23 54  1  0  0  0  0
 26 55  1  0  0  0  0
M  CHG  1  26   1
M  END
> <Chemgauss4>
-5.362442

> <ref_pdb>
x1392_0

> <CYS145-warhead min dist (A)>
5.8925657

> <CYS145-warhead avg dist (A)>
6.7311

> <CYS145-warhead avg dist stderr (A)>
0.013170093

> <original SMILES>
Cc1ccc(cc1)CC[C@H](c2cccc(c2)C#N)[NH+]3CCN(CC3)C(=O)CCl

$$$$
NIR-THE-c33-3
  -OEChem-04232002263D

 53 56  0     1  0  0  0  0  0999 V2000
    9.2935   -3.4152   26.7106 C   0  0  0  0  0  0  0  0  0  0  0  0
    9.4310   -4.7136   26.2284 C   0  0  0  0  0  0  0  0  0  0  0  0
    4.8638   -6.3638   21.7392 C   0  0  0  0  0  0  0  0  0  0  0  0
    8.9276   -2.3850   25.8447 C   0  0  0  0  0  0  0  0  0  0  0  0
    9.2061   -4.9828   24.8792 C   0  0  0  0  0  0  0  0  0  0  0  0
    6.0008   -6.5807   20.9524 C   0  0  0  0  0  0  0  0  0  0  0  0
    4.6496   -4.0807   24.5857 C   0  0  0  0  0  0  0  0  0  0  0  0
    4.9323   -5.4487   22.8085 C   0  0  0  0  0  0  0  0  0  0  0  0
    8.6921   -2.6424   24.4856 C   0  0  0  0  0  0  0  0  0  0  0  0
    8.8405   -3.9535   23.9967 C   0  0  0  0  0  0  0  0  0  0  0  0
    7.2818   -4.9918   22.2710 C   0  0  0  0  0  0  0  0  0  0  0  0
    4.0028   -4.9941   23.7855 C   0  0  0  0  0  0  0  0  0  0  0  0
    6.1373   -4.7852   23.0492 C   0  0  0  0  0  0  0  0  0  0  0  0
    7.1901   -5.9042   21.2160 C   0  0  0  0  0  0  0  0  0  0  0  0
    7.0686   -1.1976   21.3897 C   0  0  0  0  0  0  0  0  0  0  0  0
    4.2750   -7.2298   26.1634 C   0  0  0  0  0  0  0  0  0  0  0  0
    8.2950   -1.4962   23.5868 C   0  0  0  0  0  0  0  0  0  0  0  0
    8.7293   -3.0062   21.6649 C   0  0  0  0  0  0  0  0  0  0  0  0
    8.5965   -4.2681   22.5324 C   0  0  1  0  0  0  0  0  0  0  0  0
    4.6238   -7.2233   27.6148 C   0  0  0  0  0  0  0  0  0  0  0  0
    2.5955   -5.4196   23.9253 C   0  0  0  0  0  0  0  0  0  0  0  0
    6.4228    0.0296   21.9837 C   0  0  0  0  0  0  0  0  0  0  0  0
    2.4206   -6.8109   24.5608 C   0  0  0  0  0  0  0  0  0  0  0  0
    5.9364   -3.9612   24.1336 N   0  0  0  0  0  0  0  0  0  0  0  0
    7.9575   -1.8919   22.2134 N   0  0  0  0  0  0  0  0  0  0  0  0
    2.9645   -6.8715   25.8910 N   0  0  0  0  0  0  0  0  0  0  0  0
    6.7862   -1.5313   20.2363 O   0  0  0  0  0  0  0  0  0  0  0  0
    5.1280   -7.5356   25.3384 O   0  0  0  0  0  0  0  0  0  0  0  0
    8.2586   -6.1380   20.4396 F   0  0  0  0  0  0  0  0  0  0  0  0
    6.1490    1.1479   20.6528 Cl  0  0  0  0  0  0  0  0  0  0  0  0
    9.4705   -3.2041   27.7612 H   0  0  0  0  0  0  0  0  0  0  0  0
    9.7147   -5.5167   26.9023 H   0  0  0  0  0  0  0  0  0  0  0  0
    3.9438   -6.8987   21.5211 H   0  0  0  0  0  0  0  0  0  0  0  0
    8.8231   -1.3756   26.2355 H   0  0  0  0  0  0  0  0  0  0  0  0
    9.3195   -6.0016   24.5167 H   0  0  0  0  0  0  0  0  0  0  0  0
    5.9537   -7.2847   20.1258 H   0  0  0  0  0  0  0  0  0  0  0  0
    4.3120   -3.5050   25.4364 H   0  0  0  0  0  0  0  0  0  0  0  0
    7.4463   -0.9760   24.0398 H   0  0  0  0  0  0  0  0  0  0  0  0
    9.1318   -0.7913   23.5125 H   0  0  0  0  0  0  0  0  0  0  0  0
    9.7761   -2.6757   21.6391 H   0  0  0  0  0  0  0  0  0  0  0  0
    8.4359   -3.2141   20.6297 H   0  0  0  0  0  0  0  0  0  0  0  0
    9.4074   -4.9691   22.1953 H   0  0  0  0  0  0  0  0  0  0  0  0
    4.4402   -8.1975   28.0958 H   0  0  0  0  0  0  0  0  0  0  0  0
    5.6902   -7.0085   27.7900 H   0  0  0  0  0  0  0  0  0  0  0  0
    4.0761   -6.4897   28.2278 H   0  0  0  0  0  0  0  0  0  0  0  0
    2.1029   -5.4356   22.9330 H   0  0  0  0  0  0  0  0  0  0  0  0
    2.0090   -4.6856   24.5141 H   0  0  0  0  0  0  0  0  0  0  0  0
    7.1018    0.4684   22.7055 H   0  0  0  0  0  0  0  0  0  0  0  0
    5.4783   -0.2541   22.4328 H   0  0  0  0  0  0  0  0  0  0  0  0
    1.3615   -7.0757   24.6404 H   0  0  0  0  0  0  0  0  0  0  0  0
    2.9210   -7.5805   23.9640 H   0  0  0  0  0  0  0  0  0  0  0  0
    6.6368   -3.3549   24.5377 H   0  0  0  0  0  0  0  0  0  0  0  0
    2.3546   -6.6390   26.6733 H   0  0  0  0  0  0  0  0  0  0  0  0
  1  2  1  0  0  0  0
  1  4  2  0  0  0  0
  2  5  2  0  0  0  0
  3  6  2  0  0  0  0
  3  8  1  0  0  0  0
  4  9  1  0  0  0  0
  5 10  1  0  0  0  0
  6 14  1  0  0  0  0
  7 12  2  0  0  0  0
  7 24  1  0  0  0  0
  8 12  1  0  0  0  0
  8 13  2  0  0  0  0
  9 10  2  0  0  0  0
  9 17  1  0  0  0  0
 10 19  1  0  0  0  0
 11 13  1  0  0  0  0
 11 14  2  0  0  0  0
 11 19  1  0  0  0  0
 12 21  1  0  0  0  0
 13 24  1  0  0  0  0
 14 29  1  0  0  0  0
 15 22  1  0  0  0  0
 15 25  1  0  0  0  0
 15 27  2  0  0  0  0
 16 20  1  0  0  0  0
 16 26  1  0  0  0  0
 16 28  2  0  0  0  0
 17 25  1  0  0  0  0
 18 19  1  0  0  0  0
 18 25  1  0  0  0  0
 21 23  1  0  0  0  0
 22 30  1  0  0  0  0
 23 26  1  0  0  0  0
  1 31  1  0  0  0  0
  2 32  1  0  0  0  0
  3 33  1  0  0  0  0
  4 34  1  0  0  0  0
  5 35  1  0  0  0  0
  6 36  1  0  0  0  0
  7 37  1  0  0  0  0
 17 38  1  0  0  0  0
 17 39  1  0  0  0  0
 18 40  1  0  0  0  0
 18 41  1  0  0  0  0
 19 42  1  0  0  0  0
 20 43  1  0  0  0  0
 20 44  1  0  0  0  0
 20 45  1  0  0  0  0
 21 46  1  0  0  0  0
 21 47  1  0  0  0  0
 22 48  1  0  0  0  0
 22 49  1  0  0  0  0
 23 50  1  0  0  0  0
 23 51  1  0  0  0  0
 24 52  1  0  0  0  0
 26 53  1  0  0  0  0
M  END
> <Chemgauss4>
-5.347480

> <ref_pdb>
x1311_0

> <CYS145-warhead min dist (A)>
4.9873266

> <CYS145-warhead avg dist (A)>
6.2148957

> <CYS145-warhead avg dist stderr (A)>
0.06421683

> <original SMILES>
CC(=O)NCCc1c[nH]c2c1ccc(c2[C@H]3CN(Cc4c3cccc4)C(=O)CCl)F

$$$$
DAR-DIA-fb2-16
  -OEChem-04232002263D

 56 58  0     0  0  0  0  0  0999 V2000
    8.8343   -8.0798   22.6802 C   0  0  0  0  0  0  0  0  0  0  0  0
    7.1917   -6.5299   21.7430 C   0  0  0  0  0  0  0  0  0  0  0  0
    6.5271   -5.3039   21.7708 C   0  0  0  0  0  0  0  0  0  0  0  0
    8.4521   -5.8911   23.7027 C   0  0  0  0  0  0  0  0  0  0  0  0
    8.1541   -6.8236   22.7090 C   0  0  0  0  0  0  0  0  0  0  0  0
    6.8250   -4.3715   22.7645 C   0  0  0  0  0  0  0  0  0  0  0  0
    7.7875   -4.6651   23.7305 C   0  0  0  0  0  0  0  0  0  0  0  0
   12.6723   -0.6754   23.8156 C   0  0  0  0  0  0  0  0  0  0  0  0
    5.9954   -2.1076   20.4867 C   0  0  0  0  0  0  0  0  0  0  0  0
   10.7135   -1.7553   22.7583 C   0  0  0  0  0  0  0  0  0  0  0  0
   10.3744   -0.5872   24.9016 C   0  0  0  0  0  0  0  0  0  0  0  0
    6.0282   -1.0665   18.2416 C   0  0  0  0  0  0  0  0  0  0  0  0
    7.8026   -0.4147   19.8246 C   0  0  0  0  0  0  0  0  0  0  0  0
    9.9705   -2.9756   23.2821 C   0  0  0  0  0  0  0  0  0  0  0  0
    9.6241   -1.7901   25.4575 C   0  0  0  0  0  0  0  0  0  0  0  0
    5.9389    0.3916   17.8197 C   0  0  0  0  0  0  0  0  0  0  0  0
    7.6474    1.0126   19.3104 C   0  0  0  0  0  0  0  0  0  0  0  0
    6.1001   -3.0658   22.7738 C   0  0  0  0  0  0  0  0  0  0  0  0
    8.1239   -3.6781   24.8092 C   0  0  0  0  0  0  0  0  0  0  0  0
   13.2149    0.1057   24.9857 C   0  0  0  0  0  0  0  0  0  0  0  0
    9.3869   -9.1000   22.6569 N   0  0  0  0  0  0  0  0  0  0  0  0
   11.3162   -0.9962   23.8541 N   0  0  0  0  0  0  0  0  0  0  0  0
    6.5747   -1.1893   19.5949 N   0  0  0  0  0  0  0  0  0  0  0  0
    6.5778   -2.1666   21.7474 N   0  0  0  0  0  0  0  0  0  0  0  0
    8.9617   -2.5314   24.3177 N   0  3  0  0  0  0  0  0  0  0  0  0
   13.4330   -0.9922   22.8974 O   0  0  0  0  0  0  0  0  0  0  0  0
    5.0366   -2.8239   20.1800 O   0  0  0  0  0  0  0  0  0  0  0  0
    7.2173    1.0164   17.9487 O   0  0  0  0  0  0  0  0  0  0  0  0
   13.7267   -1.0754   26.1860 Cl  0  0  0  0  0  0  0  0  0  0  0  0
    6.9484   -7.2468   20.9624 H   0  0  0  0  0  0  0  0  0  0  0  0
    5.7789   -5.0840   21.0136 H   0  0  0  0  0  0  0  0  0  0  0  0
    9.2021   -6.1152   24.4591 H   0  0  0  0  0  0  0  0  0  0  0  0
   11.4761   -2.0723   22.0400 H   0  0  0  0  0  0  0  0  0  0  0  0
   10.0288   -1.0817   22.2286 H   0  0  0  0  0  0  0  0  0  0  0  0
    9.6760    0.1277   24.4499 H   0  0  0  0  0  0  0  0  0  0  0  0
   10.8760   -0.0693   25.7208 H   0  0  0  0  0  0  0  0  0  0  0  0
    5.0480   -1.5460   18.1633 H   0  0  0  0  0  0  0  0  0  0  0  0
    6.7194   -1.6061   17.5830 H   0  0  0  0  0  0  0  0  0  0  0  0
    8.5996   -0.9311   19.2776 H   0  0  0  0  0  0  0  0  0  0  0  0
    8.0757   -0.3766   20.8801 H   0  0  0  0  0  0  0  0  0  0  0  0
    9.4159   -3.4662   22.4757 H   0  0  0  0  0  0  0  0  0  0  0  0
   10.6462   -3.6957   23.7573 H   0  0  0  0  0  0  0  0  0  0  0  0
   10.2932   -2.4899   25.9706 H   0  0  0  0  0  0  0  0  0  0  0  0
    8.8319   -1.4684   26.1412 H   0  0  0  0  0  0  0  0  0  0  0  0
    5.6422    0.4576   16.7682 H   0  0  0  0  0  0  0  0  0  0  0  0
    5.1952    0.9394   18.4104 H   0  0  0  0  0  0  0  0  0  0  0  0
    6.9382    1.5829   19.9223 H   0  0  0  0  0  0  0  0  0  0  0  0
    8.6115    1.5292   19.3552 H   0  0  0  0  0  0  0  0  0  0  0  0
    5.0236   -3.2116   22.6120 H   0  0  0  0  0  0  0  0  0  0  0  0
    6.2108   -2.5527   23.7382 H   0  0  0  0  0  0  0  0  0  0  0  0
    7.2179   -3.2421   25.2436 H   0  0  0  0  0  0  0  0  0  0  0  0
    8.6866   -4.1542   25.6194 H   0  0  0  0  0  0  0  0  0  0  0  0
   12.4246    0.7282   25.3895 H   0  0  0  0  0  0  0  0  0  0  0  0
   14.0645    0.6913   24.6536 H   0  0  0  0  0  0  0  0  0  0  0  0
    7.3620   -1.5618   21.9573 H   0  0  0  0  0  0  0  0  0  0  0  0
    8.3170   -1.8739   23.8575 H   0  0  0  0  0  0  0  0  0  0  0  0
  1  5  1  0  0  0  0
  1 21  3  0  0  0  0
  2  3  2  0  0  0  0
  2  5  1  0  0  0  0
  3  6  1  0  0  0  0
  4  5  2  0  0  0  0
  4  7  1  0  0  0  0
  6  7  2  0  0  0  0
  6 18  1  0  0  0  0
  7 19  1  0  0  0  0
  8 20  1  0  0  0  0
  8 22  1  0  0  0  0
  8 26  2  0  0  0  0
  9 23  1  0  0  0  0
  9 24  1  0  0  0  0
  9 27  2  0  0  0  0
 10 14  1  0  0  0  0
 10 22  1  0  0  0  0
 11 15  1  0  0  0  0
 11 22  1  0  0  0  0
 12 16  1  0  0  0  0
 12 23  1  0  0  0  0
 13 17  1  0  0  0  0
 13 23  1  0  0  0  0
 14 25  1  0  0  0  0
 15 25  1  0  0  0  0
 16 28  1  0  0  0  0
 17 28  1  0  0  0  0
 18 24  1  0  0  0  0
 19 25  1  0  0  0  0
 20 29  1  0  0  0  0
  2 30  1  0  0  0  0
  3 31  1  0  0  0  0
  4 32  1  0  0  0  0
 10 33  1  0  0  0  0
 10 34  1  0  0  0  0
 11 35  1  0  0  0  0
 11 36  1  0  0  0  0
 12 37  1  0  0  0  0
 12 38  1  0  0  0  0
 13 39  1  0  0  0  0
 13 40  1  0  0  0  0
 14 41  1  0  0  0  0
 14 42  1  0  0  0  0
 15 43  1  0  0  0  0
 15 44  1  0  0  0  0
 16 45  1  0  0  0  0
 16 46  1  0  0  0  0
 17 47  1  0  0  0  0
 17 48  1  0  0  0  0
 18 49  1  0  0  0  0
 18 50  1  0  0  0  0
 19 51  1  0  0  0  0
 19 52  1  0  0  0  0
 20 53  1  0  0  0  0
 20 54  1  0  0  0  0
 24 55  1  0  0  0  0
 25 56  1  0  0  0  0
M  CHG  1  25   1
M  END
> <Chemgauss4>
-5.344900

> <ref_pdb>
x0749_0

> <CYS145-warhead min dist (A)>
5.694322

> <CYS145-warhead avg dist (A)>
6.7325664

> <CYS145-warhead avg dist stderr (A)>
0.032081448

> <original SMILES>
c1cc(c(cc1C#N)C[NH+]2CCN(CC2)C(=O)CCl)CNC(=O)N3CCOCC3

$$$$
PAU-WEI-b9b-1
  -OEChem-04232002263D

 51 53  0     1  0  0  0  0  0999 V2000
   12.0336    2.2720   23.8942 C   0  0  0  0  0  0  0  0  0  0  0  0
   12.2426    1.8448   22.5829 C   0  0  0  0  0  0  0  0  0  0  0  0
   11.6319    1.3592   24.8694 C   0  0  0  0  0  0  0  0  0  0  0  0
    8.0803   -3.6148   26.7516 C   0  0  0  0  0  0  0  0  0  0  0  0
   12.0499    0.5049   22.2468 C   0  0  0  0  0  0  0  0  0  0  0  0
   11.4391    0.0192   24.5334 C   0  0  0  0  0  0  0  0  0  0  0  0
    8.2364   -2.6434   25.7628 C   0  0  0  0  0  0  0  0  0  0  0  0
    8.4344   -4.9386   26.4910 C   0  0  0  0  0  0  0  0  0  0  0  0
    9.1007   -4.3197   24.2527 C   0  0  0  0  0  0  0  0  0  0  0  0
   11.6481   -0.4080   23.2221 C   0  0  0  0  0  0  0  0  0  0  0  0
    8.7466   -2.9959   24.5133 C   0  0  0  0  0  0  0  0  0  0  0  0
    8.9446   -5.2910   25.2416 C   0  0  0  0  0  0  0  0  0  0  0  0
    5.5584   -1.1439   19.1065 C   0  0  0  0  0  0  0  0  0  0  0  0
    6.0243   -2.6228   21.0344 C   0  0  0  0  0  0  0  0  0  0  0  0
    6.2205   -0.1891   21.3688 C   0  0  0  0  0  0  0  0  0  0  0  0
    7.3802   -2.8429   21.6890 C   0  0  0  0  0  0  0  0  0  0  0  0
    7.5796   -0.3729   22.0306 C   0  0  0  0  0  0  0  0  0  0  0  0
   11.4393   -1.8564   22.8594 C   0  0  0  0  0  0  0  0  0  0  0  0
    5.4972    0.2644   18.5711 C   0  0  0  0  0  0  0  0  0  0  0  0
   10.0184   -2.2281   22.4012 C   0  0  0  0  0  0  0  0  0  0  0  0
    8.9144   -1.9424   23.4413 C   0  0  1  0  0  0  0  0  0  0  0  0
    5.9376   -1.2888   20.4402 N   0  0  0  0  0  0  0  0  0  0  0  0
    7.6315   -1.7345   22.6868 N   0  3  0  0  0  0  0  0  0  0  0  0
    5.2796   -2.0854   18.3597 O   0  0  0  0  0  0  0  0  0  0  0  0
    9.3802   -6.9246   24.9202 Cl  0  0  0  0  0  0  0  0  0  0  0  0
    7.1023    0.6387   17.9536 Cl  0  0  0  0  0  0  0  0  0  0  0  0
   12.1850    3.3152   24.1560 H   0  0  0  0  0  0  0  0  0  0  0  0
   12.5565    2.5552   21.8237 H   0  0  0  0  0  0  0  0  0  0  0  0
   11.4701    1.6912   25.8907 H   0  0  0  0  0  0  0  0  0  0  0  0
    7.6828   -3.3399   27.7244 H   0  0  0  0  0  0  0  0  0  0  0  0
   12.2149    0.1811   21.2226 H   0  0  0  0  0  0  0  0  0  0  0  0
   11.1259   -0.6848   25.2997 H   0  0  0  0  0  0  0  0  0  0  0  0
    7.9578   -1.6144   25.9746 H   0  0  0  0  0  0  0  0  0  0  0  0
    8.3070   -5.6851   27.2711 H   0  0  0  0  0  0  0  0  0  0  0  0
    9.4985   -4.5893   23.2771 H   0  0  0  0  0  0  0  0  0  0  0  0
    5.8533   -3.3962   20.2790 H   0  0  0  0  0  0  0  0  0  0  0  0
    5.2181   -2.7071   21.7734 H   0  0  0  0  0  0  0  0  0  0  0  0
    5.4226   -0.1856   22.1212 H   0  0  0  0  0  0  0  0  0  0  0  0
    6.1940    0.7815   20.8708 H   0  0  0  0  0  0  0  0  0  0  0  0
    7.3941   -3.7883   22.2410 H   0  0  0  0  0  0  0  0  0  0  0  0
    8.1966   -2.8296   20.9581 H   0  0  0  0  0  0  0  0  0  0  0  0
    8.3998   -0.3167   21.3062 H   0  0  0  0  0  0  0  0  0  0  0  0
    7.7299    0.3739   22.8169 H   0  0  0  0  0  0  0  0  0  0  0  0
   11.6866   -2.4523   23.7481 H   0  0  0  0  0  0  0  0  0  0  0  0
   12.1584   -2.1636   22.0896 H   0  0  0  0  0  0  0  0  0  0  0  0
    5.2439    0.9380   19.3819 H   0  0  0  0  0  0  0  0  0  0  0  0
    4.7706    0.3037   17.7677 H   0  0  0  0  0  0  0  0  0  0  0  0
    9.8118   -1.6189   21.5100 H   0  0  0  0  0  0  0  0  0  0  0  0
    9.9815   -3.2711   22.0647 H   0  0  0  0  0  0  0  0  0  0  0  0
    9.1139   -0.9687   23.9048 H   0  0  0  0  0  0  0  0  0  0  0  0
    6.8737   -1.7689   23.3828 H   0  0  0  0  0  0  0  0  0  0  0  0
  1  2  1  0  0  0  0
  1  3  2  0  0  0  0
  2  5  2  0  0  0  0
  3  6  1  0  0  0  0
  4  7  2  0  0  0  0
  4  8  1  0  0  0  0
  5 10  1  0  0  0  0
  6 10  2  0  0  0  0
  7 11  1  0  0  0  0
  8 12  2  0  0  0  0
  9 11  2  0  0  0  0
  9 12  1  0  0  0  0
 10 18  1  0  0  0  0
 11 21  1  0  0  0  0
 12 25  1  0  0  0  0
 13 19  1  0  0  0  0
 13 22  1  0  0  0  0
 13 24  2  0  0  0  0
 14 16  1  0  0  0  0
 14 22  1  0  0  0  0
 15 17  1  0  0  0  0
 15 22  1  0  0  0  0
 16 23  1  0  0  0  0
 17 23  1  0  0  0  0
 18 20  1  0  0  0  0
 19 26  1  0  0  0  0
 20 21  1  0  0  0  0
 21 23  1  0  0  0  0
  1 27  1  0  0  0  0
  2 28  1  0  0  0  0
  3 29  1  0  0  0  0
  4 30  1  0  0  0  0
  5 31  1  0  0  0  0
  6 32  1  0  0  0  0
  7 33  1  0  0  0  0
  8 34  1  0  0  0  0
  9 35  1  0  0  0  0
 14 36  1  0  0  0  0
 14 37  1  0  0  0  0
 15 38  1  0  0  0  0
 15 39  1  0  0  0  0
 16 40  1  0  0  0  0
 16 41  1  0  0  0  0
 17 42  1  0  0  0  0
 17 43  1  0  0  0  0
 18 44  1  0  0  0  0
 18 45  1  0  0  0  0
 19 46  1  0  0  0  0
 19 47  1  0  0  0  0
 20 48  1  0  0  0  0
 20 49  1  0  0  0  0
 21 50  1  0  0  0  0
 23 51  1  0  0  0  0
M  CHG  1  23   1
M  END
> <Chemgauss4>
-5.330553

> <ref_pdb>
x1392_0

> <CYS145-warhead min dist (A)>
2.9510798

> <CYS145-warhead avg dist (A)>
3.676732

> <CYS145-warhead avg dist stderr (A)>
0.17420383

> <original SMILES>
c1ccc(cc1)CC[C@H](c2cccc(c2)Cl)[NH+]3CCN(CC3)C(=O)CCl

$$$$
SEA-TRI-f93-1
  -OEChem-04232002263D

 46 48  0     0  0  0  0  0  0999 V2000
   14.9255   -2.9567   26.2008 C   0  0  0  0  0  0  0  0  0  0  0  0
   13.1171   -0.1086   24.6279 C   0  0  0  0  0  0  0  0  0  0  0  0
   14.1528   -0.9139   25.1015 C   0  0  0  0  0  0  0  0  0  0  0  0
   11.7922   -0.5218   24.7686 C   0  0  0  0  0  0  0  0  0  0  0  0
    4.9177   -6.5883   23.6971 C   0  0  0  0  0  0  0  0  0  0  0  0
   12.5390   -2.5458   25.8562 C   0  0  0  0  0  0  0  0  0  0  0  0
    4.5521   -6.6726   25.0517 C   0  0  0  0  0  0  0  0  0  0  0  0
   13.8638   -2.1325   25.7155 C   0  0  0  0  0  0  0  0  0  0  0  0
   11.5032   -1.7404   25.3826 C   0  0  0  0  0  0  0  0  0  0  0  0
    6.2870   -6.5915   23.7285 C   0  0  0  0  0  0  0  0  0  0  0  0
    6.9191   -6.1463   20.2192 C   0  0  0  0  0  0  0  0  0  0  0  0
    6.9629   -5.6952   21.4791 C   0  0  0  0  0  0  0  0  0  0  0  0
    6.6458   -4.2674   21.6823 C   0  0  0  0  0  0  0  0  0  0  0  0
    9.0797   -3.6411   22.1381 C   0  0  0  0  0  0  0  0  0  0  0  0
    7.2208   -2.2680   23.0027 C   0  0  0  0  0  0  0  0  0  0  0  0
    9.7543   -3.6006   23.5042 C   0  0  0  0  0  0  0  0  0  0  0  0
    7.8654   -2.2274   24.3792 C   0  0  0  0  0  0  0  0  0  0  0  0
   10.0781   -2.1847   25.5337 C   0  0  0  0  0  0  0  0  0  0  0  0
    7.3567   -6.5260   22.6651 C   0  0  0  0  0  0  0  0  0  0  0  0
   15.7877   -3.6260   26.5950 N   0  0  0  0  0  0  0  0  0  0  0  0
    5.6135   -6.7241   25.8613 N   0  0  0  0  0  0  0  0  0  0  0  0
    7.6259   -3.4593   22.2535 N   0  0  0  0  0  0  0  0  0  0  0  0
    9.3640   -2.3294   24.2193 N   0  3  0  0  0  0  0  0  0  0  0  0
    5.5321   -3.8758   21.3291 O   0  0  0  0  0  0  0  0  0  0  0  0
    6.7143   -6.6722   25.0146 O   0  0  0  0  0  0  0  0  0  0  0  0
   13.3418    0.8398   24.1487 H   0  0  0  0  0  0  0  0  0  0  0  0
   15.1805   -0.5781   24.9850 H   0  0  0  0  0  0  0  0  0  0  0  0
   10.9921    0.1129   24.3969 H   0  0  0  0  0  0  0  0  0  0  0  0
    4.2792   -6.5334   22.8281 H   0  0  0  0  0  0  0  0  0  0  0  0
   12.3073   -3.4959   26.3333 H   0  0  0  0  0  0  0  0  0  0  0  0
    3.5626   -6.6987   25.4839 H   0  0  0  0  0  0  0  0  0  0  0  0
    7.1355   -7.1789   19.9654 H   0  0  0  0  0  0  0  0  0  0  0  0
    6.6639   -5.4814   19.4001 H   0  0  0  0  0  0  0  0  0  0  0  0
    9.4588   -2.8391   21.4938 H   0  0  0  0  0  0  0  0  0  0  0  0
    9.3337   -4.5906   21.6653 H   0  0  0  0  0  0  0  0  0  0  0  0
    6.1320   -2.2259   23.1080 H   0  0  0  0  0  0  0  0  0  0  0  0
    7.5195   -1.3941   22.4110 H   0  0  0  0  0  0  0  0  0  0  0  0
    9.4541   -4.4463   24.1332 H   0  0  0  0  0  0  0  0  0  0  0  0
   10.8437   -3.5928   23.3951 H   0  0  0  0  0  0  0  0  0  0  0  0
    7.6538   -1.2752   24.8765 H   0  0  0  0  0  0  0  0  0  0  0  0
    7.5351   -3.0568   25.0146 H   0  0  0  0  0  0  0  0  0  0  0  0
   10.0176   -3.1576   26.0333 H   0  0  0  0  0  0  0  0  0  0  0  0
    9.5012   -1.4679   26.1279 H   0  0  0  0  0  0  0  0  0  0  0  0
    7.6025   -7.5506   22.3548 H   0  0  0  0  0  0  0  0  0  0  0  0
    8.2871   -6.1319   23.0948 H   0  0  0  0  0  0  0  0  0  0  0  0
    9.6668   -1.5397   23.6326 H   0  0  0  0  0  0  0  0  0  0  0  0
  1  8  1  0  0  0  0
  1 20  3  0  0  0  0
  2  3  1  0  0  0  0
  2  4  2  0  0  0  0
  3  8  2  0  0  0  0
  4  9  1  0  0  0  0
  5  7  1  0  0  0  0
  5 10  2  0  0  0  0
  6  8  1  0  0  0  0
  6  9  2  0  0  0  0
  7 21  2  0  0  0  0
  9 18  1  0  0  0  0
 10 19  1  0  0  0  0
 10 25  1  0  0  0  0
 11 12  2  0  0  0  0
 12 13  1  0  0  0  0
 12 19  1  0  0  0  0
 13 22  1  0  0  0  0
 13 24  2  0  0  0  0
 14 16  1  0  0  0  0
 14 22  1  0  0  0  0
 15 17  1  0  0  0  0
 15 22  1  0  0  0  0
 16 23  1  0  0  0  0
 17 23  1  0  0  0  0
 18 23  1  0  0  0  0
 21 25  1  0  0  0  0
  2 26  1  0  0  0  0
  3 27  1  0  0  0  0
  4 28  1  0  0  0  0
  5 29  1  0  0  0  0
  6 30  1  0  0  0  0
  7 31  1  0  0  0  0
 11 32  1  0  0  0  0
 11 33  1  0  0  0  0
 14 34  1  0  0  0  0
 14 35  1  0  0  0  0
 15 36  1  0  0  0  0
 15 37  1  0  0  0  0
 16 38  1  0  0  0  0
 16 39  1  0  0  0  0
 17 40  1  0  0  0  0
 17 41  1  0  0  0  0
 18 42  1  0  0  0  0
 18 43  1  0  0  0  0
 19 44  1  0  0  0  0
 19 45  1  0  0  0  0
 23 46  1  0  0  0  0
M  CHG  1  23   1
M  END
> <Chemgauss4>
-5.300890

> <ref_pdb>
x0749_0

> <CYS145-warhead min dist (A)>
5.12374

> <CYS145-warhead avg dist (A)>
5.9756155

> <CYS145-warhead avg dist stderr (A)>
0.026094655

> <original SMILES>
C=C(Cc1ccno1)C(=O)N2CC[NH+](CC2)Cc3cccc(c3)C#N

$$$$
STU-CHA-83d-1
  -OEChem-04232002263D

 50 52  0     1  0  0  0  0  0999 V2000
    9.3252   -6.7219   26.7999 C   0  0  0  0  0  0  0  0  0  0  0  0
    8.4617   -7.2506   27.7588 C   0  0  0  0  0  0  0  0  0  0  0  0
    7.0882   -5.2717   27.6116 C   0  0  0  0  0  0  0  0  0  0  0  0
    9.0830   -5.4579   26.2429 C   0  0  0  0  0  0  0  0  0  0  0  0
    7.9444   -4.7350   26.6403 C   0  0  0  0  0  0  0  0  0  0  0  0
    7.3450   -6.5253   28.1658 C   0  0  0  0  0  0  0  0  0  0  0  0
    6.3044   -1.4798   19.1102 C   0  0  0  0  0  0  0  0  0  0  0  0
   10.0110   -4.9269   25.1794 C   0  0  0  0  0  0  0  0  0  0  0  0
    7.6653   -3.3663   26.0829 C   0  0  0  0  0  0  0  0  0  0  0  0
    5.6325   -3.2552   22.2170 C   0  0  0  0  0  0  0  0  0  0  0  0
    7.1406   -1.2720   22.5966 C   0  0  0  0  0  0  0  0  0  0  0  0
    6.1886   -3.3775   20.7986 C   0  0  0  0  0  0  0  0  0  0  0  0
    7.6686   -1.4339   21.1725 C   0  0  0  0  0  0  0  0  0  0  0  0
    9.8800   -3.4254   24.9469 C   0  0  0  0  0  0  0  0  0  0  0  0
    6.6212   -2.5917   23.1889 C   0  0  0  0  0  0  0  0  0  0  0  0
    6.9275   -0.1417   18.8021 C   0  0  0  0  0  0  0  0  0  0  0  0
    7.7663   -3.5347   23.5659 C   0  0  0  0  0  0  0  0  0  0  0  0
    6.6751   -2.0804   20.3134 N   0  0  0  0  0  0  0  0  0  0  0  0
    6.9758   -6.5854   30.8048 N   0  0  0  0  0  0  0  0  0  0  0  0
    8.4303   -3.0317   24.8191 N   0  3  1  0  0  0  0  0  0  0  0  0
    5.5139   -1.9760   18.3033 O   0  0  0  0  0  0  0  0  0  0  0  0
    4.9576   -6.5701   29.2010 O   0  0  0  0  0  0  0  0  0  0  0  0
    6.3917   -8.6356   29.3583 O   0  0  0  0  0  0  0  0  0  0  0  0
    6.2668   -7.1848   29.3704 S   0  0  0  0  0  0  0  0  0  0  0  0
    6.3125    0.3500   17.2279 Cl  0  0  0  0  0  0  0  0  0  0  0  0
   10.1906   -7.3016   26.4877 H   0  0  0  0  0  0  0  0  0  0  0  0
    8.6705   -8.2294   28.1822 H   0  0  0  0  0  0  0  0  0  0  0  0
    6.2180   -4.7042   27.9344 H   0  0  0  0  0  0  0  0  0  0  0  0
   11.0426   -5.1659   25.4727 H   0  0  0  0  0  0  0  0  0  0  0  0
    9.8151   -5.4418   24.2294 H   0  0  0  0  0  0  0  0  0  0  0  0
    6.5957   -3.2813   25.8439 H   0  0  0  0  0  0  0  0  0  0  0  0
    7.9363   -2.5928   26.8143 H   0  0  0  0  0  0  0  0  0  0  0  0
    4.6956   -2.6742   22.1882 H   0  0  0  0  0  0  0  0  0  0  0  0
    5.3575   -4.2590   22.5853 H   0  0  0  0  0  0  0  0  0  0  0  0
    7.9419   -0.8617   23.2355 H   0  0  0  0  0  0  0  0  0  0  0  0
    6.3335   -0.5204   22.5998 H   0  0  0  0  0  0  0  0  0  0  0  0
    6.9691   -4.1408   20.7815 H   0  0  0  0  0  0  0  0  0  0  0  0
    5.4020   -3.7061   20.1082 H   0  0  0  0  0  0  0  0  0  0  0  0
    7.8938   -0.4544   20.7330 H   0  0  0  0  0  0  0  0  0  0  0  0
    8.6024   -2.0056   21.1887 H   0  0  0  0  0  0  0  0  0  0  0  0
   10.3076   -2.8650   25.7955 H   0  0  0  0  0  0  0  0  0  0  0  0
   10.3922   -3.1016   24.0233 H   0  0  0  0  0  0  0  0  0  0  0  0
    6.0722   -2.3529   24.1223 H   0  0  0  0  0  0  0  0  0  0  0  0
    8.0047   -0.2565   18.7614 H   0  0  0  0  0  0  0  0  0  0  0  0
    6.6228    0.5708   19.5600 H   0  0  0  0  0  0  0  0  0  0  0  0
    8.5338   -3.5705   22.7879 H   0  0  0  0  0  0  0  0  0  0  0  0
    7.4052   -4.5451   23.7771 H   0  0  0  0  0  0  0  0  0  0  0  0
    6.4821   -5.8405   31.3117 H   0  0  0  0  0  0  0  0  0  0  0  0
    7.4626   -7.2516   31.4168 H   0  0  0  0  0  0  0  0  0  0  0  0
    8.4199   -1.9829   24.7431 H   0  0  0  0  0  0  0  0  0  0  0  0
  1  2  2  0  0  0  0
  1  4  1  0  0  0  0
  2  6  1  0  0  0  0
  3  5  1  0  0  0  0
  3  6  2  0  0  0  0
  4  5  2  0  0  0  0
  4  8  1  0  0  0  0
  5  9  1  0  0  0  0
  6 24  1  0  0  0  0
  7 16  1  0  0  0  0
  7 18  1  0  0  0  0
  7 21  2  0  0  0  0
  8 14  1  0  0  0  0
  9 20  1  0  0  0  0
 10 12  1  0  0  0  0
 10 15  1  0  0  0  0
 11 13  1  0  0  0  0
 11 15  1  0  0  0  0
 12 18  1  0  0  0  0
 13 18  1  0  0  0  0
 14 20  1  0  0  0  0
 15 17  1  0  0  0  0
 16 25  1  0  0  0  0
 17 20  1  0  0  0  0
 19 24  1  0  0  0  0
 22 24  2  0  0  0  0
 23 24  2  0  0  0  0
  1 26  1  0  0  0  0
  2 27  1  0  0  0  0
  3 28  1  0  0  0  0
  8 29  1  0  0  0  0
  8 30  1  0  0  0  0
  9 31  1  0  0  0  0
  9 32  1  0  0  0  0
 10 33  1  0  0  0  0
 10 34  1  0  0  0  0
 11 35  1  0  0  0  0
 11 36  1  0  0  0  0
 12 37  1  0  0  0  0
 12 38  1  0  0  0  0
 13 39  1  0  0  0  0
 13 40  1  0  0  0  0
 14 41  1  0  0  0  0
 14 42  1  0  0  0  0
 15 43  1  0  0  0  0
 16 44  1  0  0  0  0
 16 45  1  0  0  0  0
 17 46  1  0  0  0  0
 17 47  1  0  0  0  0
 19 48  1  0  0  0  0
 19 49  1  0  0  0  0
 20 50  1  0  0  0  0
M  CHG  1  20   1
M  END
> <Chemgauss4>
-5.195838

> <ref_pdb>
x1385_0

> <CYS145-warhead min dist (A)>
3.2442265

> <CYS145-warhead avg dist (A)>
6.6120234

> <CYS145-warhead avg dist stderr (A)>
0.066879354

> <original SMILES>
c1cc2c(cc1S(=O)(=O)N)C[N@@H+](CC2)CC3CCN(CC3)C(=O)CCl

$$$$
MAK-UNK-af8-22
  -OEChem-04232002263D

 59 61  0     0  0  0  0  0  0999 V2000
    9.7381    4.2167   24.5128 C   0  0  0  0  0  0  0  0  0  0  0  0
    8.4794    1.4387   27.4317 C   0  0  0  0  0  0  0  0  0  0  0  0
    9.6329    1.1833   26.6903 C   0  0  0  0  0  0  0  0  0  0  0  0
    8.1737    3.5180   26.2400 C   0  0  0  0  0  0  0  0  0  0  0  0
   12.2888   -1.3582   22.4481 C   0  0  0  0  0  0  0  0  0  0  0  0
   12.8400    0.7286   23.5335 C   0  0  0  0  0  0  0  0  0  0  0  0
   10.6780   -0.2871   23.8955 C   0  0  0  0  0  0  0  0  0  0  0  0
    9.3273    3.2626   25.4986 C   0  0  0  0  0  0  0  0  0  0  0  0
   13.1932   -0.3240   22.6891 C   0  0  0  0  0  0  0  0  0  0  0  0
   11.0312   -1.3398   23.0512 C   0  0  0  0  0  0  0  0  0  0  0  0
    7.7498    2.6061   27.2066 C   0  0  0  0  0  0  0  0  0  0  0  0
   10.0568    2.0952   25.7237 C   0  0  0  0  0  0  0  0  0  0  0  0
   11.5824    0.7471   24.1367 C   0  0  0  0  0  0  0  0  0  0  0  0
    5.9739   -2.0728   19.0684 C   0  0  0  0  0  0  0  0  0  0  0  0
    6.4837   -2.5475   21.4424 C   0  0  0  0  0  0  0  0  0  0  0  0
    7.6959   -0.7040   20.3446 C   0  0  0  0  0  0  0  0  0  0  0  0
    7.7892   -3.1108   21.9843 C   0  0  0  0  0  0  0  0  0  0  0  0
    9.0206   -1.2389   20.8719 C   0  0  0  0  0  0  0  0  0  0  0  0
   14.5378   -0.3438   22.0442 C   0  0  0  0  0  0  0  0  0  0  0  0
    4.6230    4.0471   28.7069 C   0  0  0  0  0  0  0  0  0  0  0  0
   10.0585   -2.4522   22.7918 C   0  0  0  0  0  0  0  0  0  0  0  0
    6.2708   -1.2399   17.8471 C   0  0  0  0  0  0  0  0  0  0  0  0
    5.7885    4.0390   27.7772 C   0  0  0  0  0  0  0  0  0  0  0  0
   10.0710    4.9898   23.7139 N   0  0  0  0  0  0  0  0  0  0  0  0
    6.7099   -1.7824   20.2162 N   0  0  0  0  0  0  0  0  0  0  0  0
   11.2253    1.8114   24.9904 N   0  0  0  0  0  0  0  0  0  0  0  0
    6.5832    2.8635   27.9562 N   0  0  0  0  0  0  0  0  0  0  0  0
    8.7758   -1.9793   22.1677 N   0  3  0  0  0  0  0  0  0  0  0  0
    5.1152   -2.9562   19.0016 O   0  0  0  0  0  0  0  0  0  0  0  0
    5.1690    0.1319   17.8928 Cl  0  0  0  0  0  0  0  0  0  0  0  0
    8.1576    0.7212   28.1822 H   0  0  0  0  0  0  0  0  0  0  0  0
   10.1928    0.2698   26.8745 H   0  0  0  0  0  0  0  0  0  0  0  0
    7.6000    4.4270   26.0685 H   0  0  0  0  0  0  0  0  0  0  0  0
   12.5642   -2.1789   21.7898 H   0  0  0  0  0  0  0  0  0  0  0  0
   13.5465    1.5343   23.7204 H   0  0  0  0  0  0  0  0  0  0  0  0
    9.6969   -0.2744   24.3650 H   0  0  0  0  0  0  0  0  0  0  0  0
    5.7783   -3.3654   21.2652 H   0  0  0  0  0  0  0  0  0  0  0  0
    6.0202   -1.8716   22.1715 H   0  0  0  0  0  0  0  0  0  0  0  0
    7.2777    0.0385   21.0351 H   0  0  0  0  0  0  0  0  0  0  0  0
    7.8688   -0.1950   19.3949 H   0  0  0  0  0  0  0  0  0  0  0  0
    7.6341   -3.5708   22.9655 H   0  0  0  0  0  0  0  0  0  0  0  0
    8.2372   -3.8407   21.3006 H   0  0  0  0  0  0  0  0  0  0  0  0
    9.4904   -1.9363   20.1693 H   0  0  0  0  0  0  0  0  0  0  0  0
    9.7089   -0.4164   21.0913 H   0  0  0  0  0  0  0  0  0  0  0  0
   14.5041    0.1690   21.0752 H   0  0  0  0  0  0  0  0  0  0  0  0
   15.2890    0.1507   22.6736 H   0  0  0  0  0  0  0  0  0  0  0  0
   14.8867   -1.3720   21.8818 H   0  0  0  0  0  0  0  0  0  0  0  0
    4.9821    4.0165   29.7462 H   0  0  0  0  0  0  0  0  0  0  0  0
    4.0347    4.9631   28.5492 H   0  0  0  0  0  0  0  0  0  0  0  0
    3.9919    3.1677   28.5112 H   0  0  0  0  0  0  0  0  0  0  0  0
   10.4827   -3.1985   22.1115 H   0  0  0  0  0  0  0  0  0  0  0  0
    9.7862   -2.9643   23.7210 H   0  0  0  0  0  0  0  0  0  0  0  0
    6.0856   -1.8366   16.9612 H   0  0  0  0  0  0  0  0  0  0  0  0
    7.2972   -0.8950   17.8980 H   0  0  0  0  0  0  0  0  0  0  0  0
    5.4212    4.0697   26.7408 H   0  0  0  0  0  0  0  0  0  0  0  0
    6.4097    4.9256   27.9725 H   0  0  0  0  0  0  0  0  0  0  0  0
   11.9551    2.5098   25.0972 H   0  0  0  0  0  0  0  0  0  0  0  0
    6.3213    2.1778   28.6392 H   0  0  0  0  0  0  0  0  0  0  0  0
    8.3577   -1.3103   22.8292 H   0  0  0  0  0  0  0  0  0  0  0  0
  1  8  1  0  0  0  0
  1 24  3  0  0  0  0
  2  3  2  0  0  0  0
  2 11  1  0  0  0  0
  3 12  1  0  0  0  0
  4  8  1  0  0  0  0
  4 11  2  0  0  0  0
  5  9  1  0  0  0  0
  5 10  2  0  0  0  0
  6  9  2  0  0  0  0
  6 13  1  0  0  0  0
  7 10  1  0  0  0  0
  7 13  2  0  0  0  0
  8 12  2  0  0  0  0
  9 19  1  0  0  0  0
 10 21  1  0  0  0  0
 11 27  1  0  0  0  0
 12 26  1  0  0  0  0
 13 26  1  0  0  0  0
 14 22  1  0  0  0  0
 14 25  1  0  0  0  0
 14 29  2  0  0  0  0
 15 17  1  0  0  0  0
 15 25  1  0  0  0  0
 16 18  1  0  0  0  0
 16 25  1  0  0  0  0
 17 28  1  0  0  0  0
 18 28  1  0  0  0  0
 20 23  1  0  0  0  0
 21 28  1  0  0  0  0
 22 30  1  0  0  0  0
 23 27  1  0  0  0  0
  2 31  1  0  0  0  0
  3 32  1  0  0  0  0
  4 33  1  0  0  0  0
  5 34  1  0  0  0  0
  6 35  1  0  0  0  0
  7 36  1  0  0  0  0
 15 37  1  0  0  0  0
 15 38  1  0  0  0  0
 16 39  1  0  0  0  0
 16 40  1  0  0  0  0
 17 41  1  0  0  0  0
 17 42  1  0  0  0  0
 18 43  1  0  0  0  0
 18 44  1  0  0  0  0
 19 45  1  0  0  0  0
 19 46  1  0  0  0  0
 19 47  1  0  0  0  0
 20 48  1  0  0  0  0
 20 49  1  0  0  0  0
 20 50  1  0  0  0  0
 21 51  1  0  0  0  0
 21 52  1  0  0  0  0
 22 53  1  0  0  0  0
 22 54  1  0  0  0  0
 23 55  1  0  0  0  0
 23 56  1  0  0  0  0
 26 57  1  0  0  0  0
 27 58  1  0  0  0  0
 28 59  1  0  0  0  0
M  CHG  1  28   1
M  END
> <Chemgauss4>
-5.173397

> <ref_pdb>
x0830_0

> <CYS145-warhead min dist (A)>
2.9063568

> <CYS145-warhead avg dist (A)>
3.3992107

> <CYS145-warhead avg dist stderr (A)>
0.013503008

> <original SMILES>
CCNc1ccc(c(c1)C#N)Nc2cc(cc(c2)C[NH+]3CCN(CC3)C(=O)CCl)C

$$$$
ANT-STE-dbb-1
  -OEChem-04232002263D

 45 47  0     0  0  0  0  0  0999 V2000
    7.6172   -4.0672   27.7538 C   0  0  0  0  0  0  0  0  0  0  0  0
    8.3813   -6.2516   27.0597 C   0  0  0  0  0  0  0  0  0  0  0  0
    7.1086   -4.6188   28.9296 C   0  0  0  0  0  0  0  0  0  0  0  0
    7.8727   -6.8032   28.2356 C   0  0  0  0  0  0  0  0  0  0  0  0
    8.7139   -3.0267   25.2719 C   0  0  0  0  0  0  0  0  0  0  0  0
    8.2535   -4.8837   26.8187 C   0  0  0  0  0  0  0  0  0  0  0  0
    7.2363   -5.9867   29.1706 C   0  0  0  0  0  0  0  0  0  0  0  0
    9.3466   -3.0185   24.0542 C   0  0  0  0  0  0  0  0  0  0  0  0
    5.9822   -1.3857   18.9748 C   0  0  0  0  0  0  0  0  0  0  0  0
    6.2346   -2.0311   21.3499 C   0  0  0  0  0  0  0  0  0  0  0  0
    7.4524   -0.0413   20.5556 C   0  0  0  0  0  0  0  0  0  0  0  0
    7.4989   -2.5693   22.0036 C   0  0  0  0  0  0  0  0  0  0  0  0
    8.7355   -0.5491   21.1995 C   0  0  0  0  0  0  0  0  0  0  0  0
    6.9064   -7.9310   30.4998 C   0  0  0  0  0  0  0  0  0  0  0  0
    9.6110   -1.8639   23.1335 C   0  0  0  0  0  0  0  0  0  0  0  0
    6.3701   -0.4387   17.8674 C   0  0  0  0  0  0  0  0  0  0  0  0
    9.7481   -4.2863   23.7365 N   0  0  0  0  0  0  0  0  0  0  0  0
    9.3806   -5.0913   24.7275 N   0  0  0  0  0  0  0  0  0  0  0  0
    8.7605   -4.3341   25.6470 N   0  0  0  0  0  0  0  0  0  0  0  0
    6.5572   -1.1549   20.2236 N   0  0  0  0  0  0  0  0  0  0  0  0
    8.3847   -1.4074   22.3942 N   0  3  0  0  0  0  0  0  0  0  0  0
    5.1938   -2.3037   18.7346 O   0  0  0  0  0  0  0  0  0  0  0  0
    6.7410   -6.5255   30.3181 O   0  0  0  0  0  0  0  0  0  0  0  0
    7.8114   -1.1099   17.1124 Cl  0  0  0  0  0  0  0  0  0  0  0  0
    7.5105   -2.9994   27.5786 H   0  0  0  0  0  0  0  0  0  0  0  0
    8.8744   -6.8994   26.3389 H   0  0  0  0  0  0  0  0  0  0  0  0
    6.6140   -3.9780   29.6545 H   0  0  0  0  0  0  0  0  0  0  0  0
    7.9761   -7.8695   28.4172 H   0  0  0  0  0  0  0  0  0  0  0  0
    8.2569   -2.2506   25.8709 H   0  0  0  0  0  0  0  0  0  0  0  0
    5.6073   -2.8668   21.0243 H   0  0  0  0  0  0  0  0  0  0  0  0
    5.6470   -1.4439   22.0661 H   0  0  0  0  0  0  0  0  0  0  0  0
    6.9100    0.6177   21.2443 H   0  0  0  0  0  0  0  0  0  0  0  0
    7.7052    0.5540   19.6766 H   0  0  0  0  0  0  0  0  0  0  0  0
    7.2569   -3.1177   22.9198 H   0  0  0  0  0  0  0  0  0  0  0  0
    8.0692   -3.2149   21.3262 H   0  0  0  0  0  0  0  0  0  0  0  0
    9.3277   -1.1595   20.5086 H   0  0  0  0  0  0  0  0  0  0  0  0
    9.3408    0.2868   21.5650 H   0  0  0  0  0  0  0  0  0  0  0  0
    6.4668   -8.2299   31.4545 H   0  0  0  0  0  0  0  0  0  0  0  0
    7.9708   -8.1787   30.4831 H   0  0  0  0  0  0  0  0  0  0  0  0
    6.3993   -8.4565   29.6872 H   0  0  0  0  0  0  0  0  0  0  0  0
    9.9870   -0.9956   23.6851 H   0  0  0  0  0  0  0  0  0  0  0  0
   10.3565   -2.1256   22.3748 H   0  0  0  0  0  0  0  0  0  0  0  0
    6.5922    0.5317   18.2964 H   0  0  0  0  0  0  0  0  0  0  0  0
    5.5611   -0.3896   17.1476 H   0  0  0  0  0  0  0  0  0  0  0  0
    7.8505   -0.8192   23.0486 H   0  0  0  0  0  0  0  0  0  0  0  0
  1  3  2  0  0  0  0
  1  6  1  0  0  0  0
  2  4  1  0  0  0  0
  2  6  2  0  0  0  0
  3  7  1  0  0  0  0
  4  7  2  0  0  0  0
  5  8  2  0  0  0  0
  5 19  1  0  0  0  0
  6 19  1  0  0  0  0
  7 23  1  0  0  0  0
  8 15  1  0  0  0  0
  8 17  1  0  0  0  0
  9 16  1  0  0  0  0
  9 20  1  0  0  0  0
  9 22  2  0  0  0  0
 10 12  1  0  0  0  0
 10 20  1  0  0  0  0
 11 13  1  0  0  0  0
 11 20  1  0  0  0  0
 12 21  1  0  0  0  0
 13 21  1  0  0  0  0
 14 23  1  0  0  0  0
 15 21  1  0  0  0  0
 16 24  1  0  0  0  0
 17 18  2  0  0  0  0
 18 19  1  0  0  0  0
  1 25  1  0  0  0  0
  2 26  1  0  0  0  0
  3 27  1  0  0  0  0
  4 28  1  0  0  0  0
  5 29  1  0  0  0  0
 10 30  1  0  0  0  0
 10 31  1  0  0  0  0
 11 32  1  0  0  0  0
 11 33  1  0  0  0  0
 12 34  1  0  0  0  0
 12 35  1  0  0  0  0
 13 36  1  0  0  0  0
 13 37  1  0  0  0  0
 14 38  1  0  0  0  0
 14 39  1  0  0  0  0
 14 40  1  0  0  0  0
 15 41  1  0  0  0  0
 15 42  1  0  0  0  0
 16 43  1  0  0  0  0
 16 44  1  0  0  0  0
 21 45  1  0  0  0  0
M  CHG  1  21   1
M  END
> <Chemgauss4>
-5.123157

> <ref_pdb>
x1334_0

> <CYS145-warhead min dist (A)>
2.9024615

> <CYS145-warhead avg dist (A)>
3.4069743

> <CYS145-warhead avg dist stderr (A)>
0.020141175

> <original SMILES>
COc1ccc(cc1)n2cc(nn2)C[NH+]3CCN(CC3)C(=O)CCl

$$$$
PAU-WEI-b9b-4
  -OEChem-04232002263D

 52 54  0     1  0  0  0  0  0999 V2000
    5.8967   -2.4517   19.8058 C   0  0  0  0  0  0  0  0  0  0  0  0
    4.4041   -6.2829   22.0456 C   0  0  0  0  0  0  0  0  0  0  0  0
    4.6583   -5.8861   23.3584 C   0  0  0  0  0  0  0  0  0  0  0  0
    5.4645   -6.5699   21.1860 C   0  0  0  0  0  0  0  0  0  0  0  0
    5.0593   -1.7035   23.3547 C   0  0  0  0  0  0  0  0  0  0  0  0
    4.9688   -1.7760   21.9647 C   0  0  0  0  0  0  0  0  0  0  0  0
    5.9728   -5.7762   23.8117 C   0  0  0  0  0  0  0  0  0  0  0  0
    6.7791   -6.4600   21.6392 C   0  0  0  0  0  0  0  0  0  0  0  0
    6.1709   -2.2334   24.0099 C   0  0  0  0  0  0  0  0  0  0  0  0
    7.1016   -2.9082   21.8849 C   0  0  0  0  0  0  0  0  0  0  0  0
    5.9899   -2.3783   21.2298 C   0  0  0  0  0  0  0  0  0  0  0  0
    7.0333   -6.0632   22.9521 C   0  0  0  0  0  0  0  0  0  0  0  0
    7.1921   -2.8358   23.2749 C   0  0  0  0  0  0  0  0  0  0  0  0
   13.3977   -1.0525   24.3421 C   0  0  0  0  0  0  0  0  0  0  0  0
   11.1571   -0.8532   23.3120 C   0  0  0  0  0  0  0  0  0  0  0  0
   11.2882   -1.5580   25.6698 C   0  0  0  0  0  0  0  0  0  0  0  0
   10.2078   -2.0009   23.0003 C   0  0  0  0  0  0  0  0  0  0  0  0
   10.3388   -2.7160   25.3938 C   0  0  0  0  0  0  0  0  0  0  0  0
    8.4544   -5.9444   23.4413 C   0  0  0  0  0  0  0  0  0  0  0  0
   14.2281   -1.9900   25.1818 C   0  0  0  0  0  0  0  0  0  0  0  0
    9.1094   -4.5653   23.2501 C   0  0  0  0  0  0  0  0  0  0  0  0
    8.3972   -3.4103   23.9855 C   0  0  1  0  0  0  0  0  0  0  0  0
    5.8209   -2.5113   18.6493 N   0  0  0  0  0  0  0  0  0  0  0  0
   12.0134   -1.1745   24.4538 N   0  0  0  0  0  0  0  0  0  0  0  0
    9.4247   -2.3453   24.2474 N   0  3  0  0  0  0  0  0  0  0  0  0
   13.9641   -0.2388   23.6079 O   0  0  0  0  0  0  0  0  0  0  0  0
   13.7737   -3.6241   24.7113 Cl  0  0  0  0  0  0  0  0  0  0  0  0
    3.3804   -6.3697   21.6932 H   0  0  0  0  0  0  0  0  0  0  0  0
    3.8327   -5.6637   24.0282 H   0  0  0  0  0  0  0  0  0  0  0  0
    5.2670   -6.8798   20.1641 H   0  0  0  0  0  0  0  0  0  0  0  0
    4.2639   -1.2356   23.9274 H   0  0  0  0  0  0  0  0  0  0  0  0
    4.0963   -1.3581   21.4682 H   0  0  0  0  0  0  0  0  0  0  0  0
    6.1614   -5.4662   24.8362 H   0  0  0  0  0  0  0  0  0  0  0  0
    7.5990   -6.6855   20.9624 H   0  0  0  0  0  0  0  0  0  0  0  0
    6.2326   -2.1716   25.0932 H   0  0  0  0  0  0  0  0  0  0  0  0
    7.9008   -3.3803   21.3171 H   0  0  0  0  0  0  0  0  0  0  0  0
   11.7593   -0.6264   22.4267 H   0  0  0  0  0  0  0  0  0  0  0  0
   10.5975    0.0555   23.5654 H   0  0  0  0  0  0  0  0  0  0  0  0
   10.7319   -0.6755   26.0085 H   0  0  0  0  0  0  0  0  0  0  0  0
   11.9667   -1.8370   26.4777 H   0  0  0  0  0  0  0  0  0  0  0  0
    9.4854   -1.7073   22.2319 H   0  0  0  0  0  0  0  0  0  0  0  0
   10.7432   -2.9016   22.6793 H   0  0  0  0  0  0  0  0  0  0  0  0
   10.8759   -3.6294   25.1144 H   0  0  0  0  0  0  0  0  0  0  0  0
    9.7058   -2.9121   26.2653 H   0  0  0  0  0  0  0  0  0  0  0  0
    9.0482   -6.6912   22.8977 H   0  0  0  0  0  0  0  0  0  0  0  0
    8.5182   -6.2304   24.4988 H   0  0  0  0  0  0  0  0  0  0  0  0
   13.9947   -1.8254   26.2276 H   0  0  0  0  0  0  0  0  0  0  0  0
   15.2767   -1.8187   24.9672 H   0  0  0  0  0  0  0  0  0  0  0  0
   10.1282   -4.6485   23.6538 H   0  0  0  0  0  0  0  0  0  0  0  0
    9.2285   -4.3388   22.1839 H   0  0  0  0  0  0  0  0  0  0  0  0
    8.1091   -3.7568   24.9853 H   0  0  0  0  0  0  0  0  0  0  0  0
    8.9065   -1.5014   24.5286 H   0  0  0  0  0  0  0  0  0  0  0  0
  1 11  1  0  0  0  0
  1 23  3  0  0  0  0
  2  3  1  0  0  0  0
  2  4  2  0  0  0  0
  3  7  2  0  0  0  0
  4  8  1  0  0  0  0
  5  6  2  0  0  0  0
  5  9  1  0  0  0  0
  6 11  1  0  0  0  0
  7 12  1  0  0  0  0
  8 12  2  0  0  0  0
  9 13  2  0  0  0  0
 10 11  2  0  0  0  0
 10 13  1  0  0  0  0
 12 19  1  0  0  0  0
 13 22  1  0  0  0  0
 14 20  1  0  0  0  0
 14 24  1  0  0  0  0
 14 26  2  0  0  0  0
 15 17  1  0  0  0  0
 15 24  1  0  0  0  0
 16 18  1  0  0  0  0
 16 24  1  0  0  0  0
 17 25  1  0  0  0  0
 18 25  1  0  0  0  0
 19 21  1  0  0  0  0
 20 27  1  0  0  0  0
 21 22  1  0  0  0  0
 22 25  1  0  0  0  0
  2 28  1  0  0  0  0
  3 29  1  0  0  0  0
  4 30  1  0  0  0  0
  5 31  1  0  0  0  0
  6 32  1  0  0  0  0
  7 33  1  0  0  0  0
  8 34  1  0  0  0  0
  9 35  1  0  0  0  0
 10 36  1  0  0  0  0
 15 37  1  0  0  0  0
 15 38  1  0  0  0  0
 16 39  1  0  0  0  0
 16 40  1  0  0  0  0
 17 41  1  0  0  0  0
 17 42  1  0  0  0  0
 18 43  1  0  0  0  0
 18 44  1  0  0  0  0
 19 45  1  0  0  0  0
 19 46  1  0  0  0  0
 20 47  1  0  0  0  0
 20 48  1  0  0  0  0
 21 49  1  0  0  0  0
 21 50  1  0  0  0  0
 22 51  1  0  0  0  0
 25 52  1  0  0  0  0
M  CHG  1  25   1
M  END
> <Chemgauss4>
-4.809505

> <ref_pdb>
x0749_0

> <CYS145-warhead min dist (A)>
5.193631

> <CYS145-warhead avg dist (A)>
6.631939

> <CYS145-warhead avg dist stderr (A)>
0.045229252

> <original SMILES>
c1ccc(cc1)CC[C@H](c2cccc(c2)C#N)[NH+]3CCN(CC3)C(=O)CCl

$$$$
MAK-UNK-af8-1
  -OEChem-04232002263D

 43 45  0     0  0  0  0  0  0999 V2000
    0.1289  -10.0143   25.6397 C   0  0  0  0  0  0  0  0  0  0  0  0
    1.3993   -9.7936   26.1715 C   0  0  0  0  0  0  0  0  0  0  0  0
   -0.2494   -9.3857   24.4533 C   0  0  0  0  0  0  0  0  0  0  0  0
    2.2915   -8.9443   25.5171 C   0  0  0  0  0  0  0  0  0  0  0  0
    0.6428   -8.5364   23.7988 C   0  0  0  0  0  0  0  0  0  0  0  0
    4.8383   -7.1349   22.6266 C   0  0  0  0  0  0  0  0  0  0  0  0
    3.3259   -5.3694   22.8548 C   0  0  0  0  0  0  0  0  0  0  0  0
    1.9132   -8.3156   24.3307 C   0  0  0  0  0  0  0  0  0  0  0  0
    4.5524   -5.8047   22.3960 C   0  0  0  0  0  0  0  0  0  0  0  0
    2.8343   -7.4393   23.6555 C   0  0  0  0  0  0  0  0  0  0  0  0
    9.1966   -5.1209   25.8236 C   0  0  0  0  0  0  0  0  0  0  0  0
    8.9476   -5.0065   23.3647 C   0  0  0  0  0  0  0  0  0  0  0  0
    7.4398   -3.6309   24.7458 C   0  0  0  0  0  0  0  0  0  0  0  0
    7.7672   -5.5267   22.5575 C   0  0  0  0  0  0  0  0  0  0  0  0
    6.2360   -4.1293   23.9576 C   0  0  0  0  0  0  0  0  0  0  0  0
    5.5125   -4.8914   21.6924 C   0  0  0  0  0  0  0  0  0  0  0  0
    8.7025   -4.6650   27.1732 C   0  0  0  0  0  0  0  0  0  0  0  0
    3.9993   -7.9839   23.2556 N   0  0  0  0  0  0  0  0  0  0  0  0
    2.4389   -6.1625   23.4908 N   0  0  0  0  0  0  0  0  0  0  0  0
    8.5309   -4.6106   24.7100 N   0  0  0  0  0  0  0  0  0  0  0  0
    6.6740   -4.4816   22.5536 N   0  3  0  0  0  0  0  0  0  0  0  0
   10.1440   -5.9087   25.7630 O   0  0  0  0  0  0  0  0  0  0  0  0
    7.4387   -5.7917   27.6540 Cl  0  0  0  0  0  0  0  0  0  0  0  0
   -0.5650  -10.6770   26.1485 H   0  0  0  0  0  0  0  0  0  0  0  0
    1.6946  -10.2843   27.0944 H   0  0  0  0  0  0  0  0  0  0  0  0
   -1.2379   -9.5582   24.0379 H   0  0  0  0  0  0  0  0  0  0  0  0
    3.2784   -8.7826   25.9443 H   0  0  0  0  0  0  0  0  0  0  0  0
    0.3341   -8.0538   22.8745 H   0  0  0  0  0  0  0  0  0  0  0  0
    5.7770   -7.5749   22.3048 H   0  0  0  0  0  0  0  0  0  0  0  0
    3.0064   -4.3406   22.7228 H   0  0  0  0  0  0  0  0  0  0  0  0
    9.7263   -5.7743   23.4096 H   0  0  0  0  0  0  0  0  0  0  0  0
    9.3884   -4.1248   22.8837 H   0  0  0  0  0  0  0  0  0  0  0  0
    7.8249   -2.6994   24.3135 H   0  0  0  0  0  0  0  0  0  0  0  0
    7.1292   -3.4044   25.7672 H   0  0  0  0  0  0  0  0  0  0  0  0
    8.0571   -5.6995   21.5160 H   0  0  0  0  0  0  0  0  0  0  0  0
    7.3517   -6.4471   22.9831 H   0  0  0  0  0  0  0  0  0  0  0  0
    5.7935   -5.0253   24.4071 H   0  0  0  0  0  0  0  0  0  0  0  0
    5.4770   -3.3446   23.8752 H   0  0  0  0  0  0  0  0  0  0  0  0
    5.9345   -5.3703   20.8023 H   0  0  0  0  0  0  0  0  0  0  0  0
    5.0175   -3.9684   21.3718 H   0  0  0  0  0  0  0  0  0  0  0  0
    8.2936   -3.6655   27.0786 H   0  0  0  0  0  0  0  0  0  0  0  0
    9.5239   -4.7033   27.8795 H   0  0  0  0  0  0  0  0  0  0  0  0
    7.0651   -3.6283   22.1309 H   0  0  0  0  0  0  0  0  0  0  0  0
  1  2  1  0  0  0  0
  1  3  2  0  0  0  0
  2  4  2  0  0  0  0
  3  5  1  0  0  0  0
  4  8  1  0  0  0  0
  5  8  2  0  0  0  0
  6  9  1  0  0  0  0
  6 18  2  0  0  0  0
  7  9  2  0  0  0  0
  7 19  1  0  0  0  0
  8 10  1  0  0  0  0
  9 16  1  0  0  0  0
 10 18  1  0  0  0  0
 10 19  2  0  0  0  0
 11 17  1  0  0  0  0
 11 20  1  0  0  0  0
 11 22  2  0  0  0  0
 12 14  1  0  0  0  0
 12 20  1  0  0  0  0
 13 15  1  0  0  0  0
 13 20  1  0  0  0  0
 14 21  1  0  0  0  0
 15 21  1  0  0  0  0
 16 21  1  0  0  0  0
 17 23  1  0  0  0  0
  1 24  1  0  0  0  0
  2 25  1  0  0  0  0
  3 26  1  0  0  0  0
  4 27  1  0  0  0  0
  5 28  1  0  0  0  0
  6 29  1  0  0  0  0
  7 30  1  0  0  0  0
 12 31  1  0  0  0  0
 12 32  1  0  0  0  0
 13 33  1  0  0  0  0
 13 34  1  0  0  0  0
 14 35  1  0  0  0  0
 14 36  1  0  0  0  0
 15 37  1  0  0  0  0
 15 38  1  0  0  0  0
 16 39  1  0  0  0  0
 16 40  1  0  0  0  0
 17 41  1  0  0  0  0
 17 42  1  0  0  0  0
 21 43  1  0  0  0  0
M  CHG  1  21   1
M  END
> <Chemgauss4>
-4.683243

> <ref_pdb>
x1311_0

> <CYS145-warhead min dist (A)>
6.0318065

> <CYS145-warhead avg dist (A)>
7.5277944

> <CYS145-warhead avg dist stderr (A)>
0.10057512

> <original SMILES>
c1ccc(cc1)c2ncc(cn2)C[NH+]3CCN(CC3)C(=O)CCl

$$$$
STU-CHA-814-1
  -OEChem-04232002263D

 53 55  0     1  0  0  0  0  0999 V2000
    6.3199   -3.7364   22.7364 C   0  0  0  0  0  0  0  0  0  0  0  0
    8.5919   -3.7034   24.3498 C   0  0  0  0  0  0  0  0  0  0  0  0
    7.4472   -3.0104   22.3258 C   0  0  0  0  0  0  0  0  0  0  0  0
    8.5866   -2.9801   23.1492 C   0  0  0  0  0  0  0  0  0  0  0  0
    6.3326   -4.4450   23.9374 C   0  0  0  0  0  0  0  0  0  0  0  0
    7.4684   -4.4300   24.7427 C   0  0  0  0  0  0  0  0  0  0  0  0
   12.8709    3.8406   23.7094 C   0  0  0  0  0  0  0  0  0  0  0  0
    7.3928   -2.2212   21.0418 C   0  0  0  0  0  0  0  0  0  0  0  0
    9.8224   -2.2325   22.7304 C   0  0  0  0  0  0  0  0  0  0  0  0
    9.7023    2.0735   23.5891 C   0  0  0  0  0  0  0  0  0  0  0  0
   11.5325    0.7673   22.4515 C   0  0  0  0  0  0  0  0  0  0  0  0
   10.7506    2.6895   24.5142 C   0  0  0  0  0  0  0  0  0  0  0  0
   12.5425    1.4080   23.4006 C   0  0  0  0  0  0  0  0  0  0  0  0
    8.7649   -1.8129   20.5158 C   0  0  0  0  0  0  0  0  0  0  0  0
   10.1398    0.6863   23.0947 C   0  0  0  0  0  0  0  0  0  0  0  0
   12.3271    5.1380   24.2523 C   0  0  0  0  0  0  0  0  0  0  0  0
    9.1204    0.1128   22.1134 C   0  0  0  0  0  0  0  0  0  0  0  0
    5.1116   -5.2106   24.3299 C   0  0  0  0  0  0  0  0  0  0  0  0
   12.0674    2.7118   23.8665 N   0  0  0  0  0  0  0  0  0  0  0  0
    6.9407   -4.1255   27.3376 N   0  0  0  0  0  0  0  0  0  0  0  0
    9.6044   -1.2243   21.6211 N   0  3  1  0  0  0  0  0  0  0  0  0
   13.9756    3.8330   23.1603 O   0  0  0  0  0  0  0  0  0  0  0  0
    6.5551   -6.3970   26.1814 O   0  0  0  0  0  0  0  0  0  0  0  0
    8.9119   -5.5961   26.5705 O   0  0  0  0  0  0  0  0  0  0  0  0
    4.1301   -5.0594   23.4033 F   0  0  0  0  0  0  0  0  0  0  0  0
    4.6102   -4.7470   25.5038 F   0  0  0  0  0  0  0  0  0  0  0  0
    7.5207   -5.3112   26.2539 S   0  0  0  0  0  0  0  0  0  0  0  0
   11.4429    5.9034   22.9369 Cl  0  0  0  0  0  0  0  0  0  0  0  0
    5.4287   -3.7461   22.1119 H   0  0  0  0  0  0  0  0  0  0  0  0
    9.4810   -3.6962   24.9766 H   0  0  0  0  0  0  0  0  0  0  0  0
    6.8743   -2.8282   20.2869 H   0  0  0  0  0  0  0  0  0  0  0  0
    6.7963   -1.3120   21.1940 H   0  0  0  0  0  0  0  0  0  0  0  0
   10.2243   -1.6810   23.5921 H   0  0  0  0  0  0  0  0  0  0  0  0
   10.5845   -2.9308   22.3585 H   0  0  0  0  0  0  0  0  0  0  0  0
    8.7493    1.9927   24.1253 H   0  0  0  0  0  0  0  0  0  0  0  0
    9.5329    2.7431   22.7360 H   0  0  0  0  0  0  0  0  0  0  0  0
   11.4865    1.3503   21.5227 H   0  0  0  0  0  0  0  0  0  0  0  0
   11.8766   -0.2380   22.1804 H   0  0  0  0  0  0  0  0  0  0  0  0
   10.4250    3.6865   24.8159 H   0  0  0  0  0  0  0  0  0  0  0  0
   10.8504    2.0921   25.4283 H   0  0  0  0  0  0  0  0  0  0  0  0
   12.6909    0.7781   24.2857 H   0  0  0  0  0  0  0  0  0  0  0  0
   13.5112    1.5011   22.8999 H   0  0  0  0  0  0  0  0  0  0  0  0
    9.3011   -2.6901   20.1159 H   0  0  0  0  0  0  0  0  0  0  0  0
    8.6941   -1.0544   19.7160 H   0  0  0  0  0  0  0  0  0  0  0  0
   10.1919    0.0089   23.9562 H   0  0  0  0  0  0  0  0  0  0  0  0
   13.1560    5.7659   24.5584 H   0  0  0  0  0  0  0  0  0  0  0  0
   11.6558    4.9207   25.0752 H   0  0  0  0  0  0  0  0  0  0  0  0
    8.9990    0.7535   21.2357 H   0  0  0  0  0  0  0  0  0  0  0  0
    8.1497   -0.0522   22.5890 H   0  0  0  0  0  0  0  0  0  0  0  0
    5.3072   -6.2776   24.4439 H   0  0  0  0  0  0  0  0  0  0  0  0
    5.9993   -4.2508   27.7292 H   0  0  0  0  0  0  0  0  0  0  0  0
    7.6101   -3.7035   27.9927 H   0  0  0  0  0  0  0  0  0  0  0  0
   10.5523   -1.0453   21.2020 H   0  0  0  0  0  0  0  0  0  0  0  0
  1  3  2  0  0  0  0
  1  5  1  0  0  0  0
  2  4  2  0  0  0  0
  2  6  1  0  0  0  0
  3  4  1  0  0  0  0
  3  8  1  0  0  0  0
  4  9  1  0  0  0  0
  5  6  2  0  0  0  0
  5 18  1  0  0  0  0
  6 27  1  0  0  0  0
  7 16  1  0  0  0  0
  7 19  1  0  0  0  0
  7 22  2  0  0  0  0
  8 14  1  0  0  0  0
  9 21  1  0  0  0  0
 10 12  1  0  0  0  0
 10 15  1  0  0  0  0
 11 13  1  0  0  0  0
 11 15  1  0  0  0  0
 12 19  1  0  0  0  0
 13 19  1  0  0  0  0
 14 21  1  0  0  0  0
 15 17  1  0  0  0  0
 16 28  1  0  0  0  0
 17 21  1  0  0  0  0
 18 25  1  0  0  0  0
 18 26  1  0  0  0  0
 20 27  1  0  0  0  0
 23 27  2  0  0  0  0
 24 27  2  0  0  0  0
  1 29  1  0  0  0  0
  2 30  1  0  0  0  0
  8 31  1  0  0  0  0
  8 32  1  0  0  0  0
  9 33  1  0  0  0  0
  9 34  1  0  0  0  0
 10 35  1  0  0  0  0
 10 36  1  0  0  0  0
 11 37  1  0  0  0  0
 11 38  1  0  0  0  0
 12 39  1  0  0  0  0
 12 40  1  0  0  0  0
 13 41  1  0  0  0  0
 13 42  1  0  0  0  0
 14 43  1  0  0  0  0
 14 44  1  0  0  0  0
 15 45  1  0  0  0  0
 16 46  1  0  0  0  0
 16 47  1  0  0  0  0
 17 48  1  0  0  0  0
 17 49  1  0  0  0  0
 18 50  1  0  0  0  0
 20 51  1  0  0  0  0
 20 52  1  0  0  0  0
 21 53  1  0  0  0  0
M  CHG  1  21   1
M  END
> <Chemgauss4>
-4.169976

> <ref_pdb>
x1392_0

> <CYS145-warhead min dist (A)>
6.678912

> <CYS145-warhead avg dist (A)>
7.492349

> <CYS145-warhead avg dist stderr (A)>
0.025856236

> <original SMILES>
c1c2c(cc(c1C(F)F)S(=O)(=O)N)C[N@@H+](CC2)CC3CCN(CC3)C(=O)CCl

$$$$
BEN-VAN-77c-4
  -OEChem-04232002263D

 52 54  0     1  0  0  0  0  0999 V2000
    9.9414    3.9191   23.7644 C   0  0  0  0  0  0  0  0  0  0  0  0
    9.5546   -2.8312   23.2945 C   0  0  0  0  0  0  0  0  0  0  0  0
   10.9681    3.0005   23.5761 C   0  0  0  0  0  0  0  0  0  0  0  0
   10.8139   -3.3690   23.5605 C   0  0  0  0  0  0  0  0  0  0  0  0
   10.5855   -1.0263   22.0630 C   0  0  0  0  0  0  0  0  0  0  0  0
    8.8996    3.5637   24.6059 C   0  0  0  0  0  0  0  0  0  0  0  0
    9.4404   -1.6599   22.5457 C   0  0  0  0  0  0  0  0  0  0  0  0
   11.8448   -1.5640   22.3290 C   0  0  0  0  0  0  0  0  0  0  0  0
   10.9222    1.7721   24.2257 C   0  0  0  0  0  0  0  0  0  0  0  0
   11.9589   -2.7354   23.0778 C   0  0  0  0  0  0  0  0  0  0  0  0
    9.8366    1.5129   25.0467 C   0  0  0  0  0  0  0  0  0  0  0  0
    4.0105   -0.1356   17.9109 C   0  0  0  0  0  0  0  0  0  0  0  0
    4.4931   -0.0505   19.1524 C   0  0  0  0  0  0  0  0  0  0  0  0
    5.6984   -0.8280   19.5040 C   0  0  0  0  0  0  0  0  0  0  0  0
    6.3473    0.9522   21.2120 C   0  0  0  0  0  0  0  0  0  0  0  0
    7.8176   -0.9754   20.7513 C   0  0  0  0  0  0  0  0  0  0  0  0
    6.6871    0.7846   22.6883 C   0  0  0  0  0  0  0  0  0  0  0  0
    8.0744   -1.0769   22.2570 C   0  0  2  0  0  0  0  0  0  0  0  0
   14.1605    1.8562   23.9585 C   0  0  0  0  0  0  0  0  0  0  0  0
   13.0676   -0.8839   21.8126 C   0  0  0  0  0  0  0  0  0  0  0  0
   13.1124    1.0512   23.1976 C   0  0  2  0  0  0  0  0  0  0  0  0
    8.8204    2.3800   25.2542 N   0  0  0  0  0  0  0  0  0  0  0  0
    6.5423   -0.3069   20.4816 N   0  0  0  0  0  0  0  0  0  0  0  0
   11.9439    0.8558   24.0391 N   0  0  0  0  0  0  0  0  0  0  0  0
    5.8880   -1.8889   18.9069 O   0  0  0  0  0  0  0  0  0  0  0  0
    7.9883    0.2233   22.8536 O   0  0  0  0  0  0  0  0  0  0  0  0
   13.7209   -0.2109   22.8819 O   0  0  0  0  0  0  0  0  0  0  0  0
   13.1647   -3.2588   23.3398 F   0  0  0  0  0  0  0  0  0  0  0  0
    9.6616    0.0317   25.9062 Cl  0  0  0  0  0  0  0  0  0  0  0  0
    9.9564    4.8829   23.2685 H   0  0  0  0  0  0  0  0  0  0  0  0
    8.6680   -3.3323   23.6738 H   0  0  0  0  0  0  0  0  0  0  0  0
   11.7976    3.2532   22.9210 H   0  0  0  0  0  0  0  0  0  0  0  0
   10.9034   -4.2819   24.1418 H   0  0  0  0  0  0  0  0  0  0  0  0
   10.4962   -0.1127   21.4799 H   0  0  0  0  0  0  0  0  0  0  0  0
    8.0752    4.2455   24.7875 H   0  0  0  0  0  0  0  0  0  0  0  0
    3.1290    0.4111   17.5931 H   0  0  0  0  0  0  0  0  0  0  0  0
    4.5016   -0.7674   17.1783 H   0  0  0  0  0  0  0  0  0  0  0  0
    4.0316    0.5687   19.9104 H   0  0  0  0  0  0  0  0  0  0  0  0
    5.3251    1.3232   21.1255 H   0  0  0  0  0  0  0  0  0  0  0  0
    7.0213    1.6826   20.7500 H   0  0  0  0  0  0  0  0  0  0  0  0
    8.5882   -0.3601   20.2685 H   0  0  0  0  0  0  0  0  0  0  0  0
    7.8517   -1.9654   20.2833 H   0  0  0  0  0  0  0  0  0  0  0  0
    6.6812    1.7612   23.1828 H   0  0  0  0  0  0  0  0  0  0  0  0
    5.9488    0.1530   23.1967 H   0  0  0  0  0  0  0  0  0  0  0  0
    7.3254   -1.7418   22.7343 H   0  0  0  0  0  0  0  0  0  0  0  0
   14.4215    1.3661   24.9038 H   0  0  0  0  0  0  0  0  0  0  0  0
   15.0783    1.9848   23.3768 H   0  0  0  0  0  0  0  0  0  0  0  0
   13.7694    2.8470   24.2141 H   0  0  0  0  0  0  0  0  0  0  0  0
   13.7697   -1.6035   21.3698 H   0  0  0  0  0  0  0  0  0  0  0  0
   12.8150   -0.1498   21.0354 H   0  0  0  0  0  0  0  0  0  0  0  0
   12.8668    1.5586   22.2575 H   0  0  0  0  0  0  0  0  0  0  0  0
   11.8344   -0.0593   24.4630 H   0  0  0  0  0  0  0  0  0  0  0  0
  1  3  2  0  0  0  0
  1  6  1  0  0  0  0
  2  4  2  0  0  0  0
  2  7  1  0  0  0  0
  3  9  1  0  0  0  0
  4 10  1  0  0  0  0
  5  7  2  0  0  0  0
  5  8  1  0  0  0  0
  6 22  2  0  0  0  0
  7 18  1  0  0  0  0
  8 10  2  0  0  0  0
  8 20  1  0  0  0  0
  9 11  2  0  0  0  0
  9 24  1  0  0  0  0
 10 28  1  0  0  0  0
 11 22  1  0  0  0  0
 11 29  1  0  0  0  0
 12 13  2  0  0  0  0
 13 14  1  0  0  0  0
 14 23  1  0  0  0  0
 14 25  2  0  0  0  0
 15 17  1  0  0  0  0
 15 23  1  0  0  0  0
 16 18  1  0  0  0  0
 16 23  1  0  0  0  0
 17 26  1  0  0  0  0
 18 26  1  0  0  0  0
 19 21  1  0  0  0  0
 20 27  1  0  0  0  0
 21 24  1  0  0  0  0
 21 27  1  0  0  0  0
  1 30  1  0  0  0  0
  2 31  1  0  0  0  0
  3 32  1  0  0  0  0
  4 33  1  0  0  0  0
  5 34  1  0  0  0  0
  6 35  1  0  0  0  0
 12 36  1  0  0  0  0
 12 37  1  0  0  0  0
 13 38  1  0  0  0  0
 15 39  1  0  0  0  0
 15 40  1  0  0  0  0
 16 41  1  0  0  0  0
 16 42  1  0  0  0  0
 17 43  1  0  0  0  0
 17 44  1  0  0  0  0
 18 45  1  0  0  0  0
 19 46  1  0  0  0  0
 19 47  1  0  0  0  0
 19 48  1  0  0  0  0
 20 49  1  0  0  0  0
 20 50  1  0  0  0  0
 21 51  1  0  0  0  0
 24 52  1  0  0  0  0
M  END
> <Chemgauss4>
-4.166118

> <ref_pdb>
x0831_0

> <CYS145-warhead min dist (A)>
5.5370045

> <CYS145-warhead avg dist (A)>
7.174078

> <CYS145-warhead avg dist stderr (A)>
0.02927433

> <original SMILES>
C[C@H](Nc1cccnc1Cl)OCc2cc(ccc2F)[C@@H]3CN(CCO3)C(=O)C=C

$$$$
STU-CHA-09b-1
  -OEChem-04232002263D

 53 55  0     1  0  0  0  0  0999 V2000
    6.0521   -3.1027   23.5291 C   0  0  0  0  0  0  0  0  0  0  0  0
    8.2535   -4.2690   24.7779 C   0  0  0  0  0  0  0  0  0  0  0  0
    7.3440   -2.7937   23.0798 C   0  0  0  0  0  0  0  0  0  0  0  0
    8.4545   -3.3691   23.7222 C   0  0  0  0  0  0  0  0  0  0  0  0
    5.8637   -3.9922   24.5865 C   0  0  0  0  0  0  0  0  0  0  0  0
    6.9636   -4.5764   25.2093 C   0  0  0  0  0  0  0  0  0  0  0  0
   13.3826    3.3668   23.1494 C   0  0  0  0  0  0  0  0  0  0  0  0
    7.5208   -1.7986   21.9605 C   0  0  0  0  0  0  0  0  0  0  0  0
    9.8537   -3.0803   23.2526 C   0  0  0  0  0  0  0  0  0  0  0  0
   11.6571    0.5995   24.7681 C   0  0  0  0  0  0  0  0  0  0  0  0
   12.5157   -0.0555   22.4910 C   0  0  0  0  0  0  0  0  0  0  0  0
   11.5298    2.0423   24.2797 C   0  0  0  0  0  0  0  0  0  0  0  0
   12.3700    1.3985   22.0464 C   0  0  0  0  0  0  0  0  0  0  0  0
    8.9004   -1.8457   21.3119 C   0  0  0  0  0  0  0  0  0  0  0  0
   11.5508   -0.4263   23.6283 C   0  0  0  0  0  0  0  0  0  0  0  0
    4.4690   -4.2975   25.0254 C   0  0  0  0  0  0  0  0  0  0  0  0
   12.9841    4.6289   23.8720 C   0  0  0  0  0  0  0  0  0  0  0  0
   10.1118   -0.5720   23.1277 C   0  0  0  0  0  0  0  0  0  0  0  0
   12.4727    2.3102   23.1872 N   0  0  0  0  0  0  0  0  0  0  0  0
    8.3925   -6.0764   26.8864 N   0  0  0  0  0  0  0  0  0  0  0  0
    9.9815   -1.8612   22.3627 N   0  3  1  0  0  0  0  0  0  0  0  0
   14.4716    3.3225   22.5712 O   0  0  0  0  0  0  0  0  0  0  0  0
    6.1935   -4.9775   27.6627 O   0  0  0  0  0  0  0  0  0  0  0  0
    6.1046   -6.8944   26.0300 O   0  0  0  0  0  0  0  0  0  0  0  0
    6.7639   -5.7001   26.5361 S   0  0  0  0  0  0  0  0  0  0  0  0
   11.5131    5.2089   23.0989 Cl  0  0  0  0  0  0  0  0  0  0  0  0
    5.1904   -2.6441   23.0480 H   0  0  0  0  0  0  0  0  0  0  0  0
    9.1124   -4.7296   25.2612 H   0  0  0  0  0  0  0  0  0  0  0  0
    6.7502   -1.9938   21.2020 H   0  0  0  0  0  0  0  0  0  0  0  0
    7.3524   -0.7827   22.3415 H   0  0  0  0  0  0  0  0  0  0  0  0
   10.5032   -2.9126   24.1234 H   0  0  0  0  0  0  0  0  0  0  0  0
   10.2425   -3.9242   22.6666 H   0  0  0  0  0  0  0  0  0  0  0  0
   12.6228    0.4781   25.2864 H   0  0  0  0  0  0  0  0  0  0  0  0
   10.8779    0.4041   25.5254 H   0  0  0  0  0  0  0  0  0  0  0  0
   12.3483   -0.7178   21.6237 H   0  0  0  0  0  0  0  0  0  0  0  0
   13.5554   -0.2326   22.8133 H   0  0  0  0  0  0  0  0  0  0  0  0
   10.4960    2.2338   23.9855 H   0  0  0  0  0  0  0  0  0  0  0  0
   11.7683    2.7413   25.0909 H   0  0  0  0  0  0  0  0  0  0  0  0
   13.1662    1.6658   21.3408 H   0  0  0  0  0  0  0  0  0  0  0  0
   11.4159    1.5305   21.5255 H   0  0  0  0  0  0  0  0  0  0  0  0
    9.0091   -2.7591   20.7030 H   0  0  0  0  0  0  0  0  0  0  0  0
    9.0841   -0.9712   20.6627 H   0  0  0  0  0  0  0  0  0  0  0  0
   11.8603   -1.4130   24.0288 H   0  0  0  0  0  0  0  0  0  0  0  0
    4.0765   -5.1581   24.4715 H   0  0  0  0  0  0  0  0  0  0  0  0
    4.4320   -4.5253   26.0977 H   0  0  0  0  0  0  0  0  0  0  0  0
    3.8045   -3.4409   24.8577 H   0  0  0  0  0  0  0  0  0  0  0  0
   13.7756    5.3615   23.7627 H   0  0  0  0  0  0  0  0  0  0  0  0
   12.7897    4.3921   24.9118 H   0  0  0  0  0  0  0  0  0  0  0  0
    9.8374    0.2363   22.4443 H   0  0  0  0  0  0  0  0  0  0  0  0
    9.3983   -0.6160   23.9552 H   0  0  0  0  0  0  0  0  0  0  0  0
    8.7964   -5.7042   27.7546 H   0  0  0  0  0  0  0  0  0  0  0  0
    8.7346   -7.0125   26.6374 H   0  0  0  0  0  0  0  0  0  0  0  0
   10.8892   -1.9752   21.8438 H   0  0  0  0  0  0  0  0  0  0  0  0
  1  3  2  0  0  0  0
  1  5  1  0  0  0  0
  2  4  2  0  0  0  0
  2  6  1  0  0  0  0
  3  4  1  0  0  0  0
  3  8  1  0  0  0  0
  4  9  1  0  0  0  0
  5  6  2  0  0  0  0
  5 16  1  0  0  0  0
  6 25  1  0  0  0  0
  7 17  1  0  0  0  0
  7 19  1  0  0  0  0
  7 22  2  0  0  0  0
  8 14  1  0  0  0  0
  9 21  1  0  0  0  0
 10 12  1  0  0  0  0
 10 15  1  0  0  0  0
 11 13  1  0  0  0  0
 11 15  1  0  0  0  0
 12 19  1  0  0  0  0
 13 19  1  0  0  0  0
 14 21  1  0  0  0  0
 15 18  1  0  0  0  0
 17 26  1  0  0  0  0
 18 21  1  0  0  0  0
 20 25  1  0  0  0  0
 23 25  2  0  0  0  0
 24 25  2  0  0  0  0
  1 27  1  0  0  0  0
  2 28  1  0  0  0  0
  8 29  1  0  0  0  0
  8 30  1  0  0  0  0
  9 31  1  0  0  0  0
  9 32  1  0  0  0  0
 10 33  1  0  0  0  0
 10 34  1  0  0  0  0
 11 35  1  0  0  0  0
 11 36  1  0  0  0  0
 12 37  1  0  0  0  0
 12 38  1  0  0  0  0
 13 39  1  0  0  0  0
 13 40  1  0  0  0  0
 14 41  1  0  0  0  0
 14 42  1  0  0  0  0
 15 43  1  0  0  0  0
 16 44  1  0  0  0  0
 16 45  1  0  0  0  0
 16 46  1  0  0  0  0
 17 47  1  0  0  0  0
 17 48  1  0  0  0  0
 18 49  1  0  0  0  0
 18 50  1  0  0  0  0
 20 51  1  0  0  0  0
 20 52  1  0  0  0  0
 21 53  1  0  0  0  0
M  CHG  1  21   1
M  END
> <Chemgauss4>
-4.153631

> <ref_pdb>
x1392_0

> <CYS145-warhead min dist (A)>
8.558261

> <CYS145-warhead avg dist (A)>
9.616935

> <CYS145-warhead avg dist stderr (A)>
0.04521719

> <original SMILES>
Cc1cc2c(cc1S(=O)(=O)N)C[N@@H+](CC2)CC3CCN(CC3)C(=O)CCl

$$$$
NIM-UNI-594-3
  -OEChem-04232002263D

 46 48  0     0  0  0  0  0  0999 V2000
    1.1453   -6.1701   22.3635 C   0  0  0  0  0  0  0  0  0  0  0  0
    2.3823   -5.8425   21.8085 C   0  0  0  0  0  0  0  0  0  0  0  0
    1.0730   -7.0812   23.4173 C   0  0  0  0  0  0  0  0  0  0  0  0
    3.4747   -7.3370   23.3610 C   0  0  0  0  0  0  0  0  0  0  0  0
    5.9958   -6.5804   22.1271 C   0  0  0  0  0  0  0  0  0  0  0  0
    3.5470   -6.4259   22.3072 C   0  0  0  0  0  0  0  0  0  0  0  0
    2.2377   -7.6646   23.9160 C   0  0  0  0  0  0  0  0  0  0  0  0
    6.8672   -5.9499   21.2749 C   0  0  0  0  0  0  0  0  0  0  0  0
    8.9982   -3.0581   25.7999 C   0  0  0  0  0  0  0  0  0  0  0  0
    9.5552   -5.2139   24.7213 C   0  0  0  0  0  0  0  0  0  0  0  0
    9.6393   -3.1738   23.3416 C   0  0  0  0  0  0  0  0  0  0  0  0
    8.7308   -5.9242   23.6576 C   0  0  0  0  0  0  0  0  0  0  0  0
    8.8173   -3.8544   22.2554 C   0  0  0  0  0  0  0  0  0  0  0  0
    8.3607   -6.0672   21.1922 C   0  0  0  0  0  0  0  0  0  0  0  0
    8.8172   -1.5692   25.6449 C   0  0  0  0  0  0  0  0  0  0  0  0
    6.1718   -5.1283   20.4318 N   0  0  0  0  0  0  0  0  0  0  0  0
    4.8824   -5.2280   20.7361 N   0  0  0  0  0  0  0  0  0  0  0  0
    4.7790   -6.0990   21.7529 N   0  0  0  0  0  0  0  0  0  0  0  0
    9.3630   -3.7652   24.6551 N   0  0  0  0  0  0  0  0  0  0  0  0
    1.9705  -10.2752   24.3832 N   0  0  0  0  0  0  0  0  0  0  0  0
    9.0704   -5.3447   22.3025 N   0  3  0  0  0  0  0  0  0  0  0  0
    8.8179   -3.5756   26.9052 O   0  0  0  0  0  0  0  0  0  0  0  0
    3.4301   -8.8125   25.9244 O   0  0  0  0  0  0  0  0  0  0  0  0
    0.9252   -8.5492   25.9847 O   0  0  0  0  0  0  0  0  0  0  0  0
    2.1474   -8.8047   25.2351 S   0  0  0  0  0  0  0  0  0  0  0  0
    8.3295   -0.9543   27.2203 Cl  0  0  0  0  0  0  0  0  0  0  0  0
    0.2386   -5.7153   21.9753 H   0  0  0  0  0  0  0  0  0  0  0  0
    2.4238   -5.1307   20.9874 H   0  0  0  0  0  0  0  0  0  0  0  0
    0.1037   -7.3290   23.8419 H   0  0  0  0  0  0  0  0  0  0  0  0
    4.3816   -7.7928   23.7526 H   0  0  0  0  0  0  0  0  0  0  0  0
    6.1340   -7.2941   22.9281 H   0  0  0  0  0  0  0  0  0  0  0  0
    9.2837   -5.5969   25.7101 H   0  0  0  0  0  0  0  0  0  0  0  0
   10.6248   -5.4110   24.5794 H   0  0  0  0  0  0  0  0  0  0  0  0
   10.7118   -3.2980   23.1482 H   0  0  0  0  0  0  0  0  0  0  0  0
    9.4342   -2.1020   23.3261 H   0  0  0  0  0  0  0  0  0  0  0  0
    8.9756   -6.9908   23.6270 H   0  0  0  0  0  0  0  0  0  0  0  0
    7.6544   -5.7964   23.8184 H   0  0  0  0  0  0  0  0  0  0  0  0
    7.7423   -3.6910   22.3913 H   0  0  0  0  0  0  0  0  0  0  0  0
    9.1215   -3.5031   21.2641 H   0  0  0  0  0  0  0  0  0  0  0  0
    8.6791   -7.1139   21.2441 H   0  0  0  0  0  0  0  0  0  0  0  0
    8.7388   -5.6495   20.2529 H   0  0  0  0  0  0  0  0  0  0  0  0
    8.0371   -1.3840   24.9153 H   0  0  0  0  0  0  0  0  0  0  0  0
    9.7628   -1.1291   25.3499 H   0  0  0  0  0  0  0  0  0  0  0  0
    2.7671  -10.9239   24.3709 H   0  0  0  0  0  0  0  0  0  0  0  0
    1.0557  -10.7417   24.4114 H   0  0  0  0  0  0  0  0  0  0  0  0
   10.0779   -5.4899   22.1491 H   0  0  0  0  0  0  0  0  0  0  0  0
  1  2  1  0  0  0  0
  1  3  2  0  0  0  0
  2  6  2  0  0  0  0
  3  7  1  0  0  0  0
  4  6  1  0  0  0  0
  4  7  2  0  0  0  0
  5  8  2  0  0  0  0
  5 18  1  0  0  0  0
  6 18  1  0  0  0  0
  7 25  1  0  0  0  0
  8 14  1  0  0  0  0
  8 16  1  0  0  0  0
  9 15  1  0  0  0  0
  9 19  1  0  0  0  0
  9 22  2  0  0  0  0
 10 12  1  0  0  0  0
 10 19  1  0  0  0  0
 11 13  1  0  0  0  0
 11 19  1  0  0  0  0
 12 21  1  0  0  0  0
 13 21  1  0  0  0  0
 14 21  1  0  0  0  0
 15 26  1  0  0  0  0
 16 17  2  0  0  0  0
 17 18  1  0  0  0  0
 20 25  1  0  0  0  0
 23 25  2  0  0  0  0
 24 25  2  0  0  0  0
  1 27  1  0  0  0  0
  2 28  1  0  0  0  0
  3 29  1  0  0  0  0
  4 30  1  0  0  0  0
  5 31  1  0  0  0  0
 10 32  1  0  0  0  0
 10 33  1  0  0  0  0
 11 34  1  0  0  0  0
 11 35  1  0  0  0  0
 12 36  1  0  0  0  0
 12 37  1  0  0  0  0
 13 38  1  0  0  0  0
 13 39  1  0  0  0  0
 14 40  1  0  0  0  0
 14 41  1  0  0  0  0
 15 42  1  0  0  0  0
 15 43  1  0  0  0  0
 20 44  1  0  0  0  0
 20 45  1  0  0  0  0
 21 46  1  0  0  0  0
M  CHG  1  21   1
M  END
> <Chemgauss4>
-3.852791

> <ref_pdb>
x1311_0

> <CYS145-warhead min dist (A)>
4.4791775

> <CYS145-warhead avg dist (A)>
6.721539

> <CYS145-warhead avg dist stderr (A)>
0.10303687

> <original SMILES>
c1cc(cc(c1)S(=O)(=O)N)n2cc(nn2)C[NH+]3CCN(CC3)C(=O)CCl

$$$$
MAK-UNK-176-5
  -OEChem-04232002263D

 65 68  0     0  0  0  0  0  0999 V2000
   11.4409    0.1833   25.1300 C   0  0  0  0  0  0  0  0  0  0  0  0
   12.2950    0.3494   22.8762 C   0  0  0  0  0  0  0  0  0  0  0  0
   10.9640   -1.0983   24.8549 C   0  0  0  0  0  0  0  0  0  0  0  0
   11.8182   -0.9322   22.6010 C   0  0  0  0  0  0  0  0  0  0  0  0
    5.0420    1.5991   19.6005 C   0  0  0  0  0  0  0  0  0  0  0  0
    5.9458    0.8051   18.8887 C   0  0  0  0  0  0  0  0  0  0  0  0
    7.7543    1.4169   20.3894 C   0  0  0  0  0  0  0  0  0  0  0  0
    5.7557    3.6016   22.5326 C   0  0  0  0  0  0  0  0  0  0  0  0
    6.8617    2.2239   21.1225 C   0  0  0  0  0  0  0  0  0  0  0  0
   12.1064    0.9072   24.1407 C   0  0  0  0  0  0  0  0  0  0  0  0
   11.1527   -1.6561   23.5904 C   0  0  0  0  0  0  0  0  0  0  0  0
    6.9901    3.0523   22.2724 C   0  0  0  0  0  0  0  0  0  0  0  0
    5.5288    2.2962   20.7120 C   0  0  0  0  0  0  0  0  0  0  0  0
    7.2815    0.7139   19.2753 C   0  0  0  0  0  0  0  0  0  0  0  0
    5.3701   -4.0644   21.9360 C   0  0  0  0  0  0  0  0  0  0  0  0
   11.1653    3.9563   23.3325 C   0  0  0  0  0  0  0  0  0  0  0  0
    7.1839   -4.6510   23.5131 C   0  0  0  0  0  0  0  0  0  0  0  0
    6.9136   -2.2822   22.8894 C   0  0  0  0  0  0  0  0  0  0  0  0
    8.6773   -4.5763   23.2305 C   0  0  0  0  0  0  0  0  0  0  0  0
    8.4043   -2.1712   22.5990 C   0  0  0  0  0  0  0  0  0  0  0  0
   12.6165    2.2775   24.4340 C   0  0  0  0  0  0  0  0  0  0  0  0
   10.6411   -3.0353   23.2958 C   0  0  0  0  0  0  0  0  0  0  0  0
    8.2405    3.2902   23.0666 C   0  0  0  0  0  0  0  0  0  0  0  0
    4.6695   -2.9851   21.1499 C   0  0  0  0  0  0  0  0  0  0  0  0
   10.0457    4.9200   23.6355 C   0  0  0  0  0  0  0  0  0  0  0  0
    4.8809    3.1394   21.5863 N   0  0  0  0  0  0  0  0  0  0  0  0
    6.4492   -3.6635   22.7223 N   0  0  0  0  0  0  0  0  0  0  0  0
   11.5623    3.2594   24.4656 N   0  0  0  0  0  0  0  0  0  0  0  0
    9.1530   -3.1599   23.4647 N   0  3  0  0  0  0  0  0  0  0  0  0
    8.8430    4.6289   22.8190 N   0  3  0  0  0  0  0  0  0  0  0  0
    4.9704   -5.2285   21.8505 O   0  0  0  0  0  0  0  0  0  0  0  0
   11.6518    3.8185   22.2133 O   0  0  0  0  0  0  0  0  0  0  0  0
    8.1237   -0.0566   18.5735 F   0  0  0  0  0  0  0  0  0  0  0  0
    3.3908   -3.7771   20.2359 Cl  0  0  0  0  0  0  0  0  0  0  0  0
   11.2888    0.6102   26.1179 H   0  0  0  0  0  0  0  0  0  0  0  0
   12.8135    0.9061   22.0999 H   0  0  0  0  0  0  0  0  0  0  0  0
   10.4481   -1.6556   25.6322 H   0  0  0  0  0  0  0  0  0  0  0  0
   11.9693   -1.3592   21.6131 H   0  0  0  0  0  0  0  0  0  0  0  0
    4.0026    1.6697   19.2984 H   0  0  0  0  0  0  0  0  0  0  0  0
    5.6005    0.2515   18.0196 H   0  0  0  0  0  0  0  0  0  0  0  0
    8.7984    1.3343   20.6778 H   0  0  0  0  0  0  0  0  0  0  0  0
    5.4201    4.2796   23.3050 H   0  0  0  0  0  0  0  0  0  0  0  0
    6.8225   -5.6627   23.3038 H   0  0  0  0  0  0  0  0  0  0  0  0
    6.9782   -4.4451   24.5706 H   0  0  0  0  0  0  0  0  0  0  0  0
    6.6997   -1.9902   23.9248 H   0  0  0  0  0  0  0  0  0  0  0  0
    6.3713   -1.5893   22.2438 H   0  0  0  0  0  0  0  0  0  0  0  0
    9.2332   -5.2247   23.9153 H   0  0  0  0  0  0  0  0  0  0  0  0
    8.9135   -4.8440   22.1944 H   0  0  0  0  0  0  0  0  0  0  0  0
    8.6363   -2.3970   21.5522 H   0  0  0  0  0  0  0  0  0  0  0  0
    8.7732   -1.1719   22.8516 H   0  0  0  0  0  0  0  0  0  0  0  0
   13.1271    2.3103   25.4067 H   0  0  0  0  0  0  0  0  0  0  0  0
   13.3468    2.6054   23.6815 H   0  0  0  0  0  0  0  0  0  0  0  0
   10.8663   -3.3294   22.2650 H   0  0  0  0  0  0  0  0  0  0  0  0
   11.0963   -3.7766   23.9613 H   0  0  0  0  0  0  0  0  0  0  0  0
    8.0441    3.2278   24.1424 H   0  0  0  0  0  0  0  0  0  0  0  0
    9.0099    2.5493   22.8244 H   0  0  0  0  0  0  0  0  0  0  0  0
    5.3808   -2.5254   20.4731 H   0  0  0  0  0  0  0  0  0  0  0  0
    4.2433   -2.2673   21.8412 H   0  0  0  0  0  0  0  0  0  0  0  0
   10.3492    5.9445   23.4029 H   0  0  0  0  0  0  0  0  0  0  0  0
    9.7479    4.8398   24.6847 H   0  0  0  0  0  0  0  0  0  0  0  0
    3.9012    3.3826   21.5358 H   0  0  0  0  0  0  0  0  0  0  0  0
   11.1148    3.4593   25.3569 H   0  0  0  0  0  0  0  0  0  0  0  0
    8.9490   -2.9247   24.4459 H   0  0  0  0  0  0  0  0  0  0  0  0
    9.0816    4.7080   21.8195 H   0  0  0  0  0  0  0  0  0  0  0  0
    8.1298    5.3530   22.9912 H   0  0  0  0  0  0  0  0  0  0  0  0
  1  3  2  0  0  0  0
  1 10  1  0  0  0  0
  2  4  1  0  0  0  0
  2 10  2  0  0  0  0
  3 11  1  0  0  0  0
  4 11  2  0  0  0  0
  5  6  2  0  0  0  0
  5 13  1  0  0  0  0
  6 14  1  0  0  0  0
  7  9  1  0  0  0  0
  7 14  2  0  0  0  0
  8 12  2  0  0  0  0
  8 26  1  0  0  0  0
  9 12  1  0  0  0  0
  9 13  2  0  0  0  0
 10 21  1  0  0  0  0
 11 22  1  0  0  0  0
 12 23  1  0  0  0  0
 13 26  1  0  0  0  0
 14 33  1  0  0  0  0
 15 24  1  0  0  0  0
 15 27  1  0  0  0  0
 15 31  2  0  0  0  0
 16 25  1  0  0  0  0
 16 28  1  0  0  0  0
 16 32  2  0  0  0  0
 17 19  1  0  0  0  0
 17 27  1  0  0  0  0
 18 20  1  0  0  0  0
 18 27  1  0  0  0  0
 19 29  1  0  0  0  0
 20 29  1  0  0  0  0
 21 28  1  0  0  0  0
 22 29  1  0  0  0  0
 23 30  1  0  0  0  0
 24 34  1  0  0  0  0
 25 30  1  0  0  0  0
  1 35  1  0  0  0  0
  2 36  1  0  0  0  0
  3 37  1  0  0  0  0
  4 38  1  0  0  0  0
  5 39  1  0  0  0  0
  6 40  1  0  0  0  0
  7 41  1  0  0  0  0
  8 42  1  0  0  0  0
 17 43  1  0  0  0  0
 17 44  1  0  0  0  0
 18 45  1  0  0  0  0
 18 46  1  0  0  0  0
 19 47  1  0  0  0  0
 19 48  1  0  0  0  0
 20 49  1  0  0  0  0
 20 50  1  0  0  0  0
 21 51  1  0  0  0  0
 21 52  1  0  0  0  0
 22 53  1  0  0  0  0
 22 54  1  0  0  0  0
 23 55  1  0  0  0  0
 23 56  1  0  0  0  0
 24 57  1  0  0  0  0
 24 58  1  0  0  0  0
 25 59  1  0  0  0  0
 25 60  1  0  0  0  0
 26 61  1  0  0  0  0
 28 62  1  0  0  0  0
 29 63  1  0  0  0  0
 30 64  1  0  0  0  0
 30 65  1  0  0  0  0
M  CHG  2  29   1  30   1
M  END
> <Chemgauss4>
-3.355997

> <ref_pdb>
x0692_0

> <CYS145-warhead min dist (A)>
5.078122

> <CYS145-warhead avg dist (A)>
6.240626

> <CYS145-warhead avg dist stderr (A)>
0.030811287

> <original SMILES>
c1cc(ccc1CNC(=O)C[NH2+]Cc2c[nH]c3c2cc(cc3)F)C[NH+]4CCN(CC4)C(=O)CCl

$$$$
PAU-WEI-b9b-7
  -OEChem-04232002263D

 68 71  0     1  0  0  0  0  0999 V2000
    6.2079   -5.3736   21.5436 C   0  0  0  0  0  0  0  0  0  0  0  0
    6.0780   -4.2147   22.3089 C   0  0  0  0  0  0  0  0  0  0  0  0
    7.2222   -6.2877   21.8287 C   0  0  0  0  0  0  0  0  0  0  0  0
    9.7277   -3.3412   20.1590 C   0  0  0  0  0  0  0  0  0  0  0  0
    8.9514   -2.3089   19.6199 C   0  0  0  0  0  0  0  0  0  0  0  0
    6.9625   -3.9698   23.3593 C   0  0  0  0  0  0  0  0  0  0  0  0
    8.1068   -6.0427   22.8791 C   0  0  0  0  0  0  0  0  0  0  0  0
   10.0381   -3.3655   21.5173 C   0  0  0  0  0  0  0  0  0  0  0  0
    7.5593    0.5061   21.4903 C   0  0  0  0  0  0  0  0  0  0  0  0
    8.4827   -1.2864   20.4686 C   0  0  0  0  0  0  0  0  0  0  0  0
    7.9769   -4.8838   23.6444 C   0  0  0  0  0  0  0  0  0  0  0  0
    9.5844   -2.3621   22.3783 C   0  0  0  0  0  0  0  0  0  0  0  0
    7.6940   -0.1184   20.2718 C   0  0  0  0  0  0  0  0  0  0  0  0
    8.8093   -1.3365   21.8254 C   0  0  0  0  0  0  0  0  0  0  0  0
   14.8203   -1.0349   26.0733 C   0  0  0  0  0  0  0  0  0  0  0  0
    3.8594   -1.3452   19.6780 C   0  0  0  0  0  0  0  0  0  0  0  0
   13.6087   -1.3518   23.9396 C   0  0  0  0  0  0  0  0  0  0  0  0
   12.4166   -0.2521   25.7950 C   0  0  0  0  0  0  0  0  0  0  0  0
   12.4294   -2.2851   23.7077 C   0  0  0  0  0  0  0  0  0  0  0  0
   11.2177   -1.1683   25.5897 C   0  0  0  0  0  0  0  0  0  0  0  0
    2.8343   -1.0371   20.7185 C   0  0  0  0  0  0  0  0  0  0  0  0
    8.9335   -4.6196   24.7793 C   0  0  0  0  0  0  0  0  0  0  0  0
    7.1193    0.3489   18.9940 C   0  0  0  0  0  0  0  0  0  0  0  0
   14.7783   -0.5390   27.4967 C   0  0  0  0  0  0  0  0  0  0  0  0
   10.2029   -3.8332   24.4085 C   0  0  0  0  0  0  0  0  0  0  0  0
    5.8754   -0.4368   18.5407 C   0  0  0  0  0  0  0  0  0  0  0  0
    9.9399   -2.4197   23.8472 C   0  0  1  0  0  0  0  0  0  0  0  0
    8.2357   -0.2359   22.4211 N   0  0  0  0  0  0  0  0  0  0  0  0
   13.6507   -0.8926   25.3279 N   0  0  0  0  0  0  0  0  0  0  0  0
    4.7999   -0.3448   19.4914 N   0  0  0  0  0  0  0  0  0  0  0  0
   11.1578   -1.5887   24.1382 N   0  3  0  0  0  0  0  0  0  0  0  0
   15.8611   -1.5356   25.6397 O   0  0  0  0  0  0  0  0  0  0  0  0
    3.8116   -2.4140   19.0805 O   0  0  0  0  0  0  0  0  0  0  0  0
   16.3586   -0.8764   28.1944 Cl  0  0  0  0  0  0  0  0  0  0  0  0
    5.5182   -5.5648   20.7267 H   0  0  0  0  0  0  0  0  0  0  0  0
    5.2875   -3.5034   22.0877 H   0  0  0  0  0  0  0  0  0  0  0  0
    7.3230   -7.1906   21.2338 H   0  0  0  0  0  0  0  0  0  0  0  0
   10.0925   -4.1323   19.5090 H   0  0  0  0  0  0  0  0  0  0  0  0
    8.7185   -2.3051   18.5589 H   0  0  0  0  0  0  0  0  0  0  0  0
    6.8539   -3.0640   23.9501 H   0  0  0  0  0  0  0  0  0  0  0  0
    8.8941   -6.7604   23.0938 H   0  0  0  0  0  0  0  0  0  0  0  0
   10.6444   -4.1808   21.9055 H   0  0  0  0  0  0  0  0  0  0  0  0
    7.0439    1.4113   21.7800 H   0  0  0  0  0  0  0  0  0  0  0  0
   14.5382   -1.8639   23.6716 H   0  0  0  0  0  0  0  0  0  0  0  0
   13.5320   -0.4633   23.3011 H   0  0  0  0  0  0  0  0  0  0  0  0
   12.2952    0.6757   25.2230 H   0  0  0  0  0  0  0  0  0  0  0  0
   12.4762    0.0276   26.8482 H   0  0  0  0  0  0  0  0  0  0  0  0
   12.3275   -2.5223   22.6438 H   0  0  0  0  0  0  0  0  0  0  0  0
   12.5185   -3.2116   24.2860 H   0  0  0  0  0  0  0  0  0  0  0  0
   11.2851   -2.0755   26.2005 H   0  0  0  0  0  0  0  0  0  0  0  0
   10.2855   -0.6402   25.8149 H   0  0  0  0  0  0  0  0  0  0  0  0
    1.9523   -0.5252   20.3012 H   0  0  0  0  0  0  0  0  0  0  0  0
    2.4415   -1.9452   21.2035 H   0  0  0  0  0  0  0  0  0  0  0  0
    3.1790   -0.3940   21.5439 H   0  0  0  0  0  0  0  0  0  0  0  0
    9.2331   -5.5950   25.1849 H   0  0  0  0  0  0  0  0  0  0  0  0
    8.4177   -4.1053   25.6001 H   0  0  0  0  0  0  0  0  0  0  0  0
    7.8768    0.2790   18.1885 H   0  0  0  0  0  0  0  0  0  0  0  0
    6.8605    1.4261   19.0385 H   0  0  0  0  0  0  0  0  0  0  0  0
   14.0100   -1.0818   28.0355 H   0  0  0  0  0  0  0  0  0  0  0  0
   14.5940    0.5291   27.4914 H   0  0  0  0  0  0  0  0  0  0  0  0
   10.7833   -3.7282   25.3359 H   0  0  0  0  0  0  0  0  0  0  0  0
   10.8331   -4.4164   23.7265 H   0  0  0  0  0  0  0  0  0  0  0  0
    5.4914   -0.0502   17.5914 H   0  0  0  0  0  0  0  0  0  0  0  0
    6.1087   -1.4983   18.4077 H   0  0  0  0  0  0  0  0  0  0  0  0
    9.1464   -1.9497   24.4405 H   0  0  0  0  0  0  0  0  0  0  0  0
    8.3032   -0.0079   23.4034 H   0  0  0  0  0  0  0  0  0  0  0  0
    4.7257    0.4995   20.0567 H   0  0  0  0  0  0  0  0  0  0  0  0
   11.0694   -0.7323   23.5739 H   0  0  0  0  0  0  0  0  0  0  0  0
  1  2  1  0  0  0  0
  1  3  2  0  0  0  0
  2  6  2  0  0  0  0
  3  7  1  0  0  0  0
  4  5  2  0  0  0  0
  4  8  1  0  0  0  0
  5 10  1  0  0  0  0
  6 11  1  0  0  0  0
  7 11  2  0  0  0  0
  8 12  2  0  0  0  0
  9 13  2  0  0  0  0
  9 28  1  0  0  0  0
 10 13  1  0  0  0  0
 10 14  2  0  0  0  0
 11 22  1  0  0  0  0
 12 14  1  0  0  0  0
 12 27  1  0  0  0  0
 13 23  1  0  0  0  0
 14 28  1  0  0  0  0
 15 24  1  0  0  0  0
 15 29  1  0  0  0  0
 15 32  2  0  0  0  0
 16 21  1  0  0  0  0
 16 30  1  0  0  0  0
 16 33  2  0  0  0  0
 17 19  1  0  0  0  0
 17 29  1  0  0  0  0
 18 20  1  0  0  0  0
 18 29  1  0  0  0  0
 19 31  1  0  0  0  0
 20 31  1  0  0  0  0
 22 25  1  0  0  0  0
 23 26  1  0  0  0  0
 24 34  1  0  0  0  0
 25 27  1  0  0  0  0
 26 30  1  0  0  0  0
 27 31  1  0  0  0  0
  1 35  1  0  0  0  0
  2 36  1  0  0  0  0
  3 37  1  0  0  0  0
  4 38  1  0  0  0  0
  5 39  1  0  0  0  0
  6 40  1  0  0  0  0
  7 41  1  0  0  0  0
  8 42  1  0  0  0  0
  9 43  1  0  0  0  0
 17 44  1  0  0  0  0
 17 45  1  0  0  0  0
 18 46  1  0  0  0  0
 18 47  1  0  0  0  0
 19 48  1  0  0  0  0
 19 49  1  0  0  0  0
 20 50  1  0  0  0  0
 20 51  1  0  0  0  0
 21 52  1  0  0  0  0
 21 53  1  0  0  0  0
 21 54  1  0  0  0  0
 22 55  1  0  0  0  0
 22 56  1  0  0  0  0
 23 57  1  0  0  0  0
 23 58  1  0  0  0  0
 24 59  1  0  0  0  0
 24 60  1  0  0  0  0
 25 61  1  0  0  0  0
 25 62  1  0  0  0  0
 26 63  1  0  0  0  0
 26 64  1  0  0  0  0
 27 65  1  0  0  0  0
 28 66  1  0  0  0  0
 30 67  1  0  0  0  0
 31 68  1  0  0  0  0
M  CHG  1  31   1
M  END
> <Chemgauss4>
-3.323151

> <ref_pdb>
x0749_0

> <CYS145-warhead min dist (A)>
7.682119

> <CYS145-warhead avg dist (A)>
8.519495

> <CYS145-warhead avg dist stderr (A)>
0.024501417

> <original SMILES>
CC(=O)NCCc1c[nH]c2c1cccc2[C@@H](CCc3ccccc3)[NH+]4CCN(CC4)C(=O)CCl

$$$$
STU-CHA-6d5-1
  -OEChem-04232002263D

 56 58  0     0  0  0  0  0  0999 V2000
    8.4727   -3.9386   27.1818 C   0  0  0  0  0  0  0  0  0  0  0  0
    8.5755   -5.3293   27.2121 C   0  0  0  0  0  0  0  0  0  0  0  0
    9.2621   -5.3290   24.8957 C   0  0  0  0  0  0  0  0  0  0  0  0
    8.7646   -3.2431   26.0084 C   0  0  0  0  0  0  0  0  0  0  0  0
    9.1593   -3.9383   24.8653 C   0  0  0  0  0  0  0  0  0  0  0  0
    8.9702   -6.0245   26.0691 C   0  0  0  0  0  0  0  0  0  0  0  0
    6.0804   -2.1053   19.3569 C   0  0  0  0  0  0  0  0  0  0  0  0
    6.2626   -3.2844   21.5244 C   0  0  0  0  0  0  0  0  0  0  0  0
    7.2752   -1.0456   21.3362 C   0  0  0  0  0  0  0  0  0  0  0  0
    7.9404    1.2389   24.3641 C   0  0  0  0  0  0  0  0  0  0  0  0
    8.1365    2.6005   26.4034 C   0  0  0  0  0  0  0  0  0  0  0  0
    7.5403   -3.8329   22.1425 C   0  0  0  0  0  0  0  0  0  0  0  0
    8.5684   -1.5603   21.9536 C   0  0  0  0  0  0  0  0  0  0  0  0
    9.1710    1.9571   23.8284 C   0  0  0  0  0  0  0  0  0  0  0  0
    9.3586    3.2619   25.7817 C   0  0  0  0  0  0  0  0  0  0  0  0
    8.6467   -1.7543   25.9992 C   0  0  0  0  0  0  0  0  0  0  0  0
    9.4767   -3.2119   23.5916 C   0  0  0  0  0  0  0  0  0  0  0  0
    6.4175   -0.8805   18.5446 C   0  0  0  0  0  0  0  0  0  0  0  0
    6.5448   -2.1300   20.6712 N   0  0  0  0  0  0  0  0  0  0  0  0
    8.0080    1.2188   25.8547 N   0  0  0  0  0  0  0  0  0  0  0  0
    7.2758   -1.3157   25.9512 N   0  0  0  0  0  0  0  0  0  0  0  0
    8.2519   -2.7173   22.8748 N   0  3  0  0  0  0  0  0  0  0  0  0
    5.4263   -3.0128   18.8366 O   0  0  0  0  0  0  0  0  0  0  0  0
    5.5362    0.6030   26.1592 O   0  0  0  0  0  0  0  0  0  0  0  0
    7.1473    0.1945   28.0519 O   0  0  0  0  0  0  0  0  0  0  0  0
    9.2410    3.2831   24.3575 O   0  0  0  0  0  0  0  0  0  0  0  0
    6.8537    0.2211   26.6317 S   0  0  0  0  0  0  0  0  0  0  0  0
    9.0952   -7.7402   26.1064 Cl  0  0  0  0  0  0  0  0  0  0  0  0
    7.9737   -1.1930   17.7841 Cl  0  0  0  0  0  0  0  0  0  0  0  0
    8.1640   -3.4063   28.0776 H   0  0  0  0  0  0  0  0  0  0  0  0
    8.3434   -5.8577   28.1332 H   0  0  0  0  0  0  0  0  0  0  0  0
    9.5688   -5.8670   24.0013 H   0  0  0  0  0  0  0  0  0  0  0  0
    5.7633   -4.0749   20.9554 H   0  0  0  0  0  0  0  0  0  0  0  0
    5.5646   -2.9551   22.3037 H   0  0  0  0  0  0  0  0  0  0  0  0
    6.6149   -0.6356   22.1100 H   0  0  0  0  0  0  0  0  0  0  0  0
    7.5072   -0.2298   20.6494 H   0  0  0  0  0  0  0  0  0  0  0  0
    7.0278    1.7623   24.0564 H   0  0  0  0  0  0  0  0  0  0  0  0
    7.9152    0.2145   23.9792 H   0  0  0  0  0  0  0  0  0  0  0  0
    8.2532    2.5595   27.4909 H   0  0  0  0  0  0  0  0  0  0  0  0
    7.2299    3.1661   26.1591 H   0  0  0  0  0  0  0  0  0  0  0  0
    7.3110   -4.6114   22.8773 H   0  0  0  0  0  0  0  0  0  0  0  0
    8.2258   -4.2298   21.3853 H   0  0  0  0  0  0  0  0  0  0  0  0
    9.2722   -1.9178   21.1936 H   0  0  0  0  0  0  0  0  0  0  0  0
    9.0434   -0.7818   22.5594 H   0  0  0  0  0  0  0  0  0  0  0  0
   10.0926    1.4179   24.0782 H   0  0  0  0  0  0  0  0  0  0  0  0
    9.1142    2.0347   22.7382 H   0  0  0  0  0  0  0  0  0  0  0  0
    9.4392    4.2976   26.1260 H   0  0  0  0  0  0  0  0  0  0  0  0
   10.2834    2.7432   26.0614 H   0  0  0  0  0  0  0  0  0  0  0  0
    9.1032   -1.3174   26.8976 H   0  0  0  0  0  0  0  0  0  0  0  0
    9.1626   -1.3166   25.1345 H   0  0  0  0  0  0  0  0  0  0  0  0
   10.1053   -2.3353   23.7818 H   0  0  0  0  0  0  0  0  0  0  0  0
   10.0119   -3.8602   22.8894 H   0  0  0  0  0  0  0  0  0  0  0  0
    6.4926   -0.0276   19.2094 H   0  0  0  0  0  0  0  0  0  0  0  0
    5.6546   -0.7402   17.7874 H   0  0  0  0  0  0  0  0  0  0  0  0
    6.7671   -1.5406   25.0688 H   0  0  0  0  0  0  0  0  0  0  0  0
    7.6105   -2.3662   23.5994 H   0  0  0  0  0  0  0  0  0  0  0  0
  1  2  2  0  0  0  0
  1  4  1  0  0  0  0
  2  6  1  0  0  0  0
  3  5  1  0  0  0  0
  3  6  2  0  0  0  0
  4  5  2  0  0  0  0
  4 16  1  0  0  0  0
  5 17  1  0  0  0  0
  6 28  1  0  0  0  0
  7 18  1  0  0  0  0
  7 19  1  0  0  0  0
  7 23  2  0  0  0  0
  8 12  1  0  0  0  0
  8 19  1  0  0  0  0
  9 13  1  0  0  0  0
  9 19  1  0  0  0  0
 10 14  1  0  0  0  0
 10 20  1  0  0  0  0
 11 15  1  0  0  0  0
 11 20  1  0  0  0  0
 12 22  1  0  0  0  0
 13 22  1  0  0  0  0
 14 26  1  0  0  0  0
 15 26  1  0  0  0  0
 16 21  1  0  0  0  0
 17 22  1  0  0  0  0
 18 29  1  0  0  0  0
 20 27  1  0  0  0  0
 21 27  1  0  0  0  0
 24 27  2  0  0  0  0
 25 27  2  0  0  0  0
  1 30  1  0  0  0  0
  2 31  1  0  0  0  0
  3 32  1  0  0  0  0
  8 33  1  0  0  0  0
  8 34  1  0  0  0  0
  9 35  1  0  0  0  0
  9 36  1  0  0  0  0
 10 37  1  0  0  0  0
 10 38  1  0  0  0  0
 11 39  1  0  0  0  0
 11 40  1  0  0  0  0
 12 41  1  0  0  0  0
 12 42  1  0  0  0  0
 13 43  1  0  0  0  0
 13 44  1  0  0  0  0
 14 45  1  0  0  0  0
 14 46  1  0  0  0  0
 15 47  1  0  0  0  0
 15 48  1  0  0  0  0
 16 49  1  0  0  0  0
 16 50  1  0  0  0  0
 17 51  1  0  0  0  0
 17 52  1  0  0  0  0
 18 53  1  0  0  0  0
 18 54  1  0  0  0  0
 21 55  1  0  0  0  0
 22 56  1  0  0  0  0
M  CHG  1  22   1
M  END
> <Chemgauss4>
-2.692535

> <ref_pdb>
x1412_0

> <CYS145-warhead min dist (A)>
5.7342916

> <CYS145-warhead avg dist (A)>
6.4127903

> <CYS145-warhead avg dist stderr (A)>
0.046187613

> <original SMILES>
c1cc(c(cc1Cl)C[NH+]2CCN(CC2)C(=O)CCl)CNS(=O)(=O)N3CCOCC3

$$$$
MAK-UNK-a79-1_thio_pH
  -OEChem-04232002263D

 66 69  0     0  0  0  0  0  0999 V2000
   13.5607    3.0677   22.1398 C   0  0  0  0  0  0  0  0  0  0  0  0
   13.8217    1.6994   22.0689 C   0  0  0  0  0  0  0  0  0  0  0  0
   12.7696    3.5744   23.1709 C   0  0  0  0  0  0  0  0  0  0  0  0
    6.2569   -6.2238   22.8404 C   0  0  0  0  0  0  0  0  0  0  0  0
    6.7048   -5.9599   24.1348 C   0  0  0  0  0  0  0  0  0  0  0  0
   13.2915    0.8376   23.0290 C   0  0  0  0  0  0  0  0  0  0  0  0
   12.2395    2.7126   24.1310 C   0  0  0  0  0  0  0  0  0  0  0  0
    6.0910   -5.1775   21.9329 C   0  0  0  0  0  0  0  0  0  0  0  0
    6.9867   -4.6498   24.5217 C   0  0  0  0  0  0  0  0  0  0  0  0
   12.5004    1.3442   24.0601 C   0  0  0  0  0  0  0  0  0  0  0  0
    6.3729   -3.8674   22.3199 C   0  0  0  0  0  0  0  0  0  0  0  0
    6.8207   -3.6035   23.6142 C   0  0  0  0  0  0  0  0  0  0  0  0
    5.7623   -2.9166   20.0732 C   0  0  0  0  0  0  0  0  0  0  0  0
    6.3623    2.5108   20.2048 C   0  0  0  0  0  0  0  0  0  0  0  0
    4.7273   -0.6739   20.1707 C   0  0  0  0  0  0  0  0  0  0  0  0
    7.1106   -0.9464   19.3947 C   0  0  0  0  0  0  0  0  0  0  0  0
    8.3955   -0.9779   25.5106 C   0  0  0  0  0  0  0  0  0  0  0  0
    9.2838   -1.6364   23.2510 C   0  0  0  0  0  0  0  0  0  0  0  0
    4.7351    0.7450   19.6082 C   0  0  0  0  0  0  0  0  0  0  0  0
    7.0696    0.4790   18.8477 C   0  0  0  0  0  0  0  0  0  0  0  0
    9.7939   -0.5571   25.9348 C   0  0  0  0  0  0  0  0  0  0  0  0
   10.6802   -1.2140   23.6803 C   0  0  0  0  0  0  0  0  0  0  0  0
    5.7130   -1.5712   19.4174 C   0  0  0  0  0  0  0  0  0  0  0  0
    8.4322   -2.0670   24.4426 C   0  0  0  0  0  0  0  0  0  0  0  0
   11.9296    0.4178   25.0931 C   0  0  0  0  0  0  0  0  0  0  0  0
    7.7860    3.0029   20.1391 C   0  0  0  0  0  0  0  0  0  0  0  0
    6.0937    1.2908   19.5854 N   0  0  0  0  0  0  0  0  0  0  0  0
    6.1989   -2.8167   21.3881 N   0  0  0  0  0  0  0  0  0  0  0  0
   10.5763   -0.1209   24.7181 N   0  3  0  0  0  0  0  0  0  0  0  0
    5.4384   -3.9274   19.4582 O   0  0  0  0  0  0  0  0  0  0  0  0
    5.5163    3.1908   20.7912 O   0  0  0  0  0  0  0  0  0  0  0  0
    7.1016   -2.3305   24.0127 O   0  0  0  0  0  0  0  0  0  0  0  0
    7.8195    4.5591   20.9607 Cl  0  0  0  0  0  0  0  0  0  0  0  0
   13.9747    3.7388   21.3928 H   0  0  0  0  0  0  0  0  0  0  0  0
   14.4386    1.3048   21.2667 H   0  0  0  0  0  0  0  0  0  0  0  0
   12.5672    4.6399   23.2270 H   0  0  0  0  0  0  0  0  0  0  0  0
    6.0380   -7.2441   22.5393 H   0  0  0  0  0  0  0  0  0  0  0  0
    6.8348   -6.7746   24.8411 H   0  0  0  0  0  0  0  0  0  0  0  0
   13.5000   -0.2272   22.9657 H   0  0  0  0  0  0  0  0  0  0  0  0
   11.6241    3.1163   24.9307 H   0  0  0  0  0  0  0  0  0  0  0  0
    5.7414   -5.3957   20.9269 H   0  0  0  0  0  0  0  0  0  0  0  0
    7.3355   -4.4514   25.5316 H   0  0  0  0  0  0  0  0  0  0  0  0
    4.9713   -0.6430   21.2330 H   0  0  0  0  0  0  0  0  0  0  0  0
    3.7219   -1.0878   20.0731 H   0  0  0  0  0  0  0  0  0  0  0  0
    7.7575   -1.5487   18.7567 H   0  0  0  0  0  0  0  0  0  0  0  0
    7.5409   -0.9375   20.3948 H   0  0  0  0  0  0  0  0  0  0  0  0
    7.8346   -1.3373   26.3820 H   0  0  0  0  0  0  0  0  0  0  0  0
    7.8357   -0.1090   25.1399 H   0  0  0  0  0  0  0  0  0  0  0  0
    8.7883   -0.8153   22.7165 H   0  0  0  0  0  0  0  0  0  0  0  0
    9.3497   -2.4589   22.5288 H   0  0  0  0  0  0  0  0  0  0  0  0
    4.2990    0.7447   18.6035 H   0  0  0  0  0  0  0  0  0  0  0  0
    4.1227    1.4136   20.2253 H   0  0  0  0  0  0  0  0  0  0  0  0
    8.0442    0.9673   18.9584 H   0  0  0  0  0  0  0  0  0  0  0  0
    6.8507    0.4488   17.7792 H   0  0  0  0  0  0  0  0  0  0  0  0
    9.7495    0.2950   26.6206 H   0  0  0  0  0  0  0  0  0  0  0  0
   10.3427   -1.3801   26.4061 H   0  0  0  0  0  0  0  0  0  0  0  0
   11.2393   -2.0441   24.1258 H   0  0  0  0  0  0  0  0  0  0  0  0
   11.2389   -0.8093   22.8301 H   0  0  0  0  0  0  0  0  0  0  0  0
    5.3658   -1.7276   18.4107 H   0  0  0  0  0  0  0  0  0  0  0  0
    8.8349   -2.9904   24.8760 H   0  0  0  0  0  0  0  0  0  0  0  0
   12.5805   -0.4489   25.2506 H   0  0  0  0  0  0  0  0  0  0  0  0
   11.8104    0.9251   26.0566 H   0  0  0  0  0  0  0  0  0  0  0  0
    8.0681    3.1247   19.0996 H   0  0  0  0  0  0  0  0  0  0  0  0
    8.4262    2.2960   20.6543 H   0  0  0  0  0  0  0  0  0  0  0  0
    6.4221   -1.8858   21.7342 H   0  0  0  0  0  0  0  0  0  0  0  0
   10.0618    0.6604   24.2886 H   0  0  0  0  0  0  0  0  0  0  0  0
  1  2  1  0  0  0  0
  1  3  2  0  0  0  0
  2  6  2  0  0  0  0
  3  7  1  0  0  0  0
  4  5  2  0  0  0  0
  4  8  1  0  0  0  0
  5  9  1  0  0  0  0
  6 10  1  0  0  0  0
  7 10  2  0  0  0  0
  8 11  2  0  0  0  0
  9 12  2  0  0  0  0
 10 25  1  0  0  0  0
 11 12  1  0  0  0  0
 11 28  1  0  0  0  0
 12 32  1  0  0  0  0
 13 23  1  0  0  0  0
 13 28  1  0  0  0  0
 13 30  2  0  0  0  0
 14 26  1  0  0  0  0
 14 27  1  0  0  0  0
 14 31  2  0  0  0  0
 15 19  1  0  0  0  0
 15 23  1  0  0  0  0
 16 20  1  0  0  0  0
 16 23  1  0  0  0  0
 17 21  1  0  0  0  0
 17 24  1  0  0  0  0
 18 22  1  0  0  0  0
 18 24  1  0  0  0  0
 19 27  1  0  0  0  0
 20 27  1  0  0  0  0
 21 29  1  0  0  0  0
 22 29  1  0  0  0  0
 24 32  1  0  0  0  0
 25 29  1  0  0  0  0
 26 33  1  0  0  0  0
  1 34  1  0  0  0  0
  2 35  1  0  0  0  0
  3 36  1  0  0  0  0
  4 37  1  0  0  0  0
  5 38  1  0  0  0  0
  6 39  1  0  0  0  0
  7 40  1  0  0  0  0
  8 41  1  0  0  0  0
  9 42  1  0  0  0  0
 15 43  1  0  0  0  0
 15 44  1  0  0  0  0
 16 45  1  0  0  0  0
 16 46  1  0  0  0  0
 17 47  1  0  0  0  0
 17 48  1  0  0  0  0
 18 49  1  0  0  0  0
 18 50  1  0  0  0  0
 19 51  1  0  0  0  0
 19 52  1  0  0  0  0
 20 53  1  0  0  0  0
 20 54  1  0  0  0  0
 21 55  1  0  0  0  0
 21 56  1  0  0  0  0
 22 57  1  0  0  0  0
 22 58  1  0  0  0  0
 23 59  1  0  0  0  0
 24 60  1  0  0  0  0
 25 61  1  0  0  0  0
 25 62  1  0  0  0  0
 26 63  1  0  0  0  0
 26 64  1  0  0  0  0
 28 65  1  0  0  0  0
 29 66  1  0  0  0  0
M  CHG  1  29   1
M  END
> <Chemgauss4>
-2.507308

> <ref_pdb>
x0831_0

> <CYS145-warhead min dist (A)>
6.075807

> <CYS145-warhead avg dist (A)>
7.0973644

> <CYS145-warhead avg dist stderr (A)>
0.021965543

> <original SMILES>
c1ccc(cc1)C[NH+]2CCC(CC2)Oc3ccccc3NC(=O)C4CCN(CC4)C(=O)CCl

$$$$
PAU-WEI-b9b-8
  -OEChem-04232002263D

 71 74  0     1  0  0  0  0  0999 V2000
   10.0062   -3.9587   20.1983 C   0  0  0  0  0  0  0  0  0  0  0  0
    9.3361   -2.8807   19.6085 C   0  0  0  0  0  0  0  0  0  0  0  0
   10.2640   -3.9751   21.5677 C   0  0  0  0  0  0  0  0  0  0  0  0
    6.2238   -4.4819   22.2249 C   0  0  0  0  0  0  0  0  0  0  0  0
    7.2106   -6.6518   21.8311 C   0  0  0  0  0  0  0  0  0  0  0  0
    7.0861   -4.2855   23.3035 C   0  0  0  0  0  0  0  0  0  0  0  0
    8.0730   -6.4553   22.9097 C   0  0  0  0  0  0  0  0  0  0  0  0
    8.1093    0.0808   21.3650 C   0  0  0  0  0  0  0  0  0  0  0  0
    8.9211   -1.8039   20.4170 C   0  0  0  0  0  0  0  0  0  0  0  0
    6.2860   -5.6651   21.4887 C   0  0  0  0  0  0  0  0  0  0  0  0
    8.0107   -5.2721   23.6459 C   0  0  0  0  0  0  0  0  0  0  0  0
    9.8620   -2.9183   22.3895 C   0  0  0  0  0  0  0  0  0  0  0  0
    8.2372   -0.5816   20.1659 C   0  0  0  0  0  0  0  0  0  0  0  0
    9.1931   -1.8475   21.7861 C   0  0  0  0  0  0  0  0  0  0  0  0
   15.0503   -1.9266   26.2531 C   0  0  0  0  0  0  0  0  0  0  0  0
    4.3401   -1.5111   19.4520 C   0  0  0  0  0  0  0  0  0  0  0  0
   13.8954   -2.1965   24.0818 C   0  0  0  0  0  0  0  0  0  0  0  0
   12.7295   -0.9607   25.8669 C   0  0  0  0  0  0  0  0  0  0  0  0
   12.6537   -3.0376   23.8246 C   0  0  0  0  0  0  0  0  0  0  0  0
   11.4687   -1.7825   25.6352 C   0  0  0  0  0  0  0  0  0  0  0  0
    5.3644   -5.8760   20.3354 C   0  0  0  0  0  0  0  0  0  0  0  0
    3.3061   -1.0971   20.4459 C   0  0  0  0  0  0  0  0  0  0  0  0
    8.9436   -5.0582   24.8108 C   0  0  0  0  0  0  0  0  0  0  0  0
    7.7490   -0.1004   18.8575 C   0  0  0  0  0  0  0  0  0  0  0  0
   14.9969   -1.3950   27.6631 C   0  0  0  0  0  0  0  0  0  0  0  0
   10.2852   -4.3851   24.4722 C   0  0  0  0  0  0  0  0  0  0  0  0
    6.4629   -0.7946   18.3737 C   0  0  0  0  0  0  0  0  0  0  0  0
   10.1580   -2.9690   23.8718 C   0  0  1  0  0  0  0  0  0  0  0  0
    8.6891   -0.6905   22.3363 N   0  0  0  0  0  0  0  0  0  0  0  0
   13.9240   -1.7090   25.4608 N   0  0  0  0  0  0  0  0  0  0  0  0
    5.3645   -0.5940   19.2805 N   0  0  0  0  0  0  0  0  0  0  0  0
   11.4277   -2.2315   24.1916 N   0  3  0  0  0  0  0  0  0  0  0  0
   16.0622   -2.5193   25.8701 O   0  0  0  0  0  0  0  0  0  0  0  0
    4.2276   -2.5866   18.8756 O   0  0  0  0  0  0  0  0  0  0  0  0
   16.5182   -1.8411   28.4276 Cl  0  0  0  0  0  0  0  0  0  0  0  0
   10.3292   -4.7917   19.5794 H   0  0  0  0  0  0  0  0  0  0  0  0
    9.1430   -2.8837   18.5396 H   0  0  0  0  0  0  0  0  0  0  0  0
   10.7878   -4.8268   21.9958 H   0  0  0  0  0  0  0  0  0  0  0  0
    5.5061   -3.7080   21.9657 H   0  0  0  0  0  0  0  0  0  0  0  0
    7.2667   -7.5761   21.2621 H   0  0  0  0  0  0  0  0  0  0  0  0
    7.0316   -3.3600   23.8704 H   0  0  0  0  0  0  0  0  0  0  0  0
    8.7903   -7.2292   23.1698 H   0  0  0  0  0  0  0  0  0  0  0  0
    7.6586    1.0311   21.6158 H   0  0  0  0  0  0  0  0  0  0  0  0
   14.7895   -2.7876   23.8603 H   0  0  0  0  0  0  0  0  0  0  0  0
   13.9142   -1.3202   23.4223 H   0  0  0  0  0  0  0  0  0  0  0  0
   12.7045   -0.0401   25.2713 H   0  0  0  0  0  0  0  0  0  0  0  0
   12.7733   -0.6615   26.9155 H   0  0  0  0  0  0  0  0  0  0  0  0
   12.5716   -3.2913   22.7628 H   0  0  0  0  0  0  0  0  0  0  0  0
   12.6463   -3.9541   24.4253 H   0  0  0  0  0  0  0  0  0  0  0  0
   11.4402   -2.6773   26.2671 H   0  0  0  0  0  0  0  0  0  0  0  0
   10.5747   -1.1762   25.8136 H   0  0  0  0  0  0  0  0  0  0  0  0
    5.8188   -5.5017   19.4099 H   0  0  0  0  0  0  0  0  0  0  0  0
    5.1297   -6.9401   20.2021 H   0  0  0  0  0  0  0  0  0  0  0  0
    4.4091   -5.3571   20.4886 H   0  0  0  0  0  0  0  0  0  0  0  0
    2.4841   -0.5263   19.9846 H   0  0  0  0  0  0  0  0  0  0  0  0
    2.8237   -1.9589   20.9345 H   0  0  0  0  0  0  0  0  0  0  0  0
    3.6715   -0.4640   21.2702 H   0  0  0  0  0  0  0  0  0  0  0  0
    9.1484   -6.0446   25.2479 H   0  0  0  0  0  0  0  0  0  0  0  0
    8.4417   -4.4848   25.6003 H   0  0  0  0  0  0  0  0  0  0  0  0
    8.5272   -0.2500   18.0832 H   0  0  0  0  0  0  0  0  0  0  0  0
    7.5768    0.9948   18.8695 H   0  0  0  0  0  0  0  0  0  0  0  0
   14.1681   -1.8614   28.1834 H   0  0  0  0  0  0  0  0  0  0  0  0
   14.8999   -0.3159   27.6284 H   0  0  0  0  0  0  0  0  0  0  0  0
   10.8381   -4.3048   25.4187 H   0  0  0  0  0  0  0  0  0  0  0  0
   10.8904   -5.0331   23.8271 H   0  0  0  0  0  0  0  0  0  0  0  0
    6.1463   -0.4014   17.4025 H   0  0  0  0  0  0  0  0  0  0  0  0
    6.6143   -1.8743   18.2720 H   0  0  0  0  0  0  0  0  0  0  0  0
    9.3841   -2.4228   24.4244 H   0  0  0  0  0  0  0  0  0  0  0  0
    8.7391   -0.4451   23.3154 H   0  0  0  0  0  0  0  0  0  0  0  0
    5.3385    0.2668   19.8247 H   0  0  0  0  0  0  0  0  0  0  0  0
   11.4296   -1.3845   23.6066 H   0  0  0  0  0  0  0  0  0  0  0  0
  1  2  2  0  0  0  0
  1  3  1  0  0  0  0
  2  9  1  0  0  0  0
  3 12  2  0  0  0  0
  4  6  2  0  0  0  0
  4 10  1  0  0  0  0
  5  7  1  0  0  0  0
  5 10  2  0  0  0  0
  6 11  1  0  0  0  0
  7 11  2  0  0  0  0
  8 13  2  0  0  0  0
  8 29  1  0  0  0  0
  9 13  1  0  0  0  0
  9 14  2  0  0  0  0
 10 21  1  0  0  0  0
 11 23  1  0  0  0  0
 12 14  1  0  0  0  0
 12 28  1  0  0  0  0
 13 24  1  0  0  0  0
 14 29  1  0  0  0  0
 15 25  1  0  0  0  0
 15 30  1  0  0  0  0
 15 33  2  0  0  0  0
 16 22  1  0  0  0  0
 16 31  1  0  0  0  0
 16 34  2  0  0  0  0
 17 19  1  0  0  0  0
 17 30  1  0  0  0  0
 18 20  1  0  0  0  0
 18 30  1  0  0  0  0
 19 32  1  0  0  0  0
 20 32  1  0  0  0  0
 23 26  1  0  0  0  0
 24 27  1  0  0  0  0
 25 35  1  0  0  0  0
 26 28  1  0  0  0  0
 27 31  1  0  0  0  0
 28 32  1  0  0  0  0
  1 36  1  0  0  0  0
  2 37  1  0  0  0  0
  3 38  1  0  0  0  0
  4 39  1  0  0  0  0
  5 40  1  0  0  0  0
  6 41  1  0  0  0  0
  7 42  1  0  0  0  0
  8 43  1  0  0  0  0
 17 44  1  0  0  0  0
 17 45  1  0  0  0  0
 18 46  1  0  0  0  0
 18 47  1  0  0  0  0
 19 48  1  0  0  0  0
 19 49  1  0  0  0  0
 20 50  1  0  0  0  0
 20 51  1  0  0  0  0
 21 52  1  0  0  0  0
 21 53  1  0  0  0  0
 21 54  1  0  0  0  0
 22 55  1  0  0  0  0
 22 56  1  0  0  0  0
 22 57  1  0  0  0  0
 23 58  1  0  0  0  0
 23 59  1  0  0  0  0
 24 60  1  0  0  0  0
 24 61  1  0  0  0  0
 25 62  1  0  0  0  0
 25 63  1  0  0  0  0
 26 64  1  0  0  0  0
 26 65  1  0  0  0  0
 27 66  1  0  0  0  0
 27 67  1  0  0  0  0
 28 68  1  0  0  0  0
 29 69  1  0  0  0  0
 31 70  1  0  0  0  0
 32 71  1  0  0  0  0
M  CHG  1  32   1
M  END
> <Chemgauss4>
-2.342505

> <ref_pdb>
x0749_0

> <CYS145-warhead min dist (A)>
7.0197577

> <CYS145-warhead avg dist (A)>
7.7555366

> <CYS145-warhead avg dist stderr (A)>
0.033386406

> <original SMILES>
Cc1ccc(cc1)CC[C@H](c2cccc3c2[nH]cc3CCNC(=O)C)[NH+]4CCN(CC4)C(=O)CCl

$$$$
NIM-UNI-ed9-4
  -OEChem-04232002263D

 66 68  0     1  0  0  0  0  0999 V2000
    6.3564   -6.3861   24.1973 C   0  0  0  0  0  0  0  0  0  0  0  0
    7.2097   -6.3381   23.0950 C   0  0  0  0  0  0  0  0  0  0  0  0
    6.4867   -5.4484   25.2216 C   0  0  0  0  0  0  0  0  0  0  0  0
    8.1936   -5.3523   23.0171 C   0  0  0  0  0  0  0  0  0  0  0  0
    7.4705   -4.4626   25.1438 C   0  0  0  0  0  0  0  0  0  0  0  0
    8.1941   -3.1000   20.2072 C   0  0  0  0  0  0  0  0  0  0  0  0
    6.2760   -1.6413   20.3801 C   0  0  0  0  0  0  0  0  0  0  0  0
    7.3476   -4.2077   20.1611 C   0  0  0  0  0  0  0  0  0  0  0  0
    5.4295   -2.7489   20.3339 C   0  0  0  0  0  0  0  0  0  0  0  0
    7.6583   -1.8168   20.3168 C   0  0  0  0  0  0  0  0  0  0  0  0
    8.3239   -4.4146   24.0415 C   0  0  0  0  0  0  0  0  0  0  0  0
    5.9653   -4.0321   20.2244 C   0  0  0  0  0  0  0  0  0  0  0  0
   15.0820   -1.5185   26.6101 C   0  0  0  0  0  0  0  0  0  0  0  0
    9.9125    1.7766   22.9068 C   0  0  0  0  0  0  0  0  0  0  0  0
    9.7486   -1.3948   22.4437 C   0  0  0  0  0  0  0  0  0  0  0  0
   13.6282   -2.4292   24.8274 C   0  0  0  0  0  0  0  0  0  0  0  0
   12.7634   -0.5637   26.1858 C   0  0  0  0  0  0  0  0  0  0  0  0
   12.3356   -3.2053   25.0332 C   0  0  0  0  0  0  0  0  0  0  0  0
   11.4561   -1.3115   26.4106 C   0  0  0  0  0  0  0  0  0  0  0  0
   10.8732    2.9048   22.7260 C   0  0  0  0  0  0  0  0  0  0  0  0
    8.5741   -0.6182   20.3661 C   0  0  0  0  0  0  0  0  0  0  0  0
   15.2429   -0.5299   27.7372 C   0  0  0  0  0  0  0  0  0  0  0  0
    9.8743   -2.9257   25.3486 C   0  0  0  0  0  0  0  0  0  0  0  0
    9.3923   -3.3439   23.9577 C   0  0  2  0  0  0  0  0  0  0  0  0
    8.9859   -0.2452   21.7949 C   0  0  2  0  0  0  0  0  0  0  0  0
   13.8643   -1.4990   25.9316 N   0  0  0  0  0  0  0  0  0  0  0  0
    8.9160   -2.2091   23.1975 N   0  0  0  0  0  0  0  0  0  0  0  0
    9.8464    0.9105   21.8292 N   0  0  0  0  0  0  0  0  0  0  0  0
   11.1999   -2.2270   25.2344 N   0  3  0  0  0  0  0  0  0  0  0  0
   16.0107   -2.2859   26.3440 O   0  0  0  0  0  0  0  0  0  0  0  0
    9.2727    1.6888   23.9482 O   0  0  0  0  0  0  0  0  0  0  0  0
   10.9646   -1.5372   22.3342 O   0  0  0  0  0  0  0  0  0  0  0  0
    5.1394   -5.1130   20.1781 O   0  0  0  0  0  0  0  0  0  0  0  0
   14.6414   -1.3203   29.1903 Cl  0  0  0  0  0  0  0  0  0  0  0  0
    5.5895   -7.1529   24.2571 H   0  0  0  0  0  0  0  0  0  0  0  0
    7.1077   -7.0675   22.2968 H   0  0  0  0  0  0  0  0  0  0  0  0
    5.8217   -5.4848   26.0794 H   0  0  0  0  0  0  0  0  0  0  0  0
    8.8542   -5.3227   22.1546 H   0  0  0  0  0  0  0  0  0  0  0  0
    7.5648   -3.7362   25.9466 H   0  0  0  0  0  0  0  0  0  0  0  0
    9.2698   -3.2461   20.1574 H   0  0  0  0  0  0  0  0  0  0  0  0
    5.8497   -0.6451   20.4656 H   0  0  0  0  0  0  0  0  0  0  0  0
    7.7711   -5.2049   20.0754 H   0  0  0  0  0  0  0  0  0  0  0  0
    4.3537   -2.6056   20.3833 H   0  0  0  0  0  0  0  0  0  0  0  0
   14.4627   -3.1299   24.7247 H   0  0  0  0  0  0  0  0  0  0  0  0
   13.5840   -1.8394   23.9037 H   0  0  0  0  0  0  0  0  0  0  0  0
   12.6863    0.0932   25.3109 H   0  0  0  0  0  0  0  0  0  0  0  0
   12.9624    0.0750   27.0480 H   0  0  0  0  0  0  0  0  0  0  0  0
   12.0983   -3.8030   24.1471 H   0  0  0  0  0  0  0  0  0  0  0  0
   12.3815   -3.8541   25.9151 H   0  0  0  0  0  0  0  0  0  0  0  0
   11.4862   -1.9274   27.3164 H   0  0  0  0  0  0  0  0  0  0  0  0
   10.6162   -0.6116   26.4680 H   0  0  0  0  0  0  0  0  0  0  0  0
   10.4024    3.7883   22.2659 H   0  0  0  0  0  0  0  0  0  0  0  0
   11.2881    3.2610   23.6826 H   0  0  0  0  0  0  0  0  0  0  0  0
   11.7488    2.6817   22.0957 H   0  0  0  0  0  0  0  0  0  0  0  0
    9.4641   -0.8078   19.7509 H   0  0  0  0  0  0  0  0  0  0  0  0
    8.0635    0.2247   19.8817 H   0  0  0  0  0  0  0  0  0  0  0  0
   14.6493    0.3507   27.5197 H   0  0  0  0  0  0  0  0  0  0  0  0
   16.2948   -0.2937   27.8500 H   0  0  0  0  0  0  0  0  0  0  0  0
    9.1952   -2.2210   25.8394 H   0  0  0  0  0  0  0  0  0  0  0  0
   10.0343   -3.7883   26.0037 H   0  0  0  0  0  0  0  0  0  0  0  0
   10.2468   -3.7340   23.3901 H   0  0  0  0  0  0  0  0  0  0  0  0
    8.1116   -0.0021   22.4101 H   0  0  0  0  0  0  0  0  0  0  0  0
    7.9232   -1.9982   23.2166 H   0  0  0  0  0  0  0  0  0  0  0  0
   10.4347    1.0991   21.0208 H   0  0  0  0  0  0  0  0  0  0  0  0
   11.1484   -1.6374   24.3921 H   0  0  0  0  0  0  0  0  0  0  0  0
    4.2125   -4.8306   20.2322 H   0  0  0  0  0  0  0  0  0  0  0  0
  1  2  1  0  0  0  0
  1  3  2  0  0  0  0
  2  4  2  0  0  0  0
  3  5  1  0  0  0  0
  4 11  1  0  0  0  0
  5 11  2  0  0  0  0
  6  8  2  0  0  0  0
  6 10  1  0  0  0  0
  7  9  1  0  0  0  0
  7 10  2  0  0  0  0
  8 12  1  0  0  0  0
  9 12  2  0  0  0  0
 10 21  1  0  0  0  0
 11 24  1  0  0  0  0
 12 33  1  0  0  0  0
 13 22  1  0  0  0  0
 13 26  1  0  0  0  0
 13 30  2  0  0  0  0
 14 20  1  0  0  0  0
 14 28  1  0  0  0  0
 14 31  2  0  0  0  0
 15 25  1  0  0  0  0
 15 27  1  0  0  0  0
 15 32  2  0  0  0  0
 16 18  1  0  0  0  0
 16 26  1  0  0  0  0
 17 19  1  0  0  0  0
 17 26  1  0  0  0  0
 18 29  1  0  0  0  0
 19 29  1  0  0  0  0
 21 25  1  0  0  0  0
 22 34  1  0  0  0  0
 23 24  1  0  0  0  0
 23 29  1  0  0  0  0
 24 27  1  0  0  0  0
 25 28  1  0  0  0  0
  1 35  1  0  0  0  0
  2 36  1  0  0  0  0
  3 37  1  0  0  0  0
  4 38  1  0  0  0  0
  5 39  1  0  0  0  0
  6 40  1  0  0  0  0
  7 41  1  0  0  0  0
  8 42  1  0  0  0  0
  9 43  1  0  0  0  0
 16 44  1  0  0  0  0
 16 45  1  0  0  0  0
 17 46  1  0  0  0  0
 17 47  1  0  0  0  0
 18 48  1  0  0  0  0
 18 49  1  0  0  0  0
 19 50  1  0  0  0  0
 19 51  1  0  0  0  0
 20 52  1  0  0  0  0
 20 53  1  0  0  0  0
 20 54  1  0  0  0  0
 21 55  1  0  0  0  0
 21 56  1  0  0  0  0
 22 57  1  0  0  0  0
 22 58  1  0  0  0  0
 23 59  1  0  0  0  0
 23 60  1  0  0  0  0
 24 61  1  0  0  0  0
 25 62  1  0  0  0  0
 27 63  1  0  0  0  0
 28 64  1  0  0  0  0
 29 65  1  0  0  0  0
 33 66  1  0  0  0  0
M  CHG  1  29   1
M  END
> <Chemgauss4>
-1.241435

> <ref_pdb>
x0749_0

> <CYS145-warhead min dist (A)>
7.27221

> <CYS145-warhead avg dist (A)>
8.541591

> <CYS145-warhead avg dist stderr (A)>
0.038951002

> <original SMILES>
CC(=O)N[C@@H](Cc1ccc(cc1)O)C(=O)N[C@@H](C[NH+]2CCN(CC2)C(=O)CCl)c3ccccc3

$$$$
MAK-UNK-e4a-8_thio_pH
  -OEChem-04232002263D

 58 61  0     0  0  0  0  0  0999 V2000
   10.4220    2.9167   24.4219 C   0  0  0  0  0  0  0  0  0  0  0  0
   10.3222    2.9917   23.0326 C   0  0  0  0  0  0  0  0  0  0  0  0
   10.7873    1.7163   25.0311 C   0  0  0  0  0  0  0  0  0  0  0  0
    3.1999   -5.1595   23.4149 C   0  0  0  0  0  0  0  0  0  0  0  0
   10.5875    1.8662   22.2526 C   0  0  0  0  0  0  0  0  0  0  0  0
   11.0526    0.5907   24.2511 C   0  0  0  0  0  0  0  0  0  0  0  0
    3.0437   -5.1543   24.8009 C   0  0  0  0  0  0  0  0  0  0  0  0
    4.3014   -4.5305   22.8347 C   0  0  0  0  0  0  0  0  0  0  0  0
    5.0906   -3.8908   25.0267 C   0  0  0  0  0  0  0  0  0  0  0  0
    8.5588   -2.1941   20.2038 C   0  0  0  0  0  0  0  0  0  0  0  0
   10.9527    0.6657   22.8619 C   0  0  0  0  0  0  0  0  0  0  0  0
    3.9891   -4.5199   25.6068 C   0  0  0  0  0  0  0  0  0  0  0  0
    5.2468   -3.8961   23.6406 C   0  0  0  0  0  0  0  0  0  0  0  0
    7.9456   -2.4661   21.4088 C   0  0  0  0  0  0  0  0  0  0  0  0
   10.0351   -1.2748   21.5400 C   0  0  0  0  0  0  0  0  0  0  0  0
    6.6809   -3.1652   21.6939 C   0  0  0  0  0  0  0  0  0  0  0  0
    2.0732   -0.4262   30.4026 C   0  0  0  0  0  0  0  0  0  0  0  0
    4.0724   -1.6601   29.6271 C   0  0  0  0  0  0  0  0  0  0  0  0
    2.3442   -1.0946   27.9638 C   0  0  0  0  0  0  0  0  0  0  0  0
    4.1032   -3.1001   29.1360 C   0  0  0  0  0  0  0  0  0  0  0  0
    2.3504   -2.5266   27.4460 C   0  0  0  0  0  0  0  0  0  0  0  0
   11.2418   -0.5618   22.0122 C   0  0  0  0  0  0  0  0  0  0  0  0
    3.8207   -4.5146   27.0977 C   0  0  0  0  0  0  0  0  0  0  0  0
    0.7393    0.1820   30.0496 C   0  0  0  0  0  0  0  0  0  0  0  0
    9.7569   -1.5107   20.2770 N   0  0  0  0  0  0  0  0  0  0  0  0
    2.7719   -1.0433   29.3660 N   0  0  0  0  0  0  0  0  0  0  0  0
    6.3488   -3.2676   23.0600 N   0  0  0  0  0  0  0  0  0  0  0  0
    3.7181   -3.1303   27.6737 N   0  3  0  0  0  0  0  0  0  0  0  0
    6.0039   -3.6436   20.7863 O   0  0  0  0  0  0  0  0  0  0  0  0
    2.4789   -0.3561   31.5656 O   0  0  0  0  0  0  0  0  0  0  0  0
    8.8998   -1.8473   22.6925 S   0  0  0  0  0  0  0  0  0  0  0  0
    0.0791    0.8476   31.5392 Cl  0  0  0  0  0  0  0  0  0  0  0  0
   10.2167    3.7936   25.0290 H   0  0  0  0  0  0  0  0  0  0  0  0
   10.0389    3.9266   22.5580 H   0  0  0  0  0  0  0  0  0  0  0  0
   10.8661    1.6578   26.1127 H   0  0  0  0  0  0  0  0  0  0  0  0
    2.4640   -5.6538   22.7873 H   0  0  0  0  0  0  0  0  0  0  0  0
   10.5071    1.9338   21.1709 H   0  0  0  0  0  0  0  0  0  0  0  0
   11.3363   -0.3404   24.7345 H   0  0  0  0  0  0  0  0  0  0  0  0
    2.1821   -5.6464   25.2435 H   0  0  0  0  0  0  0  0  0  0  0  0
    4.4129   -4.5407   21.7534 H   0  0  0  0  0  0  0  0  0  0  0  0
    5.8262   -3.3961   25.6573 H   0  0  0  0  0  0  0  0  0  0  0  0
    8.1738   -2.4719   19.2313 H   0  0  0  0  0  0  0  0  0  0  0  0
    4.3073   -1.6335   30.6958 H   0  0  0  0  0  0  0  0  0  0  0  0
    4.8316   -1.0582   29.1129 H   0  0  0  0  0  0  0  0  0  0  0  0
    3.0413   -0.4735   27.3883 H   0  0  0  0  0  0  0  0  0  0  0  0
    1.3488   -0.6690   27.8257 H   0  0  0  0  0  0  0  0  0  0  0  0
    5.1135   -3.5143   29.2160 H   0  0  0  0  0  0  0  0  0  0  0  0
    3.3984   -3.7362   29.6831 H   0  0  0  0  0  0  0  0  0  0  0  0
    1.6153   -3.1532   27.9634 H   0  0  0  0  0  0  0  0  0  0  0  0
    2.1599   -2.5479   26.3681 H   0  0  0  0  0  0  0  0  0  0  0  0
   11.8813   -0.2522   21.1611 H   0  0  0  0  0  0  0  0  0  0  0  0
   11.9035   -1.2372   22.5910 H   0  0  0  0  0  0  0  0  0  0  0  0
    2.9111   -5.0472   27.3953 H   0  0  0  0  0  0  0  0  0  0  0  0
    4.6686   -4.9995   27.5932 H   0  0  0  0  0  0  0  0  0  0  0  0
    0.0878   -0.5964   29.6690 H   0  0  0  0  0  0  0  0  0  0  0  0
    0.8945    0.9730   29.3249 H   0  0  0  0  0  0  0  0  0  0  0  0
    7.0033   -2.8215   23.7129 H   0  0  0  0  0  0  0  0  0  0  0  0
    4.3986   -2.5500   27.1639 H   0  0  0  0  0  0  0  0  0  0  0  0
  1  2  1  0  0  0  0
  1  3  2  0  0  0  0
  2  5  2  0  0  0  0
  3  6  1  0  0  0  0
  4  7  1  0  0  0  0
  4  8  2  0  0  0  0
  5 11  1  0  0  0  0
  6 11  2  0  0  0  0
  7 12  2  0  0  0  0
  8 13  1  0  0  0  0
  9 12  1  0  0  0  0
  9 13  2  0  0  0  0
 10 14  2  0  0  0  0
 10 25  1  0  0  0  0
 11 22  1  0  0  0  0
 12 23  1  0  0  0  0
 13 27  1  0  0  0  0
 14 16  1  0  0  0  0
 14 31  1  0  0  0  0
 15 22  1  0  0  0  0
 15 25  2  0  0  0  0
 15 31  1  0  0  0  0
 16 27  1  0  0  0  0
 16 29  2  0  0  0  0
 17 24  1  0  0  0  0
 17 26  1  0  0  0  0
 17 30  2  0  0  0  0
 18 20  1  0  0  0  0
 18 26  1  0  0  0  0
 19 21  1  0  0  0  0
 19 26  1  0  0  0  0
 20 28  1  0  0  0  0
 21 28  1  0  0  0  0
 23 28  1  0  0  0  0
 24 32  1  0  0  0  0
  1 33  1  0  0  0  0
  2 34  1  0  0  0  0
  3 35  1  0  0  0  0
  4 36  1  0  0  0  0
  5 37  1  0  0  0  0
  6 38  1  0  0  0  0
  7 39  1  0  0  0  0
  8 40  1  0  0  0  0
  9 41  1  0  0  0  0
 10 42  1  0  0  0  0
 18 43  1  0  0  0  0
 18 44  1  0  0  0  0
 19 45  1  0  0  0  0
 19 46  1  0  0  0  0
 20 47  1  0  0  0  0
 20 48  1  0  0  0  0
 21 49  1  0  0  0  0
 21 50  1  0  0  0  0
 22 51  1  0  0  0  0
 22 52  1  0  0  0  0
 23 53  1  0  0  0  0
 23 54  1  0  0  0  0
 24 55  1  0  0  0  0
 24 56  1  0  0  0  0
 27 57  1  0  0  0  0
 28 58  1  0  0  0  0
M  CHG  1  28   1
M  END
> <Chemgauss4>
-1.062510

> <ref_pdb>
x1384_0

> <CYS145-warhead min dist (A)>
11.430727

> <CYS145-warhead avg dist (A)>
12.8463

> <CYS145-warhead avg dist stderr (A)>
0.08754576

> <original SMILES>
c1ccc(cc1)Cc2ncc(s2)C(=O)Nc3cccc(c3)C[NH+]4CCN(CC4)C(=O)CCl

$$$$
PAU-WEI-b9b-9
  -OEChem-04232002263D

 71 74  0     1  0  0  0  0  0999 V2000
    9.5417   -2.5627   23.5848 C   0  0  0  0  0  0  0  0  0  0  0  0
    9.2860   -1.6420   22.5621 C   0  0  0  0  0  0  0  0  0  0  0  0
    8.8364   -2.5090   24.7855 C   0  0  0  0  0  0  0  0  0  0  0  0
    5.3793   -3.3987   24.0954 C   0  0  0  0  0  0  0  0  0  0  0  0
    6.6644   -5.3431   24.7317 C   0  0  0  0  0  0  0  0  0  0  0  0
    5.4733   -3.7750   22.7555 C   0  0  0  0  0  0  0  0  0  0  0  0
    6.7584   -5.7195   23.3918 C   0  0  0  0  0  0  0  0  0  0  0  0
    6.8226    1.0553   22.6939 C   0  0  0  0  0  0  0  0  0  0  0  0
    8.3018   -0.6528   22.7581 C   0  0  0  0  0  0  0  0  0  0  0  0
    5.9749   -4.1828   25.0834 C   0  0  0  0  0  0  0  0  0  0  0  0
    6.1628   -4.9354   22.4037 C   0  0  0  0  0  0  0  0  0  0  0  0
    7.8558   -1.5368   25.0026 C   0  0  0  0  0  0  0  0  0  0  0  0
    7.7941    0.4120   21.9622 C   0  0  0  0  0  0  0  0  0  0  0  0
    7.6109   -0.6231   23.9714 C   0  0  0  0  0  0  0  0  0  0  0  0
    9.0367    0.4882   31.1127 C   0  0  0  0  0  0  0  0  0  0  0  0
    5.4957   -1.2577   19.0484 C   0  0  0  0  0  0  0  0  0  0  0  0
    9.6413   -0.0302   28.7703 C   0  0  0  0  0  0  0  0  0  0  0  0
    7.4373    0.9856   29.1989 C   0  0  0  0  0  0  0  0  0  0  0  0
    9.0020   -1.0974   27.8941 C   0  0  0  0  0  0  0  0  0  0  0  0
    6.7645   -0.0660   28.3270 C   0  0  0  0  0  0  0  0  0  0  0  0
    4.0200   -1.0348   19.0773 C   0  0  0  0  0  0  0  0  0  0  0  0
    5.8738   -3.7768   26.5319 C   0  0  0  0  0  0  0  0  0  0  0  0
    8.2256    0.7711   20.5961 C   0  0  0  0  0  0  0  0  0  0  0  0
    7.9997    1.0206   32.0692 C   0  0  0  0  0  0  0  0  0  0  0  0
    7.0008   -2.8642   27.0459 C   0  0  0  0  0  0  0  0  0  0  0  0
    7.6824   -0.1638   19.5003 C   0  0  0  0  0  0  0  0  0  0  0  0
    7.1094   -1.5078   26.3176 C   0  0  1  0  0  0  0  0  0  0  0  0
    6.2614   -5.3380   20.9711 C   0  0  0  0  0  0  0  0  0  0  0  0
    6.7195    0.4239   23.9044 N   0  0  0  0  0  0  0  0  0  0  0  0
    8.6914    0.4741   29.7621 N   0  0  0  0  0  0  0  0  0  0  0  0
    6.2448   -0.1639   19.4514 N   0  0  0  0  0  0  0  0  0  0  0  0
    7.7423   -0.5359   27.2733 N   0  3  0  0  0  0  0  0  0  0  0  0
   10.1192    0.0949   31.5548 O   0  0  0  0  0  0  0  0  0  0  0  0
    5.9358   -2.3433   18.6886 O   0  0  0  0  0  0  0  0  0  0  0  0
    5.6311   -4.4788   20.1163 F   0  0  0  0  0  0  0  0  0  0  0  0
    7.5456   -5.4178   20.5127 F   0  0  0  0  0  0  0  0  0  0  0  0
    5.7100   -6.5632   20.7308 F   0  0  0  0  0  0  0  0  0  0  0  0
    8.6873    0.8858   33.6838 Cl  0  0  0  0  0  0  0  0  0  0  0  0
   10.3001   -3.3275   23.4394 H   0  0  0  0  0  0  0  0  0  0  0  0
    9.8447   -1.6978   21.6323 H   0  0  0  0  0  0  0  0  0  0  0  0
    9.0591   -3.2381   25.5613 H   0  0  0  0  0  0  0  0  0  0  0  0
    4.8406   -2.4927   24.3602 H   0  0  0  0  0  0  0  0  0  0  0  0
    7.1304   -5.9604   25.4953 H   0  0  0  0  0  0  0  0  0  0  0  0
    5.0048   -3.1590   21.9926 H   0  0  0  0  0  0  0  0  0  0  0  0
    7.2977   -6.6249   23.1264 H   0  0  0  0  0  0  0  0  0  0  0  0
    6.1952    1.9052   22.4636 H   0  0  0  0  0  0  0  0  0  0  0  0
   10.5301   -0.4423   29.2584 H   0  0  0  0  0  0  0  0  0  0  0  0
    9.9698    0.8235   28.1651 H   0  0  0  0  0  0  0  0  0  0  0  0
    7.6854    1.8754   28.6077 H   0  0  0  0  0  0  0  0  0  0  0  0
    6.7411    1.3032   29.9770 H   0  0  0  0  0  0  0  0  0  0  0  0
    9.6723   -1.3779   27.0752 H   0  0  0  0  0  0  0  0  0  0  0  0
    8.7260   -1.9894   28.4678 H   0  0  0  0  0  0  0  0  0  0  0  0
    6.4494   -0.9402   28.9077 H   0  0  0  0  0  0  0  0  0  0  0  0
    5.9021    0.3603   27.8045 H   0  0  0  0  0  0  0  0  0  0  0  0
    3.6356   -0.6391   18.1235 H   0  0  0  0  0  0  0  0  0  0  0  0
    3.4575   -1.9657   19.2540 H   0  0  0  0  0  0  0  0  0  0  0  0
    3.6646   -0.3313   19.8471 H   0  0  0  0  0  0  0  0  0  0  0  0
    5.8720   -4.6990   27.1280 H   0  0  0  0  0  0  0  0  0  0  0  0
    4.9055   -3.2985   26.7265 H   0  0  0  0  0  0  0  0  0  0  0  0
    9.3317    0.7619   20.5322 H   0  0  0  0  0  0  0  0  0  0  0  0
    7.9421    1.8131   20.3447 H   0  0  0  0  0  0  0  0  0  0  0  0
    7.1060    0.4118   31.9933 H   0  0  0  0  0  0  0  0  0  0  0  0
    7.8048    2.0605   31.8331 H   0  0  0  0  0  0  0  0  0  0  0  0
    6.7791   -2.6653   28.1039 H   0  0  0  0  0  0  0  0  0  0  0  0
    7.9610   -3.3937   27.0367 H   0  0  0  0  0  0  0  0  0  0  0  0
    8.0318    0.1470   18.5106 H   0  0  0  0  0  0  0  0  0  0  0  0
    8.0073   -1.1958   19.6685 H   0  0  0  0  0  0  0  0  0  0  0  0
    6.0985   -1.1118   26.1627 H   0  0  0  0  0  0  0  0  0  0  0  0
    6.0807    0.6889   24.6414 H   0  0  0  0  0  0  0  0  0  0  0  0
    5.7520    0.6839   19.7274 H   0  0  0  0  0  0  0  0  0  0  0  0
    8.0134    0.2870   26.7173 H   0  0  0  0  0  0  0  0  0  0  0  0
  1  2  2  0  0  0  0
  1  3  1  0  0  0  0
  2  9  1  0  0  0  0
  3 12  2  0  0  0  0
  4  6  2  0  0  0  0
  4 10  1  0  0  0  0
  5  7  1  0  0  0  0
  5 10  2  0  0  0  0
  6 11  1  0  0  0  0
  7 11  2  0  0  0  0
  8 13  2  0  0  0  0
  8 29  1  0  0  0  0
  9 13  1  0  0  0  0
  9 14  2  0  0  0  0
 10 22  1  0  0  0  0
 11 28  1  0  0  0  0
 12 14  1  0  0  0  0
 12 27  1  0  0  0  0
 13 23  1  0  0  0  0
 14 29  1  0  0  0  0
 15 24  1  0  0  0  0
 15 30  1  0  0  0  0
 15 33  2  0  0  0  0
 16 21  1  0  0  0  0
 16 31  1  0  0  0  0
 16 34  2  0  0  0  0
 17 19  1  0  0  0  0
 17 30  1  0  0  0  0
 18 20  1  0  0  0  0
 18 30  1  0  0  0  0
 19 32  1  0  0  0  0
 20 32  1  0  0  0  0
 22 25  1  0  0  0  0
 23 26  1  0  0  0  0
 24 38  1  0  0  0  0
 25 27  1  0  0  0  0
 26 31  1  0  0  0  0
 27 32  1  0  0  0  0
 28 35  1  0  0  0  0
 28 36  1  0  0  0  0
 28 37  1  0  0  0  0
  1 39  1  0  0  0  0
  2 40  1  0  0  0  0
  3 41  1  0  0  0  0
  4 42  1  0  0  0  0
  5 43  1  0  0  0  0
  6 44  1  0  0  0  0
  7 45  1  0  0  0  0
  8 46  1  0  0  0  0
 17 47  1  0  0  0  0
 17 48  1  0  0  0  0
 18 49  1  0  0  0  0
 18 50  1  0  0  0  0
 19 51  1  0  0  0  0
 19 52  1  0  0  0  0
 20 53  1  0  0  0  0
 20 54  1  0  0  0  0
 21 55  1  0  0  0  0
 21 56  1  0  0  0  0
 21 57  1  0  0  0  0
 22 58  1  0  0  0  0
 22 59  1  0  0  0  0
 23 60  1  0  0  0  0
 23 61  1  0  0  0  0
 24 62  1  0  0  0  0
 24 63  1  0  0  0  0
 25 64  1  0  0  0  0
 25 65  1  0  0  0  0
 26 66  1  0  0  0  0
 26 67  1  0  0  0  0
 27 68  1  0  0  0  0
 29 69  1  0  0  0  0
 31 70  1  0  0  0  0
 32 71  1  0  0  0  0
M  CHG  1  32   1
M  END
> <Chemgauss4>
-0.645500

> <ref_pdb>
x1358_0

> <CYS145-warhead min dist (A)>
12.916398

> <CYS145-warhead avg dist (A)>
14.36438

> <CYS145-warhead avg dist stderr (A)>
0.049321014

> <original SMILES>
CC(=O)NCCc1c[nH]c2c1cccc2[C@@H](CCc3ccc(cc3)C(F)(F)F)[NH+]4CCN(CC4)C(=O)CCl

$$$$
